AV-unprocessed.smi:2525|AV-procd|sdf|9931|dock2
  -GOLD-   2272013573D 1   1.00000     0.00000
 Structure written by MMmdl.
 44 45  0  0  0  0  0  0  0  0  1 V2000
  148.3371  138.0522  157.4192 C   0  0  0  0  0  0  0  0  0  0  0  0
  148.4915  139.5818  157.3735 C   0  0  0  0  0  0  0  0  0  0  0  0
  149.9029  140.1344  157.0573 C   0  0  0  0  0  0  0  0  0  0  0  0
  149.8161  141.6846  157.1590 C   0  0  0  0  0  0  0  0  0  0  0  0
  151.0503  142.4710  156.6777 C   0  0  0  0  0  0  0  0  0  0  0  0
  151.1032  139.4796  157.8039 C   0  0  2  0  0  0  0  0  0  0  0  0
  151.6154  140.2686  158.9192 N   0  0  0  0  0  0  0  0  0  0  0  0
  152.9083  140.3580  159.2634 C   0  0  0  0  0  0  0  0  0  0  0  0
  153.8152  139.7951  158.6508 O   0  0  0  0  0  0  0  0  0  0  0  0
  153.2282  141.2104  160.4918 C   0  0  0  0  0  0  0  0  0  0  0  0
  152.4071  142.4075  160.5255 N   0  0  0  0  0  0  0  0  0  0  0  0
  152.4099  143.4784  159.6546 C   0  0  0  0  0  0  0  0  0  0  0  0
  151.4395  144.2980  160.1563 C   0  0  0  0  0  0  0  0  0  0  0  0
  150.8949  143.7024  161.2928 N   0  0  0  0  0  0  0  0  0  0  0  0
  151.4844  142.5678  161.5050 N   0  0  0  0  0  0  0  0  0  0  0  0
  151.9511  139.6023  156.5317 C   0  0  1  0  0  0  0  0  0  0  0  0
  153.0077  138.5411  156.2500 C   0  0  0  0  0  0  0  0  0  0  0  0
  150.6030  139.5585  155.7928 C   0  0  2  0  0  0  0  0  0  0  0  0
  150.5250  140.4108  154.6611 O   0  0  0  0  0  0  0  0  0  0  0  0
  149.1988  140.7610  154.3071 C   0  0  0  0  0  0  0  0  0  0  0  0
  147.2887  137.7824  157.5475 H   0  0  0  0  0  0  0  0  0  0  0  0
  148.8790  137.6180  158.2595 H   0  0  0  0  0  0  0  0  0  0  0  0
  148.6833  137.5750  156.5033 H   0  0  0  0  0  0  0  0  0  0  0  0
  147.7872  139.9514  156.6278 H   0  0  0  0  0  0  0  0  0  0  0  0
  148.1407  139.9723  158.3299 H   0  0  0  0  0  0  0  0  0  0  0  0
  148.9556  142.0447  156.5937 H   0  0  0  0  0  0  0  0  0  0  0  0
  149.6214  141.9846  158.1885 H   0  0  0  0  0  0  0  0  0  0  0  0
  150.9239  143.5340  156.8838 H   0  0  0  0  0  0  0  0  0  0  0  0
  151.2007  142.3728  155.6029 H   0  0  0  0  0  0  0  0  0  0  0  0
  151.9661  142.1540  157.1736 H   0  0  0  0  0  0  0  0  0  0  0  0
  150.9483  138.4294  158.0542 H   0  0  0  0  0  0  0  0  0  0  0  0
  150.9371  140.7662  159.4775 H   0  0  0  0  0  0  0  0  0  0  0  0
  153.0623  140.6339  161.4032 H   0  0  0  0  0  0  0  0  0  0  0  0
  154.2797  141.5009  160.4821 H   0  0  0  0  0  0  0  0  0  0  0  0
  153.0652  143.5580  158.7997 H   0  0  0  0  0  0  0  0  0  0  0  0
  151.0902  145.2553  159.7984 H   0  0  0  0  0  0  0  0  0  0  0  0
  152.3818  140.6023  156.4557 H   0  0  0  0  0  0  0  0  0  0  0  0
  152.5789  137.5388  156.2620 H   0  0  0  0  0  0  0  0  0  0  0  0
  153.7992  138.5678  156.9989 H   0  0  0  0  0  0  0  0  0  0  0  0
  153.4762  138.6890  155.2780 H   0  0  0  0  0  0  0  0  0  0  0  0
  150.2834  138.5390  155.5684 H   0  0  0  0  0  0  0  0  0  0  0  0
  149.2185  141.4486  153.4618 H   0  0  0  0  0  0  0  0  0  0  0  0
  148.6867  141.2580  155.1320 H   0  0  0  0  0  0  0  0  0  0  0  0
  148.6212  139.8865  154.0096 H   0  0  0  0  0  0  0  0  0  0  0  0
  1  2  1  0  0  0  0
  1 21  1  0  0  0  0
  1 22  1  0  0  0  0
  1 23  1  0  0  0  0
  2  3  1  0  0  0  0
  2 24  1  0  0  0  0
  2 25  1  0  0  0  0
  3 18  1  0  0  0  0
  3  4  1  0  0  0  0
  3  6  1  0  0  0  0
  4  5  1  0  0  0  0
  4 26  1  0  0  0  0
  4 27  1  0  0  0  0
  5 28  1  0  0  0  0
  5 29  1  0  0  0  0
  5 30  1  0  0  0  0
  6  7  1  0  0  0  0
  6 16  1  0  0  0  0
  6 31  1  0  0  0  0
  7  8  1  0  0  0  0
  7 32  1  0  0  0  0
  8  9  2  0  0  0  0
  8 10  1  0  0  0  0
 10 11  1  0  0  0  0
 10 33  1  0  0  0  0
 10 34  1  0  0  0  0
 11 15  1  0  0  0  0
 11 12  1  0  0  0  0
 12 13  2  0  0  0  0
 12 35  1  0  0  0  0
 13 14  1  0  0  0  0
 13 36  1  0  0  0  0
 14 15  2  0  0  0  0
 16 17  1  0  0  0  0
 16 18  1  0  0  0  0
 16 37  1  0  0  0  0
 17 38  1  0  0  0  0
 17 39  1  0  0  0  0
 17 40  1  0  0  0  0
 18 19  1  0  0  0  0
 18 41  1  0  0  0  0
 19 20  1  0  0  0  0
 20 42  1  0  0  0  0
 20 43  1  0  0  0  0
 20 44  1  0  0  0  0
M  END
> <s_m_source_file>
AV-unprocessed.smi

> <i_m_source_file_index>
2525

> <i_lp_mmshare_version>
43012

> <i_f3d_flags>
0

> <s_epik_input>
W0NIM11PW0NAQEhdMVtDQEhdKFtDSDNdKVtDQEBIXShDMShbQ0gyXVtDSDNdKVtDSDJdW0NIM10pW05IXUMoPU8pW0NIMl1uMltjSF1bY0hdbm4y

> <s_epik_cmdline>
J2VwaWtfcHl0aG9uJywgJy1waCcsICc3LjAnLCAnLXRuJywgJzgnLCAnLW1hJywgJzIwMCcsICctbWV0YWxfYmluZGluZycsICctaW1hZScsICc8aW5maWxlLm1hZT4nLCAnLW9tYWUnLCAnPG91dGZpbGUubWFlPic=

> <r_lp_tautomer_probability>
1

> <r_epik_Ionization_Penalty>
1.18045e-06

> <r_epik_Ionization_Penalty_Charging>
0

> <r_epik_Ionization_Penalty_Neutral>
1.18045e-06

> <r_epik_State_Penalty>
-0

> <r_epik_Charging_Adjusted_Penalty>
0

> <i_epik_Tot_Q>
0

> <i_epik_Tot_abs_Q>
0

> <r_epik_Metal_State_Penalty>
-0

> <b_epik_Metal_Only>
0

> <s_lp_Force_Field>
OPLS_2005

> <r_lp_Energy>
27.6116

> <b_lp_Chiralities_Consistent>
1

> <s_lp_Variant>
AV-unprocessed.smi:2525-6

> <Gold.Version>
5.8.1

> <Gold.Id.Protein>
6NUR|6NUR_protein|mol2

> <Gold.PLP.Fitness>
43.1594

> <Gold.PLP.PLP>
-36.8594

> <Gold.PLP.part.hbond>
-3.8669

> <Gold.PLP.part.metal>
0.0000

> <Gold.PLP.part.buried>
-6.0709

> <Gold.PLP.part.nonpolar>
-28.3053

> <Gold.PLP.part.repulsive>
0.5348

> <Gold.PLP.ligand.clash>
0.0000

> <Gold.PLP.ligand.torsion>
0.9366

> <Gold.PLP.Chemscore.Hbond>
2.5148

> <Gold.PLP.Chemscore.CHOScore>
0.0000

> <Gold.PLP.Chemscore.Metal>
0.0000

> <Gold.Chemscore.Hbonds>
donor molecule, donor type, donor heavy atom, donor atom, acceptor molecule, acceptor atom, score
      P1  H  6933  6945       L1    15  0.41
      P1  H  7989  7998       L1    19  1.00
      P1  H  7997  8009       L1     9  1.00

> <Gold.PLP.Chemscore.Internal.Correction>
0.6289

> <Gold.Rescore>
     Score         DG    S(hbond)    S(metal)    S(lipo)     H(rot)  DE(clash)    DE(int)     intcor
     10.80     -16.47       1.90        0.00      83.16       1.98       0.12       5.55       ----

> <Gold.Chemscore.Fitness>
10.8028

> <Gold.Chemscore.DG>
-16.4720

> <Gold.Chemscore.ZeroCoef>
-5.4800

> <Gold.Chemscore.Hbond>
1.8968

> <Gold.Chemscore.Metal>
0.0000

> <Gold.Chemscore.Lipo>
83.1604

> <Gold.Chemscore.Internal_Hbond>
0.0000

> <Gold.Chemscore.DEClash>
0.1214

> <Gold.Chemscore.DEInternal>
5.5477

> <Gold.Chemscore.Rot>
1.9817

> <Gold.Chemscore.Internal.Correction>
   9.000000E+99

> <Gold.Chemscore.Hbonds>
donor molecule, donor type, donor heavy atom, donor atom, acceptor molecule, acceptor atom, score
      P1  H  6933  6945       L1    15  0.05
      P1  H  7989  7998       L1    19  0.80
      P1  H  7997  8009       L1     9  0.99

> <Gold.Chemscore.Hbond.Weighted>
-6.3353

> <Gold.Chemscore.Metal.Weighted>
-0.0000

> <Gold.Chemscore.Lipo.Weighted>
-9.7298

> <Gold.Chemscore.Internal_Hbond.Weighted>
0.0000

> <Gold.Chemscore.DEClash.Weighted>
0.1214

> <Gold.Chemscore.DEInternal.Weighted>
5.5477

> <Gold.Chemscore.Rot.Weighted>
5.0731

> <Gold.Chemscore.Internal.Correction.Weighted>
   9.000000E+99

> <Gold.Protein.RotatedTorsions>
[ 6907 6896 6895 6894 ] final   48.70 input  -60.11 | X-H torsion
[ 7974 7965 7964 7962 ] final  -14.03 input  175.53 | X-H torsion
[ 8008 7997 7996 7995 ] final  131.24 input   59.86 | X-H torsion
[ 10167 10162 10161 10158 ] final   63.93 input  -65.29 | X-H torsion
[ 10718 10713 10712 10709 ] final -160.58 input   66.30 | X-H torsion
[ 10763 10752 10751 10750 ] final -133.92 input  -60.55 | X-H torsion
[ 11005 11000 10999 10996 ] final   32.94 input  -57.11 | X-H torsion

> <Gold.Protein.ActiveResidues>
 VAL166  LYS551  ARG553  GLY616  TRP617  ASP618  TYR619  PRO620  LYS621  CYS622 
 ASP623  PHE694  ASN695  SER759  ASP760  ASP761  ALA762  ILE779  LEU786  VAL792 
 PHE793  MET794  SER795  GLU796  ALA797  LYS798  CYS799  TRP800  GLU811  SER814 

> <Gold.Protein.RotatedAtoms>
  152.2825  134.7813  160.0393 H   0  0  0  0  0  0  0  0  0  0  0  0  # atno 6907 bound_to 6896
  151.8387  133.3415  159.3644 H   0  0  0  0  0  0  0  0  0  0  0  0  # atno 6908 bound_to 6896
  150.7195  134.5341  159.5759 H   0  0  0  0  0  0  0  0  0  0  0  0  # atno 6909 bound_to 6896
  146.2091  140.3289  142.8397 H   0  0  0  0  0  0  0  0  0  0  0  0  # atno 7974 bound_to 7965
  156.2967  140.2576  156.2893 H   0  0  0  0  0  0  0  0  0  0  0  0  # atno 8008 bound_to 7997
  154.9525  140.0394  157.2170 H   0  0  0  0  0  0  0  0  0  0  0  0  # atno 8009 bound_to 7997
  154.8022  140.2830  155.5917 H   0  0  0  0  0  0  0  0  0  0  0  0  # atno 8010 bound_to 7997
  140.1277  144.4672  150.6883 H   0  0  0  0  0  0  0  0  0  0  0  0  # atno 10167 bound_to 10162
  156.5842  130.8742  151.2873 H   0  0  0  0  0  0  0  0  0  0  0  0  # atno 10718 bound_to 10713
  154.8726  135.3751  154.4652 H   0  0  0  0  0  0  0  0  0  0  0  0  # atno 10763 bound_to 10752
  153.5317  135.7027  153.5685 H   0  0  0  0  0  0  0  0  0  0  0  0  # atno 10764 bound_to 10752
  153.3887  135.3978  155.1873 H   0  0  0  0  0  0  0  0  0  0  0  0  # atno 10765 bound_to 10752
  140.2683  134.3112  155.7836 H   0  0  0  0  0  0  0  0  0  0  0  0  # atno 11005 bound_to 11000
  144.8867  140.7471  143.5952 LP  0  0  0  0  0  0  0  0  0  0  0  0  # atno 17320 bound_to 7965
  145.3210  139.1788  143.4588 LP  0  0  0  0  0  0  0  0  0  0  0  0  # atno 17321 bound_to 7965
  140.6835  143.2338  151.5322 LP  0  0  0  0  0  0  0  0  0  0  0  0  # atno 17342 bound_to 10162
  139.5535  144.2334  152.1573 LP  0  0  0  0  0  0  0  0  0  0  0  0  # atno 17343 bound_to 10162
  157.7319  130.9707  150.1903 LP  0  0  0  0  0  0  0  0  0  0  0  0  # atno 17370 bound_to 10713
  156.2605  130.3710  149.8135 LP  0  0  0  0  0  0  0  0  0  0  0  0  # atno 17371 bound_to 10713
  141.2181  133.7451  156.9294 LP  0  0  0  0  0  0  0  0  0  0  0  0  # atno 17394 bound_to 11000
  140.1398  134.9301  157.2451 LP  0  0  0  0  0  0  0  0  0  0  0  0  # atno 17395 bound_to 11000

$$$$
