AV-unprocessed.smi:3284|AV-procd|sdf|12578|dock4
  -GOLD-   2272018503D 1   1.00000     0.00000
 Structure written by MMmdl.
 45 46  0  0  0  0  0  0  0  0  3 V2000
  150.7642  144.4966  159.9346 C   0  0  0  0  0  0  0  0  0  0  0  0
  151.7354  143.3305  159.8519 C   0  0  0  0  0  0  0  0  0  0  0  0
  152.8624  143.3454  160.5891 C   0  0  0  0  0  0  0  0  0  0  0  0
  153.8601  142.2119  160.6426 C   0  0  0  0  0  0  0  0  0  0  0  0
  153.2166  140.8951  160.2019 C   0  0  0  0  0  0  0  0  0  0  0  0
  152.4728  141.0541  158.8658 C   0  0  1  0  0  0  0  0  0  0  0  0
  151.9187  139.6861  158.4226 C   0  0  0  0  0  0  0  0  0  0  0  0
  151.3666  142.1527  158.9261 C   0  0  2  0  0  0  0  0  0  0  0  0
  150.9992  142.6141  157.4910 C   0  0  0  0  0  0  0  0  0  0  0  0
  149.5421  142.7450  157.2837 N   0  3  0  0  0  0  0  0  0  0  0  0
  148.9195  141.5783  156.6282 C   0  0  0  0  0  0  0  0  0  0  0  0
  149.4725  141.3803  155.2101 C   0  0  0  0  0  0  0  0  0  0  0  0
  148.5531  140.5875  154.3322 C   0  0  0  0  0  0  0  0  0  0  0  0
  148.8356  139.4037  153.7746 N   0  3  0  0  0  0  0  0  0  0  0  0
  147.7792  138.9661  153.0224 C   0  0  0  0  0  0  0  0  0  0  0  0
  146.8087  139.9285  153.1210 C   0  0  0  0  0  0  0  0  0  0  0  0
  147.3134  140.9143  153.9300 N   0  0  0  0  0  0  0  0  0  0  0  0
  146.6341  142.1504  154.3245 C   0  0  0  0  0  0  0  0  0  0  0  0
  149.7522  144.1392  160.1258 H   0  0  0  0  0  0  0  0  0  0  0  0
  150.7695  145.0754  159.0113 H   0  0  0  0  0  0  0  0  0  0  0  0
  151.0311  145.1768  160.7442 H   0  0  0  0  0  0  0  0  0  0  0  0
  153.0925  144.2024  161.2056 H   0  0  0  0  0  0  0  0  0  0  0  0
  154.7098  142.4623  160.0066 H   0  0  0  0  0  0  0  0  0  0  0  0
  154.2380  142.1148  161.6607 H   0  0  0  0  0  0  0  0  0  0  0  0
  153.9859  140.1259  160.1221 H   0  0  0  0  0  0  0  0  0  0  0  0
  152.5198  140.5555  160.9699 H   0  0  0  0  0  0  0  0  0  0  0  0
  153.2161  141.3638  158.1292 H   0  0  0  0  0  0  0  0  0  0  0  0
  151.1631  139.3217  159.1193 H   0  0  0  0  0  0  0  0  0  0  0  0
  152.7123  138.9392  158.3819 H   0  0  0  0  0  0  0  0  0  0  0  0
  151.4661  139.7204  157.4328 H   0  0  0  0  0  0  0  0  0  0  0  0
  150.4839  141.6958  159.3766 H   0  0  0  0  0  0  0  0  0  0  0  0
  151.4894  143.5652  157.2774 H   0  0  0  0  0  0  0  0  0  0  0  0
  151.3630  141.9098  156.7444 H   0  0  0  0  0  0  0  0  0  0  0  0
  149.1030  142.8918  158.1816 H   0  0  0  0  0  0  0  0  0  0  0  0
  149.1087  140.6898  157.2320 H   0  0  0  0  0  0  0  0  0  0  0  0
  147.8384  141.7194  156.5913 H   0  0  0  0  0  0  0  0  0  0  0  0
  149.6307  142.3411  154.7186 H   0  0  0  0  0  0  0  0  0  0  0  0
  150.4342  140.8666  155.2293 H   0  0  0  0  0  0  0  0  0  0  0  0
  147.7966  138.0276  152.4870 H   0  0  0  0  0  0  0  0  0  0  0  0
  145.8211  139.9823  152.6855 H   0  0  0  0  0  0  0  0  0  0  0  0
  145.6914  142.2382  153.7835 H   0  0  0  0  0  0  0  0  0  0  0  0
  147.2654  143.0067  154.0862 H   0  0  0  0  0  0  0  0  0  0  0  0
  146.4334  142.1242  155.3960 H   0  0  0  0  0  0  0  0  0  0  0  0
  149.3791  143.5594  156.7084 H   0  0  0  0  0  0  0  0  0  0  0  0
  149.7057  138.9006  153.8957 H   0  0  0  0  0  0  0  0  0  0  0  0
  1  2  1  0  0  0  0
  1 19  1  0  0  0  0
  1 20  1  0  0  0  0
  1 21  1  0  0  0  0
  2  8  1  0  0  0  0
  2  3  2  0  0  0  0
  3  4  1  0  0  0  0
  3 22  1  0  0  0  0
  4  5  1  0  0  0  0
  4 23  1  0  0  0  0
  4 24  1  0  0  0  0
  5  6  1  0  0  0  0
  5 25  1  0  0  0  0
  5 26  1  0  0  0  0
  6  7  1  0  0  0  0
  6  8  1  0  0  0  0
  6 27  1  0  0  0  0
  7 28  1  0  0  0  0
  7 29  1  0  0  0  0
  7 30  1  0  0  0  0
  8  9  1  0  0  0  0
  8 31  1  0  0  0  0
  9 10  1  0  0  0  0
  9 32  1  0  0  0  0
  9 33  1  0  0  0  0
 10 11  1  0  0  0  0
 10 34  1  0  0  0  0
 10 44  1  0  0  0  0
 11 12  1  0  0  0  0
 11 35  1  0  0  0  0
 11 36  1  0  0  0  0
 12 13  1  0  0  0  0
 12 37  1  0  0  0  0
 12 38  1  0  0  0  0
 13 17  1  0  0  0  0
 13 14  2  0  0  0  0
 14 15  1  0  0  0  0
 14 45  1  0  0  0  0
 15 16  2  0  0  0  0
 15 39  1  0  0  0  0
 16 17  1  0  0  0  0
 16 40  1  0  0  0  0
 17 18  1  0  0  0  0
 18 41  1  0  0  0  0
 18 42  1  0  0  0  0
 18 43  1  0  0  0  0
M  CHG  1  10   1
M  CHG  1  14   1
M  END
> <s_m_source_file>
AV-unprocessed.smi

> <i_m_source_file_index>
3284

> <i_lp_mmshare_version>
43012

> <i_f3d_flags>
0

> <s_epik_input>
W0NIM11DMT1bQ0hdW0NIMl1bQ0gyXVtDQEBIXShbQ0gzXSlbQ0BIXTFbQ0gyXVtOSF1bQ0gyXVtDSDJdYzJuW2NIXVtjSF1uMltDSDNd

> <s_epik_cmdline>
J2VwaWtfcHl0aG9uJywgJy1waCcsICc3LjAnLCAnLXRuJywgJzgnLCAnLW1hJywgJzIwMCcsICctbWV0YWxfYmluZGluZycsICctaW1hZScsICc8aW5maWxlLm1hZT4nLCAnLW9tYWUnLCAnPG91dGZpbGUubWFlPic=

> <r_lp_tautomer_probability>
1

> <r_epik_Ionization_Penalty>
0.892846

> <r_epik_Ionization_Penalty_Charging>
0.00275802

> <r_epik_Ionization_Penalty_Neutral>
0.890088

> <r_epik_State_Penalty>
0.485211

> <r_epik_Charging_Adjusted_Penalty>
0.487969

> <i_epik_Tot_Q>
2

> <i_epik_Tot_abs_Q>
2

> <r_epik_Metal_State_Penalty>
4.22898

> <b_epik_Metal_Only>
0

> <s_lp_Force_Field>
OPLS_2005

> <r_lp_Energy>
22.9484

> <b_lp_Chiralities_Consistent>
1

> <s_lp_Variant>
AV-unprocessed.smi:3284-7

> <Gold.Version>
5.8.1

> <Gold.Id.Protein>
6NUR|6NUR_protein|mol2

> <Gold.PLP.Fitness>
48.9196

> <Gold.PLP.PLP>
-41.7488

> <Gold.PLP.part.hbond>
-2.0000

> <Gold.PLP.part.metal>
0.0000

> <Gold.PLP.part.buried>
-1.2290

> <Gold.PLP.part.nonpolar>
-39.8028

> <Gold.PLP.part.repulsive>
0.0920

> <Gold.PLP.ligand.clash>
0.0000

> <Gold.PLP.ligand.torsion>
0.9508

> <Gold.PLP.Chemscore.Hbond>
2.0000

> <Gold.PLP.Chemscore.CHOScore>
1.0000

> <Gold.PLP.Chemscore.Metal>
0.0000

> <Gold.Chemscore.Hbonds>
donor molecule, donor type, donor heavy atom, donor atom, acceptor molecule, acceptor atom, score
      L1  H    10    44       P1  8028  2.00
      L1  C    16    40       P1 10175  1.00

> <Gold.PLP.Chemscore.Internal.Correction>
0.0724

> <Gold.Rescore>
     Score         DG    S(hbond)    S(metal)    S(lipo)     H(rot)  DE(clash)    DE(int)     intcor
     16.80     -17.57       0.97        0.00     112.75       1.70       0.02       0.76       ----

> <Gold.Chemscore.Fitness>
16.7959

> <Gold.Chemscore.DG>
-17.5707

> <Gold.Chemscore.ZeroCoef>
-5.4800

> <Gold.Chemscore.Hbond>
0.9731

> <Gold.Chemscore.Metal>
0.0000

> <Gold.Chemscore.Lipo>
112.7505

> <Gold.Chemscore.Internal_Hbond>
0.0000

> <Gold.Chemscore.DEClash>
0.0174

> <Gold.Chemscore.DEInternal>
0.7574

> <Gold.Chemscore.Rot>
1.6997

> <Gold.Chemscore.Internal.Correction>
   9.000000E+99

> <Gold.Chemscore.Hbonds>
donor molecule, donor type, donor heavy atom, donor atom, acceptor molecule, acceptor atom, score
      L1  H    10    44       P1  8028  0.97

> <Gold.Chemscore.Hbond.Weighted>
-3.2501

> <Gold.Chemscore.Metal.Weighted>
-0.0000

> <Gold.Chemscore.Lipo.Weighted>
-13.1918

> <Gold.Chemscore.Internal_Hbond.Weighted>
0.0000

> <Gold.Chemscore.DEClash.Weighted>
0.0174

> <Gold.Chemscore.DEInternal.Weighted>
0.7574

> <Gold.Chemscore.Rot.Weighted>
4.3512

> <Gold.Chemscore.Internal.Correction.Weighted>
   9.000000E+99

> <Gold.Protein.RotatedTorsions>
[ 6907 6896 6895 6894 ] final  134.06 input  -60.11 | X-H torsion
[ 7974 7965 7964 7962 ] final  100.92 input  175.53 | X-H torsion
[ 8008 7997 7996 7995 ] final  -11.01 input   59.86 | X-H torsion
[ 10167 10162 10161 10158 ] final  -64.16 input  -65.29 | X-H torsion
[ 10718 10713 10712 10709 ] final -106.41 input   66.30 | X-H torsion
[ 10763 10752 10751 10750 ] final  -92.10 input  -60.55 | X-H torsion
[ 11005 11000 10999 10996 ] final  145.53 input  -57.11 | X-H torsion

> <Gold.Protein.ActiveResidues>
 VAL166  LYS551  ARG553  GLY616  TRP617  ASP618  TYR619  PRO620  LYS621  CYS622 
 ASP623  PHE694  ASN695  SER759  ASP760  ASP761  ALA762  ILE779  LEU786  VAL792 
 PHE793  MET794  SER795  GLU796  ALA797  LYS798  CYS799  TRP800  GLU811  SER814 

> <Gold.Protein.RotatedAtoms>
  152.3153  133.5796  159.5707 H   0  0  0  0  0  0  0  0  0  0  0  0  # atno 6907 bound_to 6896
  150.7343  134.0091  159.3672 H   0  0  0  0  0  0  0  0  0  0  0  0  # atno 6908 bound_to 6896
  151.7981  135.0717  160.0447 H   0  0  0  0  0  0  0  0  0  0  0  0  # atno 6909 bound_to 6896
  145.3792  139.2383  143.3413 H   0  0  0  0  0  0  0  0  0  0  0  0  # atno 7974 bound_to 7965
  154.5502  140.2313  155.8497 H   0  0  0  0  0  0  0  0  0  0  0  0  # atno 8008 bound_to 7997
  156.1940  140.3070  155.9351 H   0  0  0  0  0  0  0  0  0  0  0  0  # atno 8009 bound_to 7997
  155.3084  140.0434  157.3024 H   0  0  0  0  0  0  0  0  0  0  0  0  # atno 8010 bound_to 7997
  140.5820  143.2328  151.6321 H   0  0  0  0  0  0  0  0  0  0  0  0  # atno 10167 bound_to 10162
  156.0389  130.5611  150.7677 H   0  0  0  0  0  0  0  0  0  0  0  0  # atno 10718 bound_to 10713
  154.6827  135.5243  153.8285 H   0  0  0  0  0  0  0  0  0  0  0  0  # atno 10763 bound_to 10752
  153.0576  135.6556  154.0549 H   0  0  0  0  0  0  0  0  0  0  0  0  # atno 10764 bound_to 10752
  154.0434  135.2975  155.3331 H   0  0  0  0  0  0  0  0  0  0  0  0  # atno 10765 bound_to 10752
  140.0720  134.9146  157.1360 H   0  0  0  0  0  0  0  0  0  0  0  0  # atno 11005 bound_to 11000
  146.2850  140.4457  142.8761 LP  0  0  0  0  0  0  0  0  0  0  0  0  # atno 17320 bound_to 7965
  144.8520  140.7015  143.6162 LP  0  0  0  0  0  0  0  0  0  0  0  0  # atno 17321 bound_to 7965
  139.5175  144.3312  152.0825 LP  0  0  0  0  0  0  0  0  0  0  0  0  # atno 17342 bound_to 10162
  140.2463  144.4216  150.6239 LP  0  0  0  0  0  0  0  0  0  0  0  0  # atno 17343 bound_to 10162
  157.5179  131.0929  151.0116 LP  0  0  0  0  0  0  0  0  0  0  0  0  # atno 17370 bound_to 10713
  157.0454  130.5766  149.5362 LP  0  0  0  0  0  0  0  0  0  0  0  0  # atno 17371 bound_to 10713
  140.3613  134.2491  155.7187 LP  0  0  0  0  0  0  0  0  0  0  0  0  # atno 17394 bound_to 11000
  141.2015  133.7960  157.0436 LP  0  0  0  0  0  0  0  0  0  0  0  0  # atno 17395 bound_to 11000

$$$$
