AV-unprocessed.smi:1614|AV-procd|sdf|6480|dock2
  -GOLD-   22720 7143D 1   1.00000     0.00000
 Structure written by MMmdl.
 37 38  0  0  0  0  0  0  0  0  1 V2000
  152.2307  144.9665  159.0816 C   0  0  0  0  0  0  0  0  0  0  0  0
  151.1035  144.3190  158.2706 C   0  0  0  0  0  0  0  0  0  0  0  0
  151.6341  143.4179  157.1436 C   0  0  0  0  0  0  0  0  0  0  0  0
  150.5474  142.8778  156.3360 N   0  0  0  0  0  0  0  0  0  0  0  0
  150.3419  141.5722  156.0986 C   0  0  0  0  0  0  0  0  0  0  0  0
  151.0556  140.6784  156.5546 O   0  0  0  0  0  0  0  0  0  0  0  0
  149.1889  141.2628  155.1799 C   0  0  0  0  0  0  0  0  0  0  0  0
  148.2932  142.2965  154.8199 C   0  0  0  0  0  0  0  0  0  0  0  0
  147.1878  142.0045  154.0018 C   0  0  0  0  0  0  0  0  0  0  0  0
  147.0098  140.6779  153.5741 C   0  0  0  0  0  0  0  0  0  0  0  0
  147.8504  139.6779  153.9065 N   0  0  0  0  0  0  0  0  0  0  0  0
  148.9225  139.9485  154.6922 C   0  0  0  0  0  0  0  0  0  0  0  0
  149.7885  138.8706  154.9673 N   0  0  0  0  0  0  0  0  0  0  0  0
  151.1120  139.0067  154.3716 C   0  0  0  0  0  0  0  0  0  0  0  0
  152.0612  137.9497  154.9610 C   0  0  0  0  0  0  0  0  0  0  0  0
  151.5069  136.6498  154.7753 O   0  0  0  0  0  0  0  0  0  0  0  0
  150.2471  136.5056  155.4260 C   0  0  0  0  0  0  0  0  0  0  0  0
  149.2476  137.5209  154.8459 C   0  0  0  0  0  0  0  0  0  0  0  0
  151.8265  145.5874  159.8813 H   0  0  0  0  0  0  0  0  0  0  0  0
  152.8538  145.6008  158.4504 H   0  0  0  0  0  0  0  0  0  0  0  0
  152.8720  144.2119  159.5376 H   0  0  0  0  0  0  0  0  0  0  0  0
  150.4693  143.7352  158.9389 H   0  0  0  0  0  0  0  0  0  0  0  0
  150.4706  145.1035  157.8537 H   0  0  0  0  0  0  0  0  0  0  0  0
  152.3349  143.9659  156.5115 H   0  0  0  0  0  0  0  0  0  0  0  0
  152.1880  142.5798  157.5675 H   0  0  0  0  0  0  0  0  0  0  0  0
  149.9193  143.5434  155.9100 H   0  0  0  0  0  0  0  0  0  0  0  0
  148.4392  143.3069  155.1737 H   0  0  0  0  0  0  0  0  0  0  0  0
  146.4894  142.7772  153.7161 H   0  0  0  0  0  0  0  0  0  0  0  0
  146.1713  140.4121  152.9480 H   0  0  0  0  0  0  0  0  0  0  0  0
  151.0317  138.8776  153.2915 H   0  0  0  0  0  0  0  0  0  0  0  0
  151.5153  140.0046  154.5440 H   0  0  0  0  0  0  0  0  0  0  0  0
  153.0311  137.9971  154.4659 H   0  0  0  0  0  0  0  0  0  0  0  0
  152.2356  138.1343  156.0224 H   0  0  0  0  0  0  0  0  0  0  0  0
  149.8827  135.4897  155.2741 H   0  0  0  0  0  0  0  0  0  0  0  0
  150.3639  136.6456  156.5022 H   0  0  0  0  0  0  0  0  0  0  0  0
  148.2949  137.4532  155.3727 H   0  0  0  0  0  0  0  0  0  0  0  0
  149.0586  137.2926  153.7960 H   0  0  0  0  0  0  0  0  0  0  0  0
  1  2  1  0  0  0  0
  1 19  1  0  0  0  0
  1 20  1  0  0  0  0
  1 21  1  0  0  0  0
  2  3  1  0  0  0  0
  2 22  1  0  0  0  0
  2 23  1  0  0  0  0
  3  4  1  0  0  0  0
  3 24  1  0  0  0  0
  3 25  1  0  0  0  0
  4  5  1  0  0  0  0
  4 26  1  0  0  0  0
  5  6  2  0  0  0  0
  5  7  1  0  0  0  0
  7 12  1  0  0  0  0
  7  8  2  0  0  0  0
  8  9  1  0  0  0  0
  8 27  1  0  0  0  0
  9 10  2  0  0  0  0
  9 28  1  0  0  0  0
 10 11  1  0  0  0  0
 10 29  1  0  0  0  0
 11 12  2  0  0  0  0
 12 13  1  0  0  0  0
 13 18  1  0  0  0  0
 13 14  1  0  0  0  0
 14 15  1  0  0  0  0
 14 30  1  0  0  0  0
 14 31  1  0  0  0  0
 15 16  1  0  0  0  0
 15 32  1  0  0  0  0
 15 33  1  0  0  0  0
 16 17  1  0  0  0  0
 17 18  1  0  0  0  0
 17 34  1  0  0  0  0
 17 35  1  0  0  0  0
 18 36  1  0  0  0  0
 18 37  1  0  0  0  0
M  END
> <s_m_source_file>
AV-unprocessed.smi

> <i_m_source_file_index>
1614

> <i_lp_mmshare_version>
43012

> <i_f3d_flags>
0

> <s_epik_input>
W0NIM11bQ0gyXVtDSDJdW05IXUMoPU8pYzFbY0hdW2NIXVtjSF1uYzFOMltDSDJdW0NIMl1PW0NIMl1bQ0gyXTI=

> <s_epik_cmdline>
J2VwaWtfcHl0aG9uJywgJy1waCcsICc3LjAnLCAnLXRuJywgJzgnLCAnLW1hJywgJzIwMCcsICctbWV0YWxfYmluZGluZycsICctaW1hZScsICc8aW5maWxlLm1hZT4nLCAnLW9tYWUnLCAnPG91dGZpbGUubWFlPic=

> <r_lp_tautomer_probability>
1

> <r_epik_Ionization_Penalty>
1.57986e-05

> <r_epik_Ionization_Penalty_Charging>
0

> <r_epik_Ionization_Penalty_Neutral>
1.57986e-05

> <r_epik_State_Penalty>
-0

> <r_epik_Charging_Adjusted_Penalty>
0

> <i_epik_Tot_Q>
0

> <i_epik_Tot_abs_Q>
0

> <r_epik_Metal_State_Penalty>
-0

> <b_epik_Metal_Only>
0

> <s_lp_Force_Field>
OPLS_2005

> <r_lp_Energy>
23.1296

> <b_lp_Chiralities_Consistent>
1

> <s_lp_Variant>
AV-unprocessed.smi:1614-1

> <Gold.Version>
5.8.1

> <Gold.Id.Protein>
6NUR|6NUR_protein|mol2

> <Gold.PLP.Fitness>
41.0623

> <Gold.PLP.PLP>
-32.5862

> <Gold.PLP.part.hbond>
-2.0000

> <Gold.PLP.part.metal>
0.0000

> <Gold.PLP.part.buried>
-2.3491

> <Gold.PLP.part.nonpolar>
-30.0337

> <Gold.PLP.part.repulsive>
0.5143

> <Gold.PLP.ligand.clash>
0.0000

> <Gold.PLP.ligand.torsion>
0.3878

> <Gold.PLP.Chemscore.Hbond>
2.0000

> <Gold.PLP.Chemscore.CHOScore>
1.0000

> <Gold.PLP.Chemscore.Metal>
0.0000

> <Gold.Chemscore.Hbonds>
donor molecule, donor type, donor heavy atom, donor atom, acceptor molecule, acceptor atom, score
      L1  H     4    26       P1  8028  1.00
      P1  H 10752 10764       L1    16  1.00
      L1  C    10    29       P1 10175  1.00

> <Gold.PLP.Chemscore.Internal.Correction>
0.2518

> <Gold.Rescore>
     Score         DG    S(hbond)    S(metal)    S(lipo)     H(rot)  DE(clash)    DE(int)     intcor
     14.21     -18.72       1.88        0.00      88.44       1.32       1.22       3.30       ----

> <Gold.Chemscore.Fitness>
14.2075

> <Gold.Chemscore.DG>
-18.7240

> <Gold.Chemscore.ZeroCoef>
-5.4800

> <Gold.Chemscore.Hbond>
1.8807

> <Gold.Chemscore.Metal>
0.0000

> <Gold.Chemscore.Lipo>
88.4377

> <Gold.Chemscore.Internal_Hbond>
0.0000

> <Gold.Chemscore.DEClash>
1.2180

> <Gold.Chemscore.DEInternal>
3.2985

> <Gold.Chemscore.Rot>
1.3222

> <Gold.Chemscore.Internal.Correction>
   9.000000E+99

> <Gold.Chemscore.Hbonds>
donor molecule, donor type, donor heavy atom, donor atom, acceptor molecule, acceptor atom, score
      L1  H     4    26       P1  8028  0.98
      P1  H 10752 10764       L1    16  0.45

> <Gold.Chemscore.Hbond.Weighted>
-6.2817

> <Gold.Chemscore.Metal.Weighted>
-0.0000

> <Gold.Chemscore.Lipo.Weighted>
-10.3472

> <Gold.Chemscore.Internal_Hbond.Weighted>
0.0000

> <Gold.Chemscore.DEClash.Weighted>
1.2180

> <Gold.Chemscore.DEInternal.Weighted>
3.2985

> <Gold.Chemscore.Rot.Weighted>
3.3849

> <Gold.Chemscore.Internal.Correction.Weighted>
   9.000000E+99

> <Gold.Protein.RotatedTorsions>
[ 6907 6896 6895 6894 ] final  -88.25 input  -60.11 | X-H torsion
[ 7974 7965 7964 7962 ] final -112.73 input  175.53 | X-H torsion
[ 8008 7997 7996 7995 ] final -142.57 input   59.86 | X-H torsion
[ 10167 10162 10161 10158 ] final  -74.61 input  -65.29 | X-H torsion
[ 10718 10713 10712 10709 ] final   22.45 input   66.30 | X-H torsion
[ 10763 10752 10751 10750 ] final  -73.72 input  -60.55 | X-H torsion
[ 11005 11000 10999 10996 ] final   99.41 input  -57.11 | X-H torsion

> <Gold.Protein.ActiveResidues>
 VAL166  LYS551  ARG553  GLY616  TRP617  ASP618  TYR619  PRO620  LYS621  CYS622 
 ASP623  PHE694  ASN695  SER759  ASP760  ASP761  ALA762  ILE779  LEU786  VAL792 
 PHE793  MET794  SER795  GLU796  ALA797  LYS798  CYS799  TRP800  GLU811  SER814 

> <Gold.Protein.RotatedAtoms>
  150.6868  134.2771  159.4611 H   0  0  0  0  0  0  0  0  0  0  0  0  # atno 6907 bound_to 6896
  152.0688  134.9544  160.0584 H   0  0  0  0  0  0  0  0  0  0  0  0  # atno 6908 bound_to 6896
  152.0942  133.4181  159.4594 H   0  0  0  0  0  0  0  0  0  0  0  0  # atno 6909 bound_to 6896
  145.1405  140.8775  143.3705 H   0  0  0  0  0  0  0  0  0  0  0  0  # atno 7974 bound_to 7965
  155.4964  140.0572  157.2946 H   0  0  0  0  0  0  0  0  0  0  0  0  # atno 8008 bound_to 7997
  154.4603  140.1993  156.0212 H   0  0  0  0  0  0  0  0  0  0  0  0  # atno 8009 bound_to 7997
  156.0878  140.3238  155.7781 H   0  0  0  0  0  0  0  0  0  0  0  0  # atno 8010 bound_to 7997
  140.5013  143.2361  151.7748 H   0  0  0  0  0  0  0  0  0  0  0  0  # atno 10167 bound_to 10162
  157.1525  130.6681  149.6016 H   0  0  0  0  0  0  0  0  0  0  0  0  # atno 10718 bound_to 10713
  154.4634  135.5888  153.6271 H   0  0  0  0  0  0  0  0  0  0  0  0  # atno 10763 bound_to 10752
  152.9826  135.6049  154.3458 H   0  0  0  0  0  0  0  0  0  0  0  0  # atno 10764 bound_to 10752
  154.3332  135.2842  155.2440 H   0  0  0  0  0  0  0  0  0  0  0  0  # atno 10765 bound_to 10752
  139.8771  134.9094  156.4602 H   0  0  0  0  0  0  0  0  0  0  0  0  # atno 11005 bound_to 11000
  145.0537  139.3161  143.5915 LP  0  0  0  0  0  0  0  0  0  0  0  0  # atno 17320 bound_to 7965
  146.3505  139.9954  142.8681 LP  0  0  0  0  0  0  0  0  0  0  0  0  # atno 17321 bound_to 7965
  139.4873  144.4518  151.9645 LP  0  0  0  0  0  0  0  0  0  0  0  0  # atno 17342 bound_to 10162
  140.3607  144.2976  150.5934 LP  0  0  0  0  0  0  0  0  0  0  0  0  # atno 17343 bound_to 10162
  155.9768  130.4740  150.6552 LP  0  0  0  0  0  0  0  0  0  0  0  0  # atno 17370 bound_to 10713
  157.4207  131.0836  151.1133 LP  0  0  0  0  0  0  0  0  0  0  0  0  # atno 17371 bound_to 10713
  140.8869  133.7876  155.9529 LP  0  0  0  0  0  0  0  0  0  0  0  0  # atno 17394 bound_to 11000
  140.8794  134.2629  157.5151 LP  0  0  0  0  0  0  0  0  0  0  0  0  # atno 17395 bound_to 11000

$$$$
