AV-unprocessed.smi:2978|AV-procd|sdf|11368|dock4
  -GOLD-   2272016283D 1   1.00000     0.00000
 Structure written by MMmdl.
 32 33  0  0  0  0  0  0  0  0  1 V2000
  149.9033  140.4219  154.3993 O   0  0  0  0  0  0  0  0  0  0  0  0
  149.3007  141.4281  154.7764 C   0  0  0  0  0  0  0  0  0  0  0  0
  148.0417  141.9110  154.0414 C   0  0  0  0  0  0  0  0  0  0  0  0
  146.9538  142.3073  154.9478 N   0  0  0  0  0  0  0  0  0  0  0  0
  147.0459  141.7569  156.2143 N   0  0  0  0  0  0  0  0  0  0  0  0
  146.1560  142.0494  157.0990 C   0  0  0  0  0  0  0  0  0  0  0  0
  145.0502  142.9372  156.8154 C   0  0  0  0  0  0  0  0  0  0  0  0
  143.8876  143.2934  158.0437 Cl  0  0  0  0  0  0  0  0  0  0  0  0
  144.9649  143.4653  155.5686 C   0  0  0  0  0  0  0  0  0  0  0  0
  143.6682  144.5331  155.1530 Cl  0  0  0  0  0  0  0  0  0  0  0  0
  145.9610  143.1539  154.5339 C   0  0  0  0  0  0  0  0  0  0  0  0
  145.9173  143.6102  153.3906 O   0  0  0  0  0  0  0  0  0  0  0  0
  149.6973  142.1773  155.8163 N   0  0  0  0  0  0  0  0  0  0  0  0
  150.8653  141.9179  156.6517 C   0  0  0  0  0  0  0  0  0  0  0  0
  150.9501  142.8964  157.8354 C   0  0  2  0  0  0  0  0  0  0  0  0
  151.6530  144.2212  157.5345 C   0  0  0  0  0  0  0  0  0  0  0  0
  152.1260  144.6343  158.9087 C   0  0  0  0  0  0  0  0  0  0  0  0
  152.5357  143.2938  159.5110 C   0  0  0  0  0  0  0  0  0  0  0  0
  151.6987  142.3148  158.8997 O   0  0  0  0  0  0  0  0  0  0  0  0
  148.2979  142.7424  153.3819 H   0  0  0  0  0  0  0  0  0  0  0  0
  147.7094  141.1074  153.3819 H   0  0  0  0  0  0  0  0  0  0  0  0
  146.1891  141.6419  158.1096 H   0  0  0  0  0  0  0  0  0  0  0  0
  149.1453  142.9899  156.0501 H   0  0  0  0  0  0  0  0  0  0  0  0
  150.7794  140.8992  157.0306 H   0  0  0  0  0  0  0  0  0  0  0  0
  151.7850  141.9458  156.0648 H   0  0  0  0  0  0  0  0  0  0  0  0
  149.9493  143.1019  158.2194 H   0  0  0  0  0  0  0  0  0  0  0  0
  152.5108  144.0630  156.8792 H   0  0  0  0  0  0  0  0  0  0  0  0
  150.9968  144.9567  157.0684 H   0  0  0  0  0  0  0  0  0  0  0  0
  152.9415  145.3578  158.8839 H   0  0  0  0  0  0  0  0  0  0  0  0
  151.2999  145.0664  159.4752 H   0  0  0  0  0  0  0  0  0  0  0  0
  153.5724  143.0654  159.2610 H   0  0  0  0  0  0  0  0  0  0  0  0
  152.4385  143.2793  160.5968 H   0  0  0  0  0  0  0  0  0  0  0  0
  1  2  2  0  0  0  0
  2  3  1  0  0  0  0
  2 13  1  0  0  0  0
  3  4  1  0  0  0  0
  3 20  1  0  0  0  0
  3 21  1  0  0  0  0
  4 11  1  0  0  0  0
  4  5  1  0  0  0  0
  5  6  2  0  0  0  0
  6  7  1  0  0  0  0
  6 22  1  0  0  0  0
  7  8  1  0  0  0  0
  7  9  2  0  0  0  0
  9 10  1  0  0  0  0
  9 11  1  0  0  0  0
 11 12  2  0  0  0  0
 13 14  1  0  0  0  0
 13 23  1  0  0  0  0
 14 15  1  0  0  0  0
 14 24  1  0  0  0  0
 14 25  1  0  0  0  0
 15 19  1  0  0  0  0
 15 16  1  0  0  0  0
 15 26  1  0  0  0  0
 16 17  1  0  0  0  0
 16 27  1  0  0  0  0
 16 28  1  0  0  0  0
 17 18  1  0  0  0  0
 17 29  1  0  0  0  0
 17 30  1  0  0  0  0
 18 19  1  0  0  0  0
 18 31  1  0  0  0  0
 18 32  1  0  0  0  0
M  END
> <s_m_source_file>
AV-unprocessed.smi

> <i_m_source_file_index>
2978

> <i_lp_mmshare_version>
43012

> <i_f3d_flags>
0

> <s_epik_input>
TzFbQ0gyXVtDSDJdW0NIMl1bQ0BIXTFbQ0gyXVtOSF1DKD1PKVtDSDJdbjJuW2NIXWMoQ2wpYyhDbCljMj1P

> <s_epik_cmdline>
J2VwaWtfcHl0aG9uJywgJy1waCcsICc3LjAnLCAnLXRuJywgJzgnLCAnLW1hJywgJzIwMCcsICctbWV0YWxfYmluZGluZycsICctaW1hZScsICc8aW5maWxlLm1hZT4nLCAnLW9tYWUnLCAnPG91dGZpbGUubWFlPic=

> <r_lp_tautomer_probability>
1

> <r_epik_Ionization_Penalty>
2.68881e-08

> <r_epik_Ionization_Penalty_Charging>
2.90862e-11

> <r_epik_Ionization_Penalty_Neutral>
2.6859e-08

> <r_epik_State_Penalty>
-0

> <r_epik_Charging_Adjusted_Penalty>
2.90862e-11

> <i_epik_Tot_Q>
0

> <i_epik_Tot_abs_Q>
0

> <r_epik_Metal_State_Penalty>
-0

> <b_epik_Metal_Only>
0

> <s_lp_Force_Field>
OPLS_2005

> <r_lp_Energy>
31.3125

> <b_lp_Chiralities_Consistent>
1

> <s_lp_Variant>
AV-unprocessed.smi:2978-1

> <Gold.Version>
5.8.1

> <Gold.Id.Protein>
6NUR|6NUR_protein|mol2

> <Gold.PLP.Fitness>
42.6590

> <Gold.PLP.PLP>
-39.0354

> <Gold.PLP.part.hbond>
-2.0999

> <Gold.PLP.part.metal>
0.0000

> <Gold.PLP.part.buried>
-5.2747

> <Gold.PLP.part.nonpolar>
-32.9921

> <Gold.PLP.part.repulsive>
0.5871

> <Gold.PLP.ligand.clash>
0.0000

> <Gold.PLP.ligand.torsion>
0.8080

> <Gold.PLP.Chemscore.Hbond>
1.7440

> <Gold.PLP.Chemscore.CHOScore>
0.0000

> <Gold.PLP.Chemscore.Metal>
0.0000

> <Gold.Chemscore.Hbonds>
donor molecule, donor type, donor heavy atom, donor atom, acceptor molecule, acceptor atom, score
      L1  H    13    23       P1  8028  0.88
      P1  H  7989  7998       L1     1  0.85

> <Gold.PLP.Chemscore.Internal.Correction>
0.0076

> <Gold.Rescore>
     Score         DG    S(hbond)    S(metal)    S(lipo)     H(rot)  DE(clash)    DE(int)     intcor
     14.54     -15.24       1.66        0.00      76.18       1.83       0.07       0.62       ----

> <Gold.Chemscore.Fitness>
14.5397

> <Gold.Chemscore.DG>
-15.2375

> <Gold.Chemscore.ZeroCoef>
-5.4800

> <Gold.Chemscore.Hbond>
1.6570

> <Gold.Chemscore.Metal>
0.0000

> <Gold.Chemscore.Lipo>
76.1795

> <Gold.Chemscore.Internal_Hbond>
0.0000

> <Gold.Chemscore.DEClash>
0.0740

> <Gold.Chemscore.DEInternal>
0.6238

> <Gold.Chemscore.Rot>
1.8320

> <Gold.Chemscore.Internal.Correction>
   9.000000E+99

> <Gold.Chemscore.Hbonds>
donor molecule, donor type, donor heavy atom, donor atom, acceptor molecule, acceptor atom, score
      L1  H    13    23       P1  8028  0.87
      P1  H  7989  7998       L1     1  0.67

> <Gold.Chemscore.Hbond.Weighted>
-5.5345

> <Gold.Chemscore.Metal.Weighted>
-0.0000

> <Gold.Chemscore.Lipo.Weighted>
-8.9130

> <Gold.Chemscore.Internal_Hbond.Weighted>
0.0000

> <Gold.Chemscore.DEClash.Weighted>
0.0740

> <Gold.Chemscore.DEInternal.Weighted>
0.6238

> <Gold.Chemscore.Rot.Weighted>
4.6900

> <Gold.Chemscore.Internal.Correction.Weighted>
   9.000000E+99

> <Gold.Protein.RotatedTorsions>
[ 6907 6896 6895 6894 ] final -113.93 input  -60.11 | X-H torsion
[ 7974 7965 7964 7962 ] final -176.06 input  175.53 | X-H torsion
[ 8008 7997 7996 7995 ] final  -51.22 input   59.86 | X-H torsion
[ 10167 10162 10161 10158 ] final  106.79 input  -65.29 | X-H torsion
[ 10718 10713 10712 10709 ] final -132.33 input   66.30 | X-H torsion
[ 10763 10752 10751 10750 ] final -170.20 input  -60.55 | X-H torsion
[ 11005 11000 10999 10996 ] final -116.01 input  -57.11 | X-H torsion

> <Gold.Protein.ActiveResidues>
 VAL166  LYS551  ARG553  GLY616  TRP617  ASP618  TYR619  PRO620  LYS621  CYS622 
 ASP623  PHE694  ASN695  SER759  ASP760  ASP761  ALA762  ILE779  LEU786  VAL792 
 PHE793  MET794  SER795  GLU796  ALA797  LYS798  CYS799  TRP800  GLU811  SER814 

> <Gold.Protein.RotatedAtoms>
  150.7865  133.8874  159.3303 H   0  0  0  0  0  0  0  0  0  0  0  0  # atno 6907 bound_to 6896
  151.6723  135.0972  160.0210 H   0  0  0  0  0  0  0  0  0  0  0  0  # atno 6908 bound_to 6896
  152.3930  133.6667  159.6288 H   0  0  0  0  0  0  0  0  0  0  0  0  # atno 6909 bound_to 6896
  144.7127  140.1227  143.6404 H   0  0  0  0  0  0  0  0  0  0  0  0  # atno 7974 bound_to 7965
  154.4078  140.1253  156.4794 H   0  0  0  0  0  0  0  0  0  0  0  0  # atno 8008 bound_to 7997
  155.7100  140.3494  155.4950 H   0  0  0  0  0  0  0  0  0  0  0  0  # atno 8009 bound_to 7997
  155.9308  140.1069  157.1123 H   0  0  0  0  0  0  0  0  0  0  0  0  # atno 8010 bound_to 7997
  139.6980  144.7098  151.1233 H   0  0  0  0  0  0  0  0  0  0  0  0  # atno 10167 bound_to 10162
  156.2335  130.7052  151.0883 H   0  0  0  0  0  0  0  0  0  0  0  0  # atno 10718 bound_to 10713
  154.6441  135.2902  155.0068 H   0  0  0  0  0  0  0  0  0  0  0  0  # atno 10763 bound_to 10752
  154.1184  135.6552  153.4902 H   0  0  0  0  0  0  0  0  0  0  0  0  # atno 10764 bound_to 10752
  153.0342  135.5282  154.7321 H   0  0  0  0  0  0  0  0  0  0  0  0  # atno 10765 bound_to 10752
  141.0450  133.9776  157.2932 H   0  0  0  0  0  0  0  0  0  0  0  0  # atno 11005 bound_to 11000
  145.9356  139.2635  143.1299 LP  0  0  0  0  0  0  0  0  0  0  0  0  # atno 17320 bound_to 7965
  145.9477  140.8932  143.0275 LP  0  0  0  0  0  0  0  0  0  0  0  0  # atno 17321 bound_to 7965
  140.7702  143.5464  150.9254 LP  0  0  0  0  0  0  0  0  0  0  0  0  # atno 17342 bound_to 10162
  139.9144  143.6681  152.3109 LP  0  0  0  0  0  0  0  0  0  0  0  0  # atno 17343 bound_to 10162
  157.7144  131.0718  150.6383 LP  0  0  0  0  0  0  0  0  0  0  0  0  # atno 17370 bound_to 10713
  156.6452  130.4469  149.5738 LP  0  0  0  0  0  0  0  0  0  0  0  0  # atno 17371 bound_to 10713
  139.9305  135.0200  156.8384 LP  0  0  0  0  0  0  0  0  0  0  0  0  # atno 17394 bound_to 11000
  140.6163  134.0036  155.7598 LP  0  0  0  0  0  0  0  0  0  0  0  0  # atno 17395 bound_to 11000

$$$$
