AV-unprocessed.smi:2219|AV-procd|sdf|8977|dock4
  -GOLD-   2272012193D 1   1.00000     0.00000
 Structure written by MMmdl.
 37 38  0  0  0  0  0  0  0  0  1 V2000
  145.6155  138.7787  153.6407 O   0  0  0  0  0  0  0  0  0  0  0  0
  146.4798  138.0875  153.1011 C   0  0  0  0  0  0  0  0  0  0  0  0
  146.2060  137.0088  152.3528 N   0  0  0  0  0  0  0  0  0  0  0  0
  144.8713  136.4927  152.0517 C   0  0  0  0  0  0  0  0  0  0  0  0
  144.8908  135.2294  151.1552 C   0  0  0  0  0  0  0  0  0  0  0  0
  144.7577  135.6767  149.8175 O   0  0  0  0  0  0  0  0  0  0  0  0
  146.1948  134.4019  151.2907 C   0  0  0  0  0  0  0  0  0  0  0  0
  146.1533  133.0765  150.5089 C   0  0  0  0  0  0  0  0  0  0  0  0
  144.9292  132.2344  150.8922 C   0  0  0  0  0  0  0  0  0  0  0  0
  143.6329  133.0293  150.6856 C   0  0  0  0  0  0  0  0  0  0  0  0
  143.6577  134.3502  151.4753 C   0  0  0  0  0  0  0  0  0  0  0  0
  147.8055  138.2976  153.1810 N   0  0  0  0  0  0  0  0  0  0  0  0
  148.4917  139.3300  153.8748 C   0  0  0  0  0  0  0  0  0  0  0  0
  149.7752  138.9792  154.3521 C   0  0  0  0  0  0  0  0  0  0  0  0
  150.5390  139.9331  155.0529 C   0  0  0  0  0  0  0  0  0  0  0  0
  149.9966  141.2140  155.2585 C   0  0  0  0  0  0  0  0  0  0  0  0
  150.6930  142.1636  155.9270 F   0  0  0  0  0  0  0  0  0  0  0  0
  148.7117  141.4826  154.7522 C   0  0  0  0  0  0  0  0  0  0  0  0
  147.9790  140.5694  154.0797 N   0  0  0  0  0  0  0  0  0  0  0  0
  146.9815  136.4964  151.9591 H   0  0  0  0  0  0  0  0  0  0  0  0
  144.3397  136.2769  152.9799 H   0  0  0  0  0  0  0  0  0  0  0  0
  144.3024  137.2881  151.5684 H   0  0  0  0  0  0  0  0  0  0  0  0
  145.2723  135.1113  149.2620 H   0  0  0  0  0  0  0  0  0  0  0  0
  147.0558  134.9812  150.9561 H   0  0  0  0  0  0  0  0  0  0  0  0
  146.3687  134.1814  152.3449 H   0  0  0  0  0  0  0  0  0  0  0  0
  146.1362  133.2800  149.4376 H   0  0  0  0  0  0  0  0  0  0  0  0
  147.0650  132.5091  150.6977 H   0  0  0  0  0  0  0  0  0  0  0  0
  144.9047  131.3202  150.2984 H   0  0  0  0  0  0  0  0  0  0  0  0
  145.0082  131.9251  151.9352 H   0  0  0  0  0  0  0  0  0  0  0  0
  143.4915  133.2330  149.6236 H   0  0  0  0  0  0  0  0  0  0  0  0
  142.7781  132.4287  150.9977 H   0  0  0  0  0  0  0  0  0  0  0  0
  143.6536  134.1136  152.5402 H   0  0  0  0  0  0  0  0  0  0  0  0
  142.7377  134.9057  151.2885 H   0  0  0  0  0  0  0  0  0  0  0  0
  148.3923  137.6439  152.6842 H   0  0  0  0  0  0  0  0  0  0  0  0
  150.1755  137.9898  154.1848 H   0  0  0  0  0  0  0  0  0  0  0  0
  151.5221  139.6855  155.4250 H   0  0  0  0  0  0  0  0  0  0  0  0
  148.2599  142.4536  154.8900 H   0  0  0  0  0  0  0  0  0  0  0  0
  1  2  2  0  0  0  0
  2  3  1  0  0  0  0
  2 12  1  0  0  0  0
  3  4  1  0  0  0  0
  3 20  1  0  0  0  0
  4  5  1  0  0  0  0
  4 21  1  0  0  0  0
  4 22  1  0  0  0  0
  5 11  1  0  0  0  0
  5  6  1  0  0  0  0
  5  7  1  0  0  0  0
  6 23  1  0  0  0  0
  7  8  1  0  0  0  0
  7 24  1  0  0  0  0
  7 25  1  0  0  0  0
  8  9  1  0  0  0  0
  8 26  1  0  0  0  0
  8 27  1  0  0  0  0
  9 10  1  0  0  0  0
  9 28  1  0  0  0  0
  9 29  1  0  0  0  0
 10 11  1  0  0  0  0
 10 30  1  0  0  0  0
 10 31  1  0  0  0  0
 11 32  1  0  0  0  0
 11 33  1  0  0  0  0
 12 13  1  0  0  0  0
 12 34  1  0  0  0  0
 13 19  1  0  0  0  0
 13 14  2  0  0  0  0
 14 15  1  0  0  0  0
 14 35  1  0  0  0  0
 15 16  2  0  0  0  0
 15 36  1  0  0  0  0
 16 17  1  0  0  0  0
 16 18  1  0  0  0  0
 18 19  2  0  0  0  0
 18 37  1  0  0  0  0
M  END
> <s_m_source_file>
AV-unprocessed.smi

> <i_m_source_file_index>
2219

> <i_lp_mmshare_version>
43012

> <i_f3d_flags>
0

> <s_epik_input>
bjFbY0hdYyhGKVtjSF1bY0hdYzFbTkhdQyg9TylbTkhdW0NIMl1DMihbT0hdKVtDSDJdW0NIMl1bQ0gyXVtDSDJdW0NIMl0y

> <s_epik_cmdline>
J2VwaWtfcHl0aG9uJywgJy1waCcsICc3LjAnLCAnLXRuJywgJzgnLCAnLW1hJywgJzIwMCcsICctbWV0YWxfYmluZGluZycsICctaW1hZScsICc8aW5maWxlLm1hZT4nLCAnLW9tYWUnLCAnPG91dGZpbGUubWFlPic=

> <r_lp_tautomer_probability>
1

> <r_epik_Ionization_Penalty>
4.27965e-05

> <r_epik_Ionization_Penalty_Charging>
0

> <r_epik_Ionization_Penalty_Neutral>
4.27965e-05

> <r_epik_State_Penalty>
-0

> <r_epik_Charging_Adjusted_Penalty>
0

> <i_epik_Tot_Q>
0

> <i_epik_Tot_abs_Q>
0

> <r_epik_Metal_State_Penalty>
-0

> <b_epik_Metal_Only>
0

> <s_lp_Force_Field>
OPLS_2005

> <r_lp_Energy>
17.1775

> <b_lp_Chiralities_Consistent>
1

> <s_lp_Variant>
AV-unprocessed.smi:2219-1

> <Gold.Version>
5.8.1

> <Gold.Id.Protein>
6NUR|6NUR_protein|mol2

> <Gold.PLP.Fitness>
47.4195

> <Gold.PLP.PLP>
-37.0485

> <Gold.PLP.part.hbond>
-4.0000

> <Gold.PLP.part.metal>
0.0000

> <Gold.PLP.part.buried>
-6.1881

> <Gold.PLP.part.nonpolar>
-28.8940

> <Gold.PLP.part.repulsive>
0.5443

> <Gold.PLP.ligand.clash>
0.0000

> <Gold.PLP.ligand.torsion>
0.8183

> <Gold.PLP.Chemscore.Hbond>
3.0000

> <Gold.PLP.Chemscore.CHOScore>
1.0000

> <Gold.PLP.Chemscore.Metal>
0.0000

> <Gold.Chemscore.Hbonds>
donor molecule, donor type, donor heavy atom, donor atom, acceptor molecule, acceptor atom, score
      L1  H     3    20       P1  7948  0.98
      L1  H     6    23       P1  7921  0.98
      L1  H    12    34       P1  7948  1.00
      L1  C    18    37       P1  8028  1.00

> <Gold.PLP.Chemscore.Internal.Correction>
0.0076

> <Gold.Rescore>
     Score         DG    S(hbond)    S(metal)    S(lipo)     H(rot)  DE(clash)    DE(int)     intcor
     17.29     -19.07       2.90        0.00      73.34       1.83       0.03       1.74       ----

> <Gold.Chemscore.Fitness>
17.2924

> <Gold.Chemscore.DG>
-19.0702

> <Gold.Chemscore.ZeroCoef>
-5.4800

> <Gold.Chemscore.Hbond>
2.9050

> <Gold.Chemscore.Metal>
0.0000

> <Gold.Chemscore.Lipo>
73.3390

> <Gold.Chemscore.Internal_Hbond>
0.0000

> <Gold.Chemscore.DEClash>
0.0348

> <Gold.Chemscore.DEInternal>
1.7430

> <Gold.Chemscore.Rot>
1.8332

> <Gold.Chemscore.Internal.Correction>
   9.000000E+99

> <Gold.Chemscore.Hbonds>
donor molecule, donor type, donor heavy atom, donor atom, acceptor molecule, acceptor atom, score
      L1  H     3    20       P1  7948  0.92
      L1  H     6    23       P1  7921  0.93
      L1  H    12    34       P1  7948  1.00

> <Gold.Chemscore.Hbond.Weighted>
-9.7026

> <Gold.Chemscore.Metal.Weighted>
-0.0000

> <Gold.Chemscore.Lipo.Weighted>
-8.5807

> <Gold.Chemscore.Internal_Hbond.Weighted>
0.0000

> <Gold.Chemscore.DEClash.Weighted>
0.0348

> <Gold.Chemscore.DEInternal.Weighted>
1.7430

> <Gold.Chemscore.Rot.Weighted>
4.6931

> <Gold.Chemscore.Internal.Correction.Weighted>
   9.000000E+99

> <Gold.Protein.RotatedTorsions>
[ 6907 6896 6895 6894 ] final -146.80 input  -60.11 | X-H torsion
[ 7974 7965 7964 7962 ] final   56.36 input  175.53 | X-H torsion
[ 8008 7997 7996 7995 ] final -130.82 input   59.86 | X-H torsion
[ 10167 10162 10161 10158 ] final  -82.40 input  -65.29 | X-H torsion
[ 10718 10713 10712 10709 ] final -162.29 input   66.30 | X-H torsion
[ 10763 10752 10751 10750 ] final   -7.90 input  -60.55 | X-H torsion
[ 11005 11000 10999 10996 ] final  101.80 input  -57.11 | X-H torsion

> <Gold.Protein.ActiveResidues>
 VAL166  LYS551  ARG553  GLY616  TRP617  ASP618  TYR619  PRO620  LYS621  CYS622 
 ASP623  PHE694  ASN695  SER759  ASP760  ASP761  ALA762  ILE779  LEU786  VAL792 
 PHE793  MET794  SER795  GLU796  ALA797  LYS798  CYS799  TRP800  GLU811  SER814 

> <Gold.Protein.RotatedAtoms>
  151.1468  133.4934  159.2595 H   0  0  0  0  0  0  0  0  0  0  0  0  # atno 6907 bound_to 6896
  151.1596  135.0267  159.8714 H   0  0  0  0  0  0  0  0  0  0  0  0  # atno 6908 bound_to 6896
  152.5463  134.1343  159.8505 H   0  0  0  0  0  0  0  0  0  0  0  0  # atno 6909 bound_to 6896
  145.9406  139.3885  143.0366 H   0  0  0  0  0  0  0  0  0  0  0  0  # atno 7974 bound_to 7965
  155.3021  140.0453  157.3030 H   0  0  0  0  0  0  0  0  0  0  0  0  # atno 8008 bound_to 7997
  154.5481  140.2309  155.8497 H   0  0  0  0  0  0  0  0  0  0  0  0  # atno 8009 bound_to 7997
  156.1942  140.3043  155.9400 H   0  0  0  0  0  0  0  0  0  0  0  0  # atno 8010 bound_to 7997
  140.4323  143.2544  151.8742 H   0  0  0  0  0  0  0  0  0  0  0  0  # atno 10167 bound_to 10162
  156.6083  130.8840  151.2930 H   0  0  0  0  0  0  0  0  0  0  0  0  # atno 10718 bound_to 10713
  153.4329  135.7012  153.6219 H   0  0  0  0  0  0  0  0  0  0  0  0  # atno 10763 bound_to 10752
  153.4626  135.3733  155.2347 H   0  0  0  0  0  0  0  0  0  0  0  0  # atno 10764 bound_to 10752
  154.8726  135.4023  154.3715 H   0  0  0  0  0  0  0  0  0  0  0  0  # atno 10765 bound_to 10752
  139.8774  134.9198  156.4961 H   0  0  0  0  0  0  0  0  0  0  0  0  # atno 11005 bound_to 11000
  145.8305  140.9633  143.0851 LP  0  0  0  0  0  0  0  0  0  0  0  0  # atno 17320 bound_to 7965
  144.6778  140.0156  143.7484 LP  0  0  0  0  0  0  0  0  0  0  0  0  # atno 17321 bound_to 7965
  139.4785  144.5321  151.8652 LP  0  0  0  0  0  0  0  0  0  0  0  0  # atno 17342 bound_to 10162
  140.4413  144.1983  150.5891 LP  0  0  0  0  0  0  0  0  0  0  0  0  # atno 17343 bound_to 10162
  157.7261  130.9625  150.1642 LP  0  0  0  0  0  0  0  0  0  0  0  0  # atno 17370 bound_to 10713
  156.2411  130.3691  149.8336 LP  0  0  0  0  0  0  0  0  0  0  0  0  # atno 17371 bound_to 10713
  140.8623  133.8050  155.9278 LP  0  0  0  0  0  0  0  0  0  0  0  0  # atno 17394 bound_to 11000
  140.9037  134.2347  157.5027 LP  0  0  0  0  0  0  0  0  0  0  0  0  # atno 17395 bound_to 11000

$$$$
