AV-unprocessed.smi:2140|AV-procd|sdf|8716|dock3
  -GOLD-   2272011483D 1   1.00000     0.00000
 Structure written by MMmdl.
 40 41  0  0  0  0  0  0  0  0  2 V2000
  146.5313  142.3778  153.6344 C   0  0  0  0  0  0  0  0  0  0  0  0
  146.7860  141.0068  154.3076 C   0  0  2  0  0  0  0  0  0  0  0  0
  148.3124  140.7599  154.4495 C   0  0  0  0  0  0  0  0  0  0  0  0
  148.9979  141.8194  155.1844 N   0  0  0  0  0  0  0  0  0  0  0  0
  149.8813  141.6162  156.1721 C   0  0  0  0  0  0  0  0  0  0  0  0
  150.2121  140.4961  156.5599 O   0  0  0  0  0  0  0  0  0  0  0  0
  150.3236  142.7813  156.6755 N   0  0  0  0  0  0  0  0  0  0  0  0
  151.2382  143.0038  157.7411 C   0  0  0  0  0  0  0  0  0  0  0  0
  151.8915  141.9786  158.4683 C   0  0  0  0  0  0  0  0  0  0  0  0
  152.7865  142.3375  159.4945 C   0  0  0  0  0  0  0  0  0  0  0  0
  153.0026  143.7050  159.7521 C   0  0  0  0  0  0  0  0  0  0  0  0
  152.3966  144.6924  159.0601 N   0  0  0  0  0  0  0  0  0  0  0  0
  151.5396  144.3408  158.0780 C   0  0  0  0  0  0  0  0  0  0  0  0
  146.1334  139.8612  153.5925 N   0  3  0  0  0  0  0  0  0  0  0  0
  146.9167  139.4064  152.4106 C   0  0  0  0  0  0  0  0  0  0  0  0
  146.1783  138.2926  151.6512 C   0  0  0  0  0  0  0  0  0  0  0  0
  145.9395  137.2023  152.5283 O   0  0  0  0  0  0  0  0  0  0  0  0
  145.1097  137.5819  153.6159 C   0  0  0  0  0  0  0  0  0  0  0  0
  145.7949  138.6850  154.4413 C   0  0  0  0  0  0  0  0  0  0  0  0
  147.0449  143.1857  154.1549 H   0  0  0  0  0  0  0  0  0  0  0  0
  145.4757  142.6491  153.6446 H   0  0  0  0  0  0  0  0  0  0  0  0
  146.8775  142.3851  152.6005 H   0  0  0  0  0  0  0  0  0  0  0  0
  146.3423  141.0605  155.3030 H   0  0  0  0  0  0  0  0  0  0  0  0
  148.5328  139.8160  154.9460 H   0  0  0  0  0  0  0  0  0  0  0  0
  148.7668  140.6920  153.4606 H   0  0  0  0  0  0  0  0  0  0  0  0
  148.7786  142.7711  154.9274 H   0  0  0  0  0  0  0  0  0  0  0  0
  149.9105  143.6158  156.2856 H   0  0  0  0  0  0  0  0  0  0  0  0
  151.7384  140.9321  158.2571 H   0  0  0  0  0  0  0  0  0  0  0  0
  153.2997  141.5805  160.0688 H   0  0  0  0  0  0  0  0  0  0  0  0
  153.6838  144.0137  160.5311 H   0  0  0  0  0  0  0  0  0  0  0  0
  151.0754  145.1575  157.5444 H   0  0  0  0  0  0  0  0  0  0  0  0
  147.1050  140.2254  151.7197 H   0  0  0  0  0  0  0  0  0  0  0  0
  147.8918  139.0420  152.7381 H   0  0  0  0  0  0  0  0  0  0  0  0
  145.2387  138.6588  151.2340 H   0  0  0  0  0  0  0  0  0  0  0  0
  146.7838  137.9443  150.8141 H   0  0  0  0  0  0  0  0  0  0  0  0
  144.1384  137.9171  153.2485 H   0  0  0  0  0  0  0  0  0  0  0  0
  144.9271  136.7066  154.2395 H   0  0  0  0  0  0  0  0  0  0  0  0
  146.7021  138.2959  154.9067 H   0  0  0  0  0  0  0  0  0  0  0  0
  145.1096  138.9651  155.2407 H   0  0  0  0  0  0  0  0  0  0  0  0
  145.2518  140.2104  153.2447 H   0  0  0  0  0  0  0  0  0  0  0  0
  1  2  1  0  0  0  0
  1 20  1  0  0  0  0
  1 21  1  0  0  0  0
  1 22  1  0  0  0  0
  2  3  1  0  0  0  0
  2 14  1  0  0  0  0
  2 23  1  0  0  0  0
  3  4  1  0  0  0  0
  3 24  1  0  0  0  0
  3 25  1  0  0  0  0
  4  5  1  0  0  0  0
  4 26  1  0  0  0  0
  5  6  2  0  0  0  0
  5  7  1  0  0  0  0
  7  8  1  0  0  0  0
  7 27  1  0  0  0  0
  8 13  1  0  0  0  0
  8  9  2  0  0  0  0
  9 10  1  0  0  0  0
  9 28  1  0  0  0  0
 10 11  2  0  0  0  0
 10 29  1  0  0  0  0
 11 12  1  0  0  0  0
 11 30  1  0  0  0  0
 12 13  2  0  0  0  0
 13 31  1  0  0  0  0
 14 19  1  0  0  0  0
 14 15  1  0  0  0  0
 14 40  1  0  0  0  0
 15 16  1  0  0  0  0
 15 32  1  0  0  0  0
 15 33  1  0  0  0  0
 16 17  1  0  0  0  0
 16 34  1  0  0  0  0
 16 35  1  0  0  0  0
 17 18  1  0  0  0  0
 18 19  1  0  0  0  0
 18 36  1  0  0  0  0
 18 37  1  0  0  0  0
 19 38  1  0  0  0  0
 19 39  1  0  0  0  0
M  CHG  1  14   1
M  END
> <s_m_source_file>
AV-unprocessed.smi

> <i_m_source_file_index>
2140

> <i_lp_mmshare_version>
43012

> <i_f3d_flags>
0

> <s_epik_input>
W0NIMl0xW0NIMl1PW0NIMl1bQ0gyXU4xW0NASF0oW0NIM10pW0NIMl1bTkhdQyg9TylbTkhdYzJbY0hdW2NIXVtjSF1uW2NIXTI=

> <s_epik_cmdline>
J2VwaWtfcHl0aG9uJywgJy1waCcsICc3LjAnLCAnLXRuJywgJzgnLCAnLW1hJywgJzIwMCcsICctbWV0YWxfYmluZGluZycsICctaW1hZScsICc8aW5maWxlLm1hZT4nLCAnLW9tYWUnLCAnPG91dGZpbGUubWFlPic=

> <r_epik_Ionization_Penalty>
0.60672

> <r_epik_Ionization_Penalty_Charging>
0.602531

> <r_epik_Ionization_Penalty_Neutral>
0.00418997

> <r_epik_State_Penalty>
0.607459

> <r_epik_Charging_Adjusted_Penalty>
1.20999

> <i_epik_Tot_Q>
1

> <i_epik_Tot_abs_Q>
1

> <r_epik_Metal_State_Penalty>
0.604586

> <b_epik_Metal_Only>
0

> <s_lp_Force_Field>
OPLS_2005

> <r_lp_Energy>
23.5262

> <b_lp_Chiralities_Consistent>
1

> <s_lp_Variant>
AV-unprocessed.smi:2140-3

> <Gold.Version>
5.8.1

> <Gold.Id.Protein>
6NUR|6NUR_protein|mol2

> <Gold.PLP.Fitness>
46.8356

> <Gold.PLP.PLP>
-35.7899

> <Gold.PLP.part.hbond>
-3.0000

> <Gold.PLP.part.metal>
0.0000

> <Gold.PLP.part.buried>
-3.0711

> <Gold.PLP.part.nonpolar>
-30.2674

> <Gold.PLP.part.repulsive>
0.5176

> <Gold.PLP.ligand.clash>
0.0000

> <Gold.PLP.ligand.torsion>
0.5171

> <Gold.PLP.Chemscore.Hbond>
3.8089

> <Gold.PLP.Chemscore.CHOScore>
0.1964

> <Gold.PLP.Chemscore.Metal>
0.0000

> <Gold.Chemscore.Hbonds>
donor molecule, donor type, donor heavy atom, donor atom, acceptor molecule, acceptor atom, score
      L1  H     4    26       P1  8028  0.77
      L1  H     7    27       P1  8028  1.00
      L1  H    14    40       P1 10175  2.00
      L1  C    13    31       P1  8028  0.13

> <Gold.PLP.Chemscore.Internal.Correction>
0.0641

> <Gold.Rescore>
     Score         DG    S(hbond)    S(metal)    S(lipo)     H(rot)  DE(clash)    DE(int)     intcor
     20.75     -22.51       2.94        0.00      94.95       1.52       0.02       1.75       ----

> <Gold.Chemscore.Fitness>
20.7451

> <Gold.Chemscore.DG>
-22.5114

> <Gold.Chemscore.ZeroCoef>
-5.4800

> <Gold.Chemscore.Hbond>
2.9365

> <Gold.Chemscore.Metal>
0.0000

> <Gold.Chemscore.Lipo>
94.9521

> <Gold.Chemscore.Internal_Hbond>
0.0000

> <Gold.Chemscore.DEClash>
0.0176

> <Gold.Chemscore.DEInternal>
1.7488

> <Gold.Chemscore.Rot>
1.5179

> <Gold.Chemscore.Internal.Correction>
   9.000000E+99

> <Gold.Chemscore.Hbonds>
donor molecule, donor type, donor heavy atom, donor atom, acceptor molecule, acceptor atom, score
      L1  H     4    26       P1  8028  0.74
      L1  H     7    27       P1  8028  0.99
      L1  H    14    40       P1 10175  1.00

> <Gold.Chemscore.Hbond.Weighted>
-9.8079

> <Gold.Chemscore.Metal.Weighted>
-0.0000

> <Gold.Chemscore.Lipo.Weighted>
-11.1094

> <Gold.Chemscore.Internal_Hbond.Weighted>
0.0000

> <Gold.Chemscore.DEClash.Weighted>
0.0176

> <Gold.Chemscore.DEInternal.Weighted>
1.7488

> <Gold.Chemscore.Rot.Weighted>
3.8859

> <Gold.Chemscore.Internal.Correction.Weighted>
   9.000000E+99

> <Gold.Protein.RotatedTorsions>
[ 6907 6896 6895 6894 ] final  -22.85 input  -60.11 | X-H torsion
[ 7974 7965 7964 7962 ] final   59.88 input  175.53 | X-H torsion
[ 8008 7997 7996 7995 ] final  -23.81 input   59.86 | X-H torsion
[ 10167 10162 10161 10158 ] final  157.96 input  -65.29 | X-H torsion
[ 10718 10713 10712 10709 ] final  110.47 input   66.30 | X-H torsion
[ 10763 10752 10751 10750 ] final  135.44 input  -60.55 | X-H torsion
[ 11005 11000 10999 10996 ] final   86.65 input  -57.11 | X-H torsion

> <Gold.Protein.ActiveResidues>
 VAL166  LYS551  ARG553  GLY616  TRP617  ASP618  TYR619  PRO620  LYS621  CYS622 
 ASP623  PHE694  ASN695  SER759  ASP760  ASP761  ALA762  ILE779  LEU786  VAL792 
 PHE793  MET794  SER795  GLU796  ALA797  LYS798  CYS799  TRP800  GLU811  SER814 

> <Gold.Protein.RotatedAtoms>
  151.2126  135.0487  159.8916 H   0  0  0  0  0  0  0  0  0  0  0  0  # atno 6907 bound_to 6896
  152.5423  134.0729  159.8212 H   0  0  0  0  0  0  0  0  0  0  0  0  # atno 6908 bound_to 6896
  151.0884  133.5287  159.2648 H   0  0  0  0  0  0  0  0  0  0  0  0  # atno 6909 bound_to 6896
  145.9022  139.3590  143.0585 H   0  0  0  0  0  0  0  0  0  0  0  0  # atno 7974 bound_to 7965
  154.4564  140.1970  156.0367 H   0  0  0  0  0  0  0  0  0  0  0  0  # atno 8008 bound_to 7997
  156.0755  140.3279  155.7600 H   0  0  0  0  0  0  0  0  0  0  0  0  # atno 8009 bound_to 7997
  155.5196  140.0568  157.2900 H   0  0  0  0  0  0  0  0  0  0  0  0  # atno 8010 bound_to 7997
  139.4825  144.4869  151.8364 H   0  0  0  0  0  0  0  0  0  0  0  0  # atno 10167 bound_to 10162
  157.6492  131.0933  150.6607 H   0  0  0  0  0  0  0  0  0  0  0  0  # atno 10718 bound_to 10713
  153.8401  135.3092  155.3425 H   0  0  0  0  0  0  0  0  0  0  0  0  # atno 10763 bound_to 10752
  154.7936  135.4768  154.0113 H   0  0  0  0  0  0  0  0  0  0  0  0  # atno 10764 bound_to 10752
  153.1581  135.6856  153.8874 H   0  0  0  0  0  0  0  0  0  0  0  0  # atno 10765 bound_to 10752
  139.8939  134.8369  156.2750 H   0  0  0  0  0  0  0  0  0  0  0  0  # atno 11005 bound_to 11000
  145.8776  140.9382  143.0618 LP  0  0  0  0  0  0  0  0  0  0  0  0  # atno 17320 bound_to 7965
  144.6736  140.0737  143.7472 LP  0  0  0  0  0  0  0  0  0  0  0  0  # atno 17321 bound_to 7965
  140.4350  144.2065  150.5889 LP  0  0  0  0  0  0  0  0  0  0  0  0  # atno 17342 bound_to 10162
  140.4741  143.2402  151.9047 LP  0  0  0  0  0  0  0  0  0  0  0  0  # atno 17343 bound_to 10162
  156.6920  130.4598  149.5597 LP  0  0  0  0  0  0  0  0  0  0  0  0  # atno 17370 bound_to 10713
  156.1855  130.6526  151.1001 LP  0  0  0  0  0  0  0  0  0  0  0  0  # atno 17371 bound_to 10713
  141.0076  133.7114  156.1059 LP  0  0  0  0  0  0  0  0  0  0  0  0  # atno 17394 bound_to 11000
  140.7412  134.4148  157.5554 LP  0  0  0  0  0  0  0  0  0  0  0  0  # atno 17395 bound_to 11000

$$$$
