AV-unprocessed.smi:430|AV-procd|sdf|2546|dock9
  -GOLD-   2262022513D 1   1.00000     0.00000
 Structure written by MMmdl.
 37 38  0  0  0  0  0  0  0  0  1 V2000
  145.9954  144.3282  161.1862 C   0  0  0  0  0  0  0  0  0  0  0  0
  146.9889  144.8544  160.1384 C   0  0  0  0  0  0  0  0  0  0  0  0
  148.4561  144.5860  160.4888 C   0  0  0  0  0  0  0  0  0  0  0  0
  148.7788  144.1727  161.6032 O   0  0  0  0  0  0  0  0  0  0  0  0
  149.3431  144.8309  159.5125 N   0  0  0  0  0  0  0  0  0  0  0  0
  150.7859  144.6350  159.6209 C   0  0  0  0  0  0  0  0  0  0  0  0
  151.3160  143.3641  158.9693 C   0  0  0  0  0  0  0  0  0  0  0  0
  152.2438  142.5596  159.6579 C   0  0  0  0  0  0  0  0  0  0  0  0
  152.7176  141.3807  159.0514 C   0  0  0  0  0  0  0  0  0  0  0  0
  152.2494  141.0306  157.7596 C   0  0  0  0  0  0  0  0  0  0  0  0
  152.6766  139.8580  157.0961 N   0  0  0  0  0  0  0  0  0  0  0  0
  152.2175  139.6187  155.7303 C   0  0  0  0  0  0  0  0  0  0  0  0
  153.0377  138.4958  155.0732 C   0  0  0  0  0  0  0  0  0  0  0  0
  152.9935  137.3290  155.8866 O   0  0  0  0  0  0  0  0  0  0  0  0
  153.5713  137.5592  157.1667 C   0  0  0  0  0  0  0  0  0  0  0  0
  152.7775  138.6470  157.9103 C   0  0  0  0  0  0  0  0  0  0  0  0
  151.3520  141.8059  157.1039 N   0  0  0  0  0  0  0  0  0  0  0  0
  150.8997  142.9334  157.6911 C   0  0  0  0  0  0  0  0  0  0  0  0
  144.9696  144.5311  160.8790 H   0  0  0  0  0  0  0  0  0  0  0  0
  146.1489  144.8047  162.1551 H   0  0  0  0  0  0  0  0  0  0  0  0
  146.0905  143.2501  161.3203 H   0  0  0  0  0  0  0  0  0  0  0  0
  146.7742  144.3963  159.1724 H   0  0  0  0  0  0  0  0  0  0  0  0
  146.8505  145.9291  160.0134 H   0  0  0  0  0  0  0  0  0  0  0  0
  148.9939  145.1693  158.6274 H   0  0  0  0  0  0  0  0  0  0  0  0
  151.3047  145.5005  159.2051 H   0  0  0  0  0  0  0  0  0  0  0  0
  151.0421  144.6040  160.6798 H   0  0  0  0  0  0  0  0  0  0  0  0
  152.5916  142.8409  160.6411 H   0  0  0  0  0  0  0  0  0  0  0  0
  153.4359  140.7786  159.5865 H   0  0  0  0  0  0  0  0  0  0  0  0
  151.1604  139.3504  155.7471 H   0  0  0  0  0  0  0  0  0  0  0  0
  152.3202  140.5243  155.1314 H   0  0  0  0  0  0  0  0  0  0  0  0
  152.6297  138.2599  154.0904 H   0  0  0  0  0  0  0  0  0  0  0  0
  154.0724  138.8075  154.9211 H   0  0  0  0  0  0  0  0  0  0  0  0
  153.5550  136.6295  157.7353 H   0  0  0  0  0  0  0  0  0  0  0  0
  154.6185  137.8474  157.0594 H   0  0  0  0  0  0  0  0  0  0  0  0
  153.2647  138.8426  158.8655 H   0  0  0  0  0  0  0  0  0  0  0  0
  151.7715  138.2894  158.1329 H   0  0  0  0  0  0  0  0  0  0  0  0
  150.1813  143.4992  157.1168 H   0  0  0  0  0  0  0  0  0  0  0  0
  1  2  1  0  0  0  0
  1 19  1  0  0  0  0
  1 20  1  0  0  0  0
  1 21  1  0  0  0  0
  2  3  1  0  0  0  0
  2 22  1  0  0  0  0
  2 23  1  0  0  0  0
  3  4  2  0  0  0  0
  3  5  1  0  0  0  0
  5  6  1  0  0  0  0
  5 24  1  0  0  0  0
  6  7  1  0  0  0  0
  6 25  1  0  0  0  0
  6 26  1  0  0  0  0
  7 18  1  0  0  0  0
  7  8  2  0  0  0  0
  8  9  1  0  0  0  0
  8 27  1  0  0  0  0
  9 10  2  0  0  0  0
  9 28  1  0  0  0  0
 10 11  1  0  0  0  0
 10 17  1  0  0  0  0
 11 16  1  0  0  0  0
 11 12  1  0  0  0  0
 12 13  1  0  0  0  0
 12 29  1  0  0  0  0
 12 30  1  0  0  0  0
 13 14  1  0  0  0  0
 13 31  1  0  0  0  0
 13 32  1  0  0  0  0
 14 15  1  0  0  0  0
 15 16  1  0  0  0  0
 15 33  1  0  0  0  0
 15 34  1  0  0  0  0
 16 35  1  0  0  0  0
 16 36  1  0  0  0  0
 17 18  2  0  0  0  0
 18 37  1  0  0  0  0
M  END
> <s_m_source_file>
AV-unprocessed.smi

> <i_m_source_file_index>
430

> <i_lp_mmshare_version>
43012

> <i_f3d_flags>
0

> <s_epik_input>
W0NIM11bQ0gyXUMoPU8pW05IXVtDSDJdYzFbY0hdW2NIXWMobltjSF0xKU4yW0NIMl1bQ0gyXU9bQ0gyXVtDSDJdMg==

> <s_epik_cmdline>
J2VwaWtfcHl0aG9uJywgJy1waCcsICc3LjAnLCAnLXRuJywgJzgnLCAnLW1hJywgJzIwMCcsICctbWV0YWxfYmluZGluZycsICctaW1hZScsICc8aW5maWxlLm1hZT4nLCAnLW9tYWUnLCAnPG91dGZpbGUubWFlPic=

> <r_lp_tautomer_probability>
1

> <r_epik_Ionization_Penalty>
0.00505548

> <r_epik_Ionization_Penalty_Charging>
0

> <r_epik_Ionization_Penalty_Neutral>
0.00505548

> <r_epik_State_Penalty>
0.00367784

> <r_epik_Charging_Adjusted_Penalty>
0.00367784

> <i_epik_Tot_Q>
0

> <i_epik_Tot_abs_Q>
0

> <r_epik_Metal_State_Penalty>
-0

> <b_epik_Metal_Only>
0

> <s_lp_Force_Field>
OPLS_2005

> <r_lp_Energy>
16.0515

> <b_lp_Chiralities_Consistent>
1

> <s_lp_Variant>
AV-unprocessed.smi:430-1

> <Gold.Version>
5.8.1

> <Gold.Id.Protein>
6NUR|6NUR_protein|mol2

> <Gold.PLP.Fitness>
46.0571

> <Gold.PLP.PLP>
-34.1466

> <Gold.PLP.part.hbond>
-4.0000

> <Gold.PLP.part.metal>
0.0000

> <Gold.PLP.part.buried>
-5.9162

> <Gold.PLP.part.nonpolar>
-25.4945

> <Gold.PLP.part.repulsive>
0.6909

> <Gold.PLP.ligand.clash>
0.0000

> <Gold.PLP.ligand.torsion>
0.6797

> <Gold.PLP.Chemscore.Hbond>
3.2688

> <Gold.PLP.Chemscore.CHOScore>
1.0000

> <Gold.PLP.Chemscore.Metal>
0.0000

> <Gold.Chemscore.Hbonds>
donor molecule, donor type, donor heavy atom, donor atom, acceptor molecule, acceptor atom, score
      L1  H     5    24       P1  8029  1.00
      P1  H  6933  6944       L1     4  0.62
      P1  H  7997  8010       L1    11  0.81
      P1  H 10752 10763       L1    14  0.53
      L1  C    18    37       P1  8028  1.00

> <Gold.PLP.Chemscore.Internal.Correction>
0.4635

> <Gold.Rescore>
     Score         DG    S(hbond)    S(metal)    S(lipo)     H(rot)  DE(clash)    DE(int)     intcor
     17.18     -18.12       2.28        0.00      78.20       1.62       0.07       0.87       ----

> <Gold.Chemscore.Fitness>
17.1845

> <Gold.Chemscore.DG>
-18.1194

> <Gold.Chemscore.ZeroCoef>
-5.4800

> <Gold.Chemscore.Hbond>
2.2848

> <Gold.Chemscore.Metal>
0.0000

> <Gold.Chemscore.Lipo>
78.2028

> <Gold.Chemscore.Internal_Hbond>
0.0000

> <Gold.Chemscore.DEClash>
0.0684

> <Gold.Chemscore.DEInternal>
0.8666

> <Gold.Chemscore.Rot>
1.6178

> <Gold.Chemscore.Internal.Correction>
   9.000000E+99

> <Gold.Chemscore.Hbonds>
donor molecule, donor type, donor heavy atom, donor atom, acceptor molecule, acceptor atom, score
      L1  H     5    24       P1  8029  0.96
      P1  H  6933  6944       L1     4  0.29
      P1  H  7997  8010       L1    11  0.02
      P1  H 10752 10763       L1    14  0.46

> <Gold.Chemscore.Hbond.Weighted>
-7.6313

> <Gold.Chemscore.Metal.Weighted>
-0.0000

> <Gold.Chemscore.Lipo.Weighted>
-9.1497

> <Gold.Chemscore.Internal_Hbond.Weighted>
0.0000

> <Gold.Chemscore.DEClash.Weighted>
0.0684

> <Gold.Chemscore.DEInternal.Weighted>
0.8666

> <Gold.Chemscore.Rot.Weighted>
4.1416

> <Gold.Chemscore.Internal.Correction.Weighted>
   9.000000E+99

> <Gold.Protein.RotatedTorsions>
[ 6907 6896 6895 6894 ] final  -41.09 input  -60.11 | X-H torsion
[ 7974 7965 7964 7962 ] final  -71.30 input  175.53 | X-H torsion
[ 8008 7997 7996 7995 ] final   55.83 input   59.86 | X-H torsion
[ 10167 10162 10161 10158 ] final  157.29 input  -65.29 | X-H torsion
[ 10718 10713 10712 10709 ] final  136.21 input   66.30 | X-H torsion
[ 10763 10752 10751 10750 ] final   88.28 input  -60.55 | X-H torsion
[ 11005 11000 10999 10996 ] final  -35.91 input  -57.11 | X-H torsion

> <Gold.Protein.ActiveResidues>
 VAL166  LYS551  ARG553  GLY616  TRP617  ASP618  TYR619  PRO620  LYS621  CYS622 
 ASP623  PHE694  ASN695  SER759  ASP760  ASP761  ALA762  ILE779  LEU786  VAL792 
 PHE793  MET794  SER795  GLU796  ALA797  LYS798  CYS799  TRP800  GLU811  SER814 

> <Gold.Protein.RotatedAtoms>
  150.9707  134.9081  159.7786 H   0  0  0  0  0  0  0  0  0  0  0  0  # atno 6907 bound_to 6896
  152.5189  134.3544  159.9272 H   0  0  0  0  0  0  0  0  0  0  0  0  # atno 6908 bound_to 6896
  151.3553  133.3869  159.2719 H   0  0  0  0  0  0  0  0  0  0  0  0  # atno 6909 bound_to 6896
  145.6799  140.9191  143.0838 H   0  0  0  0  0  0  0  0  0  0  0  0  # atno 7974 bound_to 7965
  155.5075  140.3476  155.4382 H   0  0  0  0  0  0  0  0  0  0  0  0  # atno 8008 bound_to 7997
  156.0872  140.1401  156.9665 H   0  0  0  0  0  0  0  0  0  0  0  0  # atno 8009 bound_to 7997
  154.4613  140.0933  156.6878 H   0  0  0  0  0  0  0  0  0  0  0  0  # atno 8010 bound_to 7997
  139.4823  144.4931  151.8279 H   0  0  0  0  0  0  0  0  0  0  0  0  # atno 10167 bound_to 10162
  157.4490  131.1064  151.0055 H   0  0  0  0  0  0  0  0  0  0  0  0  # atno 10718 bound_to 10713
  153.1752  135.4513  154.9956 H   0  0  0  0  0  0  0  0  0  0  0  0  # atno 10763 bound_to 10752
  154.7993  135.3249  154.7591 H   0  0  0  0  0  0  0  0  0  0  0  0  # atno 10764 bound_to 10752
  153.8062  135.6958  153.4902 H   0  0  0  0  0  0  0  0  0  0  0  0  # atno 10765 bound_to 10752
  140.9833  133.7044  156.1722 H   0  0  0  0  0  0  0  0  0  0  0  0  # atno 11005 bound_to 11000
  144.7029  139.8683  143.7438 LP  0  0  0  0  0  0  0  0  0  0  0  0  # atno 17320 bound_to 7965
  146.0973  139.3966  143.0368 LP  0  0  0  0  0  0  0  0  0  0  0  0  # atno 17321 bound_to 7965
  140.4417  144.1977  150.5892 LP  0  0  0  0  0  0  0  0  0  0  0  0  # atno 17342 bound_to 10162
  140.4676  143.2425  151.9133 LP  0  0  0  0  0  0  0  0  0  0  0  0  # atno 17343 bound_to 10162
  157.0892  130.5935  149.5436 LP  0  0  0  0  0  0  0  0  0  0  0  0  # atno 17370 bound_to 10713
  155.9979  130.5052  150.7552 LP  0  0  0  0  0  0  0  0  0  0  0  0  # atno 17371 bound_to 10713
  140.7153  134.4417  157.5579 LP  0  0  0  0  0  0  0  0  0  0  0  0  # atno 17394 bound_to 11000
  139.8959  134.8671  156.2109 LP  0  0  0  0  0  0  0  0  0  0  0  0  # atno 17395 bound_to 11000

$$$$
