AV-unprocessed.smi:1464|AV-procd|sdf|5947|dock10
  -GOLD-   22720 6 33D 1   1.00000     0.00000
 Structure written by MMmdl.
 41 42  0  0  0  0  0  0  0  0  1 V2000
  152.6393  144.8690  158.3013 C   0  0  0  0  0  0  0  0  0  0  0  0
  151.4786  144.1777  159.0461 C   0  0  2  0  0  0  0  0  0  0  0  0
  151.6793  144.2194  160.5745 C   0  0  0  0  0  0  0  0  0  0  0  0
  152.7836  143.2583  161.0411 C   0  0  0  0  0  0  0  0  0  0  0  0
  152.5023  141.8238  160.5739 C   0  0  0  0  0  0  0  0  0  0  0  0
  152.3005  141.7420  159.0484 C   0  0  1  0  0  0  0  0  0  0  0  0
  151.9555  140.3643  158.7000 N   0  0  0  0  0  0  0  0  0  0  0  0
  152.8190  139.3490  158.5411 C   0  0  0  0  0  0  0  0  0  0  0  0
  154.0397  139.4714  158.6531 O   0  0  0  0  0  0  0  0  0  0  0  0
  152.1956  137.9952  158.1718 C   0  0  0  0  0  0  0  0  0  0  0  0
  151.5935  137.9750  156.8310 N   0  0  0  0  0  0  0  0  0  0  0  0
  150.2651  137.5778  156.8121 N   0  0  0  0  0  0  0  0  0  0  0  0
  149.6233  137.5283  155.6940 C   0  0  0  0  0  0  0  0  0  0  0  0
  148.3087  137.1328  155.7214 O   0  0  0  0  0  0  0  0  0  0  0  0
  150.2649  137.8779  154.4461 C   0  0  0  0  0  0  0  0  0  0  0  0
  151.5603  138.2603  154.4741 C   0  0  0  0  0  0  0  0  0  0  0  0
  152.3182  138.3281  155.7249 C   0  0  0  0  0  0  0  0  0  0  0  0
  153.4991  138.6708  155.7801 O   0  0  0  0  0  0  0  0  0  0  0  0
  151.1971  142.7255  158.5748 C   0  0  2  0  0  0  0  0  0  0  0  0
  150.9218  142.6457  157.0600 C   0  0  0  0  0  0  0  0  0  0  0  0
  148.2791  136.4029  156.3208 H   0  0  0  0  0  0  0  0  0  0  0  0
  153.5771  144.3237  158.4020 H   0  0  0  0  0  0  0  0  0  0  0  0
  152.8035  145.8752  158.6870 H   0  0  0  0  0  0  0  0  0  0  0  0
  152.4289  144.9695  157.2368 H   0  0  0  0  0  0  0  0  0  0  0  0
  150.5864  144.7677  158.8314 H   0  0  0  0  0  0  0  0  0  0  0  0
  151.9074  145.2352  160.8992 H   0  0  0  0  0  0  0  0  0  0  0  0
  150.7437  143.9498  161.0663 H   0  0  0  0  0  0  0  0  0  0  0  0
  153.7514  143.5866  160.6613 H   0  0  0  0  0  0  0  0  0  0  0  0
  152.8587  143.2835  162.1284 H   0  0  0  0  0  0  0  0  0  0  0  0
  153.3243  141.1737  160.8766 H   0  0  0  0  0  0  0  0  0  0  0  0
  151.6126  141.4510  161.0835 H   0  0  0  0  0  0  0  0  0  0  0  0
  153.2425  142.0187  158.5726 H   0  0  0  0  0  0  0  0  0  0  0  0
  150.9732  140.1652  158.5777 H   0  0  0  0  0  0  0  0  0  0  0  0
  152.9513  137.2112  158.2505 H   0  0  0  0  0  0  0  0  0  0  0  0
  151.4449  137.7542  158.9266 H   0  0  0  0  0  0  0  0  0  0  0  0
  149.7131  137.8309  153.5188 H   0  0  0  0  0  0  0  0  0  0  0  0
  152.0521  138.5242  153.5495 H   0  0  0  0  0  0  0  0  0  0  0  0
  150.2705  142.4211  159.0647 H   0  0  0  0  0  0  0  0  0  0  0  0
  151.8309  142.8008  156.4786 H   0  0  0  0  0  0  0  0  0  0  0  0
  150.1938  143.3963  156.7520 H   0  0  0  0  0  0  0  0  0  0  0  0
  150.5172  141.6734  156.7785 H   0  0  0  0  0  0  0  0  0  0  0  0
  1  2  1  0  0  0  0
  1 22  1  0  0  0  0
  1 23  1  0  0  0  0
  1 24  1  0  0  0  0
  2 19  1  0  0  0  0
  2  3  1  0  0  0  0
  2 25  1  0  0  0  0
  3  4  1  0  0  0  0
  3 26  1  0  0  0  0
  3 27  1  0  0  0  0
  4  5  1  0  0  0  0
  4 28  1  0  0  0  0
  4 29  1  0  0  0  0
  5  6  1  0  0  0  0
  5 30  1  0  0  0  0
  5 31  1  0  0  0  0
  6  7  1  0  0  0  0
  6 19  1  0  0  0  0
  6 32  1  0  0  0  0
  7  8  1  0  0  0  0
  7 33  1  0  0  0  0
  8  9  2  0  0  0  0
  8 10  1  0  0  0  0
 10 34  1  0  0  0  0
 10 35  1  0  0  0  0
 10 11  1  0  0  0  0
 11 12  1  0  0  0  0
 11 17  1  0  0  0  0
 12 13  2  0  0  0  0
 13 14  1  0  0  0  0
 13 15  1  0  0  0  0
 14 21  1  0  0  0  0
 15 36  1  0  0  0  0
 15 16  2  0  0  0  0
 16 37  1  0  0  0  0
 16 17  1  0  0  0  0
 17 18  2  0  0  0  0
 19 20  1  0  0  0  0
 19 38  1  0  0  0  0
 20 39  1  0  0  0  0
 20 40  1  0  0  0  0
 20 41  1  0  0  0  0
M  END
> <s_m_source_file>
AV-unprocessed.smi

> <i_m_source_file_index>
1464

> <i_lp_mmshare_version>
43012

> <i_f3d_flags>
0

> <s_epik_input>
W0NIM11bQ0BASF0xW0NIMl1bQ0gyXVtDSDJdW0NASF0oW0NASF0xW0NIM10pW05IXUMoPU8pW0NIMl1uMltuSF1jKD1PKVtjSF1bY0hdYzI9Tw==

> <s_epik_cmdline>
J2VwaWtfcHl0aG9uJywgJy1waCcsICc3LjAnLCAnLXRuJywgJzgnLCAnLW1hJywgJzIwMCcsICctbWV0YWxfYmluZGluZycsICctaW1hZScsICc8aW5maWxlLm1hZT4nLCAnLW9tYWUnLCAnPG91dGZpbGUubWFlPic=

> <r_lp_tautomer_probability>
0.9996

> <r_epik_Ionization_Penalty>
2.10335

> <r_epik_Ionization_Penalty_Charging>
3.98079e-08

> <r_epik_Ionization_Penalty_Neutral>
2.10335

> <r_epik_State_Penalty>
1.67957

> <r_epik_Charging_Adjusted_Penalty>
1.67957

> <i_epik_Tot_Q>
0

> <i_epik_Tot_abs_Q>
0

> <r_epik_Metal_State_Penalty>
1.67957

> <b_epik_Metal_Only>
0

> <s_lp_Force_Field>
OPLS_2005

> <r_lp_Energy>
25.8074

> <b_lp_Chiralities_Consistent>
1

> <s_lp_Variant>
AV-unprocessed.smi:1464-13

> <Gold.Version>
5.8.1

> <Gold.Id.Protein>
6NUR|6NUR_protein|mol2

> <Gold.PLP.Fitness>
43.1558

> <Gold.PLP.PLP>
-39.2892

> <Gold.PLP.part.hbond>
-1.4719

> <Gold.PLP.part.metal>
0.0000

> <Gold.PLP.part.buried>
-5.0187

> <Gold.PLP.part.nonpolar>
-32.5435

> <Gold.PLP.part.repulsive>
0.1186

> <Gold.PLP.ligand.clash>
0.0000

> <Gold.PLP.ligand.torsion>
0.4103

> <Gold.PLP.Chemscore.Hbond>
1.5600

> <Gold.PLP.Chemscore.CHOScore>
0.0000

> <Gold.PLP.Chemscore.Metal>
0.0000

> <Gold.Chemscore.Hbonds>
donor molecule, donor type, donor heavy atom, donor atom, acceptor molecule, acceptor atom, score
      P1  H  7997  8008       L1     9  0.93
      P1  H  7997  8009       L1    18  0.61

> <Gold.PLP.Chemscore.Internal.Correction>
0.0072

> <Gold.Rescore>
     Score         DG    S(hbond)    S(metal)    S(lipo)     H(rot)  DE(clash)    DE(int)     intcor
     17.45     -17.94       1.77        0.00     104.73       2.22       0.08       0.41       ----

> <Gold.Chemscore.Fitness>
17.4529

> <Gold.Chemscore.DG>
-17.9419

> <Gold.Chemscore.ZeroCoef>
-5.4800

> <Gold.Chemscore.Hbond>
1.7659

> <Gold.Chemscore.Metal>
0.0000

> <Gold.Chemscore.Lipo>
104.7264

> <Gold.Chemscore.Internal_Hbond>
0.0000

> <Gold.Chemscore.DEClash>
0.0829

> <Gold.Chemscore.DEInternal>
0.4060

> <Gold.Chemscore.Rot>
2.2224

> <Gold.Chemscore.Internal.Correction>
   9.000000E+99

> <Gold.Chemscore.Hbonds>
donor molecule, donor type, donor heavy atom, donor atom, acceptor molecule, acceptor atom, score
      P1  H  7997  8008       L1     9  0.91
      P1  H  7997  8009       L1    18  0.62

> <Gold.Chemscore.Hbond.Weighted>
-5.8982

> <Gold.Chemscore.Metal.Weighted>
-0.0000

> <Gold.Chemscore.Lipo.Weighted>
-12.2530

> <Gold.Chemscore.Internal_Hbond.Weighted>
0.0000

> <Gold.Chemscore.DEClash.Weighted>
0.0829

> <Gold.Chemscore.DEInternal.Weighted>
0.4060

> <Gold.Chemscore.Rot.Weighted>
5.6893

> <Gold.Chemscore.Internal.Correction.Weighted>
   9.000000E+99

> <Gold.Protein.RotatedTorsions>
[ 6907 6896 6895 6894 ] final -167.74 input  -60.11 | X-H torsion
[ 7974 7965 7964 7962 ] final   10.16 input  175.53 | X-H torsion
[ 8008 7997 7996 7995 ] final -126.18 input   59.86 | X-H torsion
[ 10167 10162 10161 10158 ] final  -90.53 input  -65.29 | X-H torsion
[ 10718 10713 10712 10709 ] final  137.62 input   66.30 | X-H torsion
[ 10763 10752 10751 10750 ] final -110.05 input  -60.55 | X-H torsion
[ 11005 11000 10999 10996 ] final  133.02 input  -57.11 | X-H torsion

> <Gold.Protein.ActiveResidues>
 VAL166  LYS551  ARG553  GLY616  TRP617  ASP618  TYR619  PRO620  LYS621  CYS622 
 ASP623  PHE694  ASN695  SER759  ASP760  ASP761  ALA762  ILE779  LEU786  VAL792 
 PHE793  MET794  SER795  GLU796  ALA797  LYS798  CYS799  TRP800  GLU811  SER814 

> <Gold.Protein.RotatedAtoms>
  151.4644  133.3584  159.2813 H   0  0  0  0  0  0  0  0  0  0  0  0  # atno 6907 bound_to 6896
  150.9004  134.8417  159.7366 H   0  0  0  0  0  0  0  0  0  0  0  0  # atno 6908 bound_to 6896
  152.4876  134.4563  159.9643 H   0  0  0  0  0  0  0  0  0  0  0  0  # atno 6909 bound_to 6896
  146.2392  139.9675  142.8451 H   0  0  0  0  0  0  0  0  0  0  0  0  # atno 7974 bound_to 7965
  155.2255  140.0423  157.2954 H   0  0  0  0  0  0  0  0  0  0  0  0  # atno 8008 bound_to 7997
  154.5922  140.2430  155.7876 H   0  0  0  0  0  0  0  0  0  0  0  0  # atno 8009 bound_to 7997
  156.2266  140.2952  156.0092 H   0  0  0  0  0  0  0  0  0  0  0  0  # atno 8010 bound_to 7997
  140.3539  143.2876  151.9694 H   0  0  0  0  0  0  0  0  0  0  0  0  # atno 10167 bound_to 10162
  157.4341  131.1051  151.0217 H   0  0  0  0  0  0  0  0  0  0  0  0  # atno 10718 bound_to 10713
  154.8227  135.4578  154.0826 H   0  0  0  0  0  0  0  0  0  0  0  0  # atno 10763 bound_to 10752
  153.2166  135.6889  153.8056 H   0  0  0  0  0  0  0  0  0  0  0  0  # atno 10764 bound_to 10752
  153.7488  135.3301  155.3294 H   0  0  0  0  0  0  0  0  0  0  0  0  # atno 10765 bound_to 10752
  139.9826  134.9543  156.9665 H   0  0  0  0  0  0  0  0  0  0  0  0  # atno 11005 bound_to 11000
  145.1712  140.9722  143.4320 LP  0  0  0  0  0  0  0  0  0  0  0  0  # atno 17320 bound_to 7965
  145.0026  139.3584  143.6160 LP  0  0  0  0  0  0  0  0  0  0  0  0  # atno 17321 bound_to 7965
  139.4822  144.6052  151.7534 LP  0  0  0  0  0  0  0  0  0  0  0  0  # atno 17342 bound_to 10162
  140.5192  144.0905  150.6017 LP  0  0  0  0  0  0  0  0  0  0  0  0  # atno 17343 bound_to 10162
  157.1103  130.6019  149.5480 LP  0  0  0  0  0  0  0  0  0  0  0  0  # atno 17370 bound_to 10713
  155.9924  130.4981  150.7338 LP  0  0  0  0  0  0  0  0  0  0  0  0  # atno 17371 bound_to 10713
  140.5067  134.1043  155.7261 LP  0  0  0  0  0  0  0  0  0  0  0  0  # atno 17394 bound_to 11000
  141.1495  133.8994  157.2132 LP  0  0  0  0  0  0  0  0  0  0  0  0  # atno 17395 bound_to 11000

$$$$
