AV-unprocessed.smi:1427|AV-procd|sdf|5812|dock1
  -GOLD-   22720 5463D 1   1.00000     0.00000
 Structure written by MMmdl.
 33 34  0  0  0  0  0  0  0  0  1 V2000
  151.9704  141.0301  157.5499 C   0  0  0  0  0  0  0  0  0  0  0  0
  150.8935  142.1119  157.7094 C   0  0  1  0  0  0  0  0  0  0  0  0
  151.5038  143.4459  158.1917 C   0  0  0  0  0  0  0  0  0  0  0  0
  152.0259  143.3668  159.5454 N   0  0  0  0  0  0  0  0  0  0  0  0
  151.7673  144.1999  160.6132 C   0  0  0  0  0  0  0  0  0  0  0  0
  152.5014  143.7448  161.6707 C   0  0  0  0  0  0  0  0  0  0  0  0
  153.1830  142.6113  161.1461 C   0  0  0  0  0  0  0  0  0  0  0  0
  152.8936  142.3850  159.8751 N   0  0  0  0  0  0  0  0  0  0  0  0
  150.2009  142.2868  156.4332 N   0  0  0  0  0  0  0  0  0  0  0  0
  149.7050  141.2991  155.6706 C   0  0  0  0  0  0  0  0  0  0  0  0
  149.8234  140.1047  155.9487 O   0  0  0  0  0  0  0  0  0  0  0  0
  148.9650  141.7303  154.3966 C   0  0  1  0  0  0  0  0  0  0  0  0
  148.3165  140.5643  153.6244 C   0  0  0  0  0  0  0  0  0  0  0  0
  146.8234  140.6185  153.9764 C   0  0  0  0  0  0  0  0  0  0  0  0
  146.6558  142.0297  154.5149 C   0  0  0  0  0  0  0  0  0  0  0  0
  145.5636  142.5484  154.7336 O   0  0  0  0  0  0  0  0  0  0  0  0
  147.8444  142.6017  154.7095 N   0  0  0  0  0  0  0  0  0  0  0  0
  152.4878  140.8508  158.4928 H   0  0  0  0  0  0  0  0  0  0  0  0
  152.7180  141.3186  156.8101 H   0  0  0  0  0  0  0  0  0  0  0  0
  151.5329  140.0835  157.2309 H   0  0  0  0  0  0  0  0  0  0  0  0
  150.1917  141.7563  158.4661 H   0  0  0  0  0  0  0  0  0  0  0  0
  152.3255  143.7380  157.5368 H   0  0  0  0  0  0  0  0  0  0  0  0
  150.7649  144.2473  158.1376 H   0  0  0  0  0  0  0  0  0  0  0  0
  151.0973  145.0428  160.5294 H   0  0  0  0  0  0  0  0  0  0  0  0
  152.5472  144.1602  162.6662 H   0  0  0  0  0  0  0  0  0  0  0  0
  153.8753  141.9511  161.6476 H   0  0  0  0  0  0  0  0  0  0  0  0
  150.0593  143.2368  156.1222 H   0  0  0  0  0  0  0  0  0  0  0  0
  149.6536  142.2703  153.7446 H   0  0  0  0  0  0  0  0  0  0  0  0
  148.4467  140.7113  152.5513 H   0  0  0  0  0  0  0  0  0  0  0  0
  148.7557  139.5964  153.8716 H   0  0  0  0  0  0  0  0  0  0  0  0
  146.1853  140.4356  153.1114 H   0  0  0  0  0  0  0  0  0  0  0  0
  146.5728  139.9021  154.7594 H   0  0  0  0  0  0  0  0  0  0  0  0
  147.9696  143.5338  155.0770 H   0  0  0  0  0  0  0  0  0  0  0  0
  1  2  1  0  0  0  0
  1 18  1  0  0  0  0
  1 19  1  0  0  0  0
  1 20  1  0  0  0  0
  2  3  1  0  0  0  0
  2  9  1  0  0  0  0
  2 21  1  0  0  0  0
  3  4  1  0  0  0  0
  3 22  1  0  0  0  0
  3 23  1  0  0  0  0
  4  8  1  0  0  0  0
  4  5  1  0  0  0  0
  5  6  2  0  0  0  0
  5 24  1  0  0  0  0
  6  7  1  0  0  0  0
  6 25  1  0  0  0  0
  7  8  2  0  0  0  0
  7 26  1  0  0  0  0
  9 10  1  0  0  0  0
  9 27  1  0  0  0  0
 10 11  2  0  0  0  0
 10 12  1  0  0  0  0
 12 17  1  0  0  0  0
 12 13  1  0  0  0  0
 12 28  1  0  0  0  0
 13 14  1  0  0  0  0
 13 29  1  0  0  0  0
 13 30  1  0  0  0  0
 14 15  1  0  0  0  0
 14 31  1  0  0  0  0
 14 32  1  0  0  0  0
 15 16  2  0  0  0  0
 15 17  1  0  0  0  0
 17 33  1  0  0  0  0
M  END
> <s_m_source_file>
AV-unprocessed.smi

> <i_m_source_file_index>
1427

> <i_lp_mmshare_version>
43012

> <i_f3d_flags>
0

> <s_epik_input>
bjFbY0hdW2NIXVtjSF1uMVtDSDJdW0NAQEhdKFtDSDNdKVtOSF1DKD1PKVtDQEBIXTJbQ0gyXVtDSDJdQyg9TylbTkhdMg==

> <s_epik_cmdline>
J2VwaWtfcHl0aG9uJywgJy1waCcsICc3LjAnLCAnLXRuJywgJzgnLCAnLW1hJywgJzIwMCcsICctbWV0YWxfYmluZGluZycsICctaW1hZScsICc8aW5maWxlLm1hZT4nLCAnLW9tYWUnLCAnPG91dGZpbGUubWFlPic=

> <r_lp_tautomer_probability>
1

> <r_epik_Ionization_Penalty>
0.000310707

> <r_epik_Ionization_Penalty_Charging>
0

> <r_epik_Ionization_Penalty_Neutral>
0.000310707

> <r_epik_State_Penalty>
-0

> <r_epik_Charging_Adjusted_Penalty>
0

> <i_epik_Tot_Q>
0

> <i_epik_Tot_abs_Q>
0

> <r_epik_Metal_State_Penalty>
-0

> <b_epik_Metal_Only>
0

> <s_lp_Force_Field>
OPLS_2005

> <r_lp_Energy>
14.0885

> <b_lp_Chiralities_Consistent>
1

> <s_lp_Variant>
AV-unprocessed.smi:1427-4

> <Gold.Version>
5.8.1

> <Gold.Id.Protein>
6NUR|6NUR_protein|mol2

> <Gold.PLP.Fitness>
42.2753

> <Gold.PLP.PLP>
-36.7670

> <Gold.PLP.part.hbond>
-1.9343

> <Gold.PLP.part.metal>
0.0000

> <Gold.PLP.part.buried>
-2.8198

> <Gold.PLP.part.nonpolar>
-31.6465

> <Gold.PLP.part.repulsive>
0.4746

> <Gold.PLP.ligand.clash>
0.0000

> <Gold.PLP.ligand.torsion>
0.2163

> <Gold.PLP.Chemscore.Hbond>
1.9600

> <Gold.PLP.Chemscore.CHOScore>
0.0000

> <Gold.PLP.Chemscore.Metal>
0.0000

> <Gold.Chemscore.Hbonds>
donor molecule, donor type, donor heavy atom, donor atom, acceptor molecule, acceptor atom, score
      L1  H     9    27       P1  8028  1.00
      L1  H    17    33       P1  8028  1.00

> <Gold.PLP.Chemscore.Internal.Correction>
0.0610

> <Gold.Rescore>
     Score         DG    S(hbond)    S(metal)    S(lipo)     H(rot)  DE(clash)    DE(int)     intcor
     13.19     -15.87       1.72        0.00      80.96       1.88       0.15       2.54       ----

> <Gold.Chemscore.Fitness>
13.1857

> <Gold.Chemscore.DG>
-15.8732

> <Gold.Chemscore.ZeroCoef>
-5.4800

> <Gold.Chemscore.Hbond>
1.7184

> <Gold.Chemscore.Metal>
0.0000

> <Gold.Chemscore.Lipo>
80.9563

> <Gold.Chemscore.Internal_Hbond>
0.0000

> <Gold.Chemscore.DEClash>
0.1490

> <Gold.Chemscore.DEInternal>
2.5386

> <Gold.Chemscore.Rot>
1.8821

> <Gold.Chemscore.Internal.Correction>
   9.000000E+99

> <Gold.Chemscore.Hbonds>
donor molecule, donor type, donor heavy atom, donor atom, acceptor molecule, acceptor atom, score
      L1  H     9    27       P1  8028  0.95
      L1  H    17    33       P1  8028  0.57

> <Gold.Chemscore.Hbond.Weighted>
-5.7394

> <Gold.Chemscore.Metal.Weighted>
-0.0000

> <Gold.Chemscore.Lipo.Weighted>
-9.4719

> <Gold.Chemscore.Internal_Hbond.Weighted>
0.0000

> <Gold.Chemscore.DEClash.Weighted>
0.1490

> <Gold.Chemscore.DEInternal.Weighted>
2.5386

> <Gold.Chemscore.Rot.Weighted>
4.8181

> <Gold.Chemscore.Internal.Correction.Weighted>
   9.000000E+99

> <Gold.Protein.RotatedTorsions>
[ 6907 6896 6895 6894 ] final -108.04 input  -60.11 | X-H torsion
[ 7974 7965 7964 7962 ] final   23.67 input  175.53 | X-H torsion
[ 8008 7997 7996 7995 ] final  111.67 input   59.86 | X-H torsion
[ 10167 10162 10161 10158 ] final  -32.57 input  -65.29 | X-H torsion
[ 10718 10713 10712 10709 ] final -144.25 input   66.30 | X-H torsion
[ 10763 10752 10751 10750 ] final -161.48 input  -60.55 | X-H torsion
[ 11005 11000 10999 10996 ] final  -75.76 input  -57.11 | X-H torsion

> <Gold.Protein.ActiveResidues>
 VAL166  LYS551  ARG553  GLY616  TRP617  ASP618  TYR619  PRO620  LYS621  CYS622 
 ASP623  PHE694  ASN695  SER759  ASP760  ASP761  ALA762  ILE779  LEU786  VAL792 
 PHE793  MET794  SER795  GLU796  ALA797  LYS798  CYS799  TRP800  GLU811  SER814 

> <Gold.Protein.RotatedAtoms>
  150.7479  133.9736  159.3553 H   0  0  0  0  0  0  0  0  0  0  0  0  # atno 6907 bound_to 6896
  151.7672  135.0793  160.0364 H   0  0  0  0  0  0  0  0  0  0  0  0  # atno 6908 bound_to 6896
  152.3363  133.5979  159.5881 H   0  0  0  0  0  0  0  0  0  0  0  0  # atno 6909 bound_to 6896
  146.1973  139.7712  142.8787 H   0  0  0  0  0  0  0  0  0  0  0  0  # atno 7974 bound_to 7965
  156.2139  140.3015  155.9796 H   0  0  0  0  0  0  0  0  0  0  0  0  # atno 8008 bound_to 7997
  155.2653  140.0431  157.3018 H   0  0  0  0  0  0  0  0  0  0  0  0  # atno 8009 bound_to 7997
  154.5740  140.2356  155.8158 H   0  0  0  0  0  0  0  0  0  0  0  0  # atno 8010 bound_to 7997
  140.7219  143.3685  151.1824 H   0  0  0  0  0  0  0  0  0  0  0  0  # atno 10167 bound_to 10162
  156.3678  130.7772  151.1948 H   0  0  0  0  0  0  0  0  0  0  0  0  # atno 10718 bound_to 10713
  154.7300  135.3044  154.8907 H   0  0  0  0  0  0  0  0  0  0  0  0  # atno 10763 bound_to 10752
  153.9753  135.6737  153.4752 H   0  0  0  0  0  0  0  0  0  0  0  0  # atno 10764 bound_to 10752
  153.0909  135.4960  154.8609 H   0  0  0  0  0  0  0  0  0  0  0  0  # atno 10765 bound_to 10752
  141.1648  133.6958  156.7566 H   0  0  0  0  0  0  0  0  0  0  0  0  # atno 11005 bound_to 11000
  145.3600  141.0324  143.3290 LP  0  0  0  0  0  0  0  0  0  0  0  0  # atno 17320 bound_to 7965
  144.8608  139.5180  143.6813 LP  0  0  0  0  0  0  0  0  0  0  0  0  # atno 17321 bound_to 7965
  139.7252  143.9160  152.3000 LP  0  0  0  0  0  0  0  0  0  0  0  0  # atno 17342 bound_to 10162
  139.8931  144.6954  150.8748 LP  0  0  0  0  0  0  0  0  0  0  0  0  # atno 17343 bound_to 10162
  157.7480  131.0381  150.4488 LP  0  0  0  0  0  0  0  0  0  0  0  0  # atno 17370 bound_to 10713
  156.4709  130.4052  149.6518 LP  0  0  0  0  0  0  0  0  0  0  0  0  # atno 17371 bound_to 10713
  140.2565  134.8500  157.3717 LP  0  0  0  0  0  0  0  0  0  0  0  0  # atno 17394 bound_to 11000
  140.1652  134.4677  155.7867 LP  0  0  0  0  0  0  0  0  0  0  0  0  # atno 17395 bound_to 11000

$$$$
