AV-unprocessed.smi:37|AV-procd|sdf|308|dock6
  -GOLD-   2262016123D 1   1.00000     0.00000
 Structure written by MMmdl.
 44 45  0  0  0  0  0  0  0  0  1 V2000
  149.7229  138.6474  154.2924 C   0  0  0  0  0  0  0  0  0  0  0  0
  151.1527  138.1279  154.4908 C   0  0  0  0  0  0  0  0  0  0  0  0
  152.0333  139.1307  155.2325 C   0  0  0  0  0  0  0  0  0  0  0  0
  152.9971  139.6657  154.6845 O   0  0  0  0  0  0  0  0  0  0  0  0
  151.6208  139.3469  156.4921 O   0  0  0  0  0  0  0  0  0  0  0  0
  152.2202  140.3697  157.2721 C   0  0  0  0  0  0  0  0  0  0  0  0
  151.6461  140.3374  158.6998 C   0  0  1  0  0  0  0  0  0  0  0  0
  151.8936  139.0290  159.2203 O   0  0  0  0  0  0  0  0  0  0  0  0
  152.7267  139.1073  160.3355 C   0  0  1  0  0  0  0  0  0  0  0  0
  153.7196  137.9722  160.2683 N   0  0  0  0  0  0  0  0  0  0  0  0
  153.7427  137.0008  161.2594 C   0  0  0  0  0  0  0  0  0  0  0  0
  154.6266  135.9754  161.2674 C   0  0  0  0  0  0  0  0  0  0  0  0
  154.5859  135.0720  162.2613 F   0  0  0  0  0  0  0  0  0  0  0  0
  155.6246  135.8457  160.2098 C   0  0  0  0  0  0  0  0  0  0  0  0
  156.4650  134.9520  160.1279 O   0  0  0  0  0  0  0  0  0  0  0  0
  155.5714  136.8515  159.2404 N   0  0  0  0  0  0  0  0  0  0  0  0
  154.6664  137.9148  159.2208 C   0  0  0  0  0  0  0  0  0  0  0  0
  154.7145  138.7403  158.3102 O   0  0  0  0  0  0  0  0  0  0  0  0
  153.4147  140.4656  160.2852 C   0  0  2  0  0  0  0  0  0  0  0  0
  153.9454  141.0967  162.0970 Br  0  0  0  0  0  0  0  0  0  0  0  0
  152.3105  141.3119  159.6936 C   0  0  1  0  0  0  0  0  0  0  0  0
  152.8520  142.4891  159.1077 O   0  0  0  0  0  0  0  0  0  0  0  0
  152.0377  143.4221  158.5813 C   0  0  0  0  0  0  0  0  0  0  0  0
  150.9365  143.2153  158.0718 O   0  0  0  0  0  0  0  0  0  0  0  0
  152.6350  144.8260  158.6421 C   0  0  0  0  0  0  0  0  0  0  0  0
  152.0541  145.6563  159.7944 C   0  0  0  0  0  0  0  0  0  0  0  0
  156.2454  136.8047  158.4900 H   0  0  0  0  0  0  0  0  0  0  0  0
  149.1111  137.9004  153.7869 H   0  0  0  0  0  0  0  0  0  0  0  0
  149.7063  139.5527  153.6846 H   0  0  0  0  0  0  0  0  0  0  0  0
  149.2469  138.8727  155.2473 H   0  0  0  0  0  0  0  0  0  0  0  0
  151.1330  137.1926  155.0506 H   0  0  0  0  0  0  0  0  0  0  0  0
  151.6073  137.9089  153.5243 H   0  0  0  0  0  0  0  0  0  0  0  0
  153.2942  140.1826  157.2985 H   0  0  0  0  0  0  0  0  0  0  0  0
  152.0757  141.3564  156.8299 H   0  0  0  0  0  0  0  0  0  0  0  0
  150.5685  140.5013  158.6658 H   0  0  0  0  0  0  0  0  0  0  0  0
  152.1009  138.9864  161.2207 H   0  0  0  0  0  0  0  0  0  0  0  0
  153.0270  137.0597  162.0664 H   0  0  0  0  0  0  0  0  0  0  0  0
  154.2936  140.4379  159.6401 H   0  0  0  0  0  0  0  0  0  0  0  0
  151.6013  141.5516  160.4878 H   0  0  0  0  0  0  0  0  0  0  0  0
  153.7169  144.7445  158.7489 H   0  0  0  0  0  0  0  0  0  0  0  0
  152.4482  145.3288  157.6929 H   0  0  0  0  0  0  0  0  0  0  0  0
  152.4605  146.6677  159.7815 H   0  0  0  0  0  0  0  0  0  0  0  0
  152.2940  145.2182  160.7639 H   0  0  0  0  0  0  0  0  0  0  0  0
  150.9690  145.7355  159.7194 H   0  0  0  0  0  0  0  0  0  0  0  0
  1  2  1  0  0  0  0
  1 28  1  0  0  0  0
  1 29  1  0  0  0  0
  1 30  1  0  0  0  0
  2  3  1  0  0  0  0
  2 31  1  0  0  0  0
  2 32  1  0  0  0  0
  3  4  2  0  0  0  0
  3  5  1  0  0  0  0
  5  6  1  0  0  0  0
  6  7  1  0  0  0  0
  6 33  1  0  0  0  0
  6 34  1  0  0  0  0
  7 21  1  0  0  0  0
  7  8  1  0  0  0  0
  7 35  1  0  0  0  0
  8  9  1  0  0  0  0
  9 10  1  0  0  0  0
  9 19  1  0  0  0  0
  9 36  1  0  0  0  0
 10 17  1  0  0  0  0
 10 11  1  0  0  0  0
 11 12  2  0  0  0  0
 11 37  1  0  0  0  0
 12 13  1  0  0  0  0
 12 14  1  0  0  0  0
 14 15  2  0  0  0  0
 14 16  1  0  0  0  0
 16 27  1  0  0  0  0
 16 17  1  0  0  0  0
 17 18  2  0  0  0  0
 19 20  1  0  0  0  0
 19 21  1  0  0  0  0
 19 38  1  0  0  0  0
 21 22  1  0  0  0  0
 21 39  1  0  0  0  0
 22 23  1  0  0  0  0
 23 24  2  0  0  0  0
 23 25  1  0  0  0  0
 25 26  1  0  0  0  0
 25 40  1  0  0  0  0
 25 41  1  0  0  0  0
 26 42  1  0  0  0  0
 26 43  1  0  0  0  0
 26 44  1  0  0  0  0
M  END
> <s_m_source_file>
AV-unprocessed.smi

> <i_m_source_file_index>
37

> <i_lp_mmshare_version>
43012

> <i_f3d_flags>
0

> <s_epik_input>
W0NIM11bQ0gyXUMoPU8pT1tDSDJdW0NAQEhdMU9bQ0BASF0objJbY0hdYyhGKWMoPU8pW25IXWMyPU8pW0NAQEhdKEJyKVtDQEhdMU9DKD1PKVtDSDJdW0NIM10=

> <s_epik_cmdline>
J2VwaWtfcHl0aG9uJywgJy1waCcsICc3LjAnLCAnLXRuJywgJzgnLCAnLW1hJywgJzIwMCcsICctbWV0YWxfYmluZGluZycsICctaW1hZScsICc8aW5maWxlLm1hZT4nLCAnLW9tYWUnLCAnPG91dGZpbGUubWFlPic=

> <r_lp_tautomer_probability>
0.999537

> <r_epik_Ionization_Penalty>
0.104106

> <r_epik_Ionization_Penalty_Charging>
0.104106

> <r_epik_Ionization_Penalty_Neutral>
3.94675e-16

> <r_epik_State_Penalty>
0.0940182

> <r_epik_Charging_Adjusted_Penalty>
0.198124

> <i_epik_Tot_Q>
0

> <i_epik_Tot_abs_Q>
0

> <r_epik_Metal_State_Penalty>
3.05314

> <b_epik_Metal_Only>
0

> <s_epik_Chemistry_Notes>
This compound has an ester and may undergo hydrolysis at high or low pH. This compound contains an acetal/aminal-like group ( X-CH(R)-Y where X, Y are N, S, or O) that may be acid/base labile, releasing an aldehyde.

> <s_lp_Force_Field>
OPLS_2005

> <r_lp_Energy>
26.2696

> <b_lp_Chiralities_Consistent>
1

> <s_lp_Variant>
AV-unprocessed.smi:37-6

> <Gold.Version>
5.8.1

> <Gold.Id.Protein>
6NUR|6NUR_protein|mol2

> <Gold.PLP.Fitness>
48.4513

> <Gold.PLP.PLP>
-43.1265

> <Gold.PLP.part.hbond>
-2.9872

> <Gold.PLP.part.metal>
0.0000

> <Gold.PLP.part.buried>
-5.4159

> <Gold.PLP.part.nonpolar>
-35.4054

> <Gold.PLP.part.repulsive>
0.1855

> <Gold.PLP.ligand.clash>
0.0000

> <Gold.PLP.ligand.torsion>
0.8042

> <Gold.PLP.Chemscore.Hbond>
2.2380

> <Gold.PLP.Chemscore.CHOScore>
0.0000

> <Gold.PLP.Chemscore.Metal>
0.0000

> <Gold.Chemscore.Hbonds>
donor molecule, donor type, donor heavy atom, donor atom, acceptor molecule, acceptor atom, score
      P1  H  7989  7998       L1     4  0.15
      P1  H  7997  8008       L1    18  0.98
      P1  H  7997  8009       L1     4  1.00

> <Gold.PLP.Chemscore.Internal.Correction>
0.2194

> <Gold.Rescore>
     Score         DG    S(hbond)    S(metal)    S(lipo)     H(rot)  DE(clash)    DE(int)     intcor
     10.33     -13.97       1.97        0.00      89.17       3.33       0.38       3.26       ----

> <Gold.Chemscore.Fitness>
10.3275

> <Gold.Chemscore.DG>
-13.9696

> <Gold.Chemscore.ZeroCoef>
-5.4800

> <Gold.Chemscore.Hbond>
1.9707

> <Gold.Chemscore.Metal>
0.0000

> <Gold.Chemscore.Lipo>
89.1709

> <Gold.Chemscore.Internal_Hbond>
0.0000

> <Gold.Chemscore.DEClash>
0.3773

> <Gold.Chemscore.DEInternal>
3.2648

> <Gold.Chemscore.Rot>
3.3303

> <Gold.Chemscore.Internal.Correction>
   9.000000E+99

> <Gold.Chemscore.Hbonds>
donor molecule, donor type, donor heavy atom, donor atom, acceptor molecule, acceptor atom, score
      P1  H  7989  7998       L1     4  0.01
      P1  H  7997  8008       L1    18  0.93
      P1  H  7997  8009       L1     4  0.93

> <Gold.Chemscore.Hbond.Weighted>
-6.5822

> <Gold.Chemscore.Metal.Weighted>
-0.0000

> <Gold.Chemscore.Lipo.Weighted>
-10.4330

> <Gold.Chemscore.Internal_Hbond.Weighted>
0.0000

> <Gold.Chemscore.DEClash.Weighted>
0.3773

> <Gold.Chemscore.DEInternal.Weighted>
3.2648

> <Gold.Chemscore.Rot.Weighted>
8.5256

> <Gold.Chemscore.Internal.Correction.Weighted>
   9.000000E+99

> <Gold.Protein.RotatedTorsions>
[ 6907 6896 6895 6894 ] final -126.13 input  -60.11 | X-H torsion
[ 7974 7965 7964 7962 ] final  140.47 input  175.53 | X-H torsion
[ 8008 7997 7996 7995 ] final -132.33 input   59.86 | X-H torsion
[ 10167 10162 10161 10158 ] final   68.70 input  -65.29 | X-H torsion
[ 10718 10713 10712 10709 ] final   39.69 input   66.30 | X-H torsion
[ 10763 10752 10751 10750 ] final -118.95 input  -60.55 | X-H torsion
[ 11005 11000 10999 10996 ] final -120.10 input  -57.11 | X-H torsion

> <Gold.Protein.ActiveResidues>
 VAL166  LYS551  ARG553  GLY616  TRP617  ASP618  TYR619  PRO620  LYS621  CYS622 
 ASP623  PHE694  ASN695  SER759  ASP760  ASP761  ALA762  ILE779  LEU786  VAL792 
 PHE793  MET794  SER795  GLU796  ALA797  LYS798  CYS799  TRP800  GLU811  SER814 

> <Gold.Protein.RotatedAtoms>
  150.8938  133.7208  159.2897 H   0  0  0  0  0  0  0  0  0  0  0  0  # atno 6907 bound_to 6896
  151.4750  135.1047  159.9771 H   0  0  0  0  0  0  0  0  0  0  0  0  # atno 6908 bound_to 6896
  152.4836  133.8269  159.7138 H   0  0  0  0  0  0  0  0  0  0  0  0  # atno 6909 bound_to 6896
  144.9184  139.5200  143.5675 H   0  0  0  0  0  0  0  0  0  0  0  0  # atno 7974 bound_to 7965
  155.3272  140.0465  157.3041 H   0  0  0  0  0  0  0  0  0  0  0  0  # atno 8008 bound_to 7997
  154.5348  140.2269  155.8707 H   0  0  0  0  0  0  0  0  0  0  0  0  # atno 8009 bound_to 7997
  156.1824  140.3070  155.9180 H   0  0  0  0  0  0  0  0  0  0  0  0  # atno 8010 bound_to 7997
  140.0759  144.5113  150.7195 H   0  0  0  0  0  0  0  0  0  0  0  0  # atno 10167 bound_to 10162
  157.3735  130.7714  149.7137 H   0  0  0  0  0  0  0  0  0  0  0  0  # atno 10718 bound_to 10713
  154.8603  135.4255  154.2221 H   0  0  0  0  0  0  0  0  0  0  0  0  # atno 10763 bound_to 10752
  153.3224  135.6983  153.7025 H   0  0  0  0  0  0  0  0  0  0  0  0  # atno 10764 bound_to 10752
  153.6074  135.3525  155.2940 H   0  0  0  0  0  0  0  0  0  0  0  0  # atno 10765 bound_to 10752
  141.0168  134.0183  157.3338 H   0  0  0  0  0  0  0  0  0  0  0  0  # atno 11005 bound_to 11000
  146.3193  139.8044  142.8958 LP  0  0  0  0  0  0  0  0  0  0  0  0  # atno 17320 bound_to 7965
  145.3337  141.0272  143.3432 LP  0  0  0  0  0  0  0  0  0  0  0  0  # atno 17321 bound_to 7965
  140.7102  143.2499  151.4603 LP  0  0  0  0  0  0  0  0  0  0  0  0  # atno 17342 bound_to 10162
  139.5808  144.1713  152.1966 LP  0  0  0  0  0  0  0  0  0  0  0  0  # atno 17343 bound_to 10162
  155.9760  130.4081  150.3808 LP  0  0  0  0  0  0  0  0  0  0  0  0  # atno 17370 bound_to 10713
  157.1902  131.0413  151.2704 LP  0  0  0  0  0  0  0  0  0  0  0  0  # atno 17371 bound_to 10713
  139.9122  135.0192  156.7737 LP  0  0  0  0  0  0  0  0  0  0  0  0  # atno 17394 bound_to 11000
  140.6641  133.9618  155.7821 LP  0  0  0  0  0  0  0  0  0  0  0  0  # atno 17395 bound_to 11000

$$$$
