AV-unprocessed.smi:2044|AV-procd|sdf|8298|dock5
  -GOLD-   2272010563D 1   1.00000     0.00000
 Structure written by MMmdl.
 39 40  0  0  0  0  0  0  0  0  1 V2000
  143.5425  132.1117  149.6495 C   0  0  0  0  0  0  0  0  0  0  0  0
  144.6437  132.9345  150.2252 C   0  0  0  0  0  0  0  0  0  0  0  0
  144.6597  134.1130  150.9169 C   0  0  0  0  0  0  0  0  0  0  0  0
  146.0437  134.3256  151.1548 C   0  0  0  0  0  0  0  0  0  0  0  0
  146.4936  135.4716  151.8590 N   0  0  0  0  0  0  0  0  0  0  0  0
  145.7510  136.3492  152.5549 C   0  0  0  0  0  0  0  0  0  0  0  0
  144.5271  136.2980  152.6818 O   0  0  0  0  0  0  0  0  0  0  0  0
  146.5150  137.3070  153.0994 N   0  0  0  0  0  0  0  0  0  0  0  0
  146.0315  138.4298  153.9010 C   0  0  0  0  0  0  0  0  0  0  0  0
  146.8728  139.7159  153.6883 C   0  0  2  0  0  0  0  0  0  0  0  0
  147.1530  139.8748  152.1768 C   0  0  0  0  0  0  0  0  0  0  0  0
  148.0908  139.7851  154.5259 N   0  0  0  0  0  0  0  0  0  0  0  0
  149.0983  138.7943  154.1348 C   0  0  0  0  0  0  0  0  0  0  0  0
  150.3763  138.8795  154.9871 C   0  0  0  0  0  0  0  0  0  0  0  0
  150.9184  140.1912  154.9080 O   0  0  0  0  0  0  0  0  0  0  0  0
  149.9970  141.1805  155.3464 C   0  0  0  0  0  0  0  0  0  0  0  0
  148.7180  141.1098  154.4944 C   0  0  0  0  0  0  0  0  0  0  0  0
  146.8038  133.3638  150.6537 N   0  0  0  0  0  0  0  0  0  0  0  0
  145.9104  132.4676  150.0548 O   0  0  0  0  0  0  0  0  0  0  0  0
  142.5946  132.3331  150.1402 H   0  0  0  0  0  0  0  0  0  0  0  0
  143.7455  131.0475  149.7729 H   0  0  0  0  0  0  0  0  0  0  0  0
  143.4278  132.3134  148.5846 H   0  0  0  0  0  0  0  0  0  0  0  0
  143.8156  134.7224  151.2035 H   0  0  0  0  0  0  0  0  0  0  0  0
  147.4886  135.6389  151.8336 H   0  0  0  0  0  0  0  0  0  0  0  0
  147.5100  137.2700  152.9332 H   0  0  0  0  0  0  0  0  0  0  0  0
  144.9804  138.6318  153.6887 H   0  0  0  0  0  0  0  0  0  0  0  0
  146.0401  138.1281  154.9476 H   0  0  0  0  0  0  0  0  0  0  0  0
  146.2280  140.5505  153.9678 H   0  0  0  0  0  0  0  0  0  0  0  0
  146.2518  139.7025  151.5879 H   0  0  0  0  0  0  0  0  0  0  0  0
  147.9103  139.1696  151.8333 H   0  0  0  0  0  0  0  0  0  0  0  0
  147.4911  140.8797  151.9258 H   0  0  0  0  0  0  0  0  0  0  0  0
  148.7024  137.7851  154.2402 H   0  0  0  0  0  0  0  0  0  0  0  0
  149.3563  138.9245  153.0826 H   0  0  0  0  0  0  0  0  0  0  0  0
  150.1648  138.6263  156.0272 H   0  0  0  0  0  0  0  0  0  0  0  0
  151.1189  138.1663  154.6284 H   0  0  0  0  0  0  0  0  0  0  0  0
  149.7671  141.0324  156.4028 H   0  0  0  0  0  0  0  0  0  0  0  0
  150.4594  142.1631  155.2542 H   0  0  0  0  0  0  0  0  0  0  0  0
  148.9547  141.3825  153.4648 H   0  0  0  0  0  0  0  0  0  0  0  0
  148.0327  141.8673  154.8712 H   0  0  0  0  0  0  0  0  0  0  0  0
  1  2  1  0  0  0  0
  1 20  1  0  0  0  0
  1 21  1  0  0  0  0
  1 22  1  0  0  0  0
  2 19  1  0  0  0  0
  2  3  2  0  0  0  0
  3  4  1  0  0  0  0
  3 23  1  0  0  0  0
  4  5  1  0  0  0  0
  4 18  2  0  0  0  0
  5  6  1  0  0  0  0
  5 24  1  0  0  0  0
  6  7  2  0  0  0  0
  6  8  1  0  0  0  0
  8  9  1  0  0  0  0
  8 25  1  0  0  0  0
  9 10  1  0  0  0  0
  9 26  1  0  0  0  0
  9 27  1  0  0  0  0
 10 11  1  0  0  0  0
 10 12  1  0  0  0  0
 10 28  1  0  0  0  0
 11 29  1  0  0  0  0
 11 30  1  0  0  0  0
 11 31  1  0  0  0  0
 12 17  1  0  0  0  0
 12 13  1  0  0  0  0
 13 14  1  0  0  0  0
 13 32  1  0  0  0  0
 13 33  1  0  0  0  0
 14 15  1  0  0  0  0
 14 34  1  0  0  0  0
 14 35  1  0  0  0  0
 15 16  1  0  0  0  0
 16 17  1  0  0  0  0
 16 36  1  0  0  0  0
 16 37  1  0  0  0  0
 17 38  1  0  0  0  0
 17 39  1  0  0  0  0
 18 19  1  0  0  0  0
M  END
> <s_m_source_file>
AV-unprocessed.smi

> <i_m_source_file_index>
2044

> <i_lp_mmshare_version>
43012

> <i_f3d_flags>
0

> <s_epik_input>
W0NIM11jMVtjSF1jKG5vMSlbTkhdQyg9TylbTkhdW0NIMl1bQ0BIXShbQ0gzXSlOMltDSDJdW0NIMl1PW0NIMl1bQ0gyXTI=

> <s_epik_cmdline>
J2VwaWtfcHl0aG9uJywgJy1waCcsICc3LjAnLCAnLXRuJywgJzgnLCAnLW1hJywgJzIwMCcsICctbWV0YWxfYmluZGluZycsICctaW1hZScsICc8aW5maWxlLm1hZT4nLCAnLW9tYWUnLCAnPG91dGZpbGUubWFlPic=

> <r_epik_Ionization_Penalty>
0.214073

> <r_epik_Ionization_Penalty_Charging>
0

> <r_epik_Ionization_Penalty_Neutral>
0.214073

> <r_epik_State_Penalty>
0.204211

> <r_epik_Charging_Adjusted_Penalty>
0.204211

> <i_epik_Tot_Q>
0

> <i_epik_Tot_abs_Q>
0

> <r_epik_Metal_State_Penalty>
0.217151

> <b_epik_Metal_Only>
0

> <s_lp_Force_Field>
OPLS_2005

> <r_lp_Energy>
29.787

> <b_lp_Chiralities_Consistent>
1

> <s_lp_Variant>
AV-unprocessed.smi:2044-1

> <Gold.Version>
5.8.1

> <Gold.Id.Protein>
6NUR|6NUR_protein|mol2

> <Gold.PLP.Fitness>
35.7081

> <Gold.PLP.PLP>
-28.0136

> <Gold.PLP.part.hbond>
-3.0000

> <Gold.PLP.part.metal>
0.0000

> <Gold.PLP.part.buried>
1.2286

> <Gold.PLP.part.nonpolar>
-26.8098

> <Gold.PLP.part.repulsive>
0.7793

> <Gold.PLP.ligand.clash>
0.0000

> <Gold.PLP.ligand.torsion>
0.4734

> <Gold.PLP.Chemscore.Hbond>
2.8640

> <Gold.PLP.Chemscore.CHOScore>
0.0000

> <Gold.PLP.Chemscore.Metal>
0.0000

> <Gold.Chemscore.Hbonds>
donor molecule, donor type, donor heavy atom, donor atom, acceptor molecule, acceptor atom, score
      L1  H     5    24       P1  7948  1.00
      L1  H     8    25       P1  7948  0.76
      P1  H  7989  7998       L1    15  1.00

> <Gold.PLP.Chemscore.Internal.Correction>
0.0492

> <Gold.Rescore>
     Score         DG    S(hbond)    S(metal)    S(lipo)     H(rot)  DE(clash)    DE(int)     intcor
     14.77     -18.33       2.58        0.00      70.72       1.58       1.60       1.96       ----

> <Gold.Chemscore.Fitness>
14.7716

> <Gold.Chemscore.DG>
-18.3309

> <Gold.Chemscore.ZeroCoef>
-5.4800

> <Gold.Chemscore.Hbond>
2.5779

> <Gold.Chemscore.Metal>
0.0000

> <Gold.Chemscore.Lipo>
70.7153

> <Gold.Chemscore.Internal_Hbond>
0.0000

> <Gold.Chemscore.DEClash>
1.6013

> <Gold.Chemscore.DEInternal>
1.9580

> <Gold.Chemscore.Rot>
1.5753

> <Gold.Chemscore.Internal.Correction>
   9.000000E+99

> <Gold.Chemscore.Hbonds>
donor molecule, donor type, donor heavy atom, donor atom, acceptor molecule, acceptor atom, score
      L1  H     5    24       P1  7948  0.94
      L1  H     8    25       P1  7948  0.72
      P1  H  7989  7998       L1    15  0.45

> <Gold.Chemscore.Hbond.Weighted>
-8.6101

> <Gold.Chemscore.Metal.Weighted>
-0.0000

> <Gold.Chemscore.Lipo.Weighted>
-8.2737

> <Gold.Chemscore.Internal_Hbond.Weighted>
0.0000

> <Gold.Chemscore.DEClash.Weighted>
1.6013

> <Gold.Chemscore.DEInternal.Weighted>
1.9580

> <Gold.Chemscore.Rot.Weighted>
4.0329

> <Gold.Chemscore.Internal.Correction.Weighted>
   9.000000E+99

> <Gold.Protein.RotatedTorsions>
[ 6907 6896 6895 6894 ] final   63.98 input  -60.11 | X-H torsion
[ 7974 7965 7964 7962 ] final  -96.90 input  175.53 | X-H torsion
[ 8008 7997 7996 7995 ] final -136.28 input   59.86 | X-H torsion
[ 10167 10162 10161 10158 ] final   70.76 input  -65.29 | X-H torsion
[ 10718 10713 10712 10709 ] final  -78.96 input   66.30 | X-H torsion
[ 10763 10752 10751 10750 ] final  128.00 input  -60.55 | X-H torsion
[ 11005 11000 10999 10996 ] final  131.34 input  -57.11 | X-H torsion

> <Gold.Protein.ActiveResidues>
 VAL166  LYS551  ARG553  GLY616  TRP617  ASP618  TYR619  PRO620  LYS621  CYS622 
 ASP623  PHE694  ASN695  SER759  ASP760  ASP761  ALA762  ILE779  LEU786  VAL792 
 PHE793  MET794  SER795  GLU796  ALA797  LYS798  CYS799  TRP800  GLU811  SER814 

> <Gold.Protein.RotatedAtoms>
  152.4296  134.5804  159.9945 H   0  0  0  0  0  0  0  0  0  0  0  0  # atno 6907 bound_to 6896
  151.5931  133.3358  159.3039 H   0  0  0  0  0  0  0  0  0  0  0  0  # atno 6908 bound_to 6896
  150.8187  134.7420  159.6818 H   0  0  0  0  0  0  0  0  0  0  0  0  # atno 6909 bound_to 6896
  145.3408  140.9459  143.2609 H   0  0  0  0  0  0  0  0  0  0  0  0  # atno 7974 bound_to 7965
  155.3927  140.0501  157.3040 H   0  0  0  0  0  0  0  0  0  0  0  0  # atno 8008 bound_to 7997
  154.5028  140.2163  155.9272 H   0  0  0  0  0  0  0  0  0  0  0  0  # atno 8009 bound_to 7997
  156.1489  140.3140  155.8621 H   0  0  0  0  0  0  0  0  0  0  0  0  # atno 8010 bound_to 7997
  140.0535  144.5292  150.7346 H   0  0  0  0  0  0  0  0  0  0  0  0  # atno 10167 bound_to 10162
  156.0104  130.4532  150.3576 H   0  0  0  0  0  0  0  0  0  0  0  0  # atno 10718 bound_to 10713
  153.7186  135.3257  155.3261 H   0  0  0  0  0  0  0  0  0  0  0  0  # atno 10763 bound_to 10752
  154.8363  135.4494  154.1241 H   0  0  0  0  0  0  0  0  0  0  0  0  # atno 10764 bound_to 10752
  153.2355  135.6965  153.7921 H   0  0  0  0  0  0  0  0  0  0  0  0  # atno 10765 bound_to 10752
  139.9725  134.9573  156.9424 H   0  0  0  0  0  0  0  0  0  0  0  0  # atno 11005 bound_to 11000
  144.8791  139.4929  143.6731 LP  0  0  0  0  0  0  0  0  0  0  0  0  # atno 17320 bound_to 7965
  146.3008  139.7420  142.9093 LP  0  0  0  0  0  0  0  0  0  0  0  0  # atno 17321 bound_to 7965
  140.7205  143.2585  151.4292 LP  0  0  0  0  0  0  0  0  0  0  0  0  # atno 17342 bound_to 10162
  139.5938  144.1441  152.2120 LP  0  0  0  0  0  0  0  0  0  0  0  0  # atno 17343 bound_to 10162
  157.1666  131.0358  151.2815 LP  0  0  0  0  0  0  0  0  0  0  0  0  # atno 17370 bound_to 10713
  157.4265  130.7467  149.6955 LP  0  0  0  0  0  0  0  0  0  0  0  0  # atno 17371 bound_to 10713
  140.5264  134.0856  155.7305 LP  0  0  0  0  0  0  0  0  0  0  0  0  # atno 17394 bound_to 11000
  141.1403  133.9149  157.2340 LP  0  0  0  0  0  0  0  0  0  0  0  0  # atno 17395 bound_to 11000

$$$$
