AV-unprocessed.smi:656|AV-procd|sdf|3219|dock2
  -GOLD-   22720 0153D 1   1.00000     0.00000
 Structure written by MMmdl.
 41 42  0  0  0  0  0  0  0  0  2 V2000
  150.4244  133.7238  155.3698 C   0  0  0  0  0  0  0  0  0  0  0  0
  149.2245  134.1042  154.4955 C   0  0  0  0  0  0  0  0  0  0  0  0
  148.5144  135.3729  154.9991 C   0  0  0  0  0  0  0  0  0  0  0  0
  149.1034  136.6178  154.4430 N   0  3  2  0  0  0  0  0  0  0  0  0
  150.5319  136.7758  154.8211 C   0  0  0  0  0  0  0  0  0  0  0  0
  151.1659  137.9991  154.1331 C   0  0  0  0  0  0  0  0  0  0  0  0
  150.3839  139.2922  154.4199 C   0  0  2  0  0  0  0  0  0  0  0  0
  150.5700  139.7051  155.8110 N   0  0  0  0  0  0  0  0  0  0  0  0
  151.7519  139.8185  156.4351 C   0  0  0  0  0  0  0  0  0  0  0  0
  152.8313  139.5923  155.8880 O   0  0  0  0  0  0  0  0  0  0  0  0
  151.5926  140.2049  157.7127 N   0  0  0  0  0  0  0  0  0  0  0  0
  152.5993  140.4627  158.6799 C   0  0  0  0  0  0  0  0  0  0  0  0
  152.2493  141.3906  159.6840 C   0  0  0  0  0  0  0  0  0  0  0  0
  153.2023  141.6966  160.6705 C   0  0  0  0  0  0  0  0  0  0  0  0
  154.4472  141.0503  160.5846 C   0  0  0  0  0  0  0  0  0  0  0  0
  154.7395  140.1674  159.6051 N   0  0  0  0  0  0  0  0  0  0  0  0
  153.8274  139.8812  158.6695 N   0  0  0  0  0  0  0  0  0  0  0  0
  148.8971  139.0793  154.0735 C   0  0  0  0  0  0  0  0  0  0  0  0
  148.3147  137.8361  154.7684 C   0  0  0  0  0  0  0  0  0  0  0  0
  150.9081  132.8219  154.9938 H   0  0  0  0  0  0  0  0  0  0  0  0
  150.1174  133.5324  156.3984 H   0  0  0  0  0  0  0  0  0  0  0  0
  151.1705  134.5189  155.3848 H   0  0  0  0  0  0  0  0  0  0  0  0
  149.5637  134.2568  153.4701 H   0  0  0  0  0  0  0  0  0  0  0  0
  148.5350  133.2610  154.4714 H   0  0  0  0  0  0  0  0  0  0  0  0
  147.4467  135.3348  154.7767 H   0  0  0  0  0  0  0  0  0  0  0  0
  148.6007  135.3941  156.0866 H   0  0  0  0  0  0  0  0  0  0  0  0
  150.6142  136.8638  155.9057 H   0  0  0  0  0  0  0  0  0  0  0  0
  151.0887  135.8824  154.5355 H   0  0  0  0  0  0  0  0  0  0  0  0
  152.2055  138.1080  154.4445 H   0  0  0  0  0  0  0  0  0  0  0  0
  151.1898  137.8278  153.0561 H   0  0  0  0  0  0  0  0  0  0  0  0
  150.7862  140.0808  153.7812 H   0  0  0  0  0  0  0  0  0  0  0  0
  149.7354  139.9044  156.3427 H   0  0  0  0  0  0  0  0  0  0  0  0
  150.6437  140.3376  158.0294 H   0  0  0  0  0  0  0  0  0  0  0  0
  151.2757  141.8587  159.7010 H   0  0  0  0  0  0  0  0  0  0  0  0
  152.9874  142.3994  161.4617 H   0  0  0  0  0  0  0  0  0  0  0  0
  155.2218  141.2437  161.3118 H   0  0  0  0  0  0  0  0  0  0  0  0
  148.3092  139.9609  154.3313 H   0  0  0  0  0  0  0  0  0  0  0  0
  148.7972  138.9610  152.9937 H   0  0  0  0  0  0  0  0  0  0  0  0
  147.2802  137.7150  154.4499 H   0  0  0  0  0  0  0  0  0  0  0  0
  148.2940  137.9824  155.8495 H   0  0  0  0  0  0  0  0  0  0  0  0
  149.0888  136.5165  153.4381 H   0  0  0  0  0  0  0  0  0  0  0  0
  1  2  1  0  0  0  0
  1 20  1  0  0  0  0
  1 21  1  0  0  0  0
  1 22  1  0  0  0  0
  2  3  1  0  0  0  0
  2 23  1  0  0  0  0
  2 24  1  0  0  0  0
  3  4  1  0  0  0  0
  3 25  1  0  0  0  0
  3 26  1  0  0  0  0
  4 19  1  0  0  0  0
  4  5  1  0  0  0  0
  4 41  1  0  0  0  0
  5  6  1  0  0  0  0
  5 27  1  0  0  0  0
  5 28  1  0  0  0  0
  6  7  1  0  0  0  0
  6 29  1  0  0  0  0
  6 30  1  0  0  0  0
  7  8  1  0  0  0  0
  7 18  1  0  0  0  0
  7 31  1  0  0  0  0
  8  9  1  0  0  0  0
  8 32  1  0  0  0  0
  9 10  2  0  0  0  0
  9 11  1  0  0  0  0
 11 12  1  0  0  0  0
 11 33  1  0  0  0  0
 12 17  1  0  0  0  0
 12 13  2  0  0  0  0
 13 14  1  0  0  0  0
 13 34  1  0  0  0  0
 14 15  2  0  0  0  0
 14 35  1  0  0  0  0
 15 16  1  0  0  0  0
 15 36  1  0  0  0  0
 16 17  2  0  0  0  0
 18 19  1  0  0  0  0
 18 37  1  0  0  0  0
 18 38  1  0  0  0  0
 19 39  1  0  0  0  0
 19 40  1  0  0  0  0
M  CHG  1   4   1
M  END
> <s_m_source_file>
AV-unprocessed.smi

> <i_m_source_file_index>
656

> <i_lp_mmshare_version>
43012

> <i_f3d_flags>
0

> <s_epik_input>
W0NIM11bQ0gyXVtDSDJdTjFbQ0gyXVtDSDJdW0NIXShbQ0gyXVtDSDJdMSlbTkhdQyg9TylbTkhdYzJbY0hdW2NIXVtjSF1ubjI=

> <s_epik_cmdline>
J2VwaWtfcHl0aG9uJywgJy1waCcsICc3LjAnLCAnLXRuJywgJzgnLCAnLW1hJywgJzIwMCcsICctbWV0YWxfYmluZGluZycsICctaW1hZScsICc8aW5maWxlLm1hZT4nLCAnLW9tYWUnLCAnPG91dGZpbGUubWFlPic=

> <r_lp_tautomer_probability>
1

> <r_epik_Ionization_Penalty>
0.00614766

> <r_epik_Ionization_Penalty_Charging>
0.00269617

> <r_epik_Ionization_Penalty_Neutral>
0.00345149

> <r_epik_State_Penalty>
-0

> <r_epik_Charging_Adjusted_Penalty>
0.00269617

> <i_epik_Tot_Q>
1

> <i_epik_Tot_abs_Q>
1

> <r_epik_Metal_State_Penalty>
-0

> <b_epik_Metal_Only>
0

> <s_lp_Force_Field>
OPLS_2005

> <r_lp_Energy>
22.9398

> <b_lp_Chiralities_Consistent>
1

> <s_lp_Variant>
AV-unprocessed.smi:656-2

> <Gold.Version>
5.8.1

> <Gold.Id.Protein>
6NUR|6NUR_protein|mol2

> <Gold.PLP.Fitness>
41.7334

> <Gold.PLP.PLP>
-33.5459

> <Gold.PLP.part.hbond>
-3.4936

> <Gold.PLP.part.metal>
0.0000

> <Gold.PLP.part.buried>
-2.0295

> <Gold.PLP.part.nonpolar>
-26.9875

> <Gold.PLP.part.repulsive>
0.1360

> <Gold.PLP.ligand.clash>
0.0000

> <Gold.PLP.ligand.torsion>
0.4195

> <Gold.PLP.Chemscore.Hbond>
3.0000

> <Gold.PLP.Chemscore.CHOScore>
0.0000

> <Gold.PLP.Chemscore.Metal>
0.0000

> <Gold.Chemscore.Hbonds>
donor molecule, donor type, donor heavy atom, donor atom, acceptor molecule, acceptor atom, score
      L1  H     4    41       P1  7948  2.00
      P1  H  7997  8008       L1    10  1.00

> <Gold.PLP.Chemscore.Internal.Correction>
0.0265

> <Gold.Rescore>
     Score         DG    S(hbond)    S(metal)    S(lipo)     H(rot)  DE(clash)    DE(int)     intcor
     14.50     -17.06       1.99        0.00      73.88       1.45       0.02       2.53       ----

> <Gold.Chemscore.Fitness>
14.5036

> <Gold.Chemscore.DG>
-17.0555

> <Gold.Chemscore.ZeroCoef>
-5.4800

> <Gold.Chemscore.Hbond>
1.9905

> <Gold.Chemscore.Metal>
0.0000

> <Gold.Chemscore.Lipo>
73.8794

> <Gold.Chemscore.Internal_Hbond>
0.0000

> <Gold.Chemscore.DEClash>
0.0244

> <Gold.Chemscore.DEInternal>
2.5275

> <Gold.Chemscore.Rot>
1.4518

> <Gold.Chemscore.Internal.Correction>
   9.000000E+99

> <Gold.Chemscore.Hbonds>
donor molecule, donor type, donor heavy atom, donor atom, acceptor molecule, acceptor atom, score
      L1  H     4    41       P1  7948  0.97
      P1  H  7997  8008       L1    10  0.99

> <Gold.Chemscore.Hbond.Weighted>
-6.6481

> <Gold.Chemscore.Metal.Weighted>
-0.0000

> <Gold.Chemscore.Lipo.Weighted>
-8.6439

> <Gold.Chemscore.Internal_Hbond.Weighted>
0.0000

> <Gold.Chemscore.DEClash.Weighted>
0.0244

> <Gold.Chemscore.DEInternal.Weighted>
2.5275

> <Gold.Chemscore.Rot.Weighted>
3.7165

> <Gold.Chemscore.Internal.Correction.Weighted>
   9.000000E+99

> <Gold.Protein.RotatedTorsions>
[ 6907 6896 6895 6894 ] final  122.95 input  -60.11 | X-H torsion
[ 7974 7965 7964 7962 ] final  -19.54 input  175.53 | X-H torsion
[ 8008 7997 7996 7995 ] final  -47.99 input   59.86 | X-H torsion
[ 10167 10162 10161 10158 ] final  154.19 input  -65.29 | X-H torsion
[ 10718 10713 10712 10709 ] final   28.42 input   66.30 | X-H torsion
[ 10763 10752 10751 10750 ] final  -18.09 input  -60.55 | X-H torsion
[ 11005 11000 10999 10996 ] final   -7.77 input  -57.11 | X-H torsion

> <Gold.Protein.ActiveResidues>
 VAL166  LYS551  ARG553  GLY616  TRP617  ASP618  TYR619  PRO620  LYS621  CYS622 
 ASP623  PHE694  ASN695  SER759  ASP760  ASP761  ALA762  ILE779  LEU786  VAL792 
 PHE793  MET794  SER795  GLU796  ALA797  LYS798  CYS799  TRP800  GLU811  SER814 

> <Gold.Protein.RotatedAtoms>
  152.4201  133.7103  159.6474 H   0  0  0  0  0  0  0  0  0  0  0  0  # atno 6907 bound_to 6896
  150.8077  133.8468  159.3203 H   0  0  0  0  0  0  0  0  0  0  0  0  # atno 6908 bound_to 6896
  151.6187  135.1036  160.0148 H   0  0  0  0  0  0  0  0  0  0  0  0  # atno 6909 bound_to 6896
  146.1836  140.4077  142.8485 H   0  0  0  0  0  0  0  0  0  0  0  0  # atno 7974 bound_to 7965
  154.4023  140.1332  156.4266 H   0  0  0  0  0  0  0  0  0  0  0  0  # atno 8008 bound_to 7997
  155.7591  140.3486  155.5169 H   0  0  0  0  0  0  0  0  0  0  0  0  # atno 8009 bound_to 7997
  155.8876  140.0998  157.1432 H   0  0  0  0  0  0  0  0  0  0  0  0  # atno 8010 bound_to 7997
  139.4824  144.5208  151.7879 H   0  0  0  0  0  0  0  0  0  0  0  0  # atno 10167 bound_to 10162
  157.2333  130.7034  149.6323 H   0  0  0  0  0  0  0  0  0  0  0  0  # atno 10718 bound_to 10713
  153.5838  135.7004  153.5452 H   0  0  0  0  0  0  0  0  0  0  0  0  # atno 10763 bound_to 10752
  153.3237  135.4067  155.1438 H   0  0  0  0  0  0  0  0  0  0  0  0  # atno 10764 bound_to 10752
  154.8613  135.3702  154.5367 H   0  0  0  0  0  0  0  0  0  0  0  0  # atno 10765 bound_to 10752
  140.7163  133.8866  155.8787 H   0  0  0  0  0  0  0  0  0  0  0  0  # atno 11005 bound_to 11000
  144.8357  140.6778  143.6262 LP  0  0  0  0  0  0  0  0  0  0  0  0  # atno 17320 bound_to 7965
  145.4005  139.1598  143.4180 LP  0  0  0  0  0  0  0  0  0  0  0  0  # atno 17321 bound_to 7965
  140.4722  144.1571  150.5919 LP  0  0  0  0  0  0  0  0  0  0  0  0  # atno 17342 bound_to 10162
  140.4370  143.2543  151.9522 LP  0  0  0  0  0  0  0  0  0  0  0  0  # atno 17343 bound_to 10162
  155.9674  130.4482  150.5609 LP  0  0  0  0  0  0  0  0  0  0  0  0  # atno 17370 bound_to 10713
  157.3456  131.0724  151.1754 LP  0  0  0  0  0  0  0  0  0  0  0  0  # atno 17371 bound_to 10713
  141.0042  134.1109  157.4287 LP  0  0  0  0  0  0  0  0  0  0  0  0  # atno 17394 bound_to 11000
  139.8859  135.0076  156.6464 LP  0  0  0  0  0  0  0  0  0  0  0  0  # atno 17395 bound_to 11000

$$$$
