AV-unprocessed.smi:263|AV-procd|sdf|2003|dock4
  -GOLD-   2262021193D 1   1.00000     0.00000
 Structure written by MMmdl.
 57 61  0  0  0  0  0  0  0  0  1 V2000
  149.0246  133.8898  158.1994 O   0  0  0  0  0  0  0  0  0  0  0  0
  149.1805  133.8535  156.7909 C   0  0  0  0  0  0  0  0  0  0  0  0
  150.5907  134.4041  156.4624 C   0  0  0  0  0  0  0  0  0  0  0  0
  150.7413  135.8276  156.7232 N   0  0  0  0  0  0  0  0  0  0  0  0
  150.5450  136.4744  157.9223 C   0  0  0  0  0  0  0  0  0  0  0  0
  150.7497  137.7633  157.8991 N   0  0  0  0  0  0  0  0  0  0  0  0
  151.1157  138.0267  156.5841 C   0  0  0  0  0  0  0  0  0  0  0  0
  151.4738  139.2058  155.8708 C   0  0  0  0  0  0  0  0  0  0  0  0
  151.5447  140.4276  156.4591 N   0  0  0  0  0  0  0  0  0  0  0  0
  150.6952  141.4451  155.8400 C   0  0  0  0  0  0  0  0  0  0  0  0
  151.0839  142.8611  156.3070 C   0  0  0  0  0  0  0  0  0  0  0  0
  151.1218  142.9734  157.8457 C   0  0  2  0  0  0  0  0  0  0  0  0
  149.7944  142.8086  158.3188 O   0  0  0  0  0  0  0  0  0  0  0  0
  151.6133  144.3640  158.3066 C   0  0  0  0  0  0  0  0  0  0  0  0
  151.7620  144.4536  159.8375 C   0  0  0  0  0  0  0  0  0  0  0  0
  152.6618  143.3343  160.3855 C   0  0  0  0  0  0  0  0  0  0  0  0
  152.1650  141.9468  159.9467 C   0  0  0  0  0  0  0  0  0  0  0  0
  152.0437  141.8628  158.4127 C   0  0  1  0  0  0  0  0  0  0  0  0
  151.6103  140.4684  157.9218 C   0  0  0  0  0  0  0  0  0  0  0  0
  151.7575  139.0724  154.5468 N   0  0  0  0  0  0  0  0  0  0  0  0
  151.7046  137.8724  153.9614 C   0  0  0  0  0  0  0  0  0  0  0  0
  151.3946  136.6933  154.5028 N   0  0  0  0  0  0  0  0  0  0  0  0
  151.1026  136.8200  155.8288 C   0  0  0  0  0  0  0  0  0  0  0  0
  148.9826  132.3962  156.3173 C   0  0  0  0  0  0  0  0  0  0  0  0
  147.5229  131.9317  156.4643 C   0  0  0  0  0  0  0  0  0  0  0  0
  146.6546  132.8234  155.7759 O   0  0  0  0  0  0  0  0  0  0  0  0
  146.6840  134.1399  156.3133 C   0  0  0  0  0  0  0  0  0  0  0  0
  148.0917  134.7430  156.1566 C   0  0  0  0  0  0  0  0  0  0  0  0
  148.2991  134.4586  158.4066 H   0  0  0  0  0  0  0  0  0  0  0  0
  151.3419  133.8743  157.0499 H   0  0  0  0  0  0  0  0  0  0  0  0
  150.8406  134.2180  155.4169 H   0  0  0  0  0  0  0  0  0  0  0  0
  150.2477  135.9559  158.8223 H   0  0  0  0  0  0  0  0  0  0  0  0
  150.7536  141.4024  154.7530 H   0  0  0  0  0  0  0  0  0  0  0  0
  149.6567  141.2366  156.0998 H   0  0  0  0  0  0  0  0  0  0  0  0
  152.0665  143.1058  155.9014 H   0  0  0  0  0  0  0  0  0  0  0  0
  150.3917  143.5923  155.8876 H   0  0  0  0  0  0  0  0  0  0  0  0
  149.2304  143.3914  157.8340 H   0  0  0  0  0  0  0  0  0  0  0  0
  152.5805  144.5755  157.8487 H   0  0  0  0  0  0  0  0  0  0  0  0
  150.9355  145.1430  157.9547 H   0  0  0  0  0  0  0  0  0  0  0  0
  152.1722  145.4256  160.1129 H   0  0  0  0  0  0  0  0  0  0  0  0
  150.7799  144.3938  160.3079 H   0  0  0  0  0  0  0  0  0  0  0  0
  153.6830  143.4836  160.0324 H   0  0  0  0  0  0  0  0  0  0  0  0
  152.7007  143.3881  161.4738 H   0  0  0  0  0  0  0  0  0  0  0  0
  152.8544  141.1829  160.3077 H   0  0  0  0  0  0  0  0  0  0  0  0
  151.2018  141.7356  160.4126 H   0  0  0  0  0  0  0  0  0  0  0  0
  153.0444  142.0357  158.0118 H   0  0  0  0  0  0  0  0  0  0  0  0
  150.6376  140.2040  158.3390 H   0  0  0  0  0  0  0  0  0  0  0  0
  152.3247  139.7241  158.2766 H   0  0  0  0  0  0  0  0  0  0  0  0
  151.9477  137.8542  152.9092 H   0  0  0  0  0  0  0  0  0  0  0  0
  149.2658  132.3189  155.2669 H   0  0  0  0  0  0  0  0  0  0  0  0
  149.6377  131.7158  156.8629 H   0  0  0  0  0  0  0  0  0  0  0  0
  147.4067  130.9336  156.0418 H   0  0  0  0  0  0  0  0  0  0  0  0
  147.2358  131.8637  157.5147 H   0  0  0  0  0  0  0  0  0  0  0  0
  145.9562  134.7511  155.7795 H   0  0  0  0  0  0  0  0  0  0  0  0
  146.3754  134.1254  157.3597 H   0  0  0  0  0  0  0  0  0  0  0  0
  148.1188  135.7466  156.5831 H   0  0  0  0  0  0  0  0  0  0  0  0
  148.2972  134.8598  155.0916 H   0  0  0  0  0  0  0  0  0  0  0  0
  1  2  1  0  0  0  0
  1 29  1  0  0  0  0
  2 28  1  0  0  0  0
  2  3  1  0  0  0  0
  2 24  1  0  0  0  0
  3  4  1  0  0  0  0
  3 30  1  0  0  0  0
  3 31  1  0  0  0  0
  4 23  1  0  0  0  0
  4  5  1  0  0  0  0
  5  6  2  0  0  0  0
  5 32  1  0  0  0  0
  6  7  1  0  0  0  0
  7 23  2  0  0  0  0
  7  8  1  0  0  0  0
  8  9  1  0  0  0  0
  8 20  2  0  0  0  0
  9 19  1  0  0  0  0
  9 10  1  0  0  0  0
 10 11  1  0  0  0  0
 10 33  1  0  0  0  0
 10 34  1  0  0  0  0
 11 12  1  0  0  0  0
 11 35  1  0  0  0  0
 11 36  1  0  0  0  0
 12 18  1  0  0  0  0
 12 13  1  0  0  0  0
 12 14  1  0  0  0  0
 13 37  1  0  0  0  0
 14 15  1  0  0  0  0
 14 38  1  0  0  0  0
 14 39  1  0  0  0  0
 15 16  1  0  0  0  0
 15 40  1  0  0  0  0
 15 41  1  0  0  0  0
 16 17  1  0  0  0  0
 16 42  1  0  0  0  0
 16 43  1  0  0  0  0
 17 18  1  0  0  0  0
 17 44  1  0  0  0  0
 17 45  1  0  0  0  0
 18 19  1  0  0  0  0
 18 46  1  0  0  0  0
 19 47  1  0  0  0  0
 19 48  1  0  0  0  0
 20 21  1  0  0  0  0
 21 22  2  0  0  0  0
 21 49  1  0  0  0  0
 22 23  1  0  0  0  0
 24 25  1  0  0  0  0
 24 50  1  0  0  0  0
 24 51  1  0  0  0  0
 25 26  1  0  0  0  0
 25 52  1  0  0  0  0
 25 53  1  0  0  0  0
 26 27  1  0  0  0  0
 27 28  1  0  0  0  0
 27 54  1  0  0  0  0
 27 55  1  0  0  0  0
 28 56  1  0  0  0  0
 28 57  1  0  0  0  0
M  END
> <s_m_source_file>
AV-unprocessed.smi

> <i_m_source_file_index>
263

> <i_lp_mmshare_version>
43012

> <i_f3d_flags>
0

> <s_epik_input>
W0NIMl0xW0NIMl1PW0NIMl1bQ0gyXUMxKFtPSF0pW0NIMl1uKFtjSF1uMiljKGMyMyluW2NIXW5jM04oW0NIMl1bQ0gyXTQpW0NIMl1bQ0BASF0oW0NAXTQ1W09IXSlbQ0gyXVtDSDJdW0NIMl1bQ0gyXTU=

> <s_epik_cmdline>
J2VwaWtfcHl0aG9uJywgJy1waCcsICc3LjAnLCAnLXRuJywgJzgnLCAnLW1hJywgJzIwMCcsICctbWV0YWxfYmluZGluZycsICctaW1hZScsICc8aW5maWxlLm1hZT4nLCAnLW9tYWUnLCAnPG91dGZpbGUubWFlPic=

> <r_lp_tautomer_probability>
1

> <r_epik_Ionization_Penalty>
0.00747493

> <r_epik_Ionization_Penalty_Charging>
0

> <r_epik_Ionization_Penalty_Neutral>
0.00747493

> <r_epik_State_Penalty>
0.00549307

> <r_epik_Charging_Adjusted_Penalty>
0.00549307

> <i_epik_Tot_Q>
0

> <i_epik_Tot_abs_Q>
0

> <r_epik_Metal_State_Penalty>
-0

> <b_epik_Metal_Only>
0

> <s_lp_Force_Field>
OPLS_2005

> <r_lp_Energy>
38.6154

> <b_lp_Chiralities_Consistent>
1

> <s_lp_Variant>
AV-unprocessed.smi:263-1

> <Gold.Version>
5.8.1

> <Gold.Id.Protein>
6NUR|6NUR_protein|mol2

> <Gold.PLP.Fitness>
45.4545

> <Gold.PLP.PLP>
-36.8697

> <Gold.PLP.part.hbond>
-2.5969

> <Gold.PLP.part.metal>
0.0000

> <Gold.PLP.part.buried>
-4.4331

> <Gold.PLP.part.nonpolar>
-30.9089

> <Gold.PLP.part.repulsive>
0.2933

> <Gold.PLP.ligand.clash>
0.0000

> <Gold.PLP.ligand.torsion>
0.3038

> <Gold.PLP.Chemscore.Hbond>
2.0000

> <Gold.PLP.Chemscore.CHOScore>
0.9394

> <Gold.PLP.Chemscore.Metal>
0.0000

> <Gold.Chemscore.Hbonds>
donor molecule, donor type, donor heavy atom, donor atom, acceptor molecule, acceptor atom, score
      P1  H  6896  6909       L1     1  0.99
      P1  H  7989  7998       L1    20  0.91
      P1  H 10752 10764       L1    22  0.04
      L1  C    21    49       P1  7949  0.82

> <Gold.PLP.Chemscore.Internal.Correction>
0.3743

> <Gold.Rescore>
     Score         DG    S(hbond)    S(metal)    S(lipo)     H(rot)  DE(clash)    DE(int)     intcor
     14.39     -17.58       1.81        0.00     109.18       2.62       1.45       1.73       ----

> <Gold.Chemscore.Fitness>
14.3914

> <Gold.Chemscore.DG>
-17.5765

> <Gold.Chemscore.ZeroCoef>
-5.4800

> <Gold.Chemscore.Hbond>
1.8077

> <Gold.Chemscore.Metal>
0.0000

> <Gold.Chemscore.Lipo>
109.1815

> <Gold.Chemscore.Internal_Hbond>
0.0000

> <Gold.Chemscore.DEClash>
1.4546

> <Gold.Chemscore.DEInternal>
1.7305

> <Gold.Chemscore.Rot>
2.6232

> <Gold.Chemscore.Internal.Correction>
   9.000000E+99

> <Gold.Chemscore.Hbonds>
donor molecule, donor type, donor heavy atom, donor atom, acceptor molecule, acceptor atom, score
      P1  H  6896  6909       L1     1  0.78
      P1  H  7989  7998       L1    20  0.73

> <Gold.Chemscore.Hbond.Weighted>
-6.0377

> <Gold.Chemscore.Metal.Weighted>
-0.0000

> <Gold.Chemscore.Lipo.Weighted>
-12.7742

> <Gold.Chemscore.Internal_Hbond.Weighted>
0.0000

> <Gold.Chemscore.DEClash.Weighted>
1.4546

> <Gold.Chemscore.DEInternal.Weighted>
1.7305

> <Gold.Chemscore.Rot.Weighted>
6.7155

> <Gold.Chemscore.Internal.Correction.Weighted>
   9.000000E+99

> <Gold.Protein.RotatedTorsions>
[ 6907 6896 6895 6894 ] final   27.62 input  -60.11 | X-H torsion
[ 7974 7965 7964 7962 ] final  -20.46 input  175.53 | X-H torsion
[ 8008 7997 7996 7995 ] final   42.60 input   59.86 | X-H torsion
[ 10167 10162 10161 10158 ] final  114.09 input  -65.29 | X-H torsion
[ 10718 10713 10712 10709 ] final   -3.01 input   66.30 | X-H torsion
[ 10763 10752 10751 10750 ] final  -20.37 input  -60.55 | X-H torsion
[ 11005 11000 10999 10996 ] final -165.70 input  -57.11 | X-H torsion

> <Gold.Protein.ActiveResidues>
 VAL166  LYS551  ARG553  GLY616  TRP617  ASP618  TYR619  PRO620  LYS621  CYS622 
 ASP623  PHE694  ASN695  SER759  ASP760  ASP761  ALA762  ILE779  LEU786  VAL792 
 PHE793  MET794  SER795  GLU796  ALA797  LYS798  CYS799  TRP800  GLU811  SER814 

> <Gold.Protein.RotatedAtoms>
  152.0049  134.9908  160.0566 H   0  0  0  0  0  0  0  0  0  0  0  0  # atno 6907 bound_to 6896
  152.1484  133.4502  159.4809 H   0  0  0  0  0  0  0  0  0  0  0  0  # atno 6908 bound_to 6896
  150.6873  134.2137  159.4412 H   0  0  0  0  0  0  0  0  0  0  0  0  # atno 6909 bound_to 6896
  146.1787  140.4205  142.8503 H   0  0  0  0  0  0  0  0  0  0  0  0  # atno 7974 bound_to 7965
  155.2889  140.3377  155.4253 H   0  0  0  0  0  0  0  0  0  0  0  0  # atno 8008 bound_to 7997
  156.2055  140.1749  156.7848 H   0  0  0  0  0  0  0  0  0  0  0  0  # atno 8009 bound_to 7997
  154.5615  140.0686  156.8811 H   0  0  0  0  0  0  0  0  0  0  0  0  # atno 8010 bound_to 7997
  139.6413  144.7124  151.2230 H   0  0  0  0  0  0  0  0  0  0  0  0  # atno 10167 bound_to 10162
  156.7824  130.5335  149.5749 H   0  0  0  0  0  0  0  0  0  0  0  0  # atno 10718 bound_to 10713
  153.6193  135.6993  153.5316 H   0  0  0  0  0  0  0  0  0  0  0  0  # atno 10763 bound_to 10752
  153.2951  135.4145  155.1201 H   0  0  0  0  0  0  0  0  0  0  0  0  # atno 10764 bound_to 10752
  154.8546  135.3635  154.5734 H   0  0  0  0  0  0  0  0  0  0  0  0  # atno 10765 bound_to 10752
  140.5727  134.5221  157.5165 H   0  0  0  0  0  0  0  0  0  0  0  0  # atno 11005 bound_to 11000
  144.8278  140.6658  143.6310 LP  0  0  0  0  0  0  0  0  0  0  0  0  # atno 17320 bound_to 7965
  145.4138  139.1575  143.4111 LP  0  0  0  0  0  0  0  0  0  0  0  0  # atno 17321 bound_to 7965
  140.7492  143.6306  150.8426 LP  0  0  0  0  0  0  0  0  0  0  0  0  # atno 17342 bound_to 10162
  139.9944  143.5812  152.2898 LP  0  0  0  0  0  0  0  0  0  0  0  0  # atno 17343 bound_to 10162
  156.1209  130.6109  151.0192 LP  0  0  0  0  0  0  0  0  0  0  0  0  # atno 17370 bound_to 10713
  157.6640  131.0875  150.7773 LP  0  0  0  0  0  0  0  0  0  0  0  0  # atno 17371 bound_to 10713
  139.9354  134.7885  156.0817 LP  0  0  0  0  0  0  0  0  0  0  0  0  # atno 17394 bound_to 11000
  141.1046  133.6665  156.2833 LP  0  0  0  0  0  0  0  0  0  0  0  0  # atno 17395 bound_to 11000

$$$$
