AV-unprocessed.smi:3232|AV-procd|sdf|12341|dock9
  -GOLD-   2272018203D 1   1.00000     0.00000
 Structure written by MMmdl.
 40 41  0  0  0  0  0  0  0  0  2 V2000
  153.2579  140.8581  160.6969 C   0  0  0  0  0  0  0  0  0  0  0  0
  152.0452  141.2616  159.8465 C   0  0  0  0  0  0  0  0  0  0  0  0
  152.2168  142.5945  159.2168 N   0  3  2  0  0  0  0  0  0  0  0  0
  152.5468  143.6866  160.1601 C   0  0  0  0  0  0  0  0  0  0  0  0
  152.0412  144.9859  159.5173 C   0  0  0  0  0  0  0  0  0  0  0  0
  151.5308  144.5686  158.1386 C   0  0  0  0  0  0  0  0  0  0  0  0
  151.1465  143.0940  158.3168 C   0  0  2  0  0  0  0  0  0  0  0  0
  149.7181  142.8909  158.8895 C   0  0  0  0  0  0  0  0  0  0  0  0
  148.6965  142.8858  157.8465 N   0  0  0  0  0  0  0  0  0  0  0  0
  147.4306  142.4643  157.9988 C   0  0  0  0  0  0  0  0  0  0  0  0
  146.9857  142.0440  159.0674 O   0  0  0  0  0  0  0  0  0  0  0  0
  146.5338  142.5339  156.7541 C   0  0  2  0  0  0  0  0  0  0  0  0
  145.0752  142.1425  157.0656 C   0  0  0  0  0  0  0  0  0  0  0  0
  147.1077  141.7345  155.6786 N   0  0  0  0  0  0  0  0  0  0  0  0
  147.3330  140.4203  155.6150 C   0  0  0  0  0  0  0  0  0  0  0  0
  147.8263  140.0127  154.4541 N   0  0  0  0  0  0  0  0  0  0  0  0
  147.8731  141.2081  153.7946 C   0  0  0  0  0  0  0  0  0  0  0  0
  147.4435  142.2689  154.4777 N   0  0  0  0  0  0  0  0  0  0  0  0
  153.0715  139.9133  161.2079 H   0  0  0  0  0  0  0  0  0  0  0  0
  153.4718  141.6081  161.4590 H   0  0  0  0  0  0  0  0  0  0  0  0
  154.1546  140.7304  160.0906 H   0  0  0  0  0  0  0  0  0  0  0  0
  151.8226  140.4998  159.0988 H   0  0  0  0  0  0  0  0  0  0  0  0
  151.1710  141.3078  160.4972 H   0  0  0  0  0  0  0  0  0  0  0  0
  152.0535  143.5308  161.1210 H   0  0  0  0  0  0  0  0  0  0  0  0
  153.6224  143.7110  160.3364 H   0  0  0  0  0  0  0  0  0  0  0  0
  151.2224  145.3981  160.1090 H   0  0  0  0  0  0  0  0  0  0  0  0
  152.8179  145.7484  159.4519 H   0  0  0  0  0  0  0  0  0  0  0  0
  150.7288  145.2075  157.7715 H   0  0  0  0  0  0  0  0  0  0  0  0
  152.3476  144.6416  157.4189 H   0  0  0  0  0  0  0  0  0  0  0  0
  151.2153  142.5773  157.3586 H   0  0  0  0  0  0  0  0  0  0  0  0
  149.6426  141.9233  159.3843 H   0  0  0  0  0  0  0  0  0  0  0  0
  149.4954  143.6374  159.6539 H   0  0  0  0  0  0  0  0  0  0  0  0
  148.9762  143.2165  156.9341 H   0  0  0  0  0  0  0  0  0  0  0  0
  146.5207  143.5691  156.4082 H   0  0  0  0  0  0  0  0  0  0  0  0
  144.6525  142.7891  157.8354 H   0  0  0  0  0  0  0  0  0  0  0  0
  144.9898  141.1136  157.4172 H   0  0  0  0  0  0  0  0  0  0  0  0
  144.4490  142.2406  156.1786 H   0  0  0  0  0  0  0  0  0  0  0  0
  147.1283  139.7469  156.4343 H   0  0  0  0  0  0  0  0  0  0  0  0
  148.2272  141.2983  152.7783 H   0  0  0  0  0  0  0  0  0  0  0  0
  153.0318  142.5163  158.6251 H   0  0  0  0  0  0  0  0  0  0  0  0
  1  2  1  0  0  0  0
  1 19  1  0  0  0  0
  1 20  1  0  0  0  0
  1 21  1  0  0  0  0
  2  3  1  0  0  0  0
  2 22  1  0  0  0  0
  2 23  1  0  0  0  0
  3  7  1  0  0  0  0
  3  4  1  0  0  0  0
  3 40  1  0  0  0  0
  4  5  1  0  0  0  0
  4 24  1  0  0  0  0
  4 25  1  0  0  0  0
  5  6  1  0  0  0  0
  5 26  1  0  0  0  0
  5 27  1  0  0  0  0
  6  7  1  0  0  0  0
  6 28  1  0  0  0  0
  6 29  1  0  0  0  0
  7  8  1  0  0  0  0
  7 30  1  0  0  0  0
  8  9  1  0  0  0  0
  8 31  1  0  0  0  0
  8 32  1  0  0  0  0
  9 10  1  0  0  0  0
  9 33  1  0  0  0  0
 10 11  2  0  0  0  0
 10 12  1  0  0  0  0
 12 13  1  0  0  0  0
 12 14  1  0  0  0  0
 12 34  1  0  0  0  0
 13 35  1  0  0  0  0
 13 36  1  0  0  0  0
 13 37  1  0  0  0  0
 14 18  1  0  0  0  0
 14 15  1  0  0  0  0
 15 16  2  0  0  0  0
 15 38  1  0  0  0  0
 16 17  1  0  0  0  0
 17 18  2  0  0  0  0
 17 39  1  0  0  0  0
M  CHG  1   3   1
M  END
> <s_m_source_file>
AV-unprocessed.smi

> <i_m_source_file_index>
3232

> <i_lp_mmshare_version>
43012

> <i_f3d_flags>
0

> <s_epik_input>
W0NIM11bQ0gyXU4xW0NIMl1bQ0gyXVtDSDJdW0NASF0xW0NIMl1bTkhdQyg9TylbQ0BIXShbQ0gzXSluMltjSF1uW2NIXW4y

> <s_epik_cmdline>
J2VwaWtfcHl0aG9uJywgJy1waCcsICc3LjAnLCAnLXRuJywgJzgnLCAnLW1hJywgJzIwMCcsICctbWV0YWxfYmluZGluZycsICctaW1hZScsICc8aW5maWxlLm1hZT4nLCAnLW9tYWUnLCAnPG91dGZpbGUubWFlPic=

> <r_lp_tautomer_probability>
1

> <r_epik_Ionization_Penalty>
0.00177695

> <r_epik_Ionization_Penalty_Charging>
0.00176881

> <r_epik_Ionization_Penalty_Neutral>
8.13528e-06

> <r_epik_State_Penalty>
0.00119827

> <r_epik_Charging_Adjusted_Penalty>
0.00296709

> <i_epik_Tot_Q>
1

> <i_epik_Tot_abs_Q>
1

> <r_epik_Metal_State_Penalty>
-0

> <b_epik_Metal_Only>
0

> <s_lp_Force_Field>
OPLS_2005

> <r_lp_Energy>
38.6691

> <b_lp_Chiralities_Consistent>
1

> <s_lp_Variant>
AV-unprocessed.smi:3232-3

> <Gold.Version>
5.8.1

> <Gold.Id.Protein>
6NUR|6NUR_protein|mol2

> <Gold.PLP.Fitness>
38.1137

> <Gold.PLP.PLP>
-31.0222

> <Gold.PLP.part.hbond>
-2.7598

> <Gold.PLP.part.metal>
0.0000

> <Gold.PLP.part.buried>
-5.8980

> <Gold.PLP.part.nonpolar>
-24.3616

> <Gold.PLP.part.repulsive>
0.6659

> <Gold.PLP.ligand.clash>
0.0000

> <Gold.PLP.ligand.torsion>
0.4212

> <Gold.PLP.Chemscore.Hbond>
1.6000

> <Gold.PLP.Chemscore.CHOScore>
1.0000

> <Gold.PLP.Chemscore.Metal>
0.0000

> <Gold.Chemscore.Hbonds>
donor molecule, donor type, donor heavy atom, donor atom, acceptor molecule, acceptor atom, score
      L1  H     9    33       P1  8028  0.88
      P1  H  6934  6946       L1    11  0.69
      L1  C    17    39       P1  7957  1.00

> <Gold.PLP.Chemscore.Internal.Correction>
0.1340

> <Gold.Rescore>
     Score         DG    S(hbond)    S(metal)    S(lipo)     H(rot)  DE(clash)    DE(int)     intcor
     11.61     -12.30       1.35        0.00      74.16       2.49       0.12       0.57       ----

> <Gold.Chemscore.Fitness>
11.6092

> <Gold.Chemscore.DG>
-12.2976

> <Gold.Chemscore.ZeroCoef>
-5.4800

> <Gold.Chemscore.Hbond>
1.3506

> <Gold.Chemscore.Metal>
0.0000

> <Gold.Chemscore.Lipo>
74.1578

> <Gold.Chemscore.Internal_Hbond>
0.0000

> <Gold.Chemscore.DEClash>
0.1201

> <Gold.Chemscore.DEInternal>
0.5684

> <Gold.Chemscore.Rot>
2.4882

> <Gold.Chemscore.Internal.Correction>
   9.000000E+99

> <Gold.Chemscore.Hbonds>
donor molecule, donor type, donor heavy atom, donor atom, acceptor molecule, acceptor atom, score
      L1  H     9    33       P1  8028  0.70
      P1  H  6934  6946       L1    11  0.64

> <Gold.Chemscore.Hbond.Weighted>
-4.5109

> <Gold.Chemscore.Metal.Weighted>
-0.0000

> <Gold.Chemscore.Lipo.Weighted>
-8.6765

> <Gold.Chemscore.Internal_Hbond.Weighted>
0.0000

> <Gold.Chemscore.DEClash.Weighted>
0.1201

> <Gold.Chemscore.DEInternal.Weighted>
0.5684

> <Gold.Chemscore.Rot.Weighted>
6.3697

> <Gold.Chemscore.Internal.Correction.Weighted>
   9.000000E+99

> <Gold.Protein.RotatedTorsions>
[ 6907 6896 6895 6894 ] final   97.79 input  -60.11 | X-H torsion
[ 7974 7965 7964 7962 ] final -164.99 input  175.53 | X-H torsion
[ 8008 7997 7996 7995 ] final  -18.19 input   59.86 | X-H torsion
[ 10167 10162 10161 10158 ] final -132.16 input  -65.29 | X-H torsion
[ 10718 10713 10712 10709 ] final  -65.12 input   66.30 | X-H torsion
[ 10763 10752 10751 10750 ] final   73.43 input  -60.55 | X-H torsion
[ 11005 11000 10999 10996 ] final  150.96 input  -57.11 | X-H torsion

> <Gold.Protein.ActiveResidues>
 VAL166  LYS551  ARG553  GLY616  TRP617  ASP618  TYR619  PRO620  LYS621  CYS622 
 ASP623  PHE694  ASN695  SER759  ASP760  ASP761  ALA762  ILE779  LEU786  VAL792 
 PHE793  MET794  SER795  GLU796  ALA797  LYS798  CYS799  TRP800  GLU811  SER814 

> <Gold.Protein.RotatedAtoms>
  152.5418  134.0679  159.8180 H   0  0  0  0  0  0  0  0  0  0  0  0  # atno 6907 bound_to 6896
  151.0798  133.5392  159.2628 H   0  0  0  0  0  0  0  0  0  0  0  0  # atno 6908 bound_to 6896
  151.2224  135.0532  159.9009 H   0  0  0  0  0  0  0  0  0  0  0  0  # atno 6909 bound_to 6896
  144.7282  140.2880  143.6225 H   0  0  0  0  0  0  0  0  0  0  0  0  # atno 7974 bound_to 7965
  154.4923  140.2122  155.9521 H   0  0  0  0  0  0  0  0  0  0  0  0  # atno 8008 bound_to 7997
  156.1323  140.3195  155.8336 H   0  0  0  0  0  0  0  0  0  0  0  0  # atno 8009 bound_to 7997
  155.4274  140.0501  157.3012 H   0  0  0  0  0  0  0  0  0  0  0  0  # atno 8010 bound_to 7997
  139.9114  143.6490  152.2574 H   0  0  0  0  0  0  0  0  0  0  0  0  # atno 10167 bound_to 10162
  156.0688  130.4243  150.1518 H   0  0  0  0  0  0  0  0  0  0  0  0  # atno 10718 bound_to 10713
  153.0521  135.5063  154.7893 H   0  0  0  0  0  0  0  0  0  0  0  0  # atno 10763 bound_to 10752
  154.6747  135.2958  154.9697 H   0  0  0  0  0  0  0  0  0  0  0  0  # atno 10764 bound_to 10752
  154.0504  135.6705  153.4852 H   0  0  0  0  0  0  0  0  0  0  0  0  # atno 10765 bound_to 10752
  140.1177  134.8884  157.2027 H   0  0  0  0  0  0  0  0  0  0  0  0  # atno 11005 bound_to 11000
  145.7883  139.1917  143.2117 LP  0  0  0  0  0  0  0  0  0  0  0  0  # atno 17320 bound_to 7965
  146.0777  140.7799  142.9657 LP  0  0  0  0  0  0  0  0  0  0  0  0  # atno 17321 bound_to 7965
  139.6939  144.7643  151.1390 LP  0  0  0  0  0  0  0  0  0  0  0  0  # atno 17342 bound_to 10162
  140.7684  143.5550  150.9162 LP  0  0  0  0  0  0  0  0  0  0  0  0  # atno 17343 bound_to 10162
  156.9573  130.9794  151.3486 LP  0  0  0  0  0  0  0  0  0  0  0  0  # atno 17370 bound_to 10713
  157.5747  130.8334  149.8439 LP  0  0  0  0  0  0  0  0  0  0  0  0  # atno 17371 bound_to 10713
  140.3007  134.3135  155.7290 LP  0  0  0  0  0  0  0  0  0  0  0  0  # atno 17394 bound_to 11000
  141.2145  133.7590  156.9636 LP  0  0  0  0  0  0  0  0  0  0  0  0  # atno 17395 bound_to 11000

$$$$
