AV-unprocessed.smi:3173|AV-procd|sdf|12117|dock4
  -GOLD-   2272017553D 1   1.00000     0.00000
 Structure written by MMmdl.
 35 36  0  0  0  0  0  0  0  0  1 V2000
  153.9133  138.8729  157.8644 O   0  0  0  0  0  0  0  0  0  0  0  0
  152.8301  139.0875  158.4089 C   0  0  0  0  0  0  0  0  0  0  0  0
  151.5716  138.3426  157.9507 C   0  0  0  0  0  0  0  0  0  0  0  0
  150.9583  138.9226  156.6589 C   0  0  2  0  0  0  0  0  0  0  0  0
  150.0678  140.1080  156.9284 C   0  0  0  0  0  0  0  0  0  0  0  0
  148.8735  139.9967  156.3508 C   0  0  0  0  0  0  0  0  0  0  0  0
  148.7243  138.7138  155.5811 C   0  0  0  0  0  0  0  0  0  0  0  0
  150.0268  137.9446  155.8932 C   0  0  0  0  0  0  0  0  0  0  0  0
  152.6739  139.9586  159.4174 N   0  0  0  0  0  0  0  0  0  0  0  0
  153.7480  140.7339  160.0267 C   0  0  0  0  0  0  0  0  0  0  0  0
  153.2131  141.6608  161.1312 C   0  0  0  0  0  0  0  0  0  0  0  0
  152.2542  142.7054  160.5926 C   0  0  0  0  0  0  0  0  0  0  0  0
  151.5380  143.5458  161.4714 C   0  0  0  0  0  0  0  0  0  0  0  0
  150.6618  144.5012  160.9212 C   0  0  0  0  0  0  0  0  0  0  0  0
  150.5371  144.5800  159.5208 C   0  0  0  0  0  0  0  0  0  0  0  0
  151.2989  143.6971  158.7296 C   0  0  0  0  0  0  0  0  0  0  0  0
  152.1423  142.7776  159.2468 N   0  0  0  0  0  0  0  0  0  0  0  0
  151.8024  137.2857  157.8059 H   0  0  0  0  0  0  0  0  0  0  0  0
  150.8410  138.3900  158.7590 H   0  0  0  0  0  0  0  0  0  0  0  0
  151.7518  139.2701  155.9955 H   0  0  0  0  0  0  0  0  0  0  0  0
  150.3962  140.9529  157.5157 H   0  0  0  0  0  0  0  0  0  0  0  0
  148.0870  140.7353  156.3985 H   0  0  0  0  0  0  0  0  0  0  0  0
  147.8398  138.1657  155.9066 H   0  0  0  0  0  0  0  0  0  0  0  0
  148.6297  138.9317  154.5169 H   0  0  0  0  0  0  0  0  0  0  0  0
  150.5006  137.5694  154.9855 H   0  0  0  0  0  0  0  0  0  0  0  0
  149.7888  137.0767  156.5098 H   0  0  0  0  0  0  0  0  0  0  0  0
  151.7488  140.0776  159.8043 H   0  0  0  0  0  0  0  0  0  0  0  0
  154.5143  140.0669  160.4255 H   0  0  0  0  0  0  0  0  0  0  0  0
  154.2261  141.3230  159.2437 H   0  0  0  0  0  0  0  0  0  0  0  0
  152.7033  141.0740  161.8967 H   0  0  0  0  0  0  0  0  0  0  0  0
  154.0396  142.1650  161.6339 H   0  0  0  0  0  0  0  0  0  0  0  0
  151.6567  143.4621  162.5417 H   0  0  0  0  0  0  0  0  0  0  0  0
  150.0962  145.1614  161.5621 H   0  0  0  0  0  0  0  0  0  0  0  0
  149.8745  145.3001  159.0641 H   0  0  0  0  0  0  0  0  0  0  0  0
  151.2291  143.7304  157.6524 H   0  0  0  0  0  0  0  0  0  0  0  0
  1  2  2  0  0  0  0
  2  3  1  0  0  0  0
  2  9  1  0  0  0  0
  3  4  1  0  0  0  0
  3 18  1  0  0  0  0
  3 19  1  0  0  0  0
  4  8  1  0  0  0  0
  4  5  1  0  0  0  0
  4 20  1  0  0  0  0
  5  6  2  0  0  0  0
  5 21  1  0  0  0  0
  6  7  1  0  0  0  0
  6 22  1  0  0  0  0
  7  8  1  0  0  0  0
  7 23  1  0  0  0  0
  7 24  1  0  0  0  0
  8 25  1  0  0  0  0
  8 26  1  0  0  0  0
  9 10  1  0  0  0  0
  9 27  1  0  0  0  0
 10 11  1  0  0  0  0
 10 28  1  0  0  0  0
 10 29  1  0  0  0  0
 11 12  1  0  0  0  0
 11 30  1  0  0  0  0
 11 31  1  0  0  0  0
 12 17  1  0  0  0  0
 12 13  2  0  0  0  0
 13 14  1  0  0  0  0
 13 32  1  0  0  0  0
 14 15  2  0  0  0  0
 14 33  1  0  0  0  0
 15 16  1  0  0  0  0
 15 34  1  0  0  0  0
 16 17  2  0  0  0  0
 16 35  1  0  0  0  0
M  END
> <s_m_source_file>
AV-unprocessed.smi

> <i_m_source_file_index>
3173

> <i_lp_mmshare_version>
43012

> <i_f3d_flags>
0

> <s_epik_input>
W0NIMl0xW0NIMl1bQ0hdPVtDSF1bQ0BIXTFbQ0gyXUMoPU8pW05IXVtDSDJdW0NIMl1jMltjSF1bY0hdW2NIXVtjSF1uMg==

> <s_epik_cmdline>
J2VwaWtfcHl0aG9uJywgJy1waCcsICc3LjAnLCAnLXRuJywgJzgnLCAnLW1hJywgJzIwMCcsICctbWV0YWxfYmluZGluZycsICctaW1hZScsICc8aW5maWxlLm1hZT4nLCAnLW9tYWUnLCAnPG91dGZpbGUubWFlPic=

> <r_epik_Ionization_Penalty>
0.0258754

> <r_epik_Ionization_Penalty_Charging>
0

> <r_epik_Ionization_Penalty_Neutral>
0.0258754

> <r_epik_State_Penalty>
0.0210899

> <r_epik_Charging_Adjusted_Penalty>
0.0210899

> <i_epik_Tot_Q>
0

> <i_epik_Tot_abs_Q>
0

> <r_epik_Metal_State_Penalty>
0.0202045

> <b_epik_Metal_Only>
0

> <s_lp_Force_Field>
OPLS_2005

> <r_lp_Energy>
13.7226

> <b_lp_Chiralities_Consistent>
1

> <s_lp_Variant>
AV-unprocessed.smi:3173-1

> <Gold.Version>
5.8.1

> <Gold.Id.Protein>
6NUR|6NUR_protein|mol2

> <Gold.PLP.Fitness>
47.8120

> <Gold.PLP.PLP>
-45.8706

> <Gold.PLP.part.hbond>
-1.0000

> <Gold.PLP.part.metal>
0.0000

> <Gold.PLP.part.buried>
-4.0472

> <Gold.PLP.part.nonpolar>
-41.0969

> <Gold.PLP.part.repulsive>
0.1161

> <Gold.PLP.ligand.clash>
0.0000

> <Gold.PLP.ligand.torsion>
0.5417

> <Gold.PLP.Chemscore.Hbond>
1.0000

> <Gold.PLP.Chemscore.CHOScore>
0.0000

> <Gold.PLP.Chemscore.Metal>
0.0000

> <Gold.Chemscore.Hbonds>
donor molecule, donor type, donor heavy atom, donor atom, acceptor molecule, acceptor atom, score
      P1  H  7997  8008       L1     1  1.00

> <Gold.PLP.Chemscore.Internal.Correction>
0.0248

> <Gold.Rescore>
     Score         DG    S(hbond)    S(metal)    S(lipo)     H(rot)  DE(clash)    DE(int)     intcor
     16.70     -18.50       0.85        0.00     119.82       1.50       0.03       1.77       ----

> <Gold.Chemscore.Fitness>
16.6996

> <Gold.Chemscore.DG>
-18.5030

> <Gold.Chemscore.ZeroCoef>
-5.4800

> <Gold.Chemscore.Hbond>
0.8542

> <Gold.Chemscore.Metal>
0.0000

> <Gold.Chemscore.Lipo>
119.8233

> <Gold.Chemscore.Internal_Hbond>
0.0000

> <Gold.Chemscore.DEClash>
0.0305

> <Gold.Chemscore.DEInternal>
1.7729

> <Gold.Chemscore.Rot>
1.5037

> <Gold.Chemscore.Internal.Correction>
   9.000000E+99

> <Gold.Chemscore.Hbonds>
donor molecule, donor type, donor heavy atom, donor atom, acceptor molecule, acceptor atom, score
      P1  H  7997  8008       L1     1  0.95

> <Gold.Chemscore.Hbond.Weighted>
-2.8530

> <Gold.Chemscore.Metal.Weighted>
-0.0000

> <Gold.Chemscore.Lipo.Weighted>
-14.0193

> <Gold.Chemscore.Internal_Hbond.Weighted>
0.0000

> <Gold.Chemscore.DEClash.Weighted>
0.0305

> <Gold.Chemscore.DEInternal.Weighted>
1.7729

> <Gold.Chemscore.Rot.Weighted>
3.8494

> <Gold.Chemscore.Internal.Correction.Weighted>
   9.000000E+99

> <Gold.Protein.RotatedTorsions>
[ 6907 6896 6895 6894 ] final -161.28 input  -60.11 | X-H torsion
[ 7974 7965 7964 7962 ] final -119.90 input  175.53 | X-H torsion
[ 8008 7997 7996 7995 ] final  -94.87 input   59.86 | X-H torsion
[ 10167 10162 10161 10158 ] final   31.70 input  -65.29 | X-H torsion
[ 10718 10713 10712 10709 ] final  128.21 input   66.30 | X-H torsion
[ 10763 10752 10751 10750 ] final  141.05 input  -60.55 | X-H torsion
[ 11005 11000 10999 10996 ] final   56.46 input  -57.11 | X-H torsion

> <Gold.Protein.ActiveResidues>
 VAL166  LYS551  ARG553  GLY616  TRP617  ASP618  TYR619  PRO620  LYS621  CYS622 
 ASP623  PHE694  ASN695  SER759  ASP760  ASP761  ALA762  ILE779  LEU786  VAL792 
 PHE793  MET794  SER795  GLU796  ALA797  LYS798  CYS799  TRP800  GLU811  SER814 

> <Gold.Protein.RotatedAtoms>
  151.3622  133.3885  159.2690 H   0  0  0  0  0  0  0  0  0  0  0  0  # atno 6907 bound_to 6896
  150.9716  134.9089  159.7802 H   0  0  0  0  0  0  0  0  0  0  0  0  # atno 6908 bound_to 6896
  152.5186  134.3584  159.9328 H   0  0  0  0  0  0  0  0  0  0  0  0  # atno 6909 bound_to 6896
  145.0574  140.8264  143.4173 H   0  0  0  0  0  0  0  0  0  0  0  0  # atno 7974 bound_to 7965
  154.7540  140.0485  157.0918 H   0  0  0  0  0  0  0  0  0  0  0  0  # atno 8008 bound_to 7997
  155.0021  140.3126  155.4844 H   0  0  0  0  0  0  0  0  0  0  0  0  # atno 8009 bound_to 7997
  156.2891  140.2199  156.5131 H   0  0  0  0  0  0  0  0  0  0  0  0  # atno 8010 bound_to 7997
  140.4565  144.0971  150.6203 H   0  0  0  0  0  0  0  0  0  0  0  0  # atno 10167 bound_to 10162
  157.5264  131.1098  150.9076 H   0  0  0  0  0  0  0  0  0  0  0  0  # atno 10718 bound_to 10713
  153.9328  135.2988  155.3445 H   0  0  0  0  0  0  0  0  0  0  0  0  # atno 10763 bound_to 10752
  154.7518  135.4976  153.9306 H   0  0  0  0  0  0  0  0  0  0  0  0  # atno 10764 bound_to 10752
  153.1083  135.6752  153.9652 H   0  0  0  0  0  0  0  0  0  0  0  0  # atno 10765 bound_to 10752
  140.0527  134.5714  155.9244 H   0  0  0  0  0  0  0  0  0  0  0  0  # atno 11005 bound_to 11000
  145.1452  139.2548  143.5470 LP  0  0  0  0  0  0  0  0  0  0  0  0  # atno 17320 bound_to 7965
  146.3522  140.1139  142.8603 LP  0  0  0  0  0  0  0  0  0  0  0  0  # atno 17321 bound_to 7965
  140.4145  143.2641  151.9792 LP  0  0  0  0  0  0  0  0  0  0  0  0  # atno 17342 bound_to 10162
  139.4801  144.5886  151.7811 LP  0  0  0  0  0  0  0  0  0  0  0  0  # atno 17343 bound_to 10162
  156.9670  130.5476  149.5288 LP  0  0  0  0  0  0  0  0  0  0  0  0  # atno 17370 bound_to 10713
  156.0390  130.5475  150.8725 LP  0  0  0  0  0  0  0  0  0  0  0  0  # atno 17371 bound_to 10713
  141.1938  133.6580  156.5564 LP  0  0  0  0  0  0  0  0  0  0  0  0  # atno 17394 bound_to 11000
  140.3892  134.7455  157.4711 LP  0  0  0  0  0  0  0  0  0  0  0  0  # atno 17395 bound_to 11000

$$$$
