AV-unprocessed.smi:2188|AV-procd|sdf|8881|dock5
  -GOLD-   2272012 83D 1   1.00000     0.00000
 Structure written by MMmdl.
 40 42  0  0  0  0  0  0  0  0  2 V2000
  152.0876  138.9460  156.6586 O   0  0  0  0  0  0  0  0  0  0  0  0
  151.5388  139.9844  157.0326 C   0  0  0  0  0  0  0  0  0  0  0  0
  150.3709  140.3809  156.4885 N   0  0  0  0  0  0  0  0  0  0  0  0
  149.6227  139.6762  155.4488 C   0  0  0  0  0  0  0  0  0  0  0  0
  149.0990  140.6224  154.3494 C   0  0  0  0  0  0  0  0  0  0  0  0
  147.6302  140.9806  154.4997 C   0  0  0  0  0  0  0  0  0  0  0  0
  147.1683  141.6724  155.6419 C   0  0  0  0  0  0  0  0  0  0  0  0
  145.7924  141.9537  155.7708 C   0  0  0  0  0  0  0  0  0  0  0  0
  144.9086  141.5386  154.7538 C   0  0  0  0  0  0  0  0  0  0  0  0
  145.3872  140.8839  153.6732 N   0  3  0  0  0  0  0  0  0  0  0  0
  146.6976  140.5976  153.5113 C   0  0  0  0  0  0  0  0  0  0  0  0
  152.0505  140.8836  158.0883 C   0  0  0  0  0  0  0  0  0  0  0  0
  151.7255  142.2045  158.0548 C   0  0  0  0  0  0  0  0  0  0  0  0
  152.2085  143.1347  159.0446 C   0  0  0  0  0  0  0  0  0  0  0  0
  152.9638  142.6589  160.0394 C   0  0  0  0  0  0  0  0  0  0  0  0
  153.3004  141.3129  160.1639 N   0  0  0  0  0  0  0  0  0  0  0  0
  154.0278  140.9242  161.3679 C   0  0  0  0  0  0  0  0  0  0  0  0
  155.1006  139.9045  161.0335 C   0  0  0  0  0  0  0  0  0  0  0  0
  154.2117  138.4324  160.4140 S   0  0  0  0  0  0  0  0  0  0  0  0
  155.2007  137.5077  159.8399 O   0  0  0  0  0  0  0  0  0  0  0  0
  153.3124  137.9592  161.4780 O   0  0  0  0  0  0  0  0  0  0  0  0
  153.2993  139.1216  159.1904 N   0  0  0  0  0  0  0  0  0  0  0  0
  152.9104  140.3655  159.1751 C   0  0  0  0  0  0  0  0  0  0  0  0
  149.9685  141.2434  156.8259 H   0  0  0  0  0  0  0  0  0  0  0  0
  150.2882  138.9373  155.0019 H   0  0  0  0  0  0  0  0  0  0  0  0
  148.7982  139.1112  155.8868 H   0  0  0  0  0  0  0  0  0  0  0  0
  149.6929  141.5373  154.3401 H   0  0  0  0  0  0  0  0  0  0  0  0
  149.2431  140.1595  153.3724 H   0  0  0  0  0  0  0  0  0  0  0  0
  147.8566  141.9724  156.4185 H   0  0  0  0  0  0  0  0  0  0  0  0
  145.4200  142.4750  156.6401 H   0  0  0  0  0  0  0  0  0  0  0  0
  143.8417  141.7072  154.7728 H   0  0  0  0  0  0  0  0  0  0  0  0
  146.9555  140.0575  152.6119 H   0  0  0  0  0  0  0  0  0  0  0  0
  151.0848  142.6121  157.2865 H   0  0  0  0  0  0  0  0  0  0  0  0
  151.9706  144.1864  158.9817 H   0  0  0  0  0  0  0  0  0  0  0  0
  153.3571  143.3070  160.8093 H   0  0  0  0  0  0  0  0  0  0  0  0
  154.5000  141.7915  161.8304 H   0  0  0  0  0  0  0  0  0  0  0  0
  153.3255  140.5244  162.1000 H   0  0  0  0  0  0  0  0  0  0  0  0
  155.7872  140.2644  160.2666 H   0  0  0  0  0  0  0  0  0  0  0  0
  155.6782  139.6204  161.9129 H   0  0  0  0  0  0  0  0  0  0  0  0
  144.7302  140.5879  152.9508 H   0  0  0  0  0  0  0  0  0  0  0  0
  1  2  2  0  0  0  0
  2  3  1  0  0  0  0
  2 12  1  0  0  0  0
  3  4  1  0  0  0  0
  3 24  1  0  0  0  0
  4  5  1  0  0  0  0
  4 25  1  0  0  0  0
  4 26  1  0  0  0  0
  5  6  1  0  0  0  0
  5 27  1  0  0  0  0
  5 28  1  0  0  0  0
  6 11  1  0  0  0  0
  6  7  2  0  0  0  0
  7  8  1  0  0  0  0
  7 29  1  0  0  0  0
  8  9  2  0  0  0  0
  8 30  1  0  0  0  0
  9 10  1  0  0  0  0
  9 31  1  0  0  0  0
 10 11  2  0  0  0  0
 10 40  1  0  0  0  0
 11 32  1  0  0  0  0
 12 23  1  0  0  0  0
 12 13  2  0  0  0  0
 13 14  1  0  0  0  0
 13 33  1  0  0  0  0
 14 15  2  0  0  0  0
 14 34  1  0  0  0  0
 15 16  1  0  0  0  0
 15 35  1  0  0  0  0
 16 23  1  0  0  0  0
 16 17  1  0  0  0  0
 17 18  1  0  0  0  0
 17 36  1  0  0  0  0
 17 37  1  0  0  0  0
 18 19  1  0  0  0  0
 18 38  1  0  0  0  0
 18 39  1  0  0  0  0
 19 20  2  0  0  0  0
 19 21  2  0  0  0  0
 19 22  1  0  0  0  0
 22 23  2  0  0  0  0
M  CHG  1  10   1
M  END
> <s_m_source_file>
AV-unprocessed.smi

> <i_m_source_file_index>
2188

> <i_lp_mmshare_version>
43012

> <i_f3d_flags>
0

> <s_epik_input>
W0NIMl0xW0NIMl1TKD1PKSg9TylOPUMoTjEyKUMoPVtDSF1bQ0hdPVtDSF0yKUMoPU8pW05IXVtDSDJdW0NIMl1jM1tjSF1bY0hdW2NIXW5bY0hdMw==

> <s_epik_cmdline>
J2VwaWtfcHl0aG9uJywgJy1waCcsICc3LjAnLCAnLXRuJywgJzgnLCAnLW1hJywgJzIwMCcsICctbWV0YWxfYmluZGluZycsICctaW1hZScsICc8aW5maWxlLm1hZT4nLCAnLW9tYWUnLCAnPG91dGZpbGUubWFlPic=

> <r_epik_Ionization_Penalty>
2.45954

> <r_epik_Ionization_Penalty_Charging>
2.45946

> <r_epik_Ionization_Penalty_Neutral>
8.13788e-05

> <r_epik_State_Penalty>
2.62155

> <r_epik_Charging_Adjusted_Penalty>
5.08101

> <i_epik_Tot_Q>
1

> <i_epik_Tot_abs_Q>
1

> <r_epik_Metal_State_Penalty>
2.74793

> <b_epik_Metal_Only>
0

> <s_lp_Force_Field>
OPLS_2005

> <r_lp_Energy>
33.7727

> <b_lp_Chiralities_Consistent>
1

> <s_lp_Variant>
AV-unprocessed.smi:2188-2

> <Gold.Version>
5.8.1

> <Gold.Id.Protein>
6NUR|6NUR_protein|mol2

> <Gold.PLP.Fitness>
47.2145

> <Gold.PLP.PLP>
-39.5344

> <Gold.PLP.part.hbond>
-2.6472

> <Gold.PLP.part.metal>
0.0000

> <Gold.PLP.part.buried>
-4.3076

> <Gold.PLP.part.nonpolar>
-33.0549

> <Gold.PLP.part.repulsive>
0.0800

> <Gold.PLP.ligand.clash>
0.0000

> <Gold.PLP.ligand.torsion>
0.7168

> <Gold.PLP.Chemscore.Hbond>
3.0000

> <Gold.PLP.Chemscore.CHOScore>
0.0000

> <Gold.PLP.Chemscore.Metal>
0.0000

> <Gold.Chemscore.Hbonds>
donor molecule, donor type, donor heavy atom, donor atom, acceptor molecule, acceptor atom, score
      L1  H    10    40       P1 10175  0.10

> <Gold.PLP.Chemscore.Internal.Correction>
0.1137

> <Gold.Rescore>
     Score         DG    S(hbond)    S(metal)    S(lipo)     H(rot)  DE(clash)    DE(int)     intcor
     16.02     -18.53       1.93        0.00      90.07       1.54       0.02       2.49       ----

> <Gold.Chemscore.Fitness>
16.0166

> <Gold.Chemscore.DG>
-18.5280

> <Gold.Chemscore.ZeroCoef>
-5.4800

> <Gold.Chemscore.Hbond>
1.9285

> <Gold.Chemscore.Metal>
0.0000

> <Gold.Chemscore.Lipo>
90.0658

> <Gold.Chemscore.Internal_Hbond>
0.0000

> <Gold.Chemscore.DEClash>
0.0172

> <Gold.Chemscore.DEInternal>
2.4942

> <Gold.Chemscore.Rot>
1.5355

> <Gold.Chemscore.Internal.Correction>
   9.000000E+99

> <Gold.Chemscore.Hbonds>
donor molecule, donor type, donor heavy atom, donor atom, acceptor molecule, acceptor atom, score
      L1  H    10    40       P1 10175  0.09

> <Gold.Chemscore.Hbond.Weighted>
-6.4412

> <Gold.Chemscore.Metal.Weighted>
-0.0000

> <Gold.Chemscore.Lipo.Weighted>
-10.5377

> <Gold.Chemscore.Internal_Hbond.Weighted>
0.0000

> <Gold.Chemscore.DEClash.Weighted>
0.0172

> <Gold.Chemscore.DEInternal.Weighted>
2.4942

> <Gold.Chemscore.Rot.Weighted>
3.9309

> <Gold.Chemscore.Internal.Correction.Weighted>
   9.000000E+99

> <Gold.Protein.RotatedTorsions>
[ 6907 6896 6895 6894 ] final  -96.63 input  -60.11 | X-H torsion
[ 7974 7965 7964 7962 ] final  -84.19 input  175.53 | X-H torsion
[ 8008 7997 7996 7995 ] final  -29.23 input   59.86 | X-H torsion
[ 10167 10162 10161 10158 ] final -153.01 input  -65.29 | X-H torsion
[ 10718 10713 10712 10709 ] final -148.12 input   66.30 | X-H torsion
[ 10763 10752 10751 10750 ] final  126.73 input  -60.55 | X-H torsion
[ 11005 11000 10999 10996 ] final   24.99 input  -57.11 | X-H torsion

> <Gold.Protein.ActiveResidues>
 VAL166  LYS551  ARG553  GLY616  TRP617  ASP618  TYR619  PRO620  LYS621  CYS622 
 ASP623  PHE694  ASN695  SER759  ASP760  ASP761  ALA762  ILE779  LEU786  VAL792 
 PHE793  MET794  SER795  GLU796  ALA797  LYS798  CYS799  TRP800  GLU811  SER814 

> <Gold.Protein.RotatedAtoms>
  150.6994  134.1473  159.4126 H   0  0  0  0  0  0  0  0  0  0  0  0  # atno 6907 bound_to 6896
  151.9456  135.0190  160.0548 H   0  0  0  0  0  0  0  0  0  0  0  0  # atno 6908 bound_to 6896
  152.2055  133.4837  159.5118 H   0  0  0  0  0  0  0  0  0  0  0  0  # atno 6909 bound_to 6896
  145.5100  140.9540  143.1713 H   0  0  0  0  0  0  0  0  0  0  0  0  # atno 7974 bound_to 7965
  154.4298  140.1824  156.1215 H   0  0  0  0  0  0  0  0  0  0  0  0  # atno 8008 bound_to 7997
  156.0139  140.3348  155.6943 H   0  0  0  0  0  0  0  0  0  0  0  0  # atno 8009 bound_to 7997
  155.6072  140.0646  157.2707 H   0  0  0  0  0  0  0  0  0  0  0  0  # atno 8010 bound_to 7997
  139.7133  143.9074  152.2476 H   0  0  0  0  0  0  0  0  0  0  0  0  # atno 10167 bound_to 10162
  156.4162  130.8006  151.2226 H   0  0  0  0  0  0  0  0  0  0  0  0  # atno 10718 bound_to 10713
  153.6980  135.3288  155.3218 H   0  0  0  0  0  0  0  0  0  0  0  0  # atno 10763 bound_to 10752
  154.8421  135.4447  154.1440 H   0  0  0  0  0  0  0  0  0  0  0  0  # atno 10764 bound_to 10752
  153.2499  135.6980  153.7768 H   0  0  0  0  0  0  0  0  0  0  0  0  # atno 10765 bound_to 10752
  140.3527  134.2211  155.7678 H   0  0  0  0  0  0  0  0  0  0  0  0  # atno 11005 bound_to 11000
  144.7733  139.6687  143.7185 LP  0  0  0  0  0  0  0  0  0  0  0  0  # atno 17320 bound_to 7965
  146.2173  139.5571  142.9642 LP  0  0  0  0  0  0  0  0  0  0  0  0  # atno 17321 bound_to 7965
  139.8949  144.6945  150.8729 LP  0  0  0  0  0  0  0  0  0  0  0  0  # atno 17342 bound_to 10162
  140.7738  143.3558  151.1925 LP  0  0  0  0  0  0  0  0  0  0  0  0  # atno 17343 bound_to 10162
  157.7508  131.0242  150.3867 LP  0  0  0  0  0  0  0  0  0  0  0  0  # atno 17370 bound_to 10713
  156.4175  130.3946  149.6848 LP  0  0  0  0  0  0  0  0  0  0  0  0  # atno 17371 bound_to 10713
  141.2007  133.7980  157.0475 LP  0  0  0  0  0  0  0  0  0  0  0  0  # atno 17394 bound_to 11000
  140.0690  134.9713  157.1435 LP  0  0  0  0  0  0  0  0  0  0  0  0  # atno 17395 bound_to 11000

$$$$
