AV-unprocessed.smi:1401|AV-procd|sdf|5689|dock2
  -GOLD-   22720 5313D 1   1.00000     0.00000
 Structure written by MMmdl.
 48 50  0  0  0  0  0  0  0  0  1 V2000
  154.0815  136.9310  162.5668 C   0  0  0  0  0  0  0  0  0  0  0  0
  153.9808  136.7208  161.0804 C   0  0  0  0  0  0  0  0  0  0  0  0
  153.1539  137.4812  160.4421 N   0  0  0  0  0  0  0  0  0  0  0  0
  152.9637  137.3564  159.0787 N   0  0  0  0  0  0  0  0  0  0  0  0
  151.9033  138.2315  158.5491 C   0  0  0  0  0  0  0  0  0  0  0  0
  152.2523  139.7298  158.5978 C   0  0  0  0  0  0  0  0  0  0  0  0
  152.6847  140.2836  157.5878 O   0  0  0  0  0  0  0  0  0  0  0  0
  152.1064  140.3627  159.7736 N   0  0  0  0  0  0  0  0  0  0  0  0
  152.5540  141.7118  160.0961 C   0  0  1  0  0  0  0  0  0  0  0  0
  154.0664  141.7209  160.3768 C   0  0  0  0  0  0  0  0  0  0  0  0
  152.1756  142.6589  158.9323 C   0  0  2  0  0  0  0  0  0  0  0  0
  153.2083  143.7694  158.6386 C   0  0  0  0  0  0  0  0  0  0  0  0
  152.3430  145.0439  158.5998 C   0  0  2  0  0  0  0  0  0  0  0  0
  151.9185  145.4113  160.0341 C   0  0  0  0  0  0  0  0  0  0  0  0
  150.8724  144.3313  160.3651 C   0  0  0  0  0  0  0  0  0  0  0  0
  150.8612  143.4672  159.0880 C   0  0  1  0  0  0  0  0  0  0  0  0
  151.0358  144.5293  158.0083 C   0  0  0  0  0  0  0  0  0  0  0  0
  153.6190  136.4620  158.2835 C   0  0  0  0  0  0  0  0  0  0  0  0
  153.4061  136.3703  157.0739 O   0  0  0  0  0  0  0  0  0  0  0  0
  154.5669  135.6146  159.0109 C   0  0  0  0  0  0  0  0  0  0  0  0
  155.2724  134.6615  158.2164 C   0  0  0  0  0  0  0  0  0  0  0  0
  155.8519  133.8798  157.5894 N   0  0  0  0  0  0  0  0  0  0  0  0
  154.7508  135.7193  160.3510 C   0  0  0  0  0  0  0  0  0  0  0  0
  155.7090  134.8526  161.1561 C   0  0  0  0  0  0  0  0  0  0  0  0
  155.0950  137.2156  162.8501 H   0  0  0  0  0  0  0  0  0  0  0  0
  153.8218  136.0186  163.1039 H   0  0  0  0  0  0  0  0  0  0  0  0
  153.4086  137.7171  162.9130 H   0  0  0  0  0  0  0  0  0  0  0  0
  151.7017  137.9615  157.5108 H   0  0  0  0  0  0  0  0  0  0  0  0
  150.9594  138.0769  159.0739 H   0  0  0  0  0  0  0  0  0  0  0  0
  151.7277  139.8259  160.5402 H   0  0  0  0  0  0  0  0  0  0  0  0
  152.0372  142.0396  160.9996 H   0  0  0  0  0  0  0  0  0  0  0  0
  154.4146  142.7230  160.6276 H   0  0  0  0  0  0  0  0  0  0  0  0
  154.6334  141.3795  159.5101 H   0  0  0  0  0  0  0  0  0  0  0  0
  154.3182  141.0707  161.2150 H   0  0  0  0  0  0  0  0  0  0  0  0
  152.0667  142.0501  158.0326 H   0  0  0  0  0  0  0  0  0  0  0  0
  153.9919  143.8364  159.3942 H   0  0  0  0  0  0  0  0  0  0  0  0
  153.6923  143.5948  157.6770 H   0  0  0  0  0  0  0  0  0  0  0  0
  152.8036  145.8689  158.0557 H   0  0  0  0  0  0  0  0  0  0  0  0
  152.7588  145.4039  160.7294 H   0  0  0  0  0  0  0  0  0  0  0  0
  151.4669  146.4037  160.0655 H   0  0  0  0  0  0  0  0  0  0  0  0
  151.1159  143.7685  161.2656 H   0  0  0  0  0  0  0  0  0  0  0  0
  149.8941  144.7870  160.5234 H   0  0  0  0  0  0  0  0  0  0  0  0
  149.9607  142.8625  158.9785 H   0  0  0  0  0  0  0  0  0  0  0  0
  150.2393  145.2756  158.0013 H   0  0  0  0  0  0  0  0  0  0  0  0
  151.1472  144.1156  157.0044 H   0  0  0  0  0  0  0  0  0  0  0  0
  156.2544  134.1470  160.5298 H   0  0  0  0  0  0  0  0  0  0  0  0
  155.1635  134.2741  161.9028 H   0  0  0  0  0  0  0  0  0  0  0  0
  156.4460  135.4708  161.6699 H   0  0  0  0  0  0  0  0  0  0  0  0
  1  2  1  0  0  0  0
  1 25  1  0  0  0  0
  1 26  1  0  0  0  0
  1 27  1  0  0  0  0
  2 23  1  0  0  0  0
  2  3  2  0  0  0  0
  3  4  1  0  0  0  0
  4  5  1  0  0  0  0
  4 18  1  0  0  0  0
  5  6  1  0  0  0  0
  5 28  1  0  0  0  0
  5 29  1  0  0  0  0
  6  7  2  0  0  0  0
  6  8  1  0  0  0  0
  8  9  1  0  0  0  0
  8 30  1  0  0  0  0
  9 10  1  0  0  0  0
  9 11  1  0  0  0  0
  9 31  1  0  0  0  0
 10 32  1  0  0  0  0
 10 33  1  0  0  0  0
 10 34  1  0  0  0  0
 11 16  1  0  0  0  0
 11 12  1  0  0  0  0
 11 35  1  0  0  0  0
 12 13  1  0  0  0  0
 12 36  1  0  0  0  0
 12 37  1  0  0  0  0
 13 17  1  0  0  0  0
 13 14  1  0  0  0  0
 13 38  1  0  0  0  0
 14 15  1  0  0  0  0
 14 39  1  0  0  0  0
 14 40  1  0  0  0  0
 15 16  1  0  0  0  0
 15 41  1  0  0  0  0
 15 42  1  0  0  0  0
 16 17  1  0  0  0  0
 16 43  1  0  0  0  0
 17 44  1  0  0  0  0
 17 45  1  0  0  0  0
 18 19  2  0  0  0  0
 18 20  1  0  0  0  0
 20 21  1  0  0  0  0
 20 23  2  0  0  0  0
 21 22  3  0  0  0  0
 23 24  1  0  0  0  0
 24 46  1  0  0  0  0
 24 47  1  0  0  0  0
 24 48  1  0  0  0  0
M  END
> <s_m_source_file>
AV-unprocessed.smi

> <i_m_source_file_index>
1401

> <i_lp_mmshare_version>
43012

> <i_f3d_flags>
0

> <s_epik_input>
TiNDYyhjMVtDSDNdKWMoPU8pbihuYzFbQ0gzXSlbQ0gyXUMoPU8pW05IXVtDQEhdKFtDSDNdKVtDQEhdKFtDSDJdW0NASF0yMylbQ0BIXShbQ0gyXTMpW0NIMl1bQ0gyXTI=

> <s_epik_cmdline>
J2VwaWtfcHl0aG9uJywgJy1waCcsICc3LjAnLCAnLXRuJywgJzgnLCAnLW1hJywgJzIwMCcsICctbWV0YWxfYmluZGluZycsICctaW1hZScsICc8aW5maWxlLm1hZT4nLCAnLW9tYWUnLCAnPG91dGZpbGUubWFlPic=

> <r_lp_tautomer_probability>
1

> <r_epik_Ionization_Penalty>
2.16501e-08

> <r_epik_Ionization_Penalty_Charging>
2.29436e-11

> <r_epik_Ionization_Penalty_Neutral>
2.16271e-08

> <r_epik_State_Penalty>
-0

> <r_epik_Charging_Adjusted_Penalty>
2.29436e-11

> <i_epik_Tot_Q>
0

> <i_epik_Tot_abs_Q>
0

> <r_epik_Metal_State_Penalty>
-0

> <b_epik_Metal_Only>
0

> <s_lp_Force_Field>
OPLS_2005

> <r_lp_Energy>
65.4856

> <b_lp_Chiralities_Consistent>
1

> <s_lp_Variant>
AV-unprocessed.smi:1401-2

> <Gold.Version>
5.8.1

> <Gold.Id.Protein>
6NUR|6NUR_protein|mol2

> <Gold.PLP.Fitness>
45.1750

> <Gold.PLP.PLP>
-42.4508

> <Gold.PLP.part.hbond>
-2.0000

> <Gold.PLP.part.metal>
0.0000

> <Gold.PLP.part.buried>
-3.2858

> <Gold.PLP.part.nonpolar>
-37.0520

> <Gold.PLP.part.repulsive>
0.1696

> <Gold.PLP.ligand.clash>
0.0000

> <Gold.PLP.ligand.torsion>
1.5975

> <Gold.PLP.Chemscore.Hbond>
1.9600

> <Gold.PLP.Chemscore.CHOScore>
0.0000

> <Gold.PLP.Chemscore.Metal>
0.0000

> <Gold.Chemscore.Hbonds>
donor molecule, donor type, donor heavy atom, donor atom, acceptor molecule, acceptor atom, score
      P1  H  7997  8009       L1     7  0.98
      P1  H 10752 10763       L1    19  1.00

> <Gold.PLP.Chemscore.Internal.Correction>
0.0393

> <Gold.Rescore>
     Score         DG    S(hbond)    S(metal)    S(lipo)     H(rot)  DE(clash)    DE(int)     intcor
     20.06     -23.14       1.93        0.00     131.41       1.63       0.20       2.88       ----

> <Gold.Chemscore.Fitness>
20.0622

> <Gold.Chemscore.DG>
-23.1423

> <Gold.Chemscore.ZeroCoef>
-5.4800

> <Gold.Chemscore.Hbond>
1.9327

> <Gold.Chemscore.Metal>
0.0000

> <Gold.Chemscore.Lipo>
131.4087

> <Gold.Chemscore.Internal_Hbond>
0.0000

> <Gold.Chemscore.DEClash>
0.1969

> <Gold.Chemscore.DEInternal>
2.8832

> <Gold.Chemscore.Rot>
1.6281

> <Gold.Chemscore.Internal.Correction>
   9.000000E+99

> <Gold.Chemscore.Hbonds>
donor molecule, donor type, donor heavy atom, donor atom, acceptor molecule, acceptor atom, score
      P1  H  7997  8009       L1     7  0.92
      P1  H 10752 10763       L1    19  0.93

> <Gold.Chemscore.Hbond.Weighted>
-6.4553

> <Gold.Chemscore.Metal.Weighted>
-0.0000

> <Gold.Chemscore.Lipo.Weighted>
-15.3748

> <Gold.Chemscore.Internal_Hbond.Weighted>
0.0000

> <Gold.Chemscore.DEClash.Weighted>
0.1969

> <Gold.Chemscore.DEInternal.Weighted>
2.8832

> <Gold.Chemscore.Rot.Weighted>
4.1678

> <Gold.Chemscore.Internal.Correction.Weighted>
   9.000000E+99

> <Gold.Protein.RotatedTorsions>
[ 6907 6896 6895 6894 ] final  -89.33 input  -60.11 | X-H torsion
[ 7974 7965 7964 7962 ] final  -51.49 input  175.53 | X-H torsion
[ 8008 7997 7996 7995 ] final  172.80 input   59.86 | X-H torsion
[ 10167 10162 10161 10158 ] final  143.86 input  -65.29 | X-H torsion
[ 10718 10713 10712 10709 ] final  -35.60 input   66.30 | X-H torsion
[ 10763 10752 10751 10750 ] final  136.04 input  -60.55 | X-H torsion
[ 11005 11000 10999 10996 ] final  -20.82 input  -57.11 | X-H torsion

> <Gold.Protein.ActiveResidues>
 VAL166  LYS551  ARG553  GLY616  TRP617  ASP618  TYR619  PRO620  LYS621  CYS622 
 ASP623  PHE694  ASN695  SER759  ASP760  ASP761  ALA762  ILE779  LEU786  VAL792 
 PHE793  MET794  SER795  GLU796  ALA797  LYS798  CYS799  TRP800  GLU811  SER814 

> <Gold.Protein.RotatedAtoms>
  150.6873  134.2603  159.4546 H   0  0  0  0  0  0  0  0  0  0  0  0  # atno 6907 bound_to 6896
  152.0534  134.9637  160.0584 H   0  0  0  0  0  0  0  0  0  0  0  0  # atno 6908 bound_to 6896
  152.1092  133.4257  159.4660 H   0  0  0  0  0  0  0  0  0  0  0  0  # atno 6909 bound_to 6896
  145.9183  140.7855  142.9660 H   0  0  0  0  0  0  0  0  0  0  0  0  # atno 7974 bound_to 7965
  156.1139  140.1476  156.9300 H   0  0  0  0  0  0  0  0  0  0  0  0  # atno 8008 bound_to 7997
  154.4786  140.0886  156.7366 H   0  0  0  0  0  0  0  0  0  0  0  0  # atno 8009 bound_to 7997
  155.4548  140.3436  155.4307 H   0  0  0  0  0  0  0  0  0  0  0  0  # atno 8010 bound_to 7997
  139.4960  144.6011  151.6478 H   0  0  0  0  0  0  0  0  0  0  0  0  # atno 10167 bound_to 10162
  156.3367  130.4287  149.7824 H   0  0  0  0  0  0  0  0  0  0  0  0  # atno 10718 bound_to 10713
  153.8500  135.3080  155.3432 H   0  0  0  0  0  0  0  0  0  0  0  0  # atno 10763 bound_to 10752
  154.7895  135.4790  154.0024 H   0  0  0  0  0  0  0  0  0  0  0  0  # atno 10764 bound_to 10752
  153.1524  135.6845  153.8955 H   0  0  0  0  0  0  0  0  0  0  0  0  # atno 10765 bound_to 10752
  140.8501  133.7863  155.9957 H   0  0  0  0  0  0  0  0  0  0  0  0  # atno 11005 bound_to 11000
  144.6750  140.1936  143.7394 LP  0  0  0  0  0  0  0  0  0  0  0  0  # atno 17320 bound_to 7965
  145.8582  139.2209  143.1732 LP  0  0  0  0  0  0  0  0  0  0  0  0  # atno 17321 bound_to 7965
  140.5661  144.0187  150.6193 LP  0  0  0  0  0  0  0  0  0  0  0  0  # atno 17342 bound_to 10162
  140.3289  143.3090  152.0707 LP  0  0  0  0  0  0  0  0  0  0  0  0  # atno 17343 bound_to 10162
  156.5076  130.8157  151.3156 LP  0  0  0  0  0  0  0  0  0  0  0  0  # atno 17370 bound_to 10713
  157.7440  130.9924  150.2636 LP  0  0  0  0  0  0  0  0  0  0  0  0  # atno 17371 bound_to 10713
  140.8799  134.2624  157.5149 LP  0  0  0  0  0  0  0  0  0  0  0  0  # atno 17394 bound_to 11000
  139.8704  134.9610  156.4381 LP  0  0  0  0  0  0  0  0  0  0  0  0  # atno 17395 bound_to 11000

$$$$
