AV-unprocessed.smi:2032|AV-procd|sdf|8240|dock3
  -GOLD-   2272010513D 1   1.00000     0.00000
 Structure written by MMmdl.
 43 44  0  0  0  0  0  0  0  0  2 V2000
  148.6614  141.5686  154.4588 C   0  0  0  0  0  0  0  0  0  0  0  0
  149.2376  140.1856  154.7802 C   0  0  1  0  0  0  0  0  0  0  0  0
  148.8215  139.1267  153.7395 C   0  0  0  0  0  0  0  0  0  0  0  0
  149.4213  137.8013  154.0532 N   0  3  2  0  0  0  0  0  0  0  0  0
  148.8190  137.0332  155.1947 C   0  0  1  0  0  0  0  0  0  0  0  0
  148.9061  137.7777  156.5489 C   0  0  0  0  0  0  0  0  0  0  0  0
  147.3396  136.6796  154.8831 C   0  0  0  0  0  0  0  0  0  0  0  0
  147.1674  136.0236  153.5899 N   0  0  0  0  0  0  0  0  0  0  0  0
  146.2051  135.1323  153.3109 C   0  0  0  0  0  0  0  0  0  0  0  0
  145.3567  134.7771  154.1302 O   0  0  0  0  0  0  0  0  0  0  0  0
  146.2944  134.6957  152.0424 N   0  0  0  0  0  0  0  0  0  0  0  0
  145.4516  133.7702  151.3726 C   0  0  0  0  0  0  0  0  0  0  0  0
  145.8669  132.9163  150.4298 N   0  0  0  0  0  0  0  0  0  0  0  0
  144.8241  132.1216  149.9465 C   0  0  0  0  0  0  0  0  0  0  0  0
  143.6137  132.3846  150.5380 C   0  0  0  0  0  0  0  0  0  0  0  0
  143.7352  133.6503  151.7308 S   0  0  0  0  0  0  0  0  0  0  0  0
  150.8998  137.9593  154.1368 C   0  0  0  0  0  0  0  0  0  0  0  0
  151.3026  139.0692  155.1348 C   0  0  1  0  0  0  0  0  0  0  0  0
  152.8150  139.3179  155.1353 C   0  0  0  0  0  0  0  0  0  0  0  0
  150.6575  140.2866  154.7758 O   0  0  0  0  0  0  0  0  0  0  0  0
  147.5714  141.5486  154.4564 H   0  0  0  0  0  0  0  0  0  0  0  0
  148.9925  141.9181  153.4804 H   0  0  0  0  0  0  0  0  0  0  0  0
  148.9777  142.3037  155.1994 H   0  0  0  0  0  0  0  0  0  0  0  0
  148.8982  139.8941  155.7754 H   0  0  0  0  0  0  0  0  0  0  0  0
  147.7400  139.0761  153.6234 H   0  0  0  0  0  0  0  0  0  0  0  0
  149.1888  139.4339  152.7591 H   0  0  0  0  0  0  0  0  0  0  0  0
  149.3813  136.1078  155.3146 H   0  0  0  0  0  0  0  0  0  0  0  0
  148.4181  137.2208  157.3485 H   0  0  0  0  0  0  0  0  0  0  0  0
  148.4299  138.7572  156.4965 H   0  0  0  0  0  0  0  0  0  0  0  0
  149.9364  137.9146  156.8761 H   0  0  0  0  0  0  0  0  0  0  0  0
  146.9522  136.0109  155.6523 H   0  0  0  0  0  0  0  0  0  0  0  0
  146.6932  137.5558  154.8977 H   0  0  0  0  0  0  0  0  0  0  0  0
  147.8269  136.2612  152.8631 H   0  0  0  0  0  0  0  0  0  0  0  0
  147.0502  135.0711  151.4886 H   0  0  0  0  0  0  0  0  0  0  0  0
  145.0329  131.3904  149.1793 H   0  0  0  0  0  0  0  0  0  0  0  0
  142.6619  131.9126  150.3452 H   0  0  0  0  0  0  0  0  0  0  0  0
  151.3973  137.0262  154.3923 H   0  0  0  0  0  0  0  0  0  0  0  0
  151.2647  138.2224  153.1428 H   0  0  0  0  0  0  0  0  0  0  0  0
  151.0071  138.7962  156.1483 H   0  0  0  0  0  0  0  0  0  0  0  0
  153.3607  138.4185  155.4219 H   0  0  0  0  0  0  0  0  0  0  0  0
  153.0798  140.1051  155.8416 H   0  0  0  0  0  0  0  0  0  0  0  0
  153.1666  139.6231  154.1494 H   0  0  0  0  0  0  0  0  0  0  0  0
  149.2416  137.2301  153.2397 H   0  0  0  0  0  0  0  0  0  0  0  0
  1  2  1  0  0  0  0
  1 21  1  0  0  0  0
  1 22  1  0  0  0  0
  1 23  1  0  0  0  0
  2 20  1  0  0  0  0
  2  3  1  0  0  0  0
  2 24  1  0  0  0  0
  3  4  1  0  0  0  0
  3 25  1  0  0  0  0
  3 26  1  0  0  0  0
  4  5  1  0  0  0  0
  4 17  1  0  0  0  0
  4 43  1  0  0  0  0
  5  6  1  0  0  0  0
  5  7  1  0  0  0  0
  5 27  1  0  0  0  0
  6 28  1  0  0  0  0
  6 29  1  0  0  0  0
  6 30  1  0  0  0  0
  7  8  1  0  0  0  0
  7 31  1  0  0  0  0
  7 32  1  0  0  0  0
  8  9  1  0  0  0  0
  8 33  1  0  0  0  0
  9 10  2  0  0  0  0
  9 11  1  0  0  0  0
 11 12  1  0  0  0  0
 11 34  1  0  0  0  0
 12 16  1  0  0  0  0
 12 13  2  0  0  0  0
 13 14  1  0  0  0  0
 14 15  2  0  0  0  0
 14 35  1  0  0  0  0
 15 16  1  0  0  0  0
 15 36  1  0  0  0  0
 17 18  1  0  0  0  0
 17 37  1  0  0  0  0
 17 38  1  0  0  0  0
 18 19  1  0  0  0  0
 18 20  1  0  0  0  0
 18 39  1  0  0  0  0
 19 40  1  0  0  0  0
 19 41  1  0  0  0  0
 19 42  1  0  0  0  0
M  CHG  1   4   1
M  END
> <s_m_source_file>
AV-unprocessed.smi

> <i_m_source_file_index>
2032

> <i_lp_mmshare_version>
43012

> <i_f3d_flags>
0

> <s_epik_input>
W0NIM11bQ0BASF0xW0NIMl1OKFtDSDJdW0NASF0oTzEpW0NIM10pW0NASF0oW0NIM10pW0NIMl1bTkhdQyg9TylbTkhdYzJuW2NIXVtjSF1zMg==

> <s_epik_cmdline>
J2VwaWtfcHl0aG9uJywgJy1waCcsICc3LjAnLCAnLXRuJywgJzgnLCAnLW1hJywgJzIwMCcsICctbWV0YWxfYmluZGluZycsICctaW1hZScsICc8aW5maWxlLm1hZT4nLCAnLW9tYWUnLCAnPG91dGZpbGUubWFlPic=

> <r_lp_tautomer_probability>
0.999

> <r_epik_Ionization_Penalty>
0.695838

> <r_epik_Ionization_Penalty_Charging>
0.695697

> <r_epik_Ionization_Penalty_Neutral>
0.000141198

> <r_epik_State_Penalty>
0.717972

> <r_epik_Charging_Adjusted_Penalty>
1.41367

> <i_epik_Tot_Q>
1

> <i_epik_Tot_abs_Q>
1

> <r_epik_Metal_State_Penalty>
0.756405

> <b_epik_Metal_Only>
0

> <s_lp_Force_Field>
OPLS_2005

> <r_lp_Energy>
19.2871

> <b_lp_Chiralities_Consistent>
1

> <s_lp_Variant>
AV-unprocessed.smi:2032-10

> <Gold.Version>
5.8.1

> <Gold.Id.Protein>
6NUR|6NUR_protein|mol2

> <Gold.PLP.Fitness>
47.5666

> <Gold.PLP.PLP>
-32.2761

> <Gold.PLP.part.hbond>
-3.8476

> <Gold.PLP.part.metal>
0.0000

> <Gold.PLP.part.buried>
-1.2960

> <Gold.PLP.part.nonpolar>
-27.9243

> <Gold.PLP.part.repulsive>
0.3425

> <Gold.PLP.ligand.clash>
0.0000

> <Gold.PLP.ligand.torsion>
0.4751

> <Gold.PLP.Chemscore.Hbond>
4.3954

> <Gold.PLP.Chemscore.CHOScore>
1.0000

> <Gold.PLP.Chemscore.Metal>
0.0000

> <Gold.Chemscore.Hbonds>
donor molecule, donor type, donor heavy atom, donor atom, acceptor molecule, acceptor atom, score
      L1  H     4    43       P1  7948  2.00
      L1  H     8    33       P1  7948  0.94
      L1  H    11    34       P1  7948  0.42
      P1  H  7989  7998       L1    20  1.00
      L1  C    15    36       P1 10952  0.99

> <Gold.PLP.Chemscore.Internal.Correction>
0.0544

> <Gold.Rescore>
     Score         DG    S(hbond)    S(metal)    S(lipo)     H(rot)  DE(clash)    DE(int)     intcor
     17.45     -20.11       3.05        0.00      73.17       1.61       0.44       2.21       ----

> <Gold.Chemscore.Fitness>
17.4510

> <Gold.Chemscore.DG>
-20.1076

> <Gold.Chemscore.ZeroCoef>
-5.4800

> <Gold.Chemscore.Hbond>
3.0512

> <Gold.Chemscore.Metal>
0.0000

> <Gold.Chemscore.Lipo>
73.1691

> <Gold.Chemscore.Internal_Hbond>
0.0000

> <Gold.Chemscore.DEClash>
0.4423

> <Gold.Chemscore.DEInternal>
2.2142

> <Gold.Chemscore.Rot>
1.6110

> <Gold.Chemscore.Internal.Correction>
   9.000000E+99

> <Gold.Chemscore.Hbonds>
donor molecule, donor type, donor heavy atom, donor atom, acceptor molecule, acceptor atom, score
      L1  H     4    43       P1  7948  0.98
      L1  H     8    33       P1  7948  0.90
      L1  H    11    34       P1  7948  0.36
      P1  H  7989  7998       L1    20  0.39

> <Gold.Chemscore.Hbond.Weighted>
-10.1909

> <Gold.Chemscore.Metal.Weighted>
-0.0000

> <Gold.Chemscore.Lipo.Weighted>
-8.5608

> <Gold.Chemscore.Internal_Hbond.Weighted>
0.0000

> <Gold.Chemscore.DEClash.Weighted>
0.4423

> <Gold.Chemscore.DEInternal.Weighted>
2.2142

> <Gold.Chemscore.Rot.Weighted>
4.1242

> <Gold.Chemscore.Internal.Correction.Weighted>
   9.000000E+99

> <Gold.Protein.RotatedTorsions>
[ 6907 6896 6895 6894 ] final  -74.23 input  -60.11 | X-H torsion
[ 7974 7965 7964 7962 ] final  105.12 input  175.53 | X-H torsion
[ 8008 7997 7996 7995 ] final   40.58 input   59.86 | X-H torsion
[ 10167 10162 10161 10158 ] final -136.51 input  -65.29 | X-H torsion
[ 10718 10713 10712 10709 ] final  -38.32 input   66.30 | X-H torsion
[ 10763 10752 10751 10750 ] final  126.32 input  -60.55 | X-H torsion
[ 11005 11000 10999 10996 ] final  122.74 input  -57.11 | X-H torsion

> <Gold.Protein.ActiveResidues>
 VAL166  LYS551  ARG553  GLY616  TRP617  ASP618  TYR619  PRO620  LYS621  CYS622 
 ASP623  PHE694  ASN695  SER759  ASP760  ASP761  ALA762  ILE779  LEU786  VAL792 
 PHE793  MET794  SER795  GLU796  ALA797  LYS798  CYS799  TRP800  GLU811  SER814 

> <Gold.Protein.RotatedAtoms>
  150.7101  134.4900  159.5510 H   0  0  0  0  0  0  0  0  0  0  0  0  # atno 6907 bound_to 6896
  152.2519  134.8120  160.0453 H   0  0  0  0  0  0  0  0  0  0  0  0  # atno 6908 bound_to 6896
  151.8865  133.3471  159.3820 H   0  0  0  0  0  0  0  0  0  0  0  0  # atno 6909 bound_to 6896
  145.3239  139.2505  143.3697 H   0  0  0  0  0  0  0  0  0  0  0  0  # atno 7974 bound_to 7965
  155.2554  140.3355  155.4278 H   0  0  0  0  0  0  0  0  0  0  0  0  # atno 8008 bound_to 7997
  156.2197  140.1804  156.7548 H   0  0  0  0  0  0  0  0  0  0  0  0  # atno 8009 bound_to 7997
  154.5807  140.0654  156.9085 H   0  0  0  0  0  0  0  0  0  0  0  0  # atno 8010 bound_to 7997
  139.8670  143.7005  152.2644 H   0  0  0  0  0  0  0  0  0  0  0  0  # atno 10167 bound_to 10162
  156.3051  130.4245  149.8105 H   0  0  0  0  0  0  0  0  0  0  0  0  # atno 10718 bound_to 10713
  153.6914  135.3298  155.3203 H   0  0  0  0  0  0  0  0  0  0  0  0  # atno 10763 bound_to 10752
  154.8439  135.4432  154.1504 H   0  0  0  0  0  0  0  0  0  0  0  0  # atno 10764 bound_to 10752
  153.2547  135.6985  153.7719 H   0  0  0  0  0  0  0  0  0  0  0  0  # atno 10765 bound_to 10752
  139.9281  134.9641  156.8154 H   0  0  0  0  0  0  0  0  0  0  0  0  # atno 11005 bound_to 11000
  146.3072  140.3802  142.8683 LP  0  0  0  0  0  0  0  0  0  0  0  0  # atno 17320 bound_to 7965
  144.8917  140.7532  143.5922 LP  0  0  0  0  0  0  0  0  0  0  0  0  # atno 17321 bound_to 7965
  139.7319  144.7580  151.0788 LP  0  0  0  0  0  0  0  0  0  0  0  0  # atno 17342 bound_to 10162
  140.7766  143.5077  150.9691 LP  0  0  0  0  0  0  0  0  0  0  0  0  # atno 17343 bound_to 10162
  156.5469  130.8324  151.3287 LP  0  0  0  0  0  0  0  0  0  0  0  0  # atno 17370 bound_to 10713
  157.7377  130.9801  150.2212 LP  0  0  0  0  0  0  0  0  0  0  0  0  # atno 17371 bound_to 10713
  140.6278  133.9934  155.7648 LP  0  0  0  0  0  0  0  0  0  0  0  0  # atno 17394 bound_to 11000
  141.0853  134.0000  157.3323 LP  0  0  0  0  0  0  0  0  0  0  0  0  # atno 17395 bound_to 11000

$$$$
