AV-unprocessed.smi:2999|AV-procd|sdf|11420|dock2
  -GOLD-   2272016343D 1   1.00000     0.00000
 Structure written by MMmdl.
 38 40  0  0  0  0  0  0  0  0  2 V2000
  146.3833  139.4447  153.9475 O   0  0  0  0  0  0  0  0  0  0  0  0
  147.1970  138.7093  153.3885 C   0  0  0  0  0  0  0  0  0  0  0  0
  146.8462  137.6996  152.5795 N   0  0  0  0  0  0  0  0  0  0  0  0
  145.4741  137.3243  152.2477 C   0  0  0  0  0  0  0  0  0  0  0  0
  145.2491  135.7983  152.2206 C   0  0  1  0  0  0  0  0  0  0  0  0
  145.6700  135.1322  150.8898 C   0  0  0  0  0  0  0  0  0  0  0  0
  145.4808  133.6630  150.9353 N   0  3  2  0  0  0  0  0  0  0  0  0
  144.0683  133.2443  150.7789 C   0  0  0  0  0  0  0  0  0  0  0  0
  143.8952  131.7504  150.6370 C   0  0  0  0  0  0  0  0  0  0  0  0
  143.7599  132.6466  149.4260 C   0  0  0  0  0  0  0  0  0  0  0  0
  146.1387  133.0806  152.1288 C   0  0  0  0  0  0  0  0  0  0  0  0
  145.7053  133.8047  153.4167 C   0  0  0  0  0  0  0  0  0  0  0  0
  145.9652  135.1973  153.2948 O   0  0  0  0  0  0  0  0  0  0  0  0
  148.5335  138.7991  153.5022 N   0  0  0  0  0  0  0  0  0  0  0  0
  149.2883  139.7246  154.2699 C   0  0  0  0  0  0  0  0  0  0  0  0
  150.4622  139.4449  154.8482 N   0  0  0  0  0  0  0  0  0  0  0  0
  150.9801  140.5428  155.5399 C   0  0  0  0  0  0  0  0  0  0  0  0
  150.1826  141.6582  155.4754 C   0  0  0  0  0  0  0  0  0  0  0  0
  148.7402  141.3726  154.5388 S   0  0  0  0  0  0  0  0  0  0  0  0
  147.5820  137.1516  152.1583 H   0  0  0  0  0  0  0  0  0  0  0  0
  144.7718  137.8002  152.9340 H   0  0  0  0  0  0  0  0  0  0  0  0
  145.2570  137.7353  151.2616 H   0  0  0  0  0  0  0  0  0  0  0  0
  144.1844  135.6304  152.3889 H   0  0  0  0  0  0  0  0  0  0  0  0
  145.1170  135.5578  150.0517 H   0  0  0  0  0  0  0  0  0  0  0  0
  146.7258  135.3209  150.6923 H   0  0  0  0  0  0  0  0  0  0  0  0
  143.3178  133.8351  151.3004 H   0  0  0  0  0  0  0  0  0  0  0  0
  144.7813  131.1209  150.6996 H   0  0  0  0  0  0  0  0  0  0  0  0
  142.9834  131.3104  151.0357 H   0  0  0  0  0  0  0  0  0  0  0  0
  142.7586  132.7975  149.0274 H   0  0  0  0  0  0  0  0  0  0  0  0
  144.5550  132.6104  148.6835 H   0  0  0  0  0  0  0  0  0  0  0  0
  145.9268  132.0129  152.1949 H   0  0  0  0  0  0  0  0  0  0  0  0
  147.2184  133.1760  152.0068 H   0  0  0  0  0  0  0  0  0  0  0  0
  144.6494  133.6360  153.6320 H   0  0  0  0  0  0  0  0  0  0  0  0
  146.2647  133.4175  154.2686 H   0  0  0  0  0  0  0  0  0  0  0  0
  149.0757  138.1279  152.9789 H   0  0  0  0  0  0  0  0  0  0  0  0
  151.9258  140.4425  156.0514 H   0  0  0  0  0  0  0  0  0  0  0  0
  150.3562  142.6266  155.9204 H   0  0  0  0  0  0  0  0  0  0  0  0
  145.9617  133.2866  150.1309 H   0  0  0  0  0  0  0  0  0  0  0  0
  1  2  2  0  0  0  0
  2  3  1  0  0  0  0
  2 14  1  0  0  0  0
  3  4  1  0  0  0  0
  3 20  1  0  0  0  0
  4  5  1  0  0  0  0
  4 21  1  0  0  0  0
  4 22  1  0  0  0  0
  5 13  1  0  0  0  0
  5  6  1  0  0  0  0
  5 23  1  0  0  0  0
  6  7  1  0  0  0  0
  6 24  1  0  0  0  0
  6 25  1  0  0  0  0
  7  8  1  0  0  0  0
  7 11  1  0  0  0  0
  7 38  1  0  0  0  0
  8 10  1  0  0  0  0
  8  9  1  0  0  0  0
  8 26  1  0  0  0  0
  9 10  1  0  0  0  0
  9 27  1  0  0  0  0
  9 28  1  0  0  0  0
 10 29  1  0  0  0  0
 10 30  1  0  0  0  0
 11 12  1  0  0  0  0
 11 31  1  0  0  0  0
 11 32  1  0  0  0  0
 12 13  1  0  0  0  0
 12 33  1  0  0  0  0
 12 34  1  0  0  0  0
 14 15  1  0  0  0  0
 14 35  1  0  0  0  0
 15 19  1  0  0  0  0
 15 16  2  0  0  0  0
 16 17  1  0  0  0  0
 17 18  2  0  0  0  0
 17 36  1  0  0  0  0
 18 19  1  0  0  0  0
 18 37  1  0  0  0  0
M  CHG  1   7   1
M  END
> <s_m_source_file>
AV-unprocessed.smi

> <i_m_source_file_index>
2999

> <i_lp_mmshare_version>
43012

> <i_f3d_flags>
0

> <s_epik_input>
czFbY0hdW2NIXW5jMVtOSF1DKD1PKVtOSF1bQ0gyXVtDQEBIXTJbQ0gyXU4oW0NIMl1bQ0gyXU8yKVtDSF0zW0NIMl1bQ0gyXTM=

> <s_epik_cmdline>
J2VwaWtfcHl0aG9uJywgJy1waCcsICc3LjAnLCAnLXRuJywgJzgnLCAnLW1hJywgJzIwMCcsICctbWV0YWxfYmluZGluZycsICctaW1hZScsICc8aW5maWxlLm1hZT4nLCAnLW9tYWUnLCAnPG91dGZpbGUubWFlPic=

> <r_lp_tautomer_probability>
0.999

> <r_epik_Ionization_Penalty>
1.55235

> <r_epik_Ionization_Penalty_Charging>
1.55221

> <r_epik_Ionization_Penalty_Neutral>
0.000139685

> <r_epik_State_Penalty>
1.64652

> <r_epik_Charging_Adjusted_Penalty>
3.19873

> <i_epik_Tot_Q>
1

> <i_epik_Tot_abs_Q>
1

> <r_epik_Metal_State_Penalty>
1.68612

> <b_epik_Metal_Only>
0

> <s_lp_Force_Field>
OPLS_2005

> <r_lp_Energy>
24.3861

> <b_lp_Chiralities_Consistent>
1

> <s_lp_Variant>
AV-unprocessed.smi:2999-4

> <Gold.Version>
5.8.1

> <Gold.Id.Protein>
6NUR|6NUR_protein|mol2

> <Gold.PLP.Fitness>
40.9398

> <Gold.PLP.PLP>
-34.5894

> <Gold.PLP.part.hbond>
-2.9275

> <Gold.PLP.part.metal>
0.0000

> <Gold.PLP.part.buried>
-3.4890

> <Gold.PLP.part.nonpolar>
-28.9560

> <Gold.PLP.part.repulsive>
0.4657

> <Gold.PLP.ligand.clash>
0.0000

> <Gold.PLP.ligand.torsion>
1.2700

> <Gold.PLP.Chemscore.Hbond>
1.5824

> <Gold.PLP.Chemscore.CHOScore>
0.9550

> <Gold.PLP.Chemscore.Metal>
0.0000

> <Gold.Chemscore.Hbonds>
donor molecule, donor type, donor heavy atom, donor atom, acceptor molecule, acceptor atom, score
      L1  H     3    20       P1  7948  1.00
      L1  H    14    35       P1  7948  0.58
      L1  C    18    37       P1  8028  0.85

> <Gold.PLP.Chemscore.Internal.Correction>
1.2781

> <Gold.Rescore>
     Score         DG    S(hbond)    S(metal)    S(lipo)     H(rot)  DE(clash)    DE(int)     intcor
     15.45     -16.81       1.91        0.00      76.81       1.58       0.05       1.31       ----

> <Gold.Chemscore.Fitness>
15.4496

> <Gold.Chemscore.DG>
-16.8149

> <Gold.Chemscore.ZeroCoef>
-5.4800

> <Gold.Chemscore.Hbond>
1.9136

> <Gold.Chemscore.Metal>
0.0000

> <Gold.Chemscore.Lipo>
76.8118

> <Gold.Chemscore.Internal_Hbond>
0.0000

> <Gold.Chemscore.DEClash>
0.0516

> <Gold.Chemscore.DEInternal>
1.3136

> <Gold.Chemscore.Rot>
1.5795

> <Gold.Chemscore.Internal.Correction>
   9.000000E+99

> <Gold.Chemscore.Hbonds>
donor molecule, donor type, donor heavy atom, donor atom, acceptor molecule, acceptor atom, score
      L1  H     3    20       P1  7948  1.00
      L1  H    14    35       P1  7948  0.57

> <Gold.Chemscore.Hbond.Weighted>
-6.3913

> <Gold.Chemscore.Metal.Weighted>
-0.0000

> <Gold.Chemscore.Lipo.Weighted>
-8.9870

> <Gold.Chemscore.Internal_Hbond.Weighted>
0.0000

> <Gold.Chemscore.DEClash.Weighted>
0.0516

> <Gold.Chemscore.DEInternal.Weighted>
1.3136

> <Gold.Chemscore.Rot.Weighted>
4.0434

> <Gold.Chemscore.Internal.Correction.Weighted>
   9.000000E+99

> <Gold.Protein.RotatedTorsions>
[ 6907 6896 6895 6894 ] final   31.69 input  -60.11 | X-H torsion
[ 7974 7965 7964 7962 ] final -179.59 input  175.53 | X-H torsion
[ 8008 7997 7996 7995 ] final   31.41 input   59.86 | X-H torsion
[ 10167 10162 10161 10158 ] final  113.82 input  -65.29 | X-H torsion
[ 10718 10713 10712 10709 ] final  101.77 input   66.30 | X-H torsion
[ 10763 10752 10751 10750 ] final -133.57 input  -60.55 | X-H torsion
[ 11005 11000 10999 10996 ] final  -62.06 input  -57.11 | X-H torsion

> <Gold.Protein.ActiveResidues>
 VAL166  LYS551  ARG553  GLY616  TRP617  ASP618  TYR619  PRO620  LYS621  CYS622 
 ASP623  PHE694  ASN695  SER759  ASP760  ASP761  ALA762  ILE779  LEU786  VAL792 
 PHE793  MET794  SER795  GLU796  ALA797  LYS798  CYS799  TRP800  GLU811  SER814 

> <Gold.Protein.RotatedAtoms>
  152.0639  134.9577  160.0574 H   0  0  0  0  0  0  0  0  0  0  0  0  # atno 6907 bound_to 6896
  152.0929  133.4205  159.4560 H   0  0  0  0  0  0  0  0  0  0  0  0  # atno 6908 bound_to 6896
  150.6837  134.2769  159.4655 H   0  0  0  0  0  0  0  0  0  0  0  0  # atno 6909 bound_to 6896
  144.7137  140.0695  143.6430 H   0  0  0  0  0  0  0  0  0  0  0  0  # atno 7974 bound_to 7965
  155.1059  140.3234  155.4534 H   0  0  0  0  0  0  0  0  0  0  0  0  # atno 8008 bound_to 7997
  156.2704  140.2052  156.6132 H   0  0  0  0  0  0  0  0  0  0  0  0  # atno 8009 bound_to 7997
  154.6793  140.0528  157.0236 H   0  0  0  0  0  0  0  0  0  0  0  0  # atno 8010 bound_to 7997
  139.6433  144.7125  151.2193 H   0  0  0  0  0  0  0  0  0  0  0  0  # atno 10167 bound_to 10162
  157.6820  131.0735  150.5302 H   0  0  0  0  0  0  0  0  0  0  0  0  # atno 10718 bound_to 10713
  154.8731  135.3762  154.4594 H   0  0  0  0  0  0  0  0  0  0  0  0  # atno 10763 bound_to 10752
  153.5263  135.7028  153.5710 H   0  0  0  0  0  0  0  0  0  0  0  0  # atno 10764 bound_to 10752
  153.3935  135.3966  155.1904 H   0  0  0  0  0  0  0  0  0  0  0  0  # atno 10765 bound_to 10752
  141.1346  133.6636  156.5470 H   0  0  0  0  0  0  0  0  0  0  0  0  # atno 11005 bound_to 11000
  145.9795  139.2930  143.1050 LP  0  0  0  0  0  0  0  0  0  0  0  0  # atno 17320 bound_to 7965
  145.9026  140.9233  143.0495 LP  0  0  0  0  0  0  0  0  0  0  0  0  # atno 17321 bound_to 7965
  140.7502  143.6274  150.8455 LP  0  0  0  0  0  0  0  0  0  0  0  0  # atno 17342 bound_to 10162
  139.9914  143.5843  152.2909 LP  0  0  0  0  0  0  0  0  0  0  0  0  # atno 17343 bound_to 10162
  156.5612  130.4256  149.6062 LP  0  0  0  0  0  0  0  0  0  0  0  0  # atno 17370 bound_to 10713
  156.2819  130.7075  151.1902 LP  0  0  0  0  0  0  0  0  0  0  0  0  # atno 17371 bound_to 10713
  140.4094  134.7286  157.4827 LP  0  0  0  0  0  0  0  0  0  0  0  0  # atno 17394 bound_to 11000
  140.0438  134.6229  155.8947 LP  0  0  0  0  0  0  0  0  0  0  0  0  # atno 17395 bound_to 11000

$$$$
