AV-unprocessed.smi:578|AV-procd|sdf|2981|dock2
  -GOLD-   2262023493D 1   1.00000     0.00000
 Structure written by MMmdl.
 33 34  0  0  0  0  0  0  0  0  3 V2000
  153.3280  142.2663  161.2055 C   0  0  0  0  0  0  0  0  0  0  0  0
  152.2885  142.7363  160.1828 C   0  0  2  0  0  0  0  0  0  0  0  0
  152.1111  141.7240  159.0370 C   0  0  0  0  0  0  0  0  0  0  0  0
  151.1945  142.2578  158.0394 N   0  0  0  0  0  0  0  0  0  0  0  0
  150.8557  141.3349  157.0407 C   0  0  0  0  0  0  0  0  0  0  0  0
  149.5336  141.3096  156.5476 C   0  0  0  0  0  0  0  0  0  0  0  0
  149.1895  140.3810  155.5457 C   0  0  0  0  0  0  0  0  0  0  0  0
  150.1235  139.5303  155.0703 N   0  3  0  0  0  0  0  0  0  0  0  0
  151.4040  139.5121  155.5059 C   0  0  0  0  0  0  0  0  0  0  0  0
  152.3586  138.5223  154.9063 C   0  0  0  0  0  0  0  0  0  0  0  0
  151.9294  137.3933  154.5824 O   0  0  0  0  0  0  0  0  0  0  0  0
  153.5525  138.8642  154.7519 O   0  5  0  0  0  0  0  0  0  0  0  0
  151.8005  140.4245  156.5109 C   0  0  0  0  0  0  0  0  0  0  0  0
  151.6368  143.5426  157.5131 C   0  0  0  0  0  0  0  0  0  0  0  0
  151.8633  144.5521  158.6566 C   0  0  1  0  0  0  0  0  0  0  0  0
  150.5580  145.0938  159.2663 C   0  0  0  0  0  0  0  0  0  0  0  0
  152.7258  143.9864  159.6479 O   0  0  0  0  0  0  0  0  0  0  0  0
  153.0380  141.3141  161.6504 H   0  0  0  0  0  0  0  0  0  0  0  0
  153.4353  142.9912  162.0129 H   0  0  0  0  0  0  0  0  0  0  0  0
  154.3069  142.1358  160.7430 H   0  0  0  0  0  0  0  0  0  0  0  0
  151.3398  142.8703  160.7033 H   0  0  0  0  0  0  0  0  0  0  0  0
  153.0766  141.5124  158.5752 H   0  0  0  0  0  0  0  0  0  0  0  0
  151.7255  140.7806  159.4257 H   0  0  0  0  0  0  0  0  0  0  0  0
  148.7907  141.9926  156.9330 H   0  0  0  0  0  0  0  0  0  0  0  0
  148.2037  140.2924  155.1135 H   0  0  0  0  0  0  0  0  0  0  0  0
  152.8190  140.4264  156.8719 H   0  0  0  0  0  0  0  0  0  0  0  0
  152.5699  143.4042  156.9648 H   0  0  0  0  0  0  0  0  0  0  0  0
  150.9060  143.9313  156.8026 H   0  0  0  0  0  0  0  0  0  0  0  0
  152.3961  145.4082  158.2421 H   0  0  0  0  0  0  0  0  0  0  0  0
  149.9748  145.6290  158.5168 H   0  0  0  0  0  0  0  0  0  0  0  0
  150.7693  145.7899  160.0783 H   0  0  0  0  0  0  0  0  0  0  0  0
  149.9247  144.3004  159.6621 H   0  0  0  0  0  0  0  0  0  0  0  0
  149.8595  138.8626  154.3450 H   0  0  0  0  0  0  0  0  0  0  0  0
  1  2  1  0  0  0  0
  1 18  1  0  0  0  0
  1 19  1  0  0  0  0
  1 20  1  0  0  0  0
  2 17  1  0  0  0  0
  2  3  1  0  0  0  0
  2 21  1  0  0  0  0
  3  4  1  0  0  0  0
  3 22  1  0  0  0  0
  3 23  1  0  0  0  0
  4  5  1  0  0  0  0
  4 14  1  0  0  0  0
  5 13  1  0  0  0  0
  5  6  2  0  0  0  0
  6  7  1  0  0  0  0
  6 24  1  0  0  0  0
  7  8  2  0  0  0  0
  7 25  1  0  0  0  0
  8  9  1  0  0  0  0
  8 33  1  0  0  0  0
  9 10  1  0  0  0  0
  9 13  2  0  0  0  0
 10 11  2  0  0  0  0
 10 12  1  0  0  0  0
 13 26  1  0  0  0  0
 14 15  1  0  0  0  0
 14 27  1  0  0  0  0
 14 28  1  0  0  0  0
 15 16  1  0  0  0  0
 15 17  1  0  0  0  0
 15 29  1  0  0  0  0
 16 30  1  0  0  0  0
 16 31  1  0  0  0  0
 16 32  1  0  0  0  0
M  CHG  1   8   1
M  CHG  1  12  -1
M  END
> <s_m_source_file>
AV-unprocessed.smi

> <i_m_source_file_index>
578

> <i_lp_mmshare_version>
43012

> <i_f3d_flags>
0

> <s_epik_input>
W0NIM11bQ0BASF0xW0NIMl1OKFtDSDJdW0NASF0oTzEpW0NIM10pYzJbY0hdW2NIXW5jKFtjSF0yKUMoPU8pW09IXQ==

> <s_epik_cmdline>
J2VwaWtfcHl0aG9uJywgJy1waCcsICc3LjAnLCAnLXRuJywgJzgnLCAnLW1hJywgJzIwMCcsICctbWV0YWxfYmluZGluZycsICctaW1hZScsICc8aW5maWxlLm1hZT4nLCAnLW9tYWUnLCAnPG91dGZpbGUubWFlPic=

> <r_epik_Ionization_Penalty>
0.0203651

> <r_epik_Ionization_Penalty_Charging>
0.0203651

> <r_epik_Ionization_Penalty_Neutral>
3.18831e-12

> <r_epik_State_Penalty>
0.0163096

> <r_epik_Charging_Adjusted_Penalty>
0.0366747

> <i_epik_Tot_Q>
0

> <i_epik_Tot_abs_Q>
2

> <r_epik_Metal_State_Penalty>
1.99323

> <b_epik_Metal_Only>
0

> <s_lp_Force_Field>
OPLS_2005

> <r_lp_Energy>
19.2563

> <b_lp_Chiralities_Consistent>
1

> <s_lp_Variant>
AV-unprocessed.smi:578-1

> <Gold.Version>
5.8.1

> <Gold.Id.Protein>
6NUR|6NUR_protein|mol2

> <Gold.PLP.Fitness>
46.8658

> <Gold.PLP.PLP>
-37.6562

> <Gold.PLP.part.hbond>
-2.0000

> <Gold.PLP.part.metal>
0.0000

> <Gold.PLP.part.buried>
-7.8098

> <Gold.PLP.part.nonpolar>
-30.1052

> <Gold.PLP.part.repulsive>
0.2609

> <Gold.PLP.ligand.clash>
0.0000

> <Gold.PLP.ligand.torsion>
1.1796

> <Gold.PLP.Chemscore.Hbond>
3.8240

> <Gold.PLP.Chemscore.CHOScore>
0.0000

> <Gold.PLP.Chemscore.Metal>
0.0000

> <Gold.Chemscore.Hbonds>
donor molecule, donor type, donor heavy atom, donor atom, acceptor molecule, acceptor atom, score
      P1  H  7997  8010       L1    12  2.00
      P1  H 10752 10764       L1    11  1.82

> <Gold.PLP.Chemscore.Internal.Correction>
0.0968

> <Gold.Rescore>
     Score         DG    S(hbond)    S(metal)    S(lipo)     H(rot)  DE(clash)    DE(int)     intcor
     19.12     -20.17       1.77        0.00      96.84       1.00       0.04       1.02       ----

> <Gold.Chemscore.Fitness>
19.1161

> <Gold.Chemscore.DG>
-20.1716

> <Gold.Chemscore.ZeroCoef>
-5.4800

> <Gold.Chemscore.Hbond>
1.7730

> <Gold.Chemscore.Metal>
0.0000

> <Gold.Chemscore.Lipo>
96.8360

> <Gold.Chemscore.Internal_Hbond>
0.0000

> <Gold.Chemscore.DEClash>
0.0402

> <Gold.Chemscore.DEInternal>
1.0152

> <Gold.Chemscore.Rot>
1.0000

> <Gold.Chemscore.Internal.Correction>
   9.000000E+99

> <Gold.Chemscore.Hbonds>
donor molecule, donor type, donor heavy atom, donor atom, acceptor molecule, acceptor atom, score
      P1  H  7997  8010       L1    12  0.94
      P1  H 10752 10764       L1    11  0.85

> <Gold.Chemscore.Hbond.Weighted>
-5.9218

> <Gold.Chemscore.Metal.Weighted>
-0.0000

> <Gold.Chemscore.Lipo.Weighted>
-11.3298

> <Gold.Chemscore.Internal_Hbond.Weighted>
0.0000

> <Gold.Chemscore.DEClash.Weighted>
0.0402

> <Gold.Chemscore.DEInternal.Weighted>
1.0152

> <Gold.Chemscore.Rot.Weighted>
2.5600

> <Gold.Chemscore.Internal.Correction.Weighted>
   9.000000E+99

> <Gold.Protein.RotatedTorsions>
[ 6907 6896 6895 6894 ] final   37.89 input  -60.11 | X-H torsion
[ 7974 7965 7964 7962 ] final -125.68 input  175.53 | X-H torsion
[ 8008 7997 7996 7995 ] final  105.30 input   59.86 | X-H torsion
[ 10167 10162 10161 10158 ] final    5.50 input  -65.29 | X-H torsion
[ 10718 10713 10712 10709 ] final -120.83 input   66.30 | X-H torsion
[ 10763 10752 10751 10750 ] final  -70.86 input  -60.55 | X-H torsion
[ 11005 11000 10999 10996 ] final   97.48 input  -57.11 | X-H torsion

> <Gold.Protein.ActiveResidues>
 VAL166  LYS551  ARG553  GLY616  TRP617  ASP618  TYR619  PRO620  LYS621  CYS622 
 ASP623  PHE694  ASN695  SER759  ASP760  ASP761  ALA762  ILE779  LEU786  VAL792 
 PHE793  MET794  SER795  GLU796  ALA797  LYS798  CYS799  TRP800  GLU811  SER814 

> <Gold.Protein.RotatedAtoms>
  152.1491  134.9002  160.0548 H   0  0  0  0  0  0  0  0  0  0  0  0  # atno 6907 bound_to 6896
  152.0041  133.3831  159.4201 H   0  0  0  0  0  0  0  0  0  0  0  0  # atno 6908 bound_to 6896
  150.6873  134.3724  159.5042 H   0  0  0  0  0  0  0  0  0  0  0  0  # atno 6909 bound_to 6896
  144.9950  140.7768  143.4531 H   0  0  0  0  0  0  0  0  0  0  0  0  # atno 7974 bound_to 7965
  156.1647  140.3133  155.8869 H   0  0  0  0  0  0  0  0  0  0  0  0  # atno 8008 bound_to 7997
  155.3710  140.0482  157.3062 H   0  0  0  0  0  0  0  0  0  0  0  0  # atno 8009 bound_to 7997
  154.5181  140.2188  155.9038 H   0  0  0  0  0  0  0  0  0  0  0  0  # atno 8010 bound_to 7997
  140.6478  143.7619  150.7527 H   0  0  0  0  0  0  0  0  0  0  0  0  # atno 10167 bound_to 10162
  156.1289  130.6380  150.9588 H   0  0  0  0  0  0  0  0  0  0  0  0  # atno 10718 bound_to 10713
  154.4236  135.5980  153.6025 H   0  0  0  0  0  0  0  0  0  0  0  0  # atno 10763 bound_to 10752
  152.9795  135.5958  154.3925 H   0  0  0  0  0  0  0  0  0  0  0  0  # atno 10764 bound_to 10752
  154.3753  135.2841  155.2221 H   0  0  0  0  0  0  0  0  0  0  0  0  # atno 10765 bound_to 10752
  139.8776  134.9002  156.4313 H   0  0  0  0  0  0  0  0  0  0  0  0  # atno 11005 bound_to 11000
  145.2232  139.2149  143.5082 LP  0  0  0  0  0  0  0  0  0  0  0  0  # atno 17320 bound_to 7965
  146.3440  140.2094  142.8590 LP  0  0  0  0  0  0  0  0  0  0  0  0  # atno 17321 bound_to 7965
  140.1263  143.4566  152.2282 LP  0  0  0  0  0  0  0  0  0  0  0  0  # atno 17342 bound_to 10162
  139.5690  144.7452  151.3942 LP  0  0  0  0  0  0  0  0  0  0  0  0  # atno 17343 bound_to 10162
  157.6468  131.0903  150.8136 LP  0  0  0  0  0  0  0  0  0  0  0  0  # atno 17370 bound_to 10713
  156.8223  130.4988  149.5341 LP  0  0  0  0  0  0  0  0  0  0  0  0  # atno 17371 bound_to 10713
  140.9065  133.7742  155.9741 LP  0  0  0  0  0  0  0  0  0  0  0  0  # atno 17394 bound_to 11000
  140.8594  134.2859  157.5241 LP  0  0  0  0  0  0  0  0  0  0  0  0  # atno 17395 bound_to 11000

$$$$
