AV-unprocessed.smi:500|AV-procd|sdf|2741|dock3
  -GOLD-   2262023203D 1   1.00000     0.00000
 Structure written by MMmdl.
 45 47  0  0  0  0  0  0  0  0  3 V2000
  148.2427  127.5125  149.8647 C   0  0  0  0  0  0  0  0  0  0  0  0
  148.7327  127.5618  151.3184 C   0  0  0  0  0  0  0  0  0  0  0  0
  148.2104  128.6820  152.0190 O   0  0  0  0  0  0  0  0  0  0  0  0
  148.9539  129.0504  153.1724 C   0  0  0  0  0  0  0  0  0  0  0  0
  148.1462  130.0520  154.0104 C   0  0  0  0  0  0  0  0  0  0  0  0
  148.0530  131.3770  153.3615 N   0  0  0  0  0  0  0  0  0  0  0  0
  148.7597  132.5364  153.5609 C   0  0  0  0  0  0  0  0  0  0  0  0
  149.8737  132.8035  154.5417 C   0  0  1  0  0  0  0  0  0  0  0  0
  150.5122  134.1710  154.2628 C   0  0  0  0  0  0  0  0  0  0  0  0
  149.3970  132.7690  155.9254 N   0  5  0  0  0  0  0  0  0  0  0  0
  150.1908  132.9873  157.0129 C   0  0  0  0  0  0  0  0  0  0  0  0
  151.2173  132.3996  157.3706 O   0  0  0  0  0  0  0  0  0  0  0  0
  149.6711  134.0759  157.8720 C   0  0  0  0  0  0  0  0  0  0  0  0
  148.4465  134.6915  157.9352 C   0  0  0  0  0  0  0  0  0  0  0  0
  148.5376  135.6863  158.9476 C   0  0  0  0  0  0  0  0  0  0  0  0
  149.8132  135.6155  159.4278 C   0  0  0  0  0  0  0  0  0  0  0  0
  150.5156  134.6459  158.7819 O   0  0  0  0  0  0  0  0  0  0  0  0
  148.2571  133.4615  152.6936 N   0  3  0  0  0  0  0  0  0  0  0  0
  147.2176  132.9089  151.9494 C   0  0  0  0  0  0  0  0  0  0  0  0
  146.4082  133.4676  150.9655 C   0  0  0  0  0  0  0  0  0  0  0  0
  145.4223  132.6293  150.4063 C   0  0  0  0  0  0  0  0  0  0  0  0
  145.2699  131.2934  150.8301 C   0  0  0  0  0  0  0  0  0  0  0  0
  146.0983  130.7390  151.8279 C   0  0  0  0  0  0  0  0  0  0  0  0
  147.0752  131.5727  152.3746 C   0  0  0  0  0  0  0  0  0  0  0  0
  148.5758  126.5958  149.3776 H   0  0  0  0  0  0  0  0  0  0  0  0
  148.6252  128.3487  149.2799 H   0  0  0  0  0  0  0  0  0  0  0  0
  147.1537  127.5372  149.8182 H   0  0  0  0  0  0  0  0  0  0  0  0
  148.3905  126.6657  151.8361 H   0  0  0  0  0  0  0  0  0  0  0  0
  149.8226  127.5469  151.3660 H   0  0  0  0  0  0  0  0  0  0  0  0
  149.1767  128.1688  153.7743 H   0  0  0  0  0  0  0  0  0  0  0  0
  149.9064  129.4962  152.8872 H   0  0  0  0  0  0  0  0  0  0  0  0
  147.1346  129.6788  154.1712 H   0  0  0  0  0  0  0  0  0  0  0  0
  148.5789  130.1631  155.0040 H   0  0  0  0  0  0  0  0  0  0  0  0
  150.6448  132.0493  154.3810 H   0  0  0  0  0  0  0  0  0  0  0  0
  150.9030  134.2175  153.2458 H   0  0  0  0  0  0  0  0  0  0  0  0
  151.3437  134.3632  154.9419 H   0  0  0  0  0  0  0  0  0  0  0  0
  149.7928  134.9826  154.3795 H   0  0  0  0  0  0  0  0  0  0  0  0
  147.5869  134.4536  157.3259 H   0  0  0  0  0  0  0  0  0  0  0  0
  147.7686  136.3678  159.2796 H   0  0  0  0  0  0  0  0  0  0  0  0
  150.3608  136.1540  160.1870 H   0  0  0  0  0  0  0  0  0  0  0  0
  146.5215  134.4930  150.6456 H   0  0  0  0  0  0  0  0  0  0  0  0
  144.7681  133.0198  149.6403 H   0  0  0  0  0  0  0  0  0  0  0  0
  144.5001  130.6814  150.3834 H   0  0  0  0  0  0  0  0  0  0  0  0
  145.9632  129.7170  152.1490 H   0  0  0  0  0  0  0  0  0  0  0  0
  148.5979  134.4129  152.6444 H   0  0  0  0  0  0  0  0  0  0  0  0
  1  2  1  0  0  0  0
  1 25  1  0  0  0  0
  1 26  1  0  0  0  0
  1 27  1  0  0  0  0
  2  3  1  0  0  0  0
  2 28  1  0  0  0  0
  2 29  1  0  0  0  0
  3  4  1  0  0  0  0
  4  5  1  0  0  0  0
  4 30  1  0  0  0  0
  4 31  1  0  0  0  0
  5  6  1  0  0  0  0
  5 32  1  0  0  0  0
  5 33  1  0  0  0  0
  6 24  1  0  0  0  0
  6  7  1  0  0  0  0
  7  8  1  0  0  0  0
  7 18  2  0  0  0  0
  8  9  1  0  0  0  0
  8 10  1  0  0  0  0
  8 34  1  0  0  0  0
  9 35  1  0  0  0  0
  9 36  1  0  0  0  0
  9 37  1  0  0  0  0
 10 11  1  0  0  0  0
 11 12  2  0  0  0  0
 11 13  1  0  0  0  0
 13 17  1  0  0  0  0
 13 14  2  0  0  0  0
 14 15  1  0  0  0  0
 14 38  1  0  0  0  0
 15 16  2  0  0  0  0
 15 39  1  0  0  0  0
 16 17  1  0  0  0  0
 16 40  1  0  0  0  0
 18 19  1  0  0  0  0
 18 45  1  0  0  0  0
 19 24  2  0  0  0  0
 19 20  1  0  0  0  0
 20 21  2  0  0  0  0
 20 41  1  0  0  0  0
 21 22  1  0  0  0  0
 21 42  1  0  0  0  0
 22 23  2  0  0  0  0
 22 43  1  0  0  0  0
 23 24  1  0  0  0  0
 23 44  1  0  0  0  0
M  CHG  1  10  -1
M  CHG  1  18   1
M  END
> <s_m_source_file>
AV-unprocessed.smi

> <i_m_source_file_index>
500

> <i_lp_mmshare_version>
43012

> <i_f3d_flags>
0

> <s_epik_input>
W0NIM11bQ0gyXU9bQ0gyXVtDSDJdbihjKGMxMilbY0hdW2NIXVtjSF1bY0hdMiljKG4xKVtDQEhdKFtDSDNdKVtOSF1DKD1PKWMzW2NIXVtjSF1bY0hdbzM=

> <s_epik_cmdline>
J2VwaWtfcHl0aG9uJywgJy1waCcsICc3LjAnLCAnLXRuJywgJzgnLCAnLW1hJywgJzIwMCcsICctbWV0YWxfYmluZGluZycsICctaW1hZScsICc8aW5maWxlLm1hZT4nLCAnLW9tYWUnLCAnPG91dGZpbGUubWFlPic=

> <r_epik_Ionization_Penalty>
6.22753

> <r_epik_Ionization_Penalty_Charging>
6.22753

> <r_epik_Ionization_Penalty_Neutral>
2.56065e-12

> <r_epik_State_Penalty>
7.17947

> <r_epik_Charging_Adjusted_Penalty>
13.407

> <i_epik_Tot_Q>
0

> <i_epik_Tot_abs_Q>
2

> <r_epik_Metal_State_Penalty>
3.2092

> <b_epik_Metal_Only>
1

> <s_lp_Force_Field>
OPLS_2005

> <r_lp_Energy>
10.9404

> <b_lp_Chiralities_Consistent>
1

> <s_lp_Variant>
AV-unprocessed.smi:500-8

> <Gold.Version>
5.8.1

> <Gold.Id.Protein>
6NUR|6NUR_protein|mol2

> <Gold.PLP.Fitness>
48.3118

> <Gold.PLP.PLP>
-39.5149

> <Gold.PLP.part.hbond>
-3.0000

> <Gold.PLP.part.metal>
0.0000

> <Gold.PLP.part.buried>
-4.7998

> <Gold.PLP.part.nonpolar>
-31.9229

> <Gold.PLP.part.repulsive>
0.1387

> <Gold.PLP.ligand.clash>
0.0000

> <Gold.PLP.ligand.torsion>
1.2712

> <Gold.PLP.Chemscore.Hbond>
3.7120

> <Gold.PLP.Chemscore.CHOScore>
0.0000

> <Gold.PLP.Chemscore.Metal>
0.0000

> <Gold.Chemscore.Hbonds>
donor molecule, donor type, donor heavy atom, donor atom, acceptor molecule, acceptor atom, score
      L1  H    18    45       P1  7948  1.20
      P1  H  6896  6909       L1    12  0.75

> <Gold.PLP.Chemscore.Internal.Correction>
0.2034

> <Gold.Rescore>
     Score         DG    S(hbond)    S(metal)    S(lipo)     H(rot)  DE(clash)    DE(int)     intcor
     17.62     -19.13       2.23        0.00      94.60       1.90       0.06       1.45       ----

> <Gold.Chemscore.Fitness>
17.6240

> <Gold.Chemscore.DG>
-19.1312

> <Gold.Chemscore.ZeroCoef>
-5.4800

> <Gold.Chemscore.Hbond>
2.2289

> <Gold.Chemscore.Metal>
0.0000

> <Gold.Chemscore.Lipo>
94.6047

> <Gold.Chemscore.Internal_Hbond>
0.0000

> <Gold.Chemscore.DEClash>
0.0611

> <Gold.Chemscore.DEInternal>
1.4461

> <Gold.Chemscore.Rot>
1.8993

> <Gold.Chemscore.Internal.Correction>
   9.000000E+99

> <Gold.Chemscore.Hbonds>
donor molecule, donor type, donor heavy atom, donor atom, acceptor molecule, acceptor atom, score
      L1  H    18    45       P1  7948  0.04
      P1  H  6896  6909       L1    12  0.12

> <Gold.Chemscore.Hbond.Weighted>
-7.4447

> <Gold.Chemscore.Metal.Weighted>
-0.0000

> <Gold.Chemscore.Lipo.Weighted>
-11.0687

> <Gold.Chemscore.Internal_Hbond.Weighted>
0.0000

> <Gold.Chemscore.DEClash.Weighted>
0.0611

> <Gold.Chemscore.DEInternal.Weighted>
1.4461

> <Gold.Chemscore.Rot.Weighted>
4.8622

> <Gold.Chemscore.Internal.Correction.Weighted>
   9.000000E+99

> <Gold.Protein.RotatedTorsions>
[ 6907 6896 6895 6894 ] final  -45.16 input  -60.11 | X-H torsion
[ 7974 7965 7964 7962 ] final  118.45 input  175.53 | X-H torsion
[ 8008 7997 7996 7995 ] final  107.08 input   59.86 | X-H torsion
[ 10167 10162 10161 10158 ] final  -32.92 input  -65.29 | X-H torsion
[ 10718 10713 10712 10709 ] final  -69.01 input   66.30 | X-H torsion
[ 10763 10752 10751 10750 ] final  -66.04 input  -60.55 | X-H torsion
[ 11005 11000 10999 10996 ] final -178.79 input  -57.11 | X-H torsion

> <Gold.Protein.ActiveResidues>
 VAL166  LYS551  ARG553  GLY616  TRP617  ASP618  TYR619  PRO620  LYS621  CYS622 
 ASP623  PHE694  ASN695  SER759  ASP760  ASP761  ALA762  ILE779  LEU786  VAL792 
 PHE793  MET794  SER795  GLU796  ALA797  LYS798  CYS799  TRP800  GLU811  SER814 

> <Gold.Protein.RotatedAtoms>
  150.9249  134.8666  159.7513 H   0  0  0  0  0  0  0  0  0  0  0  0  # atno 6907 bound_to 6896
  152.5011  134.4163  159.9475 H   0  0  0  0  0  0  0  0  0  0  0  0  # atno 6908 bound_to 6896
  151.4194  133.3663  159.2789 H   0  0  0  0  0  0  0  0  0  0  0  0  # atno 6909 bound_to 6896
  145.1551  139.3187  143.4546 H   0  0  0  0  0  0  0  0  0  0  0  0  # atno 7974 bound_to 7965
  156.1795  140.3101  155.9122 H   0  0  0  0  0  0  0  0  0  0  0  0  # atno 8008 bound_to 7997
  155.3414  140.0466  157.3062 H   0  0  0  0  0  0  0  0  0  0  0  0  # atno 8009 bound_to 7997
  154.5327  140.2236  155.8786 H   0  0  0  0  0  0  0  0  0  0  0  0  # atno 8010 bound_to 7997
  140.7213  143.3659  151.1872 H   0  0  0  0  0  0  0  0  0  0  0  0  # atno 10167 bound_to 10162
  156.0476  130.4305  150.2085 H   0  0  0  0  0  0  0  0  0  0  0  0  # atno 10718 bound_to 10713
  154.3539  135.6130  153.5656 H   0  0  0  0  0  0  0  0  0  0  0  0  # atno 10763 bound_to 10752
  152.9797  135.5799  154.4712 H   0  0  0  0  0  0  0  0  0  0  0  0  # atno 10764 bound_to 10752
  154.4437  135.2851  155.1807 H   0  0  0  0  0  0  0  0  0  0  0  0  # atno 10765 bound_to 10752
  140.4259  134.6563  157.4687 H   0  0  0  0  0  0  0  0  0  0  0  0  # atno 11005 bound_to 11000
  146.3490  140.1640  142.8590 LP  0  0  0  0  0  0  0  0  0  0  0  0  # atno 17320 bound_to 7965
  145.0390  140.8930  143.5064 LP  0  0  0  0  0  0  0  0  0  0  0  0  # atno 17321 bound_to 7965
  139.7220  143.9207  152.2989 LP  0  0  0  0  0  0  0  0  0  0  0  0  # atno 17342 bound_to 10162
  139.8968  144.6934  150.8709 LP  0  0  0  0  0  0  0  0  0  0  0  0  # atno 17343 bound_to 10162
  157.0172  130.9968  151.3349 LP  0  0  0  0  0  0  0  0  0  0  0  0  # atno 17370 bound_to 10713
  157.5369  130.8094  149.7982 LP  0  0  0  0  0  0  0  0  0  0  0  0  # atno 17371 bound_to 10713
  140.0168  134.6607  155.9298 LP  0  0  0  0  0  0  0  0  0  0  0  0  # atno 17394 bound_to 11000
  141.1765  133.6541  156.4850 LP  0  0  0  0  0  0  0  0  0  0  0  0  # atno 17395 bound_to 11000

$$$$
