AV-unprocessed.smi:164|AV-procd|sdf|1383|dock7
  -GOLD-   2262019113D 1   1.00000     0.00000
 Structure written by MMmdl.
 53 55  0  0  0  0  0  0  0  0  1 V2000
  146.8231  132.0703  152.5312 C   0  0  0  0  0  0  0  0  0  0  0  0
  148.0387  132.1046  153.4417 C   0  0  0  0  0  0  0  0  0  0  0  0
  148.8639  130.9642  153.5216 C   0  0  0  0  0  0  0  0  0  0  0  0
  149.9939  130.9596  154.3581 C   0  0  0  0  0  0  0  0  0  0  0  0
  150.3167  132.1004  155.1178 C   0  0  0  0  0  0  0  0  0  0  0  0
  151.5365  132.0814  156.0207 C   0  0  0  0  0  0  0  0  0  0  0  0
  149.5045  133.2547  155.0328 C   0  0  0  0  0  0  0  0  0  0  0  0
  149.8342  134.3605  155.7735 O   0  0  0  0  0  0  0  0  0  0  0  0
  150.6617  135.2838  155.0804 C   0  0  0  0  0  0  0  0  0  0  0  0
  150.3065  136.7080  155.5360 C   0  0  1  0  0  0  0  0  0  0  0  0
  150.5658  136.7759  156.9243 O   0  0  0  0  0  0  0  0  0  0  0  0
  151.1787  137.7697  154.8281 C   0  0  0  0  0  0  0  0  0  0  0  0
  150.7580  139.1351  155.1000 N   0  0  0  0  0  0  0  0  0  0  0  0
  149.5383  139.5714  154.5260 C   0  0  0  0  0  0  0  0  0  0  0  0
  148.8581  138.8419  153.8017 O   0  0  0  0  0  0  0  0  0  0  0  0
  149.1562  140.9343  154.8780 C   0  0  0  0  0  0  0  0  0  0  0  0
  148.0100  141.4479  154.4002 F   0  0  0  0  0  0  0  0  0  0  0  0
  149.9327  141.6893  155.6847 C   0  0  0  0  0  0  0  0  0  0  0  0
  151.1281  141.2437  156.2186 N   0  0  0  0  0  0  0  0  0  0  0  0
  151.8979  142.1452  157.1560 C   0  0  2  0  0  0  0  0  0  0  0  0
  152.2016  141.5012  158.5220 C   0  0  0  0  0  0  0  0  0  0  0  0
  151.5489  142.4609  159.5033 C   0  0  0  0  0  0  0  0  0  0  0  0
  151.4414  143.7506  158.6969 C   0  0  0  0  0  0  0  0  0  0  0  0
  151.1428  143.2943  157.3870 O   0  0  0  0  0  0  0  0  0  0  0  0
  151.5610  139.9220  155.9601 C   0  0  0  0  0  0  0  0  0  0  0  0
  152.5897  139.4777  156.4733 O   0  0  0  0  0  0  0  0  0  0  0  0
  148.3513  133.2554  154.2081 C   0  0  0  0  0  0  0  0  0  0  0  0
  147.4545  134.4846  154.1451 C   0  0  0  0  0  0  0  0  0  0  0  0
  146.8150  131.1721  151.9130 H   0  0  0  0  0  0  0  0  0  0  0  0
  146.8157  132.9325  151.8639 H   0  0  0  0  0  0  0  0  0  0  0  0
  145.9067  132.0790  153.1217 H   0  0  0  0  0  0  0  0  0  0  0  0
  148.6305  130.0821  152.9431 H   0  0  0  0  0  0  0  0  0  0  0  0
  150.6115  130.0753  154.4134 H   0  0  0  0  0  0  0  0  0  0  0  0
  151.2934  132.4846  157.0041 H   0  0  0  0  0  0  0  0  0  0  0  0
  152.3356  132.6846  155.5898 H   0  0  0  0  0  0  0  0  0  0  0  0
  151.9122  131.0672  156.1585 H   0  0  0  0  0  0  0  0  0  0  0  0
  151.7235  135.0750  155.2266 H   0  0  0  0  0  0  0  0  0  0  0  0
  150.4631  135.1755  154.0134 H   0  0  0  0  0  0  0  0  0  0  0  0
  149.2487  136.8952  155.3467 H   0  0  0  0  0  0  0  0  0  0  0  0
  150.9885  135.9739  157.1909 H   0  0  0  0  0  0  0  0  0  0  0  0
  152.2390  137.6679  155.0654 H   0  0  0  0  0  0  0  0  0  0  0  0
  151.1382  137.6547  153.7435 H   0  0  0  0  0  0  0  0  0  0  0  0
  149.5966  142.6890  155.9178 H   0  0  0  0  0  0  0  0  0  0  0  0
  152.8126  142.4186  156.6280 H   0  0  0  0  0  0  0  0  0  0  0  0
  151.8178  140.4836  158.6013 H   0  0  0  0  0  0  0  0  0  0  0  0
  153.2830  141.4739  158.6600 H   0  0  0  0  0  0  0  0  0  0  0  0
  150.5533  142.1060  159.7705 H   0  0  0  0  0  0  0  0  0  0  0  0
  152.1207  142.5831  160.4235 H   0  0  0  0  0  0  0  0  0  0  0  0
  150.6698  144.4214  159.0749 H   0  0  0  0  0  0  0  0  0  0  0  0
  152.3922  144.2857  158.6891 H   0  0  0  0  0  0  0  0  0  0  0  0
  147.6484  135.1794  154.9621 H   0  0  0  0  0  0  0  0  0  0  0  0
  146.4036  134.2037  154.2110 H   0  0  0  0  0  0  0  0  0  0  0  0
  147.6112  135.0153  153.2058 H   0  0  0  0  0  0  0  0  0  0  0  0
  1  2  1  0  0  0  0
  1 29  1  0  0  0  0
  1 30  1  0  0  0  0
  1 31  1  0  0  0  0
  2 27  1  0  0  0  0
  2  3  2  0  0  0  0
  3  4  1  0  0  0  0
  3 32  1  0  0  0  0
  4  5  2  0  0  0  0
  4 33  1  0  0  0  0
  5  6  1  0  0  0  0
  5  7  1  0  0  0  0
  6 34  1  0  0  0  0
  6 35  1  0  0  0  0
  6 36  1  0  0  0  0
  7  8  1  0  0  0  0
  7 27  2  0  0  0  0
  8  9  1  0  0  0  0
  9 10  1  0  0  0  0
  9 37  1  0  0  0  0
  9 38  1  0  0  0  0
 10 11  1  0  0  0  0
 10 12  1  0  0  0  0
 10 39  1  0  0  0  0
 11 40  1  0  0  0  0
 12 13  1  0  0  0  0
 12 41  1  0  0  0  0
 12 42  1  0  0  0  0
 13 25  1  0  0  0  0
 13 14  1  0  0  0  0
 14 15  2  0  0  0  0
 14 16  1  0  0  0  0
 16 17  1  0  0  0  0
 16 18  2  0  0  0  0
 18 19  1  0  0  0  0
 18 43  1  0  0  0  0
 19 20  1  0  0  0  0
 19 25  1  0  0  0  0
 20 24  1  0  0  0  0
 20 21  1  0  0  0  0
 20 44  1  0  0  0  0
 21 22  1  0  0  0  0
 21 45  1  0  0  0  0
 21 46  1  0  0  0  0
 22 23  1  0  0  0  0
 22 47  1  0  0  0  0
 22 48  1  0  0  0  0
 23 24  1  0  0  0  0
 23 49  1  0  0  0  0
 23 50  1  0  0  0  0
 25 26  2  0  0  0  0
 27 28  1  0  0  0  0
 28 51  1  0  0  0  0
 28 52  1  0  0  0  0
 28 53  1  0  0  0  0
M  END
> <s_m_source_file>
AV-unprocessed.smi

> <i_m_source_file_index>
164

> <i_lp_mmshare_version>
43012

> <i_f3d_flags>
0

> <s_epik_input>
W0NIM11jMVtjSF1bY0hdYyhbQ0gzXSljKGMxW0NIM10pT1tDSDJdW0NASF0oW09IXSlbQ0gyXW4yYyg9TyljKEYpW2NIXW4oYzI9TylbQ0BASF0zW0NIMl1bQ0gyXVtDSDJdTzM=

> <s_epik_cmdline>
J2VwaWtfcHl0aG9uJywgJy1waCcsICc3LjAnLCAnLXRuJywgJzgnLCAnLW1hJywgJzIwMCcsICctbWV0YWxfYmluZGluZycsICctaW1hZScsICc8aW5maWxlLm1hZT4nLCAnLW9tYWUnLCAnPG91dGZpbGUubWFlPic=

> <r_lp_tautomer_probability>
1

> <r_epik_Ionization_Penalty>
1.45842e-07

> <r_epik_Ionization_Penalty_Charging>
2.86622e-08

> <r_epik_Ionization_Penalty_Neutral>
1.1718e-07

> <r_epik_State_Penalty>
-0

> <r_epik_Charging_Adjusted_Penalty>
2.86622e-08

> <i_epik_Tot_Q>
0

> <i_epik_Tot_abs_Q>
0

> <r_epik_Metal_State_Penalty>
-0

> <b_epik_Metal_Only>
0

> <s_epik_Chemistry_Notes>
This compound contains an acetal/aminal-like group ( X-CH(R)-Y where X, Y are N, S, or O) that may be acid/base labile, releasing an aldehyde.

> <s_lp_Force_Field>
OPLS_2005

> <r_lp_Energy>
41.2459

> <b_lp_Chiralities_Consistent>
1

> <s_lp_Variant>
AV-unprocessed.smi:164-2

> <Gold.Version>
5.8.1

> <Gold.Id.Protein>
6NUR|6NUR_protein|mol2

> <Gold.PLP.Fitness>
51.7154

> <Gold.PLP.PLP>
-47.2495

> <Gold.PLP.part.hbond>
-1.0000

> <Gold.PLP.part.metal>
0.0000

> <Gold.PLP.part.buried>
-6.3651

> <Gold.PLP.part.nonpolar>
-40.7001

> <Gold.PLP.part.repulsive>
1.5569

> <Gold.PLP.ligand.clash>
0.0000

> <Gold.PLP.ligand.torsion>
0.8585

> <Gold.PLP.Chemscore.Hbond>
1.0000

> <Gold.PLP.Chemscore.CHOScore>
1.0000

> <Gold.PLP.Chemscore.Metal>
0.0000

> <Gold.Chemscore.Hbonds>
donor molecule, donor type, donor heavy atom, donor atom, acceptor molecule, acceptor atom, score
      P1  H  7997  8010       L1    26  1.00
      L1  C    18    43       P1  8028  1.00

> <Gold.PLP.Chemscore.Internal.Correction>
0.1829

> <Gold.Rescore>
     Score         DG    S(hbond)    S(metal)    S(lipo)     H(rot)  DE(clash)    DE(int)     intcor
     10.82     -13.97       1.00        0.00     103.81       2.73       0.93       2.22       ----

> <Gold.Chemscore.Fitness>
10.8225

> <Gold.Chemscore.DG>
-13.9712

> <Gold.Chemscore.ZeroCoef>
-5.4800

> <Gold.Chemscore.Hbond>
0.9994

> <Gold.Chemscore.Metal>
0.0000

> <Gold.Chemscore.Lipo>
103.8107

> <Gold.Chemscore.Internal_Hbond>
0.0000

> <Gold.Chemscore.DEClash>
0.9335

> <Gold.Chemscore.DEInternal>
2.2152

> <Gold.Chemscore.Rot>
2.7315

> <Gold.Chemscore.Internal.Correction>
   9.000000E+99

> <Gold.Chemscore.Hbonds>
donor molecule, donor type, donor heavy atom, donor atom, acceptor molecule, acceptor atom, score
      P1  H  7997  8010       L1    26  0.96

> <Gold.Chemscore.Hbond.Weighted>
-3.3379

> <Gold.Chemscore.Metal.Weighted>
-0.0000

> <Gold.Chemscore.Lipo.Weighted>
-12.1459

> <Gold.Chemscore.Internal_Hbond.Weighted>
0.0000

> <Gold.Chemscore.DEClash.Weighted>
0.9335

> <Gold.Chemscore.DEInternal.Weighted>
2.2152

> <Gold.Chemscore.Rot.Weighted>
6.9925

> <Gold.Chemscore.Internal.Correction.Weighted>
   9.000000E+99

> <Gold.Protein.RotatedTorsions>
[ 6907 6896 6895 6894 ] final   87.89 input  -60.11 | X-H torsion
[ 7974 7965 7964 7962 ] final  177.90 input  175.53 | X-H torsion
[ 8008 7997 7996 7995 ] final   52.83 input   59.86 | X-H torsion
[ 10167 10162 10161 10158 ] final  -60.41 input  -65.29 | X-H torsion
[ 10718 10713 10712 10709 ] final -152.31 input   66.30 | X-H torsion
[ 10763 10752 10751 10750 ] final -171.91 input  -60.55 | X-H torsion
[ 11005 11000 10999 10996 ] final  104.30 input  -57.11 | X-H torsion

> <Gold.Protein.ActiveResidues>
 VAL166  LYS551  ARG553  GLY616  TRP617  ASP618  TYR619  PRO620  LYS621  CYS622 
 ASP623  PHE694  ASN695  SER759  ASP760  ASP761  ALA762  ILE779  LEU786  VAL792 
 PHE793  MET794  SER795  GLU796  ALA797  LYS798  CYS799  TRP800  GLU811  SER814 

> <Gold.Protein.RotatedAtoms>
  152.5417  134.2207  159.8786 H   0  0  0  0  0  0  0  0  0  0  0  0  # atno 6907 bound_to 6896
  151.2184  133.4509  159.2607 H   0  0  0  0  0  0  0  0  0  0  0  0  # atno 6908 bound_to 6896
  151.0829  134.9882  159.8421 H   0  0  0  0  0  0  0  0  0  0  0  0  # atno 6909 bound_to 6896
  144.7163  140.0316  143.6439 H   0  0  0  0  0  0  0  0  0  0  0  0  # atno 7974 bound_to 7965
  155.4582  140.3461  155.4309 H   0  0  0  0  0  0  0  0  0  0  0  0  # atno 8008 bound_to 7997
  156.1177  140.1478  156.9278 H   0  0  0  0  0  0  0  0  0  0  0  0  # atno 8009 bound_to 7997
  154.4801  140.0872  156.7336 H   0  0  0  0  0  0  0  0  0  0  0  0  # atno 8010 bound_to 7997
  140.6073  143.2377  151.5791 H   0  0  0  0  0  0  0  0  0  0  0  0  # atno 10167 bound_to 10162
  156.4707  130.8257  151.2487 H   0  0  0  0  0  0  0  0  0  0  0  0  # atno 10718 bound_to 10713
  154.6252  135.2880  155.0280 H   0  0  0  0  0  0  0  0  0  0  0  0  # atno 10763 bound_to 10752
  154.1461  135.6511  153.4957 H   0  0  0  0  0  0  0  0  0  0  0  0  # atno 10764 bound_to 10752
  153.0254  135.5344  154.7057 H   0  0  0  0  0  0  0  0  0  0  0  0  # atno 10765 bound_to 10752
  139.8791  134.9295  156.5341 H   0  0  0  0  0  0  0  0  0  0  0  0  # atno 11005 bound_to 11000
  146.0098  139.3160  143.0877 LP  0  0  0  0  0  0  0  0  0  0  0  0  # atno 17320 bound_to 7965
  145.8696  140.9428  143.0658 LP  0  0  0  0  0  0  0  0  0  0  0  0  # atno 17321 bound_to 7965
  139.5334  144.2849  152.1199 LP  0  0  0  0  0  0  0  0  0  0  0  0  # atno 17342 bound_to 10162
  140.2041  144.4628  150.6417 LP  0  0  0  0  0  0  0  0  0  0  0  0  # atno 17343 bound_to 10162
  157.7491  131.0077  150.3200 LP  0  0  0  0  0  0  0  0  0  0  0  0  # atno 17370 bound_to 10713
  156.3621  130.3849  149.7243 LP  0  0  0  0  0  0  0  0  0  0  0  0  # atno 17371 bound_to 10713
  140.8359  133.8242  155.9028 LP  0  0  0  0  0  0  0  0  0  0  0  0  # atno 17394 bound_to 11000
  140.9284  134.2053  157.4880 LP  0  0  0  0  0  0  0  0  0  0  0  0  # atno 17395 bound_to 11000

$$$$
