AV-unprocessed.smi:1313|AV-procd|sdf|5450|dock8
  -GOLD-   22720 5 23D 1   1.00000     0.00000
 Structure written by MMmdl.
 37 38  0  0  0  0  0  0  0  0  1 V2000
  146.8837  140.9190  153.0680 C   0  0  0  0  0  0  0  0  0  0  0  0
  147.8033  140.8900  154.2703 C   0  0  0  0  0  0  0  0  0  0  0  0
  147.4717  141.3227  155.4421 N   0  0  0  0  0  0  0  0  0  0  0  0
  148.4076  141.2368  156.4823 C   0  0  0  0  0  0  0  0  0  0  0  0
  147.9369  141.7560  157.8302 C   0  0  0  0  0  0  0  0  0  0  0  0
  149.6533  140.7139  156.2832 C   0  0  0  0  0  0  0  0  0  0  0  0
  150.6904  140.5934  157.3982 C   0  0  0  0  0  0  0  0  0  0  0  0
  151.1176  141.9191  158.0305 C   0  0  0  0  0  0  0  0  0  0  0  0
  150.4464  142.9335  157.8431 O   0  0  0  0  0  0  0  0  0  0  0  0
  152.2387  141.9009  158.7677 N   0  0  0  0  0  0  0  0  0  0  0  0
  152.8318  143.0637  159.4223 C   0  0  0  0  0  0  0  0  0  0  0  0
  152.0018  143.4824  160.6508 C   0  0  0  0  0  0  0  0  0  0  0  0
  151.8208  144.9972  160.5420 C   0  0  0  0  0  0  0  0  0  0  0  0
  151.8291  145.2708  159.0413 C   0  0  0  0  0  0  0  0  0  0  0  0
  152.8627  144.2897  158.4870 C   0  0  0  0  0  0  0  0  0  0  0  0
  150.0232  140.2285  154.9393 C   0  0  0  0  0  0  0  0  0  0  0  0
  151.1148  139.7417  154.6488 O   0  0  0  0  0  0  0  0  0  0  0  0
  149.0579  140.3464  154.0003 N   0  0  0  0  0  0  0  0  0  0  0  0
  149.2612  140.0243  153.0654 H   0  0  0  0  0  0  0  0  0  0  0  0
  145.9776  140.3492  153.2759 H   0  0  0  0  0  0  0  0  0  0  0  0
  147.3606  140.4914  152.1848 H   0  0  0  0  0  0  0  0  0  0  0  0
  146.5983  141.9458  152.8385 H   0  0  0  0  0  0  0  0  0  0  0  0
  148.5812  142.5625  158.1803 H   0  0  0  0  0  0  0  0  0  0  0  0
  147.9428  140.9578  158.5722 H   0  0  0  0  0  0  0  0  0  0  0  0
  146.9203  142.1464  157.7708 H   0  0  0  0  0  0  0  0  0  0  0  0
  150.3249  139.9413  158.1922 H   0  0  0  0  0  0  0  0  0  0  0  0
  151.5689  140.0791  157.0074 H   0  0  0  0  0  0  0  0  0  0  0  0
  152.7269  141.0228  158.8684 H   0  0  0  0  0  0  0  0  0  0  0  0
  153.8486  142.8234  159.7389 H   0  0  0  0  0  0  0  0  0  0  0  0
  151.0194  143.0075  160.6317 H   0  0  0  0  0  0  0  0  0  0  0  0
  152.4791  143.1952  161.5881 H   0  0  0  0  0  0  0  0  0  0  0  0
  150.9103  145.3476  161.0288 H   0  0  0  0  0  0  0  0  0  0  0  0
  152.6658  145.5027  161.0112 H   0  0  0  0  0  0  0  0  0  0  0  0
  150.8474  145.0473  158.6215 H   0  0  0  0  0  0  0  0  0  0  0  0
  152.0659  146.3082  158.8032 H   0  0  0  0  0  0  0  0  0  0  0  0
  153.8517  144.7473  158.5304 H   0  0  0  0  0  0  0  0  0  0  0  0
  152.6712  144.0455  157.4412 H   0  0  0  0  0  0  0  0  0  0  0  0
  1  2  1  0  0  0  0
  1 20  1  0  0  0  0
  1 21  1  0  0  0  0
  1 22  1  0  0  0  0
  2 18  1  0  0  0  0
  2  3  2  0  0  0  0
  3  4  1  0  0  0  0
  4  5  1  0  0  0  0
  4  6  2  0  0  0  0
  5 23  1  0  0  0  0
  5 24  1  0  0  0  0
  5 25  1  0  0  0  0
  6  7  1  0  0  0  0
  6 16  1  0  0  0  0
  7  8  1  0  0  0  0
  7 26  1  0  0  0  0
  7 27  1  0  0  0  0
  8  9  2  0  0  0  0
  8 10  1  0  0  0  0
 10 11  1  0  0  0  0
 10 28  1  0  0  0  0
 11 15  1  0  0  0  0
 11 12  1  0  0  0  0
 11 29  1  0  0  0  0
 12 13  1  0  0  0  0
 12 30  1  0  0  0  0
 12 31  1  0  0  0  0
 13 14  1  0  0  0  0
 13 32  1  0  0  0  0
 13 33  1  0  0  0  0
 14 15  1  0  0  0  0
 14 34  1  0  0  0  0
 14 35  1  0  0  0  0
 15 36  1  0  0  0  0
 15 37  1  0  0  0  0
 16 17  2  0  0  0  0
 16 18  1  0  0  0  0
 18 19  1  0  0  0  0
M  END
> <s_m_source_file>
AV-unprocessed.smi

> <i_m_source_file_index>
1313

> <i_lp_mmshare_version>
43012

> <i_f3d_flags>
0

> <s_epik_input>
W0NIM11jMW5jKFtDSDNdKWMoYyg9TylbbkhdMSlbQ0gyXUMoPU8pW05IXVtDSF0yW0NIMl1bQ0gyXVtDSDJdW0NIMl0y

> <s_epik_cmdline>
J2VwaWtfcHl0aG9uJywgJy1waCcsICc3LjAnLCAnLXRuJywgJzgnLCAnLW1hJywgJzIwMCcsICctbWV0YWxfYmluZGluZycsICctaW1hZScsICc8aW5maWxlLm1hZT4nLCAnLW9tYWUnLCAnPG91dGZpbGUubWFlPic=

> <r_lp_tautomer_probability>
0.839158

> <r_epik_Ionization_Penalty>
0.000387683

> <r_epik_Ionization_Penalty_Charging>
0.000355009

> <r_epik_Ionization_Penalty_Neutral>
3.26746e-05

> <r_epik_State_Penalty>
0.046959

> <r_epik_Charging_Adjusted_Penalty>
0.047314

> <i_epik_Tot_Q>
0

> <i_epik_Tot_abs_Q>
0

> <r_epik_Metal_State_Penalty>
0.222879

> <b_epik_Metal_Only>
0

> <s_lp_Force_Field>
OPLS_2005

> <r_lp_Energy>
20.1617

> <b_lp_Chiralities_Consistent>
1

> <s_lp_Variant>
AV-unprocessed.smi:1313-1

> <Gold.Version>
5.8.1

> <Gold.Id.Protein>
6NUR|6NUR_protein|mol2

> <Gold.PLP.Fitness>
42.6221

> <Gold.PLP.PLP>
-37.3551

> <Gold.PLP.part.hbond>
-2.0000

> <Gold.PLP.part.metal>
0.0000

> <Gold.PLP.part.buried>
-6.5057

> <Gold.PLP.part.nonpolar>
-30.6082

> <Gold.PLP.part.repulsive>
0.5506

> <Gold.PLP.ligand.clash>
0.0000

> <Gold.PLP.ligand.torsion>
0.3677

> <Gold.PLP.Chemscore.Hbond>
2.0000

> <Gold.PLP.Chemscore.CHOScore>
0.0000

> <Gold.PLP.Chemscore.Metal>
0.0000

> <Gold.Chemscore.Hbonds>
donor molecule, donor type, donor heavy atom, donor atom, acceptor molecule, acceptor atom, score
      L1  H    18    19       P1  7957  1.00
      P1  H  7989  7998       L1    17  1.00

> <Gold.PLP.Chemscore.Internal.Correction>
0.0024

> <Gold.Rescore>
     Score         DG    S(hbond)    S(metal)    S(lipo)     H(rot)  DE(clash)    DE(int)     intcor
     12.13     -17.75       1.79        0.00      86.83       1.51       0.26       5.36       ----

> <Gold.Chemscore.Fitness>
12.1266

> <Gold.Chemscore.DG>
-17.7469

> <Gold.Chemscore.ZeroCoef>
-5.4800

> <Gold.Chemscore.Hbond>
1.7905

> <Gold.Chemscore.Metal>
0.0000

> <Gold.Chemscore.Lipo>
86.8320

> <Gold.Chemscore.Internal_Hbond>
0.0000

> <Gold.Chemscore.DEClash>
0.2602

> <Gold.Chemscore.DEInternal>
5.3601

> <Gold.Chemscore.Rot>
1.5128

> <Gold.Chemscore.Internal.Correction>
   9.000000E+99

> <Gold.Chemscore.Hbonds>
donor molecule, donor type, donor heavy atom, donor atom, acceptor molecule, acceptor atom, score
      L1  H    18    19       P1  7957  0.99
      P1  H  7989  7998       L1    17  0.26

> <Gold.Chemscore.Hbond.Weighted>
-5.9802

> <Gold.Chemscore.Metal.Weighted>
-0.0000

> <Gold.Chemscore.Lipo.Weighted>
-10.1593

> <Gold.Chemscore.Internal_Hbond.Weighted>
0.0000

> <Gold.Chemscore.DEClash.Weighted>
0.2602

> <Gold.Chemscore.DEInternal.Weighted>
5.3601

> <Gold.Chemscore.Rot.Weighted>
3.8727

> <Gold.Chemscore.Internal.Correction.Weighted>
   9.000000E+99

> <Gold.Protein.RotatedTorsions>
[ 6907 6896 6895 6894 ] final  -79.98 input  -60.11 | X-H torsion
[ 7974 7965 7964 7962 ] final  141.99 input  175.53 | X-H torsion
[ 8008 7997 7996 7995 ] final  -59.55 input   59.86 | X-H torsion
[ 10167 10162 10161 10158 ] final -127.91 input  -65.29 | X-H torsion
[ 10718 10713 10712 10709 ] final -147.35 input   66.30 | X-H torsion
[ 10763 10752 10751 10750 ] final   71.15 input  -60.55 | X-H torsion
[ 11005 11000 10999 10996 ] final  -58.11 input  -57.11 | X-H torsion

> <Gold.Protein.ActiveResidues>
 VAL166  LYS551  ARG553  GLY616  TRP617  ASP618  TYR619  PRO620  LYS621  CYS622 
 ASP623  PHE694  ASN695  SER759  ASP760  ASP761  ALA762  ILE779  LEU786  VAL792 
 PHE793  MET794  SER795  GLU796  ALA797  LYS798  CYS799  TRP800  GLU811  SER814 

> <Gold.Protein.RotatedAtoms>
  150.6938  134.4039  159.5131 H   0  0  0  0  0  0  0  0  0  0  0  0  # atno 6907 bound_to 6896
  152.1808  134.8752  160.0535 H   0  0  0  0  0  0  0  0  0  0  0  0  # atno 6908 bound_to 6896
  151.9744  133.3701  159.4120 H   0  0  0  0  0  0  0  0  0  0  0  0  # atno 6909 bound_to 6896
  144.9047  139.5374  143.5737 H   0  0  0  0  0  0  0  0  0  0  0  0  # atno 7974 bound_to 7965
  154.4358  140.1059  156.6134 H   0  0  0  0  0  0  0  0  0  0  0  0  # atno 8008 bound_to 7997
  155.5785  140.3490  155.4515 H   0  0  0  0  0  0  0  0  0  0  0  0  # atno 8009 bound_to 7997
  156.0336  140.1266  157.0221 H   0  0  0  0  0  0  0  0  0  0  0  0  # atno 8010 bound_to 7997
  139.9558  143.6005  152.2461 H   0  0  0  0  0  0  0  0  0  0  0  0  # atno 10167 bound_to 10162
  156.4065  130.7960  151.2174 H   0  0  0  0  0  0  0  0  0  0  0  0  # atno 10718 bound_to 10713
  153.0382  135.5147  154.7549 H   0  0  0  0  0  0  0  0  0  0  0  0  # atno 10763 bound_to 10752
  154.6508  135.2925  154.9991 H   0  0  0  0  0  0  0  0  0  0  0  0  # atno 10764 bound_to 10752
  154.0876  135.6655  153.4900 H   0  0  0  0  0  0  0  0  0  0  0  0  # atno 10765 bound_to 10752
  141.1193  133.6611  156.4870 H   0  0  0  0  0  0  0  0  0  0  0  0  # atno 11005 bound_to 11000
  146.3127  139.7806  142.9007 LP  0  0  0  0  0  0  0  0  0  0  0  0  # atno 17320 bound_to 7965
  145.3555  141.0316  143.3314 LP  0  0  0  0  0  0  0  0  0  0  0  0  # atno 17321 bound_to 7965
  139.6592  144.7662  151.1995 LP  0  0  0  0  0  0  0  0  0  0  0  0  # atno 17342 bound_to 10162
  140.7569  143.6036  150.8675 LP  0  0  0  0  0  0  0  0  0  0  0  0  # atno 17343 bound_to 10162
  157.7506  131.0271  150.3990 LP  0  0  0  0  0  0  0  0  0  0  0  0  # atno 17370 bound_to 10713
  156.4279  130.3966  149.6780 LP  0  0  0  0  0  0  0  0  0  0  0  0  # atno 17371 bound_to 10713
  140.4554  134.6890  157.5060 LP  0  0  0  0  0  0  0  0  0  0  0  0  # atno 17394 bound_to 11000
  140.0138  134.6650  155.9340 LP  0  0  0  0  0  0  0  0  0  0  0  0  # atno 17395 bound_to 11000

$$$$
