AV-unprocessed.smi:1479|AV-procd|sdf|5983|dock2
  -GOLD-   22720 6 73D 1   1.00000     0.00000
 Structure written by MMmdl.
 40 41  0  0  0  0  0  0  0  0  1 V2000
  150.5192  132.0647  155.5254 C   0  0  0  0  0  0  0  0  0  0  0  0
  150.5728  133.5501  156.6080 S   0  0  0  0  0  0  0  0  0  0  0  0
  149.7009  133.3078  157.7675 O   0  0  0  0  0  0  0  0  0  0  0  0
  151.9798  133.9211  156.8234 O   0  0  0  0  0  0  0  0  0  0  0  0
  149.7887  134.8308  155.5322 C   0  0  0  0  0  0  0  0  0  0  0  0
  150.6310  136.1129  155.4571 C   0  0  0  0  0  0  0  0  0  0  0  0
  150.0334  137.0625  154.5326 N   0  0  0  0  0  0  0  0  0  0  0  0
  151.0220  138.0443  154.1197 C   0  0  0  0  0  0  0  0  0  0  0  0
  151.2516  139.1055  155.1759 C   0  0  0  0  0  0  0  0  0  0  0  0
  152.3157  139.0232  156.0968 C   0  0  0  0  0  0  0  0  0  0  0  0
  152.5191  139.9770  157.0304 N   0  0  0  0  0  0  0  0  0  0  0  0
  151.6750  141.0177  157.0587 C   0  0  0  0  0  0  0  0  0  0  0  0
  151.8922  142.0027  158.0315 N   0  0  0  0  0  0  0  0  0  0  0  0
  151.2886  143.3343  157.9345 C   0  0  0  0  0  0  0  0  0  0  0  0
  152.1920  144.3948  158.5861 C   0  0  0  0  0  0  0  0  0  0  0  0
  152.4784  144.0248  159.9289 O   0  0  0  0  0  0  0  0  0  0  0  0
  153.1801  142.7895  159.9909 C   0  0  0  0  0  0  0  0  0  0  0  0
  152.3140  141.6674  159.3941 C   0  0  0  0  0  0  0  0  0  0  0  0
  150.6383  141.1854  156.2251 N   0  0  0  0  0  0  0  0  0  0  0  0
  150.4228  140.2393  155.2863 C   0  0  0  0  0  0  0  0  0  0  0  0
  150.9574  131.2176  156.0530 H   0  0  0  0  0  0  0  0  0  0  0  0
  151.0862  132.2551  154.6145 H   0  0  0  0  0  0  0  0  0  0  0  0
  149.4849  131.8352  155.2703 H   0  0  0  0  0  0  0  0  0  0  0  0
  149.6879  134.4015  154.5354 H   0  0  0  0  0  0  0  0  0  0  0  0
  148.7832  135.0330  155.9028 H   0  0  0  0  0  0  0  0  0  0  0  0
  150.7227  136.5574  156.4490 H   0  0  0  0  0  0  0  0  0  0  0  0
  151.6379  135.8708  155.1153 H   0  0  0  0  0  0  0  0  0  0  0  0
  149.7083  136.5559  153.7215 H   0  0  0  0  0  0  0  0  0  0  0  0
  151.9764  137.5493  153.9345 H   0  0  0  0  0  0  0  0  0  0  0  0
  150.7107  138.5083  153.1830 H   0  0  0  0  0  0  0  0  0  0  0  0
  153.0061  138.1925  156.0861 H   0  0  0  0  0  0  0  0  0  0  0  0
  151.1079  143.6303  156.9015 H   0  0  0  0  0  0  0  0  0  0  0  0
  150.3181  143.3133  158.4314 H   0  0  0  0  0  0  0  0  0  0  0  0
  153.1193  144.5152  158.0233 H   0  0  0  0  0  0  0  0  0  0  0  0
  151.6923  145.3634  158.5854 H   0  0  0  0  0  0  0  0  0  0  0  0
  154.1307  142.8701  159.4608 H   0  0  0  0  0  0  0  0  0  0  0  0
  153.4149  142.5678  161.0320 H   0  0  0  0  0  0  0  0  0  0  0  0
  151.4247  141.5149  160.0065 H   0  0  0  0  0  0  0  0  0  0  0  0
  152.8857  140.7408  159.4314 H   0  0  0  0  0  0  0  0  0  0  0  0
  149.5846  140.3910  154.6224 H   0  0  0  0  0  0  0  0  0  0  0  0
  1  2  1  0  0  0  0
  1 21  1  0  0  0  0
  1 22  1  0  0  0  0
  1 23  1  0  0  0  0
  2  3  2  0  0  0  0
  2  4  2  0  0  0  0
  2  5  1  0  0  0  0
  5  6  1  0  0  0  0
  5 24  1  0  0  0  0
  5 25  1  0  0  0  0
  6  7  1  0  0  0  0
  6 26  1  0  0  0  0
  6 27  1  0  0  0  0
  7  8  1  0  0  0  0
  7 28  1  0  0  0  0
  8  9  1  0  0  0  0
  8 29  1  0  0  0  0
  8 30  1  0  0  0  0
  9 20  1  0  0  0  0
  9 10  2  0  0  0  0
 10 11  1  0  0  0  0
 10 31  1  0  0  0  0
 11 12  2  0  0  0  0
 12 13  1  0  0  0  0
 12 19  1  0  0  0  0
 13 18  1  0  0  0  0
 13 14  1  0  0  0  0
 14 15  1  0  0  0  0
 14 32  1  0  0  0  0
 14 33  1  0  0  0  0
 15 16  1  0  0  0  0
 15 34  1  0  0  0  0
 15 35  1  0  0  0  0
 16 17  1  0  0  0  0
 17 18  1  0  0  0  0
 17 36  1  0  0  0  0
 17 37  1  0  0  0  0
 18 38  1  0  0  0  0
 18 39  1  0  0  0  0
 19 20  2  0  0  0  0
 20 40  1  0  0  0  0
M  END
> <s_m_source_file>
AV-unprocessed.smi

> <i_m_source_file_index>
1479

> <i_lp_mmshare_version>
43012

> <i_f3d_flags>
0

> <s_epik_input>
W0NIM11TKD1PKSg9TylbQ0gyXVtDSDJdW05IXVtDSDJdYzFbY0hdbmMobltjSF0xKU4yW0NIMl1bQ0gyXU9bQ0gyXVtDSDJdMg==

> <s_epik_cmdline>
J2VwaWtfcHl0aG9uJywgJy1waCcsICc3LjAnLCAnLXRuJywgJzgnLCAnLW1hJywgJzIwMCcsICctbWV0YWxfYmluZGluZycsICctaW1hZScsICc8aW5maWxlLm1hZT4nLCAnLW9tYWUnLCAnPG91dGZpbGUubWFlPic=

> <r_lp_tautomer_probability>
1

> <r_epik_Ionization_Penalty>
0.401462

> <r_epik_Ionization_Penalty_Charging>
0

> <r_epik_Ionization_Penalty_Neutral>
0.401462

> <r_epik_State_Penalty>
0.400842

> <r_epik_Charging_Adjusted_Penalty>
0.400842

> <i_epik_Tot_Q>
0

> <i_epik_Tot_abs_Q>
0

> <r_epik_Metal_State_Penalty>
0.400839

> <b_epik_Metal_Only>
0

> <s_lp_Force_Field>
OPLS_2005

> <r_lp_Energy>
7.63479

> <b_lp_Chiralities_Consistent>
1

> <s_lp_Variant>
AV-unprocessed.smi:1479-1

> <Gold.Version>
5.8.1

> <Gold.Id.Protein>
6NUR|6NUR_protein|mol2

> <Gold.PLP.Fitness>
47.0067

> <Gold.PLP.PLP>
-40.2740

> <Gold.PLP.part.hbond>
-3.6999

> <Gold.PLP.part.metal>
0.0000

> <Gold.PLP.part.buried>
-5.2847

> <Gold.PLP.part.nonpolar>
-30.6166

> <Gold.PLP.part.repulsive>
0.0720

> <Gold.PLP.ligand.clash>
0.0000

> <Gold.PLP.ligand.torsion>
1.0280

> <Gold.PLP.Chemscore.Hbond>
2.8432

> <Gold.PLP.Chemscore.CHOScore>
0.0000

> <Gold.PLP.Chemscore.Metal>
0.0000

> <Gold.Chemscore.Hbonds>
donor molecule, donor type, donor heavy atom, donor atom, acceptor molecule, acceptor atom, score
      L1  H     7    28       P1  7948  1.00
      P1  H  6896  6907       L1     3  1.00
      P1  H  7997  8008       L1    11  0.79

> <Gold.PLP.Chemscore.Internal.Correction>
0.2590

> <Gold.Rescore>
     Score         DG    S(hbond)    S(metal)    S(lipo)     H(rot)  DE(clash)    DE(int)     intcor
     17.51     -20.03       2.77        0.00      90.69       2.08       1.49       1.02       ----

> <Gold.Chemscore.Fitness>
17.5126

> <Gold.Chemscore.DG>
-20.0300

> <Gold.Chemscore.ZeroCoef>
-5.4800

> <Gold.Chemscore.Hbond>
2.7743

> <Gold.Chemscore.Metal>
0.0000

> <Gold.Chemscore.Lipo>
90.6936

> <Gold.Chemscore.Internal_Hbond>
0.0000

> <Gold.Chemscore.DEClash>
1.4948

> <Gold.Chemscore.DEInternal>
1.0225

> <Gold.Chemscore.Rot>
2.0810

> <Gold.Chemscore.Internal.Correction>
   9.000000E+99

> <Gold.Chemscore.Hbonds>
donor molecule, donor type, donor heavy atom, donor atom, acceptor molecule, acceptor atom, score
      L1  H     7    28       P1  7948  0.53
      P1  H  6896  6907       L1     3  0.35
      P1  H  7997  8008       L1    11  0.11

> <Gold.Chemscore.Hbond.Weighted>
-9.2661

> <Gold.Chemscore.Metal.Weighted>
-0.0000

> <Gold.Chemscore.Lipo.Weighted>
-10.6111

> <Gold.Chemscore.Internal_Hbond.Weighted>
0.0000

> <Gold.Chemscore.DEClash.Weighted>
1.4948

> <Gold.Chemscore.DEInternal.Weighted>
1.0225

> <Gold.Chemscore.Rot.Weighted>
5.3273

> <Gold.Chemscore.Internal.Correction.Weighted>
   9.000000E+99

> <Gold.Protein.RotatedTorsions>
[ 6907 6896 6895 6894 ] final -130.33 input  -60.11 | X-H torsion
[ 7974 7965 7964 7962 ] final   19.38 input  175.53 | X-H torsion
[ 8008 7997 7996 7995 ] final  -73.08 input   59.86 | X-H torsion
[ 10167 10162 10161 10158 ] final  -87.23 input  -65.29 | X-H torsion
[ 10718 10713 10712 10709 ] final  -58.49 input   66.30 | X-H torsion
[ 10763 10752 10751 10750 ] final -130.10 input  -60.55 | X-H torsion
[ 11005 11000 10999 10996 ] final   58.43 input  -57.11 | X-H torsion

> <Gold.Protein.ActiveResidues>
 VAL166  LYS551  ARG553  GLY616  TRP617  ASP618  TYR619  PRO620  LYS621  CYS622 
 ASP623  PHE694  ASN695  SER759  ASP760  ASP761  ALA762  ILE779  LEU786  VAL792 
 PHE793  MET794  SER795  GLU796  ALA797  LYS798  CYS799  TRP800  GLU811  SER814 

> <Gold.Protein.RotatedAtoms>
  150.9386  133.6683  159.2795 H   0  0  0  0  0  0  0  0  0  0  0  0  # atno 6907 bound_to 6896
  151.4080  135.0979  159.9586 H   0  0  0  0  0  0  0  0  0  0  0  0  # atno 6908 bound_to 6896
  152.5059  133.8865  159.7427 H   0  0  0  0  0  0  0  0  0  0  0  0  # atno 6909 bound_to 6896
  146.2151  139.8321  142.8658 H   0  0  0  0  0  0  0  0  0  0  0  0  # atno 7974 bound_to 7965
  154.5218  140.0785  156.8186 H   0  0  0  0  0  0  0  0  0  0  0  0  # atno 8008 bound_to 7997
  155.3559  140.3415  155.4222 H   0  0  0  0  0  0  0  0  0  0  0  0  # atno 8009 bound_to 7997
  156.1689  140.1613  156.8469 H   0  0  0  0  0  0  0  0  0  0  0  0  # atno 8010 bound_to 7997
  140.3865  143.2724  151.9319 H   0  0  0  0  0  0  0  0  0  0  0  0  # atno 10167 bound_to 10162
  156.1131  130.4173  150.0585 H   0  0  0  0  0  0  0  0  0  0  0  0  # atno 10718 bound_to 10713
  154.8756  135.3873  154.4028 H   0  0  0  0  0  0  0  0  0  0  0  0  # atno 10763 bound_to 10752
  153.4751  135.7030  153.5976 H   0  0  0  0  0  0  0  0  0  0  0  0  # atno 10764 bound_to 10752
  153.4416  135.3855  155.2199 H   0  0  0  0  0  0  0  0  0  0  0  0  # atno 10765 bound_to 10752
  140.0378  134.5918  155.9421 H   0  0  0  0  0  0  0  0  0  0  0  0  # atno 11005 bound_to 11000
  145.2986  141.0188  143.3621 LP  0  0  0  0  0  0  0  0  0  0  0  0  # atno 17320 bound_to 7965
  144.9023  139.4634  143.6627 LP  0  0  0  0  0  0  0  0  0  0  0  0  # atno 17321 bound_to 7965
  139.4792  144.5769  151.7997 LP  0  0  0  0  0  0  0  0  0  0  0  0  # atno 17342 bound_to 10162
  140.4884  144.1346  150.5945 LP  0  0  0  0  0  0  0  0  0  0  0  0  # atno 17343 bound_to 10162
  156.8543  130.9469  151.3623 LP  0  0  0  0  0  0  0  0  0  0  0  0  # atno 17370 bound_to 10713
  157.6313  130.8732  149.9279 LP  0  0  0  0  0  0  0  0  0  0  0  0  # atno 17371 bound_to 10713
  141.1867  133.6558  156.5249 LP  0  0  0  0  0  0  0  0  0  0  0  0  # atno 17394 bound_to 11000
  140.4119  134.7264  157.4841 LP  0  0  0  0  0  0  0  0  0  0  0  0  # atno 17395 bound_to 11000

$$$$
