AV-unprocessed.smi:1506|AV-procd|sdf|6078|dock5
  -GOLD-   22720 6203D 1   1.00000     0.00000
 Structure written by MMmdl.
 40 42  0  0  0  0  0  0  0  0  2 V2000
  148.2508  135.3365  155.9648 C   0  0  0  0  0  0  0  0  0  0  0  0
  149.0374  136.5393  155.4861 C   0  0  0  0  0  0  0  0  0  0  0  0
  150.4279  136.4445  155.2808 C   0  0  0  0  0  0  0  0  0  0  0  0
  151.1500  137.5674  154.8367 C   0  0  0  0  0  0  0  0  0  0  0  0
  150.4878  138.7871  154.5981 C   0  0  0  0  0  0  0  0  0  0  0  0
  149.0892  138.8961  154.8042 C   0  0  0  0  0  0  0  0  0  0  0  0
  148.3626  140.0496  154.5990 O   0  0  0  0  0  0  0  0  0  0  0  0
  149.0322  141.2976  154.7219 C   0  0  0  0  0  0  0  0  0  0  0  0
  149.5010  141.4745  156.1737 C   0  0  2  0  0  0  0  0  0  0  0  0
  148.8493  142.6058  156.7169 O   0  0  0  0  0  0  0  0  0  0  0  0
  151.0309  141.6387  156.2779 C   0  0  0  0  0  0  0  0  0  0  0  0
  151.5118  141.6687  157.6668 N   0  0  0  0  0  0  0  0  0  0  0  0
  151.7300  140.6414  158.5318 C   0  0  0  0  0  0  0  0  0  0  0  0
  152.1821  141.1756  159.7003 N   0  3  0  0  0  0  0  0  0  0  0  0
  152.2516  142.5653  159.5817 C   0  0  0  0  0  0  0  0  0  0  0  0
  152.6486  143.5385  160.4937 C   0  0  0  0  0  0  0  0  0  0  0  0
  152.5969  144.8775  160.0535 C   0  0  0  0  0  0  0  0  0  0  0  0
  152.1637  145.2066  158.7526 C   0  0  0  0  0  0  0  0  0  0  0  0
  151.7656  144.2115  157.8357 C   0  0  0  0  0  0  0  0  0  0  0  0
  151.8204  142.8899  158.2778 C   0  0  0  0  0  0  0  0  0  0  0  0
  148.3775  137.7622  155.2479 C   0  0  0  0  0  0  0  0  0  0  0  0
  148.8309  134.4185  155.8642 H   0  0  0  0  0  0  0  0  0  0  0  0
  147.3350  135.2230  155.3841 H   0  0  0  0  0  0  0  0  0  0  0  0
  147.9803  135.4570  157.0140 H   0  0  0  0  0  0  0  0  0  0  0  0
  150.9449  135.5135  155.4624 H   0  0  0  0  0  0  0  0  0  0  0  0
  152.2158  137.4937  154.6785 H   0  0  0  0  0  0  0  0  0  0  0  0
  151.0772  139.6246  154.2576 H   0  0  0  0  0  0  0  0  0  0  0  0
  149.8884  141.3482  154.0470 H   0  0  0  0  0  0  0  0  0  0  0  0
  148.3434  142.1017  154.4562 H   0  0  0  0  0  0  0  0  0  0  0  0
  149.1887  140.6078  156.7578 H   0  0  0  0  0  0  0  0  0  0  0  0
  148.8297  143.2845  156.0593 H   0  0  0  0  0  0  0  0  0  0  0  0
  151.5277  140.8007  155.7875 H   0  0  0  0  0  0  0  0  0  0  0  0
  151.3697  142.5363  155.7601 H   0  0  0  0  0  0  0  0  0  0  0  0
  151.5748  139.5917  158.3273 H   0  0  0  0  0  0  0  0  0  0  0  0
  152.9796  143.2895  161.4913 H   0  0  0  0  0  0  0  0  0  0  0  0
  152.8935  145.6680  160.7274 H   0  0  0  0  0  0  0  0  0  0  0  0
  152.1344  146.2438  158.4517 H   0  0  0  0  0  0  0  0  0  0  0  0
  151.4295  144.4759  156.8441 H   0  0  0  0  0  0  0  0  0  0  0  0
  147.3113  137.8337  155.4074 H   0  0  0  0  0  0  0  0  0  0  0  0
  152.4250  140.6294  160.5169 H   0  0  0  0  0  0  0  0  0  0  0  0
  1  2  1  0  0  0  0
  1 22  1  0  0  0  0
  1 23  1  0  0  0  0
  1 24  1  0  0  0  0
  2 21  1  0  0  0  0
  2  3  2  0  0  0  0
  3  4  1  0  0  0  0
  3 25  1  0  0  0  0
  4  5  2  0  0  0  0
  4 26  1  0  0  0  0
  5  6  1  0  0  0  0
  5 27  1  0  0  0  0
  6  7  1  0  0  0  0
  6 21  2  0  0  0  0
  7  8  1  0  0  0  0
  8  9  1  0  0  0  0
  8 28  1  0  0  0  0
  8 29  1  0  0  0  0
  9 10  1  0  0  0  0
  9 11  1  0  0  0  0
  9 30  1  0  0  0  0
 10 31  1  0  0  0  0
 11 12  1  0  0  0  0
 11 32  1  0  0  0  0
 11 33  1  0  0  0  0
 12 20  1  0  0  0  0
 12 13  1  0  0  0  0
 13 14  2  0  0  0  0
 13 34  1  0  0  0  0
 14 15  1  0  0  0  0
 14 40  1  0  0  0  0
 15 20  2  0  0  0  0
 15 16  1  0  0  0  0
 16 17  2  0  0  0  0
 16 35  1  0  0  0  0
 17 18  1  0  0  0  0
 17 36  1  0  0  0  0
 18 19  2  0  0  0  0
 18 37  1  0  0  0  0
 19 20  1  0  0  0  0
 19 38  1  0  0  0  0
 21 39  1  0  0  0  0
M  CHG  1  14   1
M  END
> <s_m_source_file>
AV-unprocessed.smi

> <i_m_source_file_index>
1506

> <i_lp_mmshare_version>
43012

> <i_f3d_flags>
0

> <s_epik_input>
W0NIM11jMVtjSF1bY0hdW2NIXWMoW2NIXTEpT1tDSDJdW0NASF0oW09IXSlbQ0gyXW4oW2NIXW4yKWMoYzIzKVtjSF1bY0hdW2NIXVtjSF0z

> <s_epik_cmdline>
J2VwaWtfcHl0aG9uJywgJy1waCcsICc3LjAnLCAnLXRuJywgJzgnLCAnLW1hJywgJzIwMCcsICctbWV0YWxfYmluZGluZycsICctaW1hZScsICc8aW5maWxlLm1hZT4nLCAnLW9tYWUnLCAnPG91dGZpbGUubWFlPic=

> <r_lp_tautomer_probability>
1

> <r_epik_Ionization_Penalty>
1.37864

> <r_epik_Ionization_Penalty_Charging>
1.37864

> <r_epik_Ionization_Penalty_Neutral>
2.3993e-06

> <r_epik_State_Penalty>
1.45896

> <r_epik_Charging_Adjusted_Penalty>
2.8376

> <i_epik_Tot_Q>
1

> <i_epik_Tot_abs_Q>
1

> <r_epik_Metal_State_Penalty>
5.49899

> <b_epik_Metal_Only>
0

> <s_lp_Force_Field>
OPLS_2005

> <r_lp_Energy>
20.022

> <b_lp_Chiralities_Consistent>
1

> <s_lp_Variant>
AV-unprocessed.smi:1506-3

> <Gold.Version>
5.8.1

> <Gold.Id.Protein>
6NUR|6NUR_protein|mol2

> <Gold.PLP.Fitness>
46.2695

> <Gold.PLP.PLP>
-46.0196

> <Gold.PLP.part.hbond>
-0.9881

> <Gold.PLP.part.metal>
0.0000

> <Gold.PLP.part.buried>
-6.1772

> <Gold.PLP.part.nonpolar>
-39.7125

> <Gold.PLP.part.repulsive>
0.2413

> <Gold.PLP.ligand.clash>
0.0000

> <Gold.PLP.ligand.torsion>
1.4044

> <Gold.PLP.Chemscore.Hbond>
1.0000

> <Gold.PLP.Chemscore.CHOScore>
0.0000

> <Gold.PLP.Chemscore.Metal>
0.0000

> <Gold.Chemscore.Hbonds>
donor molecule, donor type, donor heavy atom, donor atom, acceptor molecule, acceptor atom, score
      L1  H    10    31       P1  8028  0.89

> <Gold.PLP.Chemscore.Internal.Correction>
0.0586

> <Gold.Rescore>
     Score         DG    S(hbond)    S(metal)    S(lipo)     H(rot)  DE(clash)    DE(int)     intcor
     16.67     -17.98       0.96        0.00     129.12       2.27       0.08       1.22       ----

> <Gold.Chemscore.Fitness>
16.6738

> <Gold.Chemscore.DG>
-17.9766

> <Gold.Chemscore.ZeroCoef>
-5.4800

> <Gold.Chemscore.Hbond>
0.9599

> <Gold.Chemscore.Metal>
0.0000

> <Gold.Chemscore.Lipo>
129.1244

> <Gold.Chemscore.Internal_Hbond>
0.0000

> <Gold.Chemscore.DEClash>
0.0808

> <Gold.Chemscore.DEInternal>
1.2220

> <Gold.Chemscore.Rot>
2.2723

> <Gold.Chemscore.Internal.Correction>
   9.000000E+99

> <Gold.Chemscore.Hbonds>
donor molecule, donor type, donor heavy atom, donor atom, acceptor molecule, acceptor atom, score
      L1  H    10    31       P1  8028  0.81

> <Gold.Chemscore.Hbond.Weighted>
-3.2061

> <Gold.Chemscore.Metal.Weighted>
-0.0000

> <Gold.Chemscore.Lipo.Weighted>
-15.1076

> <Gold.Chemscore.Internal_Hbond.Weighted>
0.0000

> <Gold.Chemscore.DEClash.Weighted>
0.0808

> <Gold.Chemscore.DEInternal.Weighted>
1.2220

> <Gold.Chemscore.Rot.Weighted>
5.8170

> <Gold.Chemscore.Internal.Correction.Weighted>
   9.000000E+99

> <Gold.Protein.RotatedTorsions>
[ 6907 6896 6895 6894 ] final  -37.92 input  -60.11 | X-H torsion
[ 7974 7965 7964 7962 ] final -158.79 input  175.53 | X-H torsion
[ 8008 7997 7996 7995 ] final  -93.83 input   59.86 | X-H torsion
[ 10167 10162 10161 10158 ] final  -13.09 input  -65.29 | X-H torsion
[ 10718 10713 10712 10709 ] final   35.86 input   66.30 | X-H torsion
[ 10763 10752 10751 10750 ] final   -1.64 input  -60.55 | X-H torsion
[ 11005 11000 10999 10996 ] final  105.44 input  -57.11 | X-H torsion

> <Gold.Protein.ActiveResidues>
 VAL166  LYS551  ARG553  GLY616  TRP617  ASP618  TYR619  PRO620  LYS621  CYS622 
 ASP623  PHE694  ASN695  SER759  ASP760  ASP761  ALA762  ILE779  LEU786  VAL792 
 PHE793  MET794  SER795  GLU796  ALA797  LYS798  CYS799  TRP800  GLU811  SER814 

> <Gold.Protein.RotatedAtoms>
  151.0088  134.9380  159.7995 H   0  0  0  0  0  0  0  0  0  0  0  0  # atno 6907 bound_to 6896
  152.5297  134.3056  159.9104 H   0  0  0  0  0  0  0  0  0  0  0  0  # atno 6908 bound_to 6896
  151.3062  133.4059  159.2677 H   0  0  0  0  0  0  0  0  0  0  0  0  # atno 6909 bound_to 6896
  144.7491  140.3778  143.6062 H   0  0  0  0  0  0  0  0  0  0  0  0  # atno 7974 bound_to 7965
  154.7407  140.0495  157.0808 H   0  0  0  0  0  0  0  0  0  0  0  0  # atno 8008 bound_to 7997
  155.0182  140.3144  155.4784 H   0  0  0  0  0  0  0  0  0  0  0  0  # atno 8009 bound_to 7997
  156.2863  140.2172  156.5300 H   0  0  0  0  0  0  0  0  0  0  0  0  # atno 8010 bound_to 7997
  140.7175  143.5463  150.9352 H   0  0  0  0  0  0  0  0  0  0  0  0  # atno 10167 bound_to 10162
  157.3278  130.7482  149.6827 H   0  0  0  0  0  0  0  0  0  0  0  0  # atno 10718 bound_to 10713
  153.3475  135.6984  153.6816 H   0  0  0  0  0  0  0  0  0  0  0  0  # atno 10763 bound_to 10752
  153.5556  135.3545  155.2778 H   0  0  0  0  0  0  0  0  0  0  0  0  # atno 10764 bound_to 10752
  154.8647  135.4237  154.2702 H   0  0  0  0  0  0  0  0  0  0  0  0  # atno 10765 bound_to 10752
  139.8802  134.9335  156.5514 H   0  0  0  0  0  0  0  0  0  0  0  0  # atno 11005 bound_to 11000
  145.7010  139.1661  143.2593 LP  0  0  0  0  0  0  0  0  0  0  0  0  # atno 17320 bound_to 7965
  146.1415  140.7050  142.9364 LP  0  0  0  0  0  0  0  0  0  0  0  0  # atno 17321 bound_to 7965
  139.9186  143.6633  152.3101 LP  0  0  0  0  0  0  0  0  0  0  0  0  # atno 17342 bound_to 10162
  139.7042  144.7630  151.1222 LP  0  0  0  0  0  0  0  0  0  0  0  0  # atno 17343 bound_to 10162
  155.9692  130.4204  150.4421 LP  0  0  0  0  0  0  0  0  0  0  0  0  # atno 17370 bound_to 10713
  157.2447  131.0533  151.2415 LP  0  0  0  0  0  0  0  0  0  0  0  0  # atno 17371 bound_to 10713
  140.8237  133.8333  155.8920 LP  0  0  0  0  0  0  0  0  0  0  0  0  # atno 17394 bound_to 11000
  140.9394  134.1920  157.4808 LP  0  0  0  0  0  0  0  0  0  0  0  0  # atno 17395 bound_to 11000

$$$$
