AV-unprocessed.smi:54|AV-procd|sdf|541|dock8
  -GOLD-   2262016433D 1   1.00000     0.00000
 Structure written by MMmdl.
 44 46  0  0  0  0  0  0  0  0  1 V2000
  152.2789  144.1678  160.8501 C   0  0  0  0  0  0  0  0  0  0  0  0
  151.7231  144.1688  159.4167 C   0  0  0  0  0  0  0  0  0  0  0  0
  150.2501  144.6073  159.3893 C   0  0  0  0  0  0  0  0  0  0  0  0
  151.8865  142.7879  158.7713 C   0  0  0  0  0  0  0  0  0  0  0  0
  152.6865  141.9568  159.2026 O   0  0  0  0  0  0  0  0  0  0  0  0
  151.0310  142.5317  157.6260 N   0  0  0  0  0  0  0  0  0  0  0  0
  150.9709  141.4052  156.8784 C   0  0  0  0  0  0  0  0  0  0  0  0
  149.8600  140.9782  156.2945 N   0  0  0  0  0  0  0  0  0  0  0  0
  149.9995  139.8167  155.5867 C   0  0  0  0  0  0  0  0  0  0  0  0
  151.1549  139.0789  155.4366 C   0  0  0  0  0  0  0  0  0  0  0  0
  150.9107  137.9611  154.6467 N   0  0  0  0  0  0  0  0  0  0  0  0
  149.6443  138.0535  154.3510 C   0  0  0  0  0  0  0  0  0  0  0  0
  149.0172  139.1584  154.8780 N   0  0  0  0  0  0  0  0  0  0  0  0
  147.5877  139.5893  154.7516 C   0  0  2  0  0  0  0  0  0  0  0  0
  146.8122  138.4329  154.6428 O   0  0  0  0  0  0  0  0  0  0  0  0
  146.0623  138.4304  153.4289 C   0  0  2  0  0  0  0  0  0  0  0  0
  145.8695  136.9972  152.9024 C   0  0  0  0  0  0  0  0  0  0  0  0
  145.7075  137.0134  151.5002 O   0  0  0  0  0  0  0  0  0  0  0  0
  146.8201  139.3853  152.4950 C   0  0  2  0  0  0  0  0  0  0  0  0
  147.8553  138.7173  151.7924 O   0  0  0  0  0  0  0  0  0  0  0  0
  147.3493  140.4210  153.4775 C   0  0  2  0  0  0  0  0  0  0  0  0
  148.4737  141.1319  152.9883 O   0  0  0  0  0  0  0  0  0  0  0  0
  152.3641  139.5246  156.0661 C   0  0  0  0  0  0  0  0  0  0  0  0
  153.4745  138.9983  156.0421 O   0  0  0  0  0  0  0  0  0  0  0  0
  152.1798  140.7157  156.7802 N   0  0  0  0  0  0  0  0  0  0  0  0
  147.3743  140.1278  155.6757 H   0  0  0  0  0  0  0  0  0  0  0  0
  145.0914  138.8819  153.6412 H   0  0  0  0  0  0  0  0  0  0  0  0
  146.1539  139.8358  151.7586 H   0  0  0  0  0  0  0  0  0  0  0  0
  146.5547  141.1337  153.7019 H   0  0  0  0  0  0  0  0  0  0  0  0
  153.3207  143.8452  160.8720 H   0  0  0  0  0  0  0  0  0  0  0  0
  151.7104  143.5021  161.5010 H   0  0  0  0  0  0  0  0  0  0  0  0
  152.2376  145.1670  161.2843 H   0  0  0  0  0  0  0  0  0  0  0  0
  152.3003  144.8877  158.8334 H   0  0  0  0  0  0  0  0  0  0  0  0
  149.8564  144.6127  158.3721 H   0  0  0  0  0  0  0  0  0  0  0  0
  150.1369  145.6155  159.7879 H   0  0  0  0  0  0  0  0  0  0  0  0
  149.6222  143.9443  159.9863 H   0  0  0  0  0  0  0  0  0  0  0  0
  150.3980  143.2763  157.3741 H   0  0  0  0  0  0  0  0  0  0  0  0
  149.1380  137.3191  153.7419 H   0  0  0  0  0  0  0  0  0  0  0  0
  146.7517  136.3946  153.1204 H   0  0  0  0  0  0  0  0  0  0  0  0
  145.0165  136.5101  153.3758 H   0  0  0  0  0  0  0  0  0  0  0  0
  145.0549  137.6605  151.2805 H   0  0  0  0  0  0  0  0  0  0  0  0
  148.6461  139.2293  151.8699 H   0  0  0  0  0  0  0  0  0  0  0  0
  148.9820  140.5447  152.4496 H   0  0  0  0  0  0  0  0  0  0  0  0
  152.9913  141.0892  157.2500 H   0  0  0  0  0  0  0  0  0  0  0  0
  1  2  1  0  0  0  0
  1 30  1  0  0  0  0
  1 31  1  0  0  0  0
  1 32  1  0  0  0  0
  2  3  1  0  0  0  0
  2  4  1  0  0  0  0
  2 33  1  0  0  0  0
  3 34  1  0  0  0  0
  3 35  1  0  0  0  0
  3 36  1  0  0  0  0
  4  5  2  0  0  0  0
  4  6  1  0  0  0  0
  6 37  1  0  0  0  0
  6  7  1  0  0  0  0
  7 25  1  0  0  0  0
  7  8  2  0  0  0  0
  8  9  1  0  0  0  0
  9 13  1  0  0  0  0
  9 10  2  0  0  0  0
 10 11  1  0  0  0  0
 10 23  1  0  0  0  0
 11 12  2  0  0  0  0
 12 13  1  0  0  0  0
 12 38  1  0  0  0  0
 13 14  1  0  0  0  0
 14 26  1  0  0  0  0
 14 21  1  0  0  0  0
 14 15  1  0  0  0  0
 15 16  1  0  0  0  0
 16 27  1  0  0  0  0
 16 17  1  0  0  0  0
 16 19  1  0  0  0  0
 17 18  1  0  0  0  0
 17 39  1  0  0  0  0
 17 40  1  0  0  0  0
 18 41  1  0  0  0  0
 19 28  1  0  0  0  0
 19 20  1  0  0  0  0
 19 21  1  0  0  0  0
 20 42  1  0  0  0  0
 21 29  1  0  0  0  0
 21 22  1  0  0  0  0
 22 43  1  0  0  0  0
 23 24  2  0  0  0  0
 23 25  1  0  0  0  0
 25 44  1  0  0  0  0
M  END
> <s_m_source_file>
AV-unprocessed.smi

> <i_m_source_file_index>
54

> <i_lp_mmshare_version>
43012

> <i_f3d_flags>
0

> <s_epik_input>
W0NIM11bQ0hdKFtDSDNdKUMoPU8pW05IXWMobjEpW25IXWMoPU8pYyhjMTIpbltjSF1uMltDQEBIXTNPW0NASF0oW0NIMl1bT0hdKVtDQEBIXShbT0hdKVtDQEhdM1tPSF0=

> <s_epik_cmdline>
J2VwaWtfcHl0aG9uJywgJy1waCcsICc3LjAnLCAnLXRuJywgJzgnLCAnLW1hJywgJzIwMCcsICctbWV0YWxfYmluZGluZycsICctaW1hZScsICc8aW5maWxlLm1hZT4nLCAnLW9tYWUnLCAnPG91dGZpbGUubWFlPic=

> <r_lp_tautomer_probability>
0.85571

> <r_epik_Ionization_Penalty>
0.0316551

> <r_epik_Ionization_Penalty_Charging>
0.0316043

> <r_epik_Ionization_Penalty_Neutral>
5.07097e-05

> <r_epik_State_Penalty>
3.15494e-07

> <r_epik_Charging_Adjusted_Penalty>
0.0316047

> <i_epik_Tot_Q>
0

> <i_epik_Tot_abs_Q>
0

> <r_epik_Metal_State_Penalty>
0.421206

> <b_epik_Metal_Only>
0

> <s_epik_Chemistry_Notes>
This compound contains an acetal/aminal-like group ( X-CH(R)-Y where X, Y are N, S, or O) that may be acid/base labile, releasing an aldehyde.

> <s_lp_Force_Field>
OPLS_2005

> <r_lp_Energy>
46.8633

> <b_lp_Chiralities_Consistent>
1

> <s_lp_Variant>
AV-unprocessed.smi:54-13

> <Gold.Version>
5.8.1

> <Gold.Id.Protein>
6NUR|6NUR_protein|mol2

> <Gold.PLP.Fitness>
47.0049

> <Gold.PLP.PLP>
-33.7933

> <Gold.PLP.part.hbond>
-5.7575

> <Gold.PLP.part.metal>
0.0000

> <Gold.PLP.part.buried>
-1.5612

> <Gold.PLP.part.nonpolar>
-26.8626

> <Gold.PLP.part.repulsive>
0.4536

> <Gold.PLP.ligand.clash>
0.0000

> <Gold.PLP.ligand.torsion>
1.8400

> <Gold.PLP.Chemscore.Hbond>
4.5553

> <Gold.PLP.Chemscore.CHOScore>
1.0000

> <Gold.PLP.Chemscore.Metal>
0.0000

> <Gold.Chemscore.Hbonds>
donor molecule, donor type, donor heavy atom, donor atom, acceptor molecule, acceptor atom, score
      L1  H    18    41       P1 10171  0.81
      L1  H    20    42       P1  7957  0.63
      L1  H    22    43       P1  7957  0.96
      P1  H  7954  7966       L1    20  0.68
      P1  H  7997  8008       L1    24  0.76
      P1  H  8011  8017       L1    22  0.05
      L1  C    12    38       P1  7948  1.00

> <Gold.PLP.Chemscore.Internal.Correction>
0.2258

> <Gold.Rescore>
     Score         DG    S(hbond)    S(metal)    S(lipo)     H(rot)  DE(clash)    DE(int)     intcor
      9.71     -12.83       3.08        0.00      63.43       4.05       1.29       1.83       ----

> <Gold.Chemscore.Fitness>
9.7113

> <Gold.Chemscore.DG>
-12.8266

> <Gold.Chemscore.ZeroCoef>
-5.4800

> <Gold.Chemscore.Hbond>
3.0813

> <Gold.Chemscore.Metal>
0.0000

> <Gold.Chemscore.Lipo>
63.4295

> <Gold.Chemscore.Internal_Hbond>
0.0000

> <Gold.Chemscore.DEClash>
1.2884

> <Gold.Chemscore.DEInternal>
1.8268

> <Gold.Chemscore.Rot>
4.0493

> <Gold.Chemscore.Internal.Correction>
   9.000000E+99

> <Gold.Chemscore.Hbonds>
donor molecule, donor type, donor heavy atom, donor atom, acceptor molecule, acceptor atom, score
      L1  H    18    41       P1 10171  0.75
      L1  H    20    42       P1  7957  0.61
      L1  H    22    43       P1  7957  0.89
      P1  H  7954  7966       L1    20  0.15
      P1  H  7997  8008       L1    24  0.32

> <Gold.Chemscore.Hbond.Weighted>
-10.2916

> <Gold.Chemscore.Metal.Weighted>
-0.0000

> <Gold.Chemscore.Lipo.Weighted>
-7.4213

> <Gold.Chemscore.Internal_Hbond.Weighted>
0.0000

> <Gold.Chemscore.DEClash.Weighted>
1.2884

> <Gold.Chemscore.DEInternal.Weighted>
1.8268

> <Gold.Chemscore.Rot.Weighted>
10.3662

> <Gold.Chemscore.Internal.Correction.Weighted>
   9.000000E+99

> <Gold.Protein.RotatedTorsions>
[ 6907 6896 6895 6894 ] final -105.18 input  -60.11 | X-H torsion
[ 7974 7965 7964 7962 ] final   57.61 input  175.53 | X-H torsion
[ 8008 7997 7996 7995 ] final  -56.54 input   59.86 | X-H torsion
[ 10167 10162 10161 10158 ] final  -47.22 input  -65.29 | X-H torsion
[ 10718 10713 10712 10709 ] final -119.78 input   66.30 | X-H torsion
[ 10763 10752 10751 10750 ] final  -62.75 input  -60.55 | X-H torsion
[ 11005 11000 10999 10996 ] final  -94.20 input  -57.11 | X-H torsion

> <Gold.Protein.ActiveResidues>
 VAL166  LYS551  ARG553  GLY616  TRP617  ASP618  TYR619  PRO620  LYS621  CYS622 
 ASP623  PHE694  ASN695  SER759  ASP760  ASP761  ALA762  ILE779  LEU786  VAL792 
 PHE793  MET794  SER795  GLU796  ALA797  LYS798  CYS799  TRP800  GLU811  SER814 

> <Gold.Protein.RotatedAtoms>
  150.7324  134.0165  159.3686 H   0  0  0  0  0  0  0  0  0  0  0  0  # atno 6907 bound_to 6896
  151.8127  135.0673  160.0424 H   0  0  0  0  0  0  0  0  0  0  0  0  # atno 6908 bound_to 6896
  152.3061  133.5668  159.5686 H   0  0  0  0  0  0  0  0  0  0  0  0  # atno 6909 bound_to 6896
  145.9272  139.3777  143.0443 H   0  0  0  0  0  0  0  0  0  0  0  0  # atno 7974 bound_to 7965
  154.4234  140.1127  156.5654 H   0  0  0  0  0  0  0  0  0  0  0  0  # atno 8008 bound_to 7997
  155.6268  140.3495  155.4651 H   0  0  0  0  0  0  0  0  0  0  0  0  # atno 8009 bound_to 7997
  155.9980  140.1193  157.0564 H   0  0  0  0  0  0  0  0  0  0  0  0  # atno 8010 bound_to 7997
  140.6784  143.2794  151.3896 H   0  0  0  0  0  0  0  0  0  0  0  0  # atno 10167 bound_to 10162
  156.1207  130.6321  150.9459 H   0  0  0  0  0  0  0  0  0  0  0  0  # atno 10718 bound_to 10713
  154.3047  135.6227  153.5439 H   0  0  0  0  0  0  0  0  0  0  0  0  # atno 10763 bound_to 10752
  152.9836  135.5687  154.5245 H   0  0  0  0  0  0  0  0  0  0  0  0  # atno 10764 bound_to 10752
  154.4882  135.2866  155.1493 H   0  0  0  0  0  0  0  0  0  0  0  0  # atno 10765 bound_to 10752
  141.1477  133.7940  157.0265 H   0  0  0  0  0  0  0  0  0  0  0  0  # atno 11005 bound_to 11000
  145.8474  140.9548  143.0767 LP  0  0  0  0  0  0  0  0  0  0  0  0  # atno 17320 bound_to 7965
  144.6760  140.0362  143.7482 LP  0  0  0  0  0  0  0  0  0  0  0  0  # atno 17321 bound_to 7965
  139.6091  144.1136  152.2280 LP  0  0  0  0  0  0  0  0  0  0  0  0  # atno 17342 bound_to 10162
  140.0544  144.5906  150.7311 LP  0  0  0  0  0  0  0  0  0  0  0  0  # atno 17343 bound_to 10162
  157.6390  131.0912  150.8289 LP  0  0  0  0  0  0  0  0  0  0  0  0  # atno 17370 bound_to 10713
  156.8386  130.5040  149.5323 LP  0  0  0  0  0  0  0  0  0  0  0  0  # atno 17371 bound_to 10713
  140.0781  134.9664  157.1580 LP  0  0  0  0  0  0  0  0  0  0  0  0  # atno 17394 bound_to 11000
  140.3615  134.2489  155.7186 LP  0  0  0  0  0  0  0  0  0  0  0  0  # atno 17395 bound_to 11000

$$$$
