AV-unprocessed.smi:247|AV-procd|sdf|1893|dock2
  -GOLD-   2262020553D 1   1.00000     0.00000
 Structure written by MMmdl.
 61 65  0  0  0  0  0  0  0  0  1 V2000
  147.5847  137.5064  161.5937 O   0  0  0  0  0  0  0  0  0  0  0  0
  146.3330  137.1770  162.1638 C   0  0  0  0  0  0  0  0  0  0  0  0
  145.8370  135.7526  161.7882 C   0  0  0  0  0  0  0  0  0  0  0  0
  145.4675  135.7387  160.2707 C   0  0  0  0  0  0  0  0  0  0  0  0
  146.3674  136.4922  159.4087 N   0  0  0  0  0  0  0  0  0  0  0  0
  147.5496  136.0473  158.8599 C   0  0  0  0  0  0  0  0  0  0  0  0
  148.1818  136.9143  158.1179 N   0  0  0  0  0  0  0  0  0  0  0  0
  147.3622  138.0356  158.1356 C   0  0  0  0  0  0  0  0  0  0  0  0
  147.4477  139.3317  157.5561 C   0  0  0  0  0  0  0  0  0  0  0  0
  148.5021  139.7062  156.7900 N   0  0  0  0  0  0  0  0  0  0  0  0
  148.2970  140.9697  156.0970 C   0  0  0  0  0  0  0  0  0  0  0  0
  149.6810  141.4213  155.6515 C   0  0  0  0  0  0  0  0  0  0  0  0
  150.5882  140.8870  156.7566 C   0  0  0  0  0  0  0  0  0  0  0  0
  149.8805  139.6246  157.2912 C   0  0  2  0  0  0  0  0  0  0  0  0
  150.6255  138.3033  156.9125 C   0  0  2  0  0  0  0  0  0  0  0  0
  152.1264  138.2901  157.2828 C   0  0  0  0  0  0  0  0  0  0  0  0
  152.8876  139.0388  156.3402 O   0  0  0  0  0  0  0  0  0  0  0  0
  152.8698  138.4639  155.0382 C   0  0  0  0  0  0  0  0  0  0  0  0
  151.4404  138.4543  154.4747 C   0  0  0  0  0  0  0  0  0  0  0  0
  150.4680  137.7858  155.4600 C   0  0  2  0  0  0  0  0  0  0  0  0
  149.1369  137.8780  154.9950 O   0  0  0  0  0  0  0  0  0  0  0  0
  146.4287  140.1961  157.8031 N   0  0  0  0  0  0  0  0  0  0  0  0
  145.3991  139.8246  158.5690 C   0  0  0  0  0  0  0  0  0  0  0  0
  145.1919  138.6559  159.1783 N   0  0  0  0  0  0  0  0  0  0  0  0
  146.2123  137.7841  158.9353 C   0  0  0  0  0  0  0  0  0  0  0  0
  146.9323  134.7092  162.1298 C   0  0  0  0  0  0  0  0  0  0  0  0
  146.4233  133.2628  161.9986 C   0  0  0  0  0  0  0  0  0  0  0  0
  145.2903  133.0726  162.8375 O   0  0  0  0  0  0  0  0  0  0  0  0
  144.1892  133.9017  162.4852 C   0  0  0  0  0  0  0  0  0  0  0  0
  144.5775  135.3873  162.6160 C   0  0  0  0  0  0  0  0  0  0  0  0
  147.8748  136.7782  161.0657 H   0  0  0  0  0  0  0  0  0  0  0  0
  146.4205  137.2750  163.2464 H   0  0  0  0  0  0  0  0  0  0  0  0
  145.6223  137.9344  161.8335 H   0  0  0  0  0  0  0  0  0  0  0  0
  145.4264  134.7236  159.8795 H   0  0  0  0  0  0  0  0  0  0  0  0
  144.4621  136.1390  160.1337 H   0  0  0  0  0  0  0  0  0  0  0  0
  147.9374  135.0547  159.0360 H   0  0  0  0  0  0  0  0  0  0  0  0
  147.6271  140.8583  155.2443 H   0  0  0  0  0  0  0  0  0  0  0  0
  147.8608  141.7003  156.7804 H   0  0  0  0  0  0  0  0  0  0  0  0
  149.9324  140.9587  154.6970 H   0  0  0  0  0  0  0  0  0  0  0  0
  149.7518  142.5021  155.5274 H   0  0  0  0  0  0  0  0  0  0  0  0
  151.6059  140.7078  156.4087 H   0  0  0  0  0  0  0  0  0  0  0  0
  150.6481  141.6279  157.5552 H   0  0  0  0  0  0  0  0  0  0  0  0
  149.9030  139.7164  158.3763 H   0  0  0  0  0  0  0  0  0  0  0  0
  150.1529  137.5392  157.5315 H   0  0  0  0  0  0  0  0  0  0  0  0
  152.2918  138.6934  158.2798 H   0  0  0  0  0  0  0  0  0  0  0  0
  152.4989  137.2649  157.3113 H   0  0  0  0  0  0  0  0  0  0  0  0
  153.5226  139.0460  154.3874 H   0  0  0  0  0  0  0  0  0  0  0  0
  153.2784  137.4528  155.0730 H   0  0  0  0  0  0  0  0  0  0  0  0
  151.1329  139.4701  154.2470 H   0  0  0  0  0  0  0  0  0  0  0  0
  151.4255  137.9248  153.5216 H   0  0  0  0  0  0  0  0  0  0  0  0
  150.7113  136.7223  155.4687 H   0  0  0  0  0  0  0  0  0  0  0  0
  149.1339  137.7386  154.0604 H   0  0  0  0  0  0  0  0  0  0  0  0
  144.6346  140.5728  158.7175 H   0  0  0  0  0  0  0  0  0  0  0  0
  147.8225  134.8555  161.5190 H   0  0  0  0  0  0  0  0  0  0  0  0
  147.2635  134.8452  163.1597 H   0  0  0  0  0  0  0  0  0  0  0  0
  146.1757  133.0135  160.9666 H   0  0  0  0  0  0  0  0  0  0  0  0
  147.2035  132.5671  162.3076 H   0  0  0  0  0  0  0  0  0  0  0  0
  143.8424  133.6596  161.4806 H   0  0  0  0  0  0  0  0  0  0  0  0
  143.3609  133.6780  163.1574 H   0  0  0  0  0  0  0  0  0  0  0  0
  144.7517  135.5831  163.6744 H   0  0  0  0  0  0  0  0  0  0  0  0
  143.7363  136.0197  162.3296 H   0  0  0  0  0  0  0  0  0  0  0  0
  1  2  1  0  0  0  0
  1 31  1  0  0  0  0
  2  3  1  0  0  0  0
  2 32  1  0  0  0  0
  2 33  1  0  0  0  0
  3 30  1  0  0  0  0
  3  4  1  0  0  0  0
  3 26  1  0  0  0  0
  4  5  1  0  0  0  0
  4 34  1  0  0  0  0
  4 35  1  0  0  0  0
  5 25  1  0  0  0  0
  5  6  1  0  0  0  0
  6  7  2  0  0  0  0
  6 36  1  0  0  0  0
  7  8  1  0  0  0  0
  8 25  2  0  0  0  0
  8  9  1  0  0  0  0
  9 10  1  0  0  0  0
  9 22  2  0  0  0  0
 10 14  1  0  0  0  0
 10 11  1  0  0  0  0
 11 12  1  0  0  0  0
 11 37  1  0  0  0  0
 11 38  1  0  0  0  0
 12 13  1  0  0  0  0
 12 39  1  0  0  0  0
 12 40  1  0  0  0  0
 13 14  1  0  0  0  0
 13 41  1  0  0  0  0
 13 42  1  0  0  0  0
 14 15  1  0  0  0  0
 14 43  1  0  0  0  0
 15 20  1  0  0  0  0
 15 16  1  0  0  0  0
 15 44  1  0  0  0  0
 16 17  1  0  0  0  0
 16 45  1  0  0  0  0
 16 46  1  0  0  0  0
 17 18  1  0  0  0  0
 18 19  1  0  0  0  0
 18 47  1  0  0  0  0
 18 48  1  0  0  0  0
 19 20  1  0  0  0  0
 19 49  1  0  0  0  0
 19 50  1  0  0  0  0
 20 21  1  0  0  0  0
 20 51  1  0  0  0  0
 21 52  1  0  0  0  0
 22 23  1  0  0  0  0
 23 24  2  0  0  0  0
 23 53  1  0  0  0  0
 24 25  1  0  0  0  0
 26 27  1  0  0  0  0
 26 54  1  0  0  0  0
 26 55  1  0  0  0  0
 27 28  1  0  0  0  0
 27 56  1  0  0  0  0
 27 57  1  0  0  0  0
 28 29  1  0  0  0  0
 29 30  1  0  0  0  0
 29 58  1  0  0  0  0
 29 59  1  0  0  0  0
 30 60  1  0  0  0  0
 30 61  1  0  0  0  0
M  END
> <s_m_source_file>
AV-unprocessed.smi

> <i_m_source_file_index>
247

> <i_lp_mmshare_version>
43012

> <i_f3d_flags>
0

> <s_epik_input>
W0NIMl0xW0NIMl1PW0NIMl1bQ0gyXUMxKFtDSDJdW09IXSlbQ0gyXW4oW2NIXW4yKWMoYzIzKW5bY0hdbmMzTjRbQ0gyXVtDSDJdW0NIMl1bQ0BIXTRbQ0BASF01W0NIMl1PW0NIMl1bQ0gyXVtDQEhdNVtPSF0=

> <s_epik_cmdline>
J2VwaWtfcHl0aG9uJywgJy1waCcsICc3LjAnLCAnLXRuJywgJzgnLCAnLW1hJywgJzIwMCcsICctbWV0YWxfYmluZGluZycsICctaW1hZScsICc8aW5maWxlLm1hZT4nLCAnLW9tYWUnLCAnPG91dGZpbGUubWFlPic=

> <r_lp_tautomer_probability>
1

> <r_epik_Ionization_Penalty>
0.00362597

> <r_epik_Ionization_Penalty_Charging>
0

> <r_epik_Ionization_Penalty_Neutral>
0.00362597

> <r_epik_State_Penalty>
0.00241433

> <r_epik_Charging_Adjusted_Penalty>
0.00241433

> <i_epik_Tot_Q>
0

> <i_epik_Tot_abs_Q>
0

> <r_epik_Metal_State_Penalty>
-0

> <b_epik_Metal_Only>
0

> <s_lp_Force_Field>
OPLS_2005

> <r_lp_Energy>
64.0337

> <b_lp_Chiralities_Consistent>
1

> <s_lp_Variant>
AV-unprocessed.smi:247-6

> <Gold.Version>
5.8.1

> <Gold.Id.Protein>
6NUR|6NUR_protein|mol2

> <Gold.PLP.Fitness>
40.1366

> <Gold.PLP.PLP>
-34.1018

> <Gold.PLP.part.hbond>
-3.6282

> <Gold.PLP.part.metal>
0.0000

> <Gold.PLP.part.buried>
-3.9263

> <Gold.PLP.part.nonpolar>
-26.8199

> <Gold.PLP.part.repulsive>
0.0903

> <Gold.PLP.ligand.clash>
0.0000

> <Gold.PLP.ligand.torsion>
0.9817

> <Gold.PLP.Chemscore.Hbond>
2.5472

> <Gold.PLP.Chemscore.CHOScore>
0.0000

> <Gold.PLP.Chemscore.Metal>
0.0000

> <Gold.Chemscore.Hbonds>
donor molecule, donor type, donor heavy atom, donor atom, acceptor molecule, acceptor atom, score
      P1  H  6931  6943       L1     1  0.80
      P1  H  6934  6947       L1     1  0.68
      P1  H  7997  8008       L1    17  1.00

> <Gold.PLP.Chemscore.Internal.Correction>
0.3565

> <Gold.Rescore>
     Score         DG    S(hbond)    S(metal)    S(lipo)     H(rot)  DE(clash)    DE(int)     intcor
      9.81     -14.33       1.83        0.00      93.95       3.23       0.13       4.38       ----

> <Gold.Chemscore.Fitness>
9.8106

> <Gold.Chemscore.DG>
-14.3285

> <Gold.Chemscore.ZeroCoef>
-5.4800

> <Gold.Chemscore.Hbond>
1.8321

> <Gold.Chemscore.Metal>
0.0000

> <Gold.Chemscore.Lipo>
93.9548

> <Gold.Chemscore.Internal_Hbond>
0.0000

> <Gold.Chemscore.DEClash>
0.1341

> <Gold.Chemscore.DEInternal>
4.3838

> <Gold.Chemscore.Rot>
3.2278

> <Gold.Chemscore.Internal.Correction>
   9.000000E+99

> <Gold.Chemscore.Hbonds>
donor molecule, donor type, donor heavy atom, donor atom, acceptor molecule, acceptor atom, score
      P1  H  6931  6943       L1     1  0.24
      P1  H  6934  6947       L1     1  0.15
      P1  H  7997  8008       L1    17  0.35

> <Gold.Chemscore.Hbond.Weighted>
-6.1191

> <Gold.Chemscore.Metal.Weighted>
-0.0000

> <Gold.Chemscore.Lipo.Weighted>
-10.9927

> <Gold.Chemscore.Internal_Hbond.Weighted>
0.0000

> <Gold.Chemscore.DEClash.Weighted>
0.1341

> <Gold.Chemscore.DEInternal.Weighted>
4.3838

> <Gold.Chemscore.Rot.Weighted>
8.2633

> <Gold.Chemscore.Internal.Correction.Weighted>
   9.000000E+99

> <Gold.Protein.RotatedTorsions>
[ 6907 6896 6895 6894 ] final   58.86 input  -60.11 | X-H torsion
[ 7974 7965 7964 7962 ] final   93.60 input  175.53 | X-H torsion
[ 8008 7997 7996 7995 ] final  -37.46 input   59.86 | X-H torsion
[ 10167 10162 10161 10158 ] final   17.68 input  -65.29 | X-H torsion
[ 10718 10713 10712 10709 ] final  -70.46 input   66.30 | X-H torsion
[ 10763 10752 10751 10750 ] final  153.43 input  -60.55 | X-H torsion
[ 11005 11000 10999 10996 ] final  110.77 input  -57.11 | X-H torsion

> <Gold.Protein.ActiveResidues>
 VAL166  LYS551  ARG553  GLY616  TRP617  ASP618  TYR619  PRO620  LYS621  CYS622 
 ASP623  PHE694  ASN695  SER759  ASP760  ASP761  ALA762  ILE779  LEU786  VAL792 
 PHE793  MET794  SER795  GLU796  ALA797  LYS798  CYS799  TRP800  GLU811  SER814 

> <Gold.Protein.RotatedAtoms>
  152.3863  134.6513  160.0124 H   0  0  0  0  0  0  0  0  0  0  0  0  # atno 6907 bound_to 6896
  151.6760  133.3307  159.3216 H   0  0  0  0  0  0  0  0  0  0  0  0  # atno 6908 bound_to 6896
  150.7788  134.6758  159.6461 H   0  0  0  0  0  0  0  0  0  0  0  0  # atno 6909 bound_to 6896
  145.4768  139.2280  143.2905 H   0  0  0  0  0  0  0  0  0  0  0  0  # atno 7974 bound_to 7965
  154.4053  140.1603  156.2540 H   0  0  0  0  0  0  0  0  0  0  0  0  # atno 8008 bound_to 7997
  155.9094  140.3428  155.6064 H   0  0  0  0  0  0  0  0  0  0  0  0  # atno 8009 bound_to 7997
  155.7354  140.0785  157.2261 H   0  0  0  0  0  0  0  0  0  0  0  0  # atno 8010 bound_to 7997
  140.5709  143.9164  150.6712 H   0  0  0  0  0  0  0  0  0  0  0  0  # atno 10167 bound_to 10162
  156.0407  130.4332  150.2299 H   0  0  0  0  0  0  0  0  0  0  0  0  # atno 10718 bound_to 10713
  154.1361  135.2823  155.3173 H   0  0  0  0  0  0  0  0  0  0  0  0  # atno 10763 bound_to 10752
  154.6320  135.5432  153.7695 H   0  0  0  0  0  0  0  0  0  0  0  0  # atno 10764 bound_to 10752
  153.0265  135.6465  154.1510 H   0  0  0  0  0  0  0  0  0  0  0  0  # atno 10765 bound_to 10752
  139.8889  134.9492  156.6330 H   0  0  0  0  0  0  0  0  0  0  0  0  # atno 11005 bound_to 11000
  146.2364  140.5551  142.8953 LP  0  0  0  0  0  0  0  0  0  0  0  0  # atno 17320 bound_to 7965
  144.7912  140.6036  143.6540 LP  0  0  0  0  0  0  0  0  0  0  0  0  # atno 17321 bound_to 7965
  140.2639  143.3504  152.1299 LP  0  0  0  0  0  0  0  0  0  0  0  0  # atno 17342 bound_to 10162
  139.5117  144.6904  151.5774 LP  0  0  0  0  0  0  0  0  0  0  0  0  # atno 17343 bound_to 10162
  157.0394  131.0031  151.3288 LP  0  0  0  0  0  0  0  0  0  0  0  0  # atno 17370 bound_to 10713
  157.5220  130.8004  149.7820 LP  0  0  0  0  0  0  0  0  0  0  0  0  # atno 17371 bound_to 10713
  140.7652  133.8784  155.8448 LP  0  0  0  0  0  0  0  0  0  0  0  0  # atno 17394 bound_to 11000
  140.9889  134.1306  157.4427 LP  0  0  0  0  0  0  0  0  0  0  0  0  # atno 17395 bound_to 11000

$$$$
