AV-unprocessed.smi:104|AV-procd|sdf|997|dock5
  -GOLD-   2262017583D 1   1.00000     0.00000
 Structure written by MMmdl.
 47 49  0  0  0  0  0  0  0  0  1 V2000
  146.7760  134.9785  162.6783 C   0  0  0  0  0  0  0  0  0  0  0  0
  147.2947  136.1749  161.8907 C   0  0  0  0  0  0  0  0  0  0  0  0
  147.9408  137.0699  162.4357 O   0  0  0  0  0  0  0  0  0  0  0  0
  146.9668  136.1185  160.5910 O   0  0  0  0  0  0  0  0  0  0  0  0
  147.6402  136.9523  159.6631 C   0  0  0  0  0  0  0  0  0  0  0  0
  149.0394  136.3861  159.3875 C   0  0  2  0  0  0  0  0  0  0  0  0
  150.0214  137.2636  159.9317 O   0  0  0  0  0  0  0  0  0  0  0  0
  150.5615  138.0176  158.9013 C   0  0  1  0  0  0  0  0  0  0  0  0
  151.9326  138.4635  159.2842 N   0  0  0  0  0  0  0  0  0  0  0  0
  152.4823  139.7236  159.2304 C   0  0  0  0  0  0  0  0  0  0  0  0
  151.5087  141.2326  158.5961 Br  0  0  0  0  0  0  0  0  0  0  0  0
  153.7212  139.8488  159.6167 N   0  0  0  0  0  0  0  0  0  0  0  0
  154.0663  138.5480  159.9637 C   0  0  0  0  0  0  0  0  0  0  0  0
  155.2489  137.9399  160.4547 C   0  0  0  0  0  0  0  0  0  0  0  0
  156.3757  138.6235  160.6981 N   0  0  0  0  0  0  0  0  0  0  0  0
  155.2426  136.6063  160.6861 N   0  0  0  0  0  0  0  0  0  0  0  0
  154.1322  135.9004  160.4477 C   0  0  0  0  0  0  0  0  0  0  0  0
  152.9524  136.3270  159.9889 N   0  0  0  0  0  0  0  0  0  0  0  0
  152.9593  137.6732  159.7587 C   0  0  0  0  0  0  0  0  0  0  0  0
  150.6145  137.1017  157.6902 C   0  0  2  0  0  0  0  0  0  0  0  0
  150.5896  137.8751  156.4992 O   0  0  0  0  0  0  0  0  0  0  0  0
  151.0865  137.3705  155.3589 C   0  0  0  0  0  0  0  0  0  0  0  0
  151.0134  138.3621  154.2055 C   0  0  0  0  0  0  0  0  0  0  0  0
  151.5582  136.2432  155.2093 O   0  0  0  0  0  0  0  0  0  0  0  0
  149.3413  136.2903  157.8781 C   0  0  1  0  0  0  0  0  0  0  0  0
  149.5823  134.9474  157.4787 O   0  0  0  0  0  0  0  0  0  0  0  0
  149.5172  134.6048  156.1815 C   0  0  0  0  0  0  0  0  0  0  0  0
  149.8657  133.1406  155.9496 C   0  0  0  0  0  0  0  0  0  0  0  0
  149.2133  135.3490  155.2493 O   0  0  0  0  0  0  0  0  0  0  0  0
  146.0180  134.4376  162.1110 H   0  0  0  0  0  0  0  0  0  0  0  0
  146.3322  135.3091  163.6174 H   0  0  0  0  0  0  0  0  0  0  0  0
  147.5933  134.2935  162.9046 H   0  0  0  0  0  0  0  0  0  0  0  0
  147.0651  136.9796  158.7365 H   0  0  0  0  0  0  0  0  0  0  0  0
  147.7052  137.9745  160.0387 H   0  0  0  0  0  0  0  0  0  0  0  0
  149.1455  135.4109  159.8652 H   0  0  0  0  0  0  0  0  0  0  0  0
  149.9689  138.9202  158.7486 H   0  0  0  0  0  0  0  0  0  0  0  0
  156.4062  139.6191  160.5310 H   0  0  0  0  0  0  0  0  0  0  0  0
  157.1923  138.1419  161.0458 H   0  0  0  0  0  0  0  0  0  0  0  0
  154.1989  134.8420  160.6524 H   0  0  0  0  0  0  0  0  0  0  0  0
  151.5007  136.4689  157.7679 H   0  0  0  0  0  0  0  0  0  0  0  0
  151.7961  139.1140  154.3057 H   0  0  0  0  0  0  0  0  0  0  0  0
  150.0468  138.8662  154.1951 H   0  0  0  0  0  0  0  0  0  0  0  0
  151.1451  137.8499  153.2525 H   0  0  0  0  0  0  0  0  0  0  0  0
  148.5347  136.7439  157.2988 H   0  0  0  0  0  0  0  0  0  0  0  0
  150.9470  133.0035  155.9618 H   0  0  0  0  0  0  0  0  0  0  0  0
  149.4843  132.8056  154.9850 H   0  0  0  0  0  0  0  0  0  0  0  0
  149.4278  132.5159  156.7285 H   0  0  0  0  0  0  0  0  0  0  0  0
  1  2  1  0  0  0  0
  1 30  1  0  0  0  0
  1 31  1  0  0  0  0
  1 32  1  0  0  0  0
  2  3  2  0  0  0  0
  2  4  1  0  0  0  0
  4  5  1  0  0  0  0
  5  6  1  0  0  0  0
  5 33  1  0  0  0  0
  5 34  1  0  0  0  0
  6 25  1  0  0  0  0
  6  7  1  0  0  0  0
  6 35  1  0  0  0  0
  7  8  1  0  0  0  0
  8  9  1  0  0  0  0
  8 20  1  0  0  0  0
  8 36  1  0  0  0  0
  9 19  1  0  0  0  0
  9 10  1  0  0  0  0
 10 11  1  0  0  0  0
 10 12  2  0  0  0  0
 12 13  1  0  0  0  0
 13 19  2  0  0  0  0
 13 14  1  0  0  0  0
 14 15  1  0  0  0  0
 14 16  2  0  0  0  0
 15 37  1  0  0  0  0
 15 38  1  0  0  0  0
 16 17  1  0  0  0  0
 17 18  2  0  0  0  0
 17 39  1  0  0  0  0
 18 19  1  0  0  0  0
 20 21  1  0  0  0  0
 20 25  1  0  0  0  0
 20 40  1  0  0  0  0
 21 22  1  0  0  0  0
 22 23  1  0  0  0  0
 22 24  2  0  0  0  0
 23 41  1  0  0  0  0
 23 42  1  0  0  0  0
 23 43  1  0  0  0  0
 25 26  1  0  0  0  0
 25 44  1  0  0  0  0
 26 27  1  0  0  0  0
 27 28  1  0  0  0  0
 27 29  2  0  0  0  0
 28 45  1  0  0  0  0
 28 46  1  0  0  0  0
 28 47  1  0  0  0  0
M  END
> <s_m_source_file>
AV-unprocessed.smi

> <i_m_source_file_index>
104

> <i_lp_mmshare_version>
43012

> <i_f3d_flags>
0

> <s_epik_input>
W0NIM11DKD1PKU9bQ0gyXVtDQEBIXTFPW0NASF0oW0NAQEhdKE9DKD1PKVtDSDNdKVtDQEhdMU9DKD1PKVtDSDNdKW4oYyhCciluMiljKGMyMyluW2NIXW5jM1tOSDJd

> <s_epik_cmdline>
J2VwaWtfcHl0aG9uJywgJy1waCcsICc3LjAnLCAnLXRuJywgJzgnLCAnLW1hJywgJzIwMCcsICctbWV0YWxfYmluZGluZycsICctaW1hZScsICc8aW5maWxlLm1hZT4nLCAnLW9tYWUnLCAnPG91dGZpbGUubWFlPic=

> <r_lp_tautomer_probability>
1

> <r_epik_Ionization_Penalty>
7.36622e-05

> <r_epik_Ionization_Penalty_Charging>
0

> <r_epik_Ionization_Penalty_Neutral>
7.36622e-05

> <r_epik_State_Penalty>
-0

> <r_epik_Charging_Adjusted_Penalty>
0

> <i_epik_Tot_Q>
0

> <i_epik_Tot_abs_Q>
0

> <r_epik_Metal_State_Penalty>
-0

> <b_epik_Metal_Only>
0

> <s_epik_Chemistry_Notes>
This compound has an ester and may undergo hydrolysis at high or low pH. This compound contains an acetal/aminal-like group ( X-CH(R)-Y where X, Y are N, S, or O) that may be acid/base labile, releasing an aldehyde.

> <s_lp_Force_Field>
OPLS_2005

> <r_lp_Energy>
16.3368

> <b_lp_Chiralities_Consistent>
1

> <s_lp_Variant>
AV-unprocessed.smi:104-5

> <Gold.Version>
5.8.1

> <Gold.Id.Protein>
6NUR|6NUR_protein|mol2

> <Gold.PLP.Fitness>
44.6790

> <Gold.PLP.PLP>
-38.7573

> <Gold.PLP.part.hbond>
-5.3454

> <Gold.PLP.part.metal>
0.0000

> <Gold.PLP.part.buried>
-7.6652

> <Gold.PLP.part.nonpolar>
-26.4283

> <Gold.PLP.part.repulsive>
0.2410

> <Gold.PLP.ligand.clash>
0.0000

> <Gold.PLP.ligand.torsion>
1.6302

> <Gold.PLP.Chemscore.Hbond>
3.0000

> <Gold.PLP.Chemscore.CHOScore>
0.0000

> <Gold.PLP.Chemscore.Metal>
0.0000

> <Gold.Chemscore.Hbonds>
donor molecule, donor type, donor heavy atom, donor atom, acceptor molecule, acceptor atom, score
      P1  H  6896  6908       L1    18  1.00
      P1  H  6931  6943       L1     3  0.99
      P1  H 10752 10765       L1    24  1.00

> <Gold.PLP.Chemscore.Internal.Correction>
0.1822

> <Gold.Rescore>
     Score         DG    S(hbond)    S(metal)    S(lipo)     H(rot)  DE(clash)    DE(int)     intcor
      7.82      -9.72       2.80        0.00      50.40       4.31       0.12       1.78       ----

> <Gold.Chemscore.Fitness>
7.8187

> <Gold.Chemscore.DG>
-9.7164

> <Gold.Chemscore.ZeroCoef>
-5.4800

> <Gold.Chemscore.Hbond>
2.8040

> <Gold.Chemscore.Metal>
0.0000

> <Gold.Chemscore.Lipo>
50.4020

> <Gold.Chemscore.Internal_Hbond>
0.0000

> <Gold.Chemscore.DEClash>
0.1207

> <Gold.Chemscore.DEInternal>
1.7769

> <Gold.Chemscore.Rot>
4.3070

> <Gold.Chemscore.Internal.Correction>
   9.000000E+99

> <Gold.Chemscore.Hbonds>
donor molecule, donor type, donor heavy atom, donor atom, acceptor molecule, acceptor atom, score
      P1  H  6896  6908       L1    18  0.49
      P1  H  6931  6943       L1     3  0.94
      P1  H 10752 10765       L1    24  0.99

> <Gold.Chemscore.Hbond.Weighted>
-9.3652

> <Gold.Chemscore.Metal.Weighted>
-0.0000

> <Gold.Chemscore.Lipo.Weighted>
-5.8970

> <Gold.Chemscore.Internal_Hbond.Weighted>
0.0000

> <Gold.Chemscore.DEClash.Weighted>
0.1207

> <Gold.Chemscore.DEInternal.Weighted>
1.7769

> <Gold.Chemscore.Rot.Weighted>
11.0259

> <Gold.Chemscore.Internal.Correction.Weighted>
   9.000000E+99

> <Gold.Protein.RotatedTorsions>
[ 6907 6896 6895 6894 ] final  -95.30 input  -60.11 | X-H torsion
[ 7974 7965 7964 7962 ] final  -42.25 input  175.53 | X-H torsion
[ 8008 7997 7996 7995 ] final   65.16 input   59.86 | X-H torsion
[ 10167 10162 10161 10158 ] final   74.13 input  -65.29 | X-H torsion
[ 10718 10713 10712 10709 ] final   11.49 input   66.30 | X-H torsion
[ 10763 10752 10751 10750 ] final -159.42 input  -60.55 | X-H torsion
[ 11005 11000 10999 10996 ] final -171.19 input  -57.11 | X-H torsion

> <Gold.Protein.ActiveResidues>
 VAL166  LYS551  ARG553  GLY616  TRP617  ASP618  TYR619  PRO620  LYS621  CYS622 
 ASP623  PHE694  ASN695  SER759  ASP760  ASP761  ALA762  ILE779  LEU786  VAL792 
 PHE793  MET794  SER795  GLU796  ALA797  LYS798  CYS799  TRP800  GLU811  SER814 

> <Gold.Protein.RotatedAtoms>
  150.6961  134.1678  159.4200 H   0  0  0  0  0  0  0  0  0  0  0  0  # atno 6907 bound_to 6896
  151.9657  135.0099  160.0559 H   0  0  0  0  0  0  0  0  0  0  0  0  # atno 6908 bound_to 6896
  152.1887  133.4723  159.5033 H   0  0  0  0  0  0  0  0  0  0  0  0  # atno 6909 bound_to 6896
  146.0134  140.6937  142.9213 H   0  0  0  0  0  0  0  0  0  0  0  0  # atno 7974 bound_to 7965
  155.6574  140.3497  155.4770 H   0  0  0  0  0  0  0  0  0  0  0  0  # atno 8008 bound_to 7997
  155.9797  140.1172  157.0761 H   0  0  0  0  0  0  0  0  0  0  0  0  # atno 8009 bound_to 7997
  154.4188  140.1140  156.5405 H   0  0  0  0  0  0  0  0  0  0  0  0  # atno 8010 bound_to 7997
  140.0171  144.5569  150.7612 H   0  0  0  0  0  0  0  0  0  0  0  0  # atno 10167 bound_to 10162
  156.9963  130.6062  149.5691 H   0  0  0  0  0  0  0  0  0  0  0  0  # atno 10718 bound_to 10713
  154.7476  135.3084  154.8616 H   0  0  0  0  0  0  0  0  0  0  0  0  # atno 10763 bound_to 10752
  153.9413  135.6774  153.4748 H   0  0  0  0  0  0  0  0  0  0  0  0  # atno 10764 bound_to 10752
  153.1072  135.4883  154.8899 H   0  0  0  0  0  0  0  0  0  0  0  0  # atno 10765 bound_to 10752
  140.5110  134.5802  157.5018 H   0  0  0  0  0  0  0  0  0  0  0  0  # atno 11005 bound_to 11000
  144.6961  140.3438  143.7194 LP  0  0  0  0  0  0  0  0  0  0  0  0  # atno 17320 bound_to 7965
  145.7307  139.1735  143.2432 LP  0  0  0  0  0  0  0  0  0  0  0  0  # atno 17321 bound_to 7965
  140.7358  143.2745  151.3785 LP  0  0  0  0  0  0  0  0  0  0  0  0  # atno 17342 bound_to 10162
  139.6165  144.0992  152.2350 LP  0  0  0  0  0  0  0  0  0  0  0  0  # atno 17343 bound_to 10162
  156.0188  130.5282  150.8214 LP  0  0  0  0  0  0  0  0  0  0  0  0  # atno 17370 bound_to 10713
  157.5422  131.0941  150.9811 LP  0  0  0  0  0  0  0  0  0  0  0  0  # atno 17371 bound_to 10713
  139.9659  134.7374  156.0140 LP  0  0  0  0  0  0  0  0  0  0  0  0  # atno 17394 bound_to 11000
  141.1386  133.6569  156.3663 LP  0  0  0  0  0  0  0  0  0  0  0  0  # atno 17395 bound_to 11000

$$$$
