AV-unprocessed.smi:3308|AV-procd|sdf|12709|dock6
  -GOLD-   2272019 43D 1   1.00000     0.00000
 Structure written by MMmdl.
 41 42  0  0  0  0  0  0  0  0  2 V2000
  148.0031  140.8867  154.2889 C   0  0  0  0  0  0  0  0  0  0  0  0
  148.5074  139.4348  154.3765 C   0  0  1  0  0  0  0  0  0  0  0  0
  148.1171  138.7201  153.1405 N   0  3  0  0  0  0  0  0  0  0  0  0
  146.6695  138.7390  152.8382 C   0  0  0  0  0  0  0  0  0  0  0  0
  146.2955  137.7677  151.7098 C   0  0  0  0  0  0  0  0  0  0  0  0
  146.8614  137.8535  150.6188 O   0  0  0  0  0  0  0  0  0  0  0  0
  145.3475  136.8401  151.9558 N   0  0  0  0  0  0  0  0  0  0  0  0
  144.9137  135.8475  150.9745 C   0  0  0  0  0  0  0  0  0  0  0  0
  144.0437  134.8552  151.7466 C   0  0  0  0  0  0  0  0  0  0  0  0
  143.5124  135.6628  152.9225 C   0  0  0  0  0  0  0  0  0  0  0  0
  144.6218  136.6740  153.2150 C   0  0  0  0  0  0  0  0  0  0  0  0
  150.0410  139.3344  154.6000 C   0  0  2  0  0  0  0  0  0  0  0  0
  150.5298  137.8825  154.7637 C   0  0  0  0  0  0  0  0  0  0  0  0
  150.4861  140.1395  155.7306 N   0  0  0  0  0  0  0  0  0  0  0  0
  150.4849  141.5140  155.8534 C   0  0  0  0  0  0  0  0  0  0  0  0
  150.9972  141.8149  157.0826 C   0  0  0  0  0  0  0  0  0  0  0  0
  151.2899  140.5430  157.6481 C   0  0  0  0  0  0  0  0  0  0  0  0
  150.9843  139.5429  156.8373 N   0  0  0  0  0  0  0  0  0  0  0  0
  148.1748  141.4331  155.2165 H   0  0  0  0  0  0  0  0  0  0  0  0
  146.9301  140.9168  154.0969 H   0  0  0  0  0  0  0  0  0  0  0  0
  148.4998  141.4310  153.4850 H   0  0  0  0  0  0  0  0  0  0  0  0
  148.0015  138.9741  155.2271 H   0  0  0  0  0  0  0  0  0  0  0  0
  148.6004  139.1427  152.3607 H   0  0  0  0  0  0  0  0  0  0  0  0
  146.1105  138.4770  153.7371 H   0  0  0  0  0  0  0  0  0  0  0  0
  146.3825  139.7515  152.5512 H   0  0  0  0  0  0  0  0  0  0  0  0
  144.3300  136.3465  150.1996 H   0  0  0  0  0  0  0  0  0  0  0  0
  145.7559  135.3462  150.4947 H   0  0  0  0  0  0  0  0  0  0  0  0
  143.2501  134.4239  151.1356 H   0  0  0  0  0  0  0  0  0  0  0  0
  144.6623  134.0366  152.1170 H   0  0  0  0  0  0  0  0  0  0  0  0
  142.6065  136.1904  152.6210 H   0  0  0  0  0  0  0  0  0  0  0  0
  143.2658  135.0428  153.7851 H   0  0  0  0  0  0  0  0  0  0  0  0
  145.3035  136.2815  153.9708 H   0  0  0  0  0  0  0  0  0  0  0  0
  144.2058  137.6127  153.5834 H   0  0  0  0  0  0  0  0  0  0  0  0
  150.5333  139.7453  153.7171 H   0  0  0  0  0  0  0  0  0  0  0  0
  150.3479  137.2940  153.8645 H   0  0  0  0  0  0  0  0  0  0  0  0
  150.0308  137.3829  155.5948 H   0  0  0  0  0  0  0  0  0  0  0  0
  151.6030  137.8511  154.9545 H   0  0  0  0  0  0  0  0  0  0  0  0
  150.1237  142.1579  155.0651 H   0  0  0  0  0  0  0  0  0  0  0  0
  151.1427  142.7949  157.5126 H   0  0  0  0  0  0  0  0  0  0  0  0
  151.7127  140.3190  158.6163 H   0  0  0  0  0  0  0  0  0  0  0  0
  148.4184  137.7588  153.2150 H   0  0  0  0  0  0  0  0  0  0  0  0
  1  2  1  0  0  0  0
  1 19  1  0  0  0  0
  1 20  1  0  0  0  0
  1 21  1  0  0  0  0
  2  3  1  0  0  0  0
  2 12  1  0  0  0  0
  2 22  1  0  0  0  0
  3  4  1  0  0  0  0
  3 23  1  0  0  0  0
  3 41  1  0  0  0  0
  4  5  1  0  0  0  0
  4 24  1  0  0  0  0
  4 25  1  0  0  0  0
  5  6  2  0  0  0  0
  5  7  1  0  0  0  0
  7 11  1  0  0  0  0
  7  8  1  0  0  0  0
  8  9  1  0  0  0  0
  8 26  1  0  0  0  0
  8 27  1  0  0  0  0
  9 10  1  0  0  0  0
  9 28  1  0  0  0  0
  9 29  1  0  0  0  0
 10 11  1  0  0  0  0
 10 30  1  0  0  0  0
 10 31  1  0  0  0  0
 11 32  1  0  0  0  0
 11 33  1  0  0  0  0
 12 13  1  0  0  0  0
 12 14  1  0  0  0  0
 12 34  1  0  0  0  0
 13 35  1  0  0  0  0
 13 36  1  0  0  0  0
 13 37  1  0  0  0  0
 14 18  1  0  0  0  0
 14 15  1  0  0  0  0
 15 16  2  0  0  0  0
 15 38  1  0  0  0  0
 16 17  1  0  0  0  0
 16 39  1  0  0  0  0
 17 18  2  0  0  0  0
 17 40  1  0  0  0  0
M  CHG  1   3   1
M  END
> <s_m_source_file>
AV-unprocessed.smi

> <i_m_source_file_index>
3308

> <i_lp_mmshare_version>
43012

> <i_f3d_flags>
0

> <s_epik_input>
bjFbY0hdW2NIXVtjSF1uMVtDQEBIXShbQ0gzXSlbQ0BIXShbQ0gzXSlbTkhdW0NIMl1DKD1PKU4yW0NIMl1bQ0gyXVtDSDJdW0NIMl0y

> <s_epik_cmdline>
J2VwaWtfcHl0aG9uJywgJy1waCcsICc3LjAnLCAnLXRuJywgJzgnLCAnLW1hJywgJzIwMCcsICctbWV0YWxfYmluZGluZycsICctaW1hZScsICc8aW5maWxlLm1hZT4nLCAnLW9tYWUnLCAnPG91dGZpbGUubWFlPic=

> <r_lp_tautomer_probability>
1

> <r_epik_Ionization_Penalty>
0.141739

> <r_epik_Ionization_Penalty_Charging>
0.141731

> <r_epik_Ionization_Penalty_Neutral>
8.82171e-06

> <r_epik_State_Penalty>
0.131043

> <r_epik_Charging_Adjusted_Penalty>
0.272773

> <i_epik_Tot_Q>
1

> <i_epik_Tot_abs_Q>
1

> <r_epik_Metal_State_Penalty>
0.131385

> <b_epik_Metal_Only>
0

> <s_lp_Force_Field>
OPLS_2005

> <r_lp_Energy>
34.0204

> <b_lp_Chiralities_Consistent>
1

> <s_lp_Variant>
AV-unprocessed.smi:3308-2

> <Gold.Version>
5.8.1

> <Gold.Id.Protein>
6NUR|6NUR_protein|mol2

> <Gold.PLP.Fitness>
48.9161

> <Gold.PLP.PLP>
-35.0826

> <Gold.PLP.part.hbond>
-2.7089

> <Gold.PLP.part.metal>
0.0000

> <Gold.PLP.part.buried>
-2.6542

> <Gold.PLP.part.nonpolar>
-32.1376

> <Gold.PLP.part.repulsive>
1.2615

> <Gold.PLP.ligand.clash>
0.0000

> <Gold.PLP.ligand.torsion>
0.2820

> <Gold.PLP.Chemscore.Hbond>
3.8051

> <Gold.PLP.Chemscore.CHOScore>
0.9650

> <Gold.PLP.Chemscore.Metal>
0.0000

> <Gold.Chemscore.Hbonds>
donor molecule, donor type, donor heavy atom, donor atom, acceptor molecule, acceptor atom, score
      L1  H     3    23       P1  7957  1.00
      L1  H     3    41       P1  7948  1.17
      P1  H  7954  7966       L1     6  0.89
      L1  C    15    38       P1  8028  0.06

> <Gold.PLP.Chemscore.Internal.Correction>
0.0871

> <Gold.Rescore>
     Score         DG    S(hbond)    S(metal)    S(lipo)     H(rot)  DE(clash)    DE(int)     intcor
     16.68     -18.16       2.73        0.00      69.52       1.78       1.01       0.47       ----

> <Gold.Chemscore.Fitness>
16.6797

> <Gold.Chemscore.DG>
-18.1626

> <Gold.Chemscore.ZeroCoef>
-5.4800

> <Gold.Chemscore.Hbond>
2.7290

> <Gold.Chemscore.Metal>
0.0000

> <Gold.Chemscore.Lipo>
69.5186

> <Gold.Chemscore.Internal_Hbond>
0.0000

> <Gold.Chemscore.DEClash>
1.0129

> <Gold.Chemscore.DEInternal>
0.4700

> <Gold.Chemscore.Rot>
1.7836

> <Gold.Chemscore.Internal.Correction>
   9.000000E+99

> <Gold.Chemscore.Hbonds>
donor molecule, donor type, donor heavy atom, donor atom, acceptor molecule, acceptor atom, score
      L1  H     3    23       P1  7957  1.00
      L1  H     3    41       P1  7948  0.58
      P1  H  7954  7966       L1     6  0.86

> <Gold.Chemscore.Hbond.Weighted>
-9.1150

> <Gold.Chemscore.Metal.Weighted>
-0.0000

> <Gold.Chemscore.Lipo.Weighted>
-8.1337

> <Gold.Chemscore.Internal_Hbond.Weighted>
0.0000

> <Gold.Chemscore.DEClash.Weighted>
1.0129

> <Gold.Chemscore.DEInternal.Weighted>
0.4700

> <Gold.Chemscore.Rot.Weighted>
4.5660

> <Gold.Chemscore.Internal.Correction.Weighted>
   9.000000E+99

> <Gold.Protein.RotatedTorsions>
[ 6907 6896 6895 6894 ] final -103.27 input  -60.11 | X-H torsion
[ 7974 7965 7964 7962 ] final   76.73 input  175.53 | X-H torsion
[ 8008 7997 7996 7995 ] final  179.74 input   59.86 | X-H torsion
[ 10167 10162 10161 10158 ] final  -34.50 input  -65.29 | X-H torsion
[ 10718 10713 10712 10709 ] final  -11.99 input   66.30 | X-H torsion
[ 10763 10752 10751 10750 ] final   86.92 input  -60.55 | X-H torsion
[ 11005 11000 10999 10996 ] final  -65.68 input  -57.11 | X-H torsion

> <Gold.Protein.ActiveResidues>
 VAL166  LYS551  ARG553  GLY616  TRP617  ASP618  TYR619  PRO620  LYS621  CYS622 
 ASP623  PHE694  ASN695  SER759  ASP760  ASP761  ALA762  ILE779  LEU786  VAL792 
 PHE793  MET794  SER795  GLU796  ALA797  LYS798  CYS799  TRP800  GLU811  SER814 

> <Gold.Protein.RotatedAtoms>
  150.7233  134.0455  159.3780 H   0  0  0  0  0  0  0  0  0  0  0  0  # atno 6907 bound_to 6896
  151.8430  135.0581  160.0459 H   0  0  0  0  0  0  0  0  0  0  0  0  # atno 6908 bound_to 6896
  152.2848  133.5469  159.5557 H   0  0  0  0  0  0  0  0  0  0  0  0  # atno 6909 bound_to 6896
  145.6991  139.2577  143.1716 H   0  0  0  0  0  0  0  0  0  0  0  0  # atno 7974 bound_to 7965
  156.0399  140.1301  157.0167 H   0  0  0  0  0  0  0  0  0  0  0  0  # atno 8008 bound_to 7997
  154.4386  140.1032  156.6292 H   0  0  0  0  0  0  0  0  0  0  0  0  # atno 8009 bound_to 7997
  155.5682  140.3466  155.4510 H   0  0  0  0  0  0  0  0  0  0  0  0  # atno 8010 bound_to 7997
  140.7184  143.3543  151.2091 H   0  0  0  0  0  0  0  0  0  0  0  0  # atno 10167 bound_to 10162
  156.6511  130.4955  149.6062 H   0  0  0  0  0  0  0  0  0  0  0  0  # atno 10718 bound_to 10713
  153.1617  135.4562  154.9781 H   0  0  0  0  0  0  0  0  0  0  0  0  # atno 10763 bound_to 10752
  154.7902  135.3218  154.7796 H   0  0  0  0  0  0  0  0  0  0  0  0  # atno 10764 bound_to 10752
  153.8285  135.6940  153.4872 H   0  0  0  0  0  0  0  0  0  0  0  0  # atno 10765 bound_to 10752
  141.1461  133.6686  156.6024 H   0  0  0  0  0  0  0  0  0  0  0  0  # atno 11005 bound_to 11000
  146.0814  140.7759  142.9639 LP  0  0  0  0  0  0  0  0  0  0  0  0  # atno 17320 bound_to 7965
  144.6974  140.3495  143.7184 LP  0  0  0  0  0  0  0  0  0  0  0  0  # atno 17321 bound_to 7965
  139.7081  143.9421  152.2936 LP  0  0  0  0  0  0  0  0  0  0  0  0  # atno 17342 bound_to 10162
  139.9137  144.6841  150.8535 LP  0  0  0  0  0  0  0  0  0  0  0  0  # atno 17343 bound_to 10162
  156.2083  130.6663  151.1242 LP  0  0  0  0  0  0  0  0  0  0  0  0  # atno 17370 bound_to 10713
  157.7140  131.0719  150.6395 LP  0  0  0  0  0  0  0  0  0  0  0  0  # atno 17371 bound_to 10713
  140.3678  134.7632  157.4578 LP  0  0  0  0  0  0  0  0  0  0  0  0  # atno 17394 bound_to 11000
  140.0734  134.5831  155.8617 LP  0  0  0  0  0  0  0  0  0  0  0  0  # atno 17395 bound_to 11000

$$$$
