AV-unprocessed.smi:1402|AV-procd|sdf|5696|dock7
  -GOLD-   22720 5323D 1   1.00000     0.00000
 Structure written by MMmdl.
 44 45  0  0  0  0  0  0  0  0  1 V2000
  150.9157  130.8088  156.2956 C   0  0  0  0  0  0  0  0  0  0  0  0
  150.4631  131.9537  155.4388 C   0  0  0  0  0  0  0  0  0  0  0  0
  150.8153  133.3296  155.5543 C   0  0  0  0  0  0  0  0  0  0  0  0
  150.1116  133.9079  154.5333 C   0  0  0  0  0  0  0  0  0  0  0  0
  150.0716  135.2159  154.1648 N   0  0  0  0  0  0  0  0  0  0  0  0
  150.7576  136.2507  154.6802 C   0  0  0  0  0  0  0  0  0  0  0  0
  151.5962  136.1727  155.5785 O   0  0  0  0  0  0  0  0  0  0  0  0
  150.4004  137.4051  154.0993 N   0  0  0  0  0  0  0  0  0  0  0  0
  150.8801  138.7235  154.4979 C   0  0  0  0  0  0  0  0  0  0  0  0
  150.1449  139.2328  155.7551 C   0  0  0  0  0  0  0  0  0  0  0  0
  148.7669  139.6392  155.4554 N   0  0  0  0  0  0  0  0  0  0  0  0
  147.7110  138.9587  156.2209 C   0  0  0  0  0  0  0  0  0  0  0  0
  147.0108  139.8657  157.2593 C   0  0  0  0  0  0  0  0  0  0  0  0
  146.9191  141.3632  156.9041 C   0  0  0  0  0  0  0  0  0  0  0  0
  146.3357  141.6695  155.5083 C   0  0  0  0  0  0  0  0  0  0  0  0
  147.0226  140.9805  154.3044 C   0  0  0  0  0  0  0  0  0  0  0  0
  148.4937  140.6038  154.5428 C   0  0  0  0  0  0  0  0  0  0  0  0
  149.3665  141.1923  153.9044 O   0  0  0  0  0  0  0  0  0  0  0  0
  149.4114  132.9269  153.8638 N   0  0  0  0  0  0  0  0  0  0  0  0
  148.5264  133.0226  152.7189 C   0  0  0  0  0  0  0  0  0  0  0  0
  149.6298  131.7211  154.4309 N   0  0  0  0  0  0  0  0  0  0  0  0
  151.6265  131.1398  157.0530 H   0  0  0  0  0  0  0  0  0  0  0  0
  151.4027  130.0383  155.6979 H   0  0  0  0  0  0  0  0  0  0  0  0
  150.0725  130.3490  156.8112 H   0  0  0  0  0  0  0  0  0  0  0  0
  151.4744  133.7936  156.2726 H   0  0  0  0  0  0  0  0  0  0  0  0
  149.3931  135.4423  153.4526 H   0  0  0  0  0  0  0  0  0  0  0  0
  149.7093  137.3757  153.3639 H   0  0  0  0  0  0  0  0  0  0  0  0
  151.9641  138.7405  154.6274 H   0  0  0  0  0  0  0  0  0  0  0  0
  150.6750  139.3997  153.6676 H   0  0  0  0  0  0  0  0  0  0  0  0
  150.1302  138.4422  156.5066 H   0  0  0  0  0  0  0  0  0  0  0  0
  150.6920  140.0475  156.2340 H   0  0  0  0  0  0  0  0  0  0  0  0
  146.9724  138.5546  155.5285 H   0  0  0  0  0  0  0  0  0  0  0  0
  148.1062  138.0762  156.7254 H   0  0  0  0  0  0  0  0  0  0  0  0
  146.0108  139.4742  157.4500 H   0  0  0  0  0  0  0  0  0  0  0  0
  147.5439  139.7823  158.2068 H   0  0  0  0  0  0  0  0  0  0  0  0
  146.3120  141.8654  157.6578 H   0  0  0  0  0  0  0  0  0  0  0  0
  147.9075  141.8162  156.9918 H   0  0  0  0  0  0  0  0  0  0  0  0
  145.2777  141.4049  155.5015 H   0  0  0  0  0  0  0  0  0  0  0  0
  146.3670  142.7490  155.3567 H   0  0  0  0  0  0  0  0  0  0  0  0
  146.4712  140.0848  154.0197 H   0  0  0  0  0  0  0  0  0  0  0  0
  146.9584  141.6345  153.4337 H   0  0  0  0  0  0  0  0  0  0  0  0
  148.4787  134.0477  152.3520 H   0  0  0  0  0  0  0  0  0  0  0  0
  147.5232  132.7043  153.0041 H   0  0  0  0  0  0  0  0  0  0  0  0
  148.8904  132.3790  151.9176 H   0  0  0  0  0  0  0  0  0  0  0  0
  1  2  1  0  0  0  0
  1 22  1  0  0  0  0
  1 23  1  0  0  0  0
  1 24  1  0  0  0  0
  2 21  2  0  0  0  0
  2  3  1  0  0  0  0
  3  4  2  0  0  0  0
  3 25  1  0  0  0  0
  4  5  1  0  0  0  0
  4 19  1  0  0  0  0
  5  6  1  0  0  0  0
  5 26  1  0  0  0  0
  6  7  2  0  0  0  0
  6  8  1  0  0  0  0
  8  9  1  0  0  0  0
  8 27  1  0  0  0  0
  9 10  1  0  0  0  0
  9 28  1  0  0  0  0
  9 29  1  0  0  0  0
 10 11  1  0  0  0  0
 10 30  1  0  0  0  0
 10 31  1  0  0  0  0
 11 17  1  0  0  0  0
 11 12  1  0  0  0  0
 12 13  1  0  0  0  0
 12 32  1  0  0  0  0
 12 33  1  0  0  0  0
 13 14  1  0  0  0  0
 13 34  1  0  0  0  0
 13 35  1  0  0  0  0
 14 15  1  0  0  0  0
 14 36  1  0  0  0  0
 14 37  1  0  0  0  0
 15 16  1  0  0  0  0
 15 38  1  0  0  0  0
 15 39  1  0  0  0  0
 16 17  1  0  0  0  0
 16 40  1  0  0  0  0
 16 41  1  0  0  0  0
 17 18  2  0  0  0  0
 19 20  1  0  0  0  0
 19 21  1  0  0  0  0
 20 42  1  0  0  0  0
 20 43  1  0  0  0  0
 20 44  1  0  0  0  0
M  END
> <s_m_source_file>
AV-unprocessed.smi

> <i_m_source_file_index>
1402

> <i_lp_mmshare_version>
43012

> <i_f3d_flags>
0

> <s_epik_input>
W0NIM11jMVtjSF1jKG4objEpW0NIM10pW05IXUMoPU8pW05IXVtDSDJdW0NIMl1OMltDSDJdW0NIMl1bQ0gyXVtDSDJdW0NIMl1DMj1P

> <s_epik_cmdline>
J2VwaWtfcHl0aG9uJywgJy1waCcsICc3LjAnLCAnLXRuJywgJzgnLCAnLW1hJywgJzIwMCcsICctbWV0YWxfYmluZGluZycsICctaW1hZScsICc8aW5maWxlLm1hZT4nLCAnLW9tYWUnLCAnPG91dGZpbGUubWFlPic=

> <r_lp_tautomer_probability>
1

> <r_epik_Ionization_Penalty>
9.00432e-05

> <r_epik_Ionization_Penalty_Charging>
0

> <r_epik_Ionization_Penalty_Neutral>
9.00432e-05

> <r_epik_State_Penalty>
-0

> <r_epik_Charging_Adjusted_Penalty>
0

> <i_epik_Tot_Q>
0

> <i_epik_Tot_abs_Q>
0

> <r_epik_Metal_State_Penalty>
-0

> <b_epik_Metal_Only>
0

> <s_lp_Force_Field>
OPLS_2005

> <r_lp_Energy>
25.7606

> <b_lp_Chiralities_Consistent>
1

> <s_lp_Variant>
AV-unprocessed.smi:1402-1

> <Gold.Version>
5.8.1

> <Gold.Id.Protein>
6NUR|6NUR_protein|mol2

> <Gold.PLP.Fitness>
43.7432

> <Gold.PLP.PLP>
-32.3700

> <Gold.PLP.part.hbond>
-6.7221

> <Gold.PLP.part.metal>
0.0000

> <Gold.PLP.part.buried>
-2.9277

> <Gold.PLP.part.nonpolar>
-25.0573

> <Gold.PLP.part.repulsive>
2.0602

> <Gold.PLP.ligand.clash>
0.0000

> <Gold.PLP.ligand.torsion>
0.1785

> <Gold.PLP.Chemscore.Hbond>
3.9056

> <Gold.PLP.Chemscore.CHOScore>
0.0000

> <Gold.PLP.Chemscore.Metal>
0.0000

> <Gold.Chemscore.Hbonds>
donor molecule, donor type, donor heavy atom, donor atom, acceptor molecule, acceptor atom, score
      L1  H     5    26       P1  7948  0.89
      L1  H     8    27       P1  7948  0.86
      P1  H  7989  7998       L1    18  0.11
      P1  H  8011  8017       L1    18  0.84
      P1  H 10752 10765       L1     7  1.00

> <Gold.PLP.Chemscore.Internal.Correction>
0.0134

> <Gold.Rescore>
     Score         DG    S(hbond)    S(metal)    S(lipo)     H(rot)  DE(clash)    DE(int)     intcor
     13.77     -17.83       3.25        0.00      46.41       1.54       1.69       2.37       ----

> <Gold.Chemscore.Fitness>
13.7661

> <Gold.Chemscore.DG>
-17.8292

> <Gold.Chemscore.ZeroCoef>
-5.4800

> <Gold.Chemscore.Hbond>
3.2525

> <Gold.Chemscore.Metal>
0.0000

> <Gold.Chemscore.Lipo>
46.4093

> <Gold.Chemscore.Internal_Hbond>
0.0000

> <Gold.Chemscore.DEClash>
1.6889

> <Gold.Chemscore.DEInternal>
2.3742

> <Gold.Chemscore.Rot>
1.5407

> <Gold.Chemscore.Internal.Correction>
   9.000000E+99

> <Gold.Chemscore.Hbonds>
donor molecule, donor type, donor heavy atom, donor atom, acceptor molecule, acceptor atom, score
      L1  H     5    26       P1  7948  0.17
      L1  H     8    27       P1  7948  0.57
      P1  H  7989  7998       L1    18  0.11
      P1  H  8011  8017       L1    18  0.78
      P1  H 10752 10765       L1     7  0.26

> <Gold.Chemscore.Hbond.Weighted>
-10.8635

> <Gold.Chemscore.Metal.Weighted>
-0.0000

> <Gold.Chemscore.Lipo.Weighted>
-5.4299

> <Gold.Chemscore.Internal_Hbond.Weighted>
0.0000

> <Gold.Chemscore.DEClash.Weighted>
1.6889

> <Gold.Chemscore.DEInternal.Weighted>
2.3742

> <Gold.Chemscore.Rot.Weighted>
3.9441

> <Gold.Chemscore.Internal.Correction.Weighted>
   9.000000E+99

> <Gold.Protein.RotatedTorsions>
[ 6907 6896 6895 6894 ] final  -32.81 input  -60.11 | X-H torsion
[ 7974 7965 7964 7962 ] final -100.67 input  175.53 | X-H torsion
[ 8008 7997 7996 7995 ] final  136.43 input   59.86 | X-H torsion
[ 10167 10162 10161 10158 ] final  -85.45 input  -65.29 | X-H torsion
[ 10718 10713 10712 10709 ] final   77.73 input   66.30 | X-H torsion
[ 10763 10752 10751 10750 ] final -176.71 input  -60.55 | X-H torsion
[ 11005 11000 10999 10996 ] final -124.53 input  -57.11 | X-H torsion

> <Gold.Protein.ActiveResidues>
 VAL166  LYS551  ARG553  GLY616  TRP617  ASP618  TYR619  PRO620  LYS621  CYS622 
 ASP623  PHE694  ASN695  SER759  ASP760  ASP761  ALA762  ILE779  LEU786  VAL792 
 PHE793  MET794  SER795  GLU796  ALA797  LYS798  CYS799  TRP800  GLU811  SER814 

> <Gold.Protein.RotatedAtoms>
  151.0738  134.9815  159.8321 H   0  0  0  0  0  0  0  0  0  0  0  0  # atno 6907 bound_to 6896
  152.5411  134.2266  159.8818 H   0  0  0  0  0  0  0  0  0  0  0  0  # atno 6908 bound_to 6896
  151.2292  133.4416  159.2637 H   0  0  0  0  0  0  0  0  0  0  0  0  # atno 6909 bound_to 6896
  145.2915  140.9354  143.2875 H   0  0  0  0  0  0  0  0  0  0  0  0  # atno 7974 bound_to 7965
  156.3004  140.2445  156.3745 H   0  0  0  0  0  0  0  0  0  0  0  0  # atno 8008 bound_to 7997
  154.8758  140.0414  157.1772 H   0  0  0  0  0  0  0  0  0  0  0  0  # atno 8009 bound_to 7997
  154.8747  140.2940  155.5464 H   0  0  0  0  0  0  0  0  0  0  0  0  # atno 8010 bound_to 7997
  140.4036  143.2652  151.9110 H   0  0  0  0  0  0  0  0  0  0  0  0  # atno 10167 bound_to 10162
  157.6721  130.9835  150.1684 H   0  0  0  0  0  0  0  0  0  0  0  0  # atno 10718 bound_to 10713
  154.5690  135.2826  155.0846 H   0  0  0  0  0  0  0  0  0  0  0  0  # atno 10763 bound_to 10752
  154.2226  135.6388  153.5153 H   0  0  0  0  0  0  0  0  0  0  0  0  # atno 10764 bound_to 10752
  153.0051  135.5518  154.6307 H   0  0  0  0  0  0  0  0  0  0  0  0  # atno 10765 bound_to 10752
  140.9834  134.0641  157.3739 H   0  0  0  0  0  0  0  0  0  0  0  0  # atno 11005 bound_to 11000
  144.9169  139.4460  143.6560 LP  0  0  0  0  0  0  0  0  0  0  0  0  # atno 17320 bound_to 7965
  146.3183  139.8007  142.8966 LP  0  0  0  0  0  0  0  0  0  0  0  0  # atno 17321 bound_to 7965
  139.4784  144.5609  151.8241 LP  0  0  0  0  0  0  0  0  0  0  0  0  # atno 17342 bound_to 10162
  140.4713  144.1582  150.5918 LP  0  0  0  0  0  0  0  0  0  0  0  0  # atno 17343 bound_to 10162
  156.2444  130.3694  149.8301 LP  0  0  0  0  0  0  0  0  0  0  0  0  # atno 17370 bound_to 10713
  156.6092  130.8579  151.3450 LP  0  0  0  0  0  0  0  0  0  0  0  0  # atno 17371 bound_to 10713
  139.8960  135.0143  156.7029 LP  0  0  0  0  0  0  0  0  0  0  0  0  # atno 17394 bound_to 11000
  140.7152  133.9189  155.8110 LP  0  0  0  0  0  0  0  0  0  0  0  0  # atno 17395 bound_to 11000

$$$$
