AV-unprocessed.smi:1667|AV-procd|sdf|6680|dock3
  -GOLD-   22720 7393D 1   1.00000     0.00000
 Structure written by MMmdl.
 46 48  0  0  0  0  0  0  0  0  2 V2000
  146.9464  133.5499  152.0393 C   0  0  0  0  0  0  0  0  0  0  0  0
  146.8402  133.8523  153.5296 C   0  0  0  0  0  0  0  0  0  0  0  0
  146.1635  133.1303  154.2591 O   0  0  0  0  0  0  0  0  0  0  0  0
  147.5196  134.9220  153.9705 N   0  0  0  0  0  0  0  0  0  0  0  0
  147.5229  135.4194  155.3453 C   0  0  2  0  0  0  0  0  0  0  0  0
  146.1079  135.8897  155.7111 C   0  0  0  0  0  0  0  0  0  0  0  0
  148.5170  136.5233  155.5788 C   0  0  0  0  0  0  0  0  0  0  0  0
  149.3346  137.0834  154.6403 N   0  3  0  0  0  0  0  0  0  0  0  0
  150.0975  138.0978  155.2168 C   0  0  0  0  0  0  0  0  0  0  0  0
  151.0597  138.9388  154.6667 C   0  0  0  0  0  0  0  0  0  0  0  0
  151.6460  139.8825  155.5354 C   0  0  0  0  0  0  0  0  0  0  0  0
  151.2683  139.9657  156.8914 C   0  0  0  0  0  0  0  0  0  0  0  0
  150.2916  139.1067  157.4371 C   0  0  0  0  0  0  0  0  0  0  0  0
  149.7216  138.1720  156.5727 C   0  0  0  0  0  0  0  0  0  0  0  0
  148.7516  137.1794  156.7541 N   0  0  0  0  0  0  0  0  0  0  0  0
  148.1440  137.0119  158.0848 C   0  0  0  0  0  0  0  0  0  0  0  0
  148.9105  136.0243  158.9890 C   0  0  1  0  0  0  0  0  0  0  0  0
  150.1934  136.5634  159.2280 O   0  0  0  0  0  0  0  0  0  0  0  0
  148.1753  135.7109  160.2838 C   0  0  0  0  0  0  0  0  0  0  0  0
  147.9898  136.7090  161.2657 C   0  0  0  0  0  0  0  0  0  0  0  0
  147.3190  136.4072  162.4668 C   0  0  0  0  0  0  0  0  0  0  0  0
  146.8353  135.1048  162.6955 C   0  0  0  0  0  0  0  0  0  0  0  0
  147.0152  134.1062  161.7189 C   0  0  0  0  0  0  0  0  0  0  0  0
  146.5445  132.8551  161.9346 F   0  0  0  0  0  0  0  0  0  0  0  0
  147.6796  134.4098  160.5148 C   0  0  0  0  0  0  0  0  0  0  0  0
  147.7834  134.5838  155.9957 H   0  0  0  0  0  0  0  0  0  0  0  0
  147.9855  133.5870  151.7109 H   0  0  0  0  0  0  0  0  0  0  0  0
  146.3750  134.2791  151.4645 H   0  0  0  0  0  0  0  0  0  0  0  0
  146.5548  132.5563  151.8174 H   0  0  0  0  0  0  0  0  0  0  0  0
  148.0491  135.4542  153.2951 H   0  0  0  0  0  0  0  0  0  0  0  0
  146.0520  136.2099  156.7516 H   0  0  0  0  0  0  0  0  0  0  0  0
  145.3804  135.0885  155.5770 H   0  0  0  0  0  0  0  0  0  0  0  0
  145.7962  136.7303  155.0901 H   0  0  0  0  0  0  0  0  0  0  0  0
  151.3471  138.8796  153.6271 H   0  0  0  0  0  0  0  0  0  0  0  0
  152.3977  140.5579  155.1534 H   0  0  0  0  0  0  0  0  0  0  0  0
  151.7365  140.7040  157.5261 H   0  0  0  0  0  0  0  0  0  0  0  0
  150.0082  139.1804  158.4767 H   0  0  0  0  0  0  0  0  0  0  0  0
  148.0927  137.9979  158.5492 H   0  0  0  0  0  0  0  0  0  0  0  0
  147.1126  136.6852  157.9527 H   0  0  0  0  0  0  0  0  0  0  0  0
  149.0722  135.0901  158.4511 H   0  0  0  0  0  0  0  0  0  0  0  0
  150.1086  137.2793  159.8394 H   0  0  0  0  0  0  0  0  0  0  0  0
  148.3610  137.7099  161.0996 H   0  0  0  0  0  0  0  0  0  0  0  0
  147.1776  137.1741  163.2142 H   0  0  0  0  0  0  0  0  0  0  0  0
  146.3218  134.8731  163.6170 H   0  0  0  0  0  0  0  0  0  0  0  0
  147.8099  133.6378  159.7707 H   0  0  0  0  0  0  0  0  0  0  0  0
  149.3673  136.7844  153.6743 H   0  0  0  0  0  0  0  0  0  0  0  0
  1  2  1  0  0  0  0
  1 27  1  0  0  0  0
  1 28  1  0  0  0  0
  1 29  1  0  0  0  0
  2  3  2  0  0  0  0
  2  4  1  0  0  0  0
  4  5  1  0  0  0  0
  4 30  1  0  0  0  0
  5 26  1  0  0  0  0
  5  6  1  0  0  0  0
  5  7  1  0  0  0  0
  6 31  1  0  0  0  0
  6 32  1  0  0  0  0
  6 33  1  0  0  0  0
  7 15  1  0  0  0  0
  7  8  2  0  0  0  0
  8  9  1  0  0  0  0
  8 46  1  0  0  0  0
  9 14  2  0  0  0  0
  9 10  1  0  0  0  0
 10 11  2  0  0  0  0
 10 34  1  0  0  0  0
 11 12  1  0  0  0  0
 11 35  1  0  0  0  0
 12 13  2  0  0  0  0
 12 36  1  0  0  0  0
 13 14  1  0  0  0  0
 13 37  1  0  0  0  0
 14 15  1  0  0  0  0
 15 16  1  0  0  0  0
 16 17  1  0  0  0  0
 16 38  1  0  0  0  0
 16 39  1  0  0  0  0
 17 18  1  0  0  0  0
 17 19  1  0  0  0  0
 17 40  1  0  0  0  0
 18 41  1  0  0  0  0
 19 25  1  0  0  0  0
 19 20  2  0  0  0  0
 20 21  1  0  0  0  0
 20 42  1  0  0  0  0
 21 22  2  0  0  0  0
 21 43  1  0  0  0  0
 22 23  1  0  0  0  0
 22 44  1  0  0  0  0
 23 24  1  0  0  0  0
 23 25  2  0  0  0  0
 25 45  1  0  0  0  0
M  CHG  1   8   1
M  END
> <s_m_source_file>
AV-unprocessed.smi

> <i_m_source_file_index>
1667

> <i_lp_mmshare_version>
43012

> <i_f3d_flags>
0

> <s_epik_input>
W0NIM11DKD1PKVtOSF1bQ0BASF0oW0NIM10pYyhuMSluKGMoYzEyKVtjSF1bY0hdW2NIXVtjSF0yKVtDSDJdW0NASF0oW09IXSljM1tjSF1bY0hdW2NIXWMoRilbY0hdMw==

> <s_epik_cmdline>
J2VwaWtfcHl0aG9uJywgJy1waCcsICc3LjAnLCAnLXRuJywgJzgnLCAnLW1hJywgJzIwMCcsICctbWV0YWxfYmluZGluZycsICctaW1hZScsICc8aW5maWxlLm1hZT4nLCAnLW9tYWUnLCAnPG91dGZpbGUubWFlPic=

> <r_epik_Ionization_Penalty>
0.950383

> <r_epik_Ionization_Penalty_Charging>
0.950379

> <r_epik_Ionization_Penalty_Neutral>
3.60962e-06

> <r_epik_State_Penalty>
0.994584

> <r_epik_Charging_Adjusted_Penalty>
1.94496

> <i_epik_Tot_Q>
1

> <i_epik_Tot_abs_Q>
1

> <r_epik_Metal_State_Penalty>
1.10485

> <b_epik_Metal_Only>
0

> <s_lp_Force_Field>
OPLS_2005

> <r_lp_Energy>
10.8153

> <b_lp_Chiralities_Consistent>
1

> <s_lp_Variant>
AV-unprocessed.smi:1667-8

> <Gold.Version>
5.8.1

> <Gold.Id.Protein>
6NUR|6NUR_protein|mol2

> <Gold.PLP.Fitness>
48.7784

> <Gold.PLP.PLP>
-37.7475

> <Gold.PLP.part.hbond>
-3.0000

> <Gold.PLP.part.metal>
0.0000

> <Gold.PLP.part.buried>
-3.4286

> <Gold.PLP.part.nonpolar>
-31.4558

> <Gold.PLP.part.repulsive>
0.0868

> <Gold.PLP.ligand.clash>
0.0000

> <Gold.PLP.ligand.torsion>
0.5066

> <Gold.PLP.Chemscore.Hbond>
4.0000

> <Gold.PLP.Chemscore.CHOScore>
0.0000

> <Gold.PLP.Chemscore.Metal>
0.0000

> <Gold.Chemscore.Hbonds>
donor molecule, donor type, donor heavy atom, donor atom, acceptor molecule, acceptor atom, score
      L1  H     4    30       P1  7948  1.00
      L1  H     8    46       P1  7948  2.00
      P1  H  6896  6909       L1    18  1.00

> <Gold.PLP.Chemscore.Internal.Correction>
0.0442

> <Gold.Rescore>
     Score         DG    S(hbond)    S(metal)    S(lipo)     H(rot)  DE(clash)    DE(int)     intcor
     18.22     -18.68       2.88        0.00      86.10       2.53       0.00       0.46       ----

> <Gold.Chemscore.Fitness>
18.2215

> <Gold.Chemscore.DG>
-18.6813

> <Gold.Chemscore.ZeroCoef>
-5.4800

> <Gold.Chemscore.Hbond>
2.8781

> <Gold.Chemscore.Metal>
0.0000

> <Gold.Chemscore.Lipo>
86.1044

> <Gold.Chemscore.Internal_Hbond>
0.0000

> <Gold.Chemscore.DEClash>
0.0000

> <Gold.Chemscore.DEInternal>
0.4598

> <Gold.Chemscore.Rot>
2.5335

> <Gold.Chemscore.Internal.Correction>
   9.000000E+99

> <Gold.Chemscore.Hbonds>
donor molecule, donor type, donor heavy atom, donor atom, acceptor molecule, acceptor atom, score
      L1  H     4    30       P1  7948  1.00
      L1  H     8    46       P1  7948  0.94
      P1  H  6896  6909       L1    18  0.36

> <Gold.Chemscore.Hbond.Weighted>
-9.6127

> <Gold.Chemscore.Metal.Weighted>
-0.0000

> <Gold.Chemscore.Lipo.Weighted>
-10.0742

> <Gold.Chemscore.Internal_Hbond.Weighted>
0.0000

> <Gold.Chemscore.DEClash.Weighted>
0.0000

> <Gold.Chemscore.DEInternal.Weighted>
0.4598

> <Gold.Chemscore.Rot.Weighted>
6.4856

> <Gold.Chemscore.Internal.Correction.Weighted>
   9.000000E+99

> <Gold.Protein.RotatedTorsions>
[ 6907 6896 6895 6894 ] final   96.60 input  -60.11 | X-H torsion
[ 7974 7965 7964 7962 ] final  -73.43 input  175.53 | X-H torsion
[ 8008 7997 7996 7995 ] final   84.10 input   59.86 | X-H torsion
[ 10167 10162 10161 10158 ] final   92.65 input  -65.29 | X-H torsion
[ 10718 10713 10712 10709 ] final -137.57 input   66.30 | X-H torsion
[ 10763 10752 10751 10750 ] final -178.32 input  -60.55 | X-H torsion
[ 11005 11000 10999 10996 ] final   27.37 input  -57.11 | X-H torsion

> <Gold.Protein.ActiveResidues>
 VAL166  LYS551  ARG553  GLY616  TRP617  ASP618  TYR619  PRO620  LYS621  CYS622 
 ASP623  PHE694  ASN695  SER759  ASP760  ASP761  ALA762  ILE779  LEU786  VAL792 
 PHE793  MET794  SER795  GLU796  ALA797  LYS798  CYS799  TRP800  GLU811  SER814 

> <Gold.Protein.RotatedAtoms>
  152.5433  134.0862  159.8256 H   0  0  0  0  0  0  0  0  0  0  0  0  # atno 6907 bound_to 6896
  151.0957  133.5274  159.2620 H   0  0  0  0  0  0  0  0  0  0  0  0  # atno 6908 bound_to 6896
  151.2048  135.0466  159.8941 H   0  0  0  0  0  0  0  0  0  0  0  0  # atno 6909 bound_to 6896
  145.6522  140.9279  143.0978 H   0  0  0  0  0  0  0  0  0  0  0  0  # atno 7974 bound_to 7965
  155.9327  140.3413  155.6262 H   0  0  0  0  0  0  0  0  0  0  0  0  # atno 8008 bound_to 7997
  155.7138  140.0775  157.2378 H   0  0  0  0  0  0  0  0  0  0  0  0  # atno 8009 bound_to 7997
  154.4088  140.1618  156.2313 H   0  0  0  0  0  0  0  0  0  0  0  0  # atno 8010 bound_to 7997
  139.8256  144.6711  150.9464 H   0  0  0  0  0  0  0  0  0  0  0  0  # atno 10167 bound_to 10162
  156.2895  130.7367  151.1388 H   0  0  0  0  0  0  0  0  0  0  0  0  # atno 10718 bound_to 10713
  154.5492  135.2811  155.1025 H   0  0  0  0  0  0  0  0  0  0  0  0  # atno 10763 bound_to 10752
  154.2477  135.6345  153.5233 H   0  0  0  0  0  0  0  0  0  0  0  0  # atno 10764 bound_to 10752
  152.9998  135.5575  154.6053 H   0  0  0  0  0  0  0  0  0  0  0  0  # atno 10765 bound_to 10752
  140.3269  134.2480  155.7708 H   0  0  0  0  0  0  0  0  0  0  0  0  # atno 11005 bound_to 11000
  144.7118  139.8341  143.7412 LP  0  0  0  0  0  0  0  0  0  0  0  0  # atno 17320 bound_to 7965
  146.1194  139.4210  143.0238 LP  0  0  0  0  0  0  0  0  0  0  0  0  # atno 17321 bound_to 7965
  140.7810  143.4050  151.1086 LP  0  0  0  0  0  0  0  0  0  0  0  0  # atno 17342 bound_to 10162
  139.7707  143.8498  152.3120 LP  0  0  0  0  0  0  0  0  0  0  0  0  # atno 17343 bound_to 10162
  157.7338  131.0587  150.5556 LP  0  0  0  0  0  0  0  0  0  0  0  0  # atno 17370 bound_to 10713
  156.5671  130.4270  149.6036 LP  0  0  0  0  0  0  0  0  0  0  0  0  # atno 17371 bound_to 10713
  141.2073  133.7810  157.0128 LP  0  0  0  0  0  0  0  0  0  0  0  0  # atno 17394 bound_to 11000
  140.0893  134.9602  157.1751 LP  0  0  0  0  0  0  0  0  0  0  0  0  # atno 17395 bound_to 11000

$$$$
