AV-unprocessed.smi:2552|AV-procd|sdf|10015|dock3
  -GOLD-   2272014 63D 1   1.00000     0.00000
 Structure written by MMmdl.
 34 36  0  0  0  0  0  0  0  0  1 V2000
  148.5702  141.1992  154.0766 C   0  0  0  0  0  0  0  0  0  0  0  0
  149.6848  140.4254  154.6183 N   0  0  0  0  0  0  0  0  0  0  0  0
  150.1847  139.4372  153.7617 N   0  0  0  0  0  0  0  0  0  0  0  0
  151.1729  138.6758  154.1153 C   0  0  0  0  0  0  0  0  0  0  0  0
  151.7571  138.8725  155.4383 C   0  0  0  0  0  0  0  0  0  0  0  0
  152.8088  138.2654  156.1784 C   0  0  0  0  0  0  0  0  0  0  0  0
  152.9548  138.8167  157.3818 N   0  0  0  0  0  0  0  0  0  0  0  0
  152.0085  139.7881  157.4605 N   0  0  0  0  0  0  0  0  0  0  0  0
  151.8824  140.5804  158.6742 C   0  0  0  0  0  0  0  0  0  0  0  0
  153.2342  141.1553  159.1435 C   0  0  2  0  0  0  0  0  0  0  0  0
  154.1050  140.0739  159.4100 O   0  0  0  0  0  0  0  0  0  0  0  0
  153.0839  142.0869  160.3410 C   0  0  0  0  0  0  0  0  0  0  0  0
  153.6300  141.7307  161.5943 C   0  0  0  0  0  0  0  0  0  0  0  0
  153.4756  142.5806  162.7062 C   0  0  0  0  0  0  0  0  0  0  0  0
  152.7720  143.7925  162.5739 C   0  0  0  0  0  0  0  0  0  0  0  0
  152.2208  144.1520  161.3294 C   0  0  0  0  0  0  0  0  0  0  0  0
  152.3728  143.3027  160.2160 C   0  0  0  0  0  0  0  0  0  0  0  0
  151.8233  143.6590  159.0297 F   0  0  0  0  0  0  0  0  0  0  0  0
  151.2898  139.8237  156.2835 C   0  0  0  0  0  0  0  0  0  0  0  0
  150.1621  140.6916  155.8713 C   0  0  0  0  0  0  0  0  0  0  0  0
  149.7132  141.5679  156.6103 O   0  0  0  0  0  0  0  0  0  0  0  0
  148.8276  142.2581  154.0228 H   0  0  0  0  0  0  0  0  0  0  0  0
  147.6867  141.0936  154.7080 H   0  0  0  0  0  0  0  0  0  0  0  0
  148.2978  140.8745  153.0711 H   0  0  0  0  0  0  0  0  0  0  0  0
  151.5608  137.9072  153.4469 H   0  0  0  0  0  0  0  0  0  0  0  0
  153.4607  137.4544  155.8895 H   0  0  0  0  0  0  0  0  0  0  0  0
  151.1653  141.3848  158.5007 H   0  0  0  0  0  0  0  0  0  0  0  0
  151.4491  139.9463  159.4482 H   0  0  0  0  0  0  0  0  0  0  0  0
  153.6904  141.7086  158.3228 H   0  0  0  0  0  0  0  0  0  0  0  0
  153.5835  139.3187  159.6356 H   0  0  0  0  0  0  0  0  0  0  0  0
  154.1655  140.7996  161.7086 H   0  0  0  0  0  0  0  0  0  0  0  0
  153.8949  142.3011  163.6615 H   0  0  0  0  0  0  0  0  0  0  0  0
  152.6527  144.4442  163.4267 H   0  0  0  0  0  0  0  0  0  0  0  0
  151.6771  145.0796  161.2290 H   0  0  0  0  0  0  0  0  0  0  0  0
  1  2  1  0  0  0  0
  1 22  1  0  0  0  0
  1 23  1  0  0  0  0
  1 24  1  0  0  0  0
  2 20  1  0  0  0  0
  2  3  1  0  0  0  0
  3  4  2  0  0  0  0
  4  5  1  0  0  0  0
  4 25  1  0  0  0  0
  5 19  2  0  0  0  0
  5  6  1  0  0  0  0
  6  7  2  0  0  0  0
  6 26  1  0  0  0  0
  7  8  1  0  0  0  0
  8  9  1  0  0  0  0
  8 19  1  0  0  0  0
  9 10  1  0  0  0  0
  9 27  1  0  0  0  0
  9 28  1  0  0  0  0
 10 11  1  0  0  0  0
 10 12  1  0  0  0  0
 10 29  1  0  0  0  0
 11 30  1  0  0  0  0
 12 17  1  0  0  0  0
 12 13  2  0  0  0  0
 13 14  1  0  0  0  0
 13 31  1  0  0  0  0
 14 15  2  0  0  0  0
 14 32  1  0  0  0  0
 15 16  1  0  0  0  0
 15 33  1  0  0  0  0
 16 17  2  0  0  0  0
 16 34  1  0  0  0  0
 17 18  1  0  0  0  0
 19 20  1  0  0  0  0
 20 21  2  0  0  0  0
M  END
> <s_m_source_file>
AV-unprocessed.smi

> <i_m_source_file_index>
2552

> <i_lp_mmshare_version>
43012

> <i_f3d_flags>
0

> <s_epik_input>
W2NIXTFubihbQ0gzXSljKD1PKWMoYzEyKW4obltjSF0yKVtDSDJdW0NASF0oW09IXSljM1tjSF1bY0hdW2NIXVtjSF1jM0Y=

> <s_epik_cmdline>
J2VwaWtfcHl0aG9uJywgJy1waCcsICc3LjAnLCAnLXRuJywgJzgnLCAnLW1hJywgJzIwMCcsICctbWV0YWxfYmluZGluZycsICctaW1hZScsICc8aW5maWxlLm1hZT4nLCAnLW9tYWUnLCAnPG91dGZpbGUubWFlPic=

> <r_lp_tautomer_probability>
1

> <r_epik_Ionization_Penalty>
6.28011e-06

> <r_epik_Ionization_Penalty_Charging>
1.65421e-10

> <r_epik_Ionization_Penalty_Neutral>
6.27995e-06

> <r_epik_State_Penalty>
-0

> <r_epik_Charging_Adjusted_Penalty>
1.65421e-10

> <i_epik_Tot_Q>
0

> <i_epik_Tot_abs_Q>
0

> <r_epik_Metal_State_Penalty>
-0

> <b_epik_Metal_Only>
0

> <s_lp_Force_Field>
OPLS_2005

> <r_lp_Energy>
28.555

> <b_lp_Chiralities_Consistent>
1

> <s_lp_Variant>
AV-unprocessed.smi:2552-1

> <Gold.Version>
5.8.1

> <Gold.Id.Protein>
6NUR|6NUR_protein|mol2

> <Gold.PLP.Fitness>
52.0538

> <Gold.PLP.PLP>
-48.4724

> <Gold.PLP.part.hbond>
-2.5280

> <Gold.PLP.part.metal>
0.0000

> <Gold.PLP.part.buried>
-3.1120

> <Gold.PLP.part.nonpolar>
-43.3759

> <Gold.PLP.part.repulsive>
2.3510

> <Gold.PLP.ligand.clash>
0.0000

> <Gold.PLP.ligand.torsion>
0.1991

> <Gold.PLP.Chemscore.Hbond>
1.0372

> <Gold.PLP.Chemscore.CHOScore>
0.2842

> <Gold.PLP.Chemscore.Metal>
0.0000

> <Gold.Chemscore.Hbonds>
donor molecule, donor type, donor heavy atom, donor atom, acceptor molecule, acceptor atom, score
      P1  H  7989  7998       L1     3  0.01
      P1  H  7997  8008       L1     7  0.79
      L1  C     4    25       P1  7949  0.41

> <Gold.PLP.Chemscore.Internal.Correction>
0.0154

> <Gold.Rescore>
     Score         DG    S(hbond)    S(metal)    S(lipo)     H(rot)  DE(clash)    DE(int)     intcor
     14.20     -14.54       0.01        0.00     121.19       2.02       0.19       0.15       ----

> <Gold.Chemscore.Fitness>
14.2020

> <Gold.Chemscore.DG>
-14.5403

> <Gold.Chemscore.ZeroCoef>
-5.4800

> <Gold.Chemscore.Hbond>
0.0140

> <Gold.Chemscore.Metal>
0.0000

> <Gold.Chemscore.Lipo>
121.1947

> <Gold.Chemscore.Internal_Hbond>
0.0000

> <Gold.Chemscore.DEClash>
0.1854

> <Gold.Chemscore.DEInternal>
0.1529

> <Gold.Chemscore.Rot>
2.0181

> <Gold.Chemscore.Internal.Correction>
   9.000000E+99

> <Gold.Chemscore.Hbonds>
donor molecule, donor type, donor heavy atom, donor atom, acceptor molecule, acceptor atom, score
      P1  H  7997  8008       L1     7  0.05

> <Gold.Chemscore.Hbond.Weighted>
-0.0469

> <Gold.Chemscore.Metal.Weighted>
-0.0000

> <Gold.Chemscore.Lipo.Weighted>
-14.1798

> <Gold.Chemscore.Internal_Hbond.Weighted>
0.0000

> <Gold.Chemscore.DEClash.Weighted>
0.1854

> <Gold.Chemscore.DEInternal.Weighted>
0.1529

> <Gold.Chemscore.Rot.Weighted>
5.1663

> <Gold.Chemscore.Internal.Correction.Weighted>
   9.000000E+99

> <Gold.Protein.RotatedTorsions>
[ 6907 6896 6895 6894 ] final  148.05 input  -60.11 | X-H torsion
[ 7974 7965 7964 7962 ] final   24.51 input  175.53 | X-H torsion
[ 8008 7997 7996 7995 ] final  -90.71 input   59.86 | X-H torsion
[ 10167 10162 10161 10158 ] final  -22.32 input  -65.29 | X-H torsion
[ 10718 10713 10712 10709 ] final   23.10 input   66.30 | X-H torsion
[ 10763 10752 10751 10750 ] final -151.86 input  -60.55 | X-H torsion
[ 11005 11000 10999 10996 ] final  -93.34 input  -57.11 | X-H torsion

> <Gold.Protein.ActiveResidues>
 VAL166  LYS551  ARG553  GLY616  TRP617  ASP618  TYR619  PRO620  LYS621  CYS622 
 ASP623  PHE694  ASN695  SER759  ASP760  ASP761  ALA762  ILE779  LEU786  VAL792 
 PHE793  MET794  SER795  GLU796  ALA797  LYS798  CYS799  TRP800  GLU811  SER814 

> <Gold.Protein.RotatedAtoms>
  152.1467  133.4496  159.4792 H   0  0  0  0  0  0  0  0  0  0  0  0  # atno 6907 bound_to 6896
  150.6891  134.2240  159.4417 H   0  0  0  0  0  0  0  0  0  0  0  0  # atno 6908 bound_to 6896
  152.0134  134.9863  160.0619 H   0  0  0  0  0  0  0  0  0  0  0  0  # atno 6909 bound_to 6896
  146.1934  139.7594  142.8815 H   0  0  0  0  0  0  0  0  0  0  0  0  # atno 7974 bound_to 7965
  154.7019  140.0527  157.0466 H   0  0  0  0  0  0  0  0  0  0  0  0  # atno 8008 bound_to 7997
  155.0673  140.3196  155.4623 H   0  0  0  0  0  0  0  0  0  0  0  0  # atno 8009 bound_to 7997
  156.2762  140.2088  156.5800 H   0  0  0  0  0  0  0  0  0  0  0  0  # atno 8010 bound_to 7997
  140.7285  143.4545  151.0468 H   0  0  0  0  0  0  0  0  0  0  0  0  # atno 10167 bound_to 10162
  157.1614  130.6719  149.6045 H   0  0  0  0  0  0  0  0  0  0  0  0  # atno 10718 bound_to 10713
  154.8031  135.3250  154.7500 H   0  0  0  0  0  0  0  0  0  0  0  0  # atno 10763 bound_to 10752
  153.8164  135.6891  153.4838 H   0  0  0  0  0  0  0  0  0  0  0  0  # atno 10764 bound_to 10752
  153.1759  135.4605  154.9909 H   0  0  0  0  0  0  0  0  0  0  0  0  # atno 10765 bound_to 10752
  141.1499  133.7881  157.0146 H   0  0  0  0  0  0  0  0  0  0  0  0  # atno 11005 bound_to 11000
  145.3721  141.0344  143.3225 LP  0  0  0  0  0  0  0  0  0  0  0  0  # atno 17320 bound_to 7965
  144.8531  139.5291  143.6847 LP  0  0  0  0  0  0  0  0  0  0  0  0  # atno 17321 bound_to 7965
  139.8225  143.7801  152.3177 LP  0  0  0  0  0  0  0  0  0  0  0  0  # atno 17342 bound_to 10162
  139.7888  144.7418  150.9983 LP  0  0  0  0  0  0  0  0  0  0  0  0  # atno 17343 bound_to 10162
  155.9753  130.4710  150.6450 LP  0  0  0  0  0  0  0  0  0  0  0  0  # atno 17370 bound_to 10713
  157.4129  131.0826  151.1204 LP  0  0  0  0  0  0  0  0  0  0  0  0  # atno 17371 bound_to 10713
  140.0855  134.9623  157.1693 LP  0  0  0  0  0  0  0  0  0  0  0  0  # atno 17394 bound_to 11000
  140.3517  134.2591  155.7197 LP  0  0  0  0  0  0  0  0  0  0  0  0  # atno 17395 bound_to 11000

$$$$
