AV-unprocessed.smi:3148|AV-procd|sdf|11994|dock4
  -GOLD-   2272017403D 1   1.00000     0.00000
 Structure written by MMmdl.
 34 36  0  0  0  0  0  0  0  0  1 V2000
  152.9231  138.2572  154.9942 C   0  0  0  0  0  0  0  0  0  0  0  0
  152.7877  139.3936  155.8407 O   0  0  0  0  0  0  0  0  0  0  0  0
  151.6128  140.1135  155.7772 C   0  0  0  0  0  0  0  0  0  0  0  0
  150.5973  139.7078  154.8876 C   0  0  0  0  0  0  0  0  0  0  0  0
  149.4236  140.4901  154.8761 C   0  0  0  0  0  0  0  0  0  0  0  0
  148.2626  140.1624  153.9614 C   0  0  0  0  0  0  0  0  0  0  0  0
  149.2794  141.5706  155.6748 N   0  0  0  0  0  0  0  0  0  0  0  0
  150.3021  141.8706  156.4788 C   0  0  0  0  0  0  0  0  0  0  0  0
  150.1264  142.9871  157.2754 N   0  0  0  0  0  0  0  0  0  0  0  0
  150.9139  143.2801  158.4666 C   0  0  1  0  0  0  0  0  0  0  0  0
  152.3337  143.7610  158.1418 C   0  0  0  0  0  0  0  0  0  0  0  0
  152.3857  145.1090  158.8715 C   0  0  2  0  0  0  0  0  0  0  0  0
  152.3866  144.9450  160.3975 C   0  0  0  0  0  0  0  0  0  0  0  0
  150.9402  144.5314  160.6677 C   0  0  0  0  0  0  0  0  0  0  0  0
  150.3551  144.4798  159.2496 C   0  0  1  0  0  0  0  0  0  0  0  0
  151.0598  145.5588  158.6565 O   0  0  0  0  0  0  0  0  0  0  0  0
  151.4564  141.2008  156.5724 N   0  0  0  0  0  0  0  0  0  0  0  0
  153.8999  137.8017  155.1545 H   0  0  0  0  0  0  0  0  0  0  0  0
  152.8552  138.5334  153.9409 H   0  0  0  0  0  0  0  0  0  0  0  0
  152.1658  137.5035  155.2154 H   0  0  0  0  0  0  0  0  0  0  0  0
  150.7167  138.8445  154.2499 H   0  0  0  0  0  0  0  0  0  0  0  0
  148.4248  139.2175  153.4421 H   0  0  0  0  0  0  0  0  0  0  0  0
  148.1384  140.9462  153.2137 H   0  0  0  0  0  0  0  0  0  0  0  0
  147.3374  140.0822  154.5328 H   0  0  0  0  0  0  0  0  0  0  0  0
  149.5185  143.7116  156.9217 H   0  0  0  0  0  0  0  0  0  0  0  0
  150.9293  142.3952  159.1043 H   0  0  0  0  0  0  0  0  0  0  0  0
  153.1011  143.0681  158.4882 H   0  0  0  0  0  0  0  0  0  0  0  0
  152.4736  143.9090  157.0698 H   0  0  0  0  0  0  0  0  0  0  0  0
  153.1551  145.7844  158.4970 H   0  0  0  0  0  0  0  0  0  0  0  0
  153.1107  144.2014  160.7325 H   0  0  0  0  0  0  0  0  0  0  0  0
  152.6125  145.8908  160.8912 H   0  0  0  0  0  0  0  0  0  0  0  0
  150.8622  143.5758  161.1873 H   0  0  0  0  0  0  0  0  0  0  0  0
  150.4325  145.2881  161.2670 H   0  0  0  0  0  0  0  0  0  0  0  0
  149.2689  144.5744  159.2224 H   0  0  0  0  0  0  0  0  0  0  0  0
  1  2  1  0  0  0  0
  1 18  1  0  0  0  0
  1 19  1  0  0  0  0
  1 20  1  0  0  0  0
  2  3  1  0  0  0  0
  3 17  1  0  0  0  0
  3  4  2  0  0  0  0
  4  5  1  0  0  0  0
  4 21  1  0  0  0  0
  5  6  1  0  0  0  0
  5  7  2  0  0  0  0
  6 22  1  0  0  0  0
  6 23  1  0  0  0  0
  6 24  1  0  0  0  0
  7  8  1  0  0  0  0
  8  9  1  0  0  0  0
  8 17  2  0  0  0  0
  9 10  1  0  0  0  0
  9 25  1  0  0  0  0
 10 15  1  0  0  0  0
 10 11  1  0  0  0  0
 10 26  1  0  0  0  0
 11 12  1  0  0  0  0
 11 27  1  0  0  0  0
 11 28  1  0  0  0  0
 12 16  1  0  0  0  0
 12 13  1  0  0  0  0
 12 29  1  0  0  0  0
 13 14  1  0  0  0  0
 13 30  1  0  0  0  0
 13 31  1  0  0  0  0
 14 15  1  0  0  0  0
 14 32  1  0  0  0  0
 14 33  1  0  0  0  0
 15 16  1  0  0  0  0
 15 34  1  0  0  0  0
M  END
> <s_m_source_file>
AV-unprocessed.smi

> <i_m_source_file_index>
3148

> <i_lp_mmshare_version>
43012

> <i_f3d_flags>
0

> <s_epik_input>
W0NIM11PYzFbY0hdYyhbQ0gzXSluYyhuMSlbTkhdW0NASF0oW0NIMl1bQ0BASF0yMylbQ0BASF0oTzMpW0NIMl1bQ0gyXTI=

> <s_epik_cmdline>
J2VwaWtfcHl0aG9uJywgJy1waCcsICc3LjAnLCAnLXRuJywgJzgnLCAnLW1hJywgJzIwMCcsICctbWV0YWxfYmluZGluZycsICctaW1hZScsICc8aW5maWxlLm1hZT4nLCAnLW9tYWUnLCAnPG91dGZpbGUubWFlPic=

> <r_lp_tautomer_probability>
1

> <r_epik_Ionization_Penalty>
0.101645

> <r_epik_Ionization_Penalty_Charging>
0

> <r_epik_Ionization_Penalty_Neutral>
0.101645

> <r_epik_State_Penalty>
0.0916212

> <r_epik_Charging_Adjusted_Penalty>
0.0916212

> <i_epik_Tot_Q>
0

> <i_epik_Tot_abs_Q>
0

> <r_epik_Metal_State_Penalty>
0.0781

> <b_epik_Metal_Only>
0

> <s_lp_Force_Field>
OPLS_2005

> <r_lp_Energy>
31.271

> <b_lp_Chiralities_Consistent>
1

> <s_lp_Variant>
AV-unprocessed.smi:3148-4

> <Gold.Version>
5.8.1

> <Gold.Id.Protein>
6NUR|6NUR_protein|mol2

> <Gold.PLP.Fitness>
41.1341

> <Gold.PLP.PLP>
-35.8631

> <Gold.PLP.part.hbond>
-3.0000

> <Gold.PLP.part.metal>
0.0000

> <Gold.PLP.part.buried>
-1.1964

> <Gold.PLP.part.nonpolar>
-32.0907

> <Gold.PLP.part.repulsive>
0.3277

> <Gold.PLP.ligand.clash>
0.2500

> <Gold.PLP.ligand.torsion>
0.1909

> <Gold.PLP.Chemscore.Hbond>
1.9600

> <Gold.PLP.Chemscore.CHOScore>
0.0000

> <Gold.PLP.Chemscore.Metal>
0.0000

> <Gold.Chemscore.Hbonds>
donor molecule, donor type, donor heavy atom, donor atom, acceptor molecule, acceptor atom, score
      L1  H     9    25       P1  8028  1.00
      P1  H  7997  8010       L1     2  1.00

> <Gold.PLP.Chemscore.Internal.Correction>
0.0228

> <Gold.Rescore>
     Score         DG    S(hbond)    S(metal)    S(lipo)     H(rot)  DE(clash)    DE(int)     intcor
     18.32     -19.53       1.90        0.00      92.65       1.22       0.33       0.88       ----

> <Gold.Chemscore.Fitness>
18.3233

> <Gold.Chemscore.DG>
-19.5329

> <Gold.Chemscore.ZeroCoef>
-5.4800

> <Gold.Chemscore.Hbond>
1.8994

> <Gold.Chemscore.Metal>
0.0000

> <Gold.Chemscore.Lipo>
92.6506

> <Gold.Chemscore.Internal_Hbond>
0.0000

> <Gold.Chemscore.DEClash>
0.3323

> <Gold.Chemscore.DEInternal>
0.8773

> <Gold.Chemscore.Rot>
1.2232

> <Gold.Chemscore.Internal.Correction>
   9.000000E+99

> <Gold.Chemscore.Hbonds>
donor molecule, donor type, donor heavy atom, donor atom, acceptor molecule, acceptor atom, score
      L1  H     9    25       P1  8028  0.90
      P1  H  7997  8010       L1     2  0.85

> <Gold.Chemscore.Hbond.Weighted>
-6.3441

> <Gold.Chemscore.Metal.Weighted>
-0.0000

> <Gold.Chemscore.Lipo.Weighted>
-10.8401

> <Gold.Chemscore.Internal_Hbond.Weighted>
0.0000

> <Gold.Chemscore.DEClash.Weighted>
0.3323

> <Gold.Chemscore.DEInternal.Weighted>
0.8773

> <Gold.Chemscore.Rot.Weighted>
3.1314

> <Gold.Chemscore.Internal.Correction.Weighted>
   9.000000E+99

> <Gold.Protein.RotatedTorsions>
[ 6907 6896 6895 6894 ] final  167.32 input  -60.11 | X-H torsion
[ 7974 7965 7964 7962 ] final  -91.05 input  175.53 | X-H torsion
[ 8008 7997 7996 7995 ] final   81.26 input   59.86 | X-H torsion
[ 10167 10162 10161 10158 ] final  -79.98 input  -65.29 | X-H torsion
[ 10718 10713 10712 10709 ] final -122.21 input   66.30 | X-H torsion
[ 10763 10752 10751 10750 ] final   85.77 input  -60.55 | X-H torsion
[ 11005 11000 10999 10996 ] final   45.27 input  -57.11 | X-H torsion

> <Gold.Protein.ActiveResidues>
 VAL166  LYS551  ARG553  GLY616  TRP617  ASP618  TYR619  PRO620  LYS621  CYS622 
 ASP623  PHE694  ASN695  SER759  ASP760  ASP761  ALA762  ILE779  LEU786  VAL792 
 PHE793  MET794  SER795  GLU796  ALA797  LYS798  CYS799  TRP800  GLU811  SER814 

> <Gold.Protein.RotatedAtoms>
  151.8652  133.3465  159.3716 H   0  0  0  0  0  0  0  0  0  0  0  0  # atno 6907 bound_to 6896
  150.7168  134.5167  159.5643 H   0  0  0  0  0  0  0  0  0  0  0  0  # atno 6908 bound_to 6896
  152.2689  134.7955  160.0469 H   0  0  0  0  0  0  0  0  0  0  0  0  # atno 6909 bound_to 6896
  145.4182  140.9549  143.2196 H   0  0  0  0  0  0  0  0  0  0  0  0  # atno 7974 bound_to 7965
  155.8947  140.3437  155.5982 H   0  0  0  0  0  0  0  0  0  0  0  0  # atno 8008 bound_to 7997
  155.7570  140.0827  157.2193 H   0  0  0  0  0  0  0  0  0  0  0  0  # atno 8009 bound_to 7997
  154.4037  140.1543  156.2776 H   0  0  0  0  0  0  0  0  0  0  0  0  # atno 8010 bound_to 7997
  140.4544  143.2473  151.8441 H   0  0  0  0  0  0  0  0  0  0  0  0  # atno 10167 bound_to 10162
  156.1400  130.6459  150.9756 H   0  0  0  0  0  0  0  0  0  0  0  0  # atno 10718 bound_to 10713
  153.1506  135.4605  154.9631 H   0  0  0  0  0  0  0  0  0  0  0  0  # atno 10763 bound_to 10752
  154.7822  135.3192  154.7967 H   0  0  0  0  0  0  0  0  0  0  0  0  # atno 10764 bound_to 10752
  153.8473  135.6924  153.4850 H   0  0  0  0  0  0  0  0  0  0  0  0  # atno 10765 bound_to 10752
  140.1475  134.4504  155.8405 H   0  0  0  0  0  0  0  0  0  0  0  0  # atno 11005 bound_to 11000
  144.8263  139.5705  143.6964 LP  0  0  0  0  0  0  0  0  0  0  0  0  # atno 17320 bound_to 7965
  146.2670  139.6543  142.9322 LP  0  0  0  0  0  0  0  0  0  0  0  0  # atno 17321 bound_to 7965
  139.4799  144.5082  151.8969 LP  0  0  0  0  0  0  0  0  0  0  0  0  # atno 17342 bound_to 10162
  140.4168  144.2296  150.5887 LP  0  0  0  0  0  0  0  0  0  0  0  0  # atno 17343 bound_to 10162
  157.6567  131.0888  150.7931 LP  0  0  0  0  0  0  0  0  0  0  0  0  # atno 17370 bound_to 10713
  156.8008  130.4920  149.5370 LP  0  0  0  0  0  0  0  0  0  0  0  0  # atno 17371 bound_to 10713
  141.2194  133.6858  156.7360 LP  0  0  0  0  0  0  0  0  0  0  0  0  # atno 17394 bound_to 11000
  140.2646  134.8440  157.3790 LP  0  0  0  0  0  0  0  0  0  0  0  0  # atno 17395 bound_to 11000

$$$$
