AV-unprocessed.smi:157|AV-procd|sdf|1321|dock1
  -GOLD-   2262019 13D 1   1.00000     0.00000
 Structure written by MMmdl.
 36 38  0  0  0  0  0  0  0  0  2 V2000
  154.0305  137.4728  161.3742 O   0  0  0  0  0  0  0  0  0  0  0  0
  154.2734  138.1510  160.1604 C   0  0  0  0  0  0  0  0  0  0  0  0
  152.9727  138.7808  159.6322 C   0  0  1  0  0  0  0  0  0  0  0  0
  153.2024  139.4936  158.4209 O   0  0  0  0  0  0  0  0  0  0  0  0
  152.0375  139.5215  157.6479 C   0  0  2  0  0  0  0  0  0  0  0  0
  151.5605  140.9351  157.5447 N   0  0  0  0  0  0  0  0  0  0  0  0
  150.7265  141.4414  156.6113 C   0  0  0  0  0  0  0  0  0  0  0  0
  150.4750  142.7323  156.7486 N   0  3  0  0  0  0  0  0  0  0  0  0
  151.1873  143.1546  157.8511 C   0  0  0  0  0  0  0  0  0  0  0  0
  151.8483  142.0231  158.3356 C   0  0  0  0  0  0  0  0  0  0  0  0
  152.7089  141.8864  159.4355 N   0  0  0  0  0  0  0  0  0  0  0  0
  152.7943  142.7711  160.3751 C   0  0  0  0  0  0  0  0  0  0  0  0
  152.1798  144.0088  160.4673 N   0  0  0  0  0  0  0  0  0  0  0  0
  152.1433  144.9585  159.3694 C   0  0  0  0  0  0  0  0  0  0  0  0
  151.1392  144.5911  158.2687 C   0  0  2  0  0  0  0  0  0  0  0  0
  149.8493  144.9920  158.6822 O   0  0  0  0  0  0  0  0  0  0  0  0
  150.9832  138.6647  158.3584 C   0  0  0  0  0  0  0  0  0  0  0  0
  151.8252  137.8200  159.2927 C   0  0  1  0  0  0  0  0  0  0  0  0
  152.2789  136.6503  158.6383 O   0  0  0  0  0  0  0  0  0  0  0  0
  152.6097  139.5096  160.3592 H   0  0  0  0  0  0  0  0  0  0  0  0
  152.2518  139.2083  156.6255 H   0  0  0  0  0  0  0  0  0  0  0  0
  151.3746  145.1971  157.3930 H   0  0  0  0  0  0  0  0  0  0  0  0
  151.2684  137.5237  160.1823 H   0  0  0  0  0  0  0  0  0  0  0  0
  153.5451  138.0468  161.9475 H   0  0  0  0  0  0  0  0  0  0  0  0
  155.0137  138.9293  160.3458 H   0  0  0  0  0  0  0  0  0  0  0  0
  154.7111  137.4648  159.4353 H   0  0  0  0  0  0  0  0  0  0  0  0
  150.3053  140.8441  155.8227 H   0  0  0  0  0  0  0  0  0  0  0  0
  153.4324  142.5667  161.2360 H   0  0  0  0  0  0  0  0  0  0  0  0
  152.1740  144.4781  161.3618 H   0  0  0  0  0  0  0  0  0  0  0  0
  151.9457  145.9592  159.7553 H   0  0  0  0  0  0  0  0  0  0  0  0
  153.1443  144.9939  158.9366 H   0  0  0  0  0  0  0  0  0  0  0  0
  149.3884  145.3490  157.9389 H   0  0  0  0  0  0  0  0  0  0  0  0
  150.3151  139.3043  158.9379 H   0  0  0  0  0  0  0  0  0  0  0  0
  150.3884  138.0922  157.6457 H   0  0  0  0  0  0  0  0  0  0  0  0
  153.1468  136.8135  158.3013 H   0  0  0  0  0  0  0  0  0  0  0  0
  149.8821  143.2960  156.1529 H   0  0  0  0  0  0  0  0  0  0  0  0
  1  2  1  0  0  0  0
  1 24  1  0  0  0  0
  2  3  1  0  0  0  0
  2 25  1  0  0  0  0
  2 26  1  0  0  0  0
  3 20  1  0  0  0  0
  3 18  1  0  0  0  0
  3  4  1  0  0  0  0
  4  5  1  0  0  0  0
  5 21  1  0  0  0  0
  5  6  1  0  0  0  0
  5 17  1  0  0  0  0
  6 10  1  0  0  0  0
  6  7  1  0  0  0  0
  7  8  2  0  0  0  0
  7 27  1  0  0  0  0
  8  9  1  0  0  0  0
  8 36  1  0  0  0  0
  9 15  1  0  0  0  0
  9 10  2  0  0  0  0
 10 11  1  0  0  0  0
 11 12  2  0  0  0  0
 12 13  1  0  0  0  0
 12 28  1  0  0  0  0
 13 14  1  0  0  0  0
 13 29  1  0  0  0  0
 14 15  1  0  0  0  0
 14 30  1  0  0  0  0
 14 31  1  0  0  0  0
 15 22  1  0  0  0  0
 15 16  1  0  0  0  0
 16 32  1  0  0  0  0
 17 18  1  0  0  0  0
 17 33  1  0  0  0  0
 17 34  1  0  0  0  0
 18 23  1  0  0  0  0
 18 19  1  0  0  0  0
 19 35  1  0  0  0  0
M  CHG  1   8   1
M  END
> <s_m_source_file>
AV-unprocessed.smi

> <i_m_source_file_index>
157

> <i_lp_mmshare_version>
43012

> <i_f3d_flags>
0

> <s_epik_input>
W09IXVtDSDJdW0NASF0xT1tDQEhdKFtDSDJdW0NAQEhdMVtPSF0pbihbY0hdbjIpYyhjMjMpTj1bQ0hdW05IXVtDSDJdW0NASF0zW09IXQ==

> <s_epik_cmdline>
J2VwaWtfcHl0aG9uJywgJy1waCcsICc3LjAnLCAnLXRuJywgJzgnLCAnLW1hJywgJzIwMCcsICctbWV0YWxfYmluZGluZycsICctaW1hZScsICc8aW5maWxlLm1hZT4nLCAnLW9tYWUnLCAnPG91dGZpbGUubWFlPic=

> <r_epik_Ionization_Penalty>
1.68594

> <r_epik_Ionization_Penalty_Charging>
0

> <r_epik_Ionization_Penalty_Neutral>
1.68594

> <r_epik_State_Penalty>
1.79006

> <r_epik_Charging_Adjusted_Penalty>
1.79006

> <i_epik_Tot_Q>
1

> <i_epik_Tot_abs_Q>
1

> <r_epik_Metal_State_Penalty>
5.85324

> <b_epik_Metal_Only>
0

> <s_epik_Chemistry_Notes>
This compound has an imine and may undergo hydrolysis. This compound contains an acetal/aminal-like group ( X-CH(R)-Y where X, Y are N, S, or O) that may be acid/base labile, releasing an aldehyde.

> <s_lp_Force_Field>
OPLS_2005

> <r_lp_Energy>
54.2112

> <b_lp_Chiralities_Consistent>
1

> <s_lp_Variant>
AV-unprocessed.smi:157-31

> <Gold.Version>
5.8.1

> <Gold.Id.Protein>
6NUR|6NUR_protein|mol2

> <Gold.PLP.Fitness>
48.0265

> <Gold.PLP.PLP>
-34.8202

> <Gold.PLP.part.hbond>
-4.5058

> <Gold.PLP.part.metal>
0.0000

> <Gold.PLP.part.buried>
-6.8674

> <Gold.PLP.part.nonpolar>
-24.3588

> <Gold.PLP.part.repulsive>
0.0737

> <Gold.PLP.ligand.clash>
0.0000

> <Gold.PLP.ligand.torsion>
0.5994

> <Gold.PLP.Chemscore.Hbond>
4.8000

> <Gold.PLP.Chemscore.CHOScore>
0.0000

> <Gold.PLP.Chemscore.Metal>
0.0000

> <Gold.Chemscore.Hbonds>
donor molecule, donor type, donor heavy atom, donor atom, acceptor molecule, acceptor atom, score
      L1  H     8    36       P1  8028  2.00
      L1  H    16    32       P1  8029  0.94
      P1  H  6896  6908       L1    19  0.59
      P1  H  7997  8009       L1     4  0.99

> <Gold.PLP.Chemscore.Internal.Correction>
0.0052

> <Gold.Rescore>
     Score         DG    S(hbond)    S(metal)    S(lipo)     H(rot)  DE(clash)    DE(int)     intcor
     11.99     -14.28       3.51        0.00      55.27       3.67       0.10       2.19       ----

> <Gold.Chemscore.Fitness>
11.9858

> <Gold.Chemscore.DG>
-14.2763

> <Gold.Chemscore.ZeroCoef>
-5.4800

> <Gold.Chemscore.Hbond>
3.5075

> <Gold.Chemscore.Metal>
0.0000

> <Gold.Chemscore.Lipo>
55.2662

> <Gold.Chemscore.Internal_Hbond>
0.0000

> <Gold.Chemscore.DEClash>
0.1007

> <Gold.Chemscore.DEInternal>
2.1897

> <Gold.Chemscore.Rot>
3.6659

> <Gold.Chemscore.Internal.Correction>
   9.000000E+99

> <Gold.Chemscore.Hbonds>
donor molecule, donor type, donor heavy atom, donor atom, acceptor molecule, acceptor atom, score
      L1  H     8    36       P1  8028  0.99
      L1  H    16    32       P1  8029  0.20
      P1  H  6896  6908       L1    19  0.23
      P1  H  7997  8009       L1     4  0.32

> <Gold.Chemscore.Hbond.Weighted>
-11.7149

> <Gold.Chemscore.Metal.Weighted>
-0.0000

> <Gold.Chemscore.Lipo.Weighted>
-6.4662

> <Gold.Chemscore.Internal_Hbond.Weighted>
0.0000

> <Gold.Chemscore.DEClash.Weighted>
0.1007

> <Gold.Chemscore.DEInternal.Weighted>
2.1897

> <Gold.Chemscore.Rot.Weighted>
9.3848

> <Gold.Chemscore.Internal.Correction.Weighted>
   9.000000E+99

> <Gold.Protein.RotatedTorsions>
[ 6907 6896 6895 6894 ] final -108.96 input  -60.11 | X-H torsion
[ 7974 7965 7964 7962 ] final   60.74 input  175.53 | X-H torsion
[ 8008 7997 7996 7995 ] final  151.98 input   59.86 | X-H torsion
[ 10167 10162 10161 10158 ] final  -19.14 input  -65.29 | X-H torsion
[ 10718 10713 10712 10709 ] final  111.24 input   66.30 | X-H torsion
[ 10763 10752 10751 10750 ] final  -97.06 input  -60.55 | X-H torsion
[ 11005 11000 10999 10996 ] final  172.21 input  -57.11 | X-H torsion

> <Gold.Protein.ActiveResidues>
 VAL166  LYS551  ARG553  GLY616  TRP617  ASP618  TYR619  PRO620  LYS621  CYS622 
 ASP623  PHE694  ASN695  SER759  ASP760  ASP761  ALA762  ILE779  LEU786  VAL792 
 PHE793  MET794  SER795  GLU796  ALA797  LYS798  CYS799  TRP800  GLU811  SER814 

> <Gold.Protein.RotatedAtoms>
  150.7533  133.9600  159.3512 H   0  0  0  0  0  0  0  0  0  0  0  0  # atno 6907 bound_to 6896
  151.7525  135.0827  160.0342 H   0  0  0  0  0  0  0  0  0  0  0  0  # atno 6908 bound_to 6896
  152.3456  133.6082  159.5944 H   0  0  0  0  0  0  0  0  0  0  0  0  # atno 6909 bound_to 6896
  145.8927  139.3522  143.0640 H   0  0  0  0  0  0  0  0  0  0  0  0  # atno 7974 bound_to 7965
  156.2650  140.2033  156.6261 H   0  0  0  0  0  0  0  0  0  0  0  0  # atno 8008 bound_to 7997
  154.6719  140.0549  157.0199 H   0  0  0  0  0  0  0  0  0  0  0  0  # atno 8009 bound_to 7997
  155.1125  140.3217  155.4521 H   0  0  0  0  0  0  0  0  0  0  0  0  # atno 8010 bound_to 7997
  140.7265  143.4848  151.0070 H   0  0  0  0  0  0  0  0  0  0  0  0  # atno 10167 bound_to 10162
  157.6454  131.0947  150.6720 H   0  0  0  0  0  0  0  0  0  0  0  0  # atno 10718 bound_to 10713
  154.7294  135.5060  153.8939 H   0  0  0  0  0  0  0  0  0  0  0  0  # atno 10763 bound_to 10752
  153.0935  135.6666  153.9815 H   0  0  0  0  0  0  0  0  0  0  0  0  # atno 10764 bound_to 10752
  153.9620  135.3047  155.3412 H   0  0  0  0  0  0  0  0  0  0  0  0  # atno 10765 bound_to 10752
  140.3273  134.7387  157.4108 H   0  0  0  0  0  0  0  0  0  0  0  0  # atno 11005 bound_to 11000
  145.8889  140.9316  143.0562 LP  0  0  0  0  0  0  0  0  0  0  0  0  # atno 17320 bound_to 7965
  144.6731  140.0879  143.7466 LP  0  0  0  0  0  0  0  0  0  0  0  0  # atno 17321 bound_to 7965
  139.8548  143.7391  152.3176 LP  0  0  0  0  0  0  0  0  0  0  0  0  # atno 17342 bound_to 10162
  139.7585  144.7513  151.0399 LP  0  0  0  0  0  0  0  0  0  0  0  0  # atno 17343 bound_to 10162
  156.7037  130.4631  149.5566 LP  0  0  0  0  0  0  0  0  0  0  0  0  # atno 17370 bound_to 10713
  156.1777  130.6478  151.0914 LP  0  0  0  0  0  0  0  0  0  0  0  0  # atno 17371 bound_to 10713
  140.0890  134.5626  155.8463 LP  0  0  0  0  0  0  0  0  0  0  0  0  # atno 17394 bound_to 11000
  141.2072  133.6662  156.6290 LP  0  0  0  0  0  0  0  0  0  0  0  0  # atno 17395 bound_to 11000

$$$$
