AV-unprocessed.smi:1845|AV-procd|sdf|7512|dock10
  -GOLD-   22720 9223D 1   1.00000     0.00000
 Structure written by MMmdl.
 45 46  0  0  0  0  0  0  0  0  1 V2000
  151.5690  130.8420  155.5229 C   0  0  0  0  0  0  0  0  0  0  0  0
  151.1504  132.0104  156.8819 S   0  0  0  0  0  0  0  0  0  0  0  0
  149.9632  131.4953  157.5801 O   0  0  0  0  0  0  0  0  0  0  0  0
  152.3757  132.3253  157.6321 O   0  0  0  0  0  0  0  0  0  0  0  0
  150.6698  133.4355  156.0376 N   0  0  0  0  0  0  0  0  0  0  0  0
  150.4073  134.6773  156.7710 C   0  0  0  0  0  0  0  0  0  0  0  0
  149.9617  135.8193  155.8359 C   0  0  0  0  0  0  0  0  0  0  0  0
  151.0643  136.8530  155.5877 C   0  0  0  0  0  0  0  0  0  0  0  0
  152.2109  136.6402  155.9824 O   0  0  0  0  0  0  0  0  0  0  0  0
  150.6980  137.9733  154.9455 N   0  0  0  0  0  0  0  0  0  0  0  0
  151.5496  139.1356  154.7133 C   0  0  0  0  0  0  0  0  0  0  0  0
  151.5600  140.0907  155.8953 C   0  0  0  0  0  0  0  0  0  0  0  0
  150.8399  141.3009  155.8575 C   0  0  0  0  0  0  0  0  0  0  0  0
  150.8586  142.1419  156.9870 C   0  0  0  0  0  0  0  0  0  0  0  0
  151.5992  141.7504  158.1280 C   0  0  0  0  0  0  0  0  0  0  0  0
  151.6189  142.5678  159.2783 N   0  0  0  0  0  0  0  0  0  0  0  0
  151.3553  143.9865  159.0523 C   0  0  0  0  0  0  0  0  0  0  0  0
  151.1004  144.7025  160.3901 C   0  0  0  0  0  0  0  0  0  0  0  0
  152.1912  144.4741  161.2764 O   0  0  0  0  0  0  0  0  0  0  0  0
  152.3528  143.0909  161.5705 C   0  0  0  0  0  0  0  0  0  0  0  0
  152.6596  142.3214  160.2752 C   0  0  0  0  0  0  0  0  0  0  0  0
  152.2956  140.5877  158.1567 N   0  0  0  0  0  0  0  0  0  0  0  0
  152.2793  139.7895  157.0699 C   0  0  0  0  0  0  0  0  0  0  0  0
  151.8795  129.8888  155.9505 H   0  0  0  0  0  0  0  0  0  0  0  0
  152.3809  131.2438  154.9179 H   0  0  0  0  0  0  0  0  0  0  0  0
  150.6916  130.6836  154.8970 H   0  0  0  0  0  0  0  0  0  0  0  0
  151.1434  133.5598  155.1423 H   0  0  0  0  0  0  0  0  0  0  0  0
  149.6418  134.4843  157.5227 H   0  0  0  0  0  0  0  0  0  0  0  0
  151.3064  134.9761  157.3104 H   0  0  0  0  0  0  0  0  0  0  0  0
  149.6458  135.4096  154.8757 H   0  0  0  0  0  0  0  0  0  0  0  0
  149.0858  136.3147  156.2577 H   0  0  0  0  0  0  0  0  0  0  0  0
  149.7372  138.0499  154.6437 H   0  0  0  0  0  0  0  0  0  0  0  0
  152.5737  138.8341  154.4877 H   0  0  0  0  0  0  0  0  0  0  0  0
  151.1821  139.6527  153.8265 H   0  0  0  0  0  0  0  0  0  0  0  0
  150.2707  141.5794  154.9829 H   0  0  0  0  0  0  0  0  0  0  0  0
  150.2915  143.0607  156.9728 H   0  0  0  0  0  0  0  0  0  0  0  0
  152.2177  144.4286  158.5518 H   0  0  0  0  0  0  0  0  0  0  0  0
  150.4974  144.1387  158.3991 H   0  0  0  0  0  0  0  0  0  0  0  0
  150.9945  145.7751  160.2273 H   0  0  0  0  0  0  0  0  0  0  0  0
  150.1705  144.3567  160.8442 H   0  0  0  0  0  0  0  0  0  0  0  0
  153.1704  142.9713  162.2812 H   0  0  0  0  0  0  0  0  0  0  0  0
  151.4536  142.7019  162.0511 H   0  0  0  0  0  0  0  0  0  0  0  0
  152.7271  141.2553  160.4957 H   0  0  0  0  0  0  0  0  0  0  0  0
  153.6248  142.6343  159.8750 H   0  0  0  0  0  0  0  0  0  0  0  0
  152.8542  138.8793  157.1483 H   0  0  0  0  0  0  0  0  0  0  0  0
  1  2  1  0  0  0  0
  1 24  1  0  0  0  0
  1 25  1  0  0  0  0
  1 26  1  0  0  0  0
  2  3  2  0  0  0  0
  2  4  2  0  0  0  0
  2  5  1  0  0  0  0
  5  6  1  0  0  0  0
  5 27  1  0  0  0  0
  6  7  1  0  0  0  0
  6 28  1  0  0  0  0
  6 29  1  0  0  0  0
  7  8  1  0  0  0  0
  7 30  1  0  0  0  0
  7 31  1  0  0  0  0
  8  9  2  0  0  0  0
  8 10  1  0  0  0  0
 10 11  1  0  0  0  0
 10 32  1  0  0  0  0
 11 12  1  0  0  0  0
 11 33  1  0  0  0  0
 11 34  1  0  0  0  0
 12 23  1  0  0  0  0
 12 13  2  0  0  0  0
 13 14  1  0  0  0  0
 13 35  1  0  0  0  0
 14 15  2  0  0  0  0
 14 36  1  0  0  0  0
 15 16  1  0  0  0  0
 15 22  1  0  0  0  0
 16 21  1  0  0  0  0
 16 17  1  0  0  0  0
 17 18  1  0  0  0  0
 17 37  1  0  0  0  0
 17 38  1  0  0  0  0
 18 19  1  0  0  0  0
 18 39  1  0  0  0  0
 18 40  1  0  0  0  0
 19 20  1  0  0  0  0
 20 21  1  0  0  0  0
 20 41  1  0  0  0  0
 20 42  1  0  0  0  0
 21 43  1  0  0  0  0
 21 44  1  0  0  0  0
 22 23  2  0  0  0  0
 23 45  1  0  0  0  0
M  END
> <s_m_source_file>
AV-unprocessed.smi

> <i_m_source_file_index>
1845

> <i_lp_mmshare_version>
43012

> <i_f3d_flags>
0

> <s_epik_input>
W0NIM11TKD1PKSg9TylbTkhdW0NIMl1bQ0gyXUMoPU8pW05IXVtDSDJdYzFbY0hdW2NIXWMobltjSF0xKU4yW0NIMl1bQ0gyXU9bQ0gyXVtDSDJdMg==

> <s_epik_cmdline>
J2VwaWtfcHl0aG9uJywgJy1waCcsICc3LjAnLCAnLXRuJywgJzgnLCAnLW1hJywgJzIwMCcsICctbWV0YWxfYmluZGluZycsICctaW1hZScsICc8aW5maWxlLm1hZT4nLCAnLW9tYWUnLCAnPG91dGZpbGUubWFlPic=

> <r_lp_tautomer_probability>
1

> <r_epik_Ionization_Penalty>
0.00479915

> <r_epik_Ionization_Penalty_Charging>
0

> <r_epik_Ionization_Penalty_Neutral>
0.00479915

> <r_epik_State_Penalty>
0.00346804

> <r_epik_Charging_Adjusted_Penalty>
0.00346804

> <i_epik_Tot_Q>
0

> <i_epik_Tot_abs_Q>
0

> <r_epik_Metal_State_Penalty>
0.0135183

> <b_epik_Metal_Only>
0

> <s_lp_Force_Field>
OPLS_2005

> <r_lp_Energy>
4.60417

> <b_lp_Chiralities_Consistent>
1

> <s_lp_Variant>
AV-unprocessed.smi:1845-1

> <Gold.Version>
5.8.1

> <Gold.Id.Protein>
6NUR|6NUR_protein|mol2

> <Gold.PLP.Fitness>
43.8496

> <Gold.PLP.PLP>
-40.2310

> <Gold.PLP.part.hbond>
-2.0000

> <Gold.PLP.part.metal>
0.0000

> <Gold.PLP.part.buried>
-4.5175

> <Gold.PLP.part.nonpolar>
-33.7747

> <Gold.PLP.part.repulsive>
0.2557

> <Gold.PLP.ligand.clash>
0.0000

> <Gold.PLP.ligand.torsion>
1.4381

> <Gold.PLP.Chemscore.Hbond>
2.0000

> <Gold.PLP.Chemscore.CHOScore>
0.0000

> <Gold.PLP.Chemscore.Metal>
0.0000

> <Gold.Chemscore.Hbonds>
donor molecule, donor type, donor heavy atom, donor atom, acceptor molecule, acceptor atom, score
      P1  H  6896  6907       L1     4  0.96
      P1  H 10752 10763       L1     9  1.00

> <Gold.PLP.Chemscore.Internal.Correction>
0.4949

> <Gold.Rescore>
     Score         DG    S(hbond)    S(metal)    S(lipo)     H(rot)  DE(clash)    DE(int)     intcor
     13.89     -15.49       1.98        0.00      92.44       2.90       0.08       1.51       ----

> <Gold.Chemscore.Fitness>
13.8892

> <Gold.Chemscore.DG>
-15.4850

> <Gold.Chemscore.ZeroCoef>
-5.4800

> <Gold.Chemscore.Hbond>
1.9811

> <Gold.Chemscore.Metal>
0.0000

> <Gold.Chemscore.Lipo>
92.4442

> <Gold.Chemscore.Internal_Hbond>
0.0000

> <Gold.Chemscore.DEClash>
0.0818

> <Gold.Chemscore.DEInternal>
1.5140

> <Gold.Chemscore.Rot>
2.9015

> <Gold.Chemscore.Internal.Correction>
   9.000000E+99

> <Gold.Chemscore.Hbonds>
donor molecule, donor type, donor heavy atom, donor atom, acceptor molecule, acceptor atom, score
      P1  H  6896  6907       L1     4  0.75
      P1  H 10752 10763       L1     9  0.77

> <Gold.Chemscore.Hbond.Weighted>
-6.6169

> <Gold.Chemscore.Metal.Weighted>
-0.0000

> <Gold.Chemscore.Lipo.Weighted>
-10.8160

> <Gold.Chemscore.Internal_Hbond.Weighted>
0.0000

> <Gold.Chemscore.DEClash.Weighted>
0.0818

> <Gold.Chemscore.DEInternal.Weighted>
1.5140

> <Gold.Chemscore.Rot.Weighted>
7.4278

> <Gold.Chemscore.Internal.Correction.Weighted>
   9.000000E+99

> <Gold.Protein.RotatedTorsions>
[ 6907 6896 6895 6894 ] final  157.33 input  -60.11 | X-H torsion
[ 7974 7965 7964 7962 ] final  135.47 input  175.53 | X-H torsion
[ 8008 7997 7996 7995 ] final   10.96 input   59.86 | X-H torsion
[ 10167 10162 10161 10158 ] final -112.03 input  -65.29 | X-H torsion
[ 10718 10713 10712 10709 ] final   42.25 input   66.30 | X-H torsion
[ 10763 10752 10751 10750 ] final   78.45 input  -60.55 | X-H torsion
[ 11005 11000 10999 10996 ] final  122.66 input  -57.11 | X-H torsion

> <Gold.Protein.ActiveResidues>
 VAL166  LYS551  ARG553  GLY616  TRP617  ASP618  TYR619  PRO620  LYS621  CYS622 
 ASP623  PHE694  ASN695  SER759  ASP760  ASP761  ALA762  ILE779  LEU786  VAL792 
 PHE793  MET794  SER795  GLU796  ALA797  LYS798  CYS799  TRP800  GLU811  SER814 

> <Gold.Protein.RotatedAtoms>
  152.0167  133.3882  159.4241 H   0  0  0  0  0  0  0  0  0  0  0  0  # atno 6907 bound_to 6896
  150.6894  134.3671  159.4985 H   0  0  0  0  0  0  0  0  0  0  0  0  # atno 6908 bound_to 6896
  152.1439  134.9041  160.0603 H   0  0  0  0  0  0  0  0  0  0  0  0  # atno 6909 bound_to 6896
  144.9660  139.4658  143.5456 H   0  0  0  0  0  0  0  0  0  0  0  0  # atno 7974 bound_to 7965
  154.8005  140.2851  155.5925 H   0  0  0  0  0  0  0  0  0  0  0  0  # atno 8008 bound_to 7997
  156.2976  140.2587  156.2801 H   0  0  0  0  0  0  0  0  0  0  0  0  # atno 8009 bound_to 7997
  154.9564  140.0378  157.2158 H   0  0  0  0  0  0  0  0  0  0  0  0  # atno 8010 bound_to 7997
  140.1271  143.4392  152.1652 H   0  0  0  0  0  0  0  0  0  0  0  0  # atno 10167 bound_to 10162
  157.4027  130.7869  149.7362 H   0  0  0  0  0  0  0  0  0  0  0  0  # atno 10718 bound_to 10713
  153.0875  135.4876  154.8625 H   0  0  0  0  0  0  0  0  0  0  0  0  # atno 10763 bound_to 10752
  154.7229  135.3043  154.9021 H   0  0  0  0  0  0  0  0  0  0  0  0  # atno 10764 bound_to 10752
  153.9680  135.6804  153.4799 H   0  0  0  0  0  0  0  0  0  0  0  0  # atno 10765 bound_to 10752
  139.9278  134.9641  156.8142 H   0  0  0  0  0  0  0  0  0  0  0  0  # atno 11005 bound_to 11000
  146.3368  139.8841  142.8819 LP  0  0  0  0  0  0  0  0  0  0  0  0  # atno 17320 bound_to 7965
  145.2629  141.0083  143.3816 LP  0  0  0  0  0  0  0  0  0  0  0  0  # atno 17321 bound_to 7965
  139.5538  144.7358  151.4354 LP  0  0  0  0  0  0  0  0  0  0  0  0  # atno 17342 bound_to 10162
  140.6838  143.8020  150.7158 LP  0  0  0  0  0  0  0  0  0  0  0  0  # atno 17343 bound_to 10162
  155.9828  130.4006  150.3399 LP  0  0  0  0  0  0  0  0  0  0  0  0  # atno 17370 bound_to 10713
  157.1528  131.0325  151.2877 LP  0  0  0  0  0  0  0  0  0  0  0  0  # atno 17371 bound_to 10713
  140.6287  133.9926  155.7652 LP  0  0  0  0  0  0  0  0  0  0  0  0  # atno 17394 bound_to 11000
  141.0847  134.0009  157.3332 LP  0  0  0  0  0  0  0  0  0  0  0  0  # atno 17395 bound_to 11000

$$$$
