AV-unprocessed.smi:3029|AV-procd|sdf|11531|dock6
  -GOLD-   2272016473D 1   1.00000     0.00000
 Structure written by MMmdl.
 41 42  0  0  0  0  0  0  0  0  3 V2000
  147.0750  141.2765  154.4489 O   0  0  0  0  0  0  0  0  0  0  0  0
  148.1294  140.6635  154.6163 C   0  0  0  0  0  0  0  0  0  0  0  0
  149.2711  141.2583  155.3184 C   0  0  0  0  0  0  0  0  0  0  0  0
  150.4150  140.5742  155.5175 C   0  0  0  0  0  0  0  0  0  0  0  0
  150.5504  139.2121  155.0385 C   0  0  0  0  0  0  0  0  0  0  0  0
  151.7664  138.4621  155.2647 N   0  3  0  0  0  0  0  0  0  0  0  0
  152.6881  138.9924  155.8777 O   0  0  0  0  0  0  0  0  0  0  0  0
  151.8389  137.3154  154.8347 O   0  5  0  0  0  0  0  0  0  0  0  0
  149.5039  138.6714  154.3839 C   0  0  0  0  0  0  0  0  0  0  0  0
  148.3107  139.3860  154.1627 N   0  0  0  0  0  0  0  0  0  0  0  0
  147.2387  138.6876  153.4419 C   0  0  0  0  0  0  0  0  0  0  0  0
  146.9660  137.3080  154.0603 C   0  0  0  0  0  0  0  0  0  0  0  0
  146.5117  136.3911  153.0264 N   0  0  0  0  0  0  0  0  0  0  0  0
  145.8623  135.2111  153.5919 C   0  0  2  0  0  0  0  0  0  0  0  0
  146.7639  134.6433  154.7086 C   0  0  0  0  0  0  0  0  0  0  0  0
  148.0177  133.9379  154.1621 C   0  0  0  0  0  0  0  0  0  0  0  0
  147.6551  132.8643  153.1276 C   0  0  0  0  0  0  0  0  0  0  0  0
  146.8113  133.4532  151.9874 C   0  0  0  0  0  0  0  0  0  0  0  0
  145.5317  134.1349  152.5188 C   0  0  2  0  0  0  0  0  0  0  0  0
  144.5934  134.6087  151.3846 C   0  0  0  0  0  0  0  0  0  0  0  0
  144.2743  133.6136  150.5564 F   0  0  0  0  0  0  0  0  0  0  0  0
  143.4684  135.0929  151.9112 F   0  0  0  0  0  0  0  0  0  0  0  0
  145.1739  135.5872  150.6896 F   0  0  0  0  0  0  0  0  0  0  0  0
  149.1919  142.2719  155.6837 H   0  0  0  0  0  0  0  0  0  0  0  0
  151.2292  141.0557  156.0387 H   0  0  0  0  0  0  0  0  0  0  0  0
  149.5013  137.6635  153.9937 H   0  0  0  0  0  0  0  0  0  0  0  0
  146.3267  139.2879  153.4423 H   0  0  0  0  0  0  0  0  0  0  0  0
  147.5036  138.5760  152.3890 H   0  0  0  0  0  0  0  0  0  0  0  0
  147.8731  136.9165  154.5225 H   0  0  0  0  0  0  0  0  0  0  0  0
  146.2117  137.3917  154.8420 H   0  0  0  0  0  0  0  0  0  0  0  0
  147.3030  136.1050  152.4676 H   0  0  0  0  0  0  0  0  0  0  0  0
  144.9288  135.5177  154.0671 H   0  0  0  0  0  0  0  0  0  0  0  0
  147.0506  135.4310  155.4069 H   0  0  0  0  0  0  0  0  0  0  0  0
  146.1870  133.9244  155.2917 H   0  0  0  0  0  0  0  0  0  0  0  0
  148.6837  134.6717  153.7064 H   0  0  0  0  0  0  0  0  0  0  0  0
  148.5759  133.4875  154.9832 H   0  0  0  0  0  0  0  0  0  0  0  0
  148.5640  132.4176  152.7233 H   0  0  0  0  0  0  0  0  0  0  0  0
  147.1040  132.0581  153.6136 H   0  0  0  0  0  0  0  0  0  0  0  0
  147.4069  134.1712  151.4223 H   0  0  0  0  0  0  0  0  0  0  0  0
  146.5496  132.6576  151.2895 H   0  0  0  0  0  0  0  0  0  0  0  0
  144.9754  133.3587  153.0474 H   0  0  0  0  0  0  0  0  0  0  0  0
  1  2  2  0  0  0  0
  2 10  1  0  0  0  0
  2  3  1  0  0  0  0
  3  4  2  0  0  0  0
  3 24  1  0  0  0  0
  4  5  1  0  0  0  0
  4 25  1  0  0  0  0
  5  6  1  0  0  0  0
  5  9  2  0  0  0  0
  6  7  2  0  0  0  0
  6  8  1  0  0  0  0
  9 10  1  0  0  0  0
  9 26  1  0  0  0  0
 10 11  1  0  0  0  0
 11 12  1  0  0  0  0
 11 27  1  0  0  0  0
 11 28  1  0  0  0  0
 12 13  1  0  0  0  0
 12 29  1  0  0  0  0
 12 30  1  0  0  0  0
 13 14  1  0  0  0  0
 13 31  1  0  0  0  0
 14 19  1  0  0  0  0
 14 15  1  0  0  0  0
 14 32  1  0  0  0  0
 15 16  1  0  0  0  0
 15 33  1  0  0  0  0
 15 34  1  0  0  0  0
 16 17  1  0  0  0  0
 16 35  1  0  0  0  0
 16 36  1  0  0  0  0
 17 18  1  0  0  0  0
 17 37  1  0  0  0  0
 17 38  1  0  0  0  0
 18 19  1  0  0  0  0
 18 39  1  0  0  0  0
 18 40  1  0  0  0  0
 19 20  1  0  0  0  0
 19 41  1  0  0  0  0
 20 21  1  0  0  0  0
 20 22  1  0  0  0  0
 20 23  1  0  0  0  0
M  CHG  1   6   1
M  CHG  1   8  -1
M  END
> <s_m_source_file>
AV-unprocessed.smi

> <i_m_source_file_index>
3029

> <i_lp_mmshare_version>
43012

> <i_f3d_flags>
0

> <s_epik_input>
Tz1jMVtjSF1bY0hdYyhbTitdKD1PKVtPLV0pW2NIXW4xW0NIMl1bQ0gyXVtOSF1bQ0BASF0yW0NIMl1bQ0gyXVtDSDJdW0NIMl1bQ0BIXTJDKEYpKEYpRg==

> <s_epik_cmdline>
J2VwaWtfcHl0aG9uJywgJy1waCcsICc3LjAnLCAnLXRuJywgJzgnLCAnLW1hJywgJzIwMCcsICctbWV0YWxfYmluZGluZycsICctaW1hZScsICc8aW5maWxlLm1hZT4nLCAnLW9tYWUnLCAnPG91dGZpbGUubWFlPic=

> <r_lp_tautomer_probability>
1

> <r_epik_Ionization_Penalty>
1.65565

> <r_epik_Ionization_Penalty_Charging>
3.32684e-10

> <r_epik_Ionization_Penalty_Neutral>
1.65565

> <r_epik_State_Penalty>
1.75811

> <r_epik_Charging_Adjusted_Penalty>
1.75811

> <i_epik_Tot_Q>
0

> <i_epik_Tot_abs_Q>
2

> <r_epik_Metal_State_Penalty>
1.75811

> <b_epik_Metal_Only>
0

> <s_lp_Force_Field>
OPLS_2005

> <r_lp_Energy>
35.9342

> <b_lp_Chiralities_Consistent>
1

> <s_lp_Variant>
AV-unprocessed.smi:3029-7

> <Gold.Version>
5.8.1

> <Gold.Id.Protein>
6NUR|6NUR_protein|mol2

> <Gold.PLP.Fitness>
51.2918

> <Gold.PLP.PLP>
-40.3500

> <Gold.PLP.part.hbond>
-3.0000

> <Gold.PLP.part.metal>
0.0000

> <Gold.PLP.part.buried>
-0.6644

> <Gold.PLP.part.nonpolar>
-36.3127

> <Gold.PLP.part.repulsive>
0.2811

> <Gold.PLP.ligand.clash>
0.0047

> <Gold.PLP.ligand.torsion>
0.4246

> <Gold.PLP.Chemscore.Hbond>
2.8800

> <Gold.PLP.Chemscore.CHOScore>
1.0000

> <Gold.PLP.Chemscore.Metal>
0.0000

> <Gold.Chemscore.Hbonds>
donor molecule, donor type, donor heavy atom, donor atom, acceptor molecule, acceptor atom, score
      L1  H    13    31       P1  7948  1.00
      P1  H  7997  8010       L1     7  0.80
      P1  H 10752 10763       L1     8  0.74
      L1  C     9    26       P1  7948  0.83

> <Gold.PLP.Chemscore.Internal.Correction>
0.1557

> <Gold.Rescore>
     Score         DG    S(hbond)    S(metal)    S(lipo)     H(rot)  DE(clash)    DE(int)     intcor
     15.37     -17.39       2.72        0.00      64.76       1.86       0.18       1.84       ----

> <Gold.Chemscore.Fitness>
15.3747

> <Gold.Chemscore.DG>
-17.3913

> <Gold.Chemscore.ZeroCoef>
-5.4800

> <Gold.Chemscore.Hbond>
2.7221

> <Gold.Chemscore.Metal>
0.0000

> <Gold.Chemscore.Lipo>
64.7605

> <Gold.Chemscore.Internal_Hbond>
0.0000

> <Gold.Chemscore.DEClash>
0.1777

> <Gold.Chemscore.DEInternal>
1.8390

> <Gold.Chemscore.Rot>
1.8584

> <Gold.Chemscore.Internal.Correction>
   9.000000E+99

> <Gold.Chemscore.Hbonds>
donor molecule, donor type, donor heavy atom, donor atom, acceptor molecule, acceptor atom, score
      L1  H    13    31       P1  7948  0.99
      P1  H  7997  8010       L1     7  0.75
      P1  H 10752 10763       L1     8  0.73

> <Gold.Chemscore.Hbond.Weighted>
-9.0919

> <Gold.Chemscore.Metal.Weighted>
-0.0000

> <Gold.Chemscore.Lipo.Weighted>
-7.5770

> <Gold.Chemscore.Internal_Hbond.Weighted>
0.0000

> <Gold.Chemscore.DEClash.Weighted>
0.1777

> <Gold.Chemscore.DEInternal.Weighted>
1.8390

> <Gold.Chemscore.Rot.Weighted>
4.7576

> <Gold.Chemscore.Internal.Correction.Weighted>
   9.000000E+99

> <Gold.Protein.RotatedTorsions>
[ 6907 6896 6895 6894 ] final  -26.62 input  -60.11 | X-H torsion
[ 7974 7965 7964 7962 ] final  -19.86 input  175.53 | X-H torsion
[ 8008 7997 7996 7995 ] final  102.53 input   59.86 | X-H torsion
[ 10167 10162 10161 10158 ] final  -38.15 input  -65.29 | X-H torsion
[ 10718 10713 10712 10709 ] final -156.46 input   66.30 | X-H torsion
[ 10763 10752 10751 10750 ] final   36.06 input  -60.55 | X-H torsion
[ 11005 11000 10999 10996 ] final  -82.12 input  -57.11 | X-H torsion

> <Gold.Protein.ActiveResidues>
 VAL166  LYS551  ARG553  GLY616  TRP617  ASP618  TYR619  PRO620  LYS621  CYS622 
 ASP623  PHE694  ASN695  SER759  ASP760  ASP761  ALA762  ILE779  LEU786  VAL792 
 PHE793  MET794  SER795  GLU796  ALA797  LYS798  CYS799  TRP800  GLU811  SER814 

> <Gold.Protein.RotatedAtoms>
  151.1584  135.0261  159.8699 H   0  0  0  0  0  0  0  0  0  0  0  0  # atno 6907 bound_to 6896
  152.5452  134.1307  159.8448 H   0  0  0  0  0  0  0  0  0  0  0  0  # atno 6908 bound_to 6896
  151.1400  133.4932  159.2629 H   0  0  0  0  0  0  0  0  0  0  0  0  # atno 6909 bound_to 6896
  146.1819  140.4121  142.8491 H   0  0  0  0  0  0  0  0  0  0  0  0  # atno 7974 bound_to 7965
  156.1401  140.3180  155.8482 H   0  0  0  0  0  0  0  0  0  0  0  0  # atno 8008 bound_to 7997
  155.4170  140.0509  157.3045 H   0  0  0  0  0  0  0  0  0  0  0  0  # atno 8009 bound_to 7997
  154.4969  140.2114  155.9440 H   0  0  0  0  0  0  0  0  0  0  0  0  # atno 8010 bound_to 7997
  140.7100  143.3295  151.2601 H   0  0  0  0  0  0  0  0  0  0  0  0  # atno 10167 bound_to 10162
  156.5269  130.8503  151.2702 H   0  0  0  0  0  0  0  0  0  0  0  0  # atno 10718 bound_to 10713
  153.0093  135.6316  154.1925 H   0  0  0  0  0  0  0  0  0  0  0  0  # atno 10763 bound_to 10752
  154.1668  135.2820  155.3094 H   0  0  0  0  0  0  0  0  0  0  0  0  # atno 10764 bound_to 10752
  154.5939  135.5609  153.7366 H   0  0  0  0  0  0  0  0  0  0  0  0  # atno 10765 bound_to 10752
  141.1664  133.7229  156.8524 H   0  0  0  0  0  0  0  0  0  0  0  0  # atno 11005 bound_to 11000
  144.8329  140.6736  143.6279 LP  0  0  0  0  0  0  0  0  0  0  0  0  # atno 17320 bound_to 7965
  145.4052  139.1590  143.4156 LP  0  0  0  0  0  0  0  0  0  0  0  0  # atno 17321 bound_to 7965
  139.6774  143.9914  152.2789 LP  0  0  0  0  0  0  0  0  0  0  0  0  # atno 17342 bound_to 10162
  139.9533  144.6606  150.8151 LP  0  0  0  0  0  0  0  0  0  0  0  0  # atno 17343 bound_to 10162
  157.7428  130.9898  150.2544 LP  0  0  0  0  0  0  0  0  0  0  0  0  # atno 17370 bound_to 10713
  156.3097  130.3770  149.7673 LP  0  0  0  0  0  0  0  0  0  0  0  0  # atno 17371 bound_to 10713
  140.1906  134.8968  157.3056 LP  0  0  0  0  0  0  0  0  0  0  0  0  # atno 17394 bound_to 11000
  140.2294  134.3927  155.7528 LP  0  0  0  0  0  0  0  0  0  0  0  0  # atno 17395 bound_to 11000

$$$$
