AV-unprocessed.smi:534|AV-procd|sdf|2857|dock8
  -GOLD-   2262023353D 1   1.00000     0.00000
 Structure written by MMmdl.
 39 40  0  0  0  0  0  0  0  0  2 V2000
  144.7105  132.4417  151.1674 C   0  0  0  0  0  0  0  0  0  0  0  0
  145.6934  133.3061  150.6266 O   0  0  0  0  0  0  0  0  0  0  0  0
  146.4110  134.0077  151.6290 C   0  0  0  0  0  0  0  0  0  0  0  0
  147.2385  133.0067  152.4440 C   0  0  0  0  0  0  0  0  0  0  0  0
  148.2569  133.6772  153.2289 N   0  0  0  0  0  0  0  0  0  0  0  0
  149.1259  133.2148  154.2094 C   0  0  0  0  0  0  0  0  0  0  0  0
  149.1603  131.9591  154.6578 N   0  0  0  0  0  0  0  0  0  0  0  0
  150.1485  132.0125  155.6315 C   0  0  0  0  0  0  0  0  0  0  0  0
  150.6638  133.2669  155.7439 C   0  0  0  0  0  0  0  0  0  0  0  0
  151.7132  133.6447  156.7143 C   0  0  0  0  0  0  0  0  0  0  0  0
  152.1276  134.8004  156.7823 O   0  0  0  0  0  0  0  0  0  0  0  0
  152.1173  132.5800  157.4774 N   0  5  0  0  0  0  0  0  0  0  0  0
  151.6281  131.2935  157.3965 C   0  0  0  0  0  0  0  0  0  0  0  0
  152.0444  130.3929  158.1267 O   0  0  0  0  0  0  0  0  0  0  0  0
  150.6501  130.9919  156.4846 N   0  0  0  0  0  0  0  0  0  0  0  0
  150.1087  129.6339  156.3789 C   0  0  0  0  0  0  0  0  0  0  0  0
  150.0024  134.0610  154.8040 N   0  0  0  0  0  0  0  0  0  0  0  0
  150.1839  135.4846  154.5349 C   0  0  0  0  0  0  0  0  0  0  0  0
  150.0068  136.3332  155.8024 C   0  0  0  0  0  0  0  0  0  0  0  0
  150.8387  137.4804  155.7276 O   0  0  0  0  0  0  0  0  0  0  0  0
  150.6158  138.2412  154.5546 C   0  0  0  0  0  0  0  0  0  0  0  0
  144.2032  131.9141  150.3599 H   0  0  0  0  0  0  0  0  0  0  0  0
  143.9598  133.0020  151.7263 H   0  0  0  0  0  0  0  0  0  0  0  0
  145.1575  131.6981  151.8282 H   0  0  0  0  0  0  0  0  0  0  0  0
  147.0567  134.7692  151.1874 H   0  0  0  0  0  0  0  0  0  0  0  0
  145.7054  134.5197  152.2848 H   0  0  0  0  0  0  0  0  0  0  0  0
  146.5884  132.4564  153.1247 H   0  0  0  0  0  0  0  0  0  0  0  0
  147.7088  132.2736  151.7887 H   0  0  0  0  0  0  0  0  0  0  0  0
  148.2412  134.6821  153.1309 H   0  0  0  0  0  0  0  0  0  0  0  0
  150.9073  128.9145  156.1936 H   0  0  0  0  0  0  0  0  0  0  0  0
  149.3885  129.5310  155.5676 H   0  0  0  0  0  0  0  0  0  0  0  0
  149.6037  129.3534  157.3039 H   0  0  0  0  0  0  0  0  0  0  0  0
  151.1684  135.6457  154.0978 H   0  0  0  0  0  0  0  0  0  0  0  0
  149.4738  135.8022  153.7711 H   0  0  0  0  0  0  0  0  0  0  0  0
  148.9631  136.6337  155.9073 H   0  0  0  0  0  0  0  0  0  0  0  0
  150.2662  135.7432  156.6824 H   0  0  0  0  0  0  0  0  0  0  0  0
  151.2738  139.1099  154.5519 H   0  0  0  0  0  0  0  0  0  0  0  0
  149.5861  138.5973  154.5049 H   0  0  0  0  0  0  0  0  0  0  0  0
  150.8286  137.6555  153.6593 H   0  0  0  0  0  0  0  0  0  0  0  0
  1  2  1  0  0  0  0
  1 22  1  0  0  0  0
  1 23  1  0  0  0  0
  1 24  1  0  0  0  0
  2  3  1  0  0  0  0
  3  4  1  0  0  0  0
  3 25  1  0  0  0  0
  3 26  1  0  0  0  0
  4  5  1  0  0  0  0
  4 27  1  0  0  0  0
  4 28  1  0  0  0  0
  5  6  1  0  0  0  0
  5 29  1  0  0  0  0
  6 17  1  0  0  0  0
  6  7  2  0  0  0  0
  7  8  1  0  0  0  0
  8 15  1  0  0  0  0
  8  9  2  0  0  0  0
  9 10  1  0  0  0  0
  9 17  1  0  0  0  0
 10 11  2  0  0  0  0
 10 12  1  0  0  0  0
 12 13  1  0  0  0  0
 13 14  2  0  0  0  0
 13 15  1  0  0  0  0
 15 16  1  0  0  0  0
 16 30  1  0  0  0  0
 16 31  1  0  0  0  0
 16 32  1  0  0  0  0
 17 18  1  0  0  0  0
 18 19  1  0  0  0  0
 18 33  1  0  0  0  0
 18 34  1  0  0  0  0
 19 20  1  0  0  0  0
 19 35  1  0  0  0  0
 19 36  1  0  0  0  0
 20 21  1  0  0  0  0
 21 37  1  0  0  0  0
 21 38  1  0  0  0  0
 21 39  1  0  0  0  0
M  CHG  1  12  -1
M  END
> <s_m_source_file>
AV-unprocessed.smi

> <i_m_source_file_index>
534

> <i_lp_mmshare_version>
43012

> <i_f3d_flags>
0

> <s_epik_input>
W0NIM11PW0NIMl1bQ0gyXVtOSF1jKG4xKW4oW0NIMl1bQ0gyXU9bQ0gzXSljKGMxMiljKD1PKVtuSF1jKD1PKW4yW0NIM10=

> <s_epik_cmdline>
J2VwaWtfcHl0aG9uJywgJy1waCcsICc3LjAnLCAnLXRuJywgJzgnLCAnLW1hJywgJzIwMCcsICctbWV0YWxfYmluZGluZycsICctaW1hZScsICc8aW5maWxlLm1hZT4nLCAnLW9tYWUnLCAnPG91dGZpbGUubWFlPic=

> <r_lp_tautomer_probability>
1

> <r_epik_Ionization_Penalty>
5.88862

> <r_epik_Ionization_Penalty_Charging>
1.42184e-08

> <r_epik_Ionization_Penalty_Neutral>
5.88862

> <r_epik_State_Penalty>
5.88846

> <r_epik_Charging_Adjusted_Penalty>
5.88846

> <i_epik_Tot_Q>
-1

> <i_epik_Tot_abs_Q>
1

> <r_epik_Metal_State_Penalty>
1.85033

> <b_epik_Metal_Only>
1

> <s_lp_Force_Field>
OPLS_2005

> <r_lp_Energy>
24.5539

> <b_lp_Chiralities_Consistent>
1

> <s_lp_Variant>
AV-unprocessed.smi:534-2

> <Gold.Version>
5.8.1

> <Gold.Id.Protein>
6NUR|6NUR_protein|mol2

> <Gold.PLP.Fitness>
37.9305

> <Gold.PLP.PLP>
-27.0699

> <Gold.PLP.part.hbond>
-3.3191

> <Gold.PLP.part.metal>
0.0000

> <Gold.PLP.part.buried>
-1.1297

> <Gold.PLP.part.nonpolar>
-21.3839

> <Gold.PLP.part.repulsive>
0.2552

> <Gold.PLP.ligand.clash>
0.0000

> <Gold.PLP.ligand.torsion>
0.3272

> <Gold.PLP.Chemscore.Hbond>
3.8324

> <Gold.PLP.Chemscore.CHOScore>
0.0000

> <Gold.PLP.Chemscore.Metal>
0.0000

> <Gold.Chemscore.Hbonds>
donor molecule, donor type, donor heavy atom, donor atom, acceptor molecule, acceptor atom, score
      L1  H     5    29       P1  7948  0.66
      P1  H  6896  6907       L1    12  1.92
      P1  H 10752 10764       L1    11  0.92

> <Gold.PLP.Chemscore.Internal.Correction>
0.0176

> <Gold.Rescore>
     Score         DG    S(hbond)    S(metal)    S(lipo)     H(rot)  DE(clash)    DE(int)     intcor
      9.44      -9.87       1.62        0.00      43.81       2.40       0.12       0.31       ----

> <Gold.Chemscore.Fitness>
9.4400

> <Gold.Chemscore.DG>
-9.8666

> <Gold.Chemscore.ZeroCoef>
-5.4800

> <Gold.Chemscore.Hbond>
1.6195

> <Gold.Chemscore.Metal>
0.0000

> <Gold.Chemscore.Lipo>
43.8073

> <Gold.Chemscore.Internal_Hbond>
0.0000

> <Gold.Chemscore.DEClash>
0.1175

> <Gold.Chemscore.DEInternal>
0.3091

> <Gold.Chemscore.Rot>
2.4016

> <Gold.Chemscore.Internal.Correction>
   9.000000E+99

> <Gold.Chemscore.Hbonds>
donor molecule, donor type, donor heavy atom, donor atom, acceptor molecule, acceptor atom, score
      L1  H     5    29       P1  7948  0.45
      P1  H  6896  6907       L1    12  0.21
      P1  H 10752 10764       L1    11  0.76

> <Gold.Chemscore.Hbond.Weighted>
-5.4092

> <Gold.Chemscore.Metal.Weighted>
-0.0000

> <Gold.Chemscore.Lipo.Weighted>
-5.1255

> <Gold.Chemscore.Internal_Hbond.Weighted>
0.0000

> <Gold.Chemscore.DEClash.Weighted>
0.1175

> <Gold.Chemscore.DEInternal.Weighted>
0.3091

> <Gold.Chemscore.Rot.Weighted>
6.1481

> <Gold.Chemscore.Internal.Correction.Weighted>
   9.000000E+99

> <Gold.Protein.RotatedTorsions>
[ 6907 6896 6895 6894 ] final  165.47 input  -60.11 | X-H torsion
[ 7974 7965 7964 7962 ] final -100.29 input  175.53 | X-H torsion
[ 8008 7997 7996 7995 ] final -134.00 input   59.86 | X-H torsion
[ 10167 10162 10161 10158 ] final  174.88 input  -65.29 | X-H torsion
[ 10718 10713 10712 10709 ] final -101.86 input   66.30 | X-H torsion
[ 10763 10752 10751 10750 ] final   -8.87 input  -60.55 | X-H torsion
[ 11005 11000 10999 10996 ] final  170.28 input  -57.11 | X-H torsion

> <Gold.Protein.ActiveResidues>
 VAL166  LYS551  ARG553  GLY616  TRP617  ASP618  TYR619  PRO620  LYS621  CYS622 
 ASP623  PHE694  ASN695  SER759  ASP760  ASP761  ALA762  ILE779  LEU786  VAL792 
 PHE793  MET794  SER795  GLU796  ALA797  LYS798  CYS799  TRP800  GLU811  SER814 

> <Gold.Protein.RotatedAtoms>
  151.8939  133.3522  159.3807 H   0  0  0  0  0  0  0  0  0  0  0  0  # atno 6907 bound_to 6896
  150.7096  134.4896  159.5518 H   0  0  0  0  0  0  0  0  0  0  0  0  # atno 6908 bound_to 6896
  152.2471  134.8170  160.0502 H   0  0  0  0  0  0  0  0  0  0  0  0  # atno 6909 bound_to 6896
  145.2964  140.9366  143.2848 H   0  0  0  0  0  0  0  0  0  0  0  0  # atno 7974 bound_to 7965
  155.3547  140.0479  157.3046 H   0  0  0  0  0  0  0  0  0  0  0  0  # atno 8008 bound_to 7997
  154.5209  140.2224  155.8942 H   0  0  0  0  0  0  0  0  0  0  0  0  # atno 8009 bound_to 7997
  156.1688  140.3100  155.8942 H   0  0  0  0  0  0  0  0  0  0  0  0  # atno 8010 bound_to 7997
  139.5157  144.3096  152.0304 H   0  0  0  0  0  0  0  0  0  0  0  0  # atno 10167 bound_to 10162
  156.0209  130.5393  150.7024 H   0  0  0  0  0  0  0  0  0  0  0  0  # atno 10718 bound_to 10713
  153.4466  135.7014  153.6135 H   0  0  0  0  0  0  0  0  0  0  0  0  # atno 10763 bound_to 10752
  153.4488  135.3763  155.2271 H   0  0  0  0  0  0  0  0  0  0  0  0  # atno 10764 bound_to 10752
  154.8728  135.3992  154.3872 H   0  0  0  0  0  0  0  0  0  0  0  0  # atno 10765 bound_to 10752
  140.3066  134.7551  157.3958 H   0  0  0  0  0  0  0  0  0  0  0  0  # atno 11005 bound_to 11000
  144.9130  139.4505  143.6578 LP  0  0  0  0  0  0  0  0  0  0  0  0  # atno 17320 bound_to 7965
  146.3167  139.7948  142.8978 LP  0  0  0  0  0  0  0  0  0  0  0  0  # atno 17321 bound_to 7965
  140.2541  144.4138  150.6210 LP  0  0  0  0  0  0  0  0  0  0  0  0  # atno 17342 bound_to 10162
  140.6204  143.2176  151.6706 LP  0  0  0  0  0  0  0  0  0  0  0  0  # atno 17343 bound_to 10162
  157.4681  131.0890  151.0672 LP  0  0  0  0  0  0  0  0  0  0  0  0  # atno 17370 bound_to 10713
  157.1141  130.6034  149.5489 LP  0  0  0  0  0  0  0  0  0  0  0  0  # atno 17371 bound_to 10713
  140.1061  134.5407  155.8308 LP  0  0  0  0  0  0  0  0  0  0  0  0  # atno 17394 bound_to 11000
  141.2117  133.6710  156.6602 LP  0  0  0  0  0  0  0  0  0  0  0  0  # atno 17395 bound_to 11000

$$$$
