AV-unprocessed.smi:86|AV-procd|sdf|813|dock3
  -GOLD-   2262017213D 1   1.00000     0.00000
 Structure written by MMmdl.
 51 55  0  0  0  0  0  0  0  0  1 V2000
  145.2857  132.3316  148.8966 O   0  0  0  0  0  0  0  0  0  0  0  0
  146.1915  132.4726  149.9721 C   0  0  0  0  0  0  0  0  0  0  0  0
  145.5412  132.0743  151.3084 C   0  0  0  0  0  0  0  0  0  0  0  0
  144.3689  133.0198  151.6409 C   0  0  0  0  0  0  0  0  0  0  0  0
  144.7731  134.3997  151.8656 N   0  0  0  0  0  0  0  0  0  0  0  0
  145.2141  135.2939  150.9179 C   0  0  0  0  0  0  0  0  0  0  0  0
  145.5199  136.4777  151.3716 N   0  0  0  0  0  0  0  0  0  0  0  0
  145.2842  136.3982  152.7402 C   0  0  0  0  0  0  0  0  0  0  0  0
  145.4045  137.3075  153.8342 C   0  0  0  0  0  0  0  0  0  0  0  0
  145.8339  138.5923  153.7310 N   0  0  0  0  0  0  0  0  0  0  0  0
  145.8698  139.5152  154.8545 C   0  0  0  0  0  0  0  0  0  0  0  0
  146.4867  140.7900  154.2754 C   0  0  1  0  0  0  0  0  0  0  0  0
  147.0963  141.7744  155.2929 C   0  0  0  0  0  0  0  0  0  0  0  0
  148.4422  141.2970  155.8582 C   0  0  0  0  0  0  0  0  0  0  0  0
  149.4179  140.9509  154.7232 C   0  0  1  0  0  0  0  0  0  0  0  0
  150.6393  140.5072  155.2755 O   0  0  0  0  0  0  0  0  0  0  0  0
  148.8316  139.8479  153.8296 C   0  0  0  0  0  0  0  0  0  0  0  0
  147.4714  140.2554  153.2217 C   0  0  1  0  0  0  0  0  0  0  0  0
  146.7257  139.0343  152.6617 C   0  0  0  0  0  0  0  0  0  0  0  0
  145.0758  136.8395  155.0674 N   0  0  0  0  0  0  0  0  0  0  0  0
  144.6544  135.5827  155.2291 C   0  0  0  0  0  0  0  0  0  0  0  0
  144.4909  134.6342  154.3069 N   0  0  0  0  0  0  0  0  0  0  0  0
  144.8199  135.0900  153.0649 C   0  0  0  0  0  0  0  0  0  0  0  0
  145.2615  130.5738  151.4708 C   0  0  0  0  0  0  0  0  0  0  0  0
  146.4271  130.3864  152.3012 O   0  0  0  0  0  0  0  0  0  0  0  0
  146.5394  131.8176  152.4464 C   0  0  0  0  0  0  0  0  0  0  0  0
  145.3385  133.1043  148.3552 H   0  0  0  0  0  0  0  0  0  0  0  0
  147.0552  131.8407  149.7626 H   0  0  0  0  0  0  0  0  0  0  0  0
  146.5652  133.4962  149.9931 H   0  0  0  0  0  0  0  0  0  0  0  0
  143.6185  133.0007  150.8500 H   0  0  0  0  0  0  0  0  0  0  0  0
  143.8506  132.6803  152.5385 H   0  0  0  0  0  0  0  0  0  0  0  0
  145.3037  135.0426  149.8714 H   0  0  0  0  0  0  0  0  0  0  0  0
  144.8724  139.7053  155.2514 H   0  0  0  0  0  0  0  0  0  0  0  0
  146.4891  139.0984  155.6493 H   0  0  0  0  0  0  0  0  0  0  0  0
  145.6883  141.3138  153.7469 H   0  0  0  0  0  0  0  0  0  0  0  0
  147.2505  142.7344  154.7985 H   0  0  0  0  0  0  0  0  0  0  0  0
  146.3913  141.9613  156.1034 H   0  0  0  0  0  0  0  0  0  0  0  0
  148.8671  142.0737  156.4951 H   0  0  0  0  0  0  0  0  0  0  0  0
  148.2870  140.4260  156.4962 H   0  0  0  0  0  0  0  0  0  0  0  0
  149.6199  141.8409  154.1261 H   0  0  0  0  0  0  0  0  0  0  0  0
  150.5649  139.5846  155.4670 H   0  0  0  0  0  0  0  0  0  0  0  0
  149.5300  139.6019  153.0288 H   0  0  0  0  0  0  0  0  0  0  0  0
  148.7140  138.9375  154.4201 H   0  0  0  0  0  0  0  0  0  0  0  0
  147.6413  141.0007  152.4438 H   0  0  0  0  0  0  0  0  0  0  0  0
  147.4193  138.2544  152.3439 H   0  0  0  0  0  0  0  0  0  0  0  0
  146.1191  139.3173  151.8009 H   0  0  0  0  0  0  0  0  0  0  0  0
  144.4148  135.2960  156.2424 H   0  0  0  0  0  0  0  0  0  0  0  0
  144.3397  130.3498  152.0101 H   0  0  0  0  0  0  0  0  0  0  0  0
  145.3146  130.0063  150.5410 H   0  0  0  0  0  0  0  0  0  0  0  0
  147.5471  132.1833  152.2460 H   0  0  0  0  0  0  0  0  0  0  0  0
  146.1939  132.1462  153.4273 H   0  0  0  0  0  0  0  0  0  0  0  0
  1  2  1  0  0  0  0
  1 27  1  0  0  0  0
  2  3  1  0  0  0  0
  2 28  1  0  0  0  0
  2 29  1  0  0  0  0
  3 26  1  0  0  0  0
  3  4  1  0  0  0  0
  3 24  1  0  0  0  0
  4  5  1  0  0  0  0
  4 30  1  0  0  0  0
  4 31  1  0  0  0  0
  5 23  1  0  0  0  0
  5  6  1  0  0  0  0
  6  7  2  0  0  0  0
  6 32  1  0  0  0  0
  7  8  1  0  0  0  0
  8 23  2  0  0  0  0
  8  9  1  0  0  0  0
  9 10  1  0  0  0  0
  9 20  2  0  0  0  0
 10 19  1  0  0  0  0
 10 11  1  0  0  0  0
 11 12  1  0  0  0  0
 11 33  1  0  0  0  0
 11 34  1  0  0  0  0
 12 18  1  0  0  0  0
 12 13  1  0  0  0  0
 12 35  1  0  0  0  0
 13 14  1  0  0  0  0
 13 36  1  0  0  0  0
 13 37  1  0  0  0  0
 14 15  1  0  0  0  0
 14 38  1  0  0  0  0
 14 39  1  0  0  0  0
 15 16  1  0  0  0  0
 15 17  1  0  0  0  0
 15 40  1  0  0  0  0
 16 41  1  0  0  0  0
 17 18  1  0  0  0  0
 17 42  1  0  0  0  0
 17 43  1  0  0  0  0
 18 19  1  0  0  0  0
 18 44  1  0  0  0  0
 19 45  1  0  0  0  0
 19 46  1  0  0  0  0
 20 21  1  0  0  0  0
 21 22  2  0  0  0  0
 21 47  1  0  0  0  0
 22 23  1  0  0  0  0
 24 25  1  0  0  0  0
 24 48  1  0  0  0  0
 24 49  1  0  0  0  0
 25 26  1  0  0  0  0
 26 50  1  0  0  0  0
 26 51  1  0  0  0  0
M  END
> <s_m_source_file>
AV-unprocessed.smi

> <i_m_source_file_index>
86

> <i_lp_mmshare_version>
43012

> <i_f3d_flags>
0

> <s_epik_input>
W0NIMl0xT1tDSDJdQzEoW0NIMl1bT0hdKVtDSDJdbihbY0hdbjIpYyhjMjMpbltjSF1uYzNOKFtDSDJdNClbQ0gyXVtDQEBIXShbQ0BIXTQ1KVtDSDJdW0NASF0oW09IXSlbQ0gyXVtDSDJdNQ==

> <s_epik_cmdline>
J2VwaWtfcHl0aG9uJywgJy1waCcsICc3LjAnLCAnLXRuJywgJzgnLCAnLW1hJywgJzIwMCcsICctbWV0YWxfYmluZGluZycsICctaW1hZScsICc8aW5maWxlLm1hZT4nLCAnLW9tYWUnLCAnPG91dGZpbGUubWFlPic=

> <r_lp_tautomer_probability>
1

> <r_epik_Ionization_Penalty>
0.00425795

> <r_epik_Ionization_Penalty_Charging>
0

> <r_epik_Ionization_Penalty_Neutral>
0.00425795

> <r_epik_State_Penalty>
0.00299946

> <r_epik_Charging_Adjusted_Penalty>
0.00299946

> <i_epik_Tot_Q>
0

> <i_epik_Tot_abs_Q>
0

> <r_epik_Metal_State_Penalty>
-0

> <b_epik_Metal_Only>
0

> <s_lp_Force_Field>
OPLS_2005

> <r_lp_Energy>
54.7951

> <b_lp_Chiralities_Consistent>
1

> <s_lp_Variant>
AV-unprocessed.smi:86-2

> <Gold.Version>
5.8.1

> <Gold.Id.Protein>
6NUR|6NUR_protein|mol2

> <Gold.PLP.Fitness>
41.7845

> <Gold.PLP.PLP>
-34.1634

> <Gold.PLP.part.hbond>
-2.5959

> <Gold.PLP.part.metal>
0.0000

> <Gold.PLP.part.buried>
-0.3884

> <Gold.PLP.part.nonpolar>
-31.8768

> <Gold.PLP.part.repulsive>
0.7940

> <Gold.PLP.ligand.clash>
0.0000

> <Gold.PLP.ligand.torsion>
0.4691

> <Gold.PLP.Chemscore.Hbond>
1.7000

> <Gold.PLP.Chemscore.CHOScore>
1.0000

> <Gold.PLP.Chemscore.Metal>
0.0000

> <Gold.Chemscore.Hbonds>
donor molecule, donor type, donor heavy atom, donor atom, acceptor molecule, acceptor atom, score
      L1  H     1    27       P1  7921  0.80
      P1  H  7989  7998       L1    16  0.50
      L1  C     6    32       P1  7921  1.00

> <Gold.PLP.Chemscore.Internal.Correction>
0.4594

> <Gold.Rescore>
     Score         DG    S(hbond)    S(metal)    S(lipo)     H(rot)  DE(clash)    DE(int)     intcor
      9.97     -10.57       0.86        0.00      79.51       2.76       0.13       0.47       ----

> <Gold.Chemscore.Fitness>
9.9678

> <Gold.Chemscore.DG>
-10.5650

> <Gold.Chemscore.ZeroCoef>
-5.4800

> <Gold.Chemscore.Hbond>
0.8551

> <Gold.Chemscore.Metal>
0.0000

> <Gold.Chemscore.Lipo>
79.5077

> <Gold.Chemscore.Internal_Hbond>
0.0000

> <Gold.Chemscore.DEClash>
0.1274

> <Gold.Chemscore.DEInternal>
0.4698

> <Gold.Chemscore.Rot>
2.7630

> <Gold.Chemscore.Internal.Correction>
   9.000000E+99

> <Gold.Chemscore.Hbonds>
donor molecule, donor type, donor heavy atom, donor atom, acceptor molecule, acceptor atom, score
      L1  H     1    27       P1  7921  0.11
      P1  H  7989  7998       L1    16  0.02

> <Gold.Chemscore.Hbond.Weighted>
-2.8560

> <Gold.Chemscore.Metal.Weighted>
-0.0000

> <Gold.Chemscore.Lipo.Weighted>
-9.3024

> <Gold.Chemscore.Internal_Hbond.Weighted>
0.0000

> <Gold.Chemscore.DEClash.Weighted>
0.1274

> <Gold.Chemscore.DEInternal.Weighted>
0.4698

> <Gold.Chemscore.Rot.Weighted>
7.0734

> <Gold.Chemscore.Internal.Correction.Weighted>
   9.000000E+99

> <Gold.Protein.RotatedTorsions>
[ 6907 6896 6895 6894 ] final   17.40 input  -60.11 | X-H torsion
[ 7974 7965 7964 7962 ] final -159.07 input  175.53 | X-H torsion
[ 8008 7997 7996 7995 ] final  -37.49 input   59.86 | X-H torsion
[ 10167 10162 10161 10158 ] final -161.24 input  -65.29 | X-H torsion
[ 10718 10713 10712 10709 ] final  -12.73 input   66.30 | X-H torsion
[ 10763 10752 10751 10750 ] final -102.05 input  -60.55 | X-H torsion
[ 11005 11000 10999 10996 ] final   86.41 input  -57.11 | X-H torsion

> <Gold.Protein.ActiveResidues>
 VAL166  LYS551  ARG553  GLY616  TRP617  ASP618  TYR619  PRO620  LYS621  CYS622 
 ASP623  PHE694  ASN695  SER759  ASP760  ASP761  ALA762  ILE779  LEU786  VAL792 
 PHE793  MET794  SER795  GLU796  ALA797  LYS798  CYS799  TRP800  GLU811  SER814 

> <Gold.Protein.RotatedAtoms>
  151.8490  135.0564  160.0456 H   0  0  0  0  0  0  0  0  0  0  0  0  # atno 6907 bound_to 6896
  152.2751  133.5413  159.5471 H   0  0  0  0  0  0  0  0  0  0  0  0  # atno 6908 bound_to 6896
  150.7167  134.0560  159.3857 H   0  0  0  0  0  0  0  0  0  0  0  0  # atno 6909 bound_to 6896
  144.7480  140.3737  143.6070 H   0  0  0  0  0  0  0  0  0  0  0  0  # atno 7974 bound_to 7965
  154.4053  140.1603  156.2545 H   0  0  0  0  0  0  0  0  0  0  0  0  # atno 8008 bound_to 7997
  155.9090  140.3428  155.6062 H   0  0  0  0  0  0  0  0  0  0  0  0  # atno 8009 bound_to 7997
  155.7358  140.0786  157.2259 H   0  0  0  0  0  0  0  0  0  0  0  0  # atno 8010 bound_to 7997
  139.6479  144.0137  152.2141 H   0  0  0  0  0  0  0  0  0  0  0  0  # atno 10167 bound_to 10162
  156.6405  130.4926  149.6097 H   0  0  0  0  0  0  0  0  0  0  0  0  # atno 10718 bound_to 10713
  154.7704  135.4875  153.9638 H   0  0  0  0  0  0  0  0  0  0  0  0  # atno 10763 bound_to 10752
  153.1361  135.6763  153.9109 H   0  0  0  0  0  0  0  0  0  0  0  0  # atno 10764 bound_to 10752
  153.8798  135.3133  155.3423 H   0  0  0  0  0  0  0  0  0  0  0  0  # atno 10765 bound_to 10752
  139.8945  134.8353  156.2717 H   0  0  0  0  0  0  0  0  0  0  0  0  # atno 11005 bound_to 11000
  145.7051  139.1670  143.2571 LP  0  0  0  0  0  0  0  0  0  0  0  0  # atno 17320 bound_to 7965
  146.1388  140.7086  142.9377 LP  0  0  0  0  0  0  0  0  0  0  0  0  # atno 17321 bound_to 7965
  139.9844  144.6406  150.7871 LP  0  0  0  0  0  0  0  0  0  0  0  0  # atno 17342 bound_to 10162
  140.7524  143.2989  151.3132 LP  0  0  0  0  0  0  0  0  0  0  0  0  # atno 17343 bound_to 10162
  156.2163  130.6710  151.1322 LP  0  0  0  0  0  0  0  0  0  0  0  0  # atno 17370 bound_to 10713
  157.7172  131.0703  150.6279 LP  0  0  0  0  0  0  0  0  0  0  0  0  # atno 17371 bound_to 10713
  141.0096  133.7103  156.1091 LP  0  0  0  0  0  0  0  0  0  0  0  0  # atno 17394 bound_to 11000
  140.7385  134.4176  157.5557 LP  0  0  0  0  0  0  0  0  0  0  0  0  # atno 17395 bound_to 11000

$$$$
