AV-unprocessed.smi:99|AV-procd|sdf|893|dock7
  -GOLD-   2262017383D 1   1.00000     0.00000
 Structure written by MMmdl.
 52 55  0  0  0  0  0  0  0  0  2 V2000
  147.2468  136.0001  158.1146 O   0  0  0  0  0  0  0  0  0  0  0  0
  147.3792  135.0110  158.8386 C   0  0  0  0  0  0  0  0  0  0  0  0
  147.7019  133.7869  158.3765 O   0  0  0  0  0  0  0  0  0  0  0  0
  147.8593  133.5759  156.9831 C   0  0  0  0  0  0  0  0  0  0  0  0
  148.9806  132.5490  156.7476 C   0  0  2  0  0  0  0  0  0  0  0  0
  150.2249  133.1588  157.0932 O   0  0  0  0  0  0  0  0  0  0  0  0
  150.9486  133.5375  155.9528 C   0  0  1  0  0  0  0  0  0  0  0  0
  152.2465  132.7602  155.9049 N   0  0  0  0  0  0  0  0  0  0  0  0
  152.5232  131.8951  154.8591 C   0  0  0  0  0  0  0  0  0  0  0  0
  153.6840  131.2105  154.8022 C   0  0  0  0  0  0  0  0  0  0  0  0
  154.6718  131.3852  155.8626 C   0  0  0  0  0  0  0  0  0  0  0  0
  155.7219  130.7482  155.8088 O   0  0  0  0  0  0  0  0  0  0  0  0
  154.3831  132.2560  156.8722 N   0  5  0  0  0  0  0  0  0  0  0  0
  153.2130  132.9561  156.9288 C   0  0  0  0  0  0  0  0  0  0  0  0
  152.9528  133.7604  157.8239 O   0  0  0  0  0  0  0  0  0  0  0  0
  150.0967  133.2112  154.7190 C   0  0  2  0  0  0  0  0  0  0  0  0
  149.4075  134.3640  154.2728 O   0  0  0  0  0  0  0  0  0  0  0  0
  149.1721  132.1434  155.2849 C   0  0  2  0  0  0  0  0  0  0  0  0
  147.9669  131.9679  154.5486 O   0  0  0  0  0  0  0  0  0  0  0  0
  147.9492  131.2497  153.4058 C   0  0  0  0  0  0  0  0  0  0  0  0
  148.7074  130.3051  153.1782 O   0  0  0  0  0  0  0  0  0  0  0  0
  146.9114  131.7225  152.4450 C   0  0  0  0  0  0  0  0  0  0  0  0
  146.5520  133.0904  152.4296 C   0  0  0  0  0  0  0  0  0  0  0  0
  145.5771  133.5657  151.5311 C   0  0  0  0  0  0  0  0  0  0  0  0
  144.9499  132.6784  150.6371 C   0  0  0  0  0  0  0  0  0  0  0  0
  145.2975  131.3151  150.6437 C   0  0  0  0  0  0  0  0  0  0  0  0
  146.2719  130.8380  151.5415 C   0  0  0  0  0  0  0  0  0  0  0  0
  147.2018  135.0467  160.3193 C   0  0  0  0  0  0  0  0  0  0  0  0
  146.8984  136.2754  160.9514 C   0  0  0  0  0  0  0  0  0  0  0  0
  146.7273  136.3413  162.3479 C   0  0  0  0  0  0  0  0  0  0  0  0
  146.8556  135.1786  163.1296 C   0  0  0  0  0  0  0  0  0  0  0  0
  147.1558  133.9500  162.5131 C   0  0  0  0  0  0  0  0  0  0  0  0
  147.3287  133.8824  161.1166 C   0  0  0  0  0  0  0  0  0  0  0  0
  146.9153  133.2030  156.5839 H   0  0  0  0  0  0  0  0  0  0  0  0
  148.0815  134.5167  156.4785 H   0  0  0  0  0  0  0  0  0  0  0  0
  148.8046  131.6649  157.3612 H   0  0  0  0  0  0  0  0  0  0  0  0
  151.2327  134.5876  156.0405 H   0  0  0  0  0  0  0  0  0  0  0  0
  151.8073  131.7601  154.0625 H   0  0  0  0  0  0  0  0  0  0  0  0
  153.8841  130.5419  153.9780 H   0  0  0  0  0  0  0  0  0  0  0  0
  150.7089  132.8337  153.8989 H   0  0  0  0  0  0  0  0  0  0  0  0
  149.9173  135.1257  154.5014 H   0  0  0  0  0  0  0  0  0  0  0  0
  149.7196  131.1993  155.2962 H   0  0  0  0  0  0  0  0  0  0  0  0
  147.0206  133.7901  153.1066 H   0  0  0  0  0  0  0  0  0  0  0  0
  145.3114  134.6126  151.5282 H   0  0  0  0  0  0  0  0  0  0  0  0
  144.2027  133.0425  149.9474 H   0  0  0  0  0  0  0  0  0  0  0  0
  144.8163  130.6326  149.9588 H   0  0  0  0  0  0  0  0  0  0  0  0
  146.5145  129.7856  151.5204 H   0  0  0  0  0  0  0  0  0  0  0  0
  146.7950  137.1818  160.3721 H   0  0  0  0  0  0  0  0  0  0  0  0
  146.4977  137.2854  162.8196 H   0  0  0  0  0  0  0  0  0  0  0  0
  146.7238  135.2292  164.2005 H   0  0  0  0  0  0  0  0  0  0  0  0
  147.2539  133.0567  163.1121 H   0  0  0  0  0  0  0  0  0  0  0  0
  147.5583  132.9234  160.6755 H   0  0  0  0  0  0  0  0  0  0  0  0
  1  2  2  0  0  0  0
  2  3  1  0  0  0  0
  2 28  1  0  0  0  0
  3  4  1  0  0  0  0
  4  5  1  0  0  0  0
  4 34  1  0  0  0  0
  4 35  1  0  0  0  0
  5 18  1  0  0  0  0
  5  6  1  0  0  0  0
  5 36  1  0  0  0  0
  6  7  1  0  0  0  0
  7  8  1  0  0  0  0
  7 16  1  0  0  0  0
  7 37  1  0  0  0  0
  8 14  1  0  0  0  0
  8  9  1  0  0  0  0
  9 10  2  0  0  0  0
  9 38  1  0  0  0  0
 10 11  1  0  0  0  0
 10 39  1  0  0  0  0
 11 12  2  0  0  0  0
 11 13  1  0  0  0  0
 13 14  1  0  0  0  0
 14 15  2  0  0  0  0
 16 17  1  0  0  0  0
 16 18  1  0  0  0  0
 16 40  1  0  0  0  0
 17 41  1  0  0  0  0
 18 19  1  0  0  0  0
 18 42  1  0  0  0  0
 19 20  1  0  0  0  0
 20 21  2  0  0  0  0
 20 22  1  0  0  0  0
 22 27  1  0  0  0  0
 22 23  2  0  0  0  0
 23 24  1  0  0  0  0
 23 43  1  0  0  0  0
 24 25  2  0  0  0  0
 24 44  1  0  0  0  0
 25 26  1  0  0  0  0
 25 45  1  0  0  0  0
 26 27  2  0  0  0  0
 26 46  1  0  0  0  0
 27 47  1  0  0  0  0
 28 33  1  0  0  0  0
 28 29  2  0  0  0  0
 29 30  1  0  0  0  0
 29 48  1  0  0  0  0
 30 31  2  0  0  0  0
 30 49  1  0  0  0  0
 31 32  1  0  0  0  0
 31 50  1  0  0  0  0
 32 33  2  0  0  0  0
 32 51  1  0  0  0  0
 33 52  1  0  0  0  0
M  CHG  1  13  -1
M  END
> <s_m_source_file>
AV-unprocessed.smi

> <i_m_source_file_index>
99

> <i_lp_mmshare_version>
43012

> <i_f3d_flags>
0

> <s_epik_input>
W2NIXTFbY0hdW2NIXVtjSF1bY0hdYzFDKD1PKU9bQ0gyXVtDQEBIXTJPW0NAQEhdKG4zW2NIXVtjSF1jKD1PKVtuSF1jMz1PKVtDQEBIXShbT0hdKVtDQEhdMk9DKD1PKWM0W2NIXVtjSF1bY0hdW2NIXVtjSF00

> <s_epik_cmdline>
J2VwaWtfcHl0aG9uJywgJy1waCcsICc3LjAnLCAnLXRuJywgJzgnLCAnLW1hJywgJzIwMCcsICctbWV0YWxfYmluZGluZycsICctaW1hZScsICc8aW5maWxlLm1hZT4nLCAnLW9tYWUnLCAnPG91dGZpbGUubWFlPic=

> <r_lp_tautomer_probability>
1

> <r_epik_Ionization_Penalty>
2.89159

> <r_epik_Ionization_Penalty_Charging>
2.1077e-08

> <r_epik_Ionization_Penalty_Neutral>
2.89159

> <r_epik_State_Penalty>
2.88671

> <r_epik_Charging_Adjusted_Penalty>
2.88671

> <i_epik_Tot_Q>
-1

> <i_epik_Tot_abs_Q>
1

> <r_epik_Metal_State_Penalty>
0.0727308

> <b_epik_Metal_Only>
1

> <s_epik_Chemistry_Notes>
This compound has an ester and may undergo hydrolysis at high or low pH. This compound contains an acetal/aminal-like group ( X-CH(R)-Y where X, Y are N, S, or O) that may be acid/base labile, releasing an aldehyde.

> <s_lp_Force_Field>
OPLS_2005

> <r_lp_Energy>
46.9153

> <b_lp_Chiralities_Consistent>
1

> <s_lp_Variant>
AV-unprocessed.smi:99-29

> <Gold.Version>
5.8.1

> <Gold.Id.Protein>
6NUR|6NUR_protein|mol2

> <Gold.PLP.Fitness>
49.6831

> <Gold.PLP.PLP>
-49.0303

> <Gold.PLP.part.hbond>
-1.0000

> <Gold.PLP.part.metal>
0.0000

> <Gold.PLP.part.buried>
-6.8472

> <Gold.PLP.part.nonpolar>
-41.0612

> <Gold.PLP.part.repulsive>
0.1090

> <Gold.PLP.ligand.clash>
0.0000

> <Gold.PLP.ligand.torsion>
1.2338

> <Gold.PLP.Chemscore.Hbond>
1.0000

> <Gold.PLP.Chemscore.CHOScore>
0.0000

> <Gold.PLP.Chemscore.Metal>
0.0000

> <Gold.Chemscore.Hbonds>
donor molecule, donor type, donor heavy atom, donor atom, acceptor molecule, acceptor atom, score
      P1  H  6896  6908       L1    15  0.51

> <Gold.PLP.Chemscore.Internal.Correction>
0.1203

> <Gold.Rescore>
     Score         DG    S(hbond)    S(metal)    S(lipo)     H(rot)  DE(clash)    DE(int)     intcor
     12.36     -14.71       1.00        0.00     118.97       3.13       0.03       2.33       ----

> <Gold.Chemscore.Fitness>
12.3575

> <Gold.Chemscore.DG>
-14.7103

> <Gold.Chemscore.ZeroCoef>
-5.4800

> <Gold.Chemscore.Hbond>
0.9985

> <Gold.Chemscore.Metal>
0.0000

> <Gold.Chemscore.Lipo>
118.9730

> <Gold.Chemscore.Internal_Hbond>
0.0000

> <Gold.Chemscore.DEClash>
0.0271

> <Gold.Chemscore.DEInternal>
2.3257

> <Gold.Chemscore.Rot>
3.1346

> <Gold.Chemscore.Internal.Correction>
   9.000000E+99

> <Gold.Chemscore.Hbonds>
donor molecule, donor type, donor heavy atom, donor atom, acceptor molecule, acceptor atom, score
      P1  H  6896  6908       L1    15  0.50

> <Gold.Chemscore.Hbond.Weighted>
-3.3351

> <Gold.Chemscore.Metal.Weighted>
-0.0000

> <Gold.Chemscore.Lipo.Weighted>
-13.9198

> <Gold.Chemscore.Internal_Hbond.Weighted>
0.0000

> <Gold.Chemscore.DEClash.Weighted>
0.0271

> <Gold.Chemscore.DEInternal.Weighted>
2.3257

> <Gold.Chemscore.Rot.Weighted>
8.0246

> <Gold.Chemscore.Internal.Correction.Weighted>
   9.000000E+99

> <Gold.Protein.RotatedTorsions>
[ 6907 6896 6895 6894 ] final   26.52 input  -60.11 | X-H torsion
[ 7974 7965 7964 7962 ] final  -57.79 input  175.53 | X-H torsion
[ 8008 7997 7996 7995 ] final  177.82 input   59.86 | X-H torsion
[ 10167 10162 10161 10158 ] final -109.26 input  -65.29 | X-H torsion
[ 10718 10713 10712 10709 ] final  117.18 input   66.30 | X-H torsion
[ 10763 10752 10751 10750 ] final  165.69 input  -60.55 | X-H torsion
[ 11005 11000 10999 10996 ] final -160.64 input  -57.11 | X-H torsion

> <Gold.Protein.ActiveResidues>
 VAL166  LYS551  ARG553  GLY616  TRP617  ASP618  TYR619  PRO620  LYS621  CYS622 
 ASP623  PHE694  ASN695  SER759  ASP760  ASP761  ALA762  ILE779  LEU786  VAL792 
 PHE793  MET794  SER795  GLU796  ALA797  LYS798  CYS799  TRP800  GLU811  SER814 

> <Gold.Protein.RotatedAtoms>
  151.9887  134.9990  160.0560 H   0  0  0  0  0  0  0  0  0  0  0  0  # atno 6907 bound_to 6896
  152.1628  133.4588  159.4878 H   0  0  0  0  0  0  0  0  0  0  0  0  # atno 6908 bound_to 6896
  150.6890  134.1968  159.4349 H   0  0  0  0  0  0  0  0  0  0  0  0  # atno 6909 bound_to 6896
  145.8469  140.8379  143.0005 H   0  0  0  0  0  0  0  0  0  0  0  0  # atno 7974 bound_to 7965
  156.0614  140.1349  156.9936 H   0  0  0  0  0  0  0  0  0  0  0  0  # atno 8008 bound_to 7997
  154.4484  140.0990  156.6594 H   0  0  0  0  0  0  0  0  0  0  0  0  # atno 8009 bound_to 7997
  155.5371  140.3460  155.4441 H   0  0  0  0  0  0  0  0  0  0  0  0  # atno 8010 bound_to 7997
  140.1572  143.4150  152.1452 H   0  0  0  0  0  0  0  0  0  0  0  0  # atno 10167 bound_to 10162
  157.6113  131.1034  150.7578 H   0  0  0  0  0  0  0  0  0  0  0  0  # atno 10718 bound_to 10713
  154.3278  135.2755  155.2487 H   0  0  0  0  0  0  0  0  0  0  0  0  # atno 10763 bound_to 10752
  154.4812  135.5858  153.6394 H   0  0  0  0  0  0  0  0  0  0  0  0  # atno 10764 bound_to 10752
  152.9869  135.6112  154.3468 H   0  0  0  0  0  0  0  0  0  0  0  0  # atno 10765 bound_to 10752
  140.6293  134.4668  157.5228 H   0  0  0  0  0  0  0  0  0  0  0  0  # atno 11005 bound_to 11000
  144.6731  140.0895  143.7466 LP  0  0  0  0  0  0  0  0  0  0  0  0  # atno 17320 bound_to 7965
  145.9402  139.2663  143.1273 LP  0  0  0  0  0  0  0  0  0  0  0  0  # atno 17321 bound_to 7965
  139.5398  144.7245  151.4772 LP  0  0  0  0  0  0  0  0  0  0  0  0  # atno 17342 bound_to 10162
  140.6666  143.8386  150.6948 LP  0  0  0  0  0  0  0  0  0  0  0  0  # atno 17343 bound_to 10162
  156.7954  130.4904  149.5378 LP  0  0  0  0  0  0  0  0  0  0  0  0  # atno 17370 bound_to 10713
  156.1217  130.6115  151.0204 LP  0  0  0  0  0  0  0  0  0  0  0  0  # atno 17371 bound_to 10713
  139.9122  134.8320  156.1487 LP  0  0  0  0  0  0  0  0  0  0  0  0  # atno 17394 bound_to 11000
  141.0687  133.6807  156.2096 LP  0  0  0  0  0  0  0  0  0  0  0  0  # atno 17395 bound_to 11000

$$$$
