AV-unprocessed.smi:3273|AV-procd|sdf|12521|dock8
  -GOLD-   2272018433D 1   1.00000     0.00000
 Structure written by MMmdl.
 41 42  0  0  0  0  0  0  0  0  1 V2000
  147.3607  140.1576  153.4252 C   0  0  0  0  0  0  0  0  0  0  0  0
  147.7443  140.8489  154.7492 C   0  0  0  0  0  0  0  0  0  0  0  0
  147.0189  142.2056  154.8321 C   0  0  0  0  0  0  0  0  0  0  0  0
  149.2892  140.9700  154.9193 C   0  0  1  0  0  0  0  0  0  0  0  0
  149.7311  141.2518  156.3793 C   0  0  0  0  0  0  0  0  0  0  0  0
  150.2882  142.5919  156.5503 N   0  0  0  0  0  0  0  0  0  0  0  0
  151.5163  142.8692  157.0149 C   0  0  0  0  0  0  0  0  0  0  0  0
  152.3480  142.0053  157.2935 O   0  0  0  0  0  0  0  0  0  0  0  0
  151.8514  144.3473  157.2132 C   0  0  0  0  0  0  0  0  0  0  0  0
  152.3883  144.6216  158.6072 C   0  0  0  0  0  0  0  0  0  0  0  0
  152.6114  143.4955  159.5903 C   0  0  0  0  0  0  0  0  0  0  0  0
  151.5044  144.4928  159.8284 C   0  0  0  0  0  0  0  0  0  0  0  0
  150.0390  139.7907  154.3493 C   0  0  0  0  0  0  0  0  0  0  0  0
  150.7772  139.6735  153.2016 C   0  0  0  0  0  0  0  0  0  0  0  0
  151.1900  138.3142  153.1845 C   0  0  0  0  0  0  0  0  0  0  0  0
  150.7466  137.6384  154.2287 N   0  0  0  0  0  0  0  0  0  0  0  0
  150.0351  138.5380  154.9410 N   0  0  0  0  0  0  0  0  0  0  0  0
  149.3916  138.1082  156.1685 C   0  0  0  0  0  0  0  0  0  0  0  0
  147.7439  140.7105  152.5670 H   0  0  0  0  0  0  0  0  0  0  0  0
  146.2779  140.0907  153.3170 H   0  0  0  0  0  0  0  0  0  0  0  0
  147.7456  139.1405  153.3611 H   0  0  0  0  0  0  0  0  0  0  0  0
  147.3560  140.2300  155.5591 H   0  0  0  0  0  0  0  0  0  0  0  0
  147.4199  142.9155  154.1080 H   0  0  0  0  0  0  0  0  0  0  0  0
  147.0992  142.6505  155.8233 H   0  0  0  0  0  0  0  0  0  0  0  0
  145.9535  142.0934  154.6291 H   0  0  0  0  0  0  0  0  0  0  0  0
  149.5802  141.8499  154.3446 H   0  0  0  0  0  0  0  0  0  0  0  0
  148.8910  141.1011  157.0583 H   0  0  0  0  0  0  0  0  0  0  0  0
  150.4795  140.5306  156.7042 H   0  0  0  0  0  0  0  0  0  0  0  0
  149.6764  143.3678  156.3423 H   0  0  0  0  0  0  0  0  0  0  0  0
  152.5970  144.6359  156.4713 H   0  0  0  0  0  0  0  0  0  0  0  0
  150.9734  144.9711  157.0404 H   0  0  0  0  0  0  0  0  0  0  0  0
  153.1158  145.4308  158.6394 H   0  0  0  0  0  0  0  0  0  0  0  0
  152.3229  142.4907  159.2885 H   0  0  0  0  0  0  0  0  0  0  0  0
  153.4892  143.5558  160.2303 H   0  0  0  0  0  0  0  0  0  0  0  0
  151.6425  145.2217  160.6244 H   0  0  0  0  0  0  0  0  0  0  0  0
  150.4818  144.1502  159.6827 H   0  0  0  0  0  0  0  0  0  0  0  0
  150.9834  140.4444  152.4741 H   0  0  0  0  0  0  0  0  0  0  0  0
  151.7901  137.8015  152.4475 H   0  0  0  0  0  0  0  0  0  0  0  0
  148.3118  138.2249  156.0799 H   0  0  0  0  0  0  0  0  0  0  0  0
  149.7508  138.7102  157.0033 H   0  0  0  0  0  0  0  0  0  0  0  0
  149.6136  137.0601  156.3732 H   0  0  0  0  0  0  0  0  0  0  0  0
  1  2  1  0  0  0  0
  1 19  1  0  0  0  0
  1 20  1  0  0  0  0
  1 21  1  0  0  0  0
  2  3  1  0  0  0  0
  2  4  1  0  0  0  0
  2 22  1  0  0  0  0
  3 23  1  0  0  0  0
  3 24  1  0  0  0  0
  3 25  1  0  0  0  0
  4  5  1  0  0  0  0
  4 13  1  0  0  0  0
  4 26  1  0  0  0  0
  5  6  1  0  0  0  0
  5 27  1  0  0  0  0
  5 28  1  0  0  0  0
  6  7  1  0  0  0  0
  6 29  1  0  0  0  0
  7  8  2  0  0  0  0
  7  9  1  0  0  0  0
  9 10  1  0  0  0  0
  9 30  1  0  0  0  0
  9 31  1  0  0  0  0
 10 12  1  0  0  0  0
 10 11  1  0  0  0  0
 10 32  1  0  0  0  0
 11 12  1  0  0  0  0
 11 33  1  0  0  0  0
 11 34  1  0  0  0  0
 12 35  1  0  0  0  0
 12 36  1  0  0  0  0
 13 17  1  0  0  0  0
 13 14  2  0  0  0  0
 14 15  1  0  0  0  0
 14 37  1  0  0  0  0
 15 16  2  0  0  0  0
 15 38  1  0  0  0  0
 16 17  1  0  0  0  0
 17 18  1  0  0  0  0
 18 39  1  0  0  0  0
 18 40  1  0  0  0  0
 18 41  1  0  0  0  0
M  END
> <s_m_source_file>
AV-unprocessed.smi

> <i_m_source_file_index>
3273

> <i_lp_mmshare_version>
43012

> <i_f3d_flags>
0

> <s_epik_input>
W0NIM11uMW5bY0hdW2NIXWMxW0NASF0oW0NIXShbQ0gzXSlbQ0gzXSlbQ0gyXVtOSF1DKD1PKVtDSDJdW0NIXTJbQ0gyXVtDSDJdMg==

> <s_epik_cmdline>
J2VwaWtfcHl0aG9uJywgJy1waCcsICc3LjAnLCAnLXRuJywgJzgnLCAnLW1hJywgJzIwMCcsICctbWV0YWxfYmluZGluZycsICctaW1hZScsICc8aW5maWxlLm1hZT4nLCAnLW9tYWUnLCAnPG91dGZpbGUubWFlPic=

> <r_lp_tautomer_probability>
1

> <r_epik_Ionization_Penalty>
0.00116261

> <r_epik_Ionization_Penalty_Charging>
0

> <r_epik_Ionization_Penalty_Neutral>
0.00116261

> <r_epik_State_Penalty>
-0

> <r_epik_Charging_Adjusted_Penalty>
0

> <i_epik_Tot_Q>
0

> <i_epik_Tot_abs_Q>
0

> <r_epik_Metal_State_Penalty>
-0

> <b_epik_Metal_Only>
0

> <s_lp_Force_Field>
OPLS_2005

> <r_lp_Energy>
15.0656

> <b_lp_Chiralities_Consistent>
1

> <s_lp_Variant>
AV-unprocessed.smi:3273-2

> <Gold.Version>
5.8.1

> <Gold.Id.Protein>
6NUR|6NUR_protein|mol2

> <Gold.PLP.Fitness>
39.9924

> <Gold.PLP.PLP>
-37.2179

> <Gold.PLP.part.hbond>
-1.0000

> <Gold.PLP.part.metal>
0.0000

> <Gold.PLP.part.buried>
-3.0015

> <Gold.PLP.part.nonpolar>
-32.5431

> <Gold.PLP.part.repulsive>
0.1529

> <Gold.PLP.ligand.clash>
0.0000

> <Gold.PLP.ligand.torsion>
1.7388

> <Gold.PLP.Chemscore.Hbond>
1.0000

> <Gold.PLP.Chemscore.CHOScore>
0.8445

> <Gold.PLP.Chemscore.Metal>
0.0000

> <Gold.Chemscore.Hbonds>
donor molecule, donor type, donor heavy atom, donor atom, acceptor molecule, acceptor atom, score
      L1  H     6    29       P1  8028  1.00
      L1  C    15    38       P1  7949  0.88

> <Gold.PLP.Chemscore.Internal.Correction>
0.7187

> <Gold.Rescore>
     Score         DG    S(hbond)    S(metal)    S(lipo)     H(rot)  DE(clash)    DE(int)     intcor
     13.32     -16.33       1.00        0.00     100.13       1.64       0.13       2.88       ----

> <Gold.Chemscore.Fitness>
13.3212

> <Gold.Chemscore.DG>
-16.3291

> <Gold.Chemscore.ZeroCoef>
-5.4800

> <Gold.Chemscore.Hbond>
1.0000

> <Gold.Chemscore.Metal>
0.0000

> <Gold.Chemscore.Lipo>
100.1313

> <Gold.Chemscore.Internal_Hbond>
0.0000

> <Gold.Chemscore.DEClash>
0.1259

> <Gold.Chemscore.DEInternal>
2.8820

> <Gold.Chemscore.Rot>
1.6430

> <Gold.Chemscore.Internal.Correction>
   9.000000E+99

> <Gold.Chemscore.Hbonds>
donor molecule, donor type, donor heavy atom, donor atom, acceptor molecule, acceptor atom, score
      L1  H     6    29       P1  8028  1.00

> <Gold.Chemscore.Hbond.Weighted>
-3.3399

> <Gold.Chemscore.Metal.Weighted>
-0.0000

> <Gold.Chemscore.Lipo.Weighted>
-11.7154

> <Gold.Chemscore.Internal_Hbond.Weighted>
0.0000

> <Gold.Chemscore.DEClash.Weighted>
0.1259

> <Gold.Chemscore.DEInternal.Weighted>
2.8820

> <Gold.Chemscore.Rot.Weighted>
4.2062

> <Gold.Chemscore.Internal.Correction.Weighted>
   9.000000E+99

> <Gold.Protein.RotatedTorsions>
[ 6907 6896 6895 6894 ] final  -40.88 input  -60.11 | X-H torsion
[ 7974 7965 7964 7962 ] final -103.40 input  175.53 | X-H torsion
[ 8008 7997 7996 7995 ] final -156.86 input   59.86 | X-H torsion
[ 10167 10162 10161 10158 ] final  -29.41 input  -65.29 | X-H torsion
[ 10718 10713 10712 10709 ] final -171.10 input   66.30 | X-H torsion
[ 10763 10752 10751 10750 ] final   59.28 input  -60.55 | X-H torsion
[ 11005 11000 10999 10996 ] final  122.24 input  -57.11 | X-H torsion

> <Gold.Protein.ActiveResidues>
 VAL166  LYS551  ARG553  GLY616  TRP617  ASP618  TYR619  PRO620  LYS621  CYS622 
 ASP623  PHE694  ASN695  SER759  ASP760  ASP761  ALA762  ILE779  LEU786  VAL792 
 PHE793  MET794  SER795  GLU796  ALA797  LYS798  CYS799  TRP800  GLU811  SER814 

> <Gold.Protein.RotatedAtoms>
  150.9732  134.9101  159.7800 H   0  0  0  0  0  0  0  0  0  0  0  0  # atno 6907 bound_to 6896
  152.5197  134.3512  159.9261 H   0  0  0  0  0  0  0  0  0  0  0  0  # atno 6908 bound_to 6896
  151.3520  133.3881  159.2716 H   0  0  0  0  0  0  0  0  0  0  0  0  # atno 6909 bound_to 6896
  145.2564  140.9255  143.3066 H   0  0  0  0  0  0  0  0  0  0  0  0  # atno 7974 bound_to 7965
  155.7236  140.0793  157.2320 H   0  0  0  0  0  0  0  0  0  0  0  0  # atno 8008 bound_to 7997
  154.4042  140.1608  156.2484 H   0  0  0  0  0  0  0  0  0  0  0  0  # atno 8009 bound_to 7997
  155.9174  140.3400  155.6149 H   0  0  0  0  0  0  0  0  0  0  0  0  # atno 8010 bound_to 7997
  140.7261  143.3931  151.1395 H   0  0  0  0  0  0  0  0  0  0  0  0  # atno 10167 bound_to 10162
  156.7358  130.9324  151.3107 H   0  0  0  0  0  0  0  0  0  0  0  0  # atno 10718 bound_to 10713
  152.9891  135.5577  154.5689 H   0  0  0  0  0  0  0  0  0  0  0  0  # atno 10763 bound_to 10752
  154.5093  135.2801  155.1358 H   0  0  0  0  0  0  0  0  0  0  0  0  # atno 10764 bound_to 10752
  154.2756  135.6354  153.5380 H   0  0  0  0  0  0  0  0  0  0  0  0  # atno 10765 bound_to 10752
  139.9260  134.9641  156.8079 H   0  0  0  0  0  0  0  0  0  0  0  0  # atno 11005 bound_to 11000
  144.9457  139.4139  143.6427 LP  0  0  0  0  0  0  0  0  0  0  0  0  # atno 17320 bound_to 7965
  146.3288  139.8439  142.8885 LP  0  0  0  0  0  0  0  0  0  0  0  0  # atno 17321 bound_to 7965
  139.7539  143.8737  152.3084 LP  0  0  0  0  0  0  0  0  0  0  0  0  # atno 17342 bound_to 10162
  139.8600  144.7122  150.9111 LP  0  0  0  0  0  0  0  0  0  0  0  0  # atno 17343 bound_to 10162
  157.6839  130.9167  150.0337 LP  0  0  0  0  0  0  0  0  0  0  0  0  # atno 17370 bound_to 10713
  156.1498  130.3642  149.9456 LP  0  0  0  0  0  0  0  0  0  0  0  0  # atno 17371 bound_to 10713
  140.6336  133.9883  155.7673 LP  0  0  0  0  0  0  0  0  0  0  0  0  # atno 17394 bound_to 11000
  141.0817  134.0052  157.3375 LP  0  0  0  0  0  0  0  0  0  0  0  0  # atno 17395 bound_to 11000

$$$$
