AV-unprocessed.smi:2739|AV-procd|sdf|10550|dock7
  -GOLD-   2272015 03D 1   1.00000     0.00000
 Structure written by MMmdl.
 35 35  0  0  0  0  0  0  0  0  1 V2000
  152.6783  143.0910  162.5739 C   0  0  0  0  0  0  0  0  0  0  0  0
  152.1601  143.2689  161.1396 C   0  0  0  0  0  0  0  0  0  0  0  0
  152.4467  142.0640  160.2242 C   0  0  2  0  0  0  0  0  0  0  0  0
  153.9140  141.6172  160.3205 C   0  0  0  0  0  0  0  0  0  0  0  0
  152.1215  142.3917  158.8383 N   0  0  0  0  0  0  0  0  0  0  0  0
  151.3319  141.6675  158.0298 C   0  0  0  0  0  0  0  0  0  0  0  0
  150.7559  140.6383  158.3817 O   0  0  0  0  0  0  0  0  0  0  0  0
  151.1824  142.1737  156.5953 C   0  0  0  0  0  0  0  0  0  0  0  0
  150.5329  141.1763  155.7646 N   0  0  0  0  0  0  0  0  0  0  0  0
  149.3971  141.3115  154.9958 C   0  0  0  0  0  0  0  0  0  0  0  0
  149.1587  140.1020  154.4096 C   0  0  0  0  0  0  0  0  0  0  0  0
  150.2138  139.2710  154.8872 C   0  0  0  0  0  0  0  0  0  0  0  0
  150.4775  137.8198  154.5810 C   0  0  2  0  0  0  0  0  0  0  0  0
  150.4386  136.9610  155.8521 C   0  0  0  0  0  0  0  0  0  0  0  0
  151.7283  137.6276  153.9533 O   0  0  0  0  0  0  0  0  0  0  0  0
  151.0367  139.9248  155.6952 N   0  0  0  0  0  0  0  0  0  0  0  0
  152.4952  143.9888  163.1645 H   0  0  0  0  0  0  0  0  0  0  0  0
  153.7522  142.9021  162.5826 H   0  0  0  0  0  0  0  0  0  0  0  0
  152.1867  142.2592  163.0786 H   0  0  0  0  0  0  0  0  0  0  0  0
  151.0878  143.4678  161.1655 H   0  0  0  0  0  0  0  0  0  0  0  0
  152.6226  144.1597  160.7126 H   0  0  0  0  0  0  0  0  0  0  0  0
  151.8168  141.2368  160.5567 H   0  0  0  0  0  0  0  0  0  0  0  0
  154.1780  141.3551  161.3453 H   0  0  0  0  0  0  0  0  0  0  0  0
  154.5912  142.4072  159.9936 H   0  0  0  0  0  0  0  0  0  0  0  0
  154.1014  140.7403  159.6998 H   0  0  0  0  0  0  0  0  0  0  0  0
  152.5526  143.2205  158.4551 H   0  0  0  0  0  0  0  0  0  0  0  0
  150.5835  143.0853  156.5838 H   0  0  0  0  0  0  0  0  0  0  0  0
  152.1576  142.4241  156.1738 H   0  0  0  0  0  0  0  0  0  0  0  0
  148.8578  142.2453  154.9341 H   0  0  0  0  0  0  0  0  0  0  0  0
  148.3497  139.8469  153.7414 H   0  0  0  0  0  0  0  0  0  0  0  0
  149.7183  137.4516  153.8898 H   0  0  0  0  0  0  0  0  0  0  0  0
  149.4680  137.0315  156.3438 H   0  0  0  0  0  0  0  0  0  0  0  0
  151.1976  137.2785  156.5680 H   0  0  0  0  0  0  0  0  0  0  0  0
  150.6151  135.9098  155.6226 H   0  0  0  0  0  0  0  0  0  0  0  0
  151.5902  137.1331  153.1600 H   0  0  0  0  0  0  0  0  0  0  0  0
  1  2  1  0  0  0  0
  1 17  1  0  0  0  0
  1 18  1  0  0  0  0
  1 19  1  0  0  0  0
  2  3  1  0  0  0  0
  2 20  1  0  0  0  0
  2 21  1  0  0  0  0
  3  4  1  0  0  0  0
  3  5  1  0  0  0  0
  3 22  1  0  0  0  0
  4 23  1  0  0  0  0
  4 24  1  0  0  0  0
  4 25  1  0  0  0  0
  5  6  1  0  0  0  0
  5 26  1  0  0  0  0
  6  7  2  0  0  0  0
  6  8  1  0  0  0  0
  8  9  1  0  0  0  0
  8 27  1  0  0  0  0
  8 28  1  0  0  0  0
  9 16  1  0  0  0  0
  9 10  1  0  0  0  0
 10 11  2  0  0  0  0
 10 29  1  0  0  0  0
 11 12  1  0  0  0  0
 11 30  1  0  0  0  0
 12 13  1  0  0  0  0
 12 16  2  0  0  0  0
 13 14  1  0  0  0  0
 13 15  1  0  0  0  0
 13 31  1  0  0  0  0
 14 32  1  0  0  0  0
 14 33  1  0  0  0  0
 14 34  1  0  0  0  0
 15 35  1  0  0  0  0
M  END
> <s_m_source_file>
AV-unprocessed.smi

> <i_m_source_file_index>
2739

> <i_lp_mmshare_version>
43012

> <i_f3d_flags>
0

> <s_epik_input>
W0NIM11bQ0gyXVtDQEhdKFtDSDNdKVtOSF1DKD1PKVtDSDJdbjFbY0hdW2NIXWMobjEpW0NASF0oW0NIM10pW09IXQ==

> <s_epik_cmdline>
J2VwaWtfcHl0aG9uJywgJy1waCcsICc3LjAnLCAnLXRuJywgJzgnLCAnLW1hJywgJzIwMCcsICctbWV0YWxfYmluZGluZycsICctaW1hZScsICc8aW5maWxlLm1hZT4nLCAnLW9tYWUnLCAnPG91dGZpbGUubWFlPic=

> <r_lp_tautomer_probability>
1

> <r_epik_Ionization_Penalty>
5.22246e-06

> <r_epik_Ionization_Penalty_Charging>
0

> <r_epik_Ionization_Penalty_Neutral>
5.22246e-06

> <r_epik_State_Penalty>
-0

> <r_epik_Charging_Adjusted_Penalty>
0

> <i_epik_Tot_Q>
0

> <i_epik_Tot_abs_Q>
0

> <r_epik_Metal_State_Penalty>
-0

> <b_epik_Metal_Only>
0

> <s_lp_Force_Field>
OPLS_2005

> <r_lp_Energy>
0.862384

> <b_lp_Chiralities_Consistent>
1

> <s_lp_Variant>
AV-unprocessed.smi:2739-1

> <Gold.Version>
5.8.1

> <Gold.Id.Protein>
6NUR|6NUR_protein|mol2

> <Gold.PLP.Fitness>
41.8797

> <Gold.PLP.PLP>
-36.4071

> <Gold.PLP.part.hbond>
-1.0830

> <Gold.PLP.part.metal>
0.0000

> <Gold.PLP.part.buried>
-4.9476

> <Gold.PLP.part.nonpolar>
-29.5568

> <Gold.PLP.part.repulsive>
0.0880

> <Gold.PLP.ligand.clash>
0.0000

> <Gold.PLP.ligand.torsion>
0.2773

> <Gold.PLP.Chemscore.Hbond>
1.0000

> <Gold.PLP.Chemscore.CHOScore>
1.0000

> <Gold.PLP.Chemscore.Metal>
0.0000

> <Gold.Chemscore.Hbonds>
donor molecule, donor type, donor heavy atom, donor atom, acceptor molecule, acceptor atom, score
      L1  H    15    35       P1  7949  0.91
      L1  C    10    29       P1  8028  0.91

> <Gold.PLP.Chemscore.Internal.Correction>
0.0271

> <Gold.Rescore>
     Score         DG    S(hbond)    S(metal)    S(lipo)     H(rot)  DE(clash)    DE(int)     intcor
     10.65     -12.54       0.96        0.00      84.32       2.34       0.22       1.66       ----

> <Gold.Chemscore.Fitness>
10.6511

> <Gold.Chemscore.DG>
-12.5356

> <Gold.Chemscore.ZeroCoef>
-5.4800

> <Gold.Chemscore.Hbond>
0.9559

> <Gold.Chemscore.Metal>
0.0000

> <Gold.Chemscore.Lipo>
84.3209

> <Gold.Chemscore.Internal_Hbond>
0.0000

> <Gold.Chemscore.DEClash>
0.2235

> <Gold.Chemscore.DEInternal>
1.6610

> <Gold.Chemscore.Rot>
2.3448

> <Gold.Chemscore.Internal.Correction>
   9.000000E+99

> <Gold.Chemscore.Hbonds>
donor molecule, donor type, donor heavy atom, donor atom, acceptor molecule, acceptor atom, score
      L1  H    15    35       P1  7949  0.82

> <Gold.Chemscore.Hbond.Weighted>
-3.1928

> <Gold.Chemscore.Metal.Weighted>
-0.0000

> <Gold.Chemscore.Lipo.Weighted>
-9.8655

> <Gold.Chemscore.Internal_Hbond.Weighted>
0.0000

> <Gold.Chemscore.DEClash.Weighted>
0.2235

> <Gold.Chemscore.DEInternal.Weighted>
1.6610

> <Gold.Chemscore.Rot.Weighted>
6.0027

> <Gold.Chemscore.Internal.Correction.Weighted>
   9.000000E+99

> <Gold.Protein.RotatedTorsions>
[ 6907 6896 6895 6894 ] final  148.44 input  -60.11 | X-H torsion
[ 7974 7965 7964 7962 ] final  130.35 input  175.53 | X-H torsion
[ 8008 7997 7996 7995 ] final    0.26 input   59.86 | X-H torsion
[ 10167 10162 10161 10158 ] final   79.72 input  -65.29 | X-H torsion
[ 10718 10713 10712 10709 ] final  138.85 input   66.30 | X-H torsion
[ 10763 10752 10751 10750 ] final  -50.21 input  -60.55 | X-H torsion
[ 11005 11000 10999 10996 ] final   42.46 input  -57.11 | X-H torsion

> <Gold.Protein.ActiveResidues>
 VAL166  LYS551  ARG553  GLY616  TRP617  ASP618  TYR619  PRO620  LYS621  CYS622 
 ASP623  PHE694  ASN695  SER759  ASP760  ASP761  ALA762  ILE779  LEU786  VAL792 
 PHE793  MET794  SER795  GLU796  ALA797  LYS798  CYS799  TRP800  GLU811  SER814 

> <Gold.Protein.RotatedAtoms>
  152.1414  133.4466  159.4768 H   0  0  0  0  0  0  0  0  0  0  0  0  # atno 6907 bound_to 6896
  150.6886  134.2300  159.4440 H   0  0  0  0  0  0  0  0  0  0  0  0  # atno 6908 bound_to 6896
  152.0191  134.9832  160.0621 H   0  0  0  0  0  0  0  0  0  0  0  0  # atno 6909 bound_to 6896
  145.0189  139.4151  143.5207 H   0  0  0  0  0  0  0  0  0  0  0  0  # atno 7974 bound_to 7965
  154.6660  140.2601  155.7057 H   0  0  0  0  0  0  0  0  0  0  0  0  # atno 8008 bound_to 7997
  156.2639  140.2839  156.1073 H   0  0  0  0  0  0  0  0  0  0  0  0  # atno 8009 bound_to 7997
  155.1237  140.0377  157.2747 H   0  0  0  0  0  0  0  0  0  0  0  0  # atno 8010 bound_to 7997
  139.9574  144.5985  150.8104 H   0  0  0  0  0  0  0  0  0  0  0  0  # atno 10167 bound_to 10162
  157.4208  131.1038  151.0356 H   0  0  0  0  0  0  0  0  0  0  0  0  # atno 10718 bound_to 10713
  154.1067  135.6555  153.4877 H   0  0  0  0  0  0  0  0  0  0  0  0  # atno 10763 bound_to 10752
  153.0270  135.5238  154.7233 H   0  0  0  0  0  0  0  0  0  0  0  0  # atno 10764 bound_to 10752
  154.6401  135.2987  155.0083 H   0  0  0  0  0  0  0  0  0  0  0  0  # atno 10765 bound_to 10752
  140.1737  134.4190  155.8241 H   0  0  0  0  0  0  0  0  0  0  0  0  # atno 11005 bound_to 11000
  146.3482  139.9675  142.8710 LP  0  0  0  0  0  0  0  0  0  0  0  0  # atno 17320 bound_to 7965
  145.1923  140.9817  143.4204 LP  0  0  0  0  0  0  0  0  0  0  0  0  # atno 17321 bound_to 7965
  140.7564  143.3065  151.2949 LP  0  0  0  0  0  0  0  0  0  0  0  0  # atno 17342 bound_to 10162
  139.6581  144.0240  152.2673 LP  0  0  0  0  0  0  0  0  0  0  0  0  # atno 17343 bound_to 10162
  157.1287  130.6093  149.5524 LP  0  0  0  0  0  0  0  0  0  0  0  0  # atno 17370 bound_to 10713
  155.9880  130.4921  150.7150 LP  0  0  0  0  0  0  0  0  0  0  0  0  # atno 17371 bound_to 10713
  141.2219  133.6968  156.7809 LP  0  0  0  0  0  0  0  0  0  0  0  0  # atno 17394 bound_to 11000
  140.2347  134.8659  157.3513 LP  0  0  0  0  0  0  0  0  0  0  0  0  # atno 17395 bound_to 11000

$$$$
