AV-unprocessed.smi:1573|AV-procd|sdf|6333|dock7
  -GOLD-   22720 6543D 1   1.00000     0.00000
 Structure written by MMmdl.
 41 41  0  0  0  0  0  0  0  0  1 V2000
  152.2025  144.7854  159.1918 C   0  0  0  0  0  0  0  0  0  0  0  0
  151.8042  144.1914  157.8333 C   0  0  0  0  0  0  0  0  0  0  0  0
  150.4340  143.6936  157.8476 N   0  0  0  0  0  0  0  0  0  0  0  0
  150.0136  142.6187  158.5313 C   0  0  0  0  0  0  0  0  0  0  0  0
  150.7515  141.9508  159.2578 O   0  0  0  0  0  0  0  0  0  0  0  0
  148.5360  142.2342  158.3581 C   0  0  2  0  0  0  0  0  0  0  0  0
  148.3282  141.7224  156.9223 C   0  0  0  0  0  0  0  0  0  0  0  0
  147.7176  143.4301  158.5384 N   0  0  0  0  0  0  0  0  0  0  0  0
  146.8915  143.6497  159.5736 C   0  0  0  0  0  0  0  0  0  0  0  0
  146.6575  142.8125  160.4452 O   0  0  0  0  0  0  0  0  0  0  0  0
  146.2587  145.0381  159.6576 C   0  0  0  0  0  0  0  0  0  0  0  0
  144.7573  144.8961  159.6514 C   0  0  0  0  0  0  0  0  0  0  0  0
  143.9323  144.3944  160.7001 C   0  0  0  0  0  0  0  0  0  0  0  0
  144.3551  143.8826  162.0474 C   0  0  0  0  0  0  0  0  0  0  0  0
  142.6473  144.4163  160.3872 N   0  0  0  0  0  0  0  0  0  0  0  0
  142.6052  144.9324  159.1426 N   0  0  0  0  0  0  0  0  0  0  0  0
  141.3224  145.1057  158.4893 C   0  0  0  0  0  0  0  0  0  0  0  0
  143.8668  145.2276  158.6643 C   0  0  0  0  0  0  0  0  0  0  0  0
  144.0857  145.8111  157.3055 C   0  0  0  0  0  0  0  0  0  0  0  0
  153.2403  145.1184  159.1790 H   0  0  0  0  0  0  0  0  0  0  0  0
  152.0989  144.0493  159.9895 H   0  0  0  0  0  0  0  0  0  0  0  0
  151.5835  145.6455  159.4489 H   0  0  0  0  0  0  0  0  0  0  0  0
  151.9288  144.9324  157.0421 H   0  0  0  0  0  0  0  0  0  0  0  0
  152.4652  143.3600  157.5884 H   0  0  0  0  0  0  0  0  0  0  0  0
  149.7633  144.1828  157.2724 H   0  0  0  0  0  0  0  0  0  0  0  0
  148.2504  141.4567  159.0696 H   0  0  0  0  0  0  0  0  0  0  0  0
  148.9350  140.8372  156.7271 H   0  0  0  0  0  0  0  0  0  0  0  0
  148.5861  142.4748  156.1751 H   0  0  0  0  0  0  0  0  0  0  0  0
  147.2871  141.4430  156.7584 H   0  0  0  0  0  0  0  0  0  0  0  0
  147.8516  144.1767  157.8720 H   0  0  0  0  0  0  0  0  0  0  0  0
  146.6056  145.5552  160.5531 H   0  0  0  0  0  0  0  0  0  0  0  0
  146.6092  145.6302  158.8119 H   0  0  0  0  0  0  0  0  0  0  0  0
  144.9268  144.6375  162.5871 H   0  0  0  0  0  0  0  0  0  0  0  0
  144.9842  142.9982  161.9477 H   0  0  0  0  0  0  0  0  0  0  0  0
  143.4988  143.6115  162.6657 H   0  0  0  0  0  0  0  0  0  0  0  0
  141.1885  144.3297  157.7356 H   0  0  0  0  0  0  0  0  0  0  0  0
  141.2823  146.0826  158.0069 H   0  0  0  0  0  0  0  0  0  0  0  0
  140.5104  145.0416  159.2147 H   0  0  0  0  0  0  0  0  0  0  0  0
  145.1450  145.8383  157.0519 H   0  0  0  0  0  0  0  0  0  0  0  0
  143.7045  146.8310  157.2588 H   0  0  0  0  0  0  0  0  0  0  0  0
  143.5760  145.2229  156.5423 H   0  0  0  0  0  0  0  0  0  0  0  0
  1  2  1  0  0  0  0
  1 20  1  0  0  0  0
  1 21  1  0  0  0  0
  1 22  1  0  0  0  0
  2  3  1  0  0  0  0
  2 23  1  0  0  0  0
  2 24  1  0  0  0  0
  3  4  1  0  0  0  0
  3 25  1  0  0  0  0
  4  5  2  0  0  0  0
  4  6  1  0  0  0  0
  6  7  1  0  0  0  0
  6  8  1  0  0  0  0
  6 26  1  0  0  0  0
  7 27  1  0  0  0  0
  7 28  1  0  0  0  0
  7 29  1  0  0  0  0
  8  9  1  0  0  0  0
  8 30  1  0  0  0  0
  9 10  2  0  0  0  0
  9 11  1  0  0  0  0
 11 12  1  0  0  0  0
 11 31  1  0  0  0  0
 11 32  1  0  0  0  0
 12 18  2  0  0  0  0
 12 13  1  0  0  0  0
 13 14  1  0  0  0  0
 13 15  2  0  0  0  0
 14 33  1  0  0  0  0
 14 34  1  0  0  0  0
 14 35  1  0  0  0  0
 15 16  1  0  0  0  0
 16 17  1  0  0  0  0
 16 18  1  0  0  0  0
 17 36  1  0  0  0  0
 17 37  1  0  0  0  0
 17 38  1  0  0  0  0
 18 19  1  0  0  0  0
 19 39  1  0  0  0  0
 19 40  1  0  0  0  0
 19 41  1  0  0  0  0
M  END
> <s_m_source_file>
AV-unprocessed.smi

> <i_m_source_file_index>
1573

> <i_lp_mmshare_version>
43012

> <i_f3d_flags>
0

> <s_epik_input>
W0NIM11bQ0gyXVtOSF1DKD1PKVtDQEhdKFtDSDNdKVtOSF1DKD1PKVtDSDJdYzFjKFtDSDNdKW5uKFtDSDNdKWMxW0NIM10=

> <s_epik_cmdline>
J2VwaWtfcHl0aG9uJywgJy1waCcsICc3LjAnLCAnLXRuJywgJzgnLCAnLW1hJywgJzIwMCcsICctbWV0YWxfYmluZGluZycsICctaW1hZScsICc8aW5maWxlLm1hZT4nLCAnLW9tYWUnLCAnPG91dGZpbGUubWFlPic=

> <r_lp_tautomer_probability>
1

> <r_epik_Ionization_Penalty>
0.00278414

> <r_epik_Ionization_Penalty_Charging>
0

> <r_epik_Ionization_Penalty_Neutral>
0.00278414

> <r_epik_State_Penalty>
0.00194489

> <r_epik_Charging_Adjusted_Penalty>
0.00194489

> <i_epik_Tot_Q>
0

> <i_epik_Tot_abs_Q>
0

> <r_epik_Metal_State_Penalty>
-0

> <b_epik_Metal_Only>
0

> <s_lp_Force_Field>
OPLS_2005

> <r_lp_Energy>
-3.80626

> <b_lp_Chiralities_Consistent>
1

> <s_lp_Variant>
AV-unprocessed.smi:1573-1

> <Gold.Version>
5.8.1

> <Gold.Id.Protein>
6NUR|6NUR_protein|mol2

> <Gold.PLP.Fitness>
40.0801

> <Gold.PLP.PLP>
-29.8926

> <Gold.PLP.part.hbond>
-4.8078

> <Gold.PLP.part.metal>
0.0000

> <Gold.PLP.part.buried>
-3.3085

> <Gold.PLP.part.nonpolar>
-21.4984

> <Gold.PLP.part.repulsive>
0.2052

> <Gold.PLP.ligand.clash>
0.0000

> <Gold.PLP.ligand.torsion>
0.4491

> <Gold.PLP.Chemscore.Hbond>
3.6823

> <Gold.PLP.Chemscore.CHOScore>
0.0000

> <Gold.PLP.Chemscore.Metal>
0.0000

> <Gold.Chemscore.Hbonds>
donor molecule, donor type, donor heavy atom, donor atom, acceptor molecule, acceptor atom, score
      L1  H     3    25       P1  8028  1.00
      L1  H     8    30       P1  8029  0.70
      P1  H  6933  6944       L1    10  0.65
      P1  H  6934  6946       L1    10  1.00

> <Gold.PLP.Chemscore.Internal.Correction>
0.0387

> <Gold.Rescore>
     Score         DG    S(hbond)    S(metal)    S(lipo)     H(rot)  DE(clash)    DE(int)     intcor
     15.66     -16.15       2.45        0.00      63.00       1.91       0.10       0.39       ----

> <Gold.Chemscore.Fitness>
15.6580

> <Gold.Chemscore.DG>
-16.1464

> <Gold.Chemscore.ZeroCoef>
-5.4800

> <Gold.Chemscore.Hbond>
2.4505

> <Gold.Chemscore.Metal>
0.0000

> <Gold.Chemscore.Lipo>
63.0038

> <Gold.Chemscore.Internal_Hbond>
0.0000

> <Gold.Chemscore.DEClash>
0.0981

> <Gold.Chemscore.DEInternal>
0.3904

> <Gold.Chemscore.Rot>
1.9100

> <Gold.Chemscore.Internal.Correction>
   9.000000E+99

> <Gold.Chemscore.Hbonds>
donor molecule, donor type, donor heavy atom, donor atom, acceptor molecule, acceptor atom, score
      L1  H     3    25       P1  8028  0.50
      L1  H     8    30       P1  8029  0.07
      P1  H  6933  6944       L1    10  0.44
      P1  H  6934  6946       L1    10  0.92

> <Gold.Chemscore.Hbond.Weighted>
-8.1845

> <Gold.Chemscore.Metal.Weighted>
-0.0000

> <Gold.Chemscore.Lipo.Weighted>
-7.3714

> <Gold.Chemscore.Internal_Hbond.Weighted>
0.0000

> <Gold.Chemscore.DEClash.Weighted>
0.0981

> <Gold.Chemscore.DEInternal.Weighted>
0.3904

> <Gold.Chemscore.Rot.Weighted>
4.8896

> <Gold.Chemscore.Internal.Correction.Weighted>
   9.000000E+99

> <Gold.Protein.RotatedTorsions>
[ 6907 6896 6895 6894 ] final -175.23 input  -60.11 | X-H torsion
[ 7974 7965 7964 7962 ] final  -92.62 input  175.53 | X-H torsion
[ 8008 7997 7996 7995 ] final  162.49 input   59.86 | X-H torsion
[ 10167 10162 10161 10158 ] final -100.64 input  -65.29 | X-H torsion
[ 10718 10713 10712 10709 ] final  -22.85 input   66.30 | X-H torsion
[ 10763 10752 10751 10750 ] final  149.32 input  -60.55 | X-H torsion
[ 11005 11000 10999 10996 ] final -152.45 input  -57.11 | X-H torsion

> <Gold.Protein.ActiveResidues>
 VAL166  LYS551  ARG553  GLY616  TRP617  ASP618  TYR619  PRO620  LYS621  CYS622 
 ASP623  PHE694  ASN695  SER759  ASP760  ASP761  ALA762  ILE779  LEU786  VAL792 
 PHE793  MET794  SER795  GLU796  ALA797  LYS798  CYS799  TRP800  GLU811  SER814 

> <Gold.Protein.RotatedAtoms>
  151.5851  133.3373  159.3016 H   0  0  0  0  0  0  0  0  0  0  0  0  # atno 6907 bound_to 6896
  150.8291  134.7539  159.6850 H   0  0  0  0  0  0  0  0  0  0  0  0  # atno 6908 bound_to 6896
  152.4377  134.5660  159.9959 H   0  0  0  0  0  0  0  0  0  0  0  0  # atno 6909 bound_to 6896
  145.3973  140.9534  143.2306 H   0  0  0  0  0  0  0  0  0  0  0  0  # atno 7974 bound_to 7965
  156.2027  140.1749  156.7865 H   0  0  0  0  0  0  0  0  0  0  0  0  # atno 8008 bound_to 7997
  154.5613  140.0699  156.8854 H   0  0  0  0  0  0  0  0  0  0  0  0  # atno 8009 bound_to 7997
  155.2843  140.3351  155.4259 H   0  0  0  0  0  0  0  0  0  0  0  0  # atno 8010 bound_to 7997
  140.2498  143.3481  152.0726 H   0  0  0  0  0  0  0  0  0  0  0  0  # atno 10167 bound_to 10162
  156.4990  130.4583  149.6712 H   0  0  0  0  0  0  0  0  0  0  0  0  # atno 10718 bound_to 10713
  154.0693  135.2868  155.3311 H   0  0  0  0  0  0  0  0  0  0  0  0  # atno 10763 bound_to 10752
  154.6757  135.5282  153.8200 H   0  0  0  0  0  0  0  0  0  0  0  0  # atno 10764 bound_to 10752
  153.0492  135.6569  154.0875 H   0  0  0  0  0  0  0  0  0  0  0  0  # atno 10765 bound_to 10752
  140.7188  134.3750  157.5186 H   0  0  0  0  0  0  0  0  0  0  0  0  # atno 11005 bound_to 11000
  144.8398  139.5491  143.6905 LP  0  0  0  0  0  0  0  0  0  0  0  0  # atno 17320 bound_to 7965
  146.2769  139.6775  142.9257 LP  0  0  0  0  0  0  0  0  0  0  0  0  # atno 17321 bound_to 7965
  139.5050  144.6786  151.6065 LP  0  0  0  0  0  0  0  0  0  0  0  0  # atno 17342 bound_to 10162
  140.6050  143.9541  150.6412 LP  0  0  0  0  0  0  0  0  0  0  0  0  # atno 17343 bound_to 10162
  156.3351  130.7352  151.2288 LP  0  0  0  0  0  0  0  0  0  0  0  0  # atno 17370 bound_to 10713
  157.7465  131.0419  150.4668 LP  0  0  0  0  0  0  0  0  0  0  0  0  # atno 17371 bound_to 10713
  139.8853  134.8940  156.2650 LP  0  0  0  0  0  0  0  0  0  0  0  0  # atno 17394 bound_to 11000
  141.0021  133.7145  156.0977 LP  0  0  0  0  0  0  0  0  0  0  0  0  # atno 17395 bound_to 11000

$$$$
