AV-unprocessed.smi:511|AV-procd|sdf|2764|dock1
  -GOLD-   2262023233D 1   1.00000     0.00000
 Structure written by MMmdl.
 46 48  0  0  0  0  0  0  0  0  2 V2000
  150.9961  141.5467  156.0646 C   0  0  0  0  0  0  0  0  0  0  0  0
  150.7597  140.5450  155.0910 O   0  0  0  0  0  0  0  0  0  0  0  0
  149.9972  139.4642  155.5992 C   0  0  0  0  0  0  0  0  0  0  0  0
  149.4894  138.6220  154.4227 C   0  0  0  0  0  0  0  0  0  0  0  0
  148.8114  137.4138  154.8842 N   0  0  0  0  0  0  0  0  0  0  0  0
  147.4840  137.1159  154.8566 C   0  0  0  0  0  0  0  0  0  0  0  0
  146.5441  137.9761  154.2894 N   0  0  0  0  0  0  0  0  0  0  0  0
  145.5104  138.6939  155.0331 C   0  0  0  0  0  0  0  0  0  0  0  0
  145.8824  140.1762  155.2254 C   0  0  0  0  0  0  0  0  0  0  0  0
  146.1473  140.8337  153.9235 N   0  3  0  0  0  0  0  0  0  0  0  0
  146.5017  142.2616  154.0674 C   0  0  0  0  0  0  0  0  0  0  0  0
  147.1351  140.0789  153.1164 C   0  0  0  0  0  0  0  0  0  0  0  0
  146.7123  138.6058  152.9832 C   0  0  0  0  0  0  0  0  0  0  0  0
  147.1593  135.9555  155.4340 N   0  0  0  0  0  0  0  0  0  0  0  0
  148.3876  135.4573  155.8402 C   0  0  0  0  0  0  0  0  0  0  0  0
  149.3886  136.3157  155.5226 C   0  0  0  0  0  0  0  0  0  0  0  0
  150.7918  136.0477  155.8617 C   0  0  0  0  0  0  0  0  0  0  0  0
  151.7116  136.8187  155.5978 O   0  0  0  0  0  0  0  0  0  0  0  0
  150.9666  134.8635  156.4976 N   0  0  0  0  0  0  0  0  0  0  0  0
  150.0053  133.9514  156.8395 C   0  0  0  0  0  0  0  0  0  0  0  0
  150.3281  132.9122  157.4140 O   0  0  0  0  0  0  0  0  0  0  0  0
  148.7035  134.2474  156.5178 N   0  0  0  0  0  0  0  0  0  0  0  0
  147.6003  133.3410  156.8422 C   0  0  0  0  0  0  0  0  0  0  0  0
  151.9154  134.6272  156.7495 H   0  0  0  0  0  0  0  0  0  0  0  0
  151.5818  142.3541  155.6250 H   0  0  0  0  0  0  0  0  0  0  0  0
  151.5549  141.1490  156.9127 H   0  0  0  0  0  0  0  0  0  0  0  0
  150.0597  141.9708  156.4294 H   0  0  0  0  0  0  0  0  0  0  0  0
  150.6093  138.8550  156.2660 H   0  0  0  0  0  0  0  0  0  0  0  0
  149.1541  139.8429  156.1793 H   0  0  0  0  0  0  0  0  0  0  0  0
  148.8202  139.2243  153.8142 H   0  0  0  0  0  0  0  0  0  0  0  0
  150.3116  138.3418  153.7648 H   0  0  0  0  0  0  0  0  0  0  0  0
  144.5580  138.6017  154.5098 H   0  0  0  0  0  0  0  0  0  0  0  0
  145.3761  138.2423  156.0157 H   0  0  0  0  0  0  0  0  0  0  0  0
  145.0747  140.6964  155.7415 H   0  0  0  0  0  0  0  0  0  0  0  0
  146.7684  140.2542  155.8579 H   0  0  0  0  0  0  0  0  0  0  0  0
  147.4358  142.3809  154.6178 H   0  0  0  0  0  0  0  0  0  0  0  0
  145.7184  142.8007  154.6014 H   0  0  0  0  0  0  0  0  0  0  0  0
  146.6192  142.7285  153.0888 H   0  0  0  0  0  0  0  0  0  0  0  0
  147.2227  140.5299  152.1273 H   0  0  0  0  0  0  0  0  0  0  0  0
  148.1185  140.1434  153.5856 H   0  0  0  0  0  0  0  0  0  0  0  0
  147.4582  138.0559  152.4077 H   0  0  0  0  0  0  0  0  0  0  0  0
  145.7772  138.5291  152.4267 H   0  0  0  0  0  0  0  0  0  0  0  0
  147.8943  132.4824  157.4466 H   0  0  0  0  0  0  0  0  0  0  0  0
  147.1518  132.9600  155.9244 H   0  0  0  0  0  0  0  0  0  0  0  0
  146.8279  133.8752  157.3967 H   0  0  0  0  0  0  0  0  0  0  0  0
  145.2788  140.8018  153.4088 H   0  0  0  0  0  0  0  0  0  0  0  0
  1  2  1  0  0  0  0
  1 25  1  0  0  0  0
  1 26  1  0  0  0  0
  1 27  1  0  0  0  0
  2  3  1  0  0  0  0
  3  4  1  0  0  0  0
  3 28  1  0  0  0  0
  3 29  1  0  0  0  0
  4  5  1  0  0  0  0
  4 30  1  0  0  0  0
  4 31  1  0  0  0  0
  5 16  1  0  0  0  0
  5  6  1  0  0  0  0
  6  7  1  0  0  0  0
  6 14  2  0  0  0  0
  7 13  1  0  0  0  0
  7  8  1  0  0  0  0
  8  9  1  0  0  0  0
  8 32  1  0  0  0  0
  8 33  1  0  0  0  0
  9 10  1  0  0  0  0
  9 34  1  0  0  0  0
  9 35  1  0  0  0  0
 10 11  1  0  0  0  0
 10 12  1  0  0  0  0
 10 46  1  0  0  0  0
 11 36  1  0  0  0  0
 11 37  1  0  0  0  0
 11 38  1  0  0  0  0
 12 13  1  0  0  0  0
 12 39  1  0  0  0  0
 12 40  1  0  0  0  0
 13 41  1  0  0  0  0
 13 42  1  0  0  0  0
 14 15  1  0  0  0  0
 15 22  1  0  0  0  0
 15 16  2  0  0  0  0
 16 17  1  0  0  0  0
 17 18  2  0  0  0  0
 17 19  1  0  0  0  0
 19 24  1  0  0  0  0
 19 20  1  0  0  0  0
 20 21  2  0  0  0  0
 20 22  1  0  0  0  0
 22 23  1  0  0  0  0
 23 43  1  0  0  0  0
 23 44  1  0  0  0  0
 23 45  1  0  0  0  0
M  CHG  1  10   1
M  END
> <s_m_source_file>
AV-unprocessed.smi

> <i_m_source_file_index>
511

> <i_lp_mmshare_version>
43012

> <i_f3d_flags>
0

> <s_epik_input>
W0NIM11uMWMoPU8pW25IXWMoPU8pYyhjMTIpbihbQ0gyXVtDSDJdT1tDSDNdKWMobjIpTjNbQ0gyXVtDSDJdTihbQ0gzXSlbQ0gyXVtDSDJdMw==

> <s_epik_cmdline>
J2VwaWtfcHl0aG9uJywgJy1waCcsICc3LjAnLCAnLXRuJywgJzgnLCAnLW1hJywgJzIwMCcsICctbWV0YWxfYmluZGluZycsICctaW1hZScsICc8aW5maWxlLm1hZT4nLCAnLW9tYWUnLCAnPG91dGZpbGUubWFlPic=

> <r_epik_Ionization_Penalty>
0.064781

> <r_epik_Ionization_Penalty_Charging>
0.0647789

> <r_epik_Ionization_Penalty_Neutral>
2.1607e-06

> <r_epik_State_Penalty>
0.0564218

> <r_epik_Charging_Adjusted_Penalty>
0.121201

> <i_epik_Tot_Q>
1

> <i_epik_Tot_abs_Q>
1

> <r_epik_Metal_State_Penalty>
0.0833038

> <b_epik_Metal_Only>
0

> <s_lp_Force_Field>
OPLS_2005

> <r_lp_Energy>
49.4722

> <b_lp_Chiralities_Consistent>
1

> <s_lp_Variant>
AV-unprocessed.smi:511-1

> <Gold.Version>
5.8.1

> <Gold.Id.Protein>
6NUR|6NUR_protein|mol2

> <Gold.PLP.Fitness>
37.4300

> <Gold.PLP.PLP>
-24.1580

> <Gold.PLP.part.hbond>
-4.0000

> <Gold.PLP.part.metal>
0.0000

> <Gold.PLP.part.buried>
-4.3222

> <Gold.PLP.part.nonpolar>
-17.0616

> <Gold.PLP.part.repulsive>
0.3243

> <Gold.PLP.ligand.clash>
0.0000

> <Gold.PLP.ligand.torsion>
1.1734

> <Gold.PLP.Chemscore.Hbond>
4.9920

> <Gold.PLP.Chemscore.CHOScore>
0.0000

> <Gold.PLP.Chemscore.Metal>
0.0000

> <Gold.Chemscore.Hbonds>
donor molecule, donor type, donor heavy atom, donor atom, acceptor molecule, acceptor atom, score
      L1  H    10    46       P1 10175  2.00
      P1  H  6896  6909       L1    21  1.00
      P1  H  7989  7998       L1     2  0.99
      P1  H 10752 10764       L1    18  1.00

> <Gold.PLP.Chemscore.Internal.Correction>
0.6429

> <Gold.Rescore>
     Score         DG    S(hbond)    S(metal)    S(lipo)     H(rot)  DE(clash)    DE(int)     intcor
     13.81     -15.75       2.66        0.00      44.80       1.51       0.01       1.93       ----

> <Gold.Chemscore.Fitness>
13.8110

> <Gold.Chemscore.DG>
-15.7522

> <Gold.Chemscore.ZeroCoef>
-5.4800

> <Gold.Chemscore.Hbond>
2.6624

> <Gold.Chemscore.Metal>
0.0000

> <Gold.Chemscore.Lipo>
44.8006

> <Gold.Chemscore.Internal_Hbond>
0.0000

> <Gold.Chemscore.DEClash>
0.0126

> <Gold.Chemscore.DEInternal>
1.9286

> <Gold.Chemscore.Rot>
1.5086

> <Gold.Chemscore.Internal.Correction>
   9.000000E+99

> <Gold.Chemscore.Hbonds>
donor molecule, donor type, donor heavy atom, donor atom, acceptor molecule, acceptor atom, score
      L1  H    10    46       P1 10175  0.82
      P1  H  6896  6909       L1    21  0.47
      P1  H  7989  7998       L1     2  0.77
      P1  H 10752 10764       L1    18  0.25

> <Gold.Chemscore.Hbond.Weighted>
-8.8926

> <Gold.Chemscore.Metal.Weighted>
-0.0000

> <Gold.Chemscore.Lipo.Weighted>
-5.2417

> <Gold.Chemscore.Internal_Hbond.Weighted>
0.0000

> <Gold.Chemscore.DEClash.Weighted>
0.0126

> <Gold.Chemscore.DEInternal.Weighted>
1.9286

> <Gold.Chemscore.Rot.Weighted>
3.8620

> <Gold.Chemscore.Internal.Correction.Weighted>
   9.000000E+99

> <Gold.Protein.RotatedTorsions>
[ 6907 6896 6895 6894 ] final  -22.61 input  -60.11 | X-H torsion
[ 7974 7965 7964 7962 ] final  126.90 input  175.53 | X-H torsion
[ 8008 7997 7996 7995 ] final   94.95 input   59.86 | X-H torsion
[ 10167 10162 10161 10158 ] final  167.40 input  -65.29 | X-H torsion
[ 10718 10713 10712 10709 ] final  -19.83 input   66.30 | X-H torsion
[ 10763 10752 10751 10750 ] final  -40.45 input  -60.55 | X-H torsion
[ 11005 11000 10999 10996 ] final  -13.20 input  -57.11 | X-H torsion

> <Gold.Protein.ActiveResidues>
 VAL166  LYS551  ARG553  GLY616  TRP617  ASP618  TYR619  PRO620  LYS621  CYS622 
 ASP623  PHE694  ASN695  SER759  ASP760  ASP761  ALA762  ILE779  LEU786  VAL792 
 PHE793  MET794  SER795  GLU796  ALA797  LYS798  CYS799  TRP800  GLU811  SER814 

> <Gold.Protein.RotatedAtoms>
  151.2161  135.0500  159.8930 H   0  0  0  0  0  0  0  0  0  0  0  0  # atno 6907 bound_to 6896
  152.5420  134.0691  159.8196 H   0  0  0  0  0  0  0  0  0  0  0  0  # atno 6908 bound_to 6896
  151.0851  133.5311  159.2650 H   0  0  0  0  0  0  0  0  0  0  0  0  # atno 6909 bound_to 6896
  145.0566  139.3839  143.5027 H   0  0  0  0  0  0  0  0  0  0  0  0  # atno 7974 bound_to 7965
  156.0635  140.3293  155.7490 H   0  0  0  0  0  0  0  0  0  0  0  0  # atno 8008 bound_to 7997
  155.5417  140.0602  157.2886 H   0  0  0  0  0  0  0  0  0  0  0  0  # atno 8009 bound_to 7997
  154.4493  140.1909  156.0586 H   0  0  0  0  0  0  0  0  0  0  0  0  # atno 8010 bound_to 7997
  139.4944  144.3925  151.9501 H   0  0  0  0  0  0  0  0  0  0  0  0  # atno 10167 bound_to 10162
  156.5402  130.4676  149.6502 H   0  0  0  0  0  0  0  0  0  0  0  0  # atno 10718 bound_to 10713
  153.9462  135.6756  153.4744 H   0  0  0  0  0  0  0  0  0  0  0  0  # atno 10763 bound_to 10752
  153.0907  135.4876  154.8681 H   0  0  0  0  0  0  0  0  0  0  0  0  # atno 10764 bound_to 10752
  154.7350  135.3147  154.8785 H   0  0  0  0  0  0  0  0  0  0  0  0  # atno 10765 bound_to 10752
  140.7736  133.8418  155.9229 H   0  0  0  0  0  0  0  0  0  0  0  0  # atno 11005 bound_to 11000
  146.3522  140.0243  142.8656 LP  0  0  0  0  0  0  0  0  0  0  0  0  # atno 17320 bound_to 7965
  145.1461  140.9598  143.4460 LP  0  0  0  0  0  0  0  0  0  0  0  0  # atno 17321 bound_to 7965
  140.3363  144.3257  150.5976 LP  0  0  0  0  0  0  0  0  0  0  0  0  # atno 17342 bound_to 10162
  140.5603  143.2193  151.7776 LP  0  0  0  0  0  0  0  0  0  0  0  0  # atno 17343 bound_to 10162
  156.2978  130.7160  151.2025 LP  0  0  0  0  0  0  0  0  0  0  0  0  # atno 17370 bound_to 10713
  157.7406  131.0514  150.5151 LP  0  0  0  0  0  0  0  0  0  0  0  0  # atno 17371 bound_to 10713
  140.9550  134.1730  157.4699 LP  0  0  0  0  0  0  0  0  0  0  0  0  # atno 17394 bound_to 11000
  139.8752  134.9923  156.5592 LP  0  0  0  0  0  0  0  0  0  0  0  0  # atno 17395 bound_to 11000

$$$$
