AV-unprocessed.smi:525|AV-procd|sdf|2809|dock2
  -GOLD-   2262023283D 1   1.00000     0.00000
 Structure written by MMmdl.
 44 46  0  0  0  0  0  0  0  0  2 V2000
  153.6746  137.6724  156.8061 C   0  0  0  0  0  0  0  0  0  0  0  0
  153.5283  138.6548  155.7956 O   0  0  0  0  0  0  0  0  0  0  0  0
  152.1769  139.0302  155.5956 C   0  0  0  0  0  0  0  0  0  0  0  0
  151.6060  139.5426  156.9234 C   0  0  0  0  0  0  0  0  0  0  0  0
  151.2739  140.9714  156.8596 N   0  0  0  0  0  0  0  0  0  0  0  0
  150.5404  141.6688  155.9480 C   0  0  0  0  0  0  0  0  0  0  0  0
  149.7538  140.9988  154.5157 S   0  0  0  0  0  0  0  0  0  0  0  0
  148.1248  140.3819  155.0557 C   0  0  2  0  0  0  0  0  0  0  0  0
  147.6288  139.1730  154.2512 C   0  0  0  0  0  0  0  0  0  0  0  0
  148.3697  138.7570  153.2194 N   0  0  0  0  0  0  0  0  0  0  0  0
  146.5733  138.6223  154.5565 O   0  0  0  0  0  0  0  0  0  0  0  0
  147.0834  141.4981  155.0363 C   0  0  0  0  0  0  0  0  0  0  0  0
  146.4106  141.8955  156.2151 C   0  0  0  0  0  0  0  0  0  0  0  0
  145.4438  142.9183  156.1727 C   0  0  0  0  0  0  0  0  0  0  0  0
  145.1426  143.5536  154.9533 C   0  0  0  0  0  0  0  0  0  0  0  0
  145.8110  143.1670  153.7762 C   0  0  0  0  0  0  0  0  0  0  0  0
  146.7775  142.1438  153.8180 C   0  0  0  0  0  0  0  0  0  0  0  0
  150.5333  142.9739  156.3378 N   0  3  0  0  0  0  0  0  0  0  0  0
  151.2805  143.1165  157.5074 C   0  0  0  0  0  0  0  0  0  0  0  0
  151.5681  144.2419  158.2732 C   0  0  0  0  0  0  0  0  0  0  0  0
  152.3710  144.0413  159.4153 C   0  0  0  0  0  0  0  0  0  0  0  0
  152.8550  142.7618  159.7577 C   0  0  0  0  0  0  0  0  0  0  0  0
  152.5562  141.6276  158.9740 C   0  0  0  0  0  0  0  0  0  0  0  0
  151.7609  141.8343  157.8474 C   0  0  0  0  0  0  0  0  0  0  0  0
  154.7287  137.4222  156.9242 H   0  0  0  0  0  0  0  0  0  0  0  0
  153.1388  136.7582  156.5471 H   0  0  0  0  0  0  0  0  0  0  0  0
  153.3052  138.0351  157.7663 H   0  0  0  0  0  0  0  0  0  0  0  0
  152.1144  139.8073  154.8321 H   0  0  0  0  0  0  0  0  0  0  0  0
  151.5988  138.1736  155.2444 H   0  0  0  0  0  0  0  0  0  0  0  0
  150.6965  138.9977  157.1779 H   0  0  0  0  0  0  0  0  0  0  0  0
  152.3052  139.3769  157.7434 H   0  0  0  0  0  0  0  0  0  0  0  0
  148.2558  140.0476  156.0860 H   0  0  0  0  0  0  0  0  0  0  0  0
  148.0700  137.9653  152.6691 H   0  0  0  0  0  0  0  0  0  0  0  0
  149.2280  139.2384  152.9928 H   0  0  0  0  0  0  0  0  0  0  0  0
  146.6316  141.4180  157.1584 H   0  0  0  0  0  0  0  0  0  0  0  0
  144.9333  143.2161  157.0769 H   0  0  0  0  0  0  0  0  0  0  0  0
  144.4014  144.3385  154.9209 H   0  0  0  0  0  0  0  0  0  0  0  0
  145.5828  143.6567  152.8409 H   0  0  0  0  0  0  0  0  0  0  0  0
  147.2846  141.8572  152.9083 H   0  0  0  0  0  0  0  0  0  0  0  0
  151.1999  145.2233  158.0116 H   0  0  0  0  0  0  0  0  0  0  0  0
  152.6218  144.8859  160.0408 H   0  0  0  0  0  0  0  0  0  0  0  0
  153.4687  142.6478  160.6395 H   0  0  0  0  0  0  0  0  0  0  0  0
  152.9338  140.6521  159.2434 H   0  0  0  0  0  0  0  0  0  0  0  0
  150.0614  143.7125  155.8322 H   0  0  0  0  0  0  0  0  0  0  0  0
  1  2  1  0  0  0  0
  1 25  1  0  0  0  0
  1 26  1  0  0  0  0
  1 27  1  0  0  0  0
  2  3  1  0  0  0  0
  3  4  1  0  0  0  0
  3 28  1  0  0  0  0
  3 29  1  0  0  0  0
  4  5  1  0  0  0  0
  4 30  1  0  0  0  0
  4 31  1  0  0  0  0
  5 24  1  0  0  0  0
  5  6  1  0  0  0  0
  6  7  1  0  0  0  0
  6 18  2  0  0  0  0
  7  8  1  0  0  0  0
  8  9  1  0  0  0  0
  8 12  1  0  0  0  0
  8 32  1  0  0  0  0
  9 10  1  0  0  0  0
  9 11  2  0  0  0  0
 10 33  1  0  0  0  0
 10 34  1  0  0  0  0
 12 17  1  0  0  0  0
 12 13  2  0  0  0  0
 13 14  1  0  0  0  0
 13 35  1  0  0  0  0
 14 15  2  0  0  0  0
 14 36  1  0  0  0  0
 15 16  1  0  0  0  0
 15 37  1  0  0  0  0
 16 17  2  0  0  0  0
 16 38  1  0  0  0  0
 17 39  1  0  0  0  0
 18 19  1  0  0  0  0
 18 44  1  0  0  0  0
 19 24  2  0  0  0  0
 19 20  1  0  0  0  0
 20 21  2  0  0  0  0
 20 40  1  0  0  0  0
 21 22  1  0  0  0  0
 21 41  1  0  0  0  0
 22 23  2  0  0  0  0
 22 42  1  0  0  0  0
 23 24  1  0  0  0  0
 23 43  1  0  0  0  0
M  CHG  1  18   1
M  END
> <s_m_source_file>
AV-unprocessed.smi

> <i_m_source_file_index>
525

> <i_lp_mmshare_version>
43012

> <i_f3d_flags>
0

> <s_epik_input>
W2NIXTFbY0hdW2NIXVtjSF1jKGMxMiluKFtDSDJdW0NIMl1PW0NIM10pYyhuMilTW0NASF0oQyg9TylbTkgyXSljM1tjSF1bY0hdW2NIXVtjSF1bY0hdMw==

> <s_epik_cmdline>
J2VwaWtfcHl0aG9uJywgJy1waCcsICc3LjAnLCAnLXRuJywgJzgnLCAnLW1hJywgJzIwMCcsICctbWV0YWxfYmluZGluZycsICctaW1hZScsICc8aW5maWxlLm1hZT4nLCAnLW9tYWUnLCAnPG91dGZpbGUubWFlPic=

> <r_epik_Ionization_Penalty>
1.29485

> <r_epik_Ionization_Penalty_Charging>
1.29485

> <r_epik_Ionization_Penalty_Neutral>
1.02965e-06

> <r_epik_State_Penalty>
1.36828

> <r_epik_Charging_Adjusted_Penalty>
2.66313

> <i_epik_Tot_Q>
1

> <i_epik_Tot_abs_Q>
1

> <r_epik_Metal_State_Penalty>
1.43316

> <b_epik_Metal_Only>
0

> <s_lp_Force_Field>
OPLS_2005

> <r_lp_Energy>
14.4741

> <b_lp_Chiralities_Consistent>
1

> <s_lp_Variant>
AV-unprocessed.smi:525-3

> <Gold.Version>
5.8.1

> <Gold.Id.Protein>
6NUR|6NUR_protein|mol2

> <Gold.PLP.Fitness>
60.2675

> <Gold.PLP.PLP>
-50.7970

> <Gold.PLP.part.hbond>
-3.8637

> <Gold.PLP.part.metal>
0.0000

> <Gold.PLP.part.buried>
-6.0401

> <Gold.PLP.part.nonpolar>
-41.2701

> <Gold.PLP.part.repulsive>
0.2522

> <Gold.PLP.ligand.clash>
0.0000

> <Gold.PLP.ligand.torsion>
1.1955

> <Gold.PLP.Chemscore.Hbond>
3.8618

> <Gold.PLP.Chemscore.CHOScore>
0.0000

> <Gold.PLP.Chemscore.Metal>
0.0000

> <Gold.Chemscore.Hbonds>
donor molecule, donor type, donor heavy atom, donor atom, acceptor molecule, acceptor atom, score
      L1  H    10    33       P1  7948  0.63
      L1  H    10    34       P1  7957  0.46
      L1  H    18    44       P1  8028  2.00
      P1  H  7997  8009       L1     2  0.77

> <Gold.PLP.Chemscore.Internal.Correction>
0.2761

> <Gold.Rescore>
     Score         DG    S(hbond)    S(metal)    S(lipo)     H(rot)  DE(clash)    DE(int)     intcor
     19.95     -21.34       2.72        0.00     113.06       2.51       0.22       1.18       ----

> <Gold.Chemscore.Fitness>
19.9480

> <Gold.Chemscore.DG>
-21.3443

> <Gold.Chemscore.ZeroCoef>
-5.4800

> <Gold.Chemscore.Hbond>
2.7165

> <Gold.Chemscore.Metal>
0.0000

> <Gold.Chemscore.Lipo>
113.0641

> <Gold.Chemscore.Internal_Hbond>
0.0000

> <Gold.Chemscore.DEClash>
0.2213

> <Gold.Chemscore.DEInternal>
1.1750

> <Gold.Chemscore.Rot>
2.5145

> <Gold.Chemscore.Internal.Correction>
   9.000000E+99

> <Gold.Chemscore.Hbonds>
donor molecule, donor type, donor heavy atom, donor atom, acceptor molecule, acceptor atom, score
      L1  H    10    33       P1  7948  0.62
      L1  H    10    34       P1  7957  0.43
      L1  H    18    44       P1  8028  0.92
      P1  H  7997  8009       L1     2  0.23

> <Gold.Chemscore.Hbond.Weighted>
-9.0730

> <Gold.Chemscore.Metal.Weighted>
-0.0000

> <Gold.Chemscore.Lipo.Weighted>
-13.2285

> <Gold.Chemscore.Internal_Hbond.Weighted>
0.0000

> <Gold.Chemscore.DEClash.Weighted>
0.2213

> <Gold.Chemscore.DEInternal.Weighted>
1.1750

> <Gold.Chemscore.Rot.Weighted>
6.4372

> <Gold.Chemscore.Internal.Correction.Weighted>
   9.000000E+99

> <Gold.Protein.RotatedTorsions>
[ 6907 6896 6895 6894 ] final   34.42 input  -60.11 | X-H torsion
[ 7974 7965 7964 7962 ] final -164.30 input  175.53 | X-H torsion
[ 8008 7997 7996 7995 ] final -168.59 input   59.86 | X-H torsion
[ 10167 10162 10161 10158 ] final   -6.68 input  -65.29 | X-H torsion
[ 10718 10713 10712 10709 ] final   -8.56 input   66.30 | X-H torsion
[ 10763 10752 10751 10750 ] final   67.44 input  -60.55 | X-H torsion
[ 11005 11000 10999 10996 ] final  170.37 input  -57.11 | X-H torsion

> <Gold.Protein.ActiveResidues>
 VAL166  LYS551  ARG553  GLY616  TRP617  ASP618  TYR619  PRO620  LYS621  CYS622 
 ASP623  PHE694  ASN695  SER759  ASP760  ASP761  ALA762  ILE779  LEU786  VAL792 
 PHE793  MET794  SER795  GLU796  ALA797  LYS798  CYS799  TRP800  GLU811  SER814 

> <Gold.Protein.RotatedAtoms>
  152.1021  134.9334  160.0569 H   0  0  0  0  0  0  0  0  0  0  0  0  # atno 6907 bound_to 6896
  152.0544  133.4029  159.4399 H   0  0  0  0  0  0  0  0  0  0  0  0  # atno 6908 bound_to 6896
  150.6840  134.3191  159.4822 H   0  0  0  0  0  0  0  0  0  0  0  0  # atno 6909 bound_to 6896
  144.7301  140.2981  143.6209 H   0  0  0  0  0  0  0  0  0  0  0  0  # atno 7974 bound_to 7965
  155.8935  140.1029  157.1401 H   0  0  0  0  0  0  0  0  0  0  0  0  # atno 8008 bound_to 7997
  154.4017  140.1306  156.4409 H   0  0  0  0  0  0  0  0  0  0  0  0  # atno 8009 bound_to 7997
  155.7506  140.3465  155.5151 H   0  0  0  0  0  0  0  0  0  0  0  0  # atno 8010 bound_to 7997
  140.7005  143.6167  150.8652 H   0  0  0  0  0  0  0  0  0  0  0  0  # atno 10167 bound_to 10162
  156.7008  130.5093  149.5918 H   0  0  0  0  0  0  0  0  0  0  0  0  # atno 10718 bound_to 10713
  153.0187  135.5284  154.6980 H   0  0  0  0  0  0  0  0  0  0  0  0  # atno 10763 bound_to 10752
  154.6097  135.2877  155.0448 H   0  0  0  0  0  0  0  0  0  0  0  0  # atno 10764 bound_to 10752
  154.1474  135.6568  153.5008 H   0  0  0  0  0  0  0  0  0  0  0  0  # atno 10765 bound_to 10752
  140.3077  134.7543  157.3966 H   0  0  0  0  0  0  0  0  0  0  0  0  # atno 11005 bound_to 11000
  145.7788  139.1883  143.2170 LP  0  0  0  0  0  0  0  0  0  0  0  0  # atno 17320 bound_to 7965
  146.0851  140.7720  142.9622 LP  0  0  0  0  0  0  0  0  0  0  0  0  # atno 17321 bound_to 7965
  139.9888  143.5869  152.2917 LP  0  0  0  0  0  0  0  0  0  0  0  0  # atno 17342 bound_to 10162
  139.6517  144.7661  151.2135 LP  0  0  0  0  0  0  0  0  0  0  0  0  # atno 17343 bound_to 10162
  156.1730  130.6449  151.0860 LP  0  0  0  0  0  0  0  0  0  0  0  0  # atno 17370 bound_to 10713
  157.6974  131.0789  150.6928 LP  0  0  0  0  0  0  0  0  0  0  0  0  # atno 17371 bound_to 10713
  140.1053  134.5418  155.8315 LP  0  0  0  0  0  0  0  0  0  0  0  0  # atno 17394 bound_to 11000
  141.2115  133.6707  156.6586 LP  0  0  0  0  0  0  0  0  0  0  0  0  # atno 17395 bound_to 11000

$$$$
