AV-unprocessed.smi:1677|AV-procd|sdf|6724|dock9
  -GOLD-   22720 7463D 1   1.00000     0.00000
 Structure written by MMmdl.
 36 37  0  0  0  0  0  0  0  0  1 V2000
  149.4337  141.2730  158.1902 C   0  0  0  0  0  0  0  0  0  0  0  0
  150.4046  142.4615  158.1916 C   0  0  2  0  0  0  0  0  0  0  0  0
  151.1081  142.6151  156.8269 C   0  0  0  0  0  0  0  0  0  0  0  0
  150.7923  141.5341  155.9106 N   0  0  0  0  0  0  0  0  0  0  0  0
  149.7144  141.4633  155.0384 C   0  0  0  0  0  0  0  0  0  0  0  0
  149.8326  140.2692  154.3640 C   0  0  0  0  0  0  0  0  0  0  0  0
  150.9658  139.5905  154.8063 N   0  0  0  0  0  0  0  0  0  0  0  0
  151.4804  140.3993  155.7232 C   0  0  0  0  0  0  0  0  0  0  0  0
  151.3844  142.2753  159.2613 N   0  0  0  0  0  0  0  0  0  0  0  0
  152.4517  143.0573  159.4914 C   0  0  0  0  0  0  0  0  0  0  0  0
  152.7078  144.0650  158.8315 O   0  0  0  0  0  0  0  0  0  0  0  0
  153.3871  142.6204  160.6255 C   0  0  2  0  0  0  0  0  0  0  0  0
  153.8875  141.1726  160.4162 C   0  0  0  0  0  0  0  0  0  0  0  0
  154.5969  140.6293  161.6439 C   0  0  0  0  0  0  0  0  0  0  0  0
  154.5009  141.1898  162.8618 C   0  0  0  0  0  0  0  0  0  0  0  0
  153.6695  142.4276  163.1493 C   0  0  0  0  0  0  0  0  0  0  0  0
  152.7001  142.7594  161.9991 C   0  0  0  0  0  0  0  0  0  0  0  0
  148.6669  141.3941  157.4246 H   0  0  0  0  0  0  0  0  0  0  0  0
  148.9258  141.1802  159.1510 H   0  0  0  0  0  0  0  0  0  0  0  0
  149.9532  140.3342  157.9947 H   0  0  0  0  0  0  0  0  0  0  0  0
  149.8123  143.3587  158.3811 H   0  0  0  0  0  0  0  0  0  0  0  0
  150.8388  143.5637  156.3598 H   0  0  0  0  0  0  0  0  0  0  0  0
  152.1903  142.6304  156.9630 H   0  0  0  0  0  0  0  0  0  0  0  0
  148.9779  142.2498  154.9667 H   0  0  0  0  0  0  0  0  0  0  0  0
  149.1944  139.8500  153.6003 H   0  0  0  0  0  0  0  0  0  0  0  0
  152.3859  140.1655  156.2640 H   0  0  0  0  0  0  0  0  0  0  0  0
  151.2564  141.4702  159.8569 H   0  0  0  0  0  0  0  0  0  0  0  0
  154.2563  143.2811  160.6241 H   0  0  0  0  0  0  0  0  0  0  0  0
  153.0638  140.4975  160.1806 H   0  0  0  0  0  0  0  0  0  0  0  0
  154.5774  141.1389  159.5722 H   0  0  0  0  0  0  0  0  0  0  0  0
  155.1919  139.7382  161.5082 H   0  0  0  0  0  0  0  0  0  0  0  0
  155.0408  140.7618  163.6937 H   0  0  0  0  0  0  0  0  0  0  0  0
  153.1114  142.2802  164.0741 H   0  0  0  0  0  0  0  0  0  0  0  0
  154.3521  143.2610  163.3190 H   0  0  0  0  0  0  0  0  0  0  0  0
  152.3002  143.7657  162.1342 H   0  0  0  0  0  0  0  0  0  0  0  0
  151.8457  142.0821  162.0477 H   0  0  0  0  0  0  0  0  0  0  0  0
  1  2  1  0  0  0  0
  1 18  1  0  0  0  0
  1 19  1  0  0  0  0
  1 20  1  0  0  0  0
  2  3  1  0  0  0  0
  2  9  1  0  0  0  0
  2 21  1  0  0  0  0
  3  4  1  0  0  0  0
  3 22  1  0  0  0  0
  3 23  1  0  0  0  0
  4  8  1  0  0  0  0
  4  5  1  0  0  0  0
  5  6  2  0  0  0  0
  5 24  1  0  0  0  0
  6  7  1  0  0  0  0
  6 25  1  0  0  0  0
  7  8  2  0  0  0  0
  8 26  1  0  0  0  0
  9 10  1  0  0  0  0
  9 27  1  0  0  0  0
 10 11  2  0  0  0  0
 10 12  1  0  0  0  0
 12 17  1  0  0  0  0
 12 13  1  0  0  0  0
 12 28  1  0  0  0  0
 13 14  1  0  0  0  0
 13 29  1  0  0  0  0
 13 30  1  0  0  0  0
 14 15  2  0  0  0  0
 14 31  1  0  0  0  0
 15 16  1  0  0  0  0
 15 32  1  0  0  0  0
 16 17  1  0  0  0  0
 16 33  1  0  0  0  0
 16 34  1  0  0  0  0
 17 35  1  0  0  0  0
 17 36  1  0  0  0  0
M  END
> <s_m_source_file>
AV-unprocessed.smi

> <i_m_source_file_index>
1677

> <i_lp_mmshare_version>
43012

> <i_f3d_flags>
0

> <s_epik_input>
W2NIXTFuW2NIXVtjSF1uMVtDSDJdW0NAQEhdKFtDSDNdKVtOSF1DKD1PKVtDQEBIXTJbQ0gyXVtDSF09W0NIXVtDSDJdW0NIMl0y

> <s_epik_cmdline>
J2VwaWtfcHl0aG9uJywgJy1waCcsICc3LjAnLCAnLXRuJywgJzgnLCAnLW1hJywgJzIwMCcsICctbWV0YWxfYmluZGluZycsICctaW1hZScsICc8aW5maWxlLm1hZT4nLCAnLW9tYWUnLCAnPG91dGZpbGUubWFlPic=

> <r_lp_tautomer_probability>
1

> <r_epik_Ionization_Penalty>
0.640435

> <r_epik_Ionization_Penalty_Charging>
0.640435

> <r_epik_Ionization_Penalty_Neutral>
2.11108e-08

> <r_epik_State_Penalty>
0.658069

> <r_epik_Charging_Adjusted_Penalty>
1.2985

> <i_epik_Tot_Q>
0

> <i_epik_Tot_abs_Q>
0

> <r_epik_Metal_State_Penalty>
0.311689

> <b_epik_Metal_Only>
0

> <s_lp_Force_Field>
OPLS_2005

> <r_lp_Energy>
9.8402

> <b_lp_Chiralities_Consistent>
1

> <s_lp_Variant>
AV-unprocessed.smi:1677-5

> <Gold.Version>
5.8.1

> <Gold.Id.Protein>
6NUR|6NUR_protein|mol2

> <Gold.PLP.Fitness>
43.2721

> <Gold.PLP.PLP>
-40.2476

> <Gold.PLP.part.hbond>
-1.0000

> <Gold.PLP.part.metal>
0.0000

> <Gold.PLP.part.buried>
0.2172

> <Gold.PLP.part.nonpolar>
-38.8948

> <Gold.PLP.part.repulsive>
0.1986

> <Gold.PLP.ligand.clash>
0.0000

> <Gold.PLP.ligand.torsion>
1.2301

> <Gold.PLP.Chemscore.Hbond>
0.0200

> <Gold.PLP.Chemscore.CHOScore>
1.8000

> <Gold.PLP.Chemscore.Metal>
0.0000

> <Gold.Chemscore.Hbonds>
donor molecule, donor type, donor heavy atom, donor atom, acceptor molecule, acceptor atom, score
      L1  C     5    24       P1  8028  0.94
      L1  C     6    25       P1  7957  0.89

> <Gold.PLP.Chemscore.Internal.Correction>
0.0248

> <Gold.Rescore>
     Score         DG    S(hbond)    S(metal)    S(lipo)     H(rot)  DE(clash)    DE(int)     intcor
      9.47     -11.79       0.00        0.00      92.19       1.75       0.04       2.29       ----

> <Gold.Chemscore.Fitness>
9.4700

> <Gold.Chemscore.DG>
-11.7930

> <Gold.Chemscore.ZeroCoef>
-5.4800

> <Gold.Chemscore.Hbond>
0.0000

> <Gold.Chemscore.Metal>
0.0000

> <Gold.Chemscore.Lipo>
92.1923

> <Gold.Chemscore.Internal_Hbond>
0.0000

> <Gold.Chemscore.DEClash>
0.0371

> <Gold.Chemscore.DEInternal>
2.2859

> <Gold.Chemscore.Rot>
1.7475

> <Gold.Chemscore.Internal.Correction>
   9.000000E+99

> <Gold.Chemscore.Hbond.Weighted>
-0.0000

> <Gold.Chemscore.Metal.Weighted>
-0.0000

> <Gold.Chemscore.Lipo.Weighted>
-10.7865

> <Gold.Chemscore.Internal_Hbond.Weighted>
0.0000

> <Gold.Chemscore.DEClash.Weighted>
0.0371

> <Gold.Chemscore.DEInternal.Weighted>
2.2859

> <Gold.Chemscore.Rot.Weighted>
4.4735

> <Gold.Chemscore.Internal.Correction.Weighted>
   9.000000E+99

> <Gold.Protein.RotatedTorsions>
[ 6907 6896 6895 6894 ] final  -46.35 input  -60.11 | X-H torsion
[ 7974 7965 7964 7962 ] final -120.91 input  175.53 | X-H torsion
[ 8008 7997 7996 7995 ] final  -67.55 input   59.86 | X-H torsion
[ 10167 10162 10161 10158 ] final   54.17 input  -65.29 | X-H torsion
[ 10718 10713 10712 10709 ] final   37.82 input   66.30 | X-H torsion
[ 10763 10752 10751 10750 ] final   50.28 input  -60.55 | X-H torsion
[ 11005 11000 10999 10996 ] final   21.11 input  -57.11 | X-H torsion

> <Gold.Protein.ActiveResidues>
 VAL166  LYS551  ARG553  GLY616  TRP617  ASP618  TYR619  PRO620  LYS621  CYS622 
 ASP623  PHE694  ASN695  SER759  ASP760  ASP761  ALA762  ILE779  LEU786  VAL792 
 PHE793  MET794  SER795  GLU796  ALA797  LYS798  CYS799  TRP800  GLU811  SER814 

> <Gold.Protein.RotatedAtoms>
  150.9122  134.8538  159.7432 H   0  0  0  0  0  0  0  0  0  0  0  0  # atno 6907 bound_to 6896
  152.4950  134.4343  159.9532 H   0  0  0  0  0  0  0  0  0  0  0  0  # atno 6908 bound_to 6896
  151.4384  133.3611  159.2813 H   0  0  0  0  0  0  0  0  0  0  0  0  # atno 6909 bound_to 6896
  145.0461  140.8182  143.4237 H   0  0  0  0  0  0  0  0  0  0  0  0  # atno 7974 bound_to 7965
  154.4807  140.0890  156.7371 H   0  0  0  0  0  0  0  0  0  0  0  0  # atno 8008 bound_to 7997
  155.4477  140.3456  155.4279 H   0  0  0  0  0  0  0  0  0  0  0  0  # atno 8009 bound_to 7997
  156.1187  140.1468  156.9223 H   0  0  0  0  0  0  0  0  0  0  0  0  # atno 8010 bound_to 7997
  140.2330  144.3666  150.6407 H   0  0  0  0  0  0  0  0  0  0  0  0  # atno 10167 bound_to 10162
  157.3515  130.7601  149.6981 H   0  0  0  0  0  0  0  0  0  0  0  0  # atno 10718 bound_to 10713
  152.9785  135.5884  154.4227 H   0  0  0  0  0  0  0  0  0  0  0  0  # atno 10763 bound_to 10752
  154.3849  135.2767  155.2191 H   0  0  0  0  0  0  0  0  0  0  0  0  # atno 10764 bound_to 10752
  154.4088  135.6086  153.5995 H   0  0  0  0  0  0  0  0  0  0  0  0  # atno 10765 bound_to 10752
  140.3952  134.1776  155.7663 H   0  0  0  0  0  0  0  0  0  0  0  0  # atno 11005 bound_to 11000
  145.1586  139.2472  143.5403 LP  0  0  0  0  0  0  0  0  0  0  0  0  # atno 17320 bound_to 7965
  146.3514  140.1307  142.8597 LP  0  0  0  0  0  0  0  0  0  0  0  0  # atno 17321 bound_to 7965
  140.6171  143.2173  151.6770 LP  0  0  0  0  0  0  0  0  0  0  0  0  # atno 17342 bound_to 10162
  139.5103  144.3546  152.0620 LP  0  0  0  0  0  0  0  0  0  0  0  0  # atno 17343 bound_to 10162
  155.9722  130.4139  150.4107 LP  0  0  0  0  0  0  0  0  0  0  0  0  # atno 17370 bound_to 10713
  157.2170  131.0473  151.2567 LP  0  0  0  0  0  0  0  0  0  0  0  0  # atno 17371 bound_to 10713
  141.1876  133.8277  157.1024 LP  0  0  0  0  0  0  0  0  0  0  0  0  # atno 17394 bound_to 11000
  140.0377  134.9870  157.0902 LP  0  0  0  0  0  0  0  0  0  0  0  0  # atno 17395 bound_to 11000

$$$$
