AV-unprocessed.smi:1866|AV-procd|sdf|7557|dock6
  -GOLD-   22720 9273D 1   1.00000     0.00000
 Structure written by MMmdl.
 30 31  0  0  0  0  0  0  0  0  1 V2000
  146.5135  142.7110  154.3547 C   0  0  0  0  0  0  0  0  0  0  0  0
  146.4506  141.2301  154.1977 C   0  0  0  0  0  0  0  0  0  0  0  0
  145.8941  140.4257  155.1117 N   0  0  0  0  0  0  0  0  0  0  0  0
  145.9569  139.0889  154.7440 N   0  0  0  0  0  0  0  0  0  0  0  0
  146.5604  138.9243  153.5586 C   0  0  0  0  0  0  0  0  0  0  0  0
  146.7598  137.6605  152.9427 N   0  0  0  0  0  0  0  0  0  0  0  0
  145.8808  136.6527  152.8035 C   0  0  0  0  0  0  0  0  0  0  0  0
  144.7177  136.6605  153.2075 O   0  0  0  0  0  0  0  0  0  0  0  0
  146.4331  135.6148  152.1591 N   0  0  0  0  0  0  0  0  0  0  0  0
  145.7718  134.3431  151.8734 C   0  0  1  0  0  0  0  0  0  0  0  0
  144.7075  134.5086  150.7717 C   0  0  0  0  0  0  0  0  0  0  0  0
  144.1742  133.1409  150.3355 C   0  0  0  0  0  0  0  0  0  0  0  0
  145.3237  132.2502  149.8377 C   0  0  0  0  0  0  0  0  0  0  0  0
  146.4912  132.2685  150.7201 N   0  0  0  0  0  0  0  0  0  0  0  0
  146.7972  133.2243  151.6151 C   0  0  0  0  0  0  0  0  0  0  0  0
  147.8520  133.1937  152.2472 O   0  0  0  0  0  0  0  0  0  0  0  0
  147.1030  140.4049  152.7874 S   0  0  0  0  0  0  0  0  0  0  0  0
  146.1947  143.0066  155.3548 H   0  0  0  0  0  0  0  0  0  0  0  0
  145.8625  143.1905  153.6236 H   0  0  0  0  0  0  0  0  0  0  0  0
  147.5343  143.0596  154.1974 H   0  0  0  0  0  0  0  0  0  0  0  0
  147.6827  137.5045  152.5654 H   0  0  0  0  0  0  0  0  0  0  0  0
  147.3965  135.6942  151.8679 H   0  0  0  0  0  0  0  0  0  0  0  0
  145.2530  134.0255  152.7801 H   0  0  0  0  0  0  0  0  0  0  0  0
  143.8857  135.1304  151.1285 H   0  0  0  0  0  0  0  0  0  0  0  0
  145.1365  135.0226  149.9103 H   0  0  0  0  0  0  0  0  0  0  0  0
  143.6763  132.6602  151.1787 H   0  0  0  0  0  0  0  0  0  0  0  0
  143.4221  133.2557  149.5547 H   0  0  0  0  0  0  0  0  0  0  0  0
  144.9801  131.2225  149.7193 H   0  0  0  0  0  0  0  0  0  0  0  0
  145.6475  132.5872  148.8523 H   0  0  0  0  0  0  0  0  0  0  0  0
  147.1595  131.5218  150.5948 H   0  0  0  0  0  0  0  0  0  0  0  0
  1  2  1  0  0  0  0
  1 18  1  0  0  0  0
  1 19  1  0  0  0  0
  1 20  1  0  0  0  0
  2 17  1  0  0  0  0
  2  3  2  0  0  0  0
  3  4  1  0  0  0  0
  4  5  2  0  0  0  0
  5  6  1  0  0  0  0
  5 17  1  0  0  0  0
  6  7  1  0  0  0  0
  6 21  1  0  0  0  0
  7  8  2  0  0  0  0
  7  9  1  0  0  0  0
  9 10  1  0  0  0  0
  9 22  1  0  0  0  0
 10 15  1  0  0  0  0
 10 11  1  0  0  0  0
 10 23  1  0  0  0  0
 11 12  1  0  0  0  0
 11 24  1  0  0  0  0
 11 25  1  0  0  0  0
 12 13  1  0  0  0  0
 12 26  1  0  0  0  0
 12 27  1  0  0  0  0
 13 14  1  0  0  0  0
 13 28  1  0  0  0  0
 13 29  1  0  0  0  0
 14 15  1  0  0  0  0
 14 30  1  0  0  0  0
 15 16  2  0  0  0  0
M  END
> <s_m_source_file>
AV-unprocessed.smi

> <i_m_source_file_index>
1866

> <i_lp_mmshare_version>
43012

> <i_f3d_flags>
0

> <s_epik_input>
W0NIM11jMW5uYyhzMSlbTkhdQyg9TylbTkhdW0NAQEhdMltDSDJdW0NIMl1bQ0gyXVtOSF1DMj1P

> <s_epik_cmdline>
J2VwaWtfcHl0aG9uJywgJy1waCcsICc3LjAnLCAnLXRuJywgJzgnLCAnLW1hJywgJzIwMCcsICctbWV0YWxfYmluZGluZycsICctaW1hZScsICc8aW5maWxlLm1hZT4nLCAnLW9tYWUnLCAnPG91dGZpbGUubWFlPic=

> <r_lp_tautomer_probability>
1

> <r_epik_Ionization_Penalty>
0.00093002

> <r_epik_Ionization_Penalty_Charging>
0

> <r_epik_Ionization_Penalty_Neutral>
0.00093002

> <r_epik_State_Penalty>
-0

> <r_epik_Charging_Adjusted_Penalty>
0

> <i_epik_Tot_Q>
0

> <i_epik_Tot_abs_Q>
0

> <r_epik_Metal_State_Penalty>
0.280775

> <b_epik_Metal_Only>
0

> <s_lp_Force_Field>
OPLS_2005

> <r_lp_Energy>
8.18439

> <b_lp_Chiralities_Consistent>
1

> <s_lp_Variant>
AV-unprocessed.smi:1866-2

> <Gold.Version>
5.8.1

> <Gold.Id.Protein>
6NUR|6NUR_protein|mol2

> <Gold.PLP.Fitness>
34.6383

> <Gold.PLP.PLP>
-26.9202

> <Gold.PLP.part.hbond>
-3.0000

> <Gold.PLP.part.metal>
0.0000

> <Gold.PLP.part.buried>
-3.9581

> <Gold.PLP.part.nonpolar>
-21.2350

> <Gold.PLP.part.repulsive>
0.6652

> <Gold.PLP.ligand.clash>
0.0000

> <Gold.PLP.ligand.torsion>
0.6021

> <Gold.PLP.Chemscore.Hbond>
2.9600

> <Gold.PLP.Chemscore.CHOScore>
0.0000

> <Gold.PLP.Chemscore.Metal>
0.0000

> <Gold.Chemscore.Hbonds>
donor molecule, donor type, donor heavy atom, donor atom, acceptor molecule, acceptor atom, score
      L1  H     6    21       P1  7948  0.96
      L1  H     9    22       P1  7948  1.00
      L1  H    14    30       P1 10747  1.00

> <Gold.PLP.Chemscore.Internal.Correction>
0.0422

> <Gold.Rescore>
     Score         DG    S(hbond)    S(metal)    S(lipo)     H(rot)  DE(clash)    DE(int)     intcor
     17.73     -18.33       2.88        0.00      49.48       1.00       0.03       0.58       ----

> <Gold.Chemscore.Fitness>
17.7338

> <Gold.Chemscore.DG>
-18.3349

> <Gold.Chemscore.ZeroCoef>
-5.4800

> <Gold.Chemscore.Hbond>
2.8821

> <Gold.Chemscore.Metal>
0.0000

> <Gold.Chemscore.Lipo>
49.4751

> <Gold.Chemscore.Internal_Hbond>
0.0000

> <Gold.Chemscore.DEClash>
0.0259

> <Gold.Chemscore.DEInternal>
0.5752

> <Gold.Chemscore.Rot>
1.0000

> <Gold.Chemscore.Internal.Correction>
   9.000000E+99

> <Gold.Chemscore.Hbonds>
donor molecule, donor type, donor heavy atom, donor atom, acceptor molecule, acceptor atom, score
      L1  H     6    21       P1  7948  0.92
      L1  H     9    22       P1  7948  0.98
      L1  H    14    30       P1 10747  0.95

> <Gold.Chemscore.Hbond.Weighted>
-9.6263

> <Gold.Chemscore.Metal.Weighted>
-0.0000

> <Gold.Chemscore.Lipo.Weighted>
-5.7886

> <Gold.Chemscore.Internal_Hbond.Weighted>
0.0000

> <Gold.Chemscore.DEClash.Weighted>
0.0259

> <Gold.Chemscore.DEInternal.Weighted>
0.5752

> <Gold.Chemscore.Rot.Weighted>
2.5600

> <Gold.Chemscore.Internal.Correction.Weighted>
   9.000000E+99

> <Gold.Protein.RotatedTorsions>
[ 6907 6896 6895 6894 ] final   17.60 input  -60.11 | X-H torsion
[ 7974 7965 7964 7962 ] final  -41.46 input  175.53 | X-H torsion
[ 8008 7997 7996 7995 ] final -171.15 input   59.86 | X-H torsion
[ 10167 10162 10161 10158 ] final  124.16 input  -65.29 | X-H torsion
[ 10718 10713 10712 10709 ] final   81.85 input   66.30 | X-H torsion
[ 10763 10752 10751 10750 ] final  -51.69 input  -60.55 | X-H torsion
[ 11005 11000 10999 10996 ] final  -31.09 input  -57.11 | X-H torsion

> <Gold.Protein.ActiveResidues>
 VAL166  LYS551  ARG553  GLY616  TRP617  ASP618  TYR619  PRO620  LYS621  CYS622 
 ASP623  PHE694  ASN695  SER759  ASP760  ASP761  ALA762  ILE779  LEU786  VAL792 
 PHE793  MET794  SER795  GLU796  ALA797  LYS798  CYS799  TRP800  GLU811  SER814 

> <Gold.Protein.RotatedAtoms>
  151.8522  135.0554  160.0459 H   0  0  0  0  0  0  0  0  0  0  0  0  # atno 6907 bound_to 6896
  152.2728  133.5393  159.5458 H   0  0  0  0  0  0  0  0  0  0  0  0  # atno 6908 bound_to 6896
  150.7158  134.0590  159.3867 H   0  0  0  0  0  0  0  0  0  0  0  0  # atno 6909 bound_to 6896
  146.0208  140.6852  142.9179 H   0  0  0  0  0  0  0  0  0  0  0  0  # atno 7974 bound_to 7965
  155.9278  140.1086  157.1156 H   0  0  0  0  0  0  0  0  0  0  0  0  # atno 8008 bound_to 7997
  154.4065  140.1243  156.4828 H   0  0  0  0  0  0  0  0  0  0  0  0  # atno 8009 bound_to 7997
  155.7117  140.3471  155.4979 H   0  0  0  0  0  0  0  0  0  0  0  0  # atno 8010 bound_to 7997
  139.5758  144.6962  151.3658 H   0  0  0  0  0  0  0  0  0  0  0  0  # atno 10167 bound_to 10162
  157.6843  131.0022  150.2287 H   0  0  0  0  0  0  0  0  0  0  0  0  # atno 10718 bound_to 10713
  154.1307  135.6520  153.4921 H   0  0  0  0  0  0  0  0  0  0  0  0  # atno 10763 bound_to 10752
  153.0196  135.5292  154.7004 H   0  0  0  0  0  0  0  0  0  0  0  0  # atno 10764 bound_to 10752
  154.6238  135.2968  155.0266 H   0  0  0  0  0  0  0  0  0  0  0  0  # atno 10765 bound_to 10752
  140.9438  133.7262  156.1116 H   0  0  0  0  0  0  0  0  0  0  0  0  # atno 11005 bound_to 11000
  144.6989  140.3563  143.7172 LP  0  0  0  0  0  0  0  0  0  0  0  0  # atno 17320 bound_to 7965
  145.7196  139.1706  143.2492 LP  0  0  0  0  0  0  0  0  0  0  0  0  # atno 17321 bound_to 7965
  140.7040  143.7560  150.7451 LP  0  0  0  0  0  0  0  0  0  0  0  0  # atno 17342 bound_to 10162
  140.1079  143.4726  152.2387 LP  0  0  0  0  0  0  0  0  0  0  0  0  # atno 17343 bound_to 10162
  156.2924  130.3747  149.7828 LP  0  0  0  0  0  0  0  0  0  0  0  0  # atno 17370 bound_to 10713
  156.5484  130.8331  151.3291 LP  0  0  0  0  0  0  0  0  0  0  0  0  # atno 17371 bound_to 10713
  140.7697  134.3846  157.5510 LP  0  0  0  0  0  0  0  0  0  0  0  0  # atno 17394 bound_to 11000
  139.8828  134.9014  156.2810 LP  0  0  0  0  0  0  0  0  0  0  0  0  # atno 17395 bound_to 11000

$$$$
