AV-unprocessed.smi:1576|AV-procd|sdf|6348|dock2
  -GOLD-   22720 6563D 1   1.00000     0.00000
 Structure written by MMmdl.
 45 47  0  0  0  0  0  0  0  0  3 V2000
  146.1824  140.4790  153.8268 O   0  0  0  0  0  0  0  0  0  0  0  0
  146.8903  139.8894  153.0025 C   0  0  0  0  0  0  0  0  0  0  0  0
  148.2232  139.8278  153.1710 N   0  0  0  0  0  0  0  0  0  0  0  0
  149.0264  140.4185  154.1829 C   0  0  0  0  0  0  0  0  0  0  0  0
  150.1275  139.6796  154.6654 C   0  0  0  0  0  0  0  0  0  0  0  0
  150.9644  140.2372  155.6534 C   0  0  0  0  0  0  0  0  0  0  0  0
  150.6922  141.5370  156.1374 C   0  0  0  0  0  0  0  0  0  0  0  0
  151.4673  142.1731  157.1157 N   0  0  0  0  0  0  0  0  0  0  0  0
  151.2508  143.6169  157.1620 C   0  0  0  0  0  0  0  0  0  0  0  0
  152.2554  144.2913  158.1129 C   0  0  0  0  0  0  0  0  0  0  0  0
  152.2118  143.6450  159.5070 C   0  0  0  0  0  0  0  0  0  0  0  0
  152.4151  142.1255  159.3947 C   0  0  0  0  0  0  0  0  0  0  0  0
  151.4035  141.5076  158.4142 C   0  0  0  0  0  0  0  0  0  0  0  0
  149.6388  142.2200  155.6390 N   0  3  0  0  0  0  0  0  0  0  0  0
  148.8127  141.7217  154.6936 C   0  0  0  0  0  0  0  0  0  0  0  0
  146.4861  139.2273  151.8853 N   0  5  0  0  0  0  0  0  0  0  0  0
  145.3711  138.2774  151.8311 C   0  0  1  0  0  0  0  0  0  0  0  0
  145.3365  137.5511  150.4718 C   0  0  0  0  0  0  0  0  0  0  0  0
  144.4000  136.3400  150.5859 C   0  0  0  0  0  0  0  0  0  0  0  0
  144.5555  135.7527  152.3170 S   0  0  0  0  0  0  0  0  0  0  0  0
  143.2206  135.7269  152.9354 O   0  0  0  0  0  0  0  0  0  0  0  0
  145.4261  134.5673  152.3567 O   0  0  0  0  0  0  0  0  0  0  0  0
  145.4951  137.2072  152.9277 C   0  0  0  0  0  0  0  0  0  0  0  0
  148.7126  139.2413  152.5110 H   0  0  0  0  0  0  0  0  0  0  0  0
  150.3287  138.6883  154.2861 H   0  0  0  0  0  0  0  0  0  0  0  0
  151.8037  139.6714  156.0298 H   0  0  0  0  0  0  0  0  0  0  0  0
  151.3507  144.0367  156.1600 H   0  0  0  0  0  0  0  0  0  0  0  0
  150.2326  143.8230  157.4952 H   0  0  0  0  0  0  0  0  0  0  0  0
  153.2623  144.2049  157.7021 H   0  0  0  0  0  0  0  0  0  0  0  0
  152.0421  145.3579  158.1872 H   0  0  0  0  0  0  0  0  0  0  0  0
  152.9761  144.0819  160.1502 H   0  0  0  0  0  0  0  0  0  0  0  0
  151.2503  143.8528  159.9780 H   0  0  0  0  0  0  0  0  0  0  0  0
  153.4296  141.9174  159.0518 H   0  0  0  0  0  0  0  0  0  0  0  0
  152.3182  141.6600  160.3757 H   0  0  0  0  0  0  0  0  0  0  0  0
  150.3952  141.5950  158.8212 H   0  0  0  0  0  0  0  0  0  0  0  0
  151.6082  140.4430  158.2925 H   0  0  0  0  0  0  0  0  0  0  0  0
  148.0261  142.3899  154.3763 H   0  0  0  0  0  0  0  0  0  0  0  0
  144.4070  138.7737  151.9543 H   0  0  0  0  0  0  0  0  0  0  0  0
  145.0286  138.2167  149.6647 H   0  0  0  0  0  0  0  0  0  0  0  0
  146.3375  137.1939  150.2245 H   0  0  0  0  0  0  0  0  0  0  0  0
  143.3609  136.6251  150.4146 H   0  0  0  0  0  0  0  0  0  0  0  0
  144.6583  135.5402  149.8922 H   0  0  0  0  0  0  0  0  0  0  0  0
  146.5314  136.8973  153.0667 H   0  0  0  0  0  0  0  0  0  0  0  0
  145.0981  137.5373  153.8876 H   0  0  0  0  0  0  0  0  0  0  0  0
  149.4594  143.1608  155.9900 H   0  0  0  0  0  0  0  0  0  0  0  0
  1  2  2  0  0  0  0
  2  3  1  0  0  0  0
  2 16  1  0  0  0  0
  3  4  1  0  0  0  0
  3 24  1  0  0  0  0
  4 15  1  0  0  0  0
  4  5  2  0  0  0  0
  5  6  1  0  0  0  0
  5 25  1  0  0  0  0
  6  7  2  0  0  0  0
  6 26  1  0  0  0  0
  7  8  1  0  0  0  0
  7 14  1  0  0  0  0
  8 13  1  0  0  0  0
  8  9  1  0  0  0  0
  9 10  1  0  0  0  0
  9 27  1  0  0  0  0
  9 28  1  0  0  0  0
 10 11  1  0  0  0  0
 10 29  1  0  0  0  0
 10 30  1  0  0  0  0
 11 12  1  0  0  0  0
 11 31  1  0  0  0  0
 11 32  1  0  0  0  0
 12 13  1  0  0  0  0
 12 33  1  0  0  0  0
 12 34  1  0  0  0  0
 13 35  1  0  0  0  0
 13 36  1  0  0  0  0
 14 15  2  0  0  0  0
 14 45  1  0  0  0  0
 15 37  1  0  0  0  0
 16 17  1  0  0  0  0
 17 23  1  0  0  0  0
 17 18  1  0  0  0  0
 17 38  1  0  0  0  0
 18 19  1  0  0  0  0
 18 39  1  0  0  0  0
 18 40  1  0  0  0  0
 19 20  1  0  0  0  0
 19 41  1  0  0  0  0
 19 42  1  0  0  0  0
 20 21  2  0  0  0  0
 20 22  2  0  0  0  0
 20 23  1  0  0  0  0
 23 43  1  0  0  0  0
 23 44  1  0  0  0  0
M  CHG  1  14   1
M  CHG  1  16  -1
M  END
> <s_m_source_file>
AV-unprocessed.smi

> <i_m_source_file_index>
1576

> <i_lp_mmshare_version>
43012

> <i_f3d_flags>
0

> <s_epik_input>
Tz1TMSg9TylbQ0gyXVtDSDJdW0NASF0oW0NIMl0xKVtOSF1DKD1PKVtOSF1jMltjSF1bY0hdYyhuW2NIXTIpTjNbQ0gyXVtDSDJdW0NIMl1bQ0gyXVtDSDJdMw==

> <s_epik_cmdline>
J2VwaWtfcHl0aG9uJywgJy1waCcsICc3LjAnLCAnLXRuJywgJzgnLCAnLW1hJywgJzIwMCcsICctbWV0YWxfYmluZGluZycsICctaW1hZScsICc8aW5maWxlLm1hZT4nLCAnLW9tYWUnLCAnPG91dGZpbGUubWFlPic=

> <r_lp_tautomer_probability>
0.999994

> <r_epik_Ionization_Penalty>
8.26491

> <r_epik_Ionization_Penalty_Charging>
8.26491

> <r_epik_Ionization_Penalty_Neutral>
3.15169e-06

> <r_epik_State_Penalty>
7.8977

> <r_epik_Charging_Adjusted_Penalty>
16.1626

> <i_epik_Tot_Q>
0

> <i_epik_Tot_abs_Q>
2

> <r_epik_Metal_State_Penalty>
3.88896

> <b_epik_Metal_Only>
1

> <s_lp_Force_Field>
OPLS_2005

> <r_lp_Energy>
27.2537

> <b_lp_Chiralities_Consistent>
1

> <s_lp_Variant>
AV-unprocessed.smi:1576-6

> <Gold.Version>
5.8.1

> <Gold.Id.Protein>
6NUR|6NUR_protein|mol2

> <Gold.PLP.Fitness>
42.9954

> <Gold.PLP.PLP>
-43.1435

> <Gold.PLP.part.hbond>
-1.9760

> <Gold.PLP.part.metal>
0.0000

> <Gold.PLP.part.buried>
1.1197

> <Gold.PLP.part.nonpolar>
-44.2264

> <Gold.PLP.part.repulsive>
0.9871

> <Gold.PLP.ligand.clash>
4.5845

> <Gold.PLP.ligand.torsion>
1.0240

> <Gold.PLP.Chemscore.Hbond>
2.1120

> <Gold.PLP.Chemscore.CHOScore>
0.0000

> <Gold.PLP.Chemscore.Metal>
0.0000

> <Gold.Chemscore.Hbonds>
donor molecule, donor type, donor heavy atom, donor atom, acceptor molecule, acceptor atom, score
      L1  H     3    24       P1  7957  0.38
      L1  H    14    45       P1  8028  1.89

> <Gold.PLP.Chemscore.Internal.Correction>
0.1484

> <Gold.Rescore>
     Score         DG    S(hbond)    S(metal)    S(lipo)     H(rot)  DE(clash)    DE(int)     intcor
     15.96     -17.73       0.92        0.00     105.43       1.24       0.27       1.50       ----

> <Gold.Chemscore.Fitness>
15.9571

> <Gold.Chemscore.DG>
-17.7292

> <Gold.Chemscore.ZeroCoef>
-5.4800

> <Gold.Chemscore.Hbond>
0.9221

> <Gold.Chemscore.Metal>
0.0000

> <Gold.Chemscore.Lipo>
105.4292

> <Gold.Chemscore.Internal_Hbond>
0.0000

> <Gold.Chemscore.DEClash>
0.2723

> <Gold.Chemscore.DEInternal>
1.4998

> <Gold.Chemscore.Rot>
1.2366

> <Gold.Chemscore.Internal.Correction>
   9.000000E+99

> <Gold.Chemscore.Hbonds>
donor molecule, donor type, donor heavy atom, donor atom, acceptor molecule, acceptor atom, score
      L1  H     3    24       P1  7957  0.38
      L1  H    14    45       P1  8028  0.91

> <Gold.Chemscore.Hbond.Weighted>
-3.0797

> <Gold.Chemscore.Metal.Weighted>
-0.0000

> <Gold.Chemscore.Lipo.Weighted>
-12.3352

> <Gold.Chemscore.Internal_Hbond.Weighted>
0.0000

> <Gold.Chemscore.DEClash.Weighted>
0.2723

> <Gold.Chemscore.DEInternal.Weighted>
1.4998

> <Gold.Chemscore.Rot.Weighted>
3.1657

> <Gold.Chemscore.Internal.Correction.Weighted>
   9.000000E+99

> <Gold.Protein.RotatedTorsions>
[ 6907 6896 6895 6894 ] final -145.62 input  -60.11 | X-H torsion
[ 7974 7965 7964 7962 ] final  -79.30 input  175.53 | X-H torsion
[ 8008 7997 7996 7995 ] final  -11.62 input   59.86 | X-H torsion
[ 10167 10162 10161 10158 ] final  -26.53 input  -65.29 | X-H torsion
[ 10718 10713 10712 10709 ] final   90.15 input   66.30 | X-H torsion
[ 10763 10752 10751 10750 ] final   56.47 input  -60.55 | X-H torsion
[ 11005 11000 10999 10996 ] final    5.29 input  -57.11 | X-H torsion

> <Gold.Protein.ActiveResidues>
 VAL166  LYS551  ARG553  GLY616  TRP617  ASP618  TYR619  PRO620  LYS621  CYS622 
 ASP623  PHE694  ASN695  SER759  ASP760  ASP761  ALA762  ILE779  LEU786  VAL792 
 PHE793  MET794  SER795  GLU796  ALA797  LYS798  CYS799  TRP800  GLU811  SER814 

> <Gold.Protein.RotatedAtoms>
  151.1303  133.5041  159.2599 H   0  0  0  0  0  0  0  0  0  0  0  0  # atno 6907 bound_to 6896
  151.1765  135.0341  159.8784 H   0  0  0  0  0  0  0  0  0  0  0  0  # atno 6908 bound_to 6896
  152.5459  134.1160  159.8432 H   0  0  0  0  0  0  0  0  0  0  0  0  # atno 6909 bound_to 6896
  145.5750  140.9459  143.1375 H   0  0  0  0  0  0  0  0  0  0  0  0  # atno 7974 bound_to 7965
  154.5449  140.2298  155.8580 H   0  0  0  0  0  0  0  0  0  0  0  0  # atno 8008 bound_to 7997
  156.1893  140.3081  155.9262 H   0  0  0  0  0  0  0  0  0  0  0  0  # atno 8009 bound_to 7997
  155.3184  140.0439  157.3029 H   0  0  0  0  0  0  0  0  0  0  0  0  # atno 8010 bound_to 7997
  140.7282  143.4170  151.1012 H   0  0  0  0  0  0  0  0  0  0  0  0  # atno 10167 bound_to 10162
  157.6958  131.0360  150.3534 H   0  0  0  0  0  0  0  0  0  0  0  0  # atno 10718 bound_to 10713
  152.9832  135.5675  154.5234 H   0  0  0  0  0  0  0  0  0  0  0  0  # atno 10763 bound_to 10752
  154.4718  135.2785  155.1639 H   0  0  0  0  0  0  0  0  0  0  0  0  # atno 10764 bound_to 10752
  154.3184  135.6274  153.5550 H   0  0  0  0  0  0  0  0  0  0  0  0  # atno 10765 bound_to 10752
  140.5724  134.0090  155.8014 H   0  0  0  0  0  0  0  0  0  0  0  0  # atno 11005 bound_to 11000
  144.7420  139.7423  143.7307 LP  0  0  0  0  0  0  0  0  0  0  0  0  # atno 17320 bound_to 7965
  146.1757  139.4927  142.9899 LP  0  0  0  0  0  0  0  0  0  0  0  0  # atno 17321 bound_to 7965
  139.7811  143.8354  152.3137 LP  0  0  0  0  0  0  0  0  0  0  0  0  # atno 17342 bound_to 10162
  139.8305  144.7256  150.9456 LP  0  0  0  0  0  0  0  0  0  0  0  0  # atno 17343 bound_to 10162
  156.3979  130.3910  149.6981 LP  0  0  0  0  0  0  0  0  0  0  0  0  # atno 17370 bound_to 10713
  156.4308  130.7814  151.2834 LP  0  0  0  0  0  0  0  0  0  0  0  0  # atno 17371 bound_to 10713
  141.1048  133.9711  157.3016 LP  0  0  0  0  0  0  0  0  0  0  0  0  # atno 17394 bound_to 11000
  139.9356  135.0197  156.8543 LP  0  0  0  0  0  0  0  0  0  0  0  0  # atno 17395 bound_to 11000

$$$$
