AV-unprocessed.smi:1531|AV-procd|sdf|6158|dock6
  -GOLD-   22720 6303D 1   1.00000     0.00000
 Structure written by MMmdl.
 44 45  0  0  0  0  0  0  0  0  1 V2000
  145.3361  143.4116  154.8165 C   0  0  0  0  0  0  0  0  0  0  0  0
  145.1281  141.9144  155.0822 C   0  0  0  0  0  0  0  0  0  0  0  0
  146.4334  141.0860  155.0905 C   0  0  2  0  0  0  0  0  0  0  0  0
  147.3842  141.5485  153.9649 C   0  0  0  0  0  0  0  0  0  0  0  0
  148.7132  140.7773  153.9838 C   0  0  0  0  0  0  0  0  0  0  0  0
  148.4785  139.2634  153.8909 C   0  0  0  0  0  0  0  0  0  0  0  0
  147.5425  138.7804  155.0110 C   0  0  0  0  0  0  0  0  0  0  0  0
  146.2064  139.5512  155.0306 C   0  0  2  0  0  0  0  0  0  0  0  0
  145.3881  139.1784  153.8753 N   0  0  0  0  0  0  0  0  0  0  0  0
  145.2835  137.9498  153.3494 C   0  0  0  0  0  0  0  0  0  0  0  0
  145.8819  136.9653  153.7834 O   0  0  0  0  0  0  0  0  0  0  0  0
  144.4502  137.9425  152.2962 N   0  0  0  0  0  0  0  0  0  0  0  0
  144.0616  136.8246  151.5158 C   0  0  0  0  0  0  0  0  0  0  0  0
  142.7298  136.3539  151.3805 C   0  0  0  0  0  0  0  0  0  0  0  0
  142.6756  135.2892  150.5947 N   0  0  0  0  0  0  0  0  0  0  0  0
  143.9595  135.0616  150.2198 N   0  0  0  0  0  0  0  0  0  0  0  0
  144.2662  133.9470  149.3409 C   0  0  0  0  0  0  0  0  0  0  0  0
  143.0001  133.3871  148.6901 C   0  0  0  0  0  0  0  0  0  0  0  0
  141.9559  133.1506  149.4894 N   0  0  0  0  0  0  0  0  0  0  0  0
  142.9627  133.1750  147.4800 O   0  0  0  0  0  0  0  0  0  0  0  0
  144.8327  135.9817  150.7667 C   0  0  0  0  0  0  0  0  0  0  0  0
  144.3778  143.9243  154.7320 H   0  0  0  0  0  0  0  0  0  0  0  0
  145.8826  143.5761  153.8875 H   0  0  0  0  0  0  0  0  0  0  0  0
  145.8900  143.8899  155.6241 H   0  0  0  0  0  0  0  0  0  0  0  0
  144.5881  141.7837  156.0205 H   0  0  0  0  0  0  0  0  0  0  0  0
  144.4694  141.5228  154.3062 H   0  0  0  0  0  0  0  0  0  0  0  0
  146.9375  141.2980  156.0348 H   0  0  0  0  0  0  0  0  0  0  0  0
  146.9028  141.4202  152.9948 H   0  0  0  0  0  0  0  0  0  0  0  0
  147.5874  142.6154  154.0649 H   0  0  0  0  0  0  0  0  0  0  0  0
  149.3457  141.1060  153.1586 H   0  0  0  0  0  0  0  0  0  0  0  0
  149.2571  141.0078  154.9007 H   0  0  0  0  0  0  0  0  0  0  0  0
  148.0511  139.0168  152.9182 H   0  0  0  0  0  0  0  0  0  0  0  0
  149.4308  138.7361  153.9506 H   0  0  0  0  0  0  0  0  0  0  0  0
  147.3602  137.7098  154.9097 H   0  0  0  0  0  0  0  0  0  0  0  0
  148.0431  138.9109  155.9713 H   0  0  0  0  0  0  0  0  0  0  0  0
  145.6874  139.2586  155.9444 H   0  0  0  0  0  0  0  0  0  0  0  0
  144.8574  139.9214  153.4449 H   0  0  0  0  0  0  0  0  0  0  0  0
  144.0450  138.8277  152.0290 H   0  0  0  0  0  0  0  0  0  0  0  0
  141.8198  136.7403  151.8157 H   0  0  0  0  0  0  0  0  0  0  0  0
  144.9647  134.2848  148.5741 H   0  0  0  0  0  0  0  0  0  0  0  0
  144.7706  133.1642  149.9097 H   0  0  0  0  0  0  0  0  0  0  0  0
  141.0969  132.7843  149.1049 H   0  0  0  0  0  0  0  0  0  0  0  0
  142.0297  133.3434  150.4778 H   0  0  0  0  0  0  0  0  0  0  0  0
  145.8950  135.9476  150.5751 H   0  0  0  0  0  0  0  0  0  0  0  0
  1  2  1  0  0  0  0
  1 22  1  0  0  0  0
  1 23  1  0  0  0  0
  1 24  1  0  0  0  0
  2  3  1  0  0  0  0
  2 25  1  0  0  0  0
  2 26  1  0  0  0  0
  3  8  1  0  0  0  0
  3  4  1  0  0  0  0
  3 27  1  0  0  0  0
  4  5  1  0  0  0  0
  4 28  1  0  0  0  0
  4 29  1  0  0  0  0
  5  6  1  0  0  0  0
  5 30  1  0  0  0  0
  5 31  1  0  0  0  0
  6  7  1  0  0  0  0
  6 32  1  0  0  0  0
  6 33  1  0  0  0  0
  7  8  1  0  0  0  0
  7 34  1  0  0  0  0
  7 35  1  0  0  0  0
  8  9  1  0  0  0  0
  8 36  1  0  0  0  0
  9 10  1  0  0  0  0
  9 37  1  0  0  0  0
 10 11  2  0  0  0  0
 10 12  1  0  0  0  0
 12 13  1  0  0  0  0
 12 38  1  0  0  0  0
 13 21  2  0  0  0  0
 13 14  1  0  0  0  0
 14 15  2  0  0  0  0
 14 39  1  0  0  0  0
 15 16  1  0  0  0  0
 16 17  1  0  0  0  0
 16 21  1  0  0  0  0
 17 18  1  0  0  0  0
 17 40  1  0  0  0  0
 17 41  1  0  0  0  0
 18 19  1  0  0  0  0
 18 20  2  0  0  0  0
 19 42  1  0  0  0  0
 19 43  1  0  0  0  0
 21 44  1  0  0  0  0
M  END
> <s_m_source_file>
AV-unprocessed.smi

> <i_m_source_file_index>
1531

> <i_lp_mmshare_version>
43012

> <i_f3d_flags>
0

> <s_epik_input>
W0NIM11bQ0gyXVtDQEBIXTFbQ0gyXVtDSDJdW0NIMl1bQ0gyXVtDQEhdMVtOSF1DKD1PKVtOSF1jMltjSF1ubihbY0hdMilbQ0gyXUMoPU8pW05IMl0=

> <s_epik_cmdline>
J2VwaWtfcHl0aG9uJywgJy1waCcsICc3LjAnLCAnLXRuJywgJzgnLCAnLW1hJywgJzIwMCcsICctbWV0YWxfYmluZGluZycsICctaW1hZScsICc8aW5maWxlLm1hZT4nLCAnLW9tYWUnLCAnPG91dGZpbGUubWFlPic=

> <r_lp_tautomer_probability>
1

> <r_epik_Ionization_Penalty>
4.83437e-05

> <r_epik_Ionization_Penalty_Charging>
0

> <r_epik_Ionization_Penalty_Neutral>
4.83437e-05

> <r_epik_State_Penalty>
-0

> <r_epik_Charging_Adjusted_Penalty>
0

> <i_epik_Tot_Q>
0

> <i_epik_Tot_abs_Q>
0

> <r_epik_Metal_State_Penalty>
-0

> <b_epik_Metal_Only>
0

> <s_lp_Force_Field>
OPLS_2005

> <r_lp_Energy>
15.1652

> <b_lp_Chiralities_Consistent>
1

> <s_lp_Variant>
AV-unprocessed.smi:1531-3

> <Gold.Version>
5.8.1

> <Gold.Id.Protein>
6NUR|6NUR_protein|mol2

> <Gold.PLP.Fitness>
43.4984

> <Gold.PLP.PLP>
-33.7863

> <Gold.PLP.part.hbond>
-5.0301

> <Gold.PLP.part.metal>
0.0000

> <Gold.PLP.part.buried>
-5.5348

> <Gold.PLP.part.nonpolar>
-25.9177

> <Gold.PLP.part.repulsive>
1.1919

> <Gold.PLP.ligand.clash>
0.0201

> <Gold.PLP.ligand.torsion>
1.2825

> <Gold.PLP.Chemscore.Hbond>
3.0865

> <Gold.PLP.Chemscore.CHOScore>
1.0000

> <Gold.PLP.Chemscore.Metal>
0.0000

> <Gold.Chemscore.Hbonds>
donor molecule, donor type, donor heavy atom, donor atom, acceptor molecule, acceptor atom, score
      L1  H     9    37       P1 10175  1.00
      L1  H    12    38       P1 10175  0.99
      P1  H 10192 10197       L1    20  0.30

> <Gold.PLP.Chemscore.Internal.Correction>
0.0376

> <Gold.Rescore>
     Score         DG    S(hbond)    S(metal)    S(lipo)     H(rot)  DE(clash)    DE(int)     intcor
     11.85     -15.55       2.45        0.00      62.73       2.13       0.79       2.91       ----

> <Gold.Chemscore.Fitness>
11.8541

> <Gold.Chemscore.DG>
-15.5503

> <Gold.Chemscore.ZeroCoef>
-5.4800

> <Gold.Chemscore.Hbond>
2.4529

> <Gold.Chemscore.Metal>
0.0000

> <Gold.Chemscore.Lipo>
62.7307

> <Gold.Chemscore.Internal_Hbond>
0.0000

> <Gold.Chemscore.DEClash>
0.7911

> <Gold.Chemscore.DEInternal>
2.9050

> <Gold.Chemscore.Rot>
2.1335

> <Gold.Chemscore.Internal.Correction>
   9.000000E+99

> <Gold.Chemscore.Hbonds>
donor molecule, donor type, donor heavy atom, donor atom, acceptor molecule, acceptor atom, score
      L1  H     9    37       P1 10175  0.96
      L1  H    12    38       P1 10175  0.93
      L1  H    19    42       P1 10952  0.01
      P1  H 10192 10197       L1    20  0.02

> <Gold.Chemscore.Hbond.Weighted>
-8.1926

> <Gold.Chemscore.Metal.Weighted>
-0.0000

> <Gold.Chemscore.Lipo.Weighted>
-7.3395

> <Gold.Chemscore.Internal_Hbond.Weighted>
0.0000

> <Gold.Chemscore.DEClash.Weighted>
0.7911

> <Gold.Chemscore.DEInternal.Weighted>
2.9050

> <Gold.Chemscore.Rot.Weighted>
5.4618

> <Gold.Chemscore.Internal.Correction.Weighted>
   9.000000E+99

> <Gold.Protein.RotatedTorsions>
[ 6907 6896 6895 6894 ] final   70.67 input  -60.11 | X-H torsion
[ 7974 7965 7964 7962 ] final   47.70 input  175.53 | X-H torsion
[ 8008 7997 7996 7995 ] final  167.87 input   59.86 | X-H torsion
[ 10167 10162 10161 10158 ] final  -87.77 input  -65.29 | X-H torsion
[ 10718 10713 10712 10709 ] final   -8.06 input   66.30 | X-H torsion
[ 10763 10752 10751 10750 ] final   -6.68 input  -60.55 | X-H torsion
[ 11005 11000 10999 10996 ] final   14.88 input  -57.11 | X-H torsion

> <Gold.Protein.ActiveResidues>
 VAL166  LYS551  ARG553  GLY616  TRP617  ASP618  TYR619  PRO620  LYS621  CYS622 
 ASP623  PHE694  ASN695  SER759  ASP760  ASP761  ALA762  ILE779  LEU786  VAL792 
 PHE793  MET794  SER795  GLU796  ALA797  LYS798  CYS799  TRP800  GLU811  SER814 

> <Gold.Protein.RotatedAtoms>
  152.4764  134.4834  159.9672 H   0  0  0  0  0  0  0  0  0  0  0  0  # atno 6907 bound_to 6896
  151.4849  133.3532  159.2852 H   0  0  0  0  0  0  0  0  0  0  0  0  # atno 6908 bound_to 6896
  150.8805  134.8222  159.7282 H   0  0  0  0  0  0  0  0  0  0  0  0  # atno 6909 bound_to 6896
  146.0273  139.4721  142.9860 H   0  0  0  0  0  0  0  0  0  0  0  0  # atno 7974 bound_to 7965
  156.1596  140.1605  156.8634 H   0  0  0  0  0  0  0  0  0  0  0  0  # atno 8008 bound_to 7997
  154.5148  140.0792  156.8096 H   0  0  0  0  0  0  0  0  0  0  0  0  # atno 8009 bound_to 7997
  155.3733  140.3401  155.4246 H   0  0  0  0  0  0  0  0  0  0  0  0  # atno 8010 bound_to 7997
  140.3812  143.2748  151.9381 H   0  0  0  0  0  0  0  0  0  0  0  0  # atno 10167 bound_to 10162
  156.7081  130.5113  149.5899 H   0  0  0  0  0  0  0  0  0  0  0  0  # atno 10718 bound_to 10713
  153.4157  135.7009  153.6328 H   0  0  0  0  0  0  0  0  0  0  0  0  # atno 10763 bound_to 10752
  153.4804  135.3695  155.2439 H   0  0  0  0  0  0  0  0  0  0  0  0  # atno 10764 bound_to 10752
  154.8719  135.4064  154.3517 H   0  0  0  0  0  0  0  0  0  0  0  0  # atno 10765 bound_to 10752
  140.4645  134.1093  155.7722 H   0  0  0  0  0  0  0  0  0  0  0  0  # atno 11005 bound_to 11000
  145.7098  141.0110  143.1459 LP  0  0  0  0  0  0  0  0  0  0  0  0  # atno 17320 bound_to 7965
  144.7015  139.8743  143.7443 LP  0  0  0  0  0  0  0  0  0  0  0  0  # atno 17321 bound_to 7965
  139.4795  144.5817  151.7922 LP  0  0  0  0  0  0  0  0  0  0  0  0  # atno 17342 bound_to 10162
  140.4936  144.1274  150.5955 LP  0  0  0  0  0  0  0  0  0  0  0  0  # atno 17343 bound_to 10162
  156.1680  130.6418  151.0802 LP  0  0  0  0  0  0  0  0  0  0  0  0  # atno 17370 bound_to 10713
  157.6947  131.0798  150.7005 LP  0  0  0  0  0  0  0  0  0  0  0  0  # atno 17371 bound_to 10713
  141.1606  133.8801  157.1859 LP  0  0  0  0  0  0  0  0  0  0  0  0  # atno 17394 bound_to 11000
  139.9924  135.0059  157.0005 LP  0  0  0  0  0  0  0  0  0  0  0  0  # atno 17395 bound_to 11000

$$$$
