AV-unprocessed.smi:563|AV-procd|sdf|2946|dock7
  -GOLD-   2262023443D 1   1.00000     0.00000
 Structure written by MMmdl.
 31 32  0  0  0  0  0  0  0  0  1 V2000
  153.1265  142.4803  162.0046 C   0  0  0  0  0  0  0  0  0  0  0  0
  152.5394  143.3616  160.9560 C   0  0  0  0  0  0  0  0  0  0  0  0
  152.4618  143.0241  159.6661 N   0  0  0  0  0  0  0  0  0  0  0  0
  151.8676  144.0199  158.8830 C   0  0  0  0  0  0  0  0  0  0  0  0
  151.7033  143.8151  157.4054 C   0  0  0  0  0  0  0  0  0  0  0  0
  151.0221  142.4745  157.1281 C   0  0  0  0  0  0  0  0  0  0  0  0
  151.5523  141.4267  157.4970 O   0  0  0  0  0  0  0  0  0  0  0  0
  149.8451  142.5219  156.4845 N   0  0  0  0  0  0  0  0  0  0  0  0
  149.0303  141.3615  156.1350 C   0  0  0  0  0  0  0  0  0  0  0  0
  149.7838  140.4356  155.1605 C   0  0  0  0  0  0  0  0  0  0  0  0
  148.8034  140.1232  154.0285 C   0  0  0  0  0  0  0  0  0  0  0  0
  147.9088  141.3560  153.9537 C   0  0  0  0  0  0  0  0  0  0  0  0
  147.7331  141.7783  155.4125 C   0  0  0  0  0  0  0  0  0  0  0  0
  151.4969  145.1262  159.6071 C   0  0  0  0  0  0  0  0  0  0  0  0
  151.8739  144.9536  161.2989 S   0  0  0  0  0  0  0  0  0  0  0  0
  153.7855  141.7369  161.5552 H   0  0  0  0  0  0  0  0  0  0  0  0
  152.3321  141.9654  162.5451 H   0  0  0  0  0  0  0  0  0  0  0  0
  153.7044  143.0745  162.7126 H   0  0  0  0  0  0  0  0  0  0  0  0
  151.1032  144.6169  156.9732 H   0  0  0  0  0  0  0  0  0  0  0  0
  152.6676  143.8464  156.8961 H   0  0  0  0  0  0  0  0  0  0  0  0
  149.4882  143.4278  156.2162 H   0  0  0  0  0  0  0  0  0  0  0  0
  148.7793  140.8057  157.0405 H   0  0  0  0  0  0  0  0  0  0  0  0
  150.6558  140.9425  154.7435 H   0  0  0  0  0  0  0  0  0  0  0  0
  150.1429  139.5293  155.6491 H   0  0  0  0  0  0  0  0  0  0  0  0
  149.3050  139.9093  153.0844 H   0  0  0  0  0  0  0  0  0  0  0  0
  148.2030  139.2512  154.2917 H   0  0  0  0  0  0  0  0  0  0  0  0
  148.4180  142.1465  153.4003 H   0  0  0  0  0  0  0  0  0  0  0  0
  146.9592  141.1582  153.4559 H   0  0  0  0  0  0  0  0  0  0  0  0
  146.8925  141.2342  155.8451 H   0  0  0  0  0  0  0  0  0  0  0  0
  147.5045  142.8410  155.5040 H   0  0  0  0  0  0  0  0  0  0  0  0
  151.0233  146.0279  159.2480 H   0  0  0  0  0  0  0  0  0  0  0  0
  1  2  1  0  0  0  0
  1 16  1  0  0  0  0
  1 17  1  0  0  0  0
  1 18  1  0  0  0  0
  2 15  1  0  0  0  0
  2  3  2  0  0  0  0
  3  4  1  0  0  0  0
  4  5  1  0  0  0  0
  4 14  2  0  0  0  0
  5  6  1  0  0  0  0
  5 19  1  0  0  0  0
  5 20  1  0  0  0  0
  6  7  2  0  0  0  0
  6  8  1  0  0  0  0
  8  9  1  0  0  0  0
  8 21  1  0  0  0  0
  9 13  1  0  0  0  0
  9 10  1  0  0  0  0
  9 22  1  0  0  0  0
 10 11  1  0  0  0  0
 10 23  1  0  0  0  0
 10 24  1  0  0  0  0
 11 12  1  0  0  0  0
 11 25  1  0  0  0  0
 11 26  1  0  0  0  0
 12 13  1  0  0  0  0
 12 27  1  0  0  0  0
 12 28  1  0  0  0  0
 13 29  1  0  0  0  0
 13 30  1  0  0  0  0
 14 15  1  0  0  0  0
 14 31  1  0  0  0  0
M  END
> <s_m_source_file>
AV-unprocessed.smi

> <i_m_source_file_index>
563

> <i_lp_mmshare_version>
43012

> <i_f3d_flags>
0

> <s_epik_input>
W0NIM11jMW5jKFtjSF1zMSlbQ0gyXUMoPU8pW05IXVtDSF0yW0NIMl1bQ0gyXVtDSDJdW0NIMl0y

> <s_epik_cmdline>
J2VwaWtfcHl0aG9uJywgJy1waCcsICc3LjAnLCAnLXRuJywgJzgnLCAnLW1hJywgJzIwMCcsICctbWV0YWxfYmluZGluZycsICctaW1hZScsICc8aW5maWxlLm1hZT4nLCAnLW9tYWUnLCAnPG91dGZpbGUubWFlPic=

> <r_lp_tautomer_probability>
1

> <r_epik_Ionization_Penalty>
6.26871e-05

> <r_epik_Ionization_Penalty_Charging>
0

> <r_epik_Ionization_Penalty_Neutral>
6.26871e-05

> <r_epik_State_Penalty>
-0

> <r_epik_Charging_Adjusted_Penalty>
0

> <i_epik_Tot_Q>
0

> <i_epik_Tot_abs_Q>
0

> <r_epik_Metal_State_Penalty>
-0

> <b_epik_Metal_Only>
0

> <s_lp_Force_Field>
OPLS_2005

> <r_lp_Energy>
15.9106

> <b_lp_Chiralities_Consistent>
1

> <s_lp_Variant>
AV-unprocessed.smi:563-1

> <Gold.Version>
5.8.1

> <Gold.Id.Protein>
6NUR|6NUR_protein|mol2

> <Gold.PLP.Fitness>
39.0097

> <Gold.PLP.PLP>
-36.1653

> <Gold.PLP.part.hbond>
-1.0000

> <Gold.PLP.part.metal>
0.0000

> <Gold.PLP.part.buried>
-0.9401

> <Gold.PLP.part.nonpolar>
-34.7612

> <Gold.PLP.part.repulsive>
0.0837

> <Gold.PLP.ligand.clash>
0.0000

> <Gold.PLP.ligand.torsion>
0.0795

> <Gold.PLP.Chemscore.Hbond>
1.0000

> <Gold.PLP.Chemscore.CHOScore>
0.0000

> <Gold.PLP.Chemscore.Metal>
0.0000

> <Gold.Chemscore.Hbonds>
donor molecule, donor type, donor heavy atom, donor atom, acceptor molecule, acceptor atom, score
      L1  H     8    21       P1  8028  0.99

> <Gold.PLP.Chemscore.Internal.Correction>
0.0034

> <Gold.Rescore>
     Score         DG    S(hbond)    S(metal)    S(lipo)     H(rot)  DE(clash)    DE(int)     intcor
     15.31     -17.63       0.99        0.00     103.81       1.29       0.94       1.38       ----

> <Gold.Chemscore.Fitness>
15.3067

> <Gold.Chemscore.DG>
-17.6273

> <Gold.Chemscore.ZeroCoef>
-5.4800

> <Gold.Chemscore.Hbond>
0.9928

> <Gold.Chemscore.Metal>
0.0000

> <Gold.Chemscore.Lipo>
103.8060

> <Gold.Chemscore.Internal_Hbond>
0.0000

> <Gold.Chemscore.DEClash>
0.9405

> <Gold.Chemscore.DEInternal>
1.3801

> <Gold.Chemscore.Rot>
1.2946

> <Gold.Chemscore.Internal.Correction>
   9.000000E+99

> <Gold.Chemscore.Hbonds>
donor molecule, donor type, donor heavy atom, donor atom, acceptor molecule, acceptor atom, score
      L1  H     8    21       P1  8028  0.93

> <Gold.Chemscore.Hbond.Weighted>
-3.3161

> <Gold.Chemscore.Metal.Weighted>
-0.0000

> <Gold.Chemscore.Lipo.Weighted>
-12.1453

> <Gold.Chemscore.Internal_Hbond.Weighted>
0.0000

> <Gold.Chemscore.DEClash.Weighted>
0.9405

> <Gold.Chemscore.DEInternal.Weighted>
1.3801

> <Gold.Chemscore.Rot.Weighted>
3.3141

> <Gold.Chemscore.Internal.Correction.Weighted>
   9.000000E+99

> <Gold.Protein.RotatedTorsions>
[ 6907 6896 6895 6894 ] final -128.90 input  -60.11 | X-H torsion
[ 7974 7965 7964 7962 ] final   -2.43 input  175.53 | X-H torsion
[ 8008 7997 7996 7995 ] final  126.98 input   59.86 | X-H torsion
[ 10167 10162 10161 10158 ] final   73.39 input  -65.29 | X-H torsion
[ 10718 10713 10712 10709 ] final  -89.55 input   66.30 | X-H torsion
[ 10763 10752 10751 10750 ] final  -57.44 input  -60.55 | X-H torsion
[ 11005 11000 10999 10996 ] final   53.51 input  -57.11 | X-H torsion

> <Gold.Protein.ActiveResidues>
 VAL166  LYS551  ARG553  GLY616  TRP617  ASP618  TYR619  PRO620  LYS621  CYS622 
 ASP623  PHE694  ASN695  SER759  ASP760  ASP761  ALA762  ILE779  LEU786  VAL792 
 PHE793  MET794  SER795  GLU796  ALA797  LYS798  CYS799  TRP800  GLU811  SER814 

> <Gold.Protein.RotatedAtoms>
  150.9229  133.6859  159.2827 H   0  0  0  0  0  0  0  0  0  0  0  0  # atno 6907 bound_to 6896
  151.4307  135.1008  159.9651 H   0  0  0  0  0  0  0  0  0  0  0  0  # atno 6908 bound_to 6896
  152.4988  133.8660  159.7329 H   0  0  0  0  0  0  0  0  0  0  0  0  # atno 6909 bound_to 6896
  146.2404  140.1570  142.8333 H   0  0  0  0  0  0  0  0  0  0  0  0  # atno 7974 bound_to 7965
  156.2878  140.2680  156.2198 H   0  0  0  0  0  0  0  0  0  0  0  0  # atno 8008 bound_to 7997
  155.0179  140.0387  157.2444 H   0  0  0  0  0  0  0  0  0  0  0  0  # atno 8009 bound_to 7997
  154.7461  140.2734  155.6337 H   0  0  0  0  0  0  0  0  0  0  0  0  # atno 8010 bound_to 7997
  140.0250  144.5511  150.7552 H   0  0  0  0  0  0  0  0  0  0  0  0  # atno 10167 bound_to 10162
  155.9985  130.4876  150.5188 H   0  0  0  0  0  0  0  0  0  0  0  0  # atno 10718 bound_to 10713
  154.2225  135.6375  153.5149 H   0  0  0  0  0  0  0  0  0  0  0  0  # atno 10763 bound_to 10752
  152.9966  135.5500  154.6099 H   0  0  0  0  0  0  0  0  0  0  0  0  # atno 10764 bound_to 10752
  154.5562  135.2905  155.0936 H   0  0  0  0  0  0  0  0  0  0  0  0  # atno 10765 bound_to 10752
  140.0761  134.5403  155.8995 H   0  0  0  0  0  0  0  0  0  0  0  0  # atno 11005 bound_to 11000
  145.0121  140.8723  143.5218 LP  0  0  0  0  0  0  0  0  0  0  0  0  # atno 17320 bound_to 7965
  145.1605  139.2461  143.5394 LP  0  0  0  0  0  0  0  0  0  0  0  0  # atno 17321 bound_to 7965
  140.7326  143.2708  151.3895 LP  0  0  0  0  0  0  0  0  0  0  0  0  # atno 17342 bound_to 10162
  139.6114  144.1090  152.2302 LP  0  0  0  0  0  0  0  0  0  0  0  0  # atno 17343 bound_to 10162
  157.3152  131.0671  151.1972 LP  0  0  0  0  0  0  0  0  0  0  0  0  # atno 17370 bound_to 10713
  157.2904  130.6793  149.6111 LP  0  0  0  0  0  0  0  0  0  0  0  0  # atno 17371 bound_to 10713
  141.2030  133.6629  156.6037 LP  0  0  0  0  0  0  0  0  0  0  0  0  # atno 17394 bound_to 11000
  140.3556  134.7731  157.4498 LP  0  0  0  0  0  0  0  0  0  0  0  0  # atno 17395 bound_to 11000

$$$$
