AV-unprocessed.smi:1144|AV-procd|sdf|4877|dock3
  -GOLD-   22720 3453D 1   1.00000     0.00000
 Structure written by MMmdl.
 35 36  0  0  0  0  0  0  0  0  2 V2000
  147.7926  141.3619  156.6025 C   0  0  0  0  0  0  0  0  0  0  0  0
  148.9398  141.9005  155.8361 N   0  3  2  0  0  0  0  0  0  0  0  0
  148.9273  141.5260  154.4024 C   0  0  0  0  0  0  0  0  0  0  0  0
  149.4279  140.0849  154.1961 C   0  0  0  0  0  0  0  0  0  0  0  0
  150.7180  139.9430  154.7778 O   0  0  0  0  0  0  0  0  0  0  0  0
  150.7125  140.1643  156.1852 C   0  0  1  0  0  0  0  0  0  0  0  0
  152.1319  139.9153  156.7127 C   0  0  0  0  0  0  0  0  0  0  0  0
  152.1365  139.6324  158.1402 N   0  0  0  0  0  0  0  0  0  0  0  0
  152.4476  140.5658  159.1106 C   0  0  0  0  0  0  0  0  0  0  0  0
  153.1456  140.1606  160.1777 N   0  0  0  0  0  0  0  0  0  0  0  0
  153.4346  141.0923  161.1119 C   0  0  0  0  0  0  0  0  0  0  0  0
  153.0220  142.4322  160.9741 C   0  0  0  0  0  0  0  0  0  0  0  0
  152.2908  142.7463  159.8082 C   0  0  0  0  0  0  0  0  0  0  0  0
  151.7956  144.1624  159.5572 C   0  0  0  0  0  0  0  0  0  0  0  0
  152.4688  144.6943  158.5371 F   0  0  0  0  0  0  0  0  0  0  0  0
  150.5000  144.1310  159.2467 F   0  0  0  0  0  0  0  0  0  0  0  0
  151.9580  144.9439  160.6267 F   0  0  0  0  0  0  0  0  0  0  0  0
  152.0081  141.8041  158.8775 N   0  0  0  0  0  0  0  0  0  0  0  0
  150.2581  141.6161  156.4523 C   0  0  0  0  0  0  0  0  0  0  0  0
  147.7973  140.2726  156.6344 H   0  0  0  0  0  0  0  0  0  0  0  0
  146.8515  141.6831  156.1548 H   0  0  0  0  0  0  0  0  0  0  0  0
  147.8112  141.7312  157.6283 H   0  0  0  0  0  0  0  0  0  0  0  0
  147.9287  141.6553  153.9833 H   0  0  0  0  0  0  0  0  0  0  0  0
  149.5804  142.2138  153.8637 H   0  0  0  0  0  0  0  0  0  0  0  0
  148.7373  139.3572  154.6245 H   0  0  0  0  0  0  0  0  0  0  0  0
  149.4973  139.8632  153.1310 H   0  0  0  0  0  0  0  0  0  0  0  0
  150.0268  139.4657  156.6680 H   0  0  0  0  0  0  0  0  0  0  0  0
  152.5963  139.0878  156.1747 H   0  0  0  0  0  0  0  0  0  0  0  0
  152.7483  140.7978  156.5370 H   0  0  0  0  0  0  0  0  0  0  0  0
  151.9947  138.6800  158.4439 H   0  0  0  0  0  0  0  0  0  0  0  0
  153.9982  140.7668  161.9736 H   0  0  0  0  0  0  0  0  0  0  0  0
  153.2531  143.1777  161.7203 H   0  0  0  0  0  0  0  0  0  0  0  0
  150.9861  142.3087  156.0275 H   0  0  0  0  0  0  0  0  0  0  0  0
  150.2239  141.8224  157.5230 H   0  0  0  0  0  0  0  0  0  0  0  0
  148.8256  142.9038  155.8664 H   0  0  0  0  0  0  0  0  0  0  0  0
  1  2  1  0  0  0  0
  1 20  1  0  0  0  0
  1 21  1  0  0  0  0
  1 22  1  0  0  0  0
  2 19  1  0  0  0  0
  2  3  1  0  0  0  0
  2 35  1  0  0  0  0
  3  4  1  0  0  0  0
  3 23  1  0  0  0  0
  3 24  1  0  0  0  0
  4  5  1  0  0  0  0
  4 25  1  0  0  0  0
  4 26  1  0  0  0  0
  5  6  1  0  0  0  0
  6  7  1  0  0  0  0
  6 19  1  0  0  0  0
  6 27  1  0  0  0  0
  7  8  1  0  0  0  0
  7 28  1  0  0  0  0
  7 29  1  0  0  0  0
  8  9  1  0  0  0  0
  8 30  1  0  0  0  0
  9 18  1  0  0  0  0
  9 10  2  0  0  0  0
 10 11  1  0  0  0  0
 11 12  2  0  0  0  0
 11 31  1  0  0  0  0
 12 13  1  0  0  0  0
 12 32  1  0  0  0  0
 13 14  1  0  0  0  0
 13 18  2  0  0  0  0
 14 15  1  0  0  0  0
 14 16  1  0  0  0  0
 14 17  1  0  0  0  0
 19 33  1  0  0  0  0
 19 34  1  0  0  0  0
M  CHG  1   2   1
M  END
> <s_m_source_file>
AV-unprocessed.smi

> <i_m_source_file_index>
1144

> <i_lp_mmshare_version>
43012

> <i_f3d_flags>
0

> <s_epik_input>
W0NIM11OMVtDSDJdW0NIMl1PW0NASF0oW0NIMl0xKVtDSDJdW05IXWMybltjSF1bY0hdYyhuMilDKEYpKEYpRg==

> <s_epik_cmdline>
J2VwaWtfcHl0aG9uJywgJy1waCcsICc3LjAnLCAnLXRuJywgJzgnLCAnLW1hJywgJzIwMCcsICctbWV0YWxfYmluZGluZycsICctaW1hZScsICc8aW5maWxlLm1hZT4nLCAnLW9tYWUnLCAnPG91dGZpbGUubWFlPic=

> <r_lp_tautomer_probability>
1

> <r_epik_Ionization_Penalty>
0.178506

> <r_epik_Ionization_Penalty_Charging>
0.178504

> <r_epik_Ionization_Penalty_Neutral>
2.47225e-06

> <r_epik_State_Penalty>
0.167974

> <r_epik_Charging_Adjusted_Penalty>
0.346478

> <i_epik_Tot_Q>
1

> <i_epik_Tot_abs_Q>
1

> <r_epik_Metal_State_Penalty>
0.167974

> <b_epik_Metal_Only>
0

> <s_lp_Force_Field>
OPLS_2005

> <r_lp_Energy>
13.0579

> <b_lp_Chiralities_Consistent>
1

> <s_lp_Variant>
AV-unprocessed.smi:1144-2

> <Gold.Version>
5.8.1

> <Gold.Id.Protein>
6NUR|6NUR_protein|mol2

> <Gold.PLP.Fitness>
51.9292

> <Gold.PLP.PLP>
-44.7123

> <Gold.PLP.part.hbond>
-2.0000

> <Gold.PLP.part.metal>
0.0000

> <Gold.PLP.part.buried>
-4.3989

> <Gold.PLP.part.nonpolar>
-38.1455

> <Gold.PLP.part.repulsive>
0.2488

> <Gold.PLP.ligand.clash>
0.0065

> <Gold.PLP.ligand.torsion>
0.8911

> <Gold.PLP.Chemscore.Hbond>
3.0000

> <Gold.PLP.Chemscore.CHOScore>
0.0000

> <Gold.PLP.Chemscore.Metal>
0.0000

> <Gold.Chemscore.Hbonds>
donor molecule, donor type, donor heavy atom, donor atom, acceptor molecule, acceptor atom, score
      L1  H     2    35       P1  8028  2.00
      P1  H  7989  7998       L1     5  0.85

> <Gold.PLP.Chemscore.Internal.Correction>
0.0055

> <Gold.Rescore>
     Score         DG    S(hbond)    S(metal)    S(lipo)     H(rot)  DE(clash)    DE(int)     intcor
     16.49     -17.44       1.85        0.00      78.78       1.34       0.03       0.91       ----

> <Gold.Chemscore.Fitness>
16.4946

> <Gold.Chemscore.DG>
-17.4375

> <Gold.Chemscore.ZeroCoef>
-5.4800

> <Gold.Chemscore.Hbond>
1.8461

> <Gold.Chemscore.Metal>
0.0000

> <Gold.Chemscore.Lipo>
78.7751

> <Gold.Chemscore.Internal_Hbond>
0.0000

> <Gold.Chemscore.DEClash>
0.0290

> <Gold.Chemscore.DEInternal>
0.9139

> <Gold.Chemscore.Rot>
1.3379

> <Gold.Chemscore.Internal.Correction>
   9.000000E+99

> <Gold.Chemscore.Hbonds>
donor molecule, donor type, donor heavy atom, donor atom, acceptor molecule, acceptor atom, score
      L1  H     2    35       P1  8028  1.00
      P1  H  7989  7998       L1     5  0.15

> <Gold.Chemscore.Hbond.Weighted>
-6.1658

> <Gold.Chemscore.Metal.Weighted>
-0.0000

> <Gold.Chemscore.Lipo.Weighted>
-9.2167

> <Gold.Chemscore.Internal_Hbond.Weighted>
0.0000

> <Gold.Chemscore.DEClash.Weighted>
0.0290

> <Gold.Chemscore.DEInternal.Weighted>
0.9139

> <Gold.Chemscore.Rot.Weighted>
3.4250

> <Gold.Chemscore.Internal.Correction.Weighted>
   9.000000E+99

> <Gold.Protein.RotatedTorsions>
[ 6907 6896 6895 6894 ] final  -80.99 input  -60.11 | X-H torsion
[ 7974 7965 7964 7962 ] final  -91.13 input  175.53 | X-H torsion
[ 8008 7997 7996 7995 ] final  -80.81 input   59.86 | X-H torsion
[ 10167 10162 10161 10158 ] final  169.18 input  -65.29 | X-H torsion
[ 10718 10713 10712 10709 ] final   57.05 input   66.30 | X-H torsion
[ 10763 10752 10751 10750 ] final -149.61 input  -60.55 | X-H torsion
[ 11005 11000 10999 10996 ] final   -6.41 input  -57.11 | X-H torsion

> <Gold.Protein.ActiveResidues>
 VAL166  LYS551  ARG553  GLY616  TRP617  ASP618  TYR619  PRO620  LYS621  CYS622 
 ASP623  PHE694  ASN695  SER759  ASP760  ASP761  ALA762  ILE779  LEU786  VAL792 
 PHE793  MET794  SER795  GLU796  ALA797  LYS798  CYS799  TRP800  GLU811  SER814 

> <Gold.Protein.RotatedAtoms>
  150.6919  134.3885  159.5065 H   0  0  0  0  0  0  0  0  0  0  0  0  # atno 6907 bound_to 6896
  152.1677  134.8857  160.0546 H   0  0  0  0  0  0  0  0  0  0  0  0  # atno 6908 bound_to 6896
  151.9895  133.3751  159.4175 H   0  0  0  0  0  0  0  0  0  0  0  0  # atno 6909 bound_to 6896
  145.4172  140.9549  143.2201 H   0  0  0  0  0  0  0  0  0  0  0  0  # atno 7974 bound_to 7965
  154.5920  140.0657  156.9251 H   0  0  0  0  0  0  0  0  0  0  0  0  # atno 8008 bound_to 7997
  155.2279  140.3335  155.4289 H   0  0  0  0  0  0  0  0  0  0  0  0  # atno 8009 bound_to 7997
  156.2262  140.1820  156.7341 H   0  0  0  0  0  0  0  0  0  0  0  0  # atno 8010 bound_to 7997
  139.4986  144.3734  151.9700 H   0  0  0  0  0  0  0  0  0  0  0  0  # atno 10167 bound_to 10162
  157.5483  130.8747  149.8924 H   0  0  0  0  0  0  0  0  0  0  0  0  # atno 10718 bound_to 10713
  154.8167  135.3305  154.7156 H   0  0  0  0  0  0  0  0  0  0  0  0  # atno 10763 bound_to 10752
  153.7795  135.6919  153.4895 H   0  0  0  0  0  0  0  0  0  0  0  0  # atno 10764 bound_to 10752
  153.1990  135.4523  155.0190 H   0  0  0  0  0  0  0  0  0  0  0  0  # atno 10765 bound_to 10752
  140.7017  133.8984  155.8688 H   0  0  0  0  0  0  0  0  0  0  0  0  # atno 11005 bound_to 11000
  144.8269  139.5694  143.6961 LP  0  0  0  0  0  0  0  0  0  0  0  0  # atno 17320 bound_to 7965
  146.2675  139.6554  142.9319 LP  0  0  0  0  0  0  0  0  0  0  0  0  # atno 17321 bound_to 7965
  140.3170  144.3472  150.6019 LP  0  0  0  0  0  0  0  0  0  0  0  0  # atno 17342 bound_to 10162
  140.5753  143.2177  151.7526 LP  0  0  0  0  0  0  0  0  0  0  0  0  # atno 17343 bound_to 10162
  156.0554  130.3709  150.1103 LP  0  0  0  0  0  0  0  0  0  0  0  0  # atno 17370 bound_to 10713
  156.9278  130.9704  151.3538 LP  0  0  0  0  0  0  0  0  0  0  0  0  # atno 17371 bound_to 10713
  141.0158  134.0957  157.4173 LP  0  0  0  0  0  0  0  0  0  0  0  0  # atno 17394 bound_to 11000
  139.8895  135.0105  156.6683 LP  0  0  0  0  0  0  0  0  0  0  0  0  # atno 17395 bound_to 11000

$$$$
