AV-unprocessed.smi:1645|AV-procd|sdf|6609|dock8
  -GOLD-   22720 7313D 1   1.00000     0.00000
 Structure written by MMmdl.
 56 59  0  0  0  0  0  0  0  0  3 V2000
  146.7091  139.6074  154.2947 O   0  0  0  0  0  0  0  0  0  0  0  0
  147.3295  138.5973  154.6234 C   0  0  0  0  0  0  0  0  0  0  0  0
  148.3649  138.5596  155.4804 N   0  0  0  0  0  0  0  0  0  0  0  0
  149.0247  139.6362  156.1355 C   0  0  0  0  0  0  0  0  0  0  0  0
  149.9484  139.3133  157.1514 C   0  0  0  0  0  0  0  0  0  0  0  0
  150.6377  140.3395  157.8291 C   0  0  0  0  0  0  0  0  0  0  0  0
  150.3955  141.6949  157.4924 C   0  0  0  0  0  0  0  0  0  0  0  0
  151.0547  142.7879  158.0991 N   0  0  0  0  0  0  0  0  0  0  0  0
  150.2098  143.8778  158.5977 C   0  0  0  0  0  0  0  0  0  0  0  0
  151.0179  145.1737  158.7801 C   0  0  0  0  0  0  0  0  0  0  0  0
  152.2585  144.9344  159.6521 C   0  0  0  0  0  0  0  0  0  0  0  0
  153.1071  143.8043  159.0532 C   0  0  0  0  0  0  0  0  0  0  0  0
  152.2764  142.5235  158.8615 C   0  0  0  0  0  0  0  0  0  0  0  0
  149.4871  141.9547  156.5211 N   0  3  0  0  0  0  0  0  0  0  0  0
  148.8055  141.0043  155.8460 C   0  0  0  0  0  0  0  0  0  0  0  0
  147.0448  137.3739  154.1533 N   0  0  0  0  0  0  0  0  0  0  0  0
  146.0099  137.0696  153.1653 C   0  0  1  0  0  0  0  0  0  0  0  0
  146.2354  137.7844  151.8190 C   0  0  0  0  0  0  0  0  0  0  0  0
  145.8624  136.7416  150.7602 C   0  0  0  0  0  0  0  0  0  0  0  0
  146.2669  135.4787  151.3885 N   0  3  2  0  0  0  0  0  0  0  0  0
  145.8429  134.2096  150.7635 C   0  0  0  0  0  0  0  0  0  0  0  0
  146.5472  133.0473  151.4960 C   0  0  0  0  0  0  0  0  0  0  0  0
  146.3394  133.1081  153.0269 C   0  0  0  0  0  0  0  0  0  0  0  0
  146.6769  134.5026  153.5986 C   0  0  0  0  0  0  0  0  0  0  0  0
  145.8936  135.5680  152.8109 C   0  0  1  0  0  0  0  0  0  0  0  0
  148.7778  137.6505  155.6298 H   0  0  0  0  0  0  0  0  0  0  0  0
  150.1374  138.2816  157.4104 H   0  0  0  0  0  0  0  0  0  0  0  0
  151.3382  140.0631  158.6025 H   0  0  0  0  0  0  0  0  0  0  0  0
  149.3746  144.0831  157.9286 H   0  0  0  0  0  0  0  0  0  0  0  0
  149.7786  143.5724  159.5518 H   0  0  0  0  0  0  0  0  0  0  0  0
  151.3253  145.5521  157.8042 H   0  0  0  0  0  0  0  0  0  0  0  0
  150.3899  145.9449  159.2268 H   0  0  0  0  0  0  0  0  0  0  0  0
  152.8480  145.8487  159.7285 H   0  0  0  0  0  0  0  0  0  0  0  0
  151.9538  144.6714  160.6658 H   0  0  0  0  0  0  0  0  0  0  0  0
  153.5106  144.1236  158.0913 H   0  0  0  0  0  0  0  0  0  0  0  0
  153.9649  143.5997  159.6946 H   0  0  0  0  0  0  0  0  0  0  0  0
  152.0074  142.1010  159.8306 H   0  0  0  0  0  0  0  0  0  0  0  0
  152.8966  141.7902  158.3455 H   0  0  0  0  0  0  0  0  0  0  0  0
  148.1173  141.3873  155.1084 H   0  0  0  0  0  0  0  0  0  0  0  0
  147.6039  136.5990  154.4792 H   0  0  0  0  0  0  0  0  0  0  0  0
  145.0448  137.4009  153.5545 H   0  0  0  0  0  0  0  0  0  0  0  0
  145.6511  138.7004  151.7257 H   0  0  0  0  0  0  0  0  0  0  0  0
  147.2869  138.0524  151.7032 H   0  0  0  0  0  0  0  0  0  0  0  0
  144.7853  136.7394  150.5847 H   0  0  0  0  0  0  0  0  0  0  0  0
  146.3699  136.9066  149.8092 H   0  0  0  0  0  0  0  0  0  0  0  0
  144.7582  134.1059  150.8196 H   0  0  0  0  0  0  0  0  0  0  0  0
  146.1153  134.2090  149.7075 H   0  0  0  0  0  0  0  0  0  0  0  0
  146.1930  132.0917  151.1079 H   0  0  0  0  0  0  0  0  0  0  0  0
  147.6161  133.0864  151.2814 H   0  0  0  0  0  0  0  0  0  0  0  0
  145.3003  132.8683  153.2562 H   0  0  0  0  0  0  0  0  0  0  0  0
  146.9446  132.3453  153.5176 H   0  0  0  0  0  0  0  0  0  0  0  0
  146.4166  134.5387  154.6568 H   0  0  0  0  0  0  0  0  0  0  0  0
  147.7496  134.6871  153.5267 H   0  0  0  0  0  0  0  0  0  0  0  0
  144.8322  135.3210  152.8854 H   0  0  0  0  0  0  0  0  0  0  0  0
  147.2766  135.4828  151.3670 H   0  0  0  0  0  0  0  0  0  0  0  0
  149.3106  142.9299  156.2786 H   0  0  0  0  0  0  0  0  0  0  0  0
  1  2  2  0  0  0  0
  2  3  1  0  0  0  0
  2 16  1  0  0  0  0
  3  4  1  0  0  0  0
  3 26  1  0  0  0  0
  4 15  1  0  0  0  0
  4  5  2  0  0  0  0
  5  6  1  0  0  0  0
  5 27  1  0  0  0  0
  6  7  2  0  0  0  0
  6 28  1  0  0  0  0
  7  8  1  0  0  0  0
  7 14  1  0  0  0  0
  8 13  1  0  0  0  0
  8  9  1  0  0  0  0
  9 10  1  0  0  0  0
  9 29  1  0  0  0  0
  9 30  1  0  0  0  0
 10 11  1  0  0  0  0
 10 31  1  0  0  0  0
 10 32  1  0  0  0  0
 11 12  1  0  0  0  0
 11 33  1  0  0  0  0
 11 34  1  0  0  0  0
 12 13  1  0  0  0  0
 12 35  1  0  0  0  0
 12 36  1  0  0  0  0
 13 37  1  0  0  0  0
 13 38  1  0  0  0  0
 14 15  2  0  0  0  0
 14 56  1  0  0  0  0
 15 39  1  0  0  0  0
 16 17  1  0  0  0  0
 16 40  1  0  0  0  0
 17 25  1  0  0  0  0
 17 18  1  0  0  0  0
 17 41  1  0  0  0  0
 18 19  1  0  0  0  0
 18 42  1  0  0  0  0
 18 43  1  0  0  0  0
 19 20  1  0  0  0  0
 19 44  1  0  0  0  0
 19 45  1  0  0  0  0
 20 25  1  0  0  0  0
 20 21  1  0  0  0  0
 20 55  1  0  0  0  0
 21 22  1  0  0  0  0
 21 46  1  0  0  0  0
 21 47  1  0  0  0  0
 22 23  1  0  0  0  0
 22 48  1  0  0  0  0
 22 49  1  0  0  0  0
 23 24  1  0  0  0  0
 23 50  1  0  0  0  0
 23 51  1  0  0  0  0
 24 25  1  0  0  0  0
 24 52  1  0  0  0  0
 24 53  1  0  0  0  0
 25 54  1  0  0  0  0
M  CHG  1  14   1
M  CHG  1  20   1
M  END
> <s_m_source_file>
AV-unprocessed.smi

> <i_m_source_file_index>
1645

> <i_lp_mmshare_version>
43012

> <i_f3d_flags>
0

> <s_epik_input>
W0NIMl0xW0NIMl1bQ0gyXVtDSDJdW0NASF0oTjEyKVtDQEBIXShbQ0gyXVtDSDJdMilbTkhdQyg9TylbTkhdYzNbY0hdW2NIXWMobltjSF0zKU40W0NIMl1bQ0gyXVtDSDJdW0NIMl1bQ0gyXTQ=

> <s_epik_cmdline>
J2VwaWtfcHl0aG9uJywgJy1waCcsICc3LjAnLCAnLXRuJywgJzgnLCAnLW1hJywgJzIwMCcsICctbWV0YWxfYmluZGluZycsICctaW1hZScsICc8aW5maWxlLm1hZT4nLCAnLW9tYWUnLCAnPG91dGZpbGUubWFlPic=

> <r_lp_tautomer_probability>
0.999994

> <r_epik_Ionization_Penalty>
1.26838

> <r_epik_Ionization_Penalty_Charging>
1.26836

> <r_epik_Ionization_Penalty_Neutral>
1.95562e-05

> <r_epik_State_Penalty>
1.33841

> <r_epik_Charging_Adjusted_Penalty>
2.60677

> <i_epik_Tot_Q>
2

> <i_epik_Tot_abs_Q>
2

> <r_epik_Metal_State_Penalty>
1.40601

> <b_epik_Metal_Only>
0

> <s_lp_Force_Field>
OPLS_2005

> <r_lp_Energy>
64.599

> <b_lp_Chiralities_Consistent>
1

> <s_lp_Variant>
AV-unprocessed.smi:1645-10

> <Gold.Version>
5.8.1

> <Gold.Id.Protein>
6NUR|6NUR_protein|mol2

> <Gold.PLP.Fitness>
49.0362

> <Gold.PLP.PLP>
-37.8243

> <Gold.PLP.part.hbond>
-2.4127

> <Gold.PLP.part.metal>
0.0000

> <Gold.PLP.part.buried>
-1.2632

> <Gold.PLP.part.nonpolar>
-34.7445

> <Gold.PLP.part.repulsive>
0.2406

> <Gold.PLP.ligand.clash>
0.0000

> <Gold.PLP.ligand.torsion>
0.5227

> <Gold.PLP.Chemscore.Hbond>
4.0000

> <Gold.PLP.Chemscore.CHOScore>
0.0000

> <Gold.PLP.Chemscore.Metal>
0.0000

> <Gold.Chemscore.Hbonds>
donor molecule, donor type, donor heavy atom, donor atom, acceptor molecule, acceptor atom, score
      L1  H    14    56       P1  8028  2.00
      L1  H    20    55       P1  7948  2.00

> <Gold.PLP.Chemscore.Internal.Correction>
0.2574

> <Gold.Rescore>
     Score         DG    S(hbond)    S(metal)    S(lipo)     H(rot)  DE(clash)    DE(int)     intcor
     20.15     -22.36       1.88        0.00     112.58       1.00       0.54       1.67       ----

> <Gold.Chemscore.Fitness>
20.1540

> <Gold.Chemscore.DG>
-22.3630

> <Gold.Chemscore.ZeroCoef>
-5.4800

> <Gold.Chemscore.Hbond>
1.8776

> <Gold.Chemscore.Metal>
0.0000

> <Gold.Chemscore.Lipo>
112.5797

> <Gold.Chemscore.Internal_Hbond>
0.0000

> <Gold.Chemscore.DEClash>
0.5359

> <Gold.Chemscore.DEInternal>
1.6731

> <Gold.Chemscore.Rot>
1.0000

> <Gold.Chemscore.Internal.Correction>
   9.000000E+99

> <Gold.Chemscore.Hbonds>
donor molecule, donor type, donor heavy atom, donor atom, acceptor molecule, acceptor atom, score
      L1  H    14    56       P1  8028  0.99
      L1  H    20    55       P1  7948  0.90

> <Gold.Chemscore.Hbond.Weighted>
-6.2711

> <Gold.Chemscore.Metal.Weighted>
-0.0000

> <Gold.Chemscore.Lipo.Weighted>
-13.1718

> <Gold.Chemscore.Internal_Hbond.Weighted>
0.0000

> <Gold.Chemscore.DEClash.Weighted>
0.5359

> <Gold.Chemscore.DEInternal.Weighted>
1.6731

> <Gold.Chemscore.Rot.Weighted>
2.5600

> <Gold.Chemscore.Internal.Correction.Weighted>
   9.000000E+99

> <Gold.Protein.RotatedTorsions>
[ 6907 6896 6895 6894 ] final -161.88 input  -60.11 | X-H torsion
[ 7974 7965 7964 7962 ] final  -86.58 input  175.53 | X-H torsion
[ 8008 7997 7996 7995 ] final  -85.46 input   59.86 | X-H torsion
[ 10167 10162 10161 10158 ] final -125.16 input  -65.29 | X-H torsion
[ 10718 10713 10712 10709 ] final   -7.94 input   66.30 | X-H torsion
[ 10763 10752 10751 10750 ] final  176.32 input  -60.55 | X-H torsion
[ 11005 11000 10999 10996 ] final  121.57 input  -57.11 | X-H torsion

> <Gold.Protein.ActiveResidues>
 VAL166  LYS551  ARG553  GLY616  TRP617  ASP618  TYR619  PRO620  LYS621  CYS622 
 ASP623  PHE694  ASN695  SER759  ASP760  ASP761  ALA762  ILE779  LEU786  VAL792 
 PHE793  MET794  SER795  GLU796  ALA797  LYS798  CYS799  TRP800  GLU811  SER814 

> <Gold.Protein.RotatedAtoms>
  151.3715  133.3853  159.2699 H   0  0  0  0  0  0  0  0  0  0  0  0  # atno 6907 bound_to 6896
  150.9647  134.9031  159.7762 H   0  0  0  0  0  0  0  0  0  0  0  0  # atno 6908 bound_to 6896
  152.5163  134.3675  159.9359 H   0  0  0  0  0  0  0  0  0  0  0  0  # atno 6909 bound_to 6896
  145.4780  140.9558  143.1880 H   0  0  0  0  0  0  0  0  0  0  0  0  # atno 7974 bound_to 7965
  154.6410  140.0591  156.9845 H   0  0  0  0  0  0  0  0  0  0  0  0  # atno 8008 bound_to 7997
  155.1517  140.3274  155.4411 H   0  0  0  0  0  0  0  0  0  0  0  0  # atno 8009 bound_to 7997
  156.2531  140.1946  156.6628 H   0  0  0  0  0  0  0  0  0  0  0  0  # atno 8010 bound_to 7997
  139.9851  143.5701  152.2363 H   0  0  0  0  0  0  0  0  0  0  0  0  # atno 10167 bound_to 10162
  156.7098  130.5118  149.5895 H   0  0  0  0  0  0  0  0  0  0  0  0  # atno 10718 bound_to 10713
  154.4796  135.2774  155.1581 H   0  0  0  0  0  0  0  0  0  0  0  0  # atno 10763 bound_to 10752
  154.3296  135.6192  153.5549 H   0  0  0  0  0  0  0  0  0  0  0  0  # atno 10764 bound_to 10752
  152.9873  135.5762  154.5194 H   0  0  0  0  0  0  0  0  0  0  0  0  # atno 10765 bound_to 10752
  139.9231  134.9639  156.7978 H   0  0  0  0  0  0  0  0  0  0  0  0  # atno 11005 bound_to 11000
  144.7906  139.6337  143.7115 LP  0  0  0  0  0  0  0  0  0  0  0  0  # atno 17320 bound_to 7965
  146.2358  139.5902  142.9525 LP  0  0  0  0  0  0  0  0  0  0  0  0  # atno 17321 bound_to 7965
  139.6381  144.7652  151.2395 LP  0  0  0  0  0  0  0  0  0  0  0  0  # atno 17342 bound_to 10162
  140.7475  143.6363  150.8376 LP  0  0  0  0  0  0  0  0  0  0  0  0  # atno 17343 bound_to 10162
  156.1669  130.6411  151.0789 LP  0  0  0  0  0  0  0  0  0  0  0  0  # atno 17370 bound_to 10713
  157.6940  131.0800  150.7023 LP  0  0  0  0  0  0  0  0  0  0  0  0  # atno 17371 bound_to 10713
  140.6414  133.9814  155.7709 LP  0  0  0  0  0  0  0  0  0  0  0  0  # atno 17394 bound_to 11000
  141.0768  134.0122  157.3445 LP  0  0  0  0  0  0  0  0  0  0  0  0  # atno 17395 bound_to 11000

$$$$
