AV-unprocessed.smi:21|AV-procd|sdf|135|dock5
  -GOLD-   2262015333D 1   1.00000     0.00000
 Structure written by MMmdl.
 62 65  0  0  0  0  0  0  0  0  2 V2000
  143.7154  134.2155  152.1384 C   0  0  0  0  0  0  0  0  0  0  0  0
  144.0068  135.3034  153.0017 O   0  0  0  0  0  0  0  0  0  0  0  0
  144.1578  136.5434  152.3241 C   0  0  1  0  0  0  0  0  0  0  0  0
  144.2155  137.6653  153.3618 C   0  0  0  0  0  0  0  0  0  0  0  0
  145.7111  137.8978  153.5737 C   0  0  2  0  0  0  0  0  0  0  0  0
  146.0746  139.2439  154.2443 C   0  0  0  0  0  0  0  0  0  0  0  0
  147.5170  139.4554  154.3464 N   0  0  0  0  0  0  0  0  0  0  0  0
  148.1202  140.4873  153.5033 C   0  0  0  0  0  0  0  0  0  0  0  0
  148.2532  138.9130  155.3636 C   0  0  0  0  0  0  0  0  0  0  0  0
  147.6595  137.9690  156.1441 N   0  0  0  0  0  0  0  0  0  0  0  0
  148.3158  137.3916  157.1527 C   0  0  0  0  0  0  0  0  0  0  0  0
  149.5653  137.6042  157.5602 N   0  0  0  0  0  0  0  0  0  0  0  0
  150.1777  138.5513  156.7962 C   0  0  0  0  0  0  0  0  0  0  0  0
  149.6063  139.2513  155.6910 C   0  0  0  0  0  0  0  0  0  0  0  0
  150.5533  140.1348  155.1774 N   0  0  0  0  0  0  0  0  0  0  0  0
  151.6067  139.9692  155.9276 C   0  0  0  0  0  0  0  0  0  0  0  0
  151.4663  139.0389  156.9279 N   0  0  0  0  0  0  0  0  0  0  0  0
  152.4756  138.6619  157.9027 C   0  0  0  0  0  0  0  0  0  0  0  0
  152.0666  138.9924  159.3598 C   0  0  1  0  0  0  0  0  0  0  0  0
  152.7668  138.0800  160.3967 C   0  0  0  0  0  0  0  0  0  0  0  0
  152.4932  136.7158  160.1527 O   0  0  0  0  0  0  0  0  0  0  0  0
  152.2547  140.4970  159.6814 C   0  0  1  0  0  0  0  0  0  0  0  0
  153.6973  140.9359  159.8629 C   0  0  0  0  0  0  0  0  0  0  0  0
  153.5951  142.4469  159.6911 C   0  0  0  0  0  0  0  0  0  0  0  0
  152.5614  142.6508  158.7354 O   0  0  0  0  0  0  0  0  0  0  0  0
  151.8106  141.4517  158.5669 C   0  0  0  0  0  0  0  0  0  0  0  0
  146.3138  137.6802  152.2357 N   0  3  2  0  0  0  0  0  0  0  0  0
  146.4327  138.8852  151.3783 C   0  0  0  0  0  0  0  0  0  0  0  0
  145.5168  136.6065  151.5962 C   0  0  0  0  0  0  0  0  0  0  0  0
  143.3213  136.7140  151.6438 H   0  0  0  0  0  0  0  0  0  0  0  0
  146.0832  137.0822  154.1954 H   0  0  0  0  0  0  0  0  0  0  0  0
  143.6290  133.2997  152.7231 H   0  0  0  0  0  0  0  0  0  0  0  0
  144.5005  134.0665  151.3966 H   0  0  0  0  0  0  0  0  0  0  0  0
  142.7693  134.3700  151.6185 H   0  0  0  0  0  0  0  0  0  0  0  0
  143.7552  138.5658  152.9532 H   0  0  0  0  0  0  0  0  0  0  0  0
  143.6892  137.4153  154.2838 H   0  0  0  0  0  0  0  0  0  0  0  0
  145.6160  140.0835  153.7252 H   0  0  0  0  0  0  0  0  0  0  0  0
  145.6516  139.2781  155.2487 H   0  0  0  0  0  0  0  0  0  0  0  0
  148.9787  140.0884  152.9617 H   0  0  0  0  0  0  0  0  0  0  0  0
  148.4518  141.3345  154.1046 H   0  0  0  0  0  0  0  0  0  0  0  0
  147.4116  140.8632  152.7649 H   0  0  0  0  0  0  0  0  0  0  0  0
  147.7596  136.6542  157.7128 H   0  0  0  0  0  0  0  0  0  0  0  0
  152.5197  140.5268  155.7749 H   0  0  0  0  0  0  0  0  0  0  0  0
  152.6847  137.5965  157.7992 H   0  0  0  0  0  0  0  0  0  0  0  0
  153.3960  139.1810  157.6355 H   0  0  0  0  0  0  0  0  0  0  0  0
  150.9993  138.7812  159.4406 H   0  0  0  0  0  0  0  0  0  0  0  0
  153.8465  138.2267  160.3770 H   0  0  0  0  0  0  0  0  0  0  0  0
  152.4515  138.3242  161.4111 H   0  0  0  0  0  0  0  0  0  0  0  0
  152.8879  136.4721  159.3293 H   0  0  0  0  0  0  0  0  0  0  0  0
  151.7065  140.7479  160.5911 H   0  0  0  0  0  0  0  0  0  0  0  0
  154.1156  140.6563  160.8301 H   0  0  0  0  0  0  0  0  0  0  0  0
  154.3285  140.5122  159.0803 H   0  0  0  0  0  0  0  0  0  0  0  0
  153.2989  142.9169  160.6299 H   0  0  0  0  0  0  0  0  0  0  0  0
  154.5343  142.8964  159.3678 H   0  0  0  0  0  0  0  0  0  0  0  0
  152.0475  141.0393  157.5851 H   0  0  0  0  0  0  0  0  0  0  0  0
  150.7398  141.6544  158.5967 H   0  0  0  0  0  0  0  0  0  0  0  0
  145.4625  139.3579  151.2212 H   0  0  0  0  0  0  0  0  0  0  0  0
  146.8413  138.6179  150.4032 H   0  0  0  0  0  0  0  0  0  0  0  0
  147.1109  139.6187  151.8139 H   0  0  0  0  0  0  0  0  0  0  0  0
  146.0617  135.6694  151.7153 H   0  0  0  0  0  0  0  0  0  0  0  0
  145.3906  136.7654  150.5242 H   0  0  0  0  0  0  0  0  0  0  0  0
  147.2538  137.3359  152.3722 H   0  0  0  0  0  0  0  0  0  0  0  0
  1  2  1  0  0  0  0
  1 32  1  0  0  0  0
  1 33  1  0  0  0  0
  1 34  1  0  0  0  0
  2  3  1  0  0  0  0
  3 30  1  0  0  0  0
  3 29  1  0  0  0  0
  3  4  1  0  0  0  0
  4  5  1  0  0  0  0
  4 35  1  0  0  0  0
  4 36  1  0  0  0  0
  5 31  1  0  0  0  0
  5  6  1  0  0  0  0
  5 27  1  0  0  0  0
  6  7  1  0  0  0  0
  6 37  1  0  0  0  0
  6 38  1  0  0  0  0
  7  8  1  0  0  0  0
  7  9  1  0  0  0  0
  8 39  1  0  0  0  0
  8 40  1  0  0  0  0
  8 41  1  0  0  0  0
  9 14  1  0  0  0  0
  9 10  2  0  0  0  0
 10 11  1  0  0  0  0
 11 12  2  0  0  0  0
 11 42  1  0  0  0  0
 12 13  1  0  0  0  0
 13 17  1  0  0  0  0
 13 14  2  0  0  0  0
 14 15  1  0  0  0  0
 15 16  2  0  0  0  0
 16 17  1  0  0  0  0
 16 43  1  0  0  0  0
 17 18  1  0  0  0  0
 18 19  1  0  0  0  0
 18 44  1  0  0  0  0
 18 45  1  0  0  0  0
 19 20  1  0  0  0  0
 19 22  1  0  0  0  0
 19 46  1  0  0  0  0
 20 21  1  0  0  0  0
 20 47  1  0  0  0  0
 20 48  1  0  0  0  0
 21 49  1  0  0  0  0
 22 26  1  0  0  0  0
 22 23  1  0  0  0  0
 22 50  1  0  0  0  0
 23 24  1  0  0  0  0
 23 51  1  0  0  0  0
 23 52  1  0  0  0  0
 24 25  1  0  0  0  0
 24 53  1  0  0  0  0
 24 54  1  0  0  0  0
 25 26  1  0  0  0  0
 26 55  1  0  0  0  0
 26 56  1  0  0  0  0
 27 28  1  0  0  0  0
 27 29  1  0  0  0  0
 27 62  1  0  0  0  0
 28 57  1  0  0  0  0
 28 58  1  0  0  0  0
 28 59  1  0  0  0  0
 29 60  1  0  0  0  0
 29 61  1  0  0  0  0
M  CHG  1  27   1
M  END
> <s_m_source_file>
AV-unprocessed.smi

> <i_m_source_file_index>
21

> <i_lp_mmshare_version>
43012

> <i_f3d_flags>
0

> <s_epik_input>
W0NIM11PW0NASF0xW0NIMl1bQ0BIXShOKFtDSDNdKVtDSDJdMSlbQ0gyXU4oW0NIM10pYyhuW2NIXW4yKWMoYzIzKW5bY0hdbjNbQ0gyXVtDQEhdKFtDSDJdW09IXSlbQ0BASF00W0NIMl1bQ0gyXU9bQ0gyXTQ=

> <s_epik_cmdline>
J2VwaWtfcHl0aG9uJywgJy1waCcsICc3LjAnLCAnLXRuJywgJzgnLCAnLW1hJywgJzIwMCcsICctbWV0YWxfYmluZGluZycsICctaW1hZScsICc8aW5maWxlLm1hZT4nLCAnLW9tYWUnLCAnPG91dGZpbGUubWFlPic=

> <r_lp_tautomer_probability>
1

> <r_epik_Ionization_Penalty>
0.0157465

> <r_epik_Ionization_Penalty_Charging>
0.015354

> <r_epik_Ionization_Penalty_Neutral>
0.000392529

> <r_epik_State_Penalty>
0.0120612

> <r_epik_Charging_Adjusted_Penalty>
0.0274152

> <i_epik_Tot_Q>
1

> <i_epik_Tot_abs_Q>
1

> <r_epik_Metal_State_Penalty>
0.0121253

> <b_epik_Metal_Only>
0

> <s_lp_Force_Field>
OPLS_2005

> <r_lp_Energy>
62.2742

> <b_lp_Chiralities_Consistent>
1

> <s_lp_Variant>
AV-unprocessed.smi:21-15

> <Gold.Version>
5.8.1

> <Gold.Id.Protein>
6NUR|6NUR_protein|mol2

> <Gold.PLP.Fitness>
47.5509

> <Gold.PLP.PLP>
-37.8050

> <Gold.PLP.part.hbond>
-3.0000

> <Gold.PLP.part.metal>
0.0000

> <Gold.PLP.part.buried>
0.9063

> <Gold.PLP.part.nonpolar>
-35.4034

> <Gold.PLP.part.repulsive>
0.2447

> <Gold.PLP.ligand.clash>
0.0000

> <Gold.PLP.ligand.torsion>
0.7415

> <Gold.PLP.Chemscore.Hbond>
3.6000

> <Gold.PLP.Chemscore.CHOScore>
0.0000

> <Gold.PLP.Chemscore.Metal>
0.0000

> <Gold.Chemscore.Hbonds>
donor molecule, donor type, donor heavy atom, donor atom, acceptor molecule, acceptor atom, score
      L1  H    27    62       P1  7948  1.76
      P1  H  6896  6908       L1    21  0.05
      P1  H  7989  7998       L1    15  0.57

> <Gold.PLP.Chemscore.Internal.Correction>
0.4288

> <Gold.Rescore>
     Score         DG    S(hbond)    S(metal)    S(lipo)     H(rot)  DE(clash)    DE(int)     intcor
     12.36     -15.90       2.03        0.00      98.43       3.08       1.28       2.26       ----

> <Gold.Chemscore.Fitness>
12.3556

> <Gold.Chemscore.DG>
-15.9026

> <Gold.Chemscore.ZeroCoef>
-5.4800

> <Gold.Chemscore.Hbond>
2.0302

> <Gold.Chemscore.Metal>
0.0000

> <Gold.Chemscore.Lipo>
98.4269

> <Gold.Chemscore.Internal_Hbond>
0.0000

> <Gold.Chemscore.DEClash>
1.2842

> <Gold.Chemscore.DEInternal>
2.2627

> <Gold.Chemscore.Rot>
3.0758

> <Gold.Chemscore.Internal.Correction>
   9.000000E+99

> <Gold.Chemscore.Hbonds>
donor molecule, donor type, donor heavy atom, donor atom, acceptor molecule, acceptor atom, score
      L1  H    27    62       P1  7948  0.83
      P1  H  7989  7998       L1    15  0.07

> <Gold.Chemscore.Hbond.Weighted>
-6.7808

> <Gold.Chemscore.Metal.Weighted>
-0.0000

> <Gold.Chemscore.Lipo.Weighted>
-11.5159

> <Gold.Chemscore.Internal_Hbond.Weighted>
0.0000

> <Gold.Chemscore.DEClash.Weighted>
1.2842

> <Gold.Chemscore.DEInternal.Weighted>
2.2627

> <Gold.Chemscore.Rot.Weighted>
7.8741

> <Gold.Chemscore.Internal.Correction.Weighted>
   9.000000E+99

> <Gold.Protein.RotatedTorsions>
[ 6907 6896 6895 6894 ] final  -98.14 input  -60.11 | X-H torsion
[ 7974 7965 7964 7962 ] final  -42.45 input  175.53 | X-H torsion
[ 8008 7997 7996 7995 ] final -147.52 input   59.86 | X-H torsion
[ 10167 10162 10161 10158 ] final  117.43 input  -65.29 | X-H torsion
[ 10718 10713 10712 10709 ] final   57.83 input   66.30 | X-H torsion
[ 10763 10752 10751 10750 ] final  102.33 input  -60.55 | X-H torsion
[ 11005 11000 10999 10996 ] final  159.10 input  -57.11 | X-H torsion

> <Gold.Protein.ActiveResidues>
 VAL166  LYS551  ARG553  GLY616  TRP617  ASP618  TYR619  PRO620  LYS621  CYS622 
 ASP623  PHE694  ASN695  SER759  ASP760  ASP761  ALA762  ILE779  LEU786  VAL792 
 PHE793  MET794  SER795  GLU796  ALA797  LYS798  CYS799  TRP800  GLU811  SER814 

> <Gold.Protein.RotatedAtoms>
  150.7037  134.1240  159.4044 H   0  0  0  0  0  0  0  0  0  0  0  0  # atno 6907 bound_to 6896
  151.9226  135.0289  160.0532 H   0  0  0  0  0  0  0  0  0  0  0  0  # atno 6908 bound_to 6896
  152.2243  133.4973  159.5217 H   0  0  0  0  0  0  0  0  0  0  0  0  # atno 6909 bound_to 6896
  146.0114  140.6959  142.9222 H   0  0  0  0  0  0  0  0  0  0  0  0  # atno 7974 bound_to 7965
  155.5768  140.0639  157.2793 H   0  0  0  0  0  0  0  0  0  0  0  0  # atno 8008 bound_to 7997
  154.4344  140.1859  156.0982 H   0  0  0  0  0  0  0  0  0  0  0  0  # atno 8009 bound_to 7997
  156.0335  140.3304  155.7169 H   0  0  0  0  0  0  0  0  0  0  0  0  # atno 8010 bound_to 7997
  139.6179  144.7095  151.2698 H   0  0  0  0  0  0  0  0  0  0  0  0  # atno 10167 bound_to 10162
  157.5547  130.8791  149.9017 H   0  0  0  0  0  0  0  0  0  0  0  0  # atno 10718 bound_to 10713
  153.3381  135.4014  155.1550 H   0  0  0  0  0  0  0  0  0  0  0  0  # atno 10763 bound_to 10752
  154.8638  135.3627  154.5381 H   0  0  0  0  0  0  0  0  0  0  0  0  # atno 10764 bound_to 10752
  153.5824  135.7076  153.5517 H   0  0  0  0  0  0  0  0  0  0  0  0  # atno 10765 bound_to 10752
  140.1929  134.8394  157.2932 H   0  0  0  0  0  0  0  0  0  0  0  0  # atno 11005 bound_to 11000
  144.6954  140.3405  143.7200 LP  0  0  0  0  0  0  0  0  0  0  0  0  # atno 17320 bound_to 7965
  145.7336  139.1743  143.2416 LP  0  0  0  0  0  0  0  0  0  0  0  0  # atno 17321 bound_to 7965
  140.7363  143.6711  150.8080 LP  0  0  0  0  0  0  0  0  0  0  0  0  # atno 17342 bound_to 10162
  140.0317  143.5436  152.2757 LP  0  0  0  0  0  0  0  0  0  0  0  0  # atno 17343 bound_to 10162
  156.0608  130.3700  150.0987 LP  0  0  0  0  0  0  0  0  0  0  0  0  # atno 17370 bound_to 10713
  156.9157  130.9666  151.3556 LP  0  0  0  0  0  0  0  0  0  0  0  0  # atno 17371 bound_to 10713
  140.2140  134.4104  155.7598 LP  0  0  0  0  0  0  0  0  0  0  0  0  # atno 17394 bound_to 11000
  141.2226  133.7132  156.8383 LP  0  0  0  0  0  0  0  0  0  0  0  0  # atno 17395 bound_to 11000

$$$$
