AV-unprocessed.smi:372|AV-procd|sdf|2445|dock9
  -GOLD-   2262022383D 1   1.00000     0.00000
 Structure written by MMmdl.
 22 23  0  0  0  0  0  0  0  0  2 V2000
  151.6101  139.6425  158.2563 C   0  0  0  0  0  0  0  0  0  0  0  0
  151.9304  140.6783  157.1595 C   0  0  1  0  0  0  0  0  0  0  0  0
  152.2028  142.0730  157.7550 C   0  0  0  0  0  0  0  0  0  0  0  0
  151.4823  143.2212  157.3392 C   0  0  0  0  0  0  0  0  0  0  0  0
  151.7849  144.4656  157.9243 C   0  0  0  0  0  0  0  0  0  0  0  0
  152.7952  144.5310  158.9010 C   0  0  0  0  0  0  0  0  0  0  0  0
  153.4622  143.3416  159.2491 C   0  0  0  0  0  0  0  0  0  0  0  0
  153.1803  142.1453  158.6924 N   0  0  0  0  0  0  0  0  0  0  0  0
  153.0294  140.1814  156.3531 N   0  0  0  0  0  0  0  0  0  0  0  0
  152.6795  140.0307  155.0778 C   0  0  0  0  0  0  0  0  0  0  0  0
  153.4810  139.6467  154.2292 O   0  0  0  0  0  0  0  0  0  0  0  0
  151.3825  140.3505  154.9123 N   0  5  0  0  0  0  0  0  0  0  0  0
  150.8279  140.7270  156.0855 C   0  0  0  0  0  0  0  0  0  0  0  0
  149.6644  141.0398  156.3381 O   0  0  0  0  0  0  0  0  0  0  0  0
  150.7384  139.9356  158.8425 H   0  0  0  0  0  0  0  0  0  0  0  0
  152.4476  139.5320  158.9457 H   0  0  0  0  0  0  0  0  0  0  0  0
  151.4008  138.6594  157.8322 H   0  0  0  0  0  0  0  0  0  0  0  0
  150.7069  143.1678  156.5900 H   0  0  0  0  0  0  0  0  0  0  0  0
  151.2499  145.3556  157.6276 H   0  0  0  0  0  0  0  0  0  0  0  0
  153.0526  145.4683  159.3715 H   0  0  0  0  0  0  0  0  0  0  0  0
  154.2445  143.3512  159.9936 H   0  0  0  0  0  0  0  0  0  0  0  0
  153.9524  140.0076  156.7217 H   0  0  0  0  0  0  0  0  0  0  0  0
  1  2  1  0  0  0  0
  1 15  1  0  0  0  0
  1 16  1  0  0  0  0
  1 17  1  0  0  0  0
  2 13  1  0  0  0  0
  2  3  1  0  0  0  0
  2  9  1  0  0  0  0
  3  8  1  0  0  0  0
  3  4  2  0  0  0  0
  4  5  1  0  0  0  0
  4 18  1  0  0  0  0
  5  6  2  0  0  0  0
  5 19  1  0  0  0  0
  6  7  1  0  0  0  0
  6 20  1  0  0  0  0
  7  8  2  0  0  0  0
  7 21  1  0  0  0  0
  9 10  1  0  0  0  0
  9 22  1  0  0  0  0
 10 11  2  0  0  0  0
 10 12  1  0  0  0  0
 12 13  1  0  0  0  0
 13 14  2  0  0  0  0
M  CHG  1  12  -1
M  END
> <s_m_source_file>
AV-unprocessed.smi

> <i_m_source_file_index>
372

> <i_lp_mmshare_version>
43012

> <i_f3d_flags>
0

> <s_epik_input>
Tz1DMVtOSF1DKD1PKVtOSF1bQ0BAXTEoW0NIM10pYzJbY0hdW2NIXVtjSF1bY0hdbjI=

> <s_epik_cmdline>
J2VwaWtfcHl0aG9uJywgJy1waCcsICc3LjAnLCAnLXRuJywgJzgnLCAnLW1hJywgJzIwMCcsICctbWV0YWxfYmluZGluZycsICctaW1hZScsICc8aW5maWxlLm1hZT4nLCAnLW9tYWUnLCAnPG91dGZpbGUubWFlPic=

> <r_epik_Ionization_Penalty>
1.82492

> <r_epik_Ionization_Penalty_Charging>
1.82122

> <r_epik_Ionization_Penalty_Neutral>
0.00370144

> <r_epik_State_Penalty>
1.71448

> <r_epik_Charging_Adjusted_Penalty>
3.5357

> <i_epik_Tot_Q>
-1

> <i_epik_Tot_abs_Q>
1

> <r_epik_Metal_State_Penalty>
0.405927

> <b_epik_Metal_Only>
0

> <s_lp_Force_Field>
OPLS_2005

> <r_lp_Energy>
9.53623

> <b_lp_Chiralities_Consistent>
1

> <s_lp_Variant>
AV-unprocessed.smi:372-3

> <Gold.Version>
5.8.1

> <Gold.Id.Protein>
6NUR|6NUR_protein|mol2

> <Gold.PLP.Fitness>
35.9668

> <Gold.PLP.PLP>
-30.2207

> <Gold.PLP.part.hbond>
-2.0000

> <Gold.PLP.part.metal>
0.0000

> <Gold.PLP.part.buried>
-2.9043

> <Gold.PLP.part.nonpolar>
-24.3038

> <Gold.PLP.part.repulsive>
0.7333

> <Gold.PLP.ligand.clash>
0.0000

> <Gold.PLP.ligand.torsion>
0.0813

> <Gold.PLP.Chemscore.Hbond>
1.9424

> <Gold.PLP.Chemscore.CHOScore>
0.0000

> <Gold.PLP.Chemscore.Metal>
0.0000

> <Gold.Chemscore.Hbonds>
donor molecule, donor type, donor heavy atom, donor atom, acceptor molecule, acceptor atom, score
      P1  H  7989  7998       L1    12  0.54

> <Gold.PLP.Chemscore.Internal.Correction>
0.0815

> <Gold.Rescore>
     Score         DG    S(hbond)    S(metal)    S(lipo)     H(rot)  DE(clash)    DE(int)     intcor
     12.73     -13.90       1.04        0.00      64.04       1.00       0.04       1.13       ----

> <Gold.Chemscore.Fitness>
12.7339

> <Gold.Chemscore.DG>
-13.8964

> <Gold.Chemscore.ZeroCoef>
-5.4800

> <Gold.Chemscore.Hbond>
1.0429

> <Gold.Chemscore.Metal>
0.0000

> <Gold.Chemscore.Lipo>
64.0423

> <Gold.Chemscore.Internal_Hbond>
0.0000

> <Gold.Chemscore.DEClash>
0.0351

> <Gold.Chemscore.DEInternal>
1.1273

> <Gold.Chemscore.Rot>
1.0000

> <Gold.Chemscore.Internal.Correction>
   9.000000E+99

> <Gold.Chemscore.Hbonds>
donor molecule, donor type, donor heavy atom, donor atom, acceptor molecule, acceptor atom, score
      P1  H  7989  7998       L1    12  0.03

> <Gold.Chemscore.Hbond.Weighted>
-3.4834

> <Gold.Chemscore.Metal.Weighted>
-0.0000

> <Gold.Chemscore.Lipo.Weighted>
-7.4929

> <Gold.Chemscore.Internal_Hbond.Weighted>
0.0000

> <Gold.Chemscore.DEClash.Weighted>
0.0351

> <Gold.Chemscore.DEInternal.Weighted>
1.1273

> <Gold.Chemscore.Rot.Weighted>
2.5600

> <Gold.Chemscore.Internal.Correction.Weighted>
   9.000000E+99

> <Gold.Protein.RotatedTorsions>
[ 6907 6896 6895 6894 ] final  168.36 input  -60.11 | X-H torsion
[ 7974 7965 7964 7962 ] final -174.73 input  175.53 | X-H torsion
[ 8008 7997 7996 7995 ] final -116.97 input   59.86 | X-H torsion
[ 10167 10162 10161 10158 ] final -109.23 input  -65.29 | X-H torsion
[ 10718 10713 10712 10709 ] final  -18.68 input   66.30 | X-H torsion
[ 10763 10752 10751 10750 ] final    0.26 input  -60.55 | X-H torsion
[ 11005 11000 10999 10996 ] final  -84.49 input  -57.11 | X-H torsion

> <Gold.Protein.ActiveResidues>
 VAL166  LYS551  ARG553  GLY616  TRP617  ASP618  TYR619  PRO620  LYS621  CYS622 
 ASP623  PHE694  ASN695  SER759  ASP760  ASP761  ALA762  ILE779  LEU786  VAL792 
 PHE793  MET794  SER795  GLU796  ALA797  LYS798  CYS799  TRP800  GLU811  SER814 

> <Gold.Protein.RotatedAtoms>
  151.8488  133.3436  159.3666 H   0  0  0  0  0  0  0  0  0  0  0  0  # atno 6907 bound_to 6896
  150.7212  134.5319  159.5714 H   0  0  0  0  0  0  0  0  0  0  0  0  # atno 6908 bound_to 6896
  152.2809  134.7831  160.0448 H   0  0  0  0  0  0  0  0  0  0  0  0  # atno 6909 bound_to 6896
  144.7130  140.1428  143.6390 H   0  0  0  0  0  0  0  0  0  0  0  0  # atno 7974 bound_to 7965
  155.0763  140.0394  157.2625 H   0  0  0  0  0  0  0  0  0  0  0  0  # atno 8008 bound_to 7997
  154.6942  140.2660  155.6758 H   0  0  0  0  0  0  0  0  0  0  0  0  # atno 8009 bound_to 7997
  156.2739  140.2753  156.1531 H   0  0  0  0  0  0  0  0  0  0  0  0  # atno 8010 bound_to 7997
  140.1576  143.4147  152.1449 H   0  0  0  0  0  0  0  0  0  0  0  0  # atno 10167 bound_to 10162
  156.5561  130.4714  149.6429 H   0  0  0  0  0  0  0  0  0  0  0  0  # atno 10718 bound_to 10713
  153.3230  135.6970  153.7014 H   0  0  0  0  0  0  0  0  0  0  0  0  # atno 10763 bound_to 10752
  153.5847  135.3491  155.2889 H   0  0  0  0  0  0  0  0  0  0  0  0  # atno 10764 bound_to 10752
  154.8602  135.4303  154.2399 H   0  0  0  0  0  0  0  0  0  0  0  0  # atno 10765 bound_to 10752
  141.1650  133.7349  156.8875 H   0  0  0  0  0  0  0  0  0  0  0  0  # atno 11005 bound_to 11000
  145.9187  139.2532  143.1394 LP  0  0  0  0  0  0  0  0  0  0  0  0  # atno 17320 bound_to 7965
  145.9643  140.8811  143.0195 LP  0  0  0  0  0  0  0  0  0  0  0  0  # atno 17321 bound_to 7965
  139.5396  144.7244  151.4777 LP  0  0  0  0  0  0  0  0  0  0  0  0  # atno 17342 bound_to 10162
  140.6663  143.8390  150.6946 LP  0  0  0  0  0  0  0  0  0  0  0  0  # atno 17343 bound_to 10162
  156.2841  130.7087  151.1919 LP  0  0  0  0  0  0  0  0  0  0  0  0  # atno 17370 bound_to 10713
  157.7378  131.0548  150.5334 LP  0  0  0  0  0  0  0  0  0  0  0  0  # atno 17371 bound_to 10713
  140.1671  134.9125  157.2788 LP  0  0  0  0  0  0  0  0  0  0  0  0  # atno 17394 bound_to 11000
  140.2544  134.3645  155.7430 LP  0  0  0  0  0  0  0  0  0  0  0  0  # atno 17395 bound_to 11000

$$$$
