AV-unprocessed.smi:1796|AV-procd|sdf|7253|dock7
  -GOLD-   22720 8503D 1   1.00000     0.00000
 Structure written by MMmdl.
 42 43  0  0  0  0  0  0  0  0  1 V2000
  152.2499  145.7915  160.0530 C   0  0  0  0  0  0  0  0  0  0  0  0
  151.5871  144.7712  159.1245 C   0  0  0  0  0  0  0  0  0  0  0  0
  151.1804  145.1636  158.0309 O   0  0  0  0  0  0  0  0  0  0  0  0
  151.4643  143.4854  159.5333 N   0  0  0  0  0  0  0  0  0  0  0  0
  152.0255  142.9982  160.7992 C   0  0  0  0  0  0  0  0  0  0  0  0
  153.2265  142.0868  160.4881 C   0  0  0  0  0  0  0  0  0  0  0  0
  152.8203  140.9379  159.5453 C   0  0  0  0  0  0  0  0  0  0  0  0
  152.0667  141.4573  158.2978 C   0  0  1  0  0  0  0  0  0  0  0  0
  151.5484  140.2914  157.4477 C   0  0  0  0  0  0  0  0  0  0  0  0
  151.4904  139.1571  157.9232 O   0  0  0  0  0  0  0  0  0  0  0  0
  151.1900  140.5841  156.1871 N   0  0  0  0  0  0  0  0  0  0  0  0
  150.7221  139.6239  155.1879 C   0  0  1  0  0  0  0  0  0  0  0  0
  151.5778  138.3532  155.2787 C   0  0  0  0  0  0  0  0  0  0  0  0
  149.2242  139.3087  155.3904 C   0  0  0  0  0  0  0  0  0  0  0  0
  148.3540  140.2574  154.7180 N   0  0  0  0  0  0  0  0  0  0  0  0
  148.3987  141.6355  154.7543 C   0  0  0  0  0  0  0  0  0  0  0  0
  147.3959  142.0955  153.9502 C   0  0  0  0  0  0  0  0  0  0  0  0
  146.7814  140.9076  153.4640 C   0  0  0  0  0  0  0  0  0  0  0  0
  147.3547  139.8090  153.9283 N   0  0  0  0  0  0  0  0  0  0  0  0
  150.9111  142.3883  158.7289 C   0  0  0  0  0  0  0  0  0  0  0  0
  151.7239  145.8468  161.0064 H   0  0  0  0  0  0  0  0  0  0  0  0
  152.2326  146.7861  159.6061 H   0  0  0  0  0  0  0  0  0  0  0  0
  153.2918  145.5270  160.2362 H   0  0  0  0  0  0  0  0  0  0  0  0
  152.3339  143.8057  161.4645 H   0  0  0  0  0  0  0  0  0  0  0  0
  151.2620  142.4405  161.3434 H   0  0  0  0  0  0  0  0  0  0  0  0
  154.0191  142.6761  160.0249 H   0  0  0  0  0  0  0  0  0  0  0  0
  153.6407  141.6830  161.4123 H   0  0  0  0  0  0  0  0  0  0  0  0
  153.7059  140.3758  159.2461 H   0  0  0  0  0  0  0  0  0  0  0  0
  152.1879  140.2406  160.0975 H   0  0  0  0  0  0  0  0  0  0  0  0
  152.7655  142.0410  157.6951 H   0  0  0  0  0  0  0  0  0  0  0  0
  151.2688  141.5452  155.8877 H   0  0  0  0  0  0  0  0  0  0  0  0
  150.8621  140.0331  154.1857 H   0  0  0  0  0  0  0  0  0  0  0  0
  151.2812  137.6267  154.5216 H   0  0  0  0  0  0  0  0  0  0  0  0
  151.4794  137.8755  156.2542 H   0  0  0  0  0  0  0  0  0  0  0  0
  152.6332  138.5781  155.1217 H   0  0  0  0  0  0  0  0  0  0  0  0
  148.9951  138.3124  155.0095 H   0  0  0  0  0  0  0  0  0  0  0  0
  148.9752  139.2989  156.4524 H   0  0  0  0  0  0  0  0  0  0  0  0
  149.1379  142.1670  155.3352 H   0  0  0  0  0  0  0  0  0  0  0  0
  147.1413  143.1235  153.7397 H   0  0  0  0  0  0  0  0  0  0  0  0
  145.9414  140.8112  152.7919 H   0  0  0  0  0  0  0  0  0  0  0  0
  150.1867  141.8413  159.3351 H   0  0  0  0  0  0  0  0  0  0  0  0
  150.3538  142.7302  157.8573 H   0  0  0  0  0  0  0  0  0  0  0  0
  1  2  1  0  0  0  0
  1 21  1  0  0  0  0
  1 22  1  0  0  0  0
  1 23  1  0  0  0  0
  2  3  2  0  0  0  0
  2  4  1  0  0  0  0
  4 20  1  0  0  0  0
  4  5  1  0  0  0  0
  5  6  1  0  0  0  0
  5 24  1  0  0  0  0
  5 25  1  0  0  0  0
  6  7  1  0  0  0  0
  6 26  1  0  0  0  0
  6 27  1  0  0  0  0
  7  8  1  0  0  0  0
  7 28  1  0  0  0  0
  7 29  1  0  0  0  0
  8  9  1  0  0  0  0
  8 20  1  0  0  0  0
  8 30  1  0  0  0  0
  9 10  2  0  0  0  0
  9 11  1  0  0  0  0
 11 12  1  0  0  0  0
 11 31  1  0  0  0  0
 12 13  1  0  0  0  0
 12 14  1  0  0  0  0
 12 32  1  0  0  0  0
 13 33  1  0  0  0  0
 13 34  1  0  0  0  0
 13 35  1  0  0  0  0
 14 15  1  0  0  0  0
 14 36  1  0  0  0  0
 14 37  1  0  0  0  0
 15 19  1  0  0  0  0
 15 16  1  0  0  0  0
 16 17  2  0  0  0  0
 16 38  1  0  0  0  0
 17 18  1  0  0  0  0
 17 39  1  0  0  0  0
 18 19  2  0  0  0  0
 18 40  1  0  0  0  0
 20 41  1  0  0  0  0
 20 42  1  0  0  0  0
M  END
> <s_m_source_file>
AV-unprocessed.smi

> <i_m_source_file_index>
1796

> <i_lp_mmshare_version>
43012

> <i_f3d_flags>
0

> <s_epik_input>
W0NIM11DKD1PKU4xW0NIMl1bQ0gyXVtDSDJdW0NASF0oW0NIMl0xKUMoPU8pW05IXVtDQEhdKFtDSDNdKVtDSDJdbjJbY0hdW2NIXVtjSF1uMg==

> <s_epik_cmdline>
J2VwaWtfcHl0aG9uJywgJy1waCcsICc3LjAnLCAnLXRuJywgJzgnLCAnLW1hJywgJzIwMCcsICctbWV0YWxfYmluZGluZycsICctaW1hZScsICc8aW5maWxlLm1hZT4nLCAnLW9tYWUnLCAnPG91dGZpbGUubWFlPic=

> <r_lp_tautomer_probability>
1

> <r_epik_Ionization_Penalty>
0.000315051

> <r_epik_Ionization_Penalty_Charging>
0

> <r_epik_Ionization_Penalty_Neutral>
0.000315051

> <r_epik_State_Penalty>
-0

> <r_epik_Charging_Adjusted_Penalty>
0

> <i_epik_Tot_Q>
0

> <i_epik_Tot_abs_Q>
0

> <r_epik_Metal_State_Penalty>
-0

> <b_epik_Metal_Only>
0

> <s_lp_Force_Field>
OPLS_2005

> <r_lp_Energy>
22.8088

> <b_lp_Chiralities_Consistent>
1

> <s_lp_Variant>
AV-unprocessed.smi:1796-3

> <Gold.Version>
5.8.1

> <Gold.Id.Protein>
6NUR|6NUR_protein|mol2

> <Gold.PLP.Fitness>
44.4215

> <Gold.PLP.PLP>
-41.7968

> <Gold.PLP.part.hbond>
0.0000

> <Gold.PLP.part.metal>
0.0000

> <Gold.PLP.part.buried>
-2.8346

> <Gold.PLP.part.nonpolar>
-38.5377

> <Gold.PLP.part.repulsive>
0.8470

> <Gold.PLP.ligand.clash>
0.0000

> <Gold.PLP.ligand.torsion>
1.0733

> <Gold.PLP.Chemscore.Hbond>
0.0000

> <Gold.PLP.Chemscore.CHOScore>
1.5814

> <Gold.PLP.Chemscore.Metal>
0.0000

> <Gold.Chemscore.Hbonds>
donor molecule, donor type, donor heavy atom, donor atom, acceptor molecule, acceptor atom, score
      L1  C    16    38       P1  8028  0.68
      L1  C    18    40       P1 10175  1.00

> <Gold.PLP.Chemscore.Internal.Correction>
0.0272

> <Gold.Rescore>
     Score         DG    S(hbond)    S(metal)    S(lipo)     H(rot)  DE(clash)    DE(int)     intcor
     10.50     -12.95       0.00        0.00      99.60       1.63       0.09       2.36       ----

> <Gold.Chemscore.Fitness>
10.5035

> <Gold.Chemscore.DG>
-12.9515

> <Gold.Chemscore.ZeroCoef>
-5.4800

> <Gold.Chemscore.Hbond>
0.0000

> <Gold.Chemscore.Metal>
0.0000

> <Gold.Chemscore.Lipo>
99.6037

> <Gold.Chemscore.Internal_Hbond>
0.0000

> <Gold.Chemscore.DEClash>
0.0852

> <Gold.Chemscore.DEInternal>
2.3628

> <Gold.Chemscore.Rot>
1.6336

> <Gold.Chemscore.Internal.Correction>
   9.000000E+99

> <Gold.Chemscore.Hbond.Weighted>
-0.0000

> <Gold.Chemscore.Metal.Weighted>
-0.0000

> <Gold.Chemscore.Lipo.Weighted>
-11.6536

> <Gold.Chemscore.Internal_Hbond.Weighted>
0.0000

> <Gold.Chemscore.DEClash.Weighted>
0.0852

> <Gold.Chemscore.DEInternal.Weighted>
2.3628

> <Gold.Chemscore.Rot.Weighted>
4.1821

> <Gold.Chemscore.Internal.Correction.Weighted>
   9.000000E+99

> <Gold.Protein.RotatedTorsions>
[ 6907 6896 6895 6894 ] final -166.74 input  -60.11 | X-H torsion
[ 7974 7965 7964 7962 ] final  -23.36 input  175.53 | X-H torsion
[ 8008 7997 7996 7995 ] final  -43.57 input   59.86 | X-H torsion
[ 10167 10162 10161 10158 ] final  125.41 input  -65.29 | X-H torsion
[ 10718 10713 10712 10709 ] final  119.54 input   66.30 | X-H torsion
[ 10763 10752 10751 10750 ] final   83.52 input  -60.55 | X-H torsion
[ 11005 11000 10999 10996 ] final -148.73 input  -57.11 | X-H torsion

> <Gold.Protein.ActiveResidues>
 VAL166  LYS551  ARG553  GLY616  TRP617  ASP618  TYR619  PRO620  LYS621  CYS622 
 ASP623  PHE694  ASN695  SER759  ASP760  ASP761  ALA762  ILE779  LEU786  VAL792 
 PHE793  MET794  SER795  GLU796  ALA797  LYS798  CYS799  TRP800  GLU811  SER814 

> <Gold.Protein.RotatedAtoms>
  151.4484  133.3624  159.2791 H   0  0  0  0  0  0  0  0  0  0  0  0  # atno 6907 bound_to 6896
  150.9108  134.8526  159.7434 H   0  0  0  0  0  0  0  0  0  0  0  0  # atno 6908 bound_to 6896
  152.4931  134.4414  159.9596 H   0  0  0  0  0  0  0  0  0  0  0  0  # atno 6909 bound_to 6896
  146.1621  140.4605  142.8567 H   0  0  0  0  0  0  0  0  0  0  0  0  # atno 7974 bound_to 7965
  154.3997  140.1444  156.3540 H   0  0  0  0  0  0  0  0  0  0  0  0  # atno 8008 bound_to 7997
  155.8242  140.3468  155.5512 H   0  0  0  0  0  0  0  0  0  0  0  0  # atno 8009 bound_to 7997
  155.8256  140.0904  157.1814 H   0  0  0  0  0  0  0  0  0  0  0  0  # atno 8010 bound_to 7997
  139.5687  144.6926  151.3838 H   0  0  0  0  0  0  0  0  0  0  0  0  # atno 10167 bound_to 10162
  157.5954  131.1058  150.7910 H   0  0  0  0  0  0  0  0  0  0  0  0  # atno 10718 bound_to 10713
  153.1298  135.4688  154.9331 H   0  0  0  0  0  0  0  0  0  0  0  0  # atno 10763 bound_to 10752
  154.7654  135.3143  154.8299 H   0  0  0  0  0  0  0  0  0  0  0  0  # atno 10764 bound_to 10752
  153.8844  135.6891  153.4818 H   0  0  0  0  0  0  0  0  0  0  0  0  # atno 10765 bound_to 10752
  140.7582  134.3329  157.5109 H   0  0  0  0  0  0  0  0  0  0  0  0  # atno 11005 bound_to 11000
  144.8041  140.6267  143.6459 LP  0  0  0  0  0  0  0  0  0  0  0  0  # atno 17320 bound_to 7965
  145.4562  139.1518  143.3891 LP  0  0  0  0  0  0  0  0  0  0  0  0  # atno 17321 bound_to 7965
  140.6971  143.7722  150.7344 LP  0  0  0  0  0  0  0  0  0  0  0  0  # atno 17342 bound_to 10162
  140.1222  143.4602  152.2306 LP  0  0  0  0  0  0  0  0  0  0  0  0  # atno 17343 bound_to 10162
  156.8322  130.5020  149.5330 LP  0  0  0  0  0  0  0  0  0  0  0  0  # atno 17370 bound_to 10713
  156.1016  130.5973  150.9903 LP  0  0  0  0  0  0  0  0  0  0  0  0  # atno 17371 bound_to 10713
  139.8775  134.9185  156.3204 LP  0  0  0  0  0  0  0  0  0  0  0  0  # atno 17394 bound_to 11000
  140.9688  133.7341  156.0505 LP  0  0  0  0  0  0  0  0  0  0  0  0  # atno 17395 bound_to 11000

$$$$
