AV-unprocessed.smi:3210|AV-procd|sdf|12272|dock7
  -GOLD-   2272018103D 1   1.00000     0.00000
 Structure written by MMmdl.
 35 36  0  0  0  0  0  0  0  0  2 V2000
  146.2374  136.5485  153.2249 O   0  0  0  0  0  0  0  0  0  0  0  0
  145.8225  137.2201  152.2794 C   0  0  0  0  0  0  0  0  0  0  0  0
  146.5095  138.5301  151.8885 C   0  0  0  0  0  0  0  0  0  0  0  0
  147.8693  138.6431  152.4550 N   0  3  0  0  0  0  0  0  0  0  0  0
  147.8982  138.8549  153.9147 C   0  0  0  0  0  0  0  0  0  0  0  0
  148.9412  139.9151  154.2965 C   0  0  0  0  0  0  0  0  0  0  0  0
  150.2486  139.3297  154.5219 N   0  0  0  0  0  0  0  0  0  0  0  0
  150.6417  138.0173  154.3616 C   0  0  0  0  0  0  0  0  0  0  0  0
  151.9620  137.9449  154.7020 C   0  0  0  0  0  0  0  0  0  0  0  0
  152.2914  139.2802  155.0671 C   0  0  0  0  0  0  0  0  0  0  0  0
  151.2630  140.1064  154.9594 N   0  0  0  0  0  0  0  0  0  0  0  0
  144.7648  136.8663  151.5339 N   0  0  0  0  0  0  0  0  0  0  0  0
  143.9675  135.6621  151.7313 C   0  0  0  0  0  0  0  0  0  0  0  0
  144.6913  134.3600  151.4453 C   0  0  0  0  0  0  0  0  0  0  0  0
  144.4602  133.6282  150.1443 C   0  0  0  0  0  0  0  0  0  0  0  0
  143.9530  133.0419  151.4400 C   0  0  0  0  0  0  0  0  0  0  0  0
  146.5639  138.5906  150.8006 H   0  0  0  0  0  0  0  0  0  0  0  0
  145.9023  139.3680  152.2342 H   0  0  0  0  0  0  0  0  0  0  0  0
  148.3739  137.7947  152.2402 H   0  0  0  0  0  0  0  0  0  0  0  0
  146.9090  139.1665  154.2529 H   0  0  0  0  0  0  0  0  0  0  0  0
  148.1243  137.9077  154.4061 H   0  0  0  0  0  0  0  0  0  0  0  0
  149.0304  140.6664  153.5103 H   0  0  0  0  0  0  0  0  0  0  0  0
  148.6352  140.4390  155.2030 H   0  0  0  0  0  0  0  0  0  0  0  0
  149.9587  137.2525  154.0222 H   0  0  0  0  0  0  0  0  0  0  0  0
  152.5959  137.0705  154.6940 H   0  0  0  0  0  0  0  0  0  0  0  0
  153.2400  139.6705  155.4051 H   0  0  0  0  0  0  0  0  0  0  0  0
  144.4884  137.4746  150.7764 H   0  0  0  0  0  0  0  0  0  0  0  0
  143.6149  135.6562  152.7630 H   0  0  0  0  0  0  0  0  0  0  0  0
  143.0744  135.7083  151.1063 H   0  0  0  0  0  0  0  0  0  0  0  0
  145.7152  134.3358  151.8142 H   0  0  0  0  0  0  0  0  0  0  0  0
  143.7225  134.0356  149.4558 H   0  0  0  0  0  0  0  0  0  0  0  0
  145.3192  133.1504  149.6777 H   0  0  0  0  0  0  0  0  0  0  0  0
  144.4738  132.1728  151.8370 H   0  0  0  0  0  0  0  0  0  0  0  0
  142.8787  133.0601  151.6119 H   0  0  0  0  0  0  0  0  0  0  0  0
  148.3374  139.4166  152.0046 H   0  0  0  0  0  0  0  0  0  0  0  0
  1  2  2  0  0  0  0
  2  3  1  0  0  0  0
  2 12  1  0  0  0  0
  3  4  1  0  0  0  0
  3 17  1  0  0  0  0
  3 18  1  0  0  0  0
  4  5  1  0  0  0  0
  4 19  1  0  0  0  0
  4 35  1  0  0  0  0
  5  6  1  0  0  0  0
  5 20  1  0  0  0  0
  5 21  1  0  0  0  0
  6  7  1  0  0  0  0
  6 22  1  0  0  0  0
  6 23  1  0  0  0  0
  7 11  1  0  0  0  0
  7  8  1  0  0  0  0
  8  9  2  0  0  0  0
  8 24  1  0  0  0  0
  9 10  1  0  0  0  0
  9 25  1  0  0  0  0
 10 11  2  0  0  0  0
 10 26  1  0  0  0  0
 12 13  1  0  0  0  0
 12 27  1  0  0  0  0
 13 14  1  0  0  0  0
 13 28  1  0  0  0  0
 13 29  1  0  0  0  0
 14 16  1  0  0  0  0
 14 15  1  0  0  0  0
 14 30  1  0  0  0  0
 15 16  1  0  0  0  0
 15 31  1  0  0  0  0
 15 32  1  0  0  0  0
 16 33  1  0  0  0  0
 16 34  1  0  0  0  0
M  CHG  1   4   1
M  END
> <s_m_source_file>
AV-unprocessed.smi

> <i_m_source_file_index>
3210

> <i_lp_mmshare_version>
43012

> <i_f3d_flags>
0

> <s_epik_input>
W0NIMl0xW0NIMl1bQ0hdMVtDSDJdW05IXUMoPU8pW0NIMl1bTkhdW0NIMl1bQ0gyXW4yW2NIXVtjSF1bY0hdbjI=

> <s_epik_cmdline>
J2VwaWtfcHl0aG9uJywgJy1waCcsICc3LjAnLCAnLXRuJywgJzgnLCAnLW1hJywgJzIwMCcsICctbWV0YWxfYmluZGluZycsICctaW1hZScsICc8aW5maWxlLm1hZT4nLCAnLW9tYWUnLCAnPG91dGZpbGUubWFlPic=

> <r_lp_tautomer_probability>
1

> <r_epik_Ionization_Penalty>
0.20724

> <r_epik_Ionization_Penalty_Charging>
0.207237

> <r_epik_Ionization_Penalty_Neutral>
3.19342e-06

> <r_epik_State_Penalty>
0.197611

> <r_epik_Charging_Adjusted_Penalty>
0.404848

> <i_epik_Tot_Q>
1

> <i_epik_Tot_abs_Q>
1

> <r_epik_Metal_State_Penalty>
0.197786

> <b_epik_Metal_Only>
0

> <s_lp_Force_Field>
OPLS_2005

> <r_lp_Energy>
10.8837

> <b_lp_Chiralities_Consistent>
1

> <s_lp_Variant>
AV-unprocessed.smi:3210-1

> <Gold.Version>
5.8.1

> <Gold.Id.Protein>
6NUR|6NUR_protein|mol2

> <Gold.PLP.Fitness>
52.0984

> <Gold.PLP.PLP>
-35.6787

> <Gold.PLP.part.hbond>
-4.0000

> <Gold.PLP.part.metal>
0.0000

> <Gold.PLP.part.buried>
-4.3125

> <Gold.PLP.part.nonpolar>
-29.5023

> <Gold.PLP.part.repulsive>
0.7613

> <Gold.PLP.ligand.clash>
0.0000

> <Gold.PLP.ligand.torsion>
1.0970

> <Gold.PLP.Chemscore.Hbond>
5.0000

> <Gold.PLP.Chemscore.CHOScore>
1.0000

> <Gold.PLP.Chemscore.Metal>
0.0000

> <Gold.Chemscore.Hbonds>
donor molecule, donor type, donor heavy atom, donor atom, acceptor molecule, acceptor atom, score
      L1  H     4    19       P1  7948  2.00
      L1  H     4    35       P1  7957  1.00
      L1  H    12    27       P1 10171  1.00
      P1  H  7989  7998       L1    11  0.95
      L1  C     8    24       P1  7948  0.93

> <Gold.PLP.Chemscore.Internal.Correction>
0.6137

> <Gold.Rescore>
     Score         DG    S(hbond)    S(metal)    S(lipo)     H(rot)  DE(clash)    DE(int)     intcor
     17.22     -19.90       3.73        0.00      68.55       2.37       0.38       2.30       ----

> <Gold.Chemscore.Fitness>
17.2200

> <Gold.Chemscore.DG>
-19.9004

> <Gold.Chemscore.ZeroCoef>
-5.4800

> <Gold.Chemscore.Hbond>
3.7339

> <Gold.Chemscore.Metal>
0.0000

> <Gold.Chemscore.Lipo>
68.5506

> <Gold.Chemscore.Internal_Hbond>
0.0000

> <Gold.Chemscore.DEClash>
0.3803

> <Gold.Chemscore.DEInternal>
2.3001

> <Gold.Chemscore.Rot>
2.3715

> <Gold.Chemscore.Internal.Correction>
   9.000000E+99

> <Gold.Chemscore.Hbonds>
donor molecule, donor type, donor heavy atom, donor atom, acceptor molecule, acceptor atom, score
      L1  H     4    19       P1  7948  1.00
      L1  H     4    35       P1  7957  0.95
      L1  H    12    27       P1 10171  0.98
      P1  H  7989  7998       L1    11  0.05

> <Gold.Chemscore.Hbond.Weighted>
-12.4711

> <Gold.Chemscore.Metal.Weighted>
-0.0000

> <Gold.Chemscore.Lipo.Weighted>
-8.0204

> <Gold.Chemscore.Internal_Hbond.Weighted>
0.0000

> <Gold.Chemscore.DEClash.Weighted>
0.3803

> <Gold.Chemscore.DEInternal.Weighted>
2.3001

> <Gold.Chemscore.Rot.Weighted>
6.0712

> <Gold.Chemscore.Internal.Correction.Weighted>
   9.000000E+99

> <Gold.Protein.RotatedTorsions>
[ 6907 6896 6895 6894 ] final -134.73 input  -60.11 | X-H torsion
[ 7974 7965 7964 7962 ] final  159.22 input  175.53 | X-H torsion
[ 8008 7997 7996 7995 ] final  -39.82 input   59.86 | X-H torsion
[ 10167 10162 10161 10158 ] final   27.63 input  -65.29 | X-H torsion
[ 10718 10713 10712 10709 ] final -159.86 input   66.30 | X-H torsion
[ 10763 10752 10751 10750 ] final  171.11 input  -60.55 | X-H torsion
[ 11005 11000 10999 10996 ] final   40.60 input  -57.11 | X-H torsion

> <Gold.Protein.ActiveResidues>
 VAL166  LYS551  ARG553  GLY616  TRP617  ASP618  TYR619  PRO620  LYS621  CYS622 
 ASP623  PHE694  ASN695  SER759  ASP760  ASP761  ALA762  ILE779  LEU786  VAL792 
 PHE793  MET794  SER795  GLU796  ALA797  LYS798  CYS799  TRP800  GLU811  SER814 

> <Gold.Protein.RotatedAtoms>
  150.9894  133.6165  159.2710 H   0  0  0  0  0  0  0  0  0  0  0  0  # atno 6907 bound_to 6896
  151.3391  135.0858  159.9375 H   0  0  0  0  0  0  0  0  0  0  0  0  # atno 6908 bound_to 6896
  152.5241  133.9508  159.7725 H   0  0  0  0  0  0  0  0  0  0  0  0  # atno 6909 bound_to 6896
  144.7802  139.7587  143.6263 H   0  0  0  0  0  0  0  0  0  0  0  0  # atno 7974 bound_to 7965
  154.4018  140.1541  156.2925 H   0  0  0  0  0  0  0  0  0  0  0  0  # atno 8008 bound_to 7997
  155.8772  140.3445  155.5841 H   0  0  0  0  0  0  0  0  0  0  0  0  # atno 8009 bound_to 7997
  155.7707  140.0830  157.2100 H   0  0  0  0  0  0  0  0  0  0  0  0  # atno 8010 bound_to 7997
  140.4922  144.0449  150.6301 H   0  0  0  0  0  0  0  0  0  0  0  0  # atno 10167 bound_to 10162
  156.5741  130.8701  151.2846 H   0  0  0  0  0  0  0  0  0  0  0  0  # atno 10718 bound_to 10713
  154.4073  135.2756  155.2059 H   0  0  0  0  0  0  0  0  0  0  0  0  # atno 10763 bound_to 10752
  154.4060  135.6033  153.5928 H   0  0  0  0  0  0  0  0  0  0  0  0  # atno 10764 bound_to 10752
  152.9831  135.5938  154.4349 H   0  0  0  0  0  0  0  0  0  0  0  0  # atno 10765 bound_to 10752
  140.1915  134.3981  155.8144 H   0  0  0  0  0  0  0  0  0  0  0  0  # atno 11005 bound_to 11000
  146.2005  139.5298  142.9746 LP  0  0  0  0  0  0  0  0  0  0  0  0  # atno 17320 bound_to 7965
  145.6072  141.0345  143.1986 LP  0  0  0  0  0  0  0  0  0  0  0  0  # atno 17321 bound_to 7965
  140.3722  143.2848  152.0266 LP  0  0  0  0  0  0  0  0  0  0  0  0  # atno 17342 bound_to 10162
  139.4853  144.6221  151.7235 LP  0  0  0  0  0  0  0  0  0  0  0  0  # atno 17343 bound_to 10162
  157.7341  130.9742  150.2014 LP  0  0  0  0  0  0  0  0  0  0  0  0  # atno 17370 bound_to 10713
  156.2689  130.3719  149.8052 LP  0  0  0  0  0  0  0  0  0  0  0  0  # atno 17371 bound_to 10713
  141.2226  133.7049  156.8103 LP  0  0  0  0  0  0  0  0  0  0  0  0  # atno 17394 bound_to 11000
  140.2154  134.8796  157.3320 LP  0  0  0  0  0  0  0  0  0  0  0  0  # atno 17395 bound_to 11000

$$$$
