AV-unprocessed.smi:196|AV-procd|sdf|1529|dock10
  -GOLD-   2262019383D 1   1.00000     0.00000
 Structure written by MMmdl.
 47 50  0  0  0  0  0  0  0  0  1 V2000
  150.9674  138.4307  153.8941 C   0  0  0  0  0  0  0  0  0  0  0  0
  150.5157  139.3032  155.0767 C   0  0  1  0  0  0  0  0  0  0  0  0
  151.6381  139.8502  155.7529 O   0  0  0  0  0  0  0  0  0  0  0  0
  151.1588  140.9154  156.5536 C   0  0  0  0  0  0  0  0  0  0  0  0
  150.2024  141.6397  155.6139 C   0  0  0  0  0  0  0  0  0  0  0  0
  149.6080  140.5200  154.7534 C   0  0  1  0  0  0  0  0  0  0  0  0
  149.7138  140.9058  153.3925 O   0  0  0  0  0  0  0  0  0  0  0  0
  148.1126  140.2704  155.0713 C   0  0  0  0  0  0  0  0  0  0  0  0
  147.5064  139.2446  154.2357 N   0  0  0  0  0  0  0  0  0  0  0  0
  147.0988  139.3817  152.9281 C   0  0  0  0  0  0  0  0  0  0  0  0
  146.5988  138.3060  152.3855 N   0  0  0  0  0  0  0  0  0  0  0  0
  146.6476  137.3561  153.3994 C   0  0  0  0  0  0  0  0  0  0  0  0
  146.2789  135.9828  153.4938 C   0  0  0  0  0  0  0  0  0  0  0  0
  145.7382  135.2817  152.4605 N   0  0  0  0  0  0  0  0  0  0  0  0
  144.5376  135.8000  151.8131 C   0  0  0  0  0  0  0  0  0  0  0  0
  143.6916  134.5752  151.4677 C   0  0  2  0  0  0  0  0  0  0  0  0
  142.8701  134.3029  152.4830 F   0  0  0  0  0  0  0  0  0  0  0  0
  144.7262  133.4628  151.3365 C   0  0  0  0  0  0  0  0  0  0  0  0
  145.7827  133.8141  152.3968 C   0  0  1  0  0  0  0  0  0  0  0  0
  147.1556  133.2205  152.0242 C   0  0  0  0  0  0  0  0  0  0  0  0
  147.2944  132.6048  150.8452 N   0  0  0  0  0  0  0  0  0  0  0  0
  148.0955  133.3249  152.8089 O   0  0  0  0  0  0  0  0  0  0  0  0
  146.5067  135.3597  154.6804 N   0  0  0  0  0  0  0  0  0  0  0  0
  147.0398  136.0273  155.7071 C   0  0  0  0  0  0  0  0  0  0  0  0
  147.4231  137.3034  155.7622 N   0  0  0  0  0  0  0  0  0  0  0  0
  147.2130  137.9342  154.5719 C   0  0  0  0  0  0  0  0  0  0  0  0
  143.0792  134.7092  150.5755 H   0  0  0  0  0  0  0  0  0  0  0  0
  145.4647  133.4006  153.3555 H   0  0  0  0  0  0  0  0  0  0  0  0
  150.1116  138.0216  153.3569 H   0  0  0  0  0  0  0  0  0  0  0  0
  151.5692  137.5918  154.2430 H   0  0  0  0  0  0  0  0  0  0  0  0
  151.5732  138.9963  153.1858 H   0  0  0  0  0  0  0  0  0  0  0  0
  150.0151  138.6639  155.8044 H   0  0  0  0  0  0  0  0  0  0  0  0
  150.6302  140.5165  157.4209 H   0  0  0  0  0  0  0  0  0  0  0  0
  151.9696  141.5538  156.9051 H   0  0  0  0  0  0  0  0  0  0  0  0
  149.4529  142.2181  156.1553 H   0  0  0  0  0  0  0  0  0  0  0  0
  150.7750  142.3412  155.0047 H   0  0  0  0  0  0  0  0  0  0  0  0
  149.4889  140.1643  152.8520 H   0  0  0  0  0  0  0  0  0  0  0  0
  147.9964  139.9748  156.1149 H   0  0  0  0  0  0  0  0  0  0  0  0
  147.5390  141.1905  154.9517 H   0  0  0  0  0  0  0  0  0  0  0  0
  147.1960  140.3081  152.3809 H   0  0  0  0  0  0  0  0  0  0  0  0
  143.9789  136.4991  152.4376 H   0  0  0  0  0  0  0  0  0  0  0  0
  144.8368  136.3239  150.9047 H   0  0  0  0  0  0  0  0  0  0  0  0
  144.2965  132.4711  151.4819 H   0  0  0  0  0  0  0  0  0  0  0  0
  145.1579  133.4929  150.3341 H   0  0  0  0  0  0  0  0  0  0  0  0
  148.1860  132.2067  150.5881 H   0  0  0  0  0  0  0  0  0  0  0  0
  146.5056  132.5367  150.2190 H   0  0  0  0  0  0  0  0  0  0  0  0
  147.1807  135.4563  156.6130 H   0  0  0  0  0  0  0  0  0  0  0  0
  1  2  1  0  0  0  0
  1 29  1  0  0  0  0
  1 30  1  0  0  0  0
  1 31  1  0  0  0  0
  2  6  1  0  0  0  0
  2  3  1  0  0  0  0
  2 32  1  0  0  0  0
  3  4  1  0  0  0  0
  4  5  1  0  0  0  0
  4 33  1  0  0  0  0
  4 34  1  0  0  0  0
  5  6  1  0  0  0  0
  5 35  1  0  0  0  0
  5 36  1  0  0  0  0
  6  7  1  0  0  0  0
  6  8  1  0  0  0  0
  7 37  1  0  0  0  0
  8  9  1  0  0  0  0
  8 38  1  0  0  0  0
  8 39  1  0  0  0  0
  9 26  1  0  0  0  0
  9 10  1  0  0  0  0
 10 11  2  0  0  0  0
 10 40  1  0  0  0  0
 11 12  1  0  0  0  0
 12 26  2  0  0  0  0
 12 13  1  0  0  0  0
 13 14  1  0  0  0  0
 13 23  2  0  0  0  0
 14 19  1  0  0  0  0
 14 15  1  0  0  0  0
 15 16  1  0  0  0  0
 15 41  1  0  0  0  0
 15 42  1  0  0  0  0
 16 27  1  0  0  0  0
 16 17  1  0  0  0  0
 16 18  1  0  0  0  0
 18 19  1  0  0  0  0
 18 43  1  0  0  0  0
 18 44  1  0  0  0  0
 19 28  1  0  0  0  0
 19 20  1  0  0  0  0
 20 21  1  0  0  0  0
 20 22  2  0  0  0  0
 21 45  1  0  0  0  0
 21 46  1  0  0  0  0
 23 24  1  0  0  0  0
 24 25  2  0  0  0  0
 24 47  1  0  0  0  0
 25 26  1  0  0  0  0
M  END
> <s_m_source_file>
AV-unprocessed.smi

> <i_m_source_file_index>
196

> <i_lp_mmshare_version>
43012

> <i_f3d_flags>
0

> <s_epik_input>
W0NIMl0xW0NIMl1PW0NAQEhdKFtDSDNdKVtDQEBdMShbT0hdKVtDSDJdbihbY0hdbjIpYyhjMjMpbltjSF1uYzNONFtDSDJdW0NASF0oRilbQ0gyXVtDQEhdNEMoPU8pW05IMl0=

> <s_epik_cmdline>
J2VwaWtfcHl0aG9uJywgJy1waCcsICc3LjAnLCAnLXRuJywgJzgnLCAnLW1hJywgJzIwMCcsICctbWV0YWxfYmluZGluZycsICctaW1hZScsICc8aW5maWxlLm1hZT4nLCAnLW9tYWUnLCAnPG91dGZpbGUubWFlPic=

> <r_lp_tautomer_probability>
1

> <r_epik_Ionization_Penalty>
0.000857933

> <r_epik_Ionization_Penalty_Charging>
0

> <r_epik_Ionization_Penalty_Neutral>
0.000857933

> <r_epik_State_Penalty>
0.000462053

> <r_epik_Charging_Adjusted_Penalty>
0.000462053

> <i_epik_Tot_Q>
0

> <i_epik_Tot_abs_Q>
0

> <r_epik_Metal_State_Penalty>
-0

> <b_epik_Metal_Only>
0

> <s_lp_Force_Field>
OPLS_2005

> <r_lp_Energy>
42.3272

> <b_lp_Chiralities_Consistent>
1

> <s_lp_Variant>
AV-unprocessed.smi:196-2

> <Gold.Version>
5.8.1

> <Gold.Id.Protein>
6NUR|6NUR_protein|mol2

> <Gold.PLP.Fitness>
42.7962

> <Gold.PLP.PLP>
-34.2854

> <Gold.PLP.part.hbond>
-3.3047

> <Gold.PLP.part.metal>
0.0000

> <Gold.PLP.part.buried>
-3.8281

> <Gold.PLP.part.nonpolar>
-26.9752

> <Gold.PLP.part.repulsive>
0.8583

> <Gold.PLP.ligand.clash>
0.0000

> <Gold.PLP.ligand.torsion>
0.9107

> <Gold.PLP.Chemscore.Hbond>
2.8480

> <Gold.PLP.Chemscore.CHOScore>
0.5059

> <Gold.PLP.Chemscore.Metal>
0.0000

> <Gold.Chemscore.Hbonds>
donor molecule, donor type, donor heavy atom, donor atom, acceptor molecule, acceptor atom, score
      L1  H     7    37       P1  7957  0.54
      L1  H    21    45       P1 10747  0.93
      P1  H  7989  7998       L1     7  0.17
      P1  H  8011  8017       L1     7  1.00
      L1  C    10    40       P1  7957  0.28

> <Gold.PLP.Chemscore.Internal.Correction>
0.2704

> <Gold.Rescore>
     Score         DG    S(hbond)    S(metal)    S(lipo)     H(rot)  DE(clash)    DE(int)     intcor
     12.13     -14.01       2.34        0.00      62.89       2.60       0.06       1.83       ----

> <Gold.Chemscore.Fitness>
12.1279

> <Gold.Chemscore.DG>
-14.0109

> <Gold.Chemscore.ZeroCoef>
-5.4800

> <Gold.Chemscore.Hbond>
2.3415

> <Gold.Chemscore.Metal>
0.0000

> <Gold.Chemscore.Lipo>
62.8888

> <Gold.Chemscore.Internal_Hbond>
0.0000

> <Gold.Chemscore.DEClash>
0.0556

> <Gold.Chemscore.DEInternal>
1.8274

> <Gold.Chemscore.Rot>
2.5968

> <Gold.Chemscore.Internal.Correction>
   9.000000E+99

> <Gold.Chemscore.Hbonds>
donor molecule, donor type, donor heavy atom, donor atom, acceptor molecule, acceptor atom, score
      L1  H     7    37       P1  7957  0.54
      L1  H    21    45       P1 10747  0.89
      P1  H  7989  7998       L1     7  0.01
      P1  H  8011  8017       L1     7  0.69

> <Gold.Chemscore.Hbond.Weighted>
-7.8207

> <Gold.Chemscore.Metal.Weighted>
-0.0000

> <Gold.Chemscore.Lipo.Weighted>
-7.3580

> <Gold.Chemscore.Internal_Hbond.Weighted>
0.0000

> <Gold.Chemscore.DEClash.Weighted>
0.0556

> <Gold.Chemscore.DEInternal.Weighted>
1.8274

> <Gold.Chemscore.Rot.Weighted>
6.6477

> <Gold.Chemscore.Internal.Correction.Weighted>
   9.000000E+99

> <Gold.Protein.RotatedTorsions>
[ 6907 6896 6895 6894 ] final  -59.89 input  -60.11 | X-H torsion
[ 7974 7965 7964 7962 ] final  -83.23 input  175.53 | X-H torsion
[ 8008 7997 7996 7995 ] final   97.84 input   59.86 | X-H torsion
[ 10167 10162 10161 10158 ] final  -19.56 input  -65.29 | X-H torsion
[ 10718 10713 10712 10709 ] final  156.82 input   66.30 | X-H torsion
[ 10763 10752 10751 10750 ] final -100.36 input  -60.55 | X-H torsion
[ 11005 11000 10999 10996 ] final  107.96 input  -57.11 | X-H torsion

> <Gold.Protein.ActiveResidues>
 VAL166  LYS551  ARG553  GLY616  TRP617  ASP618  TYR619  PRO620  LYS621  CYS622 
 ASP623  PHE694  ASN695  SER759  ASP760  ASP761  ALA762  ILE779  LEU786  VAL792 
 PHE793  MET794  SER795  GLU796  ALA797  LYS798  CYS799  TRP800  GLU811  SER814 

> <Gold.Protein.RotatedAtoms>
  150.7897  134.6909  159.6496 H   0  0  0  0  0  0  0  0  0  0  0  0  # atno 6907 bound_to 6896
  152.4000  134.6299  160.0082 H   0  0  0  0  0  0  0  0  0  0  0  0  # atno 6908 bound_to 6896
  151.6574  133.3281  159.3202 H   0  0  0  0  0  0  0  0  0  0  0  0  # atno 6909 bound_to 6896
  145.5227  140.9529  143.1646 H   0  0  0  0  0  0  0  0  0  0  0  0  # atno 7974 bound_to 7965
  156.0943  140.3252  155.7856 H   0  0  0  0  0  0  0  0  0  0  0  0  # atno 8008 bound_to 7997
  155.4945  140.0564  157.2966 H   0  0  0  0  0  0  0  0  0  0  0  0  # atno 8009 bound_to 7997
  154.4656  140.1988  156.0142 H   0  0  0  0  0  0  0  0  0  0  0  0  # atno 8010 bound_to 7997
  140.7269  143.4807  151.0122 H   0  0  0  0  0  0  0  0  0  0  0  0  # atno 10167 bound_to 10162
  157.1998  131.0673  151.2032 H   0  0  0  0  0  0  0  0  0  0  0  0  # atno 10718 bound_to 10713
  154.7573  135.4938  153.9398 H   0  0  0  0  0  0  0  0  0  0  0  0  # atno 10763 bound_to 10752
  153.1210  135.6731  153.9344 H   0  0  0  0  0  0  0  0  0  0  0  0  # atno 10764 bound_to 10752
  153.9075  135.3102  155.3427 H   0  0  0  0  0  0  0  0  0  0  0  0  # atno 10765 bound_to 10752
  139.8836  134.9416  156.5900 H   0  0  0  0  0  0  0  0  0  0  0  0  # atno 11005 bound_to 11000
  144.7667  139.6828  143.7211 LP  0  0  0  0  0  0  0  0  0  0  0  0  # atno 17320 bound_to 7965
  146.2096  139.5443  142.9690 LP  0  0  0  0  0  0  0  0  0  0  0  0  # atno 17321 bound_to 7965
  139.8505  143.7445  152.3178 LP  0  0  0  0  0  0  0  0  0  0  0  0  # atno 17342 bound_to 10162
  139.7625  144.7502  151.0343 LP  0  0  0  0  0  0  0  0  0  0  0  0  # atno 17343 bound_to 10162
  157.3779  130.7215  149.6609 LP  0  0  0  0  0  0  0  0  0  0  0  0  # atno 17370 bound_to 10713
  155.9702  130.4181  150.4309 LP  0  0  0  0  0  0  0  0  0  0  0  0  # atno 17371 bound_to 10713
  140.7963  133.8542  155.8688 LP  0  0  0  0  0  0  0  0  0  0  0  0  # atno 17394 bound_to 11000
  140.9633  134.1627  157.4636 LP  0  0  0  0  0  0  0  0  0  0  0  0  # atno 17395 bound_to 11000

$$$$
