AV-unprocessed.smi:169|AV-procd|sdf|1404|dock2
  -GOLD-   2262019153D 1   1.00000     0.00000
 Structure written by MMmdl.
 56 60  0  0  0  0  0  0  0  0  2 V2000
  145.6826  134.7672  151.1590 C   0  0  0  0  0  0  0  0  0  0  0  0
  145.9081  136.2862  151.0518 C   0  0  0  0  0  0  0  0  0  0  0  0
  146.3351  136.9278  152.3229 N   0  3  2  0  0  0  0  0  0  0  0  0
  145.5709  136.4697  153.5107 C   0  0  0  0  0  0  0  0  0  0  0  0
  146.4870  136.3011  154.7377 C   0  0  0  0  0  0  0  0  0  0  0  0
  147.1609  137.5870  155.2615 C   0  0  2  0  0  0  0  0  0  0  0  0
  146.1619  138.6648  155.6966 C   0  0  0  0  0  0  0  0  0  0  0  0
  146.0182  139.5800  154.4750 C   0  0  0  0  0  0  0  0  0  0  0  0
  147.0800  139.0982  153.4648 C   0  0  2  0  0  0  0  0  0  0  0  0
  146.4781  138.4062  152.2162 C   0  0  0  0  0  0  0  0  0  0  0  0
  147.9704  138.2244  154.2257 N   0  0  0  0  0  0  0  0  0  0  0  0
  149.1900  138.7467  154.5150 C   0  0  0  0  0  0  0  0  0  0  0  0
  150.3276  138.0901  154.1658 N   0  0  0  0  0  0  0  0  0  0  0  0
  151.5235  138.6074  154.4636 C   0  0  0  0  0  0  0  0  0  0  0  0
  151.8047  139.7484  155.0958 N   0  0  0  0  0  0  0  0  0  0  0  0
  150.6670  140.4120  155.4492 C   0  0  0  0  0  0  0  0  0  0  0  0
  149.3328  139.9880  155.1950 C   0  0  0  0  0  0  0  0  0  0  0  0
  148.4341  140.9291  155.6820 N   0  0  0  0  0  0  0  0  0  0  0  0
  149.1946  141.8540  156.2013 C   0  0  0  0  0  0  0  0  0  0  0  0
  150.5493  141.6168  156.1213 N   0  0  0  0  0  0  0  0  0  0  0  0
  151.6209  142.4720  156.6126 C   0  0  0  0  0  0  0  0  0  0  0  0
  151.4781  142.9097  158.0908 C   0  0  0  0  0  0  0  0  0  0  0  0
  151.9238  141.7400  158.9790 C   0  0  0  0  0  0  0  0  0  0  0  0
  151.8621  142.0819  160.3491 O   0  0  0  0  0  0  0  0  0  0  0  0
  152.0940  144.2734  158.4476 C   0  0  0  0  0  0  0  0  0  0  0  0
  150.8045  144.9205  158.4231 O   0  0  0  0  0  0  0  0  0  0  0  0
  150.1788  143.6226  158.5060 C   0  0  0  0  0  0  0  0  0  0  0  0
  145.4139  134.3552  150.1861 H   0  0  0  0  0  0  0  0  0  0  0  0
  144.8725  134.5218  151.8450 H   0  0  0  0  0  0  0  0  0  0  0  0
  146.5789  134.2455  151.4950 H   0  0  0  0  0  0  0  0  0  0  0  0
  146.6635  136.4870  150.2908 H   0  0  0  0  0  0  0  0  0  0  0  0
  144.9956  136.7678  150.6983 H   0  0  0  0  0  0  0  0  0  0  0  0
  144.7321  137.1358  153.7144 H   0  0  0  0  0  0  0  0  0  0  0  0
  145.1310  135.4931  153.3045 H   0  0  0  0  0  0  0  0  0  0  0  0
  145.9058  135.8592  155.5476 H   0  0  0  0  0  0  0  0  0  0  0  0
  147.2616  135.5699  154.5022 H   0  0  0  0  0  0  0  0  0  0  0  0
  147.7652  137.2927  156.1200 H   0  0  0  0  0  0  0  0  0  0  0  0
  145.2097  138.2513  156.0306 H   0  0  0  0  0  0  0  0  0  0  0  0
  146.5780  139.2354  156.5280 H   0  0  0  0  0  0  0  0  0  0  0  0
  145.0081  139.5456  154.0664 H   0  0  0  0  0  0  0  0  0  0  0  0
  146.2089  140.6140  154.7647 H   0  0  0  0  0  0  0  0  0  0  0  0
  147.6096  139.9871  153.1177 H   0  0  0  0  0  0  0  0  0  0  0  0
  147.1519  138.5961  151.3796 H   0  0  0  0  0  0  0  0  0  0  0  0
  145.5317  138.8737  151.9455 H   0  0  0  0  0  0  0  0  0  0  0  0
  152.3769  138.0226  154.1529 H   0  0  0  0  0  0  0  0  0  0  0  0
  148.7828  142.7407  156.6603 H   0  0  0  0  0  0  0  0  0  0  0  0
  152.5591  141.9394  156.4536 H   0  0  0  0  0  0  0  0  0  0  0  0
  151.6668  143.3481  155.9644 H   0  0  0  0  0  0  0  0  0  0  0  0
  151.3083  140.8567  158.8051 H   0  0  0  0  0  0  0  0  0  0  0  0
  152.9511  141.4498  158.7561 H   0  0  0  0  0  0  0  0  0  0  0  0
  150.9986  142.4159  160.5384 H   0  0  0  0  0  0  0  0  0  0  0  0
  152.5421  144.3122  159.4420 H   0  0  0  0  0  0  0  0  0  0  0  0
  152.7855  144.6695  157.7055 H   0  0  0  0  0  0  0  0  0  0  0  0
  149.3469  143.5048  157.8137 H   0  0  0  0  0  0  0  0  0  0  0  0
  149.8600  143.3957  159.5249 H   0  0  0  0  0  0  0  0  0  0  0  0
  147.2730  136.5842  152.4738 H   0  0  0  0  0  0  0  0  0  0  0  0
  1  2  1  0  0  0  0
  1 28  1  0  0  0  0
  1 29  1  0  0  0  0
  1 30  1  0  0  0  0
  2  3  1  0  0  0  0
  2 31  1  0  0  0  0
  2 32  1  0  0  0  0
  3 10  1  0  0  0  0
  3  4  1  0  0  0  0
  3 56  1  0  0  0  0
  4  5  1  0  0  0  0
  4 33  1  0  0  0  0
  4 34  1  0  0  0  0
  5  6  1  0  0  0  0
  5 35  1  0  0  0  0
  5 36  1  0  0  0  0
  6 11  1  0  0  0  0
  6  7  1  0  0  0  0
  6 37  1  0  0  0  0
  7  8  1  0  0  0  0
  7 38  1  0  0  0  0
  7 39  1  0  0  0  0
  8  9  1  0  0  0  0
  8 40  1  0  0  0  0
  8 41  1  0  0  0  0
  9 10  1  0  0  0  0
  9 11  1  0  0  0  0
  9 42  1  0  0  0  0
 10 43  1  0  0  0  0
 10 44  1  0  0  0  0
 11 12  1  0  0  0  0
 12 17  1  0  0  0  0
 12 13  2  0  0  0  0
 13 14  1  0  0  0  0
 14 15  2  0  0  0  0
 14 45  1  0  0  0  0
 15 16  1  0  0  0  0
 16 20  1  0  0  0  0
 16 17  2  0  0  0  0
 17 18  1  0  0  0  0
 18 19  2  0  0  0  0
 19 20  1  0  0  0  0
 19 46  1  0  0  0  0
 20 21  1  0  0  0  0
 21 22  1  0  0  0  0
 21 47  1  0  0  0  0
 21 48  1  0  0  0  0
 22 27  1  0  0  0  0
 22 23  1  0  0  0  0
 22 25  1  0  0  0  0
 23 24  1  0  0  0  0
 23 49  1  0  0  0  0
 23 50  1  0  0  0  0
 24 51  1  0  0  0  0
 25 26  1  0  0  0  0
 25 52  1  0  0  0  0
 25 53  1  0  0  0  0
 26 27  1  0  0  0  0
 27 54  1  0  0  0  0
 27 55  1  0  0  0  0
M  CHG  1   3   1
M  END
> <s_m_source_file>
AV-unprocessed.smi

> <i_m_source_file_index>
169

> <i_lp_mmshare_version>
43012

> <i_f3d_flags>
0

> <s_epik_input>
W0NASF0xMltDSDJdW0NIMl1OKFtDSDJdW0NIM10pW0NIMl1bQ0BIXShbQ0gyXVtDSDJdMSlOMmMobltjSF1uMyljKGMzNCluW2NIXW40W0NIMl1DNShbQ0gyXVtPSF0pW0NIMl1PW0NIMl01

> <s_epik_cmdline>
J2VwaWtfcHl0aG9uJywgJy1waCcsICc3LjAnLCAnLXRuJywgJzgnLCAnLW1hJywgJzIwMCcsICctbWV0YWxfYmluZGluZycsICctaW1hZScsICc8aW5maWxlLm1hZT4nLCAnLW9tYWUnLCAnPG91dGZpbGUubWFlPic=

> <r_lp_tautomer_probability>
1

> <r_epik_Ionization_Penalty>
0.00274162

> <r_epik_Ionization_Penalty_Charging>
0.00243722

> <r_epik_Ionization_Penalty_Neutral>
0.000304399

> <r_epik_State_Penalty>
-0

> <r_epik_Charging_Adjusted_Penalty>
0.00243722

> <i_epik_Tot_Q>
1

> <i_epik_Tot_abs_Q>
1

> <r_epik_Metal_State_Penalty>
-0

> <b_epik_Metal_Only>
0

> <s_lp_Force_Field>
OPLS_2005

> <r_lp_Energy>
74.1365

> <b_lp_Chiralities_Consistent>
1

> <s_lp_Variant>
AV-unprocessed.smi:169-7

> <Gold.Version>
5.8.1

> <Gold.Id.Protein>
6NUR|6NUR_protein|mol2

> <Gold.PLP.Fitness>
45.2091

> <Gold.PLP.PLP>
-37.2824

> <Gold.PLP.part.hbond>
-2.7020

> <Gold.PLP.part.metal>
0.0000

> <Gold.PLP.part.buried>
-4.6758

> <Gold.PLP.part.nonpolar>
-30.9045

> <Gold.PLP.part.repulsive>
0.7330

> <Gold.PLP.ligand.clash>
0.0000

> <Gold.PLP.ligand.torsion>
0.7368

> <Gold.PLP.Chemscore.Hbond>
2.1366

> <Gold.PLP.Chemscore.CHOScore>
0.7949

> <Gold.PLP.Chemscore.Metal>
0.0000

> <Gold.Chemscore.Hbonds>
donor molecule, donor type, donor heavy atom, donor atom, acceptor molecule, acceptor atom, score
      L1  H     3    56       P1  7948  1.98
      P1  H  7989  7998       L1    15  0.11
      L1  C    19    46       P1  8028  0.84

> <Gold.PLP.Chemscore.Internal.Correction>
0.6057

> <Gold.Rescore>
     Score         DG    S(hbond)    S(metal)    S(lipo)     H(rot)  DE(clash)    DE(int)     intcor
      8.65     -12.74       0.99        0.00      91.03       2.62       2.34       1.76       ----

> <Gold.Chemscore.Fitness>
8.6471

> <Gold.Chemscore.DG>
-12.7391

> <Gold.Chemscore.ZeroCoef>
-5.4800

> <Gold.Chemscore.Hbond>
0.9937

> <Gold.Chemscore.Metal>
0.0000

> <Gold.Chemscore.Lipo>
91.0298

> <Gold.Chemscore.Internal_Hbond>
0.0000

> <Gold.Chemscore.DEClash>
2.3364

> <Gold.Chemscore.DEInternal>
1.7556

> <Gold.Chemscore.Rot>
2.6212

> <Gold.Chemscore.Internal.Correction>
   9.000000E+99

> <Gold.Chemscore.Hbonds>
donor molecule, donor type, donor heavy atom, donor atom, acceptor molecule, acceptor atom, score
      L1  H     3    56       P1  7948  0.94

> <Gold.Chemscore.Hbond.Weighted>
-3.3188

> <Gold.Chemscore.Metal.Weighted>
-0.0000

> <Gold.Chemscore.Lipo.Weighted>
-10.6505

> <Gold.Chemscore.Internal_Hbond.Weighted>
0.0000

> <Gold.Chemscore.DEClash.Weighted>
2.3364

> <Gold.Chemscore.DEInternal.Weighted>
1.7556

> <Gold.Chemscore.Rot.Weighted>
6.7102

> <Gold.Chemscore.Internal.Correction.Weighted>
   9.000000E+99

> <Gold.Protein.RotatedTorsions>
[ 6907 6896 6895 6894 ] final   84.36 input  -60.11 | X-H torsion
[ 7974 7965 7964 7962 ] final  152.57 input  175.53 | X-H torsion
[ 8008 7997 7996 7995 ] final   89.62 input   59.86 | X-H torsion
[ 10167 10162 10161 10158 ] final  116.65 input  -65.29 | X-H torsion
[ 10718 10713 10712 10709 ] final   -8.69 input   66.30 | X-H torsion
[ 10763 10752 10751 10750 ] final   45.68 input  -60.55 | X-H torsion
[ 11005 11000 10999 10996 ] final  139.93 input  -57.11 | X-H torsion

> <Gold.Protein.ActiveResidues>
 VAL166  LYS551  ARG553  GLY616  TRP617  ASP618  TYR619  PRO620  LYS621  CYS622 
 ASP623  PHE694  ASN695  SER759  ASP760  ASP761  ALA762  ILE779  LEU786  VAL792 
 PHE793  MET794  SER795  GLU796  ALA797  LYS798  CYS799  TRP800  GLU811  SER814 

> <Gold.Protein.RotatedAtoms>
  152.5350  134.2752  159.8986 H   0  0  0  0  0  0  0  0  0  0  0  0  # atno 6907 bound_to 6896
  151.2708  133.4250  159.2629 H   0  0  0  0  0  0  0  0  0  0  0  0  # atno 6908 bound_to 6896
  151.0369  134.9595  159.8198 H   0  0  0  0  0  0  0  0  0  0  0  0  # atno 6909 bound_to 6896
  144.8213  139.6686  143.6099 H   0  0  0  0  0  0  0  0  0  0  0  0  # atno 7974 bound_to 7965
  156.0022  140.3358  155.6857 H   0  0  0  0  0  0  0  0  0  0  0  0  # atno 8008 bound_to 7997
  155.6274  140.0681  157.2677 H   0  0  0  0  0  0  0  0  0  0  0  0  # atno 8009 bound_to 7997
  154.4253  140.1765  156.1424 H   0  0  0  0  0  0  0  0  0  0  0  0  # atno 8010 bound_to 7997
  139.6232  144.7104  151.2589 H   0  0  0  0  0  0  0  0  0  0  0  0  # atno 10167 bound_to 10162
  156.6989  130.5087  149.5923 H   0  0  0  0  0  0  0  0  0  0  0  0  # atno 10718 bound_to 10713
  152.9821  135.6032  154.3476 H   0  0  0  0  0  0  0  0  0  0  0  0  # atno 10763 bound_to 10752
  154.3167  135.2770  155.2541 H   0  0  0  0  0  0  0  0  0  0  0  0  # atno 10764 bound_to 10752
  154.4726  135.5938  153.6388 H   0  0  0  0  0  0  0  0  0  0  0  0  # atno 10765 bound_to 10752
  140.0290  134.9361  157.0626 H   0  0  0  0  0  0  0  0  0  0  0  0  # atno 11005 bound_to 11000
  146.2518  139.6217  142.9421 LP  0  0  0  0  0  0  0  0  0  0  0  0  # atno 17320 bound_to 7965
  145.5098  141.0435  143.2494 LP  0  0  0  0  0  0  0  0  0  0  0  0  # atno 17321 bound_to 7965
  140.7395  143.6616  150.8159 LP  0  0  0  0  0  0  0  0  0  0  0  0  # atno 17342 bound_to 10162
  140.0230  143.5522  152.2792 LP  0  0  0  0  0  0  0  0  0  0  0  0  # atno 17343 bound_to 10162
  156.1743  130.6457  151.0875 LP  0  0  0  0  0  0  0  0  0  0  0  0  # atno 17370 bound_to 10713
  157.6981  131.0786  150.6907 LP  0  0  0  0  0  0  0  0  0  0  0  0  # atno 17371 bound_to 10713
  140.4257  134.1833  155.7166 LP  0  0  0  0  0  0  0  0  0  0  0  0  # atno 17394 bound_to 11000
  141.1820  133.8394  157.1224 LP  0  0  0  0  0  0  0  0  0  0  0  0  # atno 17395 bound_to 11000

$$$$
