AV-unprocessed.smi:565|AV-procd|sdf|2951|dock9
  -GOLD-   2262023453D 1   1.00000     0.00000
 Structure written by MMmdl.
 50 51  0  0  0  0  0  0  0  0  2 V2000
  151.7556  138.6598  155.0201 C   0  0  0  0  0  0  0  0  0  0  0  0
  151.4094  139.7231  156.0232 C   0  0  0  0  0  0  0  0  0  0  0  0
  152.0084  139.7156  157.2020 N   0  0  0  0  0  0  0  0  0  0  0  0
  151.4947  140.7757  157.8569 N   0  0  0  0  0  0  0  0  0  0  0  0
  151.9439  141.0657  159.2047 C   0  0  0  0  0  0  0  0  0  0  0  0
  150.5681  141.4549  157.0903 C   0  0  0  0  0  0  0  0  0  0  0  0
  149.8551  142.6671  157.5974 C   0  0  0  0  0  0  0  0  0  0  0  0
  150.4832  140.7999  155.8901 C   0  0  0  0  0  0  0  0  0  0  0  0
  149.6178  141.1216  154.6972 C   0  0  0  0  0  0  0  0  0  0  0  0
  148.4471  140.1404  154.6347 C   0  0  0  0  0  0  0  0  0  0  0  0
  147.8663  139.8057  155.6667 O   0  0  0  0  0  0  0  0  0  0  0  0
  148.0998  139.6970  153.4165 N   0  0  0  0  0  0  0  0  0  0  0  0
  146.9755  138.8123  153.1401 C   0  0  0  0  0  0  0  0  0  0  0  0
  146.9053  137.6662  154.1680 C   0  0  0  0  0  0  0  0  0  0  0  0
  146.8086  136.3303  153.5277 N   0  3  1  0  0  0  0  0  0  0  0  0
  146.6753  135.2403  154.5289 C   0  0  0  0  0  0  0  0  0  0  0  0
  146.7210  133.8598  153.8550 C   0  0  0  0  0  0  0  0  0  0  0  0
  145.6393  133.7407  152.7743 C   0  0  0  0  0  0  0  0  0  0  0  0
  145.7693  134.8905  151.7613 C   0  0  1  0  0  0  0  0  0  0  0  0
  144.6811  134.8113  150.6811 C   0  0  0  0  0  0  0  0  0  0  0  0
  145.7458  136.2497  152.4893 C   0  0  0  0  0  0  0  0  0  0  0  0
  150.9106  138.4410  154.3675 H   0  0  0  0  0  0  0  0  0  0  0  0
  152.0413  137.7270  155.5076 H   0  0  0  0  0  0  0  0  0  0  0  0
  152.5881  138.9750  154.3910 H   0  0  0  0  0  0  0  0  0  0  0  0
  151.0922  141.0569  159.8853 H   0  0  0  0  0  0  0  0  0  0  0  0
  152.4116  142.0500  159.2309 H   0  0  0  0  0  0  0  0  0  0  0  0
  152.6685  140.3218  159.5388 H   0  0  0  0  0  0  0  0  0  0  0  0
  149.1118  143.0199  156.8829 H   0  0  0  0  0  0  0  0  0  0  0  0
  150.5579  143.4808  157.7778 H   0  0  0  0  0  0  0  0  0  0  0  0
  149.3391  142.4507  158.5330 H   0  0  0  0  0  0  0  0  0  0  0  0
  149.2295  142.1397  154.7399 H   0  0  0  0  0  0  0  0  0  0  0  0
  150.1867  141.0580  153.7689 H   0  0  0  0  0  0  0  0  0  0  0  0
  148.6355  140.0211  152.6243 H   0  0  0  0  0  0  0  0  0  0  0  0
  146.0726  139.4206  153.1701 H   0  0  0  0  0  0  0  0  0  0  0  0
  147.0503  138.4155  152.1262 H   0  0  0  0  0  0  0  0  0  0  0  0
  147.8093  137.6995  154.7778 H   0  0  0  0  0  0  0  0  0  0  0  0
  146.0687  137.8104  154.8535 H   0  0  0  0  0  0  0  0  0  0  0  0
  147.4835  135.3057  155.2585 H   0  0  0  0  0  0  0  0  0  0  0  0
  145.7404  135.3615  155.0787 H   0  0  0  0  0  0  0  0  0  0  0  0
  147.7042  133.7007  153.4102 H   0  0  0  0  0  0  0  0  0  0  0  0
  146.5891  133.0761  154.6018 H   0  0  0  0  0  0  0  0  0  0  0  0
  145.7247  132.7784  152.2683 H   0  0  0  0  0  0  0  0  0  0  0  0
  144.6524  133.7621  153.2391 H   0  0  0  0  0  0  0  0  0  0  0  0
  146.7342  134.7931  151.2613 H   0  0  0  0  0  0  0  0  0  0  0  0
  143.6843  134.9054  151.1133 H   0  0  0  0  0  0  0  0  0  0  0  0
  144.7246  133.8600  150.1497 H   0  0  0  0  0  0  0  0  0  0  0  0
  144.8007  135.6053  149.9435 H   0  0  0  0  0  0  0  0  0  0  0  0
  144.7716  136.4128  152.9536 H   0  0  0  0  0  0  0  0  0  0  0  0
  145.8795  137.0428  151.7547 H   0  0  0  0  0  0  0  0  0  0  0  0
  147.6906  136.1741  153.0605 H   0  0  0  0  0  0  0  0  0  0  0  0
  1  2  1  0  0  0  0
  1 22  1  0  0  0  0
  1 23  1  0  0  0  0
  1 24  1  0  0  0  0
  2  8  1  0  0  0  0
  2  3  2  0  0  0  0
  3  4  1  0  0  0  0
  4  5  1  0  0  0  0
  4  6  1  0  0  0  0
  5 25  1  0  0  0  0
  5 26  1  0  0  0  0
  5 27  1  0  0  0  0
  6  7  1  0  0  0  0
  6  8  2  0  0  0  0
  7 28  1  0  0  0  0
  7 29  1  0  0  0  0
  7 30  1  0  0  0  0
  8  9  1  0  0  0  0
  9 10  1  0  0  0  0
  9 31  1  0  0  0  0
  9 32  1  0  0  0  0
 10 11  2  0  0  0  0
 10 12  1  0  0  0  0
 12 13  1  0  0  0  0
 12 33  1  0  0  0  0
 13 14  1  0  0  0  0
 13 34  1  0  0  0  0
 13 35  1  0  0  0  0
 14 15  1  0  0  0  0
 14 36  1  0  0  0  0
 14 37  1  0  0  0  0
 15 21  1  0  0  0  0
 15 16  1  0  0  0  0
 15 50  1  0  0  0  0
 16 17  1  0  0  0  0
 16 38  1  0  0  0  0
 16 39  1  0  0  0  0
 17 18  1  0  0  0  0
 17 40  1  0  0  0  0
 17 41  1  0  0  0  0
 18 19  1  0  0  0  0
 18 42  1  0  0  0  0
 18 43  1  0  0  0  0
 19 20  1  0  0  0  0
 19 21  1  0  0  0  0
 19 44  1  0  0  0  0
 20 45  1  0  0  0  0
 20 46  1  0  0  0  0
 20 47  1  0  0  0  0
 21 48  1  0  0  0  0
 21 49  1  0  0  0  0
M  CHG  1  15   1
M  END
> <s_m_source_file>
AV-unprocessed.smi

> <i_m_source_file_index>
565

> <i_lp_mmshare_version>
43012

> <i_f3d_flags>
0

> <s_epik_input>
W0NIM11jMW5uKFtDSDNdKWMoW0NIM10pYzFbQ0gyXUMoPU8pW05IXVtDSDJdW0NIMl1OMltDSDJdW0NIMl1bQ0gyXVtDQEBIXShbQ0gzXSlbQ0gyXTI=

> <s_epik_cmdline>
J2VwaWtfcHl0aG9uJywgJy1waCcsICc3LjAnLCAnLXRuJywgJzgnLCAnLW1hJywgJzIwMCcsICctbWV0YWxfYmluZGluZycsICctaW1hZScsICc8aW5maWxlLm1hZT4nLCAnLW9tYWUnLCAnPG91dGZpbGUubWFlPic=

> <r_lp_tautomer_probability>
1

> <r_epik_Ionization_Penalty>
0.00411138

> <r_epik_Ionization_Penalty_Charging>
0.0019503

> <r_epik_Ionization_Penalty_Neutral>
0.00216107

> <r_epik_State_Penalty>
-0

> <r_epik_Charging_Adjusted_Penalty>
0.0019503

> <i_epik_Tot_Q>
1

> <i_epik_Tot_abs_Q>
1

> <r_epik_Metal_State_Penalty>
-0

> <b_epik_Metal_Only>
0

> <s_lp_Force_Field>
OPLS_2005

> <r_lp_Energy>
10.3148

> <b_lp_Chiralities_Consistent>
1

> <s_lp_Variant>
AV-unprocessed.smi:565-1

> <Gold.Version>
5.8.1

> <Gold.Id.Protein>
6NUR|6NUR_protein|mol2

> <Gold.PLP.Fitness>
46.0472

> <Gold.PLP.PLP>
-36.1944

> <Gold.PLP.part.hbond>
-2.9722

> <Gold.PLP.part.metal>
0.0000

> <Gold.PLP.part.buried>
-2.4910

> <Gold.PLP.part.nonpolar>
-30.4787

> <Gold.PLP.part.repulsive>
0.1089

> <Gold.PLP.ligand.clash>
0.0000

> <Gold.PLP.ligand.torsion>
0.9664

> <Gold.PLP.Chemscore.Hbond>
3.9193

> <Gold.PLP.Chemscore.CHOScore>
0.0000

> <Gold.PLP.Chemscore.Metal>
0.0000

> <Gold.Chemscore.Hbonds>
donor molecule, donor type, donor heavy atom, donor atom, acceptor molecule, acceptor atom, score
      L1  H    12    33       P1  7957  1.00
      L1  H    15    50       P1  7948  2.00

> <Gold.PLP.Chemscore.Internal.Correction>
0.0277

> <Gold.Rescore>
     Score         DG    S(hbond)    S(metal)    S(lipo)     H(rot)  DE(clash)    DE(int)     intcor
     16.92     -19.66       2.56        0.00      83.52       1.61       0.12       2.63       ----

> <Gold.Chemscore.Fitness>
16.9166

> <Gold.Chemscore.DG>
-19.6633

> <Gold.Chemscore.ZeroCoef>
-5.4800

> <Gold.Chemscore.Hbond>
2.5582

> <Gold.Chemscore.Metal>
0.0000

> <Gold.Chemscore.Lipo>
83.5166

> <Gold.Chemscore.Internal_Hbond>
0.0000

> <Gold.Chemscore.DEClash>
0.1213

> <Gold.Chemscore.DEInternal>
2.6255

> <Gold.Chemscore.Rot>
1.6142

> <Gold.Chemscore.Internal.Correction>
   9.000000E+99

> <Gold.Chemscore.Hbonds>
donor molecule, donor type, donor heavy atom, donor atom, acceptor molecule, acceptor atom, score
      L1  H    12    33       P1  7957  1.00
      L1  H    15    50       P1  7948  1.00

> <Gold.Chemscore.Hbond.Weighted>
-8.5443

> <Gold.Chemscore.Metal.Weighted>
-0.0000

> <Gold.Chemscore.Lipo.Weighted>
-9.7714

> <Gold.Chemscore.Internal_Hbond.Weighted>
0.0000

> <Gold.Chemscore.DEClash.Weighted>
0.1213

> <Gold.Chemscore.DEInternal.Weighted>
2.6255

> <Gold.Chemscore.Rot.Weighted>
4.1324

> <Gold.Chemscore.Internal.Correction.Weighted>
   9.000000E+99

> <Gold.Protein.RotatedTorsions>
[ 6907 6896 6895 6894 ] final -111.85 input  -60.11 | X-H torsion
[ 7974 7965 7964 7962 ] final -149.34 input  175.53 | X-H torsion
[ 8008 7997 7996 7995 ] final -167.42 input   59.86 | X-H torsion
[ 10167 10162 10161 10158 ] final  177.45 input  -65.29 | X-H torsion
[ 10718 10713 10712 10709 ] final -165.68 input   66.30 | X-H torsion
[ 10763 10752 10751 10750 ] final -109.30 input  -60.55 | X-H torsion
[ 11005 11000 10999 10996 ] final  -74.33 input  -57.11 | X-H torsion

> <Gold.Protein.ActiveResidues>
 VAL166  LYS551  ARG553  GLY616  TRP617  ASP618  TYR619  PRO620  LYS621  CYS622 
 ASP623  PHE694  ASN695  SER759  ASP760  ASP761  ALA762  ILE779  LEU786  VAL792 
 PHE793  MET794  SER795  GLU796  ALA797  LYS798  CYS799  TRP800  GLU811  SER814 

> <Gold.Protein.RotatedAtoms>
  150.7718  133.9175  159.3387 H   0  0  0  0  0  0  0  0  0  0  0  0  # atno 6907 bound_to 6896
  151.7060  135.0919  160.0269 H   0  0  0  0  0  0  0  0  0  0  0  0  # atno 6908 bound_to 6896
  152.3738  133.6416  159.6143 H   0  0  0  0  0  0  0  0  0  0  0  0  # atno 6909 bound_to 6896
  144.7973  140.5078  143.5731 H   0  0  0  0  0  0  0  0  0  0  0  0  # atno 7974 bound_to 7965
  155.8774  140.1003  157.1509 H   0  0  0  0  0  0  0  0  0  0  0  0  # atno 8008 bound_to 7997
  154.4002  140.1335  156.4217 H   0  0  0  0  0  0  0  0  0  0  0  0  # atno 8009 bound_to 7997
  155.7682  140.3461  155.5235 H   0  0  0  0  0  0  0  0  0  0  0  0  # atno 8010 bound_to 7997
  139.5254  144.2797  152.0557 H   0  0  0  0  0  0  0  0  0  0  0  0  # atno 10167 bound_to 10162
  156.6570  130.9030  151.3023 H   0  0  0  0  0  0  0  0  0  0  0  0  # atno 10718 bound_to 10713
  154.8185  135.4606  154.0712 H   0  0  0  0  0  0  0  0  0  0  0  0  # atno 10763 bound_to 10752
  153.2085  135.6878  153.8150 H   0  0  0  0  0  0  0  0  0  0  0  0  # atno 10764 bound_to 10752
  153.7609  135.3284  155.3314 H   0  0  0  0  0  0  0  0  0  0  0  0  # atno 10765 bound_to 10752
  141.1634  133.6908  156.7348 H   0  0  0  0  0  0  0  0  0  0  0  0  # atno 11005 bound_to 11000
  145.5640  139.1480  143.3325 LP  0  0  0  0  0  0  0  0  0  0  0  0  # atno 17320 bound_to 7965
  146.2245  140.5775  142.9002 LP  0  0  0  0  0  0  0  0  0  0  0  0  # atno 17321 bound_to 7965
  140.2252  144.4425  150.6324 LP  0  0  0  0  0  0  0  0  0  0  0  0  # atno 17342 bound_to 10162
  140.6392  143.2200  151.6328 LP  0  0  0  0  0  0  0  0  0  0  0  0  # atno 17343 bound_to 10162
  157.7122  130.9454  150.1129 LP  0  0  0  0  0  0  0  0  0  0  0  0  # atno 17370 bound_to 10713
  156.2040  130.3662  149.8752 LP  0  0  0  0  0  0  0  0  0  0  0  0  # atno 17371 bound_to 10713
  140.2718  134.8386  157.3854 LP  0  0  0  0  0  0  0  0  0  0  0  0  # atno 17394 bound_to 11000
  140.1514  134.4845  155.7958 LP  0  0  0  0  0  0  0  0  0  0  0  0  # atno 17395 bound_to 11000

$$$$
