AV-unprocessed.smi:3160|AV-procd|sdf|12053|dock3
  -GOLD-   2272017483D 1   1.00000     0.00000
 Structure written by MMmdl.
 40 41  0  0  0  0  0  0  0  0  2 V2000
  145.2413  142.8716  154.4535 C   0  0  0  0  0  0  0  0  0  0  0  0
  146.5004  142.0596  154.3523 C   0  0  0  0  0  0  0  0  0  0  0  0
  146.7883  141.0028  153.4432 C   0  0  0  0  0  0  0  0  0  0  0  0
  147.9942  140.4888  153.6194 N   0  0  0  0  0  0  0  0  0  0  0  0
  148.5207  141.1961  154.6438 N   0  0  0  0  0  0  0  0  0  0  0  0
  149.8616  140.8958  155.1341 C   0  0  2  0  0  0  0  0  0  0  0  0
  150.1713  139.4013  154.9244 C   0  0  0  0  0  0  0  0  0  0  0  0
  150.0433  141.3593  156.6048 C   0  0  1  0  0  0  0  0  0  0  0  0
  150.7926  140.3313  157.4690 C   0  0  0  0  0  0  0  0  0  0  0  0
  150.7807  142.6444  156.6473 N   0  3  0  0  0  0  0  0  0  0  0  0
  151.0558  143.1739  158.0002 C   0  0  0  0  0  0  0  0  0  0  0  0
  151.2827  144.6844  157.9936 C   0  0  0  0  0  0  0  0  0  0  0  0
  152.0131  144.9630  159.3111 C   0  0  0  0  0  0  0  0  0  0  0  0
  152.7366  143.6578  159.6832 C   0  0  0  0  0  0  0  0  0  0  0  0
  152.3470  142.6282  158.6150 C   0  0  0  0  0  0  0  0  0  0  0  0
  147.6396  142.1545  155.1003 C   0  0  0  0  0  0  0  0  0  0  0  0
  144.4953  142.5557  153.7238 H   0  0  0  0  0  0  0  0  0  0  0  0
  145.4309  143.9310  154.2802 H   0  0  0  0  0  0  0  0  0  0  0  0
  144.7835  142.7829  155.4389 H   0  0  0  0  0  0  0  0  0  0  0  0
  146.1588  140.5949  152.6661 H   0  0  0  0  0  0  0  0  0  0  0  0
  150.5579  141.4615  154.5127 H   0  0  0  0  0  0  0  0  0  0  0  0
  151.2198  139.1754  155.1169 H   0  0  0  0  0  0  0  0  0  0  0  0
  149.9667  139.1017  153.8960 H   0  0  0  0  0  0  0  0  0  0  0  0
  149.5679  138.7713  155.5787 H   0  0  0  0  0  0  0  0  0  0  0  0
  149.0546  141.4973  157.0462 H   0  0  0  0  0  0  0  0  0  0  0  0
  150.2372  139.3985  157.5608 H   0  0  0  0  0  0  0  0  0  0  0  0
  150.9444  140.7086  158.4809 H   0  0  0  0  0  0  0  0  0  0  0  0
  151.7727  140.0985  157.0515 H   0  0  0  0  0  0  0  0  0  0  0  0
  151.6546  142.5405  156.1517 H   0  0  0  0  0  0  0  0  0  0  0  0
  150.2138  142.9559  158.6590 H   0  0  0  0  0  0  0  0  0  0  0  0
  151.9247  144.9645  157.1570 H   0  0  0  0  0  0  0  0  0  0  0  0
  150.3535  145.2483  157.9033 H   0  0  0  0  0  0  0  0  0  0  0  0
  152.7016  145.8037  159.2197 H   0  0  0  0  0  0  0  0  0  0  0  0
  151.2916  145.2158  160.0891 H   0  0  0  0  0  0  0  0  0  0  0  0
  153.8181  143.7912  159.7244 H   0  0  0  0  0  0  0  0  0  0  0  0
  152.4125  143.3236  160.6695 H   0  0  0  0  0  0  0  0  0  0  0  0
  152.2262  141.6263  159.0279 H   0  0  0  0  0  0  0  0  0  0  0  0
  153.1312  142.5808  157.8576 H   0  0  0  0  0  0  0  0  0  0  0  0
  147.8908  142.8175  155.9153 H   0  0  0  0  0  0  0  0  0  0  0  0
  150.2182  143.3287  156.1624 H   0  0  0  0  0  0  0  0  0  0  0  0
  1  2  1  0  0  0  0
  1 17  1  0  0  0  0
  1 18  1  0  0  0  0
  1 19  1  0  0  0  0
  2 16  2  0  0  0  0
  2  3  1  0  0  0  0
  3  4  2  0  0  0  0
  3 20  1  0  0  0  0
  4  5  1  0  0  0  0
  5  6  1  0  0  0  0
  5 16  1  0  0  0  0
  6  7  1  0  0  0  0
  6  8  1  0  0  0  0
  6 21  1  0  0  0  0
  7 22  1  0  0  0  0
  7 23  1  0  0  0  0
  7 24  1  0  0  0  0
  8  9  1  0  0  0  0
  8 10  1  0  0  0  0
  8 25  1  0  0  0  0
  9 26  1  0  0  0  0
  9 27  1  0  0  0  0
  9 28  1  0  0  0  0
 10 11  1  0  0  0  0
 10 29  1  0  0  0  0
 10 40  1  0  0  0  0
 11 15  1  0  0  0  0
 11 12  1  0  0  0  0
 11 30  1  0  0  0  0
 12 13  1  0  0  0  0
 12 31  1  0  0  0  0
 12 32  1  0  0  0  0
 13 14  1  0  0  0  0
 13 33  1  0  0  0  0
 13 34  1  0  0  0  0
 14 15  1  0  0  0  0
 14 35  1  0  0  0  0
 14 36  1  0  0  0  0
 15 37  1  0  0  0  0
 15 38  1  0  0  0  0
 16 39  1  0  0  0  0
M  CHG  1  10   1
M  END
> <s_m_source_file>
AV-unprocessed.smi

> <i_m_source_file_index>
3160

> <i_lp_mmshare_version>
43012

> <i_f3d_flags>
0

> <s_epik_input>
W0NIM11jMVtjSF1ubihbY0hdMSlbQ0BIXShbQ0gzXSlbQ0BIXShbQ0gzXSlbTkhdW0NIXTJbQ0gyXVtDSDJdW0NIMl1bQ0gyXTI=

> <s_epik_cmdline>
J2VwaWtfcHl0aG9uJywgJy1waCcsICc3LjAnLCAnLXRuJywgJzgnLCAnLW1hJywgJzIwMCcsICctbWV0YWxfYmluZGluZycsICctaW1hZScsICc8aW5maWxlLm1hZT4nLCAnLW9tYWUnLCAnPG91dGZpbGUubWFlPic=

> <r_lp_tautomer_probability>
1

> <r_epik_Ionization_Penalty>
0.00117636

> <r_epik_Ionization_Penalty_Charging>
0.00115264

> <r_epik_Ionization_Penalty_Neutral>
2.37123e-05

> <r_epik_State_Penalty>
-0

> <r_epik_Charging_Adjusted_Penalty>
0.00115264

> <i_epik_Tot_Q>
1

> <i_epik_Tot_abs_Q>
1

> <r_epik_Metal_State_Penalty>
-0

> <b_epik_Metal_Only>
0

> <s_lp_Force_Field>
OPLS_2005

> <r_lp_Energy>
30.6135

> <b_lp_Chiralities_Consistent>
1

> <s_lp_Variant>
AV-unprocessed.smi:3160-3

> <Gold.Version>
5.8.1

> <Gold.Id.Protein>
6NUR|6NUR_protein|mol2

> <Gold.PLP.Fitness>
45.5267

> <Gold.PLP.PLP>
-38.2968

> <Gold.PLP.part.hbond>
-1.0000

> <Gold.PLP.part.metal>
0.0000

> <Gold.PLP.part.buried>
-2.8161

> <Gold.PLP.part.nonpolar>
-36.9094

> <Gold.PLP.part.repulsive>
1.5303

> <Gold.PLP.ligand.clash>
0.0000

> <Gold.PLP.ligand.torsion>
2.2355

> <Gold.PLP.Chemscore.Hbond>
2.0000

> <Gold.PLP.Chemscore.CHOScore>
1.8699

> <Gold.PLP.Chemscore.Metal>
0.0000

> <Gold.Chemscore.Hbonds>
donor molecule, donor type, donor heavy atom, donor atom, acceptor molecule, acceptor atom, score
      L1  H    10    40       P1  8028  2.00
      L1  C     3    20       P1 10175  1.00
      L1  C    16    39       P1  8028  0.87

> <Gold.PLP.Chemscore.Internal.Correction>
0.0912

> <Gold.Rescore>
     Score         DG    S(hbond)    S(metal)    S(lipo)     H(rot)  DE(clash)    DE(int)     intcor
     15.23     -17.46       1.00        0.00     103.94       1.37       0.19       2.04       ----

> <Gold.Chemscore.Fitness>
15.2265

> <Gold.Chemscore.DG>
-17.4553

> <Gold.Chemscore.ZeroCoef>
-5.4800

> <Gold.Chemscore.Hbond>
0.9953

> <Gold.Chemscore.Metal>
0.0000

> <Gold.Chemscore.Lipo>
103.9354

> <Gold.Chemscore.Internal_Hbond>
0.0000

> <Gold.Chemscore.DEClash>
0.1858

> <Gold.Chemscore.DEInternal>
2.0430

> <Gold.Chemscore.Rot>
1.3709

> <Gold.Chemscore.Internal.Correction>
   9.000000E+99

> <Gold.Chemscore.Hbonds>
donor molecule, donor type, donor heavy atom, donor atom, acceptor molecule, acceptor atom, score
      L1  H    10    40       P1  8028  0.97

> <Gold.Chemscore.Hbond.Weighted>
-3.3243

> <Gold.Chemscore.Metal.Weighted>
-0.0000

> <Gold.Chemscore.Lipo.Weighted>
-12.1604

> <Gold.Chemscore.Internal_Hbond.Weighted>
0.0000

> <Gold.Chemscore.DEClash.Weighted>
0.1858

> <Gold.Chemscore.DEInternal.Weighted>
2.0430

> <Gold.Chemscore.Rot.Weighted>
3.5095

> <Gold.Chemscore.Internal.Correction.Weighted>
   9.000000E+99

> <Gold.Protein.RotatedTorsions>
[ 6907 6896 6895 6894 ] final   36.44 input  -60.11 | X-H torsion
[ 7974 7965 7964 7962 ] final -166.12 input  175.53 | X-H torsion
[ 8008 7997 7996 7995 ] final -142.04 input   59.86 | X-H torsion
[ 10167 10162 10161 10158 ] final -126.89 input  -65.29 | X-H torsion
[ 10718 10713 10712 10709 ] final -105.69 input   66.30 | X-H torsion
[ 10763 10752 10751 10750 ] final -145.24 input  -60.55 | X-H torsion
[ 11005 11000 10999 10996 ] final  105.40 input  -57.11 | X-H torsion

> <Gold.Protein.ActiveResidues>
 VAL166  LYS551  ARG553  GLY616  TRP617  ASP618  TYR619  PRO620  LYS621  CYS622 
 ASP623  PHE694  ASN695  SER759  ASP760  ASP761  ALA762  ILE779  LEU786  VAL792 
 PHE793  MET794  SER795  GLU796  ALA797  LYS798  CYS799  TRP800  GLU811  SER814 

> <Gold.Protein.RotatedAtoms>
  152.1297  134.9144  160.0559 H   0  0  0  0  0  0  0  0  0  0  0  0  # atno 6907 bound_to 6896
  152.0253  133.3910  159.4283 H   0  0  0  0  0  0  0  0  0  0  0  0  # atno 6908 bound_to 6896
  150.6855  134.3502  159.4949 H   0  0  0  0  0  0  0  0  0  0  0  0  # atno 6909 bound_to 6896
  144.7253  140.2713  143.6250 H   0  0  0  0  0  0  0  0  0  0  0  0  # atno 7974 bound_to 7965
  155.4876  140.0565  157.2958 H   0  0  0  0  0  0  0  0  0  0  0  0  # atno 8008 bound_to 7997
  154.4635  140.2008  156.0131 H   0  0  0  0  0  0  0  0  0  0  0  0  # atno 8009 bound_to 7997
  156.0934  140.3230  155.7849 H   0  0  0  0  0  0  0  0  0  0  0  0  # atno 8010 bound_to 7997
  139.9667  143.5890  152.2427 H   0  0  0  0  0  0  0  0  0  0  0  0  # atno 10167 bound_to 10162
  156.0357  130.5576  150.7574 H   0  0  0  0  0  0  0  0  0  0  0  0  # atno 10718 bound_to 10713
  154.8392  135.3418  154.6473 H   0  0  0  0  0  0  0  0  0  0  0  0  # atno 10763 bound_to 10752
  153.7085  135.6965  153.5048 H   0  0  0  0  0  0  0  0  0  0  0  0  # atno 10764 bound_to 10752
  153.2469  135.4366  155.0711 H   0  0  0  0  0  0  0  0  0  0  0  0  # atno 10765 bound_to 10752
  139.8801  134.9334  156.5508 H   0  0  0  0  0  0  0  0  0  0  0  0  # atno 11005 bound_to 11000
  145.8040  139.1976  143.2031 LP  0  0  0  0  0  0  0  0  0  0  0  0  # atno 17320 bound_to 7965
  146.0652  140.7928  142.9715 LP  0  0  0  0  0  0  0  0  0  0  0  0  # atno 17321 bound_to 7965
  139.6512  144.7661  151.2144 LP  0  0  0  0  0  0  0  0  0  0  0  0  # atno 17342 bound_to 10162
  140.7535  143.6157  150.8562 LP  0  0  0  0  0  0  0  0  0  0  0  0  # atno 17343 bound_to 10162
  157.5102  131.0925  151.0207 LP  0  0  0  0  0  0  0  0  0  0  0  0  # atno 17370 bound_to 10713
  157.0564  130.5808  149.5378 LP  0  0  0  0  0  0  0  0  0  0  0  0  # atno 17371 bound_to 10713
  140.8242  133.8330  155.8923 LP  0  0  0  0  0  0  0  0  0  0  0  0  # atno 17394 bound_to 11000
  140.9390  134.1925  157.4811 LP  0  0  0  0  0  0  0  0  0  0  0  0  # atno 17395 bound_to 11000

$$$$
