AV-unprocessed.smi:1260|AV-procd|sdf|5295|dock5
  -GOLD-   22720 4413D 1   1.00000     0.00000
 Structure written by MMmdl.
 37 39  0  0  0  0  0  0  0  0  2 V2000
  149.3030  132.1891  154.7585 O   0  0  0  0  0  0  0  0  0  0  0  0
  148.6381  133.2243  154.7534 C   0  0  0  0  0  0  0  0  0  0  0  0
  148.7005  134.1774  155.9491 C   0  0  0  0  0  0  0  0  0  0  0  0
  149.9816  134.8553  156.0245 N   0  0  0  0  0  0  0  0  0  0  0  0
  150.5998  135.6603  155.1579 C   0  0  0  0  0  0  0  0  0  0  0  0
  151.7772  136.0582  155.6145 N   0  0  0  0  0  0  0  0  0  0  0  0
  151.8596  135.4414  156.8517 N   0  0  0  0  0  0  0  0  0  0  0  0
  150.7970  134.7262  157.1006 N   0  0  0  0  0  0  0  0  0  0  0  0
  147.8276  133.5751  153.7421 N   0  0  0  0  0  0  0  0  0  0  0  0
  147.6317  132.8102  152.5145 C   0  0  2  0  0  0  0  0  0  0  0  0
  146.8264  133.5799  151.4526 C   0  0  0  0  0  0  0  0  0  0  0  0
  145.9190  132.5282  150.7842 C   0  0  0  0  0  0  0  0  0  0  0  0
  146.3067  131.2382  151.3859 N   0  3  2  0  0  0  0  0  0  0  0  0
  145.2964  130.1578  151.3719 C   0  0  0  0  0  0  0  0  0  0  0  0
  145.9142  128.8758  151.9657 C   0  0  0  0  0  0  0  0  0  0  0  0
  146.5310  129.1281  153.3567 C   0  0  0  0  0  0  0  0  0  0  0  0
  147.5029  130.3234  153.3265 C   0  0  0  0  0  0  0  0  0  0  0  0
  146.7886  131.5526  152.7396 C   0  0  1  0  0  0  0  0  0  0  0  0
  147.9090  134.9233  155.8658 H   0  0  0  0  0  0  0  0  0  0  0  0
  148.5321  133.6303  156.8781 H   0  0  0  0  0  0  0  0  0  0  0  0
  150.1939  135.9464  154.1990 H   0  0  0  0  0  0  0  0  0  0  0  0
  147.3176  134.4428  153.8245 H   0  0  0  0  0  0  0  0  0  0  0  0
  148.5935  132.5312  152.0784 H   0  0  0  0  0  0  0  0  0  0  0  0
  146.2131  134.3615  151.9040 H   0  0  0  0  0  0  0  0  0  0  0  0
  147.4889  134.0606  150.7319 H   0  0  0  0  0  0  0  0  0  0  0  0
  144.8724  132.7453  151.0035 H   0  0  0  0  0  0  0  0  0  0  0  0
  146.0393  132.5018  149.7008 H   0  0  0  0  0  0  0  0  0  0  0  0
  144.4196  130.4609  151.9459 H   0  0  0  0  0  0  0  0  0  0  0  0
  144.9665  129.9778  150.3481 H   0  0  0  0  0  0  0  0  0  0  0  0
  145.1590  128.0916  152.0284 H   0  0  0  0  0  0  0  0  0  0  0  0
  146.6881  128.5041  151.2930 H   0  0  0  0  0  0  0  0  0  0  0  0
  145.7348  129.3275  154.0750 H   0  0  0  0  0  0  0  0  0  0  0  0
  147.0462  128.2331  153.7073 H   0  0  0  0  0  0  0  0  0  0  0  0
  147.8605  130.5352  154.3344 H   0  0  0  0  0  0  0  0  0  0  0  0
  148.3801  130.0756  152.7274 H   0  0  0  0  0  0  0  0  0  0  0  0
  145.9286  131.8052  153.3646 H   0  0  0  0  0  0  0  0  0  0  0  0
  147.1084  130.9082  150.8674 H   0  0  0  0  0  0  0  0  0  0  0  0
  1  2  2  0  0  0  0
  2  3  1  0  0  0  0
  2  9  1  0  0  0  0
  3  4  1  0  0  0  0
  3 19  1  0  0  0  0
  3 20  1  0  0  0  0
  4  8  1  0  0  0  0
  4  5  1  0  0  0  0
  5  6  2  0  0  0  0
  5 21  1  0  0  0  0
  6  7  1  0  0  0  0
  7  8  2  0  0  0  0
  9 10  1  0  0  0  0
  9 22  1  0  0  0  0
 10 18  1  0  0  0  0
 10 11  1  0  0  0  0
 10 23  1  0  0  0  0
 11 12  1  0  0  0  0
 11 24  1  0  0  0  0
 11 25  1  0  0  0  0
 12 13  1  0  0  0  0
 12 26  1  0  0  0  0
 12 27  1  0  0  0  0
 13 18  1  0  0  0  0
 13 14  1  0  0  0  0
 13 37  1  0  0  0  0
 14 15  1  0  0  0  0
 14 28  1  0  0  0  0
 14 29  1  0  0  0  0
 15 16  1  0  0  0  0
 15 30  1  0  0  0  0
 15 31  1  0  0  0  0
 16 17  1  0  0  0  0
 16 32  1  0  0  0  0
 16 33  1  0  0  0  0
 17 18  1  0  0  0  0
 17 34  1  0  0  0  0
 17 35  1  0  0  0  0
 18 36  1  0  0  0  0
M  CHG  1  13   1
M  END
> <s_m_source_file>
AV-unprocessed.smi

> <i_m_source_file_index>
1260

> <i_lp_mmshare_version>
43012

> <i_f3d_flags>
0

> <s_epik_input>
bjFubltjSF1uMVtDSDJdQyg9TylbTkhdW0NASF0oW0NIMl1bQ0gyXTIpW0NAQEhdKE4yMylbQ0gyXVtDSDJdW0NIMl1bQ0gyXTM=

> <s_epik_cmdline>
J2VwaWtfcHl0aG9uJywgJy1waCcsICc3LjAnLCAnLXRuJywgJzgnLCAnLW1hJywgJzIwMCcsICctbWV0YWxfYmluZGluZycsICctaW1hZScsICc8aW5maWxlLm1hZT4nLCAnLW9tYWUnLCAnPG91dGZpbGUubWFlPic=

> <r_lp_tautomer_probability>
1

> <r_epik_Ionization_Penalty>
0.00234324

> <r_epik_Ionization_Penalty_Charging>
0.00233897

> <r_epik_Ionization_Penalty_Neutral>
4.26861e-06

> <r_epik_State_Penalty>
0.00161477

> <r_epik_Charging_Adjusted_Penalty>
0.00395374

> <i_epik_Tot_Q>
1

> <i_epik_Tot_abs_Q>
1

> <r_epik_Metal_State_Penalty>
-0

> <b_epik_Metal_Only>
0

> <s_lp_Force_Field>
OPLS_2005

> <r_lp_Energy>
37.0555

> <b_lp_Chiralities_Consistent>
1

> <s_lp_Variant>
AV-unprocessed.smi:1260-3

> <Gold.Version>
5.8.1

> <Gold.Id.Protein>
6NUR|6NUR_protein|mol2

> <Gold.PLP.Fitness>
36.5178

> <Gold.PLP.PLP>
-28.2812

> <Gold.PLP.part.hbond>
-3.2397

> <Gold.PLP.part.metal>
0.0000

> <Gold.PLP.part.buried>
-5.8917

> <Gold.PLP.part.nonpolar>
-20.2635

> <Gold.PLP.part.repulsive>
0.0993

> <Gold.PLP.ligand.clash>
0.0000

> <Gold.PLP.ligand.torsion>
0.2232

> <Gold.PLP.Chemscore.Hbond>
2.0946

> <Gold.PLP.Chemscore.CHOScore>
0.7961

> <Gold.PLP.Chemscore.Metal>
0.0000

> <Gold.Chemscore.Hbonds>
donor molecule, donor type, donor heavy atom, donor atom, acceptor molecule, acceptor atom, score
      L1  H    13    37       P1 10747  1.00
      P1  H  6896  6909       L1     8  0.11
      P1  H 10752 10763       L1     6  1.00
      L1  C     5    21       P1  7948  0.57
      L1  C     5    21       P1  7949  0.03

> <Gold.PLP.Chemscore.Internal.Correction>
0.0107

> <Gold.Rescore>
     Score         DG    S(hbond)    S(metal)    S(lipo)     H(rot)  DE(clash)    DE(int)     intcor
     12.90     -14.40       2.07        0.00      60.37       1.98       0.00       1.50       ----

> <Gold.Chemscore.Fitness>
12.9015

> <Gold.Chemscore.DG>
-14.3966

> <Gold.Chemscore.ZeroCoef>
-5.4800

> <Gold.Chemscore.Hbond>
2.0693

> <Gold.Chemscore.Metal>
0.0000

> <Gold.Chemscore.Lipo>
60.3651

> <Gold.Chemscore.Internal_Hbond>
0.0000

> <Gold.Chemscore.DEClash>
0.0000

> <Gold.Chemscore.DEInternal>
1.4950

> <Gold.Chemscore.Rot>
1.9757

> <Gold.Chemscore.Internal.Correction>
   9.000000E+99

> <Gold.Chemscore.Hbonds>
donor molecule, donor type, donor heavy atom, donor atom, acceptor molecule, acceptor atom, score
      L1  H    13    37       P1 10747  0.98
      P1  H  6896  6909       L1     8  0.09
      P1  H 10752 10763       L1     6  0.39

> <Gold.Chemscore.Hbond.Weighted>
-6.9116

> <Gold.Chemscore.Metal.Weighted>
-0.0000

> <Gold.Chemscore.Lipo.Weighted>
-7.0627

> <Gold.Chemscore.Internal_Hbond.Weighted>
0.0000

> <Gold.Chemscore.DEClash.Weighted>
0.0000

> <Gold.Chemscore.DEInternal.Weighted>
1.4950

> <Gold.Chemscore.Rot.Weighted>
5.0578

> <Gold.Chemscore.Internal.Correction.Weighted>
   9.000000E+99

> <Gold.Protein.RotatedTorsions>
[ 6907 6896 6895 6894 ] final   21.21 input  -60.11 | X-H torsion
[ 7974 7965 7964 7962 ] final -160.36 input  175.53 | X-H torsion
[ 8008 7997 7996 7995 ] final   -0.83 input   59.86 | X-H torsion
[ 10167 10162 10161 10158 ] final   30.09 input  -65.29 | X-H torsion
[ 10718 10713 10712 10709 ] final  120.28 input   66.30 | X-H torsion
[ 10763 10752 10751 10750 ] final   75.47 input  -60.55 | X-H torsion
[ 11005 11000 10999 10996 ] final -136.84 input  -57.11 | X-H torsion

> <Gold.Protein.ActiveResidues>
 VAL166  LYS551  ARG553  GLY616  TRP617  ASP618  TYR619  PRO620  LYS621  CYS622 
 ASP623  PHE694  ASN695  SER759  ASP760  ASP761  ALA762  ILE779  LEU786  VAL792 
 PHE793  MET794  SER795  GLU796  ALA797  LYS798  CYS799  TRP800  GLU811  SER814 

> <Gold.Protein.RotatedAtoms>
  151.9083  135.0349  160.0512 H   0  0  0  0  0  0  0  0  0  0  0  0  # atno 6907 bound_to 6896
  152.2301  133.5047  159.5219 H   0  0  0  0  0  0  0  0  0  0  0  0  # atno 6908 bound_to 6896
  150.7023  134.1145  159.4055 H   0  0  0  0  0  0  0  0  0  0  0  0  # atno 6909 bound_to 6896
  144.7430  140.3552  143.6107 H   0  0  0  0  0  0  0  0  0  0  0  0  # atno 7974 bound_to 7965
  154.6536  140.2574  155.7186 H   0  0  0  0  0  0  0  0  0  0  0  0  # atno 8008 bound_to 7997
  156.2586  140.2863  156.0901 H   0  0  0  0  0  0  0  0  0  0  0  0  # atno 8009 bound_to 7997
  155.1414  140.0380  157.2789 H   0  0  0  0  0  0  0  0  0  0  0  0  # atno 8010 bound_to 7997
  140.4708  144.0765  150.6237 H   0  0  0  0  0  0  0  0  0  0  0  0  # atno 10167 bound_to 10162
  157.5902  131.1065  150.8014 H   0  0  0  0  0  0  0  0  0  0  0  0  # atno 10718 bound_to 10713
  153.0657  135.4987  154.8194 H   0  0  0  0  0  0  0  0  0  0  0  0  # atno 10763 bound_to 10752
  154.6949  135.2991  154.9428 H   0  0  0  0  0  0  0  0  0  0  0  0  # atno 10764 bound_to 10752
  154.0170  135.6747  153.4822 H   0  0  0  0  0  0  0  0  0  0  0  0  # atno 10765 bound_to 10752
  140.8767  134.1983  157.4617 H   0  0  0  0  0  0  0  0  0  0  0  0  # atno 11005 bound_to 11000
  145.7234  139.1716  143.2471 LP  0  0  0  0  0  0  0  0  0  0  0  0  # atno 17320 bound_to 7965
  146.1260  140.7248  142.9435 LP  0  0  0  0  0  0  0  0  0  0  0  0  # atno 17321 bound_to 7965
  140.3979  143.2719  151.9983 LP  0  0  0  0  0  0  0  0  0  0  0  0  # atno 17342 bound_to 10162
  139.4818  144.6023  151.7584 LP  0  0  0  0  0  0  0  0  0  0  0  0  # atno 17343 bound_to 10162
  156.8438  130.5057  149.5318 LP  0  0  0  0  0  0  0  0  0  0  0  0  # atno 17370 bound_to 10713
  156.0955  130.5929  150.9807 LP  0  0  0  0  0  0  0  0  0  0  0  0  # atno 17371 bound_to 10713
  139.8716  134.9799  156.5054 LP  0  0  0  0  0  0  0  0  0  0  0  0  # atno 17394 bound_to 11000
  140.8509  133.8132  155.9168 LP  0  0  0  0  0  0  0  0  0  0  0  0  # atno 17395 bound_to 11000

$$$$
