AV-unprocessed.smi:1047|AV-procd|sdf|4571|dock6
  -GOLD-   22720 3 23D 1   1.00000     0.00000
 Structure written by MMmdl.
 56 58  0  0  0  0  0  0  0  0  2 V2000
  152.6673  130.5822  155.6348 C   0  0  0  0  0  0  0  0  0  0  0  0
  151.3406  130.7220  156.3953 C   0  0  0  0  0  0  0  0  0  0  0  0
  150.3612  131.6088  155.7690 N   0  0  0  0  0  0  0  0  0  0  0  0
  150.0047  131.1350  154.4363 C   0  0  0  0  0  0  0  0  0  0  0  0
  148.9767  132.0547  153.7563 C   0  0  0  0  0  0  0  0  0  0  0  0
  149.4877  133.3829  153.7084 O   0  0  0  0  0  0  0  0  0  0  0  0
  149.7955  133.9077  154.9978 C   0  0  2  0  0  0  0  0  0  0  0  0
  150.3236  135.3377  154.8215 C   0  0  0  0  0  0  0  0  0  0  0  0
  149.2236  136.2766  154.5270 N   0  3  0  0  0  0  0  0  0  0  0  0
  149.3220  137.5626  155.2445 C   0  0  0  0  0  0  0  0  0  0  0  0
  149.8803  138.6711  154.3327 C   0  0  1  0  0  0  0  0  0  0  0  0
  149.0453  138.7876  153.1966 O   0  0  0  0  0  0  0  0  0  0  0  0
  149.9886  140.0470  155.0260 C   0  0  0  0  0  0  0  0  0  0  0  0
  151.0021  140.0950  156.0679 N   0  0  0  0  0  0  0  0  0  0  0  0
  152.0154  139.2266  156.2532 C   0  0  0  0  0  0  0  0  0  0  0  0
  152.8426  139.4625  157.2667 N   0  0  0  0  0  0  0  0  0  0  0  0
  152.2953  140.6106  157.8125 C   0  0  0  0  0  0  0  0  0  0  0  0
  152.7040  141.3829  158.9215 C   0  0  0  0  0  0  0  0  0  0  0  0
  151.9844  142.5364  159.3062 C   0  0  0  0  0  0  0  0  0  0  0  0
  152.4608  143.3380  160.5049 C   0  0  0  0  0  0  0  0  0  0  0  0
  150.8340  142.9320  158.5776 C   0  0  0  0  0  0  0  0  0  0  0  0
  150.0422  144.1649  158.9766 C   0  0  0  0  0  0  0  0  0  0  0  0
  150.4123  142.1726  157.4662 C   0  0  0  0  0  0  0  0  0  0  0  0
  151.1392  141.0287  157.0904 C   0  0  0  0  0  0  0  0  0  0  0  0
  150.8337  132.9877  155.6714 C   0  0  0  0  0  0  0  0  0  0  0  0
  153.3816  129.9989  156.2158 H   0  0  0  0  0  0  0  0  0  0  0  0
  153.1157  131.5575  155.4438 H   0  0  0  0  0  0  0  0  0  0  0  0
  152.5391  130.0748  154.6791 H   0  0  0  0  0  0  0  0  0  0  0  0
  150.9032  129.7344  156.5496 H   0  0  0  0  0  0  0  0  0  0  0  0
  151.5742  131.1043  157.3899 H   0  0  0  0  0  0  0  0  0  0  0  0
  150.8990  131.0733  153.8139 H   0  0  0  0  0  0  0  0  0  0  0  0
  149.5979  130.1250  154.4980 H   0  0  0  0  0  0  0  0  0  0  0  0
  148.7747  131.7130  152.7411 H   0  0  0  0  0  0  0  0  0  0  0  0
  148.0278  132.0401  154.2950 H   0  0  0  0  0  0  0  0  0  0  0  0
  148.8882  133.9311  155.6048 H   0  0  0  0  0  0  0  0  0  0  0  0
  150.8223  135.6614  155.7361 H   0  0  0  0  0  0  0  0  0  0  0  0
  151.0638  135.3729  154.0207 H   0  0  0  0  0  0  0  0  0  0  0  0
  149.2177  136.4608  153.5337 H   0  0  0  0  0  0  0  0  0  0  0  0
  148.3415  137.8372  155.6367 H   0  0  0  0  0  0  0  0  0  0  0  0
  149.9835  137.4254  156.1009 H   0  0  0  0  0  0  0  0  0  0  0  0
  150.8749  138.3849  153.9880 H   0  0  0  0  0  0  0  0  0  0  0  0
  148.9689  137.9379  152.7892 H   0  0  0  0  0  0  0  0  0  0  0  0
  150.2190  140.8168  154.2886 H   0  0  0  0  0  0  0  0  0  0  0  0
  149.0293  140.3246  155.4650 H   0  0  0  0  0  0  0  0  0  0  0  0
  152.1589  138.3775  155.6006 H   0  0  0  0  0  0  0  0  0  0  0  0
  153.5791  141.0801  159.4778 H   0  0  0  0  0  0  0  0  0  0  0  0
  151.6804  143.3927  161.2640 H   0  0  0  0  0  0  0  0  0  0  0  0
  152.7243  144.3526  160.2046 H   0  0  0  0  0  0  0  0  0  0  0  0
  153.3412  142.8858  160.9623 H   0  0  0  0  0  0  0  0  0  0  0  0
  149.2182  144.3500  158.2867 H   0  0  0  0  0  0  0  0  0  0  0  0
  150.6814  145.0481  158.9775 H   0  0  0  0  0  0  0  0  0  0  0  0
  149.6221  144.0403  159.9746 H   0  0  0  0  0  0  0  0  0  0  0  0
  149.5366  142.4639  156.9055 H   0  0  0  0  0  0  0  0  0  0  0  0
  151.0550  133.3798  156.6636 H   0  0  0  0  0  0  0  0  0  0  0  0
  151.7679  133.0178  155.1083 H   0  0  0  0  0  0  0  0  0  0  0  0
  148.3480  135.8394  154.7775 H   0  0  0  0  0  0  0  0  0  0  0  0
  1  2  1  0  0  0  0
  1 26  1  0  0  0  0
  1 27  1  0  0  0  0
  1 28  1  0  0  0  0
  2  3  1  0  0  0  0
  2 29  1  0  0  0  0
  2 30  1  0  0  0  0
  3 25  1  0  0  0  0
  3  4  1  0  0  0  0
  4  5  1  0  0  0  0
  4 31  1  0  0  0  0
  4 32  1  0  0  0  0
  5  6  1  0  0  0  0
  5 33  1  0  0  0  0
  5 34  1  0  0  0  0
  6  7  1  0  0  0  0
  7  8  1  0  0  0  0
  7 25  1  0  0  0  0
  7 35  1  0  0  0  0
  8  9  1  0  0  0  0
  8 36  1  0  0  0  0
  8 37  1  0  0  0  0
  9 10  1  0  0  0  0
  9 38  1  0  0  0  0
  9 56  1  0  0  0  0
 10 11  1  0  0  0  0
 10 39  1  0  0  0  0
 10 40  1  0  0  0  0
 11 12  1  0  0  0  0
 11 13  1  0  0  0  0
 11 41  1  0  0  0  0
 12 42  1  0  0  0  0
 13 14  1  0  0  0  0
 13 43  1  0  0  0  0
 13 44  1  0  0  0  0
 14 24  1  0  0  0  0
 14 15  1  0  0  0  0
 15 16  2  0  0  0  0
 15 45  1  0  0  0  0
 16 17  1  0  0  0  0
 17 24  2  0  0  0  0
 17 18  1  0  0  0  0
 18 19  2  0  0  0  0
 18 46  1  0  0  0  0
 19 20  1  0  0  0  0
 19 21  1  0  0  0  0
 20 47  1  0  0  0  0
 20 48  1  0  0  0  0
 20 49  1  0  0  0  0
 21 22  1  0  0  0  0
 21 23  2  0  0  0  0
 22 50  1  0  0  0  0
 22 51  1  0  0  0  0
 22 52  1  0  0  0  0
 23 24  1  0  0  0  0
 23 53  1  0  0  0  0
 25 54  1  0  0  0  0
 25 55  1  0  0  0  0
M  CHG  1   9   1
M  END
> <s_m_source_file>
AV-unprocessed.smi

> <i_m_source_file_index>
1047

> <i_lp_mmshare_version>
43012

> <i_f3d_flags>
0

> <s_epik_input>
W0NIM11bQ0gyXU4xW0NIMl1bQ0gyXU9bQ0BIXShbQ0gyXTEpW0NIMl1bTkhdW0NIMl1bQ0BIXShbT0hdKVtDSDJdbihbY0hdbjIpYyhjMjMpW2NIXWMoW0NIM10pYyhbY0hdMylbQ0gzXQ==

> <s_epik_cmdline>
J2VwaWtfcHl0aG9uJywgJy1waCcsICc3LjAnLCAnLXRuJywgJzgnLCAnLW1hJywgJzIwMCcsICctbWV0YWxfYmluZGluZycsICctaW1hZScsICc8aW5maWxlLm1hZT4nLCAnLW9tYWUnLCAnPG91dGZpbGUubWFlPic=

> <r_epik_Ionization_Penalty>
0.692425

> <r_epik_Ionization_Penalty_Charging>
0.0243549

> <r_epik_Ionization_Penalty_Neutral>
0.66807

> <r_epik_State_Penalty>
0.592789

> <r_epik_Charging_Adjusted_Penalty>
0.617144

> <i_epik_Tot_Q>
1

> <i_epik_Tot_abs_Q>
1

> <r_epik_Metal_State_Penalty>
0.508021

> <b_epik_Metal_Only>
0

> <s_lp_Force_Field>
OPLS_2005

> <r_lp_Energy>
28.1656

> <b_lp_Chiralities_Consistent>
1

> <s_lp_Variant>
AV-unprocessed.smi:1047-12

> <Gold.Version>
5.8.1

> <Gold.Id.Protein>
6NUR|6NUR_protein|mol2

> <Gold.PLP.Fitness>
57.7253

> <Gold.PLP.PLP>
-47.4270

> <Gold.PLP.part.hbond>
-3.7043

> <Gold.PLP.part.metal>
0.0000

> <Gold.PLP.part.buried>
-7.1397

> <Gold.PLP.part.nonpolar>
-37.7632

> <Gold.PLP.part.repulsive>
0.1993

> <Gold.PLP.ligand.clash>
0.0000

> <Gold.PLP.ligand.torsion>
0.9793

> <Gold.PLP.Chemscore.Hbond>
4.0000

> <Gold.PLP.Chemscore.CHOScore>
0.0000

> <Gold.PLP.Chemscore.Metal>
0.0000

> <Gold.Chemscore.Hbonds>
donor molecule, donor type, donor heavy atom, donor atom, acceptor molecule, acceptor atom, score
      L1  H     9    38       P1  7948  2.00
      L1  H    12    42       P1  7948  1.00
      P1  H  7997  8009       L1    16  1.00

> <Gold.PLP.Chemscore.Internal.Correction>
0.2570

> <Gold.Rescore>
     Score         DG    S(hbond)    S(metal)    S(lipo)     H(rot)  DE(clash)    DE(int)     intcor
     20.52     -21.67       2.77        0.00     116.42       2.60       0.07       1.08       ----

> <Gold.Chemscore.Fitness>
20.5217

> <Gold.Chemscore.DG>
-21.6708

> <Gold.Chemscore.ZeroCoef>
-5.4800

> <Gold.Chemscore.Hbond>
2.7657

> <Gold.Chemscore.Metal>
0.0000

> <Gold.Chemscore.Lipo>
116.4246

> <Gold.Chemscore.Internal_Hbond>
0.0000

> <Gold.Chemscore.DEClash>
0.0715

> <Gold.Chemscore.DEInternal>
1.0776

> <Gold.Chemscore.Rot>
2.6049

> <Gold.Chemscore.Internal.Correction>
   9.000000E+99

> <Gold.Chemscore.Hbonds>
donor molecule, donor type, donor heavy atom, donor atom, acceptor molecule, acceptor atom, score
      L1  H     9    38       P1  7948  0.95
      L1  H    12    42       P1  7948  1.00
      P1  H  7997  8009       L1    16  0.15

> <Gold.Chemscore.Hbond.Weighted>
-9.2376

> <Gold.Chemscore.Metal.Weighted>
-0.0000

> <Gold.Chemscore.Lipo.Weighted>
-13.6217

> <Gold.Chemscore.Internal_Hbond.Weighted>
0.0000

> <Gold.Chemscore.DEClash.Weighted>
0.0715

> <Gold.Chemscore.DEInternal.Weighted>
1.0776

> <Gold.Chemscore.Rot.Weighted>
6.6685

> <Gold.Chemscore.Internal.Correction.Weighted>
   9.000000E+99

> <Gold.Protein.RotatedTorsions>
[ 6907 6896 6895 6894 ] final  135.92 input  -60.11 | X-H torsion
[ 7974 7965 7964 7962 ] final   55.25 input  175.53 | X-H torsion
[ 8008 7997 7996 7995 ] final -167.83 input   59.86 | X-H torsion
[ 10167 10162 10161 10158 ] final   93.26 input  -65.29 | X-H torsion
[ 10718 10713 10712 10709 ] final   13.04 input   66.30 | X-H torsion
[ 10763 10752 10751 10750 ] final   40.13 input  -60.55 | X-H torsion
[ 11005 11000 10999 10996 ] final  -38.53 input  -57.11 | X-H torsion

> <Gold.Protein.ActiveResidues>
 VAL166  LYS551  ARG553  GLY616  TRP617  ASP618  TYR619  PRO620  LYS621  CYS622 
 ASP623  PHE694  ASN695  SER759  ASP760  ASP761  ALA762  ILE779  LEU786  VAL792 
 PHE793  MET794  SER795  GLU796  ALA797  LYS798  CYS799  TRP800  GLU811  SER814 

> <Gold.Protein.RotatedAtoms>
  152.2951  133.5599  159.5581 H   0  0  0  0  0  0  0  0  0  0  0  0  # atno 6907 bound_to 6896
  150.7252  134.0373  159.3762 H   0  0  0  0  0  0  0  0  0  0  0  0  # atno 6908 bound_to 6896
  151.8277  135.0632  160.0484 H   0  0  0  0  0  0  0  0  0  0  0  0  # atno 6909 bound_to 6896
  145.9523  139.3983  143.0298 H   0  0  0  0  0  0  0  0  0  0  0  0  # atno 7974 bound_to 7965
  155.8832  140.1012  157.1471 H   0  0  0  0  0  0  0  0  0  0  0  0  # atno 8008 bound_to 7997
  154.4007  140.1325  156.4285 H   0  0  0  0  0  0  0  0  0  0  0  0  # atno 8009 bound_to 7997
  155.7619  140.3463  155.5205 H   0  0  0  0  0  0  0  0  0  0  0  0  # atno 8010 bound_to 7997
  139.8197  144.6737  150.9535 H   0  0  0  0  0  0  0  0  0  0  0  0  # atno 10167 bound_to 10162
  157.0189  130.6147  149.5718 H   0  0  0  0  0  0  0  0  0  0  0  0  # atno 10718 bound_to 10713
  152.9946  135.6200  154.2576 H   0  0  0  0  0  0  0  0  0  0  0  0  # atno 10763 bound_to 10752
  154.2313  135.2792  155.2890 H   0  0  0  0  0  0  0  0  0  0  0  0  # atno 10764 bound_to 10752
  154.5447  135.5750  153.6928 H   0  0  0  0  0  0  0  0  0  0  0  0  # atno 10765 bound_to 10752
  141.0034  133.6944  156.2065 H   0  0  0  0  0  0  0  0  0  0  0  0  # atno 11005 bound_to 11000
  145.8154  140.9705  143.0927 LP  0  0  0  0  0  0  0  0  0  0  0  0  # atno 17320 bound_to 7965
  144.6798  139.9974  143.7484 LP  0  0  0  0  0  0  0  0  0  0  0  0  # atno 17321 bound_to 7965
  140.7814  143.4104  151.1002 LP  0  0  0  0  0  0  0  0  0  0  0  0  # atno 17342 bound_to 10162
  139.7765  143.8417  152.3130 LP  0  0  0  0  0  0  0  0  0  0  0  0  # atno 17343 bound_to 10162
  156.0109  130.5200  150.7985 LP  0  0  0  0  0  0  0  0  0  0  0  0  # atno 17370 bound_to 10713
  157.5264  131.0934  151.0012 LP  0  0  0  0  0  0  0  0  0  0  0  0  # atno 17371 bound_to 10713
  140.6852  134.4725  157.5589 LP  0  0  0  0  0  0  0  0  0  0  0  0  # atno 17394 bound_to 11000
  139.9051  134.8468  156.1740 LP  0  0  0  0  0  0  0  0  0  0  0  0  # atno 17395 bound_to 11000

$$$$
