AV-unprocessed.smi:2252|AV-procd|sdf|9111|dock8
  -GOLD-   2272012313D 1   1.00000     0.00000
 Structure written by MMmdl.
 44 46  0  0  0  0  0  0  0  0  3 V2000
  147.5638  133.9348  161.4413 C   0  0  0  0  0  0  0  0  0  0  0  0
  146.7850  135.1586  161.4447 N   0  0  0  0  0  0  0  0  0  0  0  0
  145.6113  135.3691  162.1568 C   0  0  0  0  0  0  0  0  0  0  0  0
  145.2023  136.6494  161.8752 C   0  0  0  0  0  0  0  0  0  0  0  0
  146.1045  137.2372  160.9969 N   0  0  0  0  0  0  0  0  0  0  0  0
  147.0332  136.3061  160.7779 C   0  0  0  0  0  0  0  0  0  0  0  0
  148.2283  136.5050  159.8776 C   0  0  0  0  0  0  0  0  0  0  0  0
  147.9058  136.9123  158.4191 C   0  0  0  0  0  0  0  0  0  0  0  0
  148.4755  135.9527  157.4759 N   0  5  0  0  0  0  0  0  0  0  0  0
  149.5487  136.2050  156.6749 C   0  0  0  0  0  0  0  0  0  0  0  0
  150.6813  136.6072  156.9581 O   0  0  0  0  0  0  0  0  0  0  0  0
  149.2371  135.8754  155.2028 C   0  0  2  0  0  0  0  0  0  0  0  0
  150.1575  134.7395  154.6963 C   0  0  0  0  0  0  0  0  0  0  0  0
  149.7025  133.7822  153.6158 C   0  0  0  0  0  0  0  0  0  0  0  0
  149.8576  133.2949  155.0333 C   0  0  0  0  0  0  0  0  0  0  0  0
  149.3202  137.0941  154.3478 N   0  3  0  0  0  0  0  0  0  0  0  0
  148.1784  138.0300  154.4402 C   0  0  0  0  0  0  0  0  0  0  0  0
  148.7039  139.4075  154.0125 C   0  0  0  0  0  0  0  0  0  0  0  0
  150.2157  139.2382  153.8434 C   0  0  0  0  0  0  0  0  0  0  0  0
  150.5318  137.9176  154.5388 C   0  0  0  0  0  0  0  0  0  0  0  0
  147.1188  133.2039  162.1171 H   0  0  0  0  0  0  0  0  0  0  0  0
  148.5824  134.1415  161.7706 H   0  0  0  0  0  0  0  0  0  0  0  0
  147.5878  133.5151  160.4355 H   0  0  0  0  0  0  0  0  0  0  0  0
  145.1752  134.6096  162.7887 H   0  0  0  0  0  0  0  0  0  0  0  0
  144.3367  137.1879  162.2320 H   0  0  0  0  0  0  0  0  0  0  0  0
  148.8809  137.2571  160.3207 H   0  0  0  0  0  0  0  0  0  0  0  0
  148.8116  135.5832  159.8783 H   0  0  0  0  0  0  0  0  0  0  0  0
  146.8238  136.9779  158.3034 H   0  0  0  0  0  0  0  0  0  0  0  0
  148.2744  137.9242  158.2468 H   0  0  0  0  0  0  0  0  0  0  0  0
  148.2077  135.5147  155.1588 H   0  0  0  0  0  0  0  0  0  0  0  0
  151.2143  135.0019  154.6853 H   0  0  0  0  0  0  0  0  0  0  0  0
  148.6898  133.8898  153.2324 H   0  0  0  0  0  0  0  0  0  0  0  0
  150.4445  133.4604  152.8879 H   0  0  0  0  0  0  0  0  0  0  0  0
  150.7036  132.6479  155.2559 H   0  0  0  0  0  0  0  0  0  0  0  0
  148.9482  133.0821  155.5918 H   0  0  0  0  0  0  0  0  0  0  0  0
  147.3482  137.6952  153.8174 H   0  0  0  0  0  0  0  0  0  0  0  0
  147.8267  138.0846  155.4714 H   0  0  0  0  0  0  0  0  0  0  0  0
  148.2443  139.7413  153.0815 H   0  0  0  0  0  0  0  0  0  0  0  0
  148.4780  140.1519  154.7768 H   0  0  0  0  0  0  0  0  0  0  0  0
  150.4586  139.1600  152.7830 H   0  0  0  0  0  0  0  0  0  0  0  0
  150.7839  140.0737  154.2532 H   0  0  0  0  0  0  0  0  0  0  0  0
  150.6953  138.0892  155.6040 H   0  0  0  0  0  0  0  0  0  0  0  0
  151.4250  137.4422  154.1318 H   0  0  0  0  0  0  0  0  0  0  0  0
  149.3502  136.7678  153.3915 H   0  0  0  0  0  0  0  0  0  0  0  0
  1  2  1  0  0  0  0
  1 21  1  0  0  0  0
  1 22  1  0  0  0  0
  1 23  1  0  0  0  0
  2  6  1  0  0  0  0
  2  3  1  0  0  0  0
  3  4  2  0  0  0  0
  3 24  1  0  0  0  0
  4  5  1  0  0  0  0
  4 25  1  0  0  0  0
  5  6  2  0  0  0  0
  6  7  1  0  0  0  0
  7  8  1  0  0  0  0
  7 26  1  0  0  0  0
  7 27  1  0  0  0  0
  8  9  1  0  0  0  0
  8 28  1  0  0  0  0
  8 29  1  0  0  0  0
  9 10  1  0  0  0  0
 10 11  2  0  0  0  0
 10 12  1  0  0  0  0
 12 13  1  0  0  0  0
 12 16  1  0  0  0  0
 12 30  1  0  0  0  0
 13 15  1  0  0  0  0
 13 14  1  0  0  0  0
 13 31  1  0  0  0  0
 14 15  1  0  0  0  0
 14 32  1  0  0  0  0
 14 33  1  0  0  0  0
 15 34  1  0  0  0  0
 15 35  1  0  0  0  0
 16 20  1  0  0  0  0
 16 17  1  0  0  0  0
 16 44  1  0  0  0  0
 17 18  1  0  0  0  0
 17 36  1  0  0  0  0
 17 37  1  0  0  0  0
 18 19  1  0  0  0  0
 18 38  1  0  0  0  0
 18 39  1  0  0  0  0
 19 20  1  0  0  0  0
 19 40  1  0  0  0  0
 19 41  1  0  0  0  0
 20 42  1  0  0  0  0
 20 43  1  0  0  0  0
M  CHG  1   9  -1
M  CHG  1  16   1
M  END
> <s_m_source_file>
AV-unprocessed.smi

> <i_m_source_file_index>
2252

> <i_lp_mmshare_version>
43012

> <i_f3d_flags>
0

> <s_epik_input>
W0NIM11uMVtjSF1bY0hdbmMxW0NIMl1bQ0gyXVtOSF1DKD1PKVtDQEhdKFtDSF0yW0NIMl1bQ0gyXTIpTjNbQ0gyXVtDSDJdW0NIMl1bQ0gyXTM=

> <s_epik_cmdline>
J2VwaWtfcHl0aG9uJywgJy1waCcsICc3LjAnLCAnLXRuJywgJzgnLCAnLW1hJywgJzIwMCcsICctbWV0YWxfYmluZGluZycsICctaW1hZScsICc8aW5maWxlLm1hZT4nLCAnLW9tYWUnLCAnPG91dGZpbGUubWFlPic=

> <r_lp_tautomer_probability>
1

> <r_epik_Ionization_Penalty>
7.86289

> <r_epik_Ionization_Penalty_Charging>
7.86289

> <r_epik_Ionization_Penalty_Neutral>
4.79398e-13

> <r_epik_State_Penalty>
7.18546

> <r_epik_Charging_Adjusted_Penalty>
15.0484

> <i_epik_Tot_Q>
0

> <i_epik_Tot_abs_Q>
2

> <r_epik_Metal_State_Penalty>
3.4294

> <b_epik_Metal_Only>
1

> <s_lp_Force_Field>
OPLS_2005

> <r_lp_Energy>
29.989

> <b_lp_Chiralities_Consistent>
1

> <s_lp_Variant>
AV-unprocessed.smi:2252-9

> <Gold.Version>
5.8.1

> <Gold.Id.Protein>
6NUR|6NUR_protein|mol2

> <Gold.PLP.Fitness>
45.3633

> <Gold.PLP.PLP>
-38.1400

> <Gold.PLP.part.hbond>
-3.2940

> <Gold.PLP.part.metal>
0.0000

> <Gold.PLP.part.buried>
-4.3440

> <Gold.PLP.part.nonpolar>
-29.7388

> <Gold.PLP.part.repulsive>
0.0380

> <Gold.PLP.ligand.clash>
0.0000

> <Gold.PLP.ligand.torsion>
1.7531

> <Gold.PLP.Chemscore.Hbond>
3.1576

> <Gold.PLP.Chemscore.CHOScore>
0.0000

> <Gold.PLP.Chemscore.Metal>
0.0000

> <Gold.Chemscore.Hbonds>
donor molecule, donor type, donor heavy atom, donor atom, acceptor molecule, acceptor atom, score
      L1  H    16    44       P1  7948  2.00
      P1  H  6934  6947       L1     5  0.89

> <Gold.PLP.Chemscore.Internal.Correction>
1.2565

> <Gold.Rescore>
     Score         DG    S(hbond)    S(metal)    S(lipo)     H(rot)  DE(clash)    DE(int)     intcor
     13.13     -16.13       1.91        0.00      77.64       1.88       0.22       2.78       ----

> <Gold.Chemscore.Fitness>
13.1321

> <Gold.Chemscore.DG>
-16.1329

> <Gold.Chemscore.ZeroCoef>
-5.4800

> <Gold.Chemscore.Hbond>
1.9118

> <Gold.Chemscore.Metal>
0.0000

> <Gold.Chemscore.Lipo>
77.6390

> <Gold.Chemscore.Internal_Hbond>
0.0000

> <Gold.Chemscore.DEClash>
0.2228

> <Gold.Chemscore.DEInternal>
2.7780

> <Gold.Chemscore.Rot>
1.8814

> <Gold.Chemscore.Internal.Correction>
   9.000000E+99

> <Gold.Chemscore.Hbonds>
donor molecule, donor type, donor heavy atom, donor atom, acceptor molecule, acceptor atom, score
      L1  H    16    44       P1  7948  0.92
      P1  H  6934  6947       L1     5  0.38

> <Gold.Chemscore.Hbond.Weighted>
-6.3854

> <Gold.Chemscore.Metal.Weighted>
-0.0000

> <Gold.Chemscore.Lipo.Weighted>
-9.0838

> <Gold.Chemscore.Internal_Hbond.Weighted>
0.0000

> <Gold.Chemscore.DEClash.Weighted>
0.2228

> <Gold.Chemscore.DEInternal.Weighted>
2.7780

> <Gold.Chemscore.Rot.Weighted>
4.8163

> <Gold.Chemscore.Internal.Correction.Weighted>
   9.000000E+99

> <Gold.Protein.RotatedTorsions>
[ 6907 6896 6895 6894 ] final   76.20 input  -60.11 | X-H torsion
[ 7974 7965 7964 7962 ] final   34.68 input  175.53 | X-H torsion
[ 8008 7997 7996 7995 ] final   98.13 input   59.86 | X-H torsion
[ 10167 10162 10161 10158 ] final -100.78 input  -65.29 | X-H torsion
[ 10718 10713 10712 10709 ] final -106.39 input   66.30 | X-H torsion
[ 10763 10752 10751 10750 ] final  -56.09 input  -60.55 | X-H torsion
[ 11005 11000 10999 10996 ] final -140.10 input  -57.11 | X-H torsion

> <Gold.Protein.ActiveResidues>
 VAL166  LYS551  ARG553  GLY616  TRP617  ASP618  TYR619  PRO620  LYS621  CYS622 
 ASP623  PHE694  ASN695  SER759  ASP760  ASP761  ALA762  ILE779  LEU786  VAL792 
 PHE793  MET794  SER795  GLU796  ALA797  LYS798  CYS799  TRP800  GLU811  SER814 

> <Gold.Protein.RotatedAtoms>
  152.5062  134.4005  159.9414 H   0  0  0  0  0  0  0  0  0  0  0  0  # atno 6907 bound_to 6896
  151.3968  133.3764  159.2735 H   0  0  0  0  0  0  0  0  0  0  0  0  # atno 6908 bound_to 6896
  150.9391  134.8822  159.7660 H   0  0  0  0  0  0  0  0  0  0  0  0  # atno 6909 bound_to 6896
  146.1336  139.6239  142.9210 H   0  0  0  0  0  0  0  0  0  0  0  0  # atno 7974 bound_to 7965
  156.0973  140.3248  155.7895 H   0  0  0  0  0  0  0  0  0  0  0  0  # atno 8008 bound_to 7997
  155.4896  140.0560  157.2973 H   0  0  0  0  0  0  0  0  0  0  0  0  # atno 8009 bound_to 7997
  154.4674  140.1996  156.0097 H   0  0  0  0  0  0  0  0  0  0  0  0  # atno 8010 bound_to 7997
  140.2483  143.3490  152.0738 H   0  0  0  0  0  0  0  0  0  0  0  0  # atno 10167 bound_to 10162
  156.0388  130.5611  150.7674 H   0  0  0  0  0  0  0  0  0  0  0  0  # atno 10718 bound_to 10713
  154.2012  135.6410  153.5087 H   0  0  0  0  0  0  0  0  0  0  0  0  # atno 10763 bound_to 10752
  153.0011  135.5452  154.6313 H   0  0  0  0  0  0  0  0  0  0  0  0  # atno 10764 bound_to 10752
  154.5727  135.2918  155.0785 H   0  0  0  0  0  0  0  0  0  0  0  0  # atno 10765 bound_to 10752
  140.8455  134.2350  157.4788 H   0  0  0  0  0  0  0  0  0  0  0  0  # atno 11005 bound_to 11000
  145.5205  141.0432  143.2438 LP  0  0  0  0  0  0  0  0  0  0  0  0  # atno 17320 bound_to 7965
  144.7716  139.6722  143.7192 LP  0  0  0  0  0  0  0  0  0  0  0  0  # atno 17321 bound_to 7965
  139.5054  144.6795  151.6044 LP  0  0  0  0  0  0  0  0  0  0  0  0  # atno 17342 bound_to 10162
  140.6060  143.9523  150.6419 LP  0  0  0  0  0  0  0  0  0  0  0  0  # atno 17343 bound_to 10162
  157.5177  131.0929  151.0118 LP  0  0  0  0  0  0  0  0  0  0  0  0  # atno 17370 bound_to 10713
  157.0456  130.5767  149.5362 LP  0  0  0  0  0  0  0  0  0  0  0  0  # atno 17371 bound_to 10713
  139.8703  134.9657  156.4537 LP  0  0  0  0  0  0  0  0  0  0  0  0  # atno 17394 bound_to 11000
  140.8848  133.7891  155.9506 LP  0  0  0  0  0  0  0  0  0  0  0  0  # atno 17395 bound_to 11000

$$$$
