AV-unprocessed.smi:1207|AV-procd|sdf|5055|dock9
  -GOLD-   22720 4 93D 1   1.00000     0.00000
 Structure written by MMmdl.
 52 54  0  0  0  0  0  0  0  0  2 V2000
  152.3759  143.7514  161.2309 C   0  0  0  0  0  0  0  0  0  0  0  0
  152.1909  142.9110  159.9789 C   0  0  0  0  0  0  0  0  0  0  0  0
  151.3145  143.3807  158.9745 C   0  0  0  0  0  0  0  0  0  0  0  0
  151.1711  142.5927  157.8386 C   0  0  0  0  0  0  0  0  0  0  0  0
  150.4008  142.7750  156.6877 N   0  3  0  0  0  0  0  0  0  0  0  0
  150.5949  141.7265  155.8401 C   0  0  0  0  0  0  0  0  0  0  0  0
  151.4771  140.8780  156.4340 N   0  0  0  0  0  0  0  0  0  0  0  0
  152.0352  139.6070  155.9546 C   0  0  0  0  0  0  0  0  0  0  0  0
  151.0009  138.7456  155.2041 C   0  0  2  0  0  0  0  0  0  0  0  0
  150.6802  139.3721  153.9778 O   0  0  0  0  0  0  0  0  0  0  0  0
  149.7019  138.5781  156.0186 C   0  0  0  0  0  0  0  0  0  0  0  0
  148.6033  137.9130  155.3145 N   0  0  0  0  0  0  0  0  0  0  0  0
  147.7872  138.9027  154.6162 C   0  0  0  0  0  0  0  0  0  0  0  0
  147.7780  137.1038  156.2181 C   0  0  0  0  0  0  0  0  0  0  0  0
  148.5468  135.9891  156.8799 C   0  0  0  0  0  0  0  0  0  0  0  0
  149.4943  135.1070  156.2865 C   0  0  0  0  0  0  0  0  0  0  0  0
  149.9660  135.0687  154.8613 C   0  0  0  0  0  0  0  0  0  0  0  0
  149.9782  134.2404  157.1605 N   0  0  0  0  0  0  0  0  0  0  0  0
  149.3503  134.5316  158.3755 O   0  0  0  0  0  0  0  0  0  0  0  0
  148.5038  135.5751  158.1829 C   0  0  0  0  0  0  0  0  0  0  0  0
  147.7306  136.0353  159.3723 C   0  0  0  0  0  0  0  0  0  0  0  0
  151.8616  141.3754  157.6831 C   0  0  0  0  0  0  0  0  0  0  0  0
  152.7251  140.8952  158.6642 C   0  0  0  0  0  0  0  0  0  0  0  0
  152.8869  141.6836  159.8257 C   0  0  0  0  0  0  0  0  0  0  0  0
  153.8274  141.1887  160.9113 C   0  0  0  0  0  0  0  0  0  0  0  0
  151.7688  144.6567  161.1972 H   0  0  0  0  0  0  0  0  0  0  0  0
  153.4180  144.0534  161.3382 H   0  0  0  0  0  0  0  0  0  0  0  0
  152.0846  143.1880  162.1179 H   0  0  0  0  0  0  0  0  0  0  0  0
  150.7818  144.3140  159.0841 H   0  0  0  0  0  0  0  0  0  0  0  0
  150.1373  141.5946  154.8700 H   0  0  0  0  0  0  0  0  0  0  0  0
  152.8942  139.8286  155.3197 H   0  0  0  0  0  0  0  0  0  0  0  0
  152.4204  139.0690  156.8221 H   0  0  0  0  0  0  0  0  0  0  0  0
  151.4514  137.7816  154.9770 H   0  0  0  0  0  0  0  0  0  0  0  0
  149.9638  138.8992  153.5817 H   0  0  0  0  0  0  0  0  0  0  0  0
  149.9169  138.0245  156.9341 H   0  0  0  0  0  0  0  0  0  0  0  0
  149.3843  139.5691  156.3476 H   0  0  0  0  0  0  0  0  0  0  0  0
  147.0039  138.4266  154.0261 H   0  0  0  0  0  0  0  0  0  0  0  0
  148.3950  139.4891  153.9264 H   0  0  0  0  0  0  0  0  0  0  0  0
  147.3138  139.5898  155.3187 H   0  0  0  0  0  0  0  0  0  0  0  0
  147.3483  137.7310  156.9962 H   0  0  0  0  0  0  0  0  0  0  0  0
  146.9210  136.7107  155.6692 H   0  0  0  0  0  0  0  0  0  0  0  0
  149.1632  134.7526  154.1953 H   0  0  0  0  0  0  0  0  0  0  0  0
  150.7985  134.3769  154.7277 H   0  0  0  0  0  0  0  0  0  0  0  0
  150.3001  136.0538  154.5352 H   0  0  0  0  0  0  0  0  0  0  0  0
  147.3935  137.0643  159.2465 H   0  0  0  0  0  0  0  0  0  0  0  0
  148.3417  135.9901  160.2739 H   0  0  0  0  0  0  0  0  0  0  0  0
  146.8527  135.4083  159.5264 H   0  0  0  0  0  0  0  0  0  0  0  0
  153.2550  139.9617  158.5453 H   0  0  0  0  0  0  0  0  0  0  0  0
  154.2806  140.2343  160.6420 H   0  0  0  0  0  0  0  0  0  0  0  0
  153.2900  141.0488  161.8495 H   0  0  0  0  0  0  0  0  0  0  0  0
  154.6329  141.9047  161.0760 H   0  0  0  0  0  0  0  0  0  0  0  0
  149.7896  143.5572  156.4906 H   0  0  0  0  0  0  0  0  0  0  0  0
  1  2  1  0  0  0  0
  1 26  1  0  0  0  0
  1 27  1  0  0  0  0
  1 28  1  0  0  0  0
  2 24  1  0  0  0  0
  2  3  2  0  0  0  0
  3  4  1  0  0  0  0
  3 29  1  0  0  0  0
  4 22  2  0  0  0  0
  4  5  1  0  0  0  0
  5  6  2  0  0  0  0
  5 52  1  0  0  0  0
  6  7  1  0  0  0  0
  6 30  1  0  0  0  0
  7  8  1  0  0  0  0
  7 22  1  0  0  0  0
  8  9  1  0  0  0  0
  8 31  1  0  0  0  0
  8 32  1  0  0  0  0
  9 10  1  0  0  0  0
  9 11  1  0  0  0  0
  9 33  1  0  0  0  0
 10 34  1  0  0  0  0
 11 12  1  0  0  0  0
 11 35  1  0  0  0  0
 11 36  1  0  0  0  0
 12 13  1  0  0  0  0
 12 14  1  0  0  0  0
 13 37  1  0  0  0  0
 13 38  1  0  0  0  0
 13 39  1  0  0  0  0
 14 15  1  0  0  0  0
 14 40  1  0  0  0  0
 14 41  1  0  0  0  0
 15 20  2  0  0  0  0
 15 16  1  0  0  0  0
 16 17  1  0  0  0  0
 16 18  2  0  0  0  0
 17 42  1  0  0  0  0
 17 43  1  0  0  0  0
 17 44  1  0  0  0  0
 18 19  1  0  0  0  0
 19 20  1  0  0  0  0
 20 21  1  0  0  0  0
 21 45  1  0  0  0  0
 21 46  1  0  0  0  0
 21 47  1  0  0  0  0
 22 23  1  0  0  0  0
 23 24  2  0  0  0  0
 23 48  1  0  0  0  0
 24 25  1  0  0  0  0
 25 49  1  0  0  0  0
 25 50  1  0  0  0  0
 25 51  1  0  0  0  0
M  CHG  1   5   1
M  END
> <s_m_source_file>
AV-unprocessed.smi

> <i_m_source_file_index>
1207

> <i_lp_mmshare_version>
43012

> <i_f3d_flags>
0

> <s_epik_input>
W0NIM11jKFtjSF0xKWMoW0NIM10pW2NIXWMoYzEyKW4oW2NIXW4yKVtDSDJdW0NASF0oW09IXSlbQ0gyXU4oW0NIM10pW0NIMl1jM2MoW0NIM10pbm9jM1tDSDNd

> <s_epik_cmdline>
J2VwaWtfcHl0aG9uJywgJy1waCcsICc3LjAnLCAnLXRuJywgJzgnLCAnLW1hJywgJzIwMCcsICctbWV0YWxfYmluZGluZycsICctaW1hZScsICc8aW5maWxlLm1hZT4nLCAnLW9tYWUnLCAnPG91dGZpbGUubWFlPic=

> <r_epik_Ionization_Penalty>
1.48114

> <r_epik_Ionization_Penalty_Charging>
1.21121

> <r_epik_Ionization_Penalty_Neutral>
0.269933

> <r_epik_State_Penalty>
1.53013

> <r_epik_Charging_Adjusted_Penalty>
2.74134

> <i_epik_Tot_Q>
1

> <i_epik_Tot_abs_Q>
1

> <r_epik_Metal_State_Penalty>
1.60462

> <b_epik_Metal_Only>
0

> <s_lp_Force_Field>
OPLS_2005

> <r_lp_Energy>
21.4613

> <b_lp_Chiralities_Consistent>
1

> <s_lp_Variant>
AV-unprocessed.smi:1207-7

> <Gold.Version>
5.8.1

> <Gold.Id.Protein>
6NUR|6NUR_protein|mol2

> <Gold.PLP.Fitness>
52.6717

> <Gold.PLP.PLP>
-42.4654

> <Gold.PLP.part.hbond>
-4.4655

> <Gold.PLP.part.metal>
0.0000

> <Gold.PLP.part.buried>
-5.2987

> <Gold.PLP.part.nonpolar>
-32.1843

> <Gold.PLP.part.repulsive>
0.1099

> <Gold.PLP.ligand.clash>
0.0136

> <Gold.PLP.ligand.torsion>
1.0138

> <Gold.PLP.Chemscore.Hbond>
4.0000

> <Gold.PLP.Chemscore.CHOScore>
0.0000

> <Gold.PLP.Chemscore.Metal>
0.0000

> <Gold.Chemscore.Hbonds>
donor molecule, donor type, donor heavy atom, donor atom, acceptor molecule, acceptor atom, score
      L1  H     5    52       P1  8028  2.00
      P1  H  6896  6909       L1    19  1.00
      P1  H  7989  7998       L1    10  1.00

> <Gold.PLP.Chemscore.Internal.Correction>
0.2473

> <Gold.Rescore>
     Score         DG    S(hbond)    S(metal)    S(lipo)     H(rot)  DE(clash)    DE(int)     intcor
     19.83     -22.28       2.87        0.00     115.40       2.46       0.20       2.25       ----

> <Gold.Chemscore.Fitness>
19.8307

> <Gold.Chemscore.DG>
-22.2779

> <Gold.Chemscore.ZeroCoef>
-5.4800

> <Gold.Chemscore.Hbond>
2.8691

> <Gold.Chemscore.Metal>
0.0000

> <Gold.Chemscore.Lipo>
115.3951

> <Gold.Chemscore.Internal_Hbond>
0.0000

> <Gold.Chemscore.DEClash>
0.1953

> <Gold.Chemscore.DEInternal>
2.2520

> <Gold.Chemscore.Rot>
2.4555

> <Gold.Chemscore.Internal.Correction>
   9.000000E+99

> <Gold.Chemscore.Hbonds>
donor molecule, donor type, donor heavy atom, donor atom, acceptor molecule, acceptor atom, score
      L1  H     5    52       P1  8028  1.00
      P1  H  6896  6909       L1    19  0.26
      P1  H  7989  7998       L1    10  0.96

> <Gold.Chemscore.Hbond.Weighted>
-9.5828

> <Gold.Chemscore.Metal.Weighted>
-0.0000

> <Gold.Chemscore.Lipo.Weighted>
-13.5012

> <Gold.Chemscore.Internal_Hbond.Weighted>
0.0000

> <Gold.Chemscore.DEClash.Weighted>
0.1953

> <Gold.Chemscore.DEInternal.Weighted>
2.2520

> <Gold.Chemscore.Rot.Weighted>
6.2861

> <Gold.Chemscore.Internal.Correction.Weighted>
   9.000000E+99

> <Gold.Protein.RotatedTorsions>
[ 6907 6896 6895 6894 ] final   30.96 input  -60.11 | X-H torsion
[ 7974 7965 7964 7962 ] final   35.86 input  175.53 | X-H torsion
[ 8008 7997 7996 7995 ] final   42.54 input   59.86 | X-H torsion
[ 10167 10162 10161 10158 ] final -128.40 input  -65.29 | X-H torsion
[ 10718 10713 10712 10709 ] final   69.96 input   66.30 | X-H torsion
[ 10763 10752 10751 10750 ] final  -32.15 input  -60.55 | X-H torsion
[ 11005 11000 10999 10996 ] final   16.27 input  -57.11 | X-H torsion

> <Gold.Protein.ActiveResidues>
 VAL166  LYS551  ARG553  GLY616  TRP617  ASP618  TYR619  PRO620  LYS621  CYS622 
 ASP623  PHE694  ASN695  SER759  ASP760  ASP761  ALA762  ILE779  LEU786  VAL792 
 PHE793  MET794  SER795  GLU796  ALA797  LYS798  CYS799  TRP800  GLU811  SER814 

> <Gold.Protein.RotatedAtoms>
  152.0535  134.9639  160.0574 H   0  0  0  0  0  0  0  0  0  0  0  0  # atno 6907 bound_to 6896
  152.1030  133.4255  159.4604 H   0  0  0  0  0  0  0  0  0  0  0  0  # atno 6908 bound_to 6896
  150.6840  134.2657  159.4611 H   0  0  0  0  0  0  0  0  0  0  0  0  # atno 6909 bound_to 6896
  146.1253  139.6090  142.9262 H   0  0  0  0  0  0  0  0  0  0  0  0  # atno 7974 bound_to 7965
  155.2878  140.3377  155.4254 H   0  0  0  0  0  0  0  0  0  0  0  0  # atno 8008 bound_to 7997
  156.2060  140.1751  156.7839 H   0  0  0  0  0  0  0  0  0  0  0  0  # atno 8009 bound_to 7997
  154.5621  140.0685  156.8820 H   0  0  0  0  0  0  0  0  0  0  0  0  # atno 8010 bound_to 7997
  139.9506  143.6060  152.2476 H   0  0  0  0  0  0  0  0  0  0  0  0  # atno 10167 bound_to 10162
  157.6374  130.9453  150.0586 H   0  0  0  0  0  0  0  0  0  0  0  0  # atno 10718 bound_to 10713
  153.8090  135.6884  153.4844 H   0  0  0  0  0  0  0  0  0  0  0  0  # atno 10763 bound_to 10752
  153.1640  135.4568  154.9810 H   0  0  0  0  0  0  0  0  0  0  0  0  # atno 10764 bound_to 10752
  154.7975  135.3325  154.7572 H   0  0  0  0  0  0  0  0  0  0  0  0  # atno 10765 bound_to 10752
  140.4490  134.1243  155.7700 H   0  0  0  0  0  0  0  0  0  0  0  0  # atno 11005 bound_to 11000
  145.5378  141.0423  143.2347 LP  0  0  0  0  0  0  0  0  0  0  0  0  # atno 17320 bound_to 7965
  144.7636  139.6897  143.7224 LP  0  0  0  0  0  0  0  0  0  0  0  0  # atno 17321 bound_to 7965
  139.6631  144.7662  151.1924 LP  0  0  0  0  0  0  0  0  0  0  0  0  # atno 17342 bound_to 10162
  140.7584  143.5979  150.8729 LP  0  0  0  0  0  0  0  0  0  0  0  0  # atno 17343 bound_to 10162
  156.1625  130.3644  149.9278 LP  0  0  0  0  0  0  0  0  0  0  0  0  # atno 17370 bound_to 10713
  156.7273  130.9030  151.3623 LP  0  0  0  0  0  0  0  0  0  0  0  0  # atno 17371 bound_to 10713
  141.1672  133.8679  157.1679 LP  0  0  0  0  0  0  0  0  0  0  0  0  # atno 17394 bound_to 11000
  140.0019  135.0024  157.0208 LP  0  0  0  0  0  0  0  0  0  0  0  0  # atno 17395 bound_to 11000

$$$$
