AV-unprocessed.smi:1978|AV-procd|sdf|8010|dock1
  -GOLD-   2272010193D 1   1.00000     0.00000
 Structure written by MMmdl.
 44 45  0  0  0  0  0  0  0  0  3 V2000
  146.8094  134.0819  162.9182 C   0  0  0  0  0  0  0  0  0  0  0  0
  147.2617  135.0021  161.8371 C   0  0  0  0  0  0  0  0  0  0  0  0
  147.4998  134.8252  160.5032 C   0  0  0  0  0  0  0  0  0  0  0  0
  147.9129  136.1155  160.0768 C   0  0  0  0  0  0  0  0  0  0  0  0
  148.2632  136.3518  158.7213 N   0  0  0  0  0  0  0  0  0  0  0  0
  148.9267  135.5481  157.8707 C   0  0  0  0  0  0  0  0  0  0  0  0
  149.3136  134.4325  158.2384 O   0  0  0  0  0  0  0  0  0  0  0  0
  149.0924  136.1180  156.6450 N   0  5  0  0  0  0  0  0  0  0  0  0
  148.0295  136.2935  155.6541 C   0  0  0  0  0  0  0  0  0  0  0  0
  147.9413  135.0579  154.6955 C   0  0  2  0  0  0  0  0  0  0  0  0
  149.3242  134.4386  154.3753 C   0  0  0  0  0  0  0  0  0  0  0  0
  147.1537  135.2764  153.4260 N   0  3  2  0  0  0  0  0  0  0  0  0
  146.2483  136.4695  153.4293 C   0  0  0  0  0  0  0  0  0  0  0  0
  145.7847  136.8260  152.0108 C   0  0  0  0  0  0  0  0  0  0  0  0
  145.0726  135.6356  151.3663 C   0  0  0  0  0  0  0  0  0  0  0  0
  145.9975  134.4151  151.3800 C   0  0  0  0  0  0  0  0  0  0  0  0
  146.4931  134.0747  152.8030 C   0  0  1  0  0  0  0  0  0  0  0  0
  147.4056  132.8333  152.7193 C   0  0  0  0  0  0  0  0  0  0  0  0
  147.9186  137.0018  161.0617 N   0  0  0  0  0  0  0  0  0  0  0  0
  147.5019  136.2926  162.1943 O   0  0  0  0  0  0  0  0  0  0  0  0
  146.7630  133.0532  162.5609 H   0  0  0  0  0  0  0  0  0  0  0  0
  145.8180  134.3622  163.2740 H   0  0  0  0  0  0  0  0  0  0  0  0
  147.4955  134.1146  163.7647 H   0  0  0  0  0  0  0  0  0  0  0  0
  147.3987  133.9174  159.9271 H   0  0  0  0  0  0  0  0  0  0  0  0
  147.9721  137.2416  158.3445 H   0  0  0  0  0  0  0  0  0  0  0  0
  147.0620  136.4425  156.1347 H   0  0  0  0  0  0  0  0  0  0  0  0
  148.1888  137.1918  155.0578 H   0  0  0  0  0  0  0  0  0  0  0  0
  147.4302  134.2634  155.2352 H   0  0  0  0  0  0  0  0  0  0  0  0
  149.8025  134.0327  155.2686 H   0  0  0  0  0  0  0  0  0  0  0  0
  150.0238  135.1508  153.9356 H   0  0  0  0  0  0  0  0  0  0  0  0
  149.2216  133.6083  153.6761 H   0  0  0  0  0  0  0  0  0  0  0  0
  145.3750  136.2792  154.0550 H   0  0  0  0  0  0  0  0  0  0  0  0
  146.7500  137.3396  153.8493 H   0  0  0  0  0  0  0  0  0  0  0  0
  145.1160  137.6867  152.0424 H   0  0  0  0  0  0  0  0  0  0  0  0
  146.6422  137.1200  151.4040 H   0  0  0  0  0  0  0  0  0  0  0  0
  144.1536  135.4122  151.9098 H   0  0  0  0  0  0  0  0  0  0  0  0
  144.7822  135.8779  150.3438 H   0  0  0  0  0  0  0  0  0  0  0  0
  145.4697  133.5613  150.9535 H   0  0  0  0  0  0  0  0  0  0  0  0
  146.8524  134.6035  150.7288 H   0  0  0  0  0  0  0  0  0  0  0  0
  145.6213  133.8096  153.4029 H   0  0  0  0  0  0  0  0  0  0  0  0
  146.9327  132.0409  152.1385 H   0  0  0  0  0  0  0  0  0  0  0  0
  147.6112  132.4066  153.7003 H   0  0  0  0  0  0  0  0  0  0  0  0
  148.3573  133.0680  152.2413 H   0  0  0  0  0  0  0  0  0  0  0  0
  147.8734  135.5177  152.7606 H   0  0  0  0  0  0  0  0  0  0  0  0
  1  2  1  0  0  0  0
  1 21  1  0  0  0  0
  1 22  1  0  0  0  0
  1 23  1  0  0  0  0
  2 20  1  0  0  0  0
  2  3  2  0  0  0  0
  3  4  1  0  0  0  0
  3 24  1  0  0  0  0
  4  5  1  0  0  0  0
  4 19  2  0  0  0  0
  5  6  1  0  0  0  0
  5 25  1  0  0  0  0
  6  7  2  0  0  0  0
  6  8  1  0  0  0  0
  8  9  1  0  0  0  0
  9 10  1  0  0  0  0
  9 26  1  0  0  0  0
  9 27  1  0  0  0  0
 10 11  1  0  0  0  0
 10 12  1  0  0  0  0
 10 28  1  0  0  0  0
 11 29  1  0  0  0  0
 11 30  1  0  0  0  0
 11 31  1  0  0  0  0
 12 17  1  0  0  0  0
 12 13  1  0  0  0  0
 12 44  1  0  0  0  0
 13 14  1  0  0  0  0
 13 32  1  0  0  0  0
 13 33  1  0  0  0  0
 14 15  1  0  0  0  0
 14 34  1  0  0  0  0
 14 35  1  0  0  0  0
 15 16  1  0  0  0  0
 15 36  1  0  0  0  0
 15 37  1  0  0  0  0
 16 17  1  0  0  0  0
 16 38  1  0  0  0  0
 16 39  1  0  0  0  0
 17 18  1  0  0  0  0
 17 40  1  0  0  0  0
 18 41  1  0  0  0  0
 18 42  1  0  0  0  0
 18 43  1  0  0  0  0
 19 20  1  0  0  0  0
M  CHG  1   8  -1
M  CHG  1  12   1
M  END
> <s_m_source_file>
AV-unprocessed.smi

> <i_m_source_file_index>
1978

> <i_lp_mmshare_version>
43012

> <i_f3d_flags>
0

> <s_epik_input>
W0NIM11jMVtjSF1jKG5vMSlbTkhdQyg9TylbTkhdW0NIMl1bQ0BIXShbQ0gzXSlOMltDSDJdW0NIMl1bQ0gyXVtDSDJdW0NASF0yW0NIM10=

> <s_epik_cmdline>
J2VwaWtfcHl0aG9uJywgJy1waCcsICc3LjAnLCAnLXRuJywgJzgnLCAnLW1hJywgJzIwMCcsICctbWV0YWxfYmluZGluZycsICctaW1hZScsICc8aW5maWxlLm1hZT4nLCAnLW9tYWUnLCAnPG91dGZpbGUubWFlPic=

> <r_epik_Ionization_Penalty>
6.7666

> <r_epik_Ionization_Penalty_Charging>
6.7666

> <r_epik_Ionization_Penalty_Neutral>
5.77131e-06

> <r_epik_State_Penalty>
6.79217

> <r_epik_Charging_Adjusted_Penalty>
13.5588

> <i_epik_Tot_Q>
0

> <i_epik_Tot_abs_Q>
2

> <r_epik_Metal_State_Penalty>
2.72569

> <b_epik_Metal_Only>
1

> <s_lp_Force_Field>
OPLS_2005

> <r_lp_Energy>
22.3249

> <b_lp_Chiralities_Consistent>
1

> <s_lp_Variant>
AV-unprocessed.smi:1978-19

> <Gold.Version>
5.8.1

> <Gold.Id.Protein>
6NUR|6NUR_protein|mol2

> <Gold.PLP.Fitness>
38.2669

> <Gold.PLP.PLP>
-27.6650

> <Gold.PLP.part.hbond>
-4.0000

> <Gold.PLP.part.metal>
0.0000

> <Gold.PLP.part.buried>
0.1069

> <Gold.PLP.part.nonpolar>
-23.6677

> <Gold.PLP.part.repulsive>
0.1116

> <Gold.PLP.ligand.clash>
0.0000

> <Gold.PLP.ligand.torsion>
2.1129

> <Gold.PLP.Chemscore.Hbond>
4.8240

> <Gold.PLP.Chemscore.CHOScore>
0.0000

> <Gold.PLP.Chemscore.Metal>
0.0000

> <Gold.Chemscore.Hbonds>
donor molecule, donor type, donor heavy atom, donor atom, acceptor molecule, acceptor atom, score
      L1  H    12    44       P1  7948  2.00
      P1  H  6896  6907       L1     7  1.00
      P1  H  6931  6943       L1    19  0.95
      P1  H  6934  6947       L1    19  0.56

> <Gold.PLP.Chemscore.Internal.Correction>
0.3557

> <Gold.Rescore>
     Score         DG    S(hbond)    S(metal)    S(lipo)     H(rot)  DE(clash)    DE(int)     intcor
     15.94     -19.93       3.48        0.00      57.38       1.52       0.50       3.48       ----

> <Gold.Chemscore.Fitness>
15.9398

> <Gold.Chemscore.DG>
-19.9262

> <Gold.Chemscore.ZeroCoef>
-5.4800

> <Gold.Chemscore.Hbond>
3.4795

> <Gold.Chemscore.Metal>
0.0000

> <Gold.Chemscore.Lipo>
57.3788

> <Gold.Chemscore.Internal_Hbond>
0.0000

> <Gold.Chemscore.DEClash>
0.5019

> <Gold.Chemscore.DEInternal>
3.4845

> <Gold.Chemscore.Rot>
1.5190

> <Gold.Chemscore.Internal.Correction>
   9.000000E+99

> <Gold.Chemscore.Hbonds>
donor molecule, donor type, donor heavy atom, donor atom, acceptor molecule, acceptor atom, score
      L1  H    12    44       P1  7948  0.96
      P1  H  6896  6907       L1     7  1.00
      P1  H  6931  6943       L1    19  0.21
      P1  H  6934  6947       L1    19  0.51

> <Gold.Chemscore.Hbond.Weighted>
-11.6215

> <Gold.Chemscore.Metal.Weighted>
-0.0000

> <Gold.Chemscore.Lipo.Weighted>
-6.7133

> <Gold.Chemscore.Internal_Hbond.Weighted>
0.0000

> <Gold.Chemscore.DEClash.Weighted>
0.5019

> <Gold.Chemscore.DEInternal.Weighted>
3.4845

> <Gold.Chemscore.Rot.Weighted>
3.8886

> <Gold.Chemscore.Internal.Correction.Weighted>
   9.000000E+99

> <Gold.Protein.RotatedTorsions>
[ 6907 6896 6895 6894 ] final  -97.42 input  -60.11 | X-H torsion
[ 7974 7965 7964 7962 ] final -111.77 input  175.53 | X-H torsion
[ 8008 7997 7996 7995 ] final  -76.11 input   59.86 | X-H torsion
[ 10167 10162 10161 10158 ] final   37.88 input  -65.29 | X-H torsion
[ 10718 10713 10712 10709 ] final  162.98 input   66.30 | X-H torsion
[ 10763 10752 10751 10750 ] final  -11.23 input  -60.55 | X-H torsion
[ 11005 11000 10999 10996 ] final  -84.43 input  -57.11 | X-H torsion

> <Gold.Protein.ActiveResidues>
 VAL166  LYS551  ARG553  GLY616  TRP617  ASP618  TYR619  PRO620  LYS621  CYS622 
 ASP623  PHE694  ASN695  SER759  ASP760  ASP761  ALA762  ILE779  LEU786  VAL792 
 PHE793  MET794  SER795  GLU796  ALA797  LYS798  CYS799  TRP800  GLU811  SER814 

> <Gold.Protein.RotatedAtoms>
  150.7016  134.1351  159.4083 H   0  0  0  0  0  0  0  0  0  0  0  0  # atno 6907 bound_to 6896
  151.9336  135.0243  160.0540 H   0  0  0  0  0  0  0  0  0  0  0  0  # atno 6908 bound_to 6896
  152.2154  133.4908  159.5170 H   0  0  0  0  0  0  0  0  0  0  0  0  # atno 6909 bound_to 6896
  145.1521  140.8834  143.3640 H   0  0  0  0  0  0  0  0  0  0  0  0  # atno 7974 bound_to 7965
  154.5476  140.0732  156.8614 H   0  0  0  0  0  0  0  0  0  0  0  0  # atno 8008 bound_to 7997
  155.3057  140.3387  155.4227 H   0  0  0  0  0  0  0  0  0  0  0  0  # atno 8009 bound_to 7997
  156.1932  140.1694  156.8037 H   0  0  0  0  0  0  0  0  0  0  0  0  # atno 8010 bound_to 7997
  140.3990  144.1750  150.6133 H   0  0  0  0  0  0  0  0  0  0  0  0  # atno 10167 bound_to 10162
  157.1149  131.0477  151.2441 H   0  0  0  0  0  0  0  0  0  0  0  0  # atno 10718 bound_to 10713
  153.4807  135.7017  153.5940 H   0  0  0  0  0  0  0  0  0  0  0  0  # atno 10763 bound_to 10752
  153.4154  135.3838  155.2078 H   0  0  0  0  0  0  0  0  0  0  0  0  # atno 10764 bound_to 10752
  154.8722  135.3915  154.4256 H   0  0  0  0  0  0  0  0  0  0  0  0  # atno 10765 bound_to 10752
  141.1650  133.7345  156.8866 H   0  0  0  0  0  0  0  0  0  0  0  0  # atno 11005 bound_to 11000
  145.0420  139.3252  143.5972 LP  0  0  0  0  0  0  0  0  0  0  0  0  # atno 17320 bound_to 7965
  146.3493  139.9796  142.8697 LP  0  0  0  0  0  0  0  0  0  0  0  0  # atno 17321 bound_to 7965
  140.4760  143.2396  151.9022 LP  0  0  0  0  0  0  0  0  0  0  0  0  # atno 17342 bound_to 10162
  139.4785  144.5320  151.8653 LP  0  0  0  0  0  0  0  0  0  0  0  0  # atno 17343 bound_to 10162
  157.4527  130.7607  149.7165 LP  0  0  0  0  0  0  0  0  0  0  0  0  # atno 17370 bound_to 10713
  155.9842  130.3994  150.3326 LP  0  0  0  0  0  0  0  0  0  0  0  0  # atno 17371 bound_to 10713
  140.1678  134.9121  157.2795 LP  0  0  0  0  0  0  0  0  0  0  0  0  # atno 17394 bound_to 11000
  140.2537  134.3652  155.7432 LP  0  0  0  0  0  0  0  0  0  0  0  0  # atno 17395 bound_to 11000

$$$$
