AV-unprocessed.smi:242|AV-procd|sdf|1845|dock7
  -GOLD-   2262020463D 1   1.00000     0.00000
 Structure written by MMmdl.
 58 61  0  0  0  0  0  0  0  0  2 V2000
  152.3645  144.6207  158.9133 C   0  0  0  0  0  0  0  0  0  0  0  0
  151.4043  143.9006  159.8795 C   0  0  0  0  0  0  0  0  0  0  0  0
  152.1131  143.6638  161.2267 C   0  0  0  0  0  0  0  0  0  0  0  0
  150.9009  142.6204  159.3066 N   0  3  1  0  0  0  0  0  0  0  0  0
  150.0037  142.7624  158.1310 C   0  0  0  0  0  0  0  0  0  0  0  0
  150.4058  141.6770  157.1250 C   0  0  0  0  0  0  0  0  0  0  0  0
  151.2457  140.6941  157.9457 C   0  0  1  0  0  0  0  0  0  0  0  0
  152.1744  139.8763  157.1625 N   0  0  0  0  0  0  0  0  0  0  0  0
  153.1656  139.1118  157.9098 C   0  0  0  0  0  0  0  0  0  0  0  0
  151.5829  139.1155  156.2155 C   0  0  0  0  0  0  0  0  0  0  0  0
  151.0596  139.7564  155.1422 N   0  0  0  0  0  0  0  0  0  0  0  0
  150.4501  139.0560  154.1805 C   0  0  0  0  0  0  0  0  0  0  0  0
  150.2592  137.7371  154.1006 N   0  0  0  0  0  0  0  0  0  0  0  0
  150.7893  137.0917  155.1793 C   0  0  0  0  0  0  0  0  0  0  0  0
  151.4675  137.6982  156.2729 C   0  0  0  0  0  0  0  0  0  0  0  0
  151.8739  136.7263  157.1791 N   0  0  0  0  0  0  0  0  0  0  0  0
  151.4593  135.6075  156.6500 C   0  0  0  0  0  0  0  0  0  0  0  0
  150.7866  135.7358  155.4554 N   0  0  0  0  0  0  0  0  0  0  0  0
  150.2110  134.6642  154.6572 C   0  0  0  0  0  0  0  0  0  0  0  0
  148.6618  134.6592  154.6343 C   0  0  0  0  0  0  0  0  0  0  0  0
  148.2282  135.8989  154.1013 O   0  0  0  0  0  0  0  0  0  0  0  0
  148.1428  133.5282  153.7235 C   0  0  0  0  0  0  0  0  0  0  0  0
  146.6141  133.3697  153.8064 C   0  0  0  0  0  0  0  0  0  0  0  0
  146.2201  133.1654  155.1575 O   0  0  0  0  0  0  0  0  0  0  0  0
  146.5258  134.2774  155.9898 C   0  0  0  0  0  0  0  0  0  0  0  0
  148.0483  134.4976  156.0425 C   0  0  0  0  0  0  0  0  0  0  0  0
  151.9388  141.6363  158.9291 C   0  0  0  0  0  0  0  0  0  0  0  0
  152.7586  145.5325  159.3634 H   0  0  0  0  0  0  0  0  0  0  0  0
  151.8695  144.9174  157.9887 H   0  0  0  0  0  0  0  0  0  0  0  0
  153.2140  143.9886  158.6522 H   0  0  0  0  0  0  0  0  0  0  0  0
  150.5477  144.5544  160.0520 H   0  0  0  0  0  0  0  0  0  0  0  0
  152.5026  144.5978  161.6328 H   0  0  0  0  0  0  0  0  0  0  0  0
  152.9536  142.9778  161.1159 H   0  0  0  0  0  0  0  0  0  0  0  0
  151.4421  143.2486  161.9784 H   0  0  0  0  0  0  0  0  0  0  0  0
  148.9720  142.6323  158.4588 H   0  0  0  0  0  0  0  0  0  0  0  0
  150.0843  143.7453  157.6650 H   0  0  0  0  0  0  0  0  0  0  0  0
  149.5438  141.2055  156.6512 H   0  0  0  0  0  0  0  0  0  0  0  0
  151.0147  142.1240  156.3372 H   0  0  0  0  0  0  0  0  0  0  0  0
  150.5775  140.0410  158.5090 H   0  0  0  0  0  0  0  0  0  0  0  0
  153.7201  138.4340  157.2587 H   0  0  0  0  0  0  0  0  0  0  0  0
  152.6907  138.5213  158.6943 H   0  0  0  0  0  0  0  0  0  0  0  0
  153.8879  139.7816  158.3766 H   0  0  0  0  0  0  0  0  0  0  0  0
  150.0577  139.6357  153.3578 H   0  0  0  0  0  0  0  0  0  0  0  0
  151.6256  134.6508  157.1241 H   0  0  0  0  0  0  0  0  0  0  0  0
  150.6043  134.7448  153.6428 H   0  0  0  0  0  0  0  0  0  0  0  0
  150.5821  133.7165  155.0497 H   0  0  0  0  0  0  0  0  0  0  0  0
  148.4892  135.9445  153.1939 H   0  0  0  0  0  0  0  0  0  0  0  0
  148.4451  133.6996  152.6894 H   0  0  0  0  0  0  0  0  0  0  0  0
  148.6021  132.5852  154.0225 H   0  0  0  0  0  0  0  0  0  0  0  0
  146.1038  134.2413  153.3934 H   0  0  0  0  0  0  0  0  0  0  0  0
  146.2968  132.5105  153.2155 H   0  0  0  0  0  0  0  0  0  0  0  0
  146.0123  135.1692  155.6275 H   0  0  0  0  0  0  0  0  0  0  0  0
  146.1441  134.0802  156.9915 H   0  0  0  0  0  0  0  0  0  0  0  0
  148.5058  133.6403  156.5378 H   0  0  0  0  0  0  0  0  0  0  0  0
  148.2681  135.3655  156.6651 H   0  0  0  0  0  0  0  0  0  0  0  0
  152.7704  142.1468  158.4390 H   0  0  0  0  0  0  0  0  0  0  0  0
  152.3257  141.1076  159.8008 H   0  0  0  0  0  0  0  0  0  0  0  0
  150.3481  142.1730  160.0237 H   0  0  0  0  0  0  0  0  0  0  0  0
  1  2  1  0  0  0  0
  1 28  1  0  0  0  0
  1 29  1  0  0  0  0
  1 30  1  0  0  0  0
  2  3  1  0  0  0  0
  2  4  1  0  0  0  0
  2 31  1  0  0  0  0
  3 32  1  0  0  0  0
  3 33  1  0  0  0  0
  3 34  1  0  0  0  0
  4 27  1  0  0  0  0
  4  5  1  0  0  0  0
  4 58  1  0  0  0  0
  5  6  1  0  0  0  0
  5 35  1  0  0  0  0
  5 36  1  0  0  0  0
  6  7  1  0  0  0  0
  6 37  1  0  0  0  0
  6 38  1  0  0  0  0
  7  8  1  0  0  0  0
  7 27  1  0  0  0  0
  7 39  1  0  0  0  0
  8  9  1  0  0  0  0
  8 10  1  0  0  0  0
  9 40  1  0  0  0  0
  9 41  1  0  0  0  0
  9 42  1  0  0  0  0
 10 15  1  0  0  0  0
 10 11  2  0  0  0  0
 11 12  1  0  0  0  0
 12 13  2  0  0  0  0
 12 43  1  0  0  0  0
 13 14  1  0  0  0  0
 14 18  1  0  0  0  0
 14 15  2  0  0  0  0
 15 16  1  0  0  0  0
 16 17  2  0  0  0  0
 17 18  1  0  0  0  0
 17 44  1  0  0  0  0
 18 19  1  0  0  0  0
 19 20  1  0  0  0  0
 19 45  1  0  0  0  0
 19 46  1  0  0  0  0
 20 26  1  0  0  0  0
 20 21  1  0  0  0  0
 20 22  1  0  0  0  0
 21 47  1  0  0  0  0
 22 23  1  0  0  0  0
 22 48  1  0  0  0  0
 22 49  1  0  0  0  0
 23 24  1  0  0  0  0
 23 50  1  0  0  0  0
 23 51  1  0  0  0  0
 24 25  1  0  0  0  0
 25 26  1  0  0  0  0
 25 52  1  0  0  0  0
 25 53  1  0  0  0  0
 26 54  1  0  0  0  0
 26 55  1  0  0  0  0
 27 56  1  0  0  0  0
 27 57  1  0  0  0  0
M  CHG  1   4   1
M  END
> <s_m_source_file>
AV-unprocessed.smi

> <i_m_source_file_index>
242

> <i_lp_mmshare_version>
43012

> <i_f3d_flags>
0

> <s_epik_input>
W0NIM11bQ0hdKFtDSDNdKU4xW0NIMl1bQ0gyXVtDQEhdKFtDSDJdMSlOKFtDSDNdKWMobltjSF1uMiljKGMyMyluW2NIXW4zW0NIMl1DNChbT0hdKVtDSDJdW0NIMl1PW0NIMl1bQ0gyXTQ=

> <s_epik_cmdline>
J2VwaWtfcHl0aG9uJywgJy1waCcsICc3LjAnLCAnLXRuJywgJzgnLCAnLW1hJywgJzIwMCcsICctbWV0YWxfYmluZGluZycsICctaW1hZScsICc8aW5maWxlLm1hZT4nLCAnLW9tYWUnLCAnPG91dGZpbGUubWFlPic=

> <r_lp_tautomer_probability>
1

> <r_epik_Ionization_Penalty>
0.000825961

> <r_epik_Ionization_Penalty_Charging>
0.00034898

> <r_epik_Ionization_Penalty_Neutral>
0.000476981

> <r_epik_State_Penalty>
-0

> <r_epik_Charging_Adjusted_Penalty>
0.00034898

> <i_epik_Tot_Q>
1

> <i_epik_Tot_abs_Q>
1

> <r_epik_Metal_State_Penalty>
-0

> <b_epik_Metal_Only>
0

> <s_lp_Force_Field>
OPLS_2005

> <r_lp_Energy>
46.4754

> <b_lp_Chiralities_Consistent>
1

> <s_lp_Variant>
AV-unprocessed.smi:242-2

> <Gold.Version>
5.8.1

> <Gold.Id.Protein>
6NUR|6NUR_protein|mol2

> <Gold.PLP.Fitness>
41.3987

> <Gold.PLP.PLP>
-35.8362

> <Gold.PLP.part.hbond>
-2.0210

> <Gold.PLP.part.metal>
0.0000

> <Gold.PLP.part.buried>
-3.5958

> <Gold.PLP.part.nonpolar>
-31.9663

> <Gold.PLP.part.repulsive>
1.6656

> <Gold.PLP.ligand.clash>
0.0080

> <Gold.PLP.ligand.torsion>
0.6405

> <Gold.PLP.Chemscore.Hbond>
1.1438

> <Gold.PLP.Chemscore.CHOScore>
1.0000

> <Gold.PLP.Chemscore.Metal>
0.0000

> <Gold.Chemscore.Hbonds>
donor molecule, donor type, donor heavy atom, donor atom, acceptor molecule, acceptor atom, score
      L1  H    21    47       P1  7948  0.75
      P1  H  7989  7998       L1    11  0.05
      L1  C    12    43       P1  7957  1.00

> <Gold.PLP.Chemscore.Internal.Correction>
0.4200

> <Gold.Rescore>
     Score         DG    S(hbond)    S(metal)    S(lipo)     H(rot)  DE(clash)    DE(int)     intcor
      8.55     -12.56       0.94        0.00      88.33       2.50       0.09       3.92       ----

> <Gold.Chemscore.Fitness>
8.5479

> <Gold.Chemscore.DG>
-12.5560

> <Gold.Chemscore.ZeroCoef>
-5.4800

> <Gold.Chemscore.Hbond>
0.9401

> <Gold.Chemscore.Metal>
0.0000

> <Gold.Chemscore.Lipo>
88.3326

> <Gold.Chemscore.Internal_Hbond>
0.0000

> <Gold.Chemscore.DEClash>
0.0880

> <Gold.Chemscore.DEInternal>
3.9201

> <Gold.Chemscore.Rot>
2.4996

> <Gold.Chemscore.Internal.Correction>
   9.000000E+99

> <Gold.Chemscore.Hbonds>
donor molecule, donor type, donor heavy atom, donor atom, acceptor molecule, acceptor atom, score
      L1  H    21    47       P1  7948  0.75

> <Gold.Chemscore.Hbond.Weighted>
-3.1400

> <Gold.Chemscore.Metal.Weighted>
-0.0000

> <Gold.Chemscore.Lipo.Weighted>
-10.3349

> <Gold.Chemscore.Internal_Hbond.Weighted>
0.0000

> <Gold.Chemscore.DEClash.Weighted>
0.0880

> <Gold.Chemscore.DEInternal.Weighted>
3.9201

> <Gold.Chemscore.Rot.Weighted>
6.3990

> <Gold.Chemscore.Internal.Correction.Weighted>
   9.000000E+99

> <Gold.Protein.RotatedTorsions>
[ 6907 6896 6895 6894 ] final -137.42 input  -60.11 | X-H torsion
[ 7974 7965 7964 7962 ] final -145.98 input  175.53 | X-H torsion
[ 8008 7997 7996 7995 ] final -164.51 input   59.86 | X-H torsion
[ 10167 10162 10161 10158 ] final  169.65 input  -65.29 | X-H torsion
[ 10718 10713 10712 10709 ] final    3.87 input   66.30 | X-H torsion
[ 10763 10752 10751 10750 ] final  164.11 input  -60.55 | X-H torsion
[ 11005 11000 10999 10996 ] final   55.37 input  -57.11 | X-H torsion

> <Gold.Protein.ActiveResidues>
 VAL166  LYS551  ARG553  GLY616  TRP617  ASP618  TYR619  PRO620  LYS621  CYS622 
 ASP623  PHE694  ASN695  SER759  ASP760  ASP761  ALA762  ILE779  LEU786  VAL792 
 PHE793  MET794  SER795  GLU796  ALA797  LYS798  CYS799  TRP800  GLU811  SER814 

> <Gold.Protein.RotatedAtoms>
  151.0223  133.5866  159.2669 H   0  0  0  0  0  0  0  0  0  0  0  0  # atno 6907 bound_to 6896
  151.2978  135.0759  159.9237 H   0  0  0  0  0  0  0  0  0  0  0  0  # atno 6908 bound_to 6896
  152.5326  133.9909  159.7904 H   0  0  0  0  0  0  0  0  0  0  0  0  # atno 6909 bound_to 6896
  144.8191  140.5515  143.5591 H   0  0  0  0  0  0  0  0  0  0  0  0  # atno 7974 bound_to 7965
  155.8366  140.0942  157.1760 H   0  0  0  0  0  0  0  0  0  0  0  0  # atno 8008 bound_to 7997
  154.3981  140.1409  156.3739 H   0  0  0  0  0  0  0  0  0  0  0  0  # atno 8009 bound_to 7997
  155.8109  140.3449  155.5459 H   0  0  0  0  0  0  0  0  0  0  0  0  # atno 8010 bound_to 7997
  139.4998  144.3683  151.9752 H   0  0  0  0  0  0  0  0  0  0  0  0  # atno 10167 bound_to 10162
  156.8843  130.5664  149.5652 H   0  0  0  0  0  0  0  0  0  0  0  0  # atno 10718 bound_to 10713
  154.3039  135.2758  155.2598 H   0  0  0  0  0  0  0  0  0  0  0  0  # atno 10763 bound_to 10752
  154.5023  135.5805  153.6544 H   0  0  0  0  0  0  0  0  0  0  0  0  # atno 10764 bound_to 10752
  152.9897  135.6161  154.3211 H   0  0  0  0  0  0  0  0  0  0  0  0  # atno 10765 bound_to 10752
  140.0613  134.5599  155.9149 H   0  0  0  0  0  0  0  0  0  0  0  0  # atno 11005 bound_to 11000
  145.5147  139.1478  143.3585 LP  0  0  0  0  0  0  0  0  0  0  0  0  # atno 17320 bound_to 7965
  146.2495  140.5288  142.8899 LP  0  0  0  0  0  0  0  0  0  0  0  0  # atno 17321 bound_to 7965
  140.3119  144.3528  150.6032 LP  0  0  0  0  0  0  0  0  0  0  0  0  # atno 17342 bound_to 10162
  140.5792  143.2174  151.7459 LP  0  0  0  0  0  0  0  0  0  0  0  0  # atno 17343 bound_to 10162
  156.0661  130.5704  150.9292 LP  0  0  0  0  0  0  0  0  0  0  0  0  # atno 17370 bound_to 10713
  157.6122  131.0935  150.8775 LP  0  0  0  0  0  0  0  0  0  0  0  0  # atno 17371 bound_to 10713
  141.1974  133.6596  156.5740 LP  0  0  0  0  0  0  0  0  0  0  0  0  # atno 17394 bound_to 11000
  140.3766  134.7559  157.4634 LP  0  0  0  0  0  0  0  0  0  0  0  0  # atno 17395 bound_to 11000

$$$$
