AV-unprocessed.smi:221|AV-procd|sdf|1699|dock7
  -GOLD-   2262020153D 1   1.00000     0.00000
 Structure written by MMmdl.
 50 53  0  0  0  0  0  0  0  0  1 V2000
  148.5469  143.0902  157.7159 N   0  0  0  0  0  0  0  0  0  0  0  0
  149.5800  143.2890  158.5380 C   0  0  0  0  0  0  0  0  0  0  0  0
  149.4250  143.4880  159.7420 O   0  0  0  0  0  0  0  0  0  0  0  0
  150.9829  143.2595  157.9024 C   0  0  1  0  0  0  0  0  0  0  0  0
  151.6770  144.6320  157.9766 C   0  0  0  0  0  0  0  0  0  0  0  0
  152.4861  144.5952  159.2735 C   0  0  1  0  0  0  0  0  0  0  0  0
  151.7118  144.9345  160.3053 F   0  0  0  0  0  0  0  0  0  0  0  0
  152.8941  143.1262  159.3926 C   0  0  0  0  0  0  0  0  0  0  0  0
  151.9056  142.3788  158.6200 N   0  0  0  0  0  0  0  0  0  0  0  0
  151.9307  141.0196  158.5276 C   0  0  0  0  0  0  0  0  0  0  0  0
  152.8636  140.3536  159.2596 N   0  0  0  0  0  0  0  0  0  0  0  0
  152.9435  139.0216  159.2205 C   0  0  0  0  0  0  0  0  0  0  0  0
  152.1998  138.1633  158.5235 N   0  0  0  0  0  0  0  0  0  0  0  0
  151.2615  138.8163  157.7812 C   0  0  0  0  0  0  0  0  0  0  0  0
  151.0574  140.2268  157.7204 C   0  0  0  0  0  0  0  0  0  0  0  0
  150.0093  140.4997  156.8459 N   0  0  0  0  0  0  0  0  0  0  0  0
  149.6204  139.3300  156.4205 C   0  0  0  0  0  0  0  0  0  0  0  0
  150.3219  138.2635  156.9287 N   0  0  0  0  0  0  0  0  0  0  0  0
  150.1031  136.8605  156.6246 C   0  0  0  0  0  0  0  0  0  0  0  0
  148.6119  136.4852  156.4175 C   0  0  1  0  0  0  0  0  0  0  0  0
  148.4384  135.1572  155.6363 C   0  0  0  0  0  0  0  0  0  0  0  0
  149.3306  135.0686  154.5443 O   0  0  0  0  0  0  0  0  0  0  0  0
  147.8760  136.4271  157.7817 C   0  0  1  0  0  0  0  0  0  0  0  0
  148.5013  135.4984  158.8096 C   0  0  0  0  0  0  0  0  0  0  0  0
  147.8883  136.0012  160.1096 C   0  0  0  0  0  0  0  0  0  0  0  0
  147.7867  137.4093  159.9486 O   0  0  0  0  0  0  0  0  0  0  0  0
  147.8645  137.7472  158.5665 C   0  0  0  0  0  0  0  0  0  0  0  0
  150.9043  142.9654  156.8555 H   0  0  0  0  0  0  0  0  0  0  0  0
  153.3371  145.2767  159.2697 H   0  0  0  0  0  0  0  0  0  0  0  0
  147.6068  143.0956  158.0841 H   0  0  0  0  0  0  0  0  0  0  0  0
  148.7082  142.9311  156.7322 H   0  0  0  0  0  0  0  0  0  0  0  0
  152.3595  144.7333  157.1317 H   0  0  0  0  0  0  0  0  0  0  0  0
  150.9882  145.4772  157.9353 H   0  0  0  0  0  0  0  0  0  0  0  0
  153.8789  142.9702  158.9500 H   0  0  0  0  0  0  0  0  0  0  0  0
  152.9327  142.8049  160.4345 H   0  0  0  0  0  0  0  0  0  0  0  0
  153.7137  138.5811  159.8363 H   0  0  0  0  0  0  0  0  0  0  0  0
  148.8105  139.2121  155.7154 H   0  0  0  0  0  0  0  0  0  0  0  0
  150.6802  136.6040  155.7354 H   0  0  0  0  0  0  0  0  0  0  0  0
  150.5337  136.2849  157.4439 H   0  0  0  0  0  0  0  0  0  0  0  0
  148.1436  137.2799  155.8343 H   0  0  0  0  0  0  0  0  0  0  0  0
  148.5770  134.2992  156.2948 H   0  0  0  0  0  0  0  0  0  0  0  0
  147.4370  135.0691  155.2178 H   0  0  0  0  0  0  0  0  0  0  0  0
  148.9385  135.5000  153.8003 H   0  0  0  0  0  0  0  0  0  0  0  0
  146.8436  136.1111  157.6215 H   0  0  0  0  0  0  0  0  0  0  0  0
  148.2826  134.4453  158.6314 H   0  0  0  0  0  0  0  0  0  0  0  0
  149.5846  135.6255  158.8328 H   0  0  0  0  0  0  0  0  0  0  0  0
  146.8867  135.5904  160.2415 H   0  0  0  0  0  0  0  0  0  0  0  0
  148.4828  135.7391  160.9849 H   0  0  0  0  0  0  0  0  0  0  0  0
  148.7877  138.3056  158.4063 H   0  0  0  0  0  0  0  0  0  0  0  0
  147.0302  138.3891  158.2828 H   0  0  0  0  0  0  0  0  0  0  0  0
  1  2  1  0  0  0  0
  1 30  1  0  0  0  0
  1 31  1  0  0  0  0
  2  3  2  0  0  0  0
  2  4  1  0  0  0  0
  4 28  1  0  0  0  0
  4  9  1  0  0  0  0
  4  5  1  0  0  0  0
  5  6  1  0  0  0  0
  5 32  1  0  0  0  0
  5 33  1  0  0  0  0
  6 29  1  0  0  0  0
  6  7  1  0  0  0  0
  6  8  1  0  0  0  0
  8  9  1  0  0  0  0
  8 34  1  0  0  0  0
  8 35  1  0  0  0  0
  9 10  1  0  0  0  0
 10 15  1  0  0  0  0
 10 11  2  0  0  0  0
 11 12  1  0  0  0  0
 12 13  2  0  0  0  0
 12 36  1  0  0  0  0
 13 14  1  0  0  0  0
 14 18  1  0  0  0  0
 14 15  2  0  0  0  0
 15 16  1  0  0  0  0
 16 17  2  0  0  0  0
 17 18  1  0  0  0  0
 17 37  1  0  0  0  0
 18 19  1  0  0  0  0
 19 20  1  0  0  0  0
 19 38  1  0  0  0  0
 19 39  1  0  0  0  0
 20 21  1  0  0  0  0
 20 23  1  0  0  0  0
 20 40  1  0  0  0  0
 21 22  1  0  0  0  0
 21 41  1  0  0  0  0
 21 42  1  0  0  0  0
 22 43  1  0  0  0  0
 23 27  1  0  0  0  0
 23 24  1  0  0  0  0
 23 44  1  0  0  0  0
 24 25  1  0  0  0  0
 24 45  1  0  0  0  0
 24 46  1  0  0  0  0
 25 26  1  0  0  0  0
 25 47  1  0  0  0  0
 25 48  1  0  0  0  0
 26 27  1  0  0  0  0
 27 49  1  0  0  0  0
 27 50  1  0  0  0  0
M  END
> <s_m_source_file>
AV-unprocessed.smi

> <i_m_source_file_index>
221

> <i_lp_mmshare_version>
43012

> <i_f3d_flags>
0

> <s_epik_input>
W05IMl1DKD1PKVtDQEBIXTFbQ0gyXVtDQEBIXShGKVtDSDJdTjFjKG5bY0hdbjIpYyhjMjMpbltjSF1uM1tDSDJdW0NASF0oW0NIMl1bT0hdKVtDQEBIXTRbQ0gyXVtDSDJdT1tDSDJdNA==

> <s_epik_cmdline>
J2VwaWtfcHl0aG9uJywgJy1waCcsICc3LjAnLCAnLXRuJywgJzgnLCAnLW1hJywgJzIwMCcsICctbWV0YWxfYmluZGluZycsICctaW1hZScsICc8aW5maWxlLm1hZT4nLCAnLW9tYWUnLCAnPG91dGZpbGUubWFlPic=

> <r_lp_tautomer_probability>
1

> <r_epik_Ionization_Penalty>
0.000818822

> <r_epik_Ionization_Penalty_Charging>
0

> <r_epik_Ionization_Penalty_Neutral>
0.000818822

> <r_epik_State_Penalty>
0.000440551

> <r_epik_Charging_Adjusted_Penalty>
0.000440551

> <i_epik_Tot_Q>
0

> <i_epik_Tot_abs_Q>
0

> <r_epik_Metal_State_Penalty>
-0

> <b_epik_Metal_Only>
0

> <s_lp_Force_Field>
OPLS_2005

> <r_lp_Energy>
47.9731

> <b_lp_Chiralities_Consistent>
1

> <s_lp_Variant>
AV-unprocessed.smi:221-14

> <Gold.Version>
5.8.1

> <Gold.Id.Protein>
6NUR|6NUR_protein|mol2

> <Gold.PLP.Fitness>
43.3634

> <Gold.PLP.PLP>
-38.3354

> <Gold.PLP.part.hbond>
-5.7290

> <Gold.PLP.part.metal>
0.0000

> <Gold.PLP.part.buried>
-5.4914

> <Gold.PLP.part.nonpolar>
-28.0756

> <Gold.PLP.part.repulsive>
0.2026

> <Gold.PLP.ligand.clash>
0.0000

> <Gold.PLP.ligand.torsion>
0.7635

> <Gold.PLP.Chemscore.Hbond>
2.1569

> <Gold.PLP.Chemscore.CHOScore>
0.0000

> <Gold.PLP.Chemscore.Metal>
0.0000

> <Gold.Chemscore.Hbonds>
donor molecule, donor type, donor heavy atom, donor atom, acceptor molecule, acceptor atom, score
      L1  H     1    31       P1  8028  0.21
      L1  H    22    43       P1  7948  0.96
      P1  H  6933  6944       L1     3  0.16
      P1  H  6934  6947       L1    26  0.75

> <Gold.PLP.Chemscore.Internal.Correction>
0.0843

> <Gold.Rescore>
     Score         DG    S(hbond)    S(metal)    S(lipo)     H(rot)  DE(clash)    DE(int)     intcor
      9.24     -11.81       2.11        0.00      66.38       3.31       0.02       2.56       ----

> <Gold.Chemscore.Fitness>
9.2366

> <Gold.Chemscore.DG>
-11.8128

> <Gold.Chemscore.ZeroCoef>
-5.4800

> <Gold.Chemscore.Hbond>
2.1070

> <Gold.Chemscore.Metal>
0.0000

> <Gold.Chemscore.Lipo>
66.3793

> <Gold.Chemscore.Internal_Hbond>
0.0000

> <Gold.Chemscore.DEClash>
0.0202

> <Gold.Chemscore.DEInternal>
2.5560

> <Gold.Chemscore.Rot>
3.3089

> <Gold.Chemscore.Internal.Correction>
   9.000000E+99

> <Gold.Chemscore.Hbonds>
donor molecule, donor type, donor heavy atom, donor atom, acceptor molecule, acceptor atom, score
      L1  H     1    31       P1  8028  0.18
      L1  H    22    43       P1  7948  0.75
      P1  H  6931  6943       L1    26  0.01
      P1  H  6933  6944       L1     3  0.17
      P1  H  6934  6947       L1    26  0.45

> <Gold.Chemscore.Hbond.Weighted>
-7.0373

> <Gold.Chemscore.Metal.Weighted>
-0.0000

> <Gold.Chemscore.Lipo.Weighted>
-7.7664

> <Gold.Chemscore.Internal_Hbond.Weighted>
0.0000

> <Gold.Chemscore.DEClash.Weighted>
0.0202

> <Gold.Chemscore.DEInternal.Weighted>
2.5560

> <Gold.Chemscore.Rot.Weighted>
8.4709

> <Gold.Chemscore.Internal.Correction.Weighted>
   9.000000E+99

> <Gold.Protein.RotatedTorsions>
[ 6907 6896 6895 6894 ] final  122.85 input  -60.11 | X-H torsion
[ 7974 7965 7964 7962 ] final  -38.16 input  175.53 | X-H torsion
[ 8008 7997 7996 7995 ] final  -98.18 input   59.86 | X-H torsion
[ 10167 10162 10161 10158 ] final  150.63 input  -65.29 | X-H torsion
[ 10718 10713 10712 10709 ] final   37.58 input   66.30 | X-H torsion
[ 10763 10752 10751 10750 ] final   84.58 input  -60.55 | X-H torsion
[ 11005 11000 10999 10996 ] final  -65.35 input  -57.11 | X-H torsion

> <Gold.Protein.ActiveResidues>
 VAL166  LYS551  ARG553  GLY616  TRP617  ASP618  TYR619  PRO620  LYS621  CYS622 
 ASP623  PHE694  ASN695  SER759  ASP760  ASP761  ALA762  ILE779  LEU786  VAL792 
 PHE793  MET794  SER795  GLU796  ALA797  LYS798  CYS799  TRP800  GLU811  SER814 

> <Gold.Protein.RotatedAtoms>
  152.4209  133.7115  159.6481 H   0  0  0  0  0  0  0  0  0  0  0  0  # atno 6907 bound_to 6896
  150.8085  133.8454  159.3199 H   0  0  0  0  0  0  0  0  0  0  0  0  # atno 6908 bound_to 6896
  151.6170  135.1037  160.0145 H   0  0  0  0  0  0  0  0  0  0  0  0  # atno 6909 bound_to 6896
  146.0511  140.6480  142.9041 H   0  0  0  0  0  0  0  0  0  0  0  0  # atno 7974 bound_to 7965
  154.7977  140.0457  157.1249 H   0  0  0  0  0  0  0  0  0  0  0  0  # atno 8008 bound_to 7997
  154.9516  140.3066  155.5052 H   0  0  0  0  0  0  0  0  0  0  0  0  # atno 8009 bound_to 7997
  156.2958  140.2287  156.4594 H   0  0  0  0  0  0  0  0  0  0  0  0  # atno 8010 bound_to 7997
  139.4848  144.5507  151.7406 H   0  0  0  0  0  0  0  0  0  0  0  0  # atno 10167 bound_to 10162
  157.3486  130.7586  149.6963 H   0  0  0  0  0  0  0  0  0  0  0  0  # atno 10718 bound_to 10713
  153.1395  135.4649  154.9474 H   0  0  0  0  0  0  0  0  0  0  0  0  # atno 10763 bound_to 10752
  154.7735  135.3166  154.8143 H   0  0  0  0  0  0  0  0  0  0  0  0  # atno 10764 bound_to 10752
  153.8668  135.6907  153.4832 H   0  0  0  0  0  0  0  0  0  0  0  0  # atno 10765 bound_to 10752
  141.1452  133.6680  156.5973 H   0  0  0  0  0  0  0  0  0  0  0  0  # atno 11005 bound_to 11000
  144.7123  140.4084  143.7071 LP  0  0  0  0  0  0  0  0  0  0  0  0  # atno 17320 bound_to 7965
  145.6723  139.1601  143.2748 LP  0  0  0  0  0  0  0  0  0  0  0  0  # atno 17321 bound_to 7965
  140.5060  144.1097  150.5983 LP  0  0  0  0  0  0  0  0  0  0  0  0  # atno 17342 bound_to 10162
  140.4006  143.2705  151.9952 LP  0  0  0  0  0  0  0  0  0  0  0  0  # atno 17343 bound_to 10162
  155.9718  130.4147  150.4144 LP  0  0  0  0  0  0  0  0  0  0  0  0  # atno 17370 bound_to 10713
  157.2204  131.0481  151.2550 LP  0  0  0  0  0  0  0  0  0  0  0  0  # atno 17371 bound_to 10713
  140.3716  134.7600  157.4602 LP  0  0  0  0  0  0  0  0  0  0  0  0  # atno 17394 bound_to 11000
  140.0706  134.5868  155.8646 LP  0  0  0  0  0  0  0  0  0  0  0  0  # atno 17395 bound_to 11000

$$$$
