AV-unprocessed.smi:2440|AV-procd|sdf|9618|dock8
  -GOLD-   2272013253D 1   1.00000     0.00000
 Structure written by MMmdl.
 53 55  0  0  0  0  0  0  0  0  3 V2000
  145.1701  137.3873  161.7980 C   0  0  0  0  0  0  0  0  0  0  0  0
  145.9221  136.0683  161.8455 C   0  0  0  0  0  0  0  0  0  0  0  0
  145.4703  135.0404  162.7019 C   0  0  0  0  0  0  0  0  0  0  0  0
  146.1299  133.8640  162.7566 N   0  3  0  0  0  0  0  0  0  0  0  0
  147.2318  133.6104  162.0204 C   0  0  0  0  0  0  0  0  0  0  0  0
  147.7341  134.5942  161.1461 C   0  0  0  0  0  0  0  0  0  0  0  0
  147.0678  135.8421  161.0400 C   0  0  0  0  0  0  0  0  0  0  0  0
  147.5281  136.8924  160.1961 N   0  0  0  0  0  0  0  0  0  0  0  0
  148.7002  136.9873  159.5449 C   0  0  0  0  0  0  0  0  0  0  0  0
  149.5874  136.1343  159.5560 O   0  0  0  0  0  0  0  0  0  0  0  0
  148.7793  138.1338  158.8533 N   0  0  0  0  0  0  0  0  0  0  0  0
  149.9090  138.5573  158.0291 C   0  0  2  0  0  0  0  0  0  0  0  0
  151.1264  138.8567  158.9232 C   0  0  0  0  0  0  0  0  0  0  0  0
  152.2808  139.4612  158.1008 C   0  0  0  0  0  0  0  0  0  0  0  0
  151.8616  140.7036  157.3899 N   0  3  2  0  0  0  0  0  0  0  0  0
  151.6365  141.9076  158.2635 C   0  0  0  0  0  0  0  0  0  0  0  0
  151.3015  143.1725  157.4272 C   0  0  0  0  0  0  0  0  0  0  0  0
  151.1322  144.4338  158.2888 C   0  0  0  0  0  0  0  0  0  0  0  0
  152.3743  144.6968  159.1446 C   0  0  0  0  0  0  0  0  0  0  0  0
  152.6818  143.4780  160.0189 C   0  0  0  0  0  0  0  0  0  0  0  0
  152.8611  142.2094  159.1700 C   0  0  0  0  0  0  0  0  0  0  0  0
  150.7456  140.3723  156.4567 C   0  0  0  0  0  0  0  0  0  0  0  0
  149.5239  139.7978  157.2011 C   0  0  0  0  0  0  0  0  0  0  0  0
  144.3178  137.3822  162.4782 H   0  0  0  0  0  0  0  0  0  0  0  0
  144.7958  137.5761  160.7914 H   0  0  0  0  0  0  0  0  0  0  0  0
  145.8241  138.2115  162.0843 H   0  0  0  0  0  0  0  0  0  0  0  0
  144.6058  135.1224  163.3448 H   0  0  0  0  0  0  0  0  0  0  0  0
  147.6802  132.6370  162.1562 H   0  0  0  0  0  0  0  0  0  0  0  0
  148.6290  134.3775  160.5829 H   0  0  0  0  0  0  0  0  0  0  0  0
  146.8586  137.6260  160.0147 H   0  0  0  0  0  0  0  0  0  0  0  0
  147.9942  138.7671  158.9005 H   0  0  0  0  0  0  0  0  0  0  0  0
  150.1947  137.7643  157.3355 H   0  0  0  0  0  0  0  0  0  0  0  0
  150.8477  139.5360  159.7295 H   0  0  0  0  0  0  0  0  0  0  0  0
  151.4632  137.9377  159.4051 H   0  0  0  0  0  0  0  0  0  0  0  0
  153.1655  139.6123  158.7154 H   0  0  0  0  0  0  0  0  0  0  0  0
  152.5956  138.7334  157.3516 H   0  0  0  0  0  0  0  0  0  0  0  0
  150.7871  141.7091  158.9172 H   0  0  0  0  0  0  0  0  0  0  0  0
  152.0844  143.3426  156.6870 H   0  0  0  0  0  0  0  0  0  0  0  0
  150.3715  143.0459  156.8761 H   0  0  0  0  0  0  0  0  0  0  0  0
  150.9348  145.2952  157.6501 H   0  0  0  0  0  0  0  0  0  0  0  0
  150.2597  144.3223  158.9341 H   0  0  0  0  0  0  0  0  0  0  0  0
  153.2279  144.9182  158.5025 H   0  0  0  0  0  0  0  0  0  0  0  0
  152.2184  145.5761  159.7704 H   0  0  0  0  0  0  0  0  0  0  0  0
  153.5826  143.6618  160.6052 H   0  0  0  0  0  0  0  0  0  0  0  0
  151.8730  143.3278  160.7355 H   0  0  0  0  0  0  0  0  0  0  0  0
  153.0435  141.3936  159.8675 H   0  0  0  0  0  0  0  0  0  0  0  0
  153.7584  142.3075  158.5575 H   0  0  0  0  0  0  0  0  0  0  0  0
  150.4614  141.2163  155.8327 H   0  0  0  0  0  0  0  0  0  0  0  0
  151.1086  139.6242  155.7503 H   0  0  0  0  0  0  0  0  0  0  0  0
  148.7494  139.5324  156.4804 H   0  0  0  0  0  0  0  0  0  0  0  0
  149.0871  140.5623  157.8445 H   0  0  0  0  0  0  0  0  0  0  0  0
  152.6435  140.9545  156.8013 H   0  0  0  0  0  0  0  0  0  0  0  0
  145.7839  133.1380  163.3846 H   0  0  0  0  0  0  0  0  0  0  0  0
  1  2  1  0  0  0  0
  1 24  1  0  0  0  0
  1 25  1  0  0  0  0
  1 26  1  0  0  0  0
  2  7  1  0  0  0  0
  2  3  2  0  0  0  0
  3  4  1  0  0  0  0
  3 27  1  0  0  0  0
  4  5  2  0  0  0  0
  4 53  1  0  0  0  0
  5  6  1  0  0  0  0
  5 28  1  0  0  0  0
  6  7  2  0  0  0  0
  6 29  1  0  0  0  0
  7  8  1  0  0  0  0
  8  9  1  0  0  0  0
  8 30  1  0  0  0  0
  9 10  2  0  0  0  0
  9 11  1  0  0  0  0
 11 12  1  0  0  0  0
 11 31  1  0  0  0  0
 12 23  1  0  0  0  0
 12 13  1  0  0  0  0
 12 32  1  0  0  0  0
 13 14  1  0  0  0  0
 13 33  1  0  0  0  0
 13 34  1  0  0  0  0
 14 15  1  0  0  0  0
 14 35  1  0  0  0  0
 14 36  1  0  0  0  0
 15 16  1  0  0  0  0
 15 22  1  0  0  0  0
 15 52  1  0  0  0  0
 16 21  1  0  0  0  0
 16 17  1  0  0  0  0
 16 37  1  0  0  0  0
 17 18  1  0  0  0  0
 17 38  1  0  0  0  0
 17 39  1  0  0  0  0
 18 19  1  0  0  0  0
 18 40  1  0  0  0  0
 18 41  1  0  0  0  0
 19 20  1  0  0  0  0
 19 42  1  0  0  0  0
 19 43  1  0  0  0  0
 20 21  1  0  0  0  0
 20 44  1  0  0  0  0
 20 45  1  0  0  0  0
 21 46  1  0  0  0  0
 21 47  1  0  0  0  0
 22 23  1  0  0  0  0
 22 48  1  0  0  0  0
 22 49  1  0  0  0  0
 23 50  1  0  0  0  0
 23 51  1  0  0  0  0
M  CHG  1   4   1
M  CHG  1  15   1
M  END
> <s_m_source_file>
AV-unprocessed.smi

> <i_m_source_file_index>
2440

> <i_lp_mmshare_version>
43012

> <i_f3d_flags>
0

> <s_epik_input>
W0NIM11jMVtjSF1uW2NIXVtjSF1jMVtOSF1DKD1PKVtOSF1bQ0hdMltDSDJdW0NIMl1OKFtDSDJdW0NIMl0yKVtDSF0zW0NIMl1bQ0gyXVtDSDJdW0NIMl1bQ0gyXTM=

> <s_epik_cmdline>
J2VwaWtfcHl0aG9uJywgJy1waCcsICc3LjAnLCAnLXRuJywgJzgnLCAnLW1hJywgJzIwMCcsICctbWV0YWxfYmluZGluZycsICctaW1hZScsICc8aW5maWxlLm1hZT4nLCAnLW9tYWUnLCAnPG91dGZpbGUubWFlPic=

> <r_epik_Ionization_Penalty>
0.799454

> <r_epik_Ionization_Penalty_Charging>
0.799436

> <r_epik_Ionization_Penalty_Neutral>
1.84398e-05

> <r_epik_State_Penalty>
0.81805

> <r_epik_Charging_Adjusted_Penalty>
1.61749

> <i_epik_Tot_Q>
2

> <i_epik_Tot_abs_Q>
2

> <r_epik_Metal_State_Penalty>
0.955144

> <b_epik_Metal_Only>
0

> <s_lp_Force_Field>
OPLS_2005

> <r_lp_Energy>
43.248

> <b_lp_Chiralities_Consistent>
1

> <s_lp_Variant>
AV-unprocessed.smi:2440-4

> <Gold.Version>
5.8.1

> <Gold.Id.Protein>
6NUR|6NUR_protein|mol2

> <Gold.PLP.Fitness>
44.6003

> <Gold.PLP.PLP>
-41.8192

> <Gold.PLP.part.hbond>
-1.0000

> <Gold.PLP.part.metal>
0.0000

> <Gold.PLP.part.buried>
-7.4059

> <Gold.PLP.part.nonpolar>
-35.3760

> <Gold.PLP.part.repulsive>
0.5960

> <Gold.PLP.ligand.clash>
0.0000

> <Gold.PLP.ligand.torsion>
0.1325

> <Gold.PLP.Chemscore.Hbond>
1.0000

> <Gold.PLP.Chemscore.CHOScore>
0.0000

> <Gold.PLP.Chemscore.Metal>
0.0000

> <Gold.Chemscore.Hbonds>
donor molecule, donor type, donor heavy atom, donor atom, acceptor molecule, acceptor atom, score
      P1  H  6896  6909       L1    10  1.00

> <Gold.PLP.Chemscore.Internal.Correction>
0.0461

> <Gold.Rescore>
     Score         DG    S(hbond)    S(metal)    S(lipo)     H(rot)  DE(clash)    DE(int)     intcor
     19.94     -21.39       1.00        0.00     133.33       1.18       0.08       1.37       ----

> <Gold.Chemscore.Fitness>
19.9410

> <Gold.Chemscore.DG>
-21.3862

> <Gold.Chemscore.ZeroCoef>
-5.4800

> <Gold.Chemscore.Hbond>
0.9996

> <Gold.Chemscore.Metal>
0.0000

> <Gold.Chemscore.Lipo>
133.3338

> <Gold.Chemscore.Internal_Hbond>
0.0000

> <Gold.Chemscore.DEClash>
0.0789

> <Gold.Chemscore.DEInternal>
1.3663

> <Gold.Chemscore.Rot>
1.1846

> <Gold.Chemscore.Internal.Correction>
   9.000000E+99

> <Gold.Chemscore.Hbonds>
donor molecule, donor type, donor heavy atom, donor atom, acceptor molecule, acceptor atom, score
      P1  H  6896  6909       L1    10  1.00

> <Gold.Chemscore.Hbond.Weighted>
-3.3388

> <Gold.Chemscore.Metal.Weighted>
-0.0000

> <Gold.Chemscore.Lipo.Weighted>
-15.6001

> <Gold.Chemscore.Internal_Hbond.Weighted>
0.0000

> <Gold.Chemscore.DEClash.Weighted>
0.0789

> <Gold.Chemscore.DEInternal.Weighted>
1.3663

> <Gold.Chemscore.Rot.Weighted>
3.0326

> <Gold.Chemscore.Internal.Correction.Weighted>
   9.000000E+99

> <Gold.Protein.RotatedTorsions>
[ 6907 6896 6895 6894 ] final   72.97 input  -60.11 | X-H torsion
[ 7974 7965 7964 7962 ] final -179.93 input  175.53 | X-H torsion
[ 8008 7997 7996 7995 ] final  138.40 input   59.86 | X-H torsion
[ 10167 10162 10161 10158 ] final  -44.17 input  -65.29 | X-H torsion
[ 10718 10713 10712 10709 ] final  138.25 input   66.30 | X-H torsion
[ 10763 10752 10751 10750 ] final   69.63 input  -60.55 | X-H torsion
[ 11005 11000 10999 10996 ] final -148.65 input  -57.11 | X-H torsion

> <Gold.Protein.ActiveResidues>
 VAL166  LYS551  ARG553  GLY616  TRP617  ASP618  TYR619  PRO620  LYS621  CYS622 
 ASP623  PHE694  ASN695  SER759  ASP760  ASP761  ALA762  ILE779  LEU786  VAL792 
 PHE793  MET794  SER795  GLU796  ALA797  LYS798  CYS799  TRP800  GLU811  SER814 

> <Gold.Protein.RotatedAtoms>
  152.4898  134.4491  159.9568 H   0  0  0  0  0  0  0  0  0  0  0  0  # atno 6907 bound_to 6896
  151.4481  133.3619  159.2799 H   0  0  0  0  0  0  0  0  0  0  0  0  # atno 6908 bound_to 6896
  150.9041  134.8479  159.7440 H   0  0  0  0  0  0  0  0  0  0  0  0  # atno 6909 bound_to 6896
  144.7140  140.0644  143.6431 H   0  0  0  0  0  0  0  0  0  0  0  0  # atno 7974 bound_to 7965
  156.2997  140.2394  156.4067 H   0  0  0  0  0  0  0  0  0  0  0  0  # atno 8008 bound_to 7997
  154.8478  140.0425  157.1604 H   0  0  0  0  0  0  0  0  0  0  0  0  # atno 8009 bound_to 7997
  154.9032  140.2980  155.5310 H   0  0  0  0  0  0  0  0  0  0  0  0  # atno 8010 bound_to 7997
  140.6907  143.2944  151.3456 H   0  0  0  0  0  0  0  0  0  0  0  0  # atno 10167 bound_to 10162
  157.4273  131.1045  151.0289 H   0  0  0  0  0  0  0  0  0  0  0  0  # atno 10718 bound_to 10713
  153.0298  135.5203  154.7318 H   0  0  0  0  0  0  0  0  0  0  0  0  # atno 10763 bound_to 10752
  154.6343  135.2904  155.0181 H   0  0  0  0  0  0  0  0  0  0  0  0  # atno 10764 bound_to 10752
  154.1122  135.6620  153.4939 H   0  0  0  0  0  0  0  0  0  0  0  0  # atno 10765 bound_to 10752
  140.7590  134.3320  157.5106 H   0  0  0  0  0  0  0  0  0  0  0  0  # atno 11005 bound_to 11000
  145.9836  139.2960  143.1027 LP  0  0  0  0  0  0  0  0  0  0  0  0  # atno 17320 bound_to 7965
  145.8982  140.9260  143.0516 LP  0  0  0  0  0  0  0  0  0  0  0  0  # atno 17321 bound_to 7965
  139.6307  144.0726  152.2473 LP  0  0  0  0  0  0  0  0  0  0  0  0  # atno 17342 bound_to 10162
  140.0200  144.6160  150.7574 LP  0  0  0  0  0  0  0  0  0  0  0  0  # atno 17343 bound_to 10162
  157.1198  130.6057  149.5502 LP  0  0  0  0  0  0  0  0  0  0  0  0  # atno 17370 bound_to 10713
  155.9901  130.4950  150.7242 LP  0  0  0  0  0  0  0  0  0  0  0  0  # atno 17371 bound_to 10713
  139.8774  134.9190  156.3216 LP  0  0  0  0  0  0  0  0  0  0  0  0  # atno 17394 bound_to 11000
  140.9681  133.7345  156.0495 LP  0  0  0  0  0  0  0  0  0  0  0  0  # atno 17395 bound_to 11000

$$$$
