AV-unprocessed.smi:112|AV-procd|sdf|1088|dock3
  -GOLD-   2262018183D 1   1.00000     0.00000
 Structure written by MMmdl.
 54 57  0  0  0  0  0  0  0  0  3 V2000
  147.1058  141.0917  153.2982 C   0  0  0  0  0  0  0  0  0  0  0  0
  147.5523  141.3867  154.7218 C   0  0  0  0  0  0  0  0  0  0  0  0
  146.6694  141.5584  155.7324 C   0  0  0  0  0  0  0  0  0  0  0  0
  147.0374  141.8271  157.0414 N   0  0  0  0  0  0  0  0  0  0  0  0
  146.0302  141.9396  158.1794 C   0  0  1  0  0  0  0  0  0  0  0  0
  146.0746  143.2631  158.9574 C   0  0  0  0  0  0  0  0  0  0  0  0
  144.8769  144.0384  158.4080 C   0  0  1  0  0  0  0  0  0  0  0  0
  145.2775  145.3058  157.9268 O   0  0  0  0  0  0  0  0  0  0  0  0
  144.3200  143.1518  157.2791 C   0  0  2  0  0  0  0  0  0  0  0  0
  142.7895  143.1631  157.1453 C   0  0  0  0  0  0  0  0  0  0  0  0
  142.1817  142.7889  158.3635 O   0  0  0  0  0  0  0  0  0  0  0  0
  144.7508  141.8459  157.6408 O   0  0  0  0  0  0  0  0  0  0  0  0
  148.4088  141.8361  157.3774 C   0  0  0  0  0  0  0  0  0  0  0  0
  148.7722  141.9994  158.5447 O   0  0  0  0  0  0  0  0  0  0  0  0
  149.3579  141.6616  156.3450 N   0  0  0  0  0  0  0  0  0  0  0  0
  150.7983  141.7099  156.6862 C   0  0  0  0  0  0  0  0  0  0  0  0
  151.2820  140.5056  157.5238 C   0  0  0  0  0  0  0  0  0  0  0  0
  150.9153  139.3737  157.2055 O   0  0  0  0  0  0  0  0  0  0  0  0
  152.0983  140.7545  158.5783 N   0  0  0  0  0  0  0  0  0  0  0  0
  152.5478  142.1056  158.9568 C   0  0  0  0  0  0  0  0  0  0  0  0
  153.4500  141.9316  160.1979 C   0  0  0  0  0  0  0  0  0  0  0  0
  153.4339  140.4487  160.4237 C   0  0  0  0  0  0  0  0  0  0  0  0
  154.1032  139.7478  161.4412 C   0  0  0  0  0  0  0  0  0  0  0  0
  153.9719  138.3381  161.5018 C   0  0  0  0  0  0  0  0  0  0  0  0
  154.6615  137.5684  162.5563 N   0  3  0  0  0  0  0  0  0  0  0  0
  154.5213  136.3498  162.5729 O   0  0  0  0  0  0  0  0  0  0  0  0
  155.3451  138.1813  163.3701 O   0  5  0  0  0  0  0  0  0  0  0  0
  153.1688  137.6774  160.5344 C   0  0  0  0  0  0  0  0  0  0  0  0
  152.5032  138.3978  159.5184 C   0  0  0  0  0  0  0  0  0  0  0  0
  152.6484  139.8016  159.4767 C   0  0  0  0  0  0  0  0  0  0  0  0
  148.9884  141.4583  154.9937 C   0  0  0  0  0  0  0  0  0  0  0  0
  149.8477  141.3478  154.1167 O   0  0  0  0  0  0  0  0  0  0  0  0
  146.0193  141.0797  153.2062 H   0  0  0  0  0  0  0  0  0  0  0  0
  147.4779  140.1180  152.9775 H   0  0  0  0  0  0  0  0  0  0  0  0
  147.4888  141.8483  152.6125 H   0  0  0  0  0  0  0  0  0  0  0  0
  145.6255  141.4620  155.4837 H   0  0  0  0  0  0  0  0  0  0  0  0
  146.2415  141.0975  158.8401 H   0  0  0  0  0  0  0  0  0  0  0  0
  145.9112  143.0434  160.0133 H   0  0  0  0  0  0  0  0  0  0  0  0
  147.0408  143.7621  158.8805 H   0  0  0  0  0  0  0  0  0  0  0  0
  144.1360  144.1693  159.1977 H   0  0  0  0  0  0  0  0  0  0  0  0
  146.2161  145.3049  157.8188 H   0  0  0  0  0  0  0  0  0  0  0  0
  144.7793  143.4049  156.3217 H   0  0  0  0  0  0  0  0  0  0  0  0
  142.4464  144.1651  156.8863 H   0  0  0  0  0  0  0  0  0  0  0  0
  142.4590  142.4945  156.3499 H   0  0  0  0  0  0  0  0  0  0  0  0
  142.6117  143.2482  159.0684 H   0  0  0  0  0  0  0  0  0  0  0  0
  151.4043  141.7745  155.7815 H   0  0  0  0  0  0  0  0  0  0  0  0
  151.0253  142.6315  157.2234 H   0  0  0  0  0  0  0  0  0  0  0  0
  153.1079  142.5686  158.1432 H   0  0  0  0  0  0  0  0  0  0  0  0
  151.6973  142.7452  159.1956 H   0  0  0  0  0  0  0  0  0  0  0  0
  154.4670  142.2795  160.0137 H   0  0  0  0  0  0  0  0  0  0  0  0
  153.0497  142.4536  161.0676 H   0  0  0  0  0  0  0  0  0  0  0  0
  154.7036  140.2884  162.1582 H   0  0  0  0  0  0  0  0  0  0  0  0
  153.0542  136.6038  160.5618 H   0  0  0  0  0  0  0  0  0  0  0  0
  151.9032  137.8571  158.8038 H   0  0  0  0  0  0  0  0  0  0  0  0
  1  2  1  0  0  0  0
  1 33  1  0  0  0  0
  1 34  1  0  0  0  0
  1 35  1  0  0  0  0
  2 31  1  0  0  0  0
  2  3  2  0  0  0  0
  3  4  1  0  0  0  0
  3 36  1  0  0  0  0
  4  5  1  0  0  0  0
  4 13  1  0  0  0  0
  5 12  1  0  0  0  0
  5  6  1  0  0  0  0
  5 37  1  0  0  0  0
  6  7  1  0  0  0  0
  6 38  1  0  0  0  0
  6 39  1  0  0  0  0
  7  8  1  0  0  0  0
  7  9  1  0  0  0  0
  7 40  1  0  0  0  0
  8 41  1  0  0  0  0
  9 10  1  0  0  0  0
  9 12  1  0  0  0  0
  9 42  1  0  0  0  0
 10 11  1  0  0  0  0
 10 43  1  0  0  0  0
 10 44  1  0  0  0  0
 11 45  1  0  0  0  0
 13 14  2  0  0  0  0
 13 15  1  0  0  0  0
 15 16  1  0  0  0  0
 15 31  1  0  0  0  0
 16 17  1  0  0  0  0
 16 46  1  0  0  0  0
 16 47  1  0  0  0  0
 17 18  2  0  0  0  0
 17 19  1  0  0  0  0
 19 30  1  0  0  0  0
 19 20  1  0  0  0  0
 20 21  1  0  0  0  0
 20 48  1  0  0  0  0
 20 49  1  0  0  0  0
 21 22  1  0  0  0  0
 21 50  1  0  0  0  0
 21 51  1  0  0  0  0
 22 30  2  0  0  0  0
 22 23  1  0  0  0  0
 23 24  2  0  0  0  0
 23 52  1  0  0  0  0
 24 25  1  0  0  0  0
 24 28  1  0  0  0  0
 25 26  2  0  0  0  0
 25 27  1  0  0  0  0
 28 29  2  0  0  0  0
 28 53  1  0  0  0  0
 29 30  1  0  0  0  0
 29 54  1  0  0  0  0
 31 32  2  0  0  0  0
M  CHG  1  25   1
M  CHG  1  27  -1
M  END
> <s_m_source_file>
AV-unprocessed.smi

> <i_m_source_file_index>
112

> <i_lp_mmshare_version>
43012

> <i_f3d_flags>
0

> <s_epik_input>
W09IXVtDSDJdW0NAQEhdKE8xKVtDQEhdKFtPSF0pW0NIMl1bQ0BIXTFuKFtjSF1jMltDSDNdKWMoPU8pbihjMj1PKVtDSDJdQyg9TylOKFtDSDJdW0NIMl0zKWMoYzM0KVtjSF1bY0hdYyhbY0hdNClbTitdKD1PKVtPLV0=

> <s_epik_cmdline>
J2VwaWtfcHl0aG9uJywgJy1waCcsICc3LjAnLCAnLXRuJywgJzgnLCAnLW1hJywgJzIwMCcsICctbWV0YWxfYmluZGluZycsICctaW1hZScsICc8aW5maWxlLm1hZT4nLCAnLW9tYWUnLCAnPG91dGZpbGUubWFlPic=

> <r_lp_tautomer_probability>
1

> <r_epik_Ionization_Penalty>
2.5696e-07

> <r_epik_Ionization_Penalty_Charging>
1.04886e-08

> <r_epik_Ionization_Penalty_Neutral>
2.46472e-07

> <r_epik_State_Penalty>
-0

> <r_epik_Charging_Adjusted_Penalty>
1.04886e-08

> <i_epik_Tot_Q>
0

> <i_epik_Tot_abs_Q>
2

> <r_epik_Metal_State_Penalty>
-0

> <b_epik_Metal_Only>
0

> <s_epik_Chemistry_Notes>
This compound contains an acetal/aminal-like group ( X-CH(R)-Y where X, Y are N, S, or O) that may be acid/base labile, releasing an aldehyde.

> <s_lp_Force_Field>
OPLS_2005

> <r_lp_Energy>
55.094

> <b_lp_Chiralities_Consistent>
1

> <s_lp_Variant>
AV-unprocessed.smi:112-6

> <Gold.Version>
5.8.1

> <Gold.Id.Protein>
6NUR|6NUR_protein|mol2

> <Gold.PLP.Fitness>
50.1824

> <Gold.PLP.PLP>
-44.9103

> <Gold.PLP.part.hbond>
-3.3214

> <Gold.PLP.part.metal>
0.0000

> <Gold.PLP.part.buried>
-4.8679

> <Gold.PLP.part.nonpolar>
-36.7906

> <Gold.PLP.part.repulsive>
0.2988

> <Gold.PLP.ligand.clash>
0.0000

> <Gold.PLP.ligand.torsion>
0.3180

> <Gold.PLP.Chemscore.Hbond>
1.9424

> <Gold.PLP.Chemscore.CHOScore>
0.0000

> <Gold.PLP.Chemscore.Metal>
0.0000

> <Gold.Chemscore.Hbonds>
donor molecule, donor type, donor heavy atom, donor atom, acceptor molecule, acceptor atom, score
      L1  H     8    41       P1  8029  1.00
      P1  H  7989  7998       L1    32  0.32
      P1  H  8011  8017       L1    32  0.60

> <Gold.PLP.Chemscore.Internal.Correction>
0.0808

> <Gold.Rescore>
     Score         DG    S(hbond)    S(metal)    S(lipo)     H(rot)  DE(clash)    DE(int)     intcor
      9.91     -13.16       1.77        0.00      87.28       3.29       0.68       2.57       ----

> <Gold.Chemscore.Fitness>
9.9113

> <Gold.Chemscore.DG>
-13.1611

> <Gold.Chemscore.ZeroCoef>
-5.4800

> <Gold.Chemscore.Hbond>
1.7653

> <Gold.Chemscore.Metal>
0.0000

> <Gold.Chemscore.Lipo>
87.2787

> <Gold.Chemscore.Internal_Hbond>
0.0000

> <Gold.Chemscore.DEClash>
0.6808

> <Gold.Chemscore.DEInternal>
2.5689

> <Gold.Chemscore.Rot>
3.2916

> <Gold.Chemscore.Internal.Correction>
   9.000000E+99

> <Gold.Chemscore.Hbonds>
donor molecule, donor type, donor heavy atom, donor atom, acceptor molecule, acceptor atom, score
      L1  H     8    41       P1  8029  0.73
      P1  H  7989  7998       L1    32  0.32
      P1  H  8011  8017       L1    32  0.57

> <Gold.Chemscore.Hbond.Weighted>
-5.8960

> <Gold.Chemscore.Metal.Weighted>
-0.0000

> <Gold.Chemscore.Lipo.Weighted>
-10.2116

> <Gold.Chemscore.Internal_Hbond.Weighted>
0.0000

> <Gold.Chemscore.DEClash.Weighted>
0.6808

> <Gold.Chemscore.DEInternal.Weighted>
2.5689

> <Gold.Chemscore.Rot.Weighted>
8.4265

> <Gold.Chemscore.Internal.Correction.Weighted>
   9.000000E+99

> <Gold.Protein.RotatedTorsions>
[ 6907 6896 6895 6894 ] final  171.07 input  -60.11 | X-H torsion
[ 7974 7965 7964 7962 ] final -142.72 input  175.53 | X-H torsion
[ 8008 7997 7996 7995 ] final  -85.89 input   59.86 | X-H torsion
[ 10167 10162 10161 10158 ] final  165.46 input  -65.29 | X-H torsion
[ 10718 10713 10712 10709 ] final   24.40 input   66.30 | X-H torsion
[ 10763 10752 10751 10750 ] final  140.32 input  -60.55 | X-H torsion
[ 11005 11000 10999 10996 ] final   91.78 input  -57.11 | X-H torsion

> <Gold.Protein.ActiveResidues>
 VAL166  LYS551  ARG553  GLY616  TRP617  ASP618  TYR619  PRO620  LYS621  CYS622 
 ASP623  PHE694  ASN695  SER759  ASP760  ASP761  ALA762  ILE779  LEU786  VAL792 
 PHE793  MET794  SER795  GLU796  ALA797  LYS798  CYS799  TRP800  GLU811  SER814 

> <Gold.Protein.RotatedAtoms>
  151.8061  133.3376  159.3541 H   0  0  0  0  0  0  0  0  0  0  0  0  # atno 6907 bound_to 6896
  150.7342  134.5708  159.5899 H   0  0  0  0  0  0  0  0  0  0  0  0  # atno 6908 bound_to 6896
  152.3108  134.7500  160.0388 H   0  0  0  0  0  0  0  0  0  0  0  0  # atno 6909 bound_to 6896
  144.8422  140.5923  143.5445 H   0  0  0  0  0  0  0  0  0  0  0  0  # atno 7974 bound_to 7965
  154.6458  140.0585  156.9898 H   0  0  0  0  0  0  0  0  0  0  0  0  # atno 8008 bound_to 7997
  155.1447  140.3268  155.4426 H   0  0  0  0  0  0  0  0  0  0  0  0  # atno 8009 bound_to 7997
  156.2553  140.1958  156.6562 H   0  0  0  0  0  0  0  0  0  0  0  0  # atno 8010 bound_to 7997
  139.4906  144.4130  151.9277 H   0  0  0  0  0  0  0  0  0  0  0  0  # atno 10167 bound_to 10162
  157.1793  130.6795  149.6107 H   0  0  0  0  0  0  0  0  0  0  0  0  # atno 10718 bound_to 10713
  153.9207  135.3001  155.3447 H   0  0  0  0  0  0  0  0  0  0  0  0  # atno 10763 bound_to 10752
  154.7577  135.4949  153.9408 H   0  0  0  0  0  0  0  0  0  0  0  0  # atno 10764 bound_to 10752
  153.1143  135.6767  153.9549 H   0  0  0  0  0  0  0  0  0  0  0  0  # atno 10765 bound_to 10752
  139.8833  134.8694  156.3477 H   0  0  0  0  0  0  0  0  0  0  0  0  # atno 11005 bound_to 11000
  145.4670  139.1507  143.3835 LP  0  0  0  0  0  0  0  0  0  0  0  0  # atno 17320 bound_to 7965
  146.2713  140.4802  142.8813 LP  0  0  0  0  0  0  0  0  0  0  0  0  # atno 17321 bound_to 7965
  140.3572  144.3017  150.5939 LP  0  0  0  0  0  0  0  0  0  0  0  0  # atno 17342 bound_to 10162
  140.5434  143.2219  151.8046 LP  0  0  0  0  0  0  0  0  0  0  0  0  # atno 17343 bound_to 10162
  155.9727  130.4652  150.6246 LP  0  0  0  0  0  0  0  0  0  0  0  0  # atno 17370 bound_to 10713
  157.3968  131.0804  151.1344 LP  0  0  0  0  0  0  0  0  0  0  0  0  # atno 17371 bound_to 10713
  140.9615  133.7385  156.0408 LP  0  0  0  0  0  0  0  0  0  0  0  0  # atno 17394 bound_to 11000
  140.7983  134.3538  157.5446 LP  0  0  0  0  0  0  0  0  0  0  0  0  # atno 17395 bound_to 11000

$$$$
