AV-unprocessed.smi:2124|AV-procd|sdf|8650|dock2
  -GOLD-   2272011393D 1   1.00000     0.00000
 Structure written by MMmdl.
 47 49  0  0  0  0  0  0  0  0  1 V2000
  146.6414  138.3126  151.7697 C   0  0  0  0  0  0  0  0  0  0  0  0
  146.7480  139.1471  153.0285 C   0  0  0  0  0  0  0  0  0  0  0  0
  145.9455  139.0376  154.0355 N   0  0  0  0  0  0  0  0  0  0  0  0
  146.1452  139.8646  155.1495 C   0  0  0  0  0  0  0  0  0  0  0  0
  145.1623  139.6725  156.2916 C   0  0  0  0  0  0  0  0  0  0  0  0
  147.1610  140.7763  155.1919 C   0  0  0  0  0  0  0  0  0  0  0  0
  147.4060  141.6888  156.3924 C   0  0  0  0  0  0  0  0  0  0  0  0
  148.7307  141.4667  157.1251 C   0  0  0  0  0  0  0  0  0  0  0  0
  148.8306  140.5641  157.9556 O   0  0  0  0  0  0  0  0  0  0  0  0
  149.7378  142.2932  156.8026 N   0  0  0  0  0  0  0  0  0  0  0  0
  151.0886  142.2536  157.3586 C   0  0  2  0  0  0  0  0  0  0  0  0
  151.6749  140.8440  157.1748 C   0  0  0  0  0  0  0  0  0  0  0  0
  151.0397  142.6870  158.8429 C   0  0  2  0  0  0  0  0  0  0  0  0
  150.1648  143.9304  159.1251 C   0  0  0  0  0  0  0  0  0  0  0  0
  151.0855  144.8159  159.9851 C   0  0  2  0  0  0  0  0  0  0  0  0
  152.1652  145.4404  159.0827 C   0  0  0  0  0  0  0  0  0  0  0  0
  153.0781  144.2408  158.7707 C   0  0  0  0  0  0  0  0  0  0  0  0
  152.3827  143.0781  159.5091 C   0  0  1  0  0  0  0  0  0  0  0  0
  151.8889  143.7842  160.7683 C   0  0  0  0  0  0  0  0  0  0  0  0
  148.0699  140.8944  154.0348 C   0  0  0  0  0  0  0  0  0  0  0  0
  149.0110  141.6832  153.9640 O   0  0  0  0  0  0  0  0  0  0  0  0
  147.8037  140.0569  153.0075 N   0  0  0  0  0  0  0  0  0  0  0  0
  148.3976  140.0994  152.1923 H   0  0  0  0  0  0  0  0  0  0  0  0
  145.6793  138.4836  151.2865 H   0  0  0  0  0  0  0  0  0  0  0  0
  146.7185  137.2530  152.0148 H   0  0  0  0  0  0  0  0  0  0  0  0
  147.4304  138.5559  151.0564 H   0  0  0  0  0  0  0  0  0  0  0  0
  145.6799  139.3511  157.1953 H   0  0  0  0  0  0  0  0  0  0  0  0
  144.4151  138.9162  156.0481 H   0  0  0  0  0  0  0  0  0  0  0  0
  144.6351  140.6018  156.5038 H   0  0  0  0  0  0  0  0  0  0  0  0
  147.3475  142.7252  156.0581 H   0  0  0  0  0  0  0  0  0  0  0  0
  146.5987  141.5912  157.1190 H   0  0  0  0  0  0  0  0  0  0  0  0
  149.5572  143.0036  156.1081 H   0  0  0  0  0  0  0  0  0  0  0  0
  151.7090  142.9609  156.8073 H   0  0  0  0  0  0  0  0  0  0  0  0
  152.7022  140.7907  157.5349 H   0  0  0  0  0  0  0  0  0  0  0  0
  151.6873  140.5571  156.1227 H   0  0  0  0  0  0  0  0  0  0  0  0
  151.0927  140.0979  157.7164 H   0  0  0  0  0  0  0  0  0  0  0  0
  150.6285  141.8525  159.4145 H   0  0  0  0  0  0  0  0  0  0  0  0
  149.8514  144.4458  158.2162 H   0  0  0  0  0  0  0  0  0  0  0  0
  149.2643  143.6490  159.6722 H   0  0  0  0  0  0  0  0  0  0  0  0
  150.5490  145.5446  160.5934 H   0  0  0  0  0  0  0  0  0  0  0  0
  151.7442  145.8889  158.1822 H   0  0  0  0  0  0  0  0  0  0  0  0
  152.7189  146.2148  159.6150 H   0  0  0  0  0  0  0  0  0  0  0  0
  153.2002  144.0675  157.7026 H   0  0  0  0  0  0  0  0  0  0  0  0
  154.0731  144.4096  159.1843 H   0  0  0  0  0  0  0  0  0  0  0  0
  153.0393  142.2288  159.7006 H   0  0  0  0  0  0  0  0  0  0  0  0
  152.6918  144.2223  161.3640 H   0  0  0  0  0  0  0  0  0  0  0  0
  151.2725  143.1519  161.4099 H   0  0  0  0  0  0  0  0  0  0  0  0
  1  2  1  0  0  0  0
  1 24  1  0  0  0  0
  1 25  1  0  0  0  0
  1 26  1  0  0  0  0
  2 22  1  0  0  0  0
  2  3  2  0  0  0  0
  3  4  1  0  0  0  0
  4  5  1  0  0  0  0
  4  6  2  0  0  0  0
  5 27  1  0  0  0  0
  5 28  1  0  0  0  0
  5 29  1  0  0  0  0
  6  7  1  0  0  0  0
  6 20  1  0  0  0  0
  7  8  1  0  0  0  0
  7 30  1  0  0  0  0
  7 31  1  0  0  0  0
  8  9  2  0  0  0  0
  8 10  1  0  0  0  0
 10 11  1  0  0  0  0
 10 32  1  0  0  0  0
 11 12  1  0  0  0  0
 11 13  1  0  0  0  0
 11 33  1  0  0  0  0
 12 34  1  0  0  0  0
 12 35  1  0  0  0  0
 12 36  1  0  0  0  0
 13 18  1  0  0  0  0
 13 14  1  0  0  0  0
 13 37  1  0  0  0  0
 14 15  1  0  0  0  0
 14 38  1  0  0  0  0
 14 39  1  0  0  0  0
 15 19  1  0  0  0  0
 15 16  1  0  0  0  0
 15 40  1  0  0  0  0
 16 17  1  0  0  0  0
 16 41  1  0  0  0  0
 16 42  1  0  0  0  0
 17 18  1  0  0  0  0
 17 43  1  0  0  0  0
 17 44  1  0  0  0  0
 18 19  1  0  0  0  0
 18 45  1  0  0  0  0
 19 46  1  0  0  0  0
 19 47  1  0  0  0  0
 20 21  2  0  0  0  0
 20 22  1  0  0  0  0
 22 23  1  0  0  0  0
M  END
> <s_m_source_file>
AV-unprocessed.smi

> <i_m_source_file_index>
2124

> <i_lp_mmshare_version>
43012

> <i_f3d_flags>
0

> <s_epik_input>
W0NIM11jMW5jKFtDSDNdKWMoYyg9TylbbkhdMSlbQ0gyXUMoPU8pW05IXVtDQEhdKFtDSDNdKVtDQEhdKFtDSDJdW0NASF0yMylbQ0BIXShbQ0gyXTMpW0NIMl1bQ0gyXTI=

> <s_epik_cmdline>
J2VwaWtfcHl0aG9uJywgJy1waCcsICc3LjAnLCAnLXRuJywgJzgnLCAnLW1hJywgJzIwMCcsICctbWV0YWxfYmluZGluZycsICctaW1hZScsICc8aW5maWxlLm1hZT4nLCAnLW9tYWUnLCAnPG91dGZpbGUubWFlPic=

> <r_lp_tautomer_probability>
0.839158

> <r_epik_Ionization_Penalty>
0.000383628

> <r_epik_Ionization_Penalty_Charging>
0.00035045

> <r_epik_Ionization_Penalty_Neutral>
3.31781e-05

> <r_epik_State_Penalty>
0.09125

> <r_epik_Charging_Adjusted_Penalty>
0.0916005

> <i_epik_Tot_Q>
0

> <i_epik_Tot_abs_Q>
0

> <r_epik_Metal_State_Penalty>
0.255229

> <b_epik_Metal_Only>
0

> <s_lp_Force_Field>
OPLS_2005

> <r_lp_Energy>
53.1602

> <b_lp_Chiralities_Consistent>
1

> <s_lp_Variant>
AV-unprocessed.smi:2124-1

> <Gold.Version>
5.8.1

> <Gold.Id.Protein>
6NUR|6NUR_protein|mol2

> <Gold.PLP.Fitness>
49.5821

> <Gold.PLP.PLP>
-43.0004

> <Gold.PLP.part.hbond>
-3.4870

> <Gold.PLP.part.metal>
0.0000

> <Gold.PLP.part.buried>
-7.2860

> <Gold.PLP.part.nonpolar>
-34.2845

> <Gold.PLP.part.repulsive>
0.9631

> <Gold.PLP.ligand.clash>
0.0000

> <Gold.PLP.ligand.torsion>
0.6029

> <Gold.PLP.Chemscore.Hbond>
2.5920

> <Gold.PLP.Chemscore.CHOScore>
0.0000

> <Gold.PLP.Chemscore.Metal>
0.0000

> <Gold.Chemscore.Hbonds>
donor molecule, donor type, donor heavy atom, donor atom, acceptor molecule, acceptor atom, score
      L1  H    10    32       P1  8028  0.99
      L1  H    22    23       P1  7957  1.00
      P1  H  8011  8017       L1    21  0.61

> <Gold.PLP.Chemscore.Internal.Correction>
0.0116

> <Gold.Rescore>
     Score         DG    S(hbond)    S(metal)    S(lipo)     H(rot)  DE(clash)    DE(int)     intcor
     20.63     -22.54       2.60        0.00     107.73       1.65       0.04       1.87       ----

> <Gold.Chemscore.Fitness>
20.6321

> <Gold.Chemscore.DG>
-22.5386

> <Gold.Chemscore.ZeroCoef>
-5.4800

> <Gold.Chemscore.Hbond>
2.6007

> <Gold.Chemscore.Metal>
0.0000

> <Gold.Chemscore.Lipo>
107.7331

> <Gold.Chemscore.Internal_Hbond>
0.0000

> <Gold.Chemscore.DEClash>
0.0393

> <Gold.Chemscore.DEInternal>
1.8672

> <Gold.Chemscore.Rot>
1.6534

> <Gold.Chemscore.Internal.Correction>
   9.000000E+99

> <Gold.Chemscore.Hbonds>
donor molecule, donor type, donor heavy atom, donor atom, acceptor molecule, acceptor atom, score
      L1  H    10    32       P1  8028  0.94
      L1  H    22    23       P1  7957  0.97
      P1  H  8011  8017       L1    21  0.59

> <Gold.Chemscore.Hbond.Weighted>
-8.6865

> <Gold.Chemscore.Metal.Weighted>
-0.0000

> <Gold.Chemscore.Lipo.Weighted>
-12.6048

> <Gold.Chemscore.Internal_Hbond.Weighted>
0.0000

> <Gold.Chemscore.DEClash.Weighted>
0.0393

> <Gold.Chemscore.DEInternal.Weighted>
1.8672

> <Gold.Chemscore.Rot.Weighted>
4.2326

> <Gold.Chemscore.Internal.Correction.Weighted>
   9.000000E+99

> <Gold.Protein.RotatedTorsions>
[ 6907 6896 6895 6894 ] final  118.38 input  -60.11 | X-H torsion
[ 7974 7965 7964 7962 ] final   87.12 input  175.53 | X-H torsion
[ 8008 7997 7996 7995 ] final  162.91 input   59.86 | X-H torsion
[ 10167 10162 10161 10158 ] final  161.68 input  -65.29 | X-H torsion
[ 10718 10713 10712 10709 ] final   98.43 input   66.30 | X-H torsion
[ 10763 10752 10751 10750 ] final  -95.92 input  -60.55 | X-H torsion
[ 11005 11000 10999 10996 ] final   39.19 input  -57.11 | X-H torsion

> <Gold.Protein.ActiveResidues>
 VAL166  LYS551  ARG553  GLY616  TRP617  ASP618  TYR619  PRO620  LYS621  CYS622 
 ASP623  PHE694  ASN695  SER759  ASP760  ASP761  ALA762  ILE779  LEU786  VAL792 
 PHE793  MET794  SER795  GLU796  ALA797  LYS798  CYS799  TRP800  GLU811  SER814 

> <Gold.Protein.RotatedAtoms>
  152.4547  133.7699  159.6792 H   0  0  0  0  0  0  0  0  0  0  0  0  # atno 6907 bound_to 6896
  150.8469  133.7837  159.3046 H   0  0  0  0  0  0  0  0  0  0  0  0  # atno 6908 bound_to 6896
  151.5445  135.1071  159.9986 H   0  0  0  0  0  0  0  0  0  0  0  0  # atno 6909 bound_to 6896
  145.5631  139.2306  143.2448 H   0  0  0  0  0  0  0  0  0  0  0  0  # atno 7974 bound_to 7965
  156.1997  140.1738  156.7926 H   0  0  0  0  0  0  0  0  0  0  0  0  # atno 8008 bound_to 7997
  154.5575  140.0706  156.8797 H   0  0  0  0  0  0  0  0  0  0  0  0  # atno 8009 bound_to 7997
  155.2911  140.3355  155.4255 H   0  0  0  0  0  0  0  0  0  0  0  0  # atno 8010 bound_to 7997
  139.4852  144.4513  151.8826 H   0  0  0  0  0  0  0  0  0  0  0  0  # atno 10167 bound_to 10162
  157.6895  131.0640  150.4796 H   0  0  0  0  0  0  0  0  0  0  0  0  # atno 10718 bound_to 10713
  154.7193  135.5102  153.8786 H   0  0  0  0  0  0  0  0  0  0  0  0  # atno 10763 bound_to 10752
  153.0848  135.6642  153.9980 H   0  0  0  0  0  0  0  0  0  0  0  0  # atno 10764 bound_to 10752
  153.9806  135.3029  155.3400 H   0  0  0  0  0  0  0  0  0  0  0  0  # atno 10765 bound_to 10752
  140.2052  134.3822  155.8076 H   0  0  0  0  0  0  0  0  0  0  0  0  # atno 11005 bound_to 11000
  146.1837  140.6456  142.9177 LP  0  0  0  0  0  0  0  0  0  0  0  0  # atno 17320 bound_to 7965
  144.7473  140.5101  143.6826 LP  0  0  0  0  0  0  0  0  0  0  0  0  # atno 17321 bound_to 7965
  140.3970  144.2542  150.5895 LP  0  0  0  0  0  0  0  0  0  0  0  0  # atno 17342 bound_to 10162
  140.5093  143.2295  151.8560 LP  0  0  0  0  0  0  0  0  0  0  0  0  # atno 17343 bound_to 10162
  156.5128  130.4143  149.6292 LP  0  0  0  0  0  0  0  0  0  0  0  0  # atno 17370 bound_to 10713
  156.3225  130.7288  151.2202 LP  0  0  0  0  0  0  0  0  0  0  0  0  # atno 17371 bound_to 10713
  141.2227  133.7114  156.8325 LP  0  0  0  0  0  0  0  0  0  0  0  0  # atno 17394 bound_to 11000
  140.2010  134.8897  157.3169 LP  0  0  0  0  0  0  0  0  0  0  0  0  # atno 17395 bound_to 11000

$$$$
