AV-unprocessed.smi:21|AV-procd|sdf|161|dock2
  -GOLD-   2262015393D 1   1.00000     0.00000
 Structure written by MMmdl.
 61 64  0  0  0  0  0  0  0  0  1 V2000
  143.4701  132.6853  150.9905 C   0  0  0  0  0  0  0  0  0  0  0  0
  143.9920  133.3893  152.1061 O   0  0  0  0  0  0  0  0  0  0  0  0
  145.2499  134.0000  151.8529 C   0  0  1  0  0  0  0  0  0  0  0  0
  145.7038  134.8888  153.0246 C   0  0  0  0  0  0  0  0  0  0  0  0
  147.1338  134.4196  153.3155 C   0  0  1  0  0  0  0  0  0  0  0  0
  147.6125  134.7512  154.7452 C   0  0  0  0  0  0  0  0  0  0  0  0
  148.9764  135.2805  154.7837 N   0  0  0  0  0  0  0  0  0  0  0  0
  150.0766  134.3184  154.8142 C   0  0  0  0  0  0  0  0  0  0  0  0
  149.1541  136.4580  155.4421 C   0  0  0  0  0  0  0  0  0  0  0  0
  148.2463  136.8418  156.3808 N   0  0  0  0  0  0  0  0  0  0  0  0
  148.3909  137.9967  157.0362 C   0  0  0  0  0  0  0  0  0  0  0  0
  149.3579  138.9070  156.9175 N   0  0  0  0  0  0  0  0  0  0  0  0
  150.2814  138.5264  155.9900 C   0  0  0  0  0  0  0  0  0  0  0  0
  150.2572  137.3325  155.2130 C   0  0  0  0  0  0  0  0  0  0  0  0
  151.3718  137.2947  154.3830 N   0  0  0  0  0  0  0  0  0  0  0  0
  152.0074  138.4040  154.6412 C   0  0  0  0  0  0  0  0  0  0  0  0
  151.4319  139.1946  155.6093 N   0  0  0  0  0  0  0  0  0  0  0  0
  151.9212  140.4746  156.0893 C   0  0  0  0  0  0  0  0  0  0  0  0
  151.2489  140.9754  157.3945 C   0  0  2  0  0  0  0  0  0  0  0  0
  149.8849  141.6176  157.0509 C   0  0  0  0  0  0  0  0  0  0  0  0
  150.0325  142.7317  156.1939 O   0  0  0  0  0  0  0  0  0  0  0  0
  152.1473  141.9049  158.2622 C   0  0  1  0  0  0  0  0  0  0  0  0
  151.4125  142.6550  159.3624 C   0  0  0  0  0  0  0  0  0  0  0  0
  152.5505  143.0720  160.2811 C   0  0  0  0  0  0  0  0  0  0  0  0
  153.4277  141.9570  160.2783 O   0  0  0  0  0  0  0  0  0  0  0  0
  153.2411  141.2021  159.0841 C   0  0  0  0  0  0  0  0  0  0  0  0
  147.1054  133.0011  153.0020 N   0  0  0  0  0  0  0  0  0  0  0  0
  148.4238  132.3956  152.8737 C   0  0  0  0  0  0  0  0  0  0  0  0
  146.3409  132.9235  151.7699 C   0  0  0  0  0  0  0  0  0  0  0  0
  145.2235  134.5578  150.9152 H   0  0  0  0  0  0  0  0  0  0  0  0
  147.7932  134.9088  152.5977 H   0  0  0  0  0  0  0  0  0  0  0  0
  142.5129  132.2382  151.2579 H   0  0  0  0  0  0  0  0  0  0  0  0
  144.1404  131.8816  150.6834 H   0  0  0  0  0  0  0  0  0  0  0  0
  143.3035  133.3455  150.1388 H   0  0  0  0  0  0  0  0  0  0  0  0
  145.6517  135.9524  152.7904 H   0  0  0  0  0  0  0  0  0  0  0  0
  145.0698  134.7063  153.8918 H   0  0  0  0  0  0  0  0  0  0  0  0
  146.9006  135.4252  155.2205 H   0  0  0  0  0  0  0  0  0  0  0  0
  147.6034  133.8459  155.3521 H   0  0  0  0  0  0  0  0  0  0  0  0
  151.0254  134.8041  154.5833 H   0  0  0  0  0  0  0  0  0  0  0  0
  149.9313  133.5275  154.0796 H   0  0  0  0  0  0  0  0  0  0  0  0
  150.1546  133.8540  155.7978 H   0  0  0  0  0  0  0  0  0  0  0  0
  147.6221  138.2228  157.7603 H   0  0  0  0  0  0  0  0  0  0  0  0
  152.9266  138.6692  154.1390 H   0  0  0  0  0  0  0  0  0  0  0  0
  153.0008  140.4012  156.2259 H   0  0  0  0  0  0  0  0  0  0  0  0
  151.7635  141.1981  155.2884 H   0  0  0  0  0  0  0  0  0  0  0  0
  151.0143  140.0994  158.0000 H   0  0  0  0  0  0  0  0  0  0  0  0
  149.2341  140.8897  156.5654 H   0  0  0  0  0  0  0  0  0  0  0  0
  149.3608  141.9340  157.9527 H   0  0  0  0  0  0  0  0  0  0  0  0
  149.3610  143.3628  156.4025 H   0  0  0  0  0  0  0  0  0  0  0  0
  152.6248  142.6447  157.6177 H   0  0  0  0  0  0  0  0  0  0  0  0
  150.8427  143.5092  158.9951 H   0  0  0  0  0  0  0  0  0  0  0  0
  150.7305  141.9888  159.8925 H   0  0  0  0  0  0  0  0  0  0  0  0
  153.0744  143.9377  159.8738 H   0  0  0  0  0  0  0  0  0  0  0  0
  152.2138  143.3172  161.2884 H   0  0  0  0  0  0  0  0  0  0  0  0
  152.9406  140.1932  159.3687 H   0  0  0  0  0  0  0  0  0  0  0  0
  154.1814  141.1336  158.5388 H   0  0  0  0  0  0  0  0  0  0  0  0
  148.3372  131.3506  152.5746 H   0  0  0  0  0  0  0  0  0  0  0  0
  148.9596  132.4216  153.8223 H   0  0  0  0  0  0  0  0  0  0  0  0
  149.0269  132.9131  152.1266 H   0  0  0  0  0  0  0  0  0  0  0  0
  145.9336  131.9234  151.6167 H   0  0  0  0  0  0  0  0  0  0  0  0
  146.9872  133.1454  150.9188 H   0  0  0  0  0  0  0  0  0  0  0  0
  1  2  1  0  0  0  0
  1 32  1  0  0  0  0
  1 33  1  0  0  0  0
  1 34  1  0  0  0  0
  2  3  1  0  0  0  0
  3 30  1  0  0  0  0
  3 29  1  0  0  0  0
  3  4  1  0  0  0  0
  4  5  1  0  0  0  0
  4 35  1  0  0  0  0
  4 36  1  0  0  0  0
  5 31  1  0  0  0  0
  5  6  1  0  0  0  0
  5 27  1  0  0  0  0
  6  7  1  0  0  0  0
  6 37  1  0  0  0  0
  6 38  1  0  0  0  0
  7  8  1  0  0  0  0
  7  9  1  0  0  0  0
  8 39  1  0  0  0  0
  8 40  1  0  0  0  0
  8 41  1  0  0  0  0
  9 14  1  0  0  0  0
  9 10  2  0  0  0  0
 10 11  1  0  0  0  0
 11 12  2  0  0  0  0
 11 42  1  0  0  0  0
 12 13  1  0  0  0  0
 13 17  1  0  0  0  0
 13 14  2  0  0  0  0
 14 15  1  0  0  0  0
 15 16  2  0  0  0  0
 16 17  1  0  0  0  0
 16 43  1  0  0  0  0
 17 18  1  0  0  0  0
 18 19  1  0  0  0  0
 18 44  1  0  0  0  0
 18 45  1  0  0  0  0
 19 20  1  0  0  0  0
 19 22  1  0  0  0  0
 19 46  1  0  0  0  0
 20 21  1  0  0  0  0
 20 47  1  0  0  0  0
 20 48  1  0  0  0  0
 21 49  1  0  0  0  0
 22 26  1  0  0  0  0
 22 23  1  0  0  0  0
 22 50  1  0  0  0  0
 23 24  1  0  0  0  0
 23 51  1  0  0  0  0
 23 52  1  0  0  0  0
 24 25  1  0  0  0  0
 24 53  1  0  0  0  0
 24 54  1  0  0  0  0
 25 26  1  0  0  0  0
 26 55  1  0  0  0  0
 26 56  1  0  0  0  0
 27 28  1  0  0  0  0
 27 29  1  0  0  0  0
 28 57  1  0  0  0  0
 28 58  1  0  0  0  0
 28 59  1  0  0  0  0
 29 60  1  0  0  0  0
 29 61  1  0  0  0  0
M  END
> <s_m_source_file>
AV-unprocessed.smi

> <i_m_source_file_index>
21

> <i_lp_mmshare_version>
43012

> <i_f3d_flags>
0

> <s_epik_input>
W0NIM11PW0NASF0xW0NIMl1bQ0BIXShOKFtDSDNdKVtDSDJdMSlbQ0gyXU4oW0NIM10pYyhuW2NIXW4yKWMoYzIzKW5bY0hdbjNbQ0gyXVtDQEhdKFtDSDJdW09IXSlbQ0BASF00W0NIMl1bQ0gyXU9bQ0gyXTQ=

> <s_epik_cmdline>
J2VwaWtfcHl0aG9uJywgJy1waCcsICc3LjAnLCAnLXRuJywgJzgnLCAnLW1hJywgJzIwMCcsICctbWV0YWxfYmluZGluZycsICctaW1hZScsICc8aW5maWxlLm1hZT4nLCAnLW9tYWUnLCAnPG91dGZpbGUubWFlPic=

> <r_lp_tautomer_probability>
1

> <r_epik_Ionization_Penalty>
2.17574

> <r_epik_Ionization_Penalty_Charging>
0

> <r_epik_Ionization_Penalty_Neutral>
2.17574

> <r_epik_State_Penalty>
2.31336

> <r_epik_Charging_Adjusted_Penalty>
2.31336

> <i_epik_Tot_Q>
0

> <i_epik_Tot_abs_Q>
0

> <r_epik_Metal_State_Penalty>
2.31025

> <b_epik_Metal_Only>
0

> <s_lp_Force_Field>
OPLS_2005

> <r_lp_Energy>
70.1796

> <b_lp_Chiralities_Consistent>
1

> <s_lp_Variant>
AV-unprocessed.smi:21-41

> <Gold.Version>
5.8.1

> <Gold.Id.Protein>
6NUR|6NUR_protein|mol2

> <Gold.PLP.Fitness>
43.4193

> <Gold.PLP.PLP>
-41.0817

> <Gold.PLP.part.hbond>
-1.9546

> <Gold.PLP.part.metal>
0.0000

> <Gold.PLP.part.buried>
-5.4914

> <Gold.PLP.part.nonpolar>
-33.8172

> <Gold.PLP.part.repulsive>
0.4225

> <Gold.PLP.ligand.clash>
0.0000

> <Gold.PLP.ligand.torsion>
2.2492

> <Gold.PLP.Chemscore.Hbond>
2.0000

> <Gold.PLP.Chemscore.CHOScore>
0.0000

> <Gold.PLP.Chemscore.Metal>
0.0000

> <Gold.Chemscore.Hbonds>
donor molecule, donor type, donor heavy atom, donor atom, acceptor molecule, acceptor atom, score
      L1  H    21    49       P1  8028  0.64
      P1  H 10752 10764       L1    15  0.23

> <Gold.PLP.Chemscore.Internal.Correction>
0.8361

> <Gold.Rescore>
     Score         DG    S(hbond)    S(metal)    S(lipo)     H(rot)  DE(clash)    DE(int)     intcor
     10.53     -15.14       1.73        0.00      98.99       3.00       0.03       4.58       ----

> <Gold.Chemscore.Fitness>
10.5314

> <Gold.Chemscore.DG>
-15.1427

> <Gold.Chemscore.ZeroCoef>
-5.4800

> <Gold.Chemscore.Hbond>
1.7274

> <Gold.Chemscore.Metal>
0.0000

> <Gold.Chemscore.Lipo>
98.9852

> <Gold.Chemscore.Internal_Hbond>
0.0000

> <Gold.Chemscore.DEClash>
0.0333

> <Gold.Chemscore.DEInternal>
4.5779

> <Gold.Chemscore.Rot>
3.0031

> <Gold.Chemscore.Internal.Correction>
   9.000000E+99

> <Gold.Chemscore.Hbonds>
donor molecule, donor type, donor heavy atom, donor atom, acceptor molecule, acceptor atom, score
      L1  H    21    49       P1  8028  0.63
      P1  H 10752 10764       L1    15  0.12

> <Gold.Chemscore.Hbond.Weighted>
-5.7694

> <Gold.Chemscore.Metal.Weighted>
-0.0000

> <Gold.Chemscore.Lipo.Weighted>
-11.5813

> <Gold.Chemscore.Internal_Hbond.Weighted>
0.0000

> <Gold.Chemscore.DEClash.Weighted>
0.0333

> <Gold.Chemscore.DEInternal.Weighted>
4.5779

> <Gold.Chemscore.Rot.Weighted>
7.6880

> <Gold.Chemscore.Internal.Correction.Weighted>
   9.000000E+99

> <Gold.Protein.RotatedTorsions>
[ 6907 6896 6895 6894 ] final -168.12 input  -60.11 | X-H torsion
[ 7974 7965 7964 7962 ] final -115.79 input  175.53 | X-H torsion
[ 8008 7997 7996 7995 ] final  153.25 input   59.86 | X-H torsion
[ 10167 10162 10161 10158 ] final -154.48 input  -65.29 | X-H torsion
[ 10718 10713 10712 10709 ] final  173.65 input   66.30 | X-H torsion
[ 10763 10752 10751 10750 ] final  -56.64 input  -60.55 | X-H torsion
[ 11005 11000 10999 10996 ] final   -5.37 input  -57.11 | X-H torsion

> <Gold.Protein.ActiveResidues>
 VAL166  LYS551  ARG553  GLY616  TRP617  ASP618  TYR619  PRO620  LYS621  CYS622 
 ASP623  PHE694  ASN695  SER759  ASP760  ASP761  ALA762  ILE779  LEU786  VAL792 
 PHE793  MET794  SER795  GLU796  ALA797  LYS798  CYS799  TRP800  GLU811  SER814 

> <Gold.Protein.RotatedAtoms>
  151.4705  133.3570  159.2822 H   0  0  0  0  0  0  0  0  0  0  0  0  # atno 6907 bound_to 6896
  150.8964  134.8374  159.7340 H   0  0  0  0  0  0  0  0  0  0  0  0  # atno 6908 bound_to 6896
  152.4853  134.4621  159.9660 H   0  0  0  0  0  0  0  0  0  0  0  0  # atno 6909 bound_to 6896
  145.1043  140.8572  143.3907 H   0  0  0  0  0  0  0  0  0  0  0  0  # atno 7974 bound_to 7965
  156.2590  140.1999  156.6461 H   0  0  0  0  0  0  0  0  0  0  0  0  # atno 8008 bound_to 7997
  154.6572  140.0565  157.0047 H   0  0  0  0  0  0  0  0  0  0  0  0  # atno 8009 bound_to 7997
  155.1329  140.3235  155.4472 H   0  0  0  0  0  0  0  0  0  0  0  0  # atno 8010 bound_to 7997
  139.7010  143.9264  152.2428 H   0  0  0  0  0  0  0  0  0  0  0  0  # atno 10167 bound_to 10162
  156.9611  131.0061  151.2927 H   0  0  0  0  0  0  0  0  0  0  0  0  # atno 10718 bound_to 10713
  154.2098  135.6396  153.5112 H   0  0  0  0  0  0  0  0  0  0  0  0  # atno 10763 bound_to 10752
  152.9992  135.5471  154.6227 H   0  0  0  0  0  0  0  0  0  0  0  0  # atno 10764 bound_to 10752
  154.5661  135.2913  155.0846 H   0  0  0  0  0  0  0  0  0  0  0  0  # atno 10765 bound_to 10752
  140.6904  133.9076  155.8614 H   0  0  0  0  0  0  0  0  0  0  0  0  # atno 11005 bound_to 11000
  145.0919  139.2884  143.5730 LP  0  0  0  0  0  0  0  0  0  0  0  0  # atno 17320 bound_to 7965
  146.3529  140.0459  142.8639 LP  0  0  0  0  0  0  0  0  0  0  0  0  # atno 17321 bound_to 7965
  139.9106  144.6858  150.8566 LP  0  0  0  0  0  0  0  0  0  0  0  0  # atno 17342 bound_to 10162
  140.7709  143.3446  151.2137 LP  0  0  0  0  0  0  0  0  0  0  0  0  # atno 17343 bound_to 10162
  157.5657  130.8276  149.8324 LP  0  0  0  0  0  0  0  0  0  0  0  0  # atno 17370 bound_to 10713
  156.0322  130.3761  150.1658 LP  0  0  0  0  0  0  0  0  0  0  0  0  # atno 17371 bound_to 10713
  141.0246  134.0841  157.4083 LP  0  0  0  0  0  0  0  0  0  0  0  0  # atno 17394 bound_to 11000
  139.8925  135.0125  156.6850 LP  0  0  0  0  0  0  0  0  0  0  0  0  # atno 17395 bound_to 11000

$$$$
