AV-unprocessed.smi:2601|AV-procd|sdf|10183|dock2
  -GOLD-   2272014193D 1   1.00000     0.00000
 Structure written by MMmdl.
 47 48  0  0  0  0  0  0  0  0  1 V2000
  151.2922  145.1748  159.5779 C   0  0  0  0  0  0  0  0  0  0  0  0
  151.8532  143.9567  160.1311 N   0  0  0  0  0  0  0  0  0  0  0  0
  152.3221  143.9668  161.3975 N   0  0  0  0  0  0  0  0  0  0  0  0
  152.7533  142.7352  161.6044 C   0  0  0  0  0  0  0  0  0  0  0  0
  152.5742  141.8970  160.4702 C   0  0  0  0  0  0  0  0  0  0  0  0
  151.9939  142.7130  159.5388 C   0  0  0  0  0  0  0  0  0  0  0  0
  151.5556  142.4138  158.1352 C   0  0  0  0  0  0  0  0  0  0  0  0
  151.9373  141.0061  157.6366 C   0  0  0  0  0  0  0  0  0  0  0  0
  150.8179  140.2960  157.0247 N   0  0  0  0  0  0  0  0  0  0  0  0
  150.7393  139.9231  155.7366 C   0  0  0  0  0  0  0  0  0  0  0  0
  151.6358  140.1645  154.9274 O   0  0  0  0  0  0  0  0  0  0  0  0
  149.6125  139.2416  155.4144 N   0  0  0  0  0  0  0  0  0  0  0  0
  149.0214  139.0727  154.0825 C   0  0  0  0  0  0  0  0  0  0  0  0
  147.6710  139.8224  154.0202 C   0  0  0  0  0  0  0  0  0  0  0  0
  147.8542  141.3510  153.9375 C   0  0  0  0  0  0  0  0  0  0  0  0
  146.8850  139.3620  152.7817 C   0  0  0  0  0  0  0  0  0  0  0  0
  146.8374  139.4569  155.1340 O   0  0  0  0  0  0  0  0  0  0  0  0
  147.3911  139.3319  156.4559 C   0  0  0  0  0  0  0  0  0  0  0  0
  147.4856  140.7046  157.1538 C   0  0  0  0  0  0  0  0  0  0  0  0
  146.3729  138.4710  157.2211 C   0  0  0  0  0  0  0  0  0  0  0  0
  148.7529  138.6011  156.4084 C   0  0  0  0  0  0  0  0  0  0  0  0
  150.2377  145.0201  159.3490 H   0  0  0  0  0  0  0  0  0  0  0  0
  151.8197  145.4417  158.6621 H   0  0  0  0  0  0  0  0  0  0  0  0
  151.3830  145.9987  160.2871 H   0  0  0  0  0  0  0  0  0  0  0  0
  153.1826  142.4872  162.5638 H   0  0  0  0  0  0  0  0  0  0  0  0
  152.8334  140.8549  160.3565 H   0  0  0  0  0  0  0  0  0  0  0  0
  150.4738  142.5308  158.0705 H   0  0  0  0  0  0  0  0  0  0  0  0
  151.9647  143.1520  157.4462 H   0  0  0  0  0  0  0  0  0  0  0  0
  152.7175  141.0898  156.8799 H   0  0  0  0  0  0  0  0  0  0  0  0
  152.3586  140.4141  158.4502 H   0  0  0  0  0  0  0  0  0  0  0  0
  150.0476  140.0543  157.6310 H   0  0  0  0  0  0  0  0  0  0  0  0
  149.6692  139.3966  153.2675 H   0  0  0  0  0  0  0  0  0  0  0  0
  148.8656  138.0067  153.9086 H   0  0  0  0  0  0  0  0  0  0  0  0
  148.2952  141.6376  152.9826 H   0  0  0  0  0  0  0  0  0  0  0  0
  148.5184  141.7400  154.7031 H   0  0  0  0  0  0  0  0  0  0  0  0
  146.8993  141.8696  154.0271 H   0  0  0  0  0  0  0  0  0  0  0  0
  147.4344  139.5674  151.8623 H   0  0  0  0  0  0  0  0  0  0  0  0
  145.9225  139.8702  152.7136 H   0  0  0  0  0  0  0  0  0  0  0  0
  146.6861  138.2903  152.8150 H   0  0  0  0  0  0  0  0  0  0  0  0
  147.6966  140.5844  158.2168 H   0  0  0  0  0  0  0  0  0  0  0  0
  146.5502  141.2574  157.0652 H   0  0  0  0  0  0  0  0  0  0  0  0
  148.2807  141.3294  156.7588 H   0  0  0  0  0  0  0  0  0  0  0  0
  146.6943  138.2921  158.2478 H   0  0  0  0  0  0  0  0  0  0  0  0
  146.2370  137.5001  156.7434 H   0  0  0  0  0  0  0  0  0  0  0  0
  145.3966  138.9553  157.2598 H   0  0  0  0  0  0  0  0  0  0  0  0
  148.6136  137.5552  156.1299 H   0  0  0  0  0  0  0  0  0  0  0  0
  149.2018  138.5775  157.4026 H   0  0  0  0  0  0  0  0  0  0  0  0
  1  2  1  0  0  0  0
  1 22  1  0  0  0  0
  1 23  1  0  0  0  0
  1 24  1  0  0  0  0
  2  6  1  0  0  0  0
  2  3  1  0  0  0  0
  3  4  2  0  0  0  0
  4  5  1  0  0  0  0
  4 25  1  0  0  0  0
  5  6  2  0  0  0  0
  5 26  1  0  0  0  0
  6  7  1  0  0  0  0
  7  8  1  0  0  0  0
  7 27  1  0  0  0  0
  7 28  1  0  0  0  0
  8  9  1  0  0  0  0
  8 29  1  0  0  0  0
  8 30  1  0  0  0  0
  9 10  1  0  0  0  0
  9 31  1  0  0  0  0
 10 11  2  0  0  0  0
 10 12  1  0  0  0  0
 12 21  1  0  0  0  0
 12 13  1  0  0  0  0
 13 14  1  0  0  0  0
 13 32  1  0  0  0  0
 13 33  1  0  0  0  0
 14 15  1  0  0  0  0
 14 16  1  0  0  0  0
 14 17  1  0  0  0  0
 15 34  1  0  0  0  0
 15 35  1  0  0  0  0
 15 36  1  0  0  0  0
 16 37  1  0  0  0  0
 16 38  1  0  0  0  0
 16 39  1  0  0  0  0
 17 18  1  0  0  0  0
 18 19  1  0  0  0  0
 18 20  1  0  0  0  0
 18 21  1  0  0  0  0
 19 40  1  0  0  0  0
 19 41  1  0  0  0  0
 19 42  1  0  0  0  0
 20 43  1  0  0  0  0
 20 44  1  0  0  0  0
 20 45  1  0  0  0  0
 21 46  1  0  0  0  0
 21 47  1  0  0  0  0
M  END
> <s_m_source_file>
AV-unprocessed.smi

> <i_m_source_file_index>
2601

> <i_lp_mmshare_version>
43012

> <i_f3d_flags>
0

> <s_epik_input>
W0NIM11uMW5bY0hdW2NIXWMxW0NIMl1bQ0gyXVtOSF1DKD1PKU4oW0NIMl1DMihbQ0gzXSlbQ0gzXSlbQ0gyXUMoTzIpKFtDSDNdKVtDSDNd

> <s_epik_cmdline>
J2VwaWtfcHl0aG9uJywgJy1waCcsICc3LjAnLCAnLXRuJywgJzgnLCAnLW1hJywgJzIwMCcsICctbWV0YWxfYmluZGluZycsICctaW1hZScsICc8aW5maWxlLm1hZT4nLCAnLW9tYWUnLCAnPG91dGZpbGUubWFlPic=

> <r_lp_tautomer_probability>
1

> <r_epik_Ionization_Penalty>
0.00250606

> <r_epik_Ionization_Penalty_Charging>
0

> <r_epik_Ionization_Penalty_Neutral>
0.00250606

> <r_epik_State_Penalty>
0.0017149

> <r_epik_Charging_Adjusted_Penalty>
0.0017149

> <i_epik_Tot_Q>
0

> <i_epik_Tot_abs_Q>
0

> <r_epik_Metal_State_Penalty>
-0

> <b_epik_Metal_Only>
0

> <s_lp_Force_Field>
OPLS_2005

> <r_lp_Energy>
30.5553

> <b_lp_Chiralities_Consistent>
1

> <s_lp_Variant>
AV-unprocessed.smi:2601-1

> <Gold.Version>
5.8.1

> <Gold.Id.Protein>
6NUR|6NUR_protein|mol2

> <Gold.PLP.Fitness>
39.0668

> <Gold.PLP.PLP>
-37.5002

> <Gold.PLP.part.hbond>
-0.9336

> <Gold.PLP.part.metal>
0.0000

> <Gold.PLP.part.buried>
-5.0849

> <Gold.PLP.part.nonpolar>
-31.7846

> <Gold.PLP.part.repulsive>
0.2831

> <Gold.PLP.ligand.clash>
0.3023

> <Gold.PLP.ligand.torsion>
0.5680

> <Gold.PLP.Chemscore.Hbond>
1.0000

> <Gold.PLP.Chemscore.CHOScore>
0.0000

> <Gold.PLP.Chemscore.Metal>
0.0000

> <Gold.Chemscore.Hbonds>
donor molecule, donor type, donor heavy atom, donor atom, acceptor molecule, acceptor atom, score
      P1  H  7989  7998       L1    11  1.00

> <Gold.PLP.Chemscore.Internal.Correction>
0.0049

> <Gold.Rescore>
     Score         DG    S(hbond)    S(metal)    S(lipo)     H(rot)  DE(clash)    DE(int)     intcor
     15.00     -15.59       0.97        0.00      87.73       1.33       0.04       0.55       ----

> <Gold.Chemscore.Fitness>
14.9964

> <Gold.Chemscore.DG>
-15.5855

> <Gold.Chemscore.ZeroCoef>
-5.4800

> <Gold.Chemscore.Hbond>
0.9721

> <Gold.Chemscore.Metal>
0.0000

> <Gold.Chemscore.Lipo>
87.7292

> <Gold.Chemscore.Internal_Hbond>
0.0000

> <Gold.Chemscore.DEClash>
0.0379

> <Gold.Chemscore.DEInternal>
0.5512

> <Gold.Chemscore.Rot>
1.3303

> <Gold.Chemscore.Internal.Correction>
   9.000000E+99

> <Gold.Chemscore.Hbonds>
donor molecule, donor type, donor heavy atom, donor atom, acceptor molecule, acceptor atom, score
      P1  H  7989  7998       L1    11  0.92

> <Gold.Chemscore.Hbond.Weighted>
-3.2467

> <Gold.Chemscore.Metal.Weighted>
-0.0000

> <Gold.Chemscore.Lipo.Weighted>
-10.2643

> <Gold.Chemscore.Internal_Hbond.Weighted>
0.0000

> <Gold.Chemscore.DEClash.Weighted>
0.0379

> <Gold.Chemscore.DEInternal.Weighted>
0.5512

> <Gold.Chemscore.Rot.Weighted>
3.4055

> <Gold.Chemscore.Internal.Correction.Weighted>
   9.000000E+99

> <Gold.Protein.RotatedTorsions>
[ 6907 6896 6895 6894 ] final   26.28 input  -60.11 | X-H torsion
[ 7974 7965 7964 7962 ] final   -1.97 input  175.53 | X-H torsion
[ 8008 7997 7996 7995 ] final -136.30 input   59.86 | X-H torsion
[ 10167 10162 10161 10158 ] final -134.47 input  -65.29 | X-H torsion
[ 10718 10713 10712 10709 ] final -118.64 input   66.30 | X-H torsion
[ 10763 10752 10751 10750 ] final   83.54 input  -60.55 | X-H torsion
[ 11005 11000 10999 10996 ] final  -95.26 input  -57.11 | X-H torsion

> <Gold.Protein.ActiveResidues>
 VAL166  LYS551  ARG553  GLY616  TRP617  ASP618  TYR619  PRO620  LYS621  CYS622 
 ASP623  PHE694  ASN695  SER759  ASP760  ASP761  ALA762  ILE779  LEU786  VAL792 
 PHE793  MET794  SER795  GLU796  ALA797  LYS798  CYS799  TRP800  GLU811  SER814 

> <Gold.Protein.RotatedAtoms>
  151.9851  135.0008  160.0558 H   0  0  0  0  0  0  0  0  0  0  0  0  # atno 6907 bound_to 6896
  152.1660  133.4608  159.4893 H   0  0  0  0  0  0  0  0  0  0  0  0  # atno 6908 bound_to 6896
  150.6894  134.1930  159.4335 H   0  0  0  0  0  0  0  0  0  0  0  0  # atno 6909 bound_to 6896
  146.2410  140.1501  142.8334 H   0  0  0  0  0  0  0  0  0  0  0  0  # atno 7974 bound_to 7965
  155.3930  140.0501  157.3040 H   0  0  0  0  0  0  0  0  0  0  0  0  # atno 8008 bound_to 7997
  154.5027  140.2163  155.9275 H   0  0  0  0  0  0  0  0  0  0  0  0  # atno 8009 bound_to 7997
  156.1487  140.3140  155.8618 H   0  0  0  0  0  0  0  0  0  0  0  0  # atno 8010 bound_to 7997
  139.8877  143.6761  152.2617 H   0  0  0  0  0  0  0  0  0  0  0  0  # atno 10167 bound_to 10162
  156.1121  130.6257  150.9316 H   0  0  0  0  0  0  0  0  0  0  0  0  # atno 10718 bound_to 10713
  153.1300  135.4687  154.9333 H   0  0  0  0  0  0  0  0  0  0  0  0  # atno 10763 bound_to 10752
  154.7655  135.3143  154.8296 H   0  0  0  0  0  0  0  0  0  0  0  0  # atno 10764 bound_to 10752
  153.8841  135.6891  153.4819 H   0  0  0  0  0  0  0  0  0  0  0  0  # atno 10765 bound_to 10752
  141.1447  133.8014  157.0411 H   0  0  0  0  0  0  0  0  0  0  0  0  # atno 11005 bound_to 11000
  145.0175  140.8766  143.5187 LP  0  0  0  0  0  0  0  0  0  0  0  0  # atno 17320 bound_to 7965
  145.1544  139.2495  143.5424 LP  0  0  0  0  0  0  0  0  0  0  0  0  # atno 17321 bound_to 7965
  139.7138  144.7615  151.1068 LP  0  0  0  0  0  0  0  0  0  0  0  0  # atno 17342 bound_to 10162
  140.7732  143.5296  150.9439 LP  0  0  0  0  0  0  0  0  0  0  0  0  # atno 17343 bound_to 10162
  157.6303  131.0922  150.8454 LP  0  0  0  0  0  0  0  0  0  0  0  0  # atno 17370 bound_to 10713
  156.8564  130.5098  149.5307 LP  0  0  0  0  0  0  0  0  0  0  0  0  # atno 17371 bound_to 10713
  140.0692  134.9712  157.1438 LP  0  0  0  0  0  0  0  0  0  0  0  0  # atno 17394 bound_to 11000
  140.3735  134.2364  155.7176 LP  0  0  0  0  0  0  0  0  0  0  0  0  # atno 17395 bound_to 11000

$$$$
