AV-unprocessed.smi:3309|AV-procd|sdf|12716|dock3
  -GOLD-   2272019 53D 1   1.00000     0.00000
 Structure written by MMmdl.
 41 42  0  0  0  0  0  0  0  0  2 V2000
  147.2637  138.7603  154.9635 O   0  0  0  0  0  0  0  0  0  0  0  0
  147.8711  138.8870  153.9002 C   0  0  0  0  0  0  0  0  0  0  0  0
  147.1134  139.1549  152.5961 C   0  0  0  0  0  0  0  0  0  0  0  0
  145.9987  138.1300  152.3229 C   0  0  0  0  0  0  0  0  0  0  0  0
  146.3705  137.2263  151.2167 N   0  3  0  0  0  0  0  0  0  0  0  0
  145.4122  136.1269  150.9922 C   0  0  0  0  0  0  0  0  0  0  0  0
  145.0780  135.4098  152.3085 C   0  0  0  0  0  0  0  0  0  0  0  0
  143.8189  135.8644  152.8661 N   0  0  0  0  0  0  0  0  0  0  0  0
  143.2126  137.0955  152.7292 C   0  0  0  0  0  0  0  0  0  0  0  0
  142.0395  137.0499  153.4267 C   0  0  0  0  0  0  0  0  0  0  0  0
  142.0137  135.7308  153.9598 C   0  0  0  0  0  0  0  0  0  0  0  0
  143.0797  135.0232  153.6209 N   0  0  0  0  0  0  0  0  0  0  0  0
  149.2060  138.7951  153.8004 N   0  0  0  0  0  0  0  0  0  0  0  0
  150.1174  138.5391  154.9132 C   0  0  0  0  0  0  0  0  0  0  0  0
  150.7363  139.8533  155.4273 C   0  0  0  0  0  0  0  0  0  0  0  0
  152.2414  139.6015  155.5331 C   0  0  0  0  0  0  0  0  0  0  0  0
  152.5268  138.5612  154.4549 C   0  0  0  0  0  0  0  0  0  0  0  0
  151.3004  137.6487  154.4822 C   0  0  0  0  0  0  0  0  0  0  0  0
  146.6853  140.1581  152.6348 H   0  0  0  0  0  0  0  0  0  0  0  0
  147.8328  139.1512  151.7761 H   0  0  0  0  0  0  0  0  0  0  0  0
  145.8058  137.5320  153.2150 H   0  0  0  0  0  0  0  0  0  0  0  0
  145.0694  138.6427  152.0689 H   0  0  0  0  0  0  0  0  0  0  0  0
  146.4424  137.7685  150.3676 H   0  0  0  0  0  0  0  0  0  0  0  0
  144.5040  136.5324  150.5440 H   0  0  0  0  0  0  0  0  0  0  0  0
  145.8371  135.4196  150.2785 H   0  0  0  0  0  0  0  0  0  0  0  0
  145.0192  134.3322  152.1504 H   0  0  0  0  0  0  0  0  0  0  0  0
  145.8632  135.5799  153.0470 H   0  0  0  0  0  0  0  0  0  0  0  0
  143.6597  137.8932  152.1541 H   0  0  0  0  0  0  0  0  0  0  0  0
  141.3095  137.8381  153.5380 H   0  0  0  0  0  0  0  0  0  0  0  0
  141.2572  135.2695  154.5775 H   0  0  0  0  0  0  0  0  0  0  0  0
  149.6249  138.9070  152.8884 H   0  0  0  0  0  0  0  0  0  0  0  0
  149.5750  138.0529  155.7264 H   0  0  0  0  0  0  0  0  0  0  0  0
  150.5632  140.6647  154.7184 H   0  0  0  0  0  0  0  0  0  0  0  0
  150.3084  140.1645  156.3809 H   0  0  0  0  0  0  0  0  0  0  0  0
  152.8294  140.5109  155.4061 H   0  0  0  0  0  0  0  0  0  0  0  0
  152.4772  139.1866  156.5143 H   0  0  0  0  0  0  0  0  0  0  0  0
  152.6007  139.0502  153.4826 H   0  0  0  0  0  0  0  0  0  0  0  0
  153.4572  138.0195  154.6280 H   0  0  0  0  0  0  0  0  0  0  0  0
  151.4512  136.8686  155.2297 H   0  0  0  0  0  0  0  0  0  0  0  0
  151.1446  137.1473  153.5258 H   0  0  0  0  0  0  0  0  0  0  0  0
  147.2743  136.8249  151.4226 H   0  0  0  0  0  0  0  0  0  0  0  0
  1  2  2  0  0  0  0
  2  3  1  0  0  0  0
  2 13  1  0  0  0  0
  3  4  1  0  0  0  0
  3 19  1  0  0  0  0
  3 20  1  0  0  0  0
  4  5  1  0  0  0  0
  4 21  1  0  0  0  0
  4 22  1  0  0  0  0
  5  6  1  0  0  0  0
  5 23  1  0  0  0  0
  5 41  1  0  0  0  0
  6  7  1  0  0  0  0
  6 24  1  0  0  0  0
  6 25  1  0  0  0  0
  7  8  1  0  0  0  0
  7 26  1  0  0  0  0
  7 27  1  0  0  0  0
  8 12  1  0  0  0  0
  8  9  1  0  0  0  0
  9 10  2  0  0  0  0
  9 28  1  0  0  0  0
 10 11  1  0  0  0  0
 10 29  1  0  0  0  0
 11 12  2  0  0  0  0
 11 30  1  0  0  0  0
 13 14  1  0  0  0  0
 13 31  1  0  0  0  0
 14 18  1  0  0  0  0
 14 15  1  0  0  0  0
 14 32  1  0  0  0  0
 15 16  1  0  0  0  0
 15 33  1  0  0  0  0
 15 34  1  0  0  0  0
 16 17  1  0  0  0  0
 16 35  1  0  0  0  0
 16 36  1  0  0  0  0
 17 18  1  0  0  0  0
 17 37  1  0  0  0  0
 17 38  1  0  0  0  0
 18 39  1  0  0  0  0
 18 40  1  0  0  0  0
M  CHG  1   5   1
M  END
> <s_m_source_file>
AV-unprocessed.smi

> <i_m_source_file_index>
3309

> <i_lp_mmshare_version>
43012

> <i_f3d_flags>
0

> <s_epik_input>
W0NIMl0xW0NIMl1bQ0gyXVtDSDJdW0NIXTFbTkhdQyg9TylbQ0gyXVtDSDJdW05IXVtDSDJdW0NIMl1uMltjSF1bY0hdW2NIXW4y

> <s_epik_cmdline>
J2VwaWtfcHl0aG9uJywgJy1waCcsICc3LjAnLCAnLXRuJywgJzgnLCAnLW1hJywgJzIwMCcsICctbWV0YWxfYmluZGluZycsICctaW1hZScsICc8aW5maWxlLm1hZT4nLCAnLW9tYWUnLCAnPG91dGZpbGUubWFlPic=

> <r_lp_tautomer_probability>
1

> <r_epik_Ionization_Penalty>
0.00584123

> <r_epik_Ionization_Penalty_Charging>
0.00583842

> <r_epik_Ionization_Penalty_Neutral>
2.81118e-06

> <r_epik_State_Penalty>
-0

> <r_epik_Charging_Adjusted_Penalty>
0.00583842

> <i_epik_Tot_Q>
1

> <i_epik_Tot_abs_Q>
1

> <r_epik_Metal_State_Penalty>
-0

> <b_epik_Metal_Only>
0

> <s_lp_Force_Field>
OPLS_2005

> <r_lp_Energy>
18.8454

> <b_lp_Chiralities_Consistent>
1

> <s_lp_Variant>
AV-unprocessed.smi:3309-1

> <Gold.Version>
5.8.1

> <Gold.Id.Protein>
6NUR|6NUR_protein|mol2

> <Gold.PLP.Fitness>
50.0984

> <Gold.PLP.PLP>
-35.1764

> <Gold.PLP.part.hbond>
-3.1840

> <Gold.PLP.part.metal>
0.0000

> <Gold.PLP.part.buried>
-3.2549

> <Gold.PLP.part.nonpolar>
-30.3168

> <Gold.PLP.part.repulsive>
0.3399

> <Gold.PLP.ligand.clash>
0.0120

> <Gold.PLP.ligand.torsion>
1.3883

> <Gold.PLP.Chemscore.Hbond>
2.9600

> <Gold.PLP.Chemscore.CHOScore>
2.8986

> <Gold.PLP.Chemscore.Metal>
0.0000

> <Gold.Chemscore.Hbonds>
donor molecule, donor type, donor heavy atom, donor atom, acceptor molecule, acceptor atom, score
      L1  H     5    41       P1  7948  2.00
      L1  H    13    31       P1  7957  0.86
      L1  C     9    28       P1 10171  1.00
      L1  C     9    28       P1 10175  0.94
      L1  C    11    30       P1 11000  0.99

> <Gold.PLP.Chemscore.Internal.Correction>
0.1346

> <Gold.Rescore>
     Score         DG    S(hbond)    S(metal)    S(lipo)     H(rot)  DE(clash)    DE(int)     intcor
     12.80     -14.91       1.80        0.00      78.68       2.27       0.80       1.31       ----

> <Gold.Chemscore.Fitness>
12.8022

> <Gold.Chemscore.DG>
-14.9069

> <Gold.Chemscore.ZeroCoef>
-5.4800

> <Gold.Chemscore.Hbond>
1.8029

> <Gold.Chemscore.Metal>
0.0000

> <Gold.Chemscore.Lipo>
78.6818

> <Gold.Chemscore.Internal_Hbond>
0.0000

> <Gold.Chemscore.DEClash>
0.7960

> <Gold.Chemscore.DEInternal>
1.3087

> <Gold.Chemscore.Rot>
2.2658

> <Gold.Chemscore.Internal.Correction>
   9.000000E+99

> <Gold.Chemscore.Hbonds>
donor molecule, donor type, donor heavy atom, donor atom, acceptor molecule, acceptor atom, score
      L1  H     5    41       P1  7948  1.00
      L1  H    13    31       P1  7957  0.73

> <Gold.Chemscore.Hbond.Weighted>
-6.0216

> <Gold.Chemscore.Metal.Weighted>
-0.0000

> <Gold.Chemscore.Lipo.Weighted>
-9.2058

> <Gold.Chemscore.Internal_Hbond.Weighted>
0.0000

> <Gold.Chemscore.DEClash.Weighted>
0.7960

> <Gold.Chemscore.DEInternal.Weighted>
1.3087

> <Gold.Chemscore.Rot.Weighted>
5.8005

> <Gold.Chemscore.Internal.Correction.Weighted>
   9.000000E+99

> <Gold.Protein.RotatedTorsions>
[ 6907 6896 6895 6894 ] final   84.01 input  -60.11 | X-H torsion
[ 7974 7965 7964 7962 ] final -113.91 input  175.53 | X-H torsion
[ 8008 7997 7996 7995 ] final -141.90 input   59.86 | X-H torsion
[ 10167 10162 10161 10158 ] final  114.36 input  -65.29 | X-H torsion
[ 10718 10713 10712 10709 ] final -156.52 input   66.30 | X-H torsion
[ 10763 10752 10751 10750 ] final  124.40 input  -60.55 | X-H torsion
[ 11005 11000 10999 10996 ] final -133.65 input  -57.11 | X-H torsion

> <Gold.Protein.ActiveResidues>
 VAL166  LYS551  ARG553  GLY616  TRP617  ASP618  TYR619  PRO620  LYS621  CYS622 
 ASP623  PHE694  ASN695  SER759  ASP760  ASP761  ALA762  ILE779  LEU786  VAL792 
 PHE793  MET794  SER795  GLU796  ALA797  LYS798  CYS799  TRP800  GLU811  SER814 

> <Gold.Protein.RotatedAtoms>
  152.5342  134.2807  159.9005 H   0  0  0  0  0  0  0  0  0  0  0  0  # atno 6907 bound_to 6896
  151.2761  133.4225  159.2632 H   0  0  0  0  0  0  0  0  0  0  0  0  # atno 6908 bound_to 6896
  151.0325  134.9564  159.8175 H   0  0  0  0  0  0  0  0  0  0  0  0  # atno 6909 bound_to 6896
  145.1264  140.8699  143.3783 H   0  0  0  0  0  0  0  0  0  0  0  0  # atno 7974 bound_to 7965
  155.4853  140.0563  157.2961 H   0  0  0  0  0  0  0  0  0  0  0  0  # atno 8008 bound_to 7997
  154.4644  140.2011  156.0109 H   0  0  0  0  0  0  0  0  0  0  0  0  # atno 8009 bound_to 7997
  156.0948  140.3228  155.7868 H   0  0  0  0  0  0  0  0  0  0  0  0  # atno 8010 bound_to 7997
  139.6394  144.7122  151.2267 H   0  0  0  0  0  0  0  0  0  0  0  0  # atno 10167 bound_to 10162
  156.5276  130.8506  151.2705 H   0  0  0  0  0  0  0  0  0  0  0  0  # atno 10718 bound_to 10713
  153.6607  135.3347  155.3126 H   0  0  0  0  0  0  0  0  0  0  0  0  # atno 10763 bound_to 10752
  154.8515  135.4363  154.1807 H   0  0  0  0  0  0  0  0  0  0  0  0  # atno 10764 bound_to 10752
  153.2773  135.7006  153.7496 H   0  0  0  0  0  0  0  0  0  0  0  0  # atno 10765 bound_to 10752
  140.9061  134.1628  157.4424 H   0  0  0  0  0  0  0  0  0  0  0  0  # atno 11005 bound_to 11000
  145.0683  139.3051  143.5845 LP  0  0  0  0  0  0  0  0  0  0  0  0  # atno 17320 bound_to 7965
  146.3517  140.0149  142.8663 LP  0  0  0  0  0  0  0  0  0  0  0  0  # atno 17321 bound_to 7965
  140.7483  143.6338  150.8398 LP  0  0  0  0  0  0  0  0  0  0  0  0  # atno 17342 bound_to 10162
  139.9974  143.5781  152.2888 LP  0  0  0  0  0  0  0  0  0  0  0  0  # atno 17343 bound_to 10162
  157.7427  130.9896  150.2535 LP  0  0  0  0  0  0  0  0  0  0  0  0  # atno 17370 bound_to 10713
  156.3090  130.3769  149.7679 LP  0  0  0  0  0  0  0  0  0  0  0  0  # atno 17371 bound_to 10713
  139.8749  134.9917  156.5563 LP  0  0  0  0  0  0  0  0  0  0  0  0  # atno 17394 bound_to 11000
  140.8169  133.8384  155.8860 LP  0  0  0  0  0  0  0  0  0  0  0  0  # atno 17395 bound_to 11000

$$$$
