AV-unprocessed.smi:845|AV-procd|sdf|3932|dock5
  -GOLD-   22720 1393D 1   1.00000     0.00000
 Structure written by MMmdl.
 42 43  0  0  0  0  0  0  0  0  3 V2000
  150.0322  139.2679  154.6221 C   0  0  0  0  0  0  0  0  0  0  0  0
  151.0908  140.0046  155.4673 C   0  0  0  0  0  0  0  0  0  0  0  0
  152.4514  139.3070  155.2770 C   0  0  0  0  0  0  0  0  0  0  0  0
  150.6671  140.1157  156.9610 C   0  0  1  0  0  0  0  0  0  0  0  0
  150.6670  138.7364  157.6857 C   0  0  0  0  0  0  0  0  0  0  0  0
  149.4883  138.4995  158.5123 N   0  0  0  0  0  0  0  0  0  0  0  0
  149.1133  137.3179  159.0215 C   0  0  0  0  0  0  0  0  0  0  0  0
  149.8044  136.3159  158.8251 O   0  0  0  0  0  0  0  0  0  0  0  0
  147.9494  137.3708  159.7060 N   0  5  0  0  0  0  0  0  0  0  0  0
  147.7097  136.4907  160.6914 C   0  0  0  0  0  0  0  0  0  0  0  0
  147.8096  136.8018  161.9885 N   0  0  0  0  0  0  0  0  0  0  0  0
  147.5071  135.7370  162.8390 C   0  0  0  0  0  0  0  0  0  0  0  0
  147.1618  134.5906  162.1733 C   0  0  0  0  0  0  0  0  0  0  0  0
  147.2067  134.8156  160.4478 S   0  0  0  0  0  0  0  0  0  0  0  0
  151.4917  141.1639  157.6417 N   0  3  0  0  0  0  0  0  0  0  0  0
  151.0076  142.5590  157.4966 C   0  0  0  0  0  0  0  0  0  0  0  0
  152.0756  143.5374  158.0112 C   0  0  0  0  0  0  0  0  0  0  0  0
  152.4002  143.2273  159.3621 O   0  0  0  0  0  0  0  0  0  0  0  0
  152.9366  141.9163  159.4998 C   0  0  0  0  0  0  0  0  0  0  0  0
  151.8980  140.8803  159.0404 C   0  0  0  0  0  0  0  0  0  0  0  0
  149.8570  138.2597  154.9992 H   0  0  0  0  0  0  0  0  0  0  0  0
  150.3506  139.1809  153.5828 H   0  0  0  0  0  0  0  0  0  0  0  0
  149.0764  139.7919  154.6139 H   0  0  0  0  0  0  0  0  0  0  0  0
  151.1901  141.0113  155.0600 H   0  0  0  0  0  0  0  0  0  0  0  0
  152.4653  138.3264  155.7541 H   0  0  0  0  0  0  0  0  0  0  0  0
  153.2724  139.8944  155.6868 H   0  0  0  0  0  0  0  0  0  0  0  0
  152.6743  139.1629  154.2194 H   0  0  0  0  0  0  0  0  0  0  0  0
  149.6371  140.4757  156.9518 H   0  0  0  0  0  0  0  0  0  0  0  0
  150.7308  137.9202  156.9663 H   0  0  0  0  0  0  0  0  0  0  0  0
  151.5484  138.6407  158.3198 H   0  0  0  0  0  0  0  0  0  0  0  0
  148.8972  139.2948  158.7062 H   0  0  0  0  0  0  0  0  0  0  0  0
  147.5623  135.8845  163.9072 H   0  0  0  0  0  0  0  0  0  0  0  0
  146.8850  133.6338  162.5893 H   0  0  0  0  0  0  0  0  0  0  0  0
  150.7863  142.7749  156.4507 H   0  0  0  0  0  0  0  0  0  0  0  0
  150.0883  142.7102  158.0594 H   0  0  0  0  0  0  0  0  0  0  0  0
  152.9726  143.4957  157.3912 H   0  0  0  0  0  0  0  0  0  0  0  0
  151.7020  144.5605  157.9630 H   0  0  0  0  0  0  0  0  0  0  0  0
  153.8584  141.8256  158.9227 H   0  0  0  0  0  0  0  0  0  0  0  0
  153.1971  141.7487  160.5449 H   0  0  0  0  0  0  0  0  0  0  0  0
  151.0330  140.9193  159.7031 H   0  0  0  0  0  0  0  0  0  0  0  0
  152.3194  139.8779  159.1162 H   0  0  0  0  0  0  0  0  0  0  0  0
  152.3537  141.1587  157.1159 H   0  0  0  0  0  0  0  0  0  0  0  0
  1  2  1  0  0  0  0
  1 21  1  0  0  0  0
  1 22  1  0  0  0  0
  1 23  1  0  0  0  0
  2  3  1  0  0  0  0
  2  4  1  0  0  0  0
  2 24  1  0  0  0  0
  3 25  1  0  0  0  0
  3 26  1  0  0  0  0
  3 27  1  0  0  0  0
  4  5  1  0  0  0  0
  4 15  1  0  0  0  0
  4 28  1  0  0  0  0
  5  6  1  0  0  0  0
  5 29  1  0  0  0  0
  5 30  1  0  0  0  0
  6  7  1  0  0  0  0
  6 31  1  0  0  0  0
  7  8  2  0  0  0  0
  7  9  1  0  0  0  0
  9 10  1  0  0  0  0
 10 14  1  0  0  0  0
 10 11  2  0  0  0  0
 11 12  1  0  0  0  0
 12 13  2  0  0  0  0
 12 32  1  0  0  0  0
 13 14  1  0  0  0  0
 13 33  1  0  0  0  0
 15 20  1  0  0  0  0
 15 16  1  0  0  0  0
 15 42  1  0  0  0  0
 16 17  1  0  0  0  0
 16 34  1  0  0  0  0
 16 35  1  0  0  0  0
 17 18  1  0  0  0  0
 17 36  1  0  0  0  0
 17 37  1  0  0  0  0
 18 19  1  0  0  0  0
 19 20  1  0  0  0  0
 19 38  1  0  0  0  0
 19 39  1  0  0  0  0
 20 40  1  0  0  0  0
 20 41  1  0  0  0  0
M  CHG  1   9  -1
M  CHG  1  15   1
M  END
> <s_m_source_file>
AV-unprocessed.smi

> <i_m_source_file_index>
845

> <i_lp_mmshare_version>
43012

> <i_f3d_flags>
0

> <s_epik_input>
W0NIMl0xW0NIMl1PW0NIMl1bQ0gyXU4xW0NASF0oW0NIXShbQ0gzXSlbQ0gzXSlbQ0gyXVtOSF1DKD1PKVtOSF1jMm5bY0hdW2NIXXMy

> <s_epik_cmdline>
J2VwaWtfcHl0aG9uJywgJy1waCcsICc3LjAnLCAnLXRuJywgJzgnLCAnLW1hJywgJzIwMCcsICctbWV0YWxfYmluZGluZycsICctaW1hZScsICc8aW5maWxlLm1hZT4nLCAnLW9tYWUnLCAnPG91dGZpbGUubWFlPic=

> <r_lp_tautomer_probability>
0.999

> <r_epik_Ionization_Penalty>
7.97104

> <r_epik_Ionization_Penalty_Charging>
6.58021

> <r_epik_Ionization_Penalty_Neutral>
1.39083

> <r_epik_State_Penalty>
6.69807

> <r_epik_Charging_Adjusted_Penalty>
13.2783

> <i_epik_Tot_Q>
0

> <i_epik_Tot_abs_Q>
2

> <r_epik_Metal_State_Penalty>
2.62985

> <b_epik_Metal_Only>
1

> <s_lp_Force_Field>
OPLS_2005

> <r_lp_Energy>
19.9677

> <b_lp_Chiralities_Consistent>
1

> <s_lp_Variant>
AV-unprocessed.smi:845-6

> <Gold.Version>
5.8.1

> <Gold.Id.Protein>
6NUR|6NUR_protein|mol2

> <Gold.PLP.Fitness>
45.0267

> <Gold.PLP.PLP>
-41.8344

> <Gold.PLP.part.hbond>
-4.1496

> <Gold.PLP.part.metal>
0.0000

> <Gold.PLP.part.buried>
-5.6857

> <Gold.PLP.part.nonpolar>
-33.3524

> <Gold.PLP.part.repulsive>
0.2698

> <Gold.PLP.ligand.clash>
0.0000

> <Gold.PLP.ligand.torsion>
2.6098

> <Gold.PLP.Chemscore.Hbond>
2.6706

> <Gold.PLP.Chemscore.CHOScore>
0.0000

> <Gold.PLP.Chemscore.Metal>
0.0000

> <Gold.Chemscore.Hbonds>
donor molecule, donor type, donor heavy atom, donor atom, acceptor molecule, acceptor atom, score
      P1  H  6896  6909       L1     8  1.00
      P1  H  6931  6943       L1    11  1.00
      P1  H  6934  6947       L1     9  0.50

> <Gold.PLP.Chemscore.Internal.Correction>
0.4000

> <Gold.Rescore>
     Score         DG    S(hbond)    S(metal)    S(lipo)     H(rot)  DE(clash)    DE(int)     intcor
     15.25     -18.17       1.84        0.00      94.48       1.76       0.07       2.85       ----

> <Gold.Chemscore.Fitness>
15.2517

> <Gold.Chemscore.DG>
-18.1693

> <Gold.Chemscore.ZeroCoef>
-5.4800

> <Gold.Chemscore.Hbond>
1.8403

> <Gold.Chemscore.Metal>
0.0000

> <Gold.Chemscore.Lipo>
94.4802

> <Gold.Chemscore.Internal_Hbond>
0.0000

> <Gold.Chemscore.DEClash>
0.0651

> <Gold.Chemscore.DEInternal>
2.8524

> <Gold.Chemscore.Rot>
1.7623

> <Gold.Chemscore.Internal.Correction>
   9.000000E+99

> <Gold.Chemscore.Hbonds>
donor molecule, donor type, donor heavy atom, donor atom, acceptor molecule, acceptor atom, score
      P1  H  6896  6909       L1     8  0.95
      P1  H  6931  6943       L1    11  0.30
      P1  H  6934  6947       L1     9  0.02

> <Gold.Chemscore.Hbond.Weighted>
-6.1466

> <Gold.Chemscore.Metal.Weighted>
-0.0000

> <Gold.Chemscore.Lipo.Weighted>
-11.0542

> <Gold.Chemscore.Internal_Hbond.Weighted>
0.0000

> <Gold.Chemscore.DEClash.Weighted>
0.0651

> <Gold.Chemscore.DEInternal.Weighted>
2.8524

> <Gold.Chemscore.Rot.Weighted>
4.5116

> <Gold.Chemscore.Internal.Correction.Weighted>
   9.000000E+99

> <Gold.Protein.RotatedTorsions>
[ 6907 6896 6895 6894 ] final   58.85 input  -60.11 | X-H torsion
[ 7974 7965 7964 7962 ] final -178.00 input  175.53 | X-H torsion
[ 8008 7997 7996 7995 ] final  175.65 input   59.86 | X-H torsion
[ 10167 10162 10161 10158 ] final -169.86 input  -65.29 | X-H torsion
[ 10718 10713 10712 10709 ] final  118.94 input   66.30 | X-H torsion
[ 10763 10752 10751 10750 ] final  -36.42 input  -60.55 | X-H torsion
[ 11005 11000 10999 10996 ] final -148.39 input  -57.11 | X-H torsion

> <Gold.Protein.ActiveResidues>
 VAL166  LYS551  ARG553  GLY616  TRP617  ASP618  TYR619  PRO620  LYS621  CYS622 
 ASP623  PHE694  ASN695  SER759  ASP760  ASP761  ALA762  ILE779  LEU786  VAL792 
 PHE793  MET794  SER795  GLU796  ALA797  LYS798  CYS799  TRP800  GLU811  SER814 

> <Gold.Protein.RotatedAtoms>
  152.3862  134.6513  160.0124 H   0  0  0  0  0  0  0  0  0  0  0  0  # atno 6907 bound_to 6896
  151.6761  133.3307  159.3216 H   0  0  0  0  0  0  0  0  0  0  0  0  # atno 6908 bound_to 6896
  150.7788  134.6757  159.6461 H   0  0  0  0  0  0  0  0  0  0  0  0  # atno 6909 bound_to 6896
  144.7129  140.0934  143.6420 H   0  0  0  0  0  0  0  0  0  0  0  0  # atno 7974 bound_to 7965
  156.0848  140.1403  156.9667 H   0  0  0  0  0  0  0  0  0  0  0  0  # atno 8008 bound_to 7997
  154.4606  140.0944  156.6930 H   0  0  0  0  0  0  0  0  0  0  0  0  # atno 8009 bound_to 7997
  155.5017  140.3451  155.4374 H   0  0  0  0  0  0  0  0  0  0  0  0  # atno 8010 bound_to 7997
  139.5896  144.1241  152.1618 H   0  0  0  0  0  0  0  0  0  0  0  0  # atno 10167 bound_to 10162
  157.5996  131.1053  150.7827 H   0  0  0  0  0  0  0  0  0  0  0  0  # atno 10718 bound_to 10713
  153.8794  135.6823  153.4768 H   0  0  0  0  0  0  0  0  0  0  0  0  # atno 10763 bound_to 10752
  153.1242  135.4726  154.9243 H   0  0  0  0  0  0  0  0  0  0  0  0  # atno 10764 bound_to 10752
  154.7676  135.3229  154.8206 H   0  0  0  0  0  0  0  0  0  0  0  0  # atno 10765 bound_to 10752
  140.7618  134.3290  157.5099 H   0  0  0  0  0  0  0  0  0  0  0  0  # atno 11005 bound_to 11000
  145.9600  139.2794  143.1161 LP  0  0  0  0  0  0  0  0  0  0  0  0  # atno 17320 bound_to 7965
  145.9230  140.9102  143.0395 LP  0  0  0  0  0  0  0  0  0  0  0  0  # atno 17321 bound_to 7965
  140.0813  144.5698  150.7120 LP  0  0  0  0  0  0  0  0  0  0  0  0  # atno 17342 bound_to 10162
  140.7162  143.2547  151.4427 LP  0  0  0  0  0  0  0  0  0  0  0  0  # atno 17343 bound_to 10162
  156.8229  130.4990  149.5341 LP  0  0  0  0  0  0  0  0  0  0  0  0  # atno 17370 bound_to 10713
  156.1066  130.6009  150.9980 LP  0  0  0  0  0  0  0  0  0  0  0  0  # atno 17371 bound_to 10713
  139.8769  134.9206  156.3256 LP  0  0  0  0  0  0  0  0  0  0  0  0  # atno 17394 bound_to 11000
  140.9656  133.7360  156.0462 LP  0  0  0  0  0  0  0  0  0  0  0  0  # atno 17395 bound_to 11000

$$$$
