AV-unprocessed.smi:3298|AV-procd|sdf|12646|dock1
  -GOLD-   2272018583D 1   1.00000     0.00000
 Structure written by MMmdl.
 36 37  0  0  0  0  0  0  0  0  2 V2000
  146.2196  143.0439  154.0949 C   0  0  0  0  0  0  0  0  0  0  0  0
  147.1639  141.8602  154.0974 C   0  0  0  0  0  0  0  0  0  0  0  0
  146.7969  140.6023  153.5722 C   0  0  0  0  0  0  0  0  0  0  0  0
  147.7316  139.5349  153.5992 C   0  0  0  0  0  0  0  0  0  0  0  0
  147.4710  138.2242  153.1099 N   0  0  0  0  0  0  0  0  0  0  0  0
  146.3181  137.5315  153.1017 C   0  0  0  0  0  0  0  0  0  0  0  0
  145.2375  137.9366  153.5287 O   0  0  0  0  0  0  0  0  0  0  0  0
  146.4849  136.3210  152.5495 N   0  0  0  0  0  0  0  0  0  0  0  0
  145.4351  135.3191  152.3899 C   0  0  2  0  0  0  0  0  0  0  0  0
  145.8770  133.9732  152.9002 C   0  0  0  0  0  0  0  0  0  0  0  0
  145.8648  133.0366  151.9547 C   0  0  0  0  0  0  0  0  0  0  0  0
  145.4355  133.5653  150.6109 C   0  0  1  0  0  0  0  0  0  0  0  0
  144.2550  132.7694  150.0290 C   0  0  0  0  0  0  0  0  0  0  0  0
  143.0921  132.9846  150.8004 O   0  0  0  0  0  0  0  0  0  0  0  0
  145.1118  135.0559  150.8982 C   0  0  0  0  0  0  0  0  0  0  0  0
  149.0012  139.7681  154.1733 C   0  0  0  0  0  0  0  0  0  0  0  0
  149.3122  141.0444  154.6840 C   0  0  0  0  0  0  0  0  0  0  0  0
  148.3948  142.0328  154.6266 N   0  3  0  0  0  0  0  0  0  0  0  0
  144.5307  135.6234  152.9200 H   0  0  0  0  0  0  0  0  0  0  0  0
  146.2941  133.4926  149.9420 H   0  0  0  0  0  0  0  0  0  0  0  0
  145.2625  142.7830  153.6421 H   0  0  0  0  0  0  0  0  0  0  0  0
  146.6486  143.8711  153.5286 H   0  0  0  0  0  0  0  0  0  0  0  0
  146.0323  143.3831  155.1141 H   0  0  0  0  0  0  0  0  0  0  0  0
  145.8036  140.4829  153.1693 H   0  0  0  0  0  0  0  0  0  0  0  0
  148.2573  137.7663  152.6725 H   0  0  0  0  0  0  0  0  0  0  0  0
  147.4050  136.0680  152.2201 H   0  0  0  0  0  0  0  0  0  0  0  0
  146.1568  133.8116  153.9309 H   0  0  0  0  0  0  0  0  0  0  0  0
  146.1436  132.0037  152.1026 H   0  0  0  0  0  0  0  0  0  0  0  0
  144.0522  133.0846  149.0050 H   0  0  0  0  0  0  0  0  0  0  0  0
  144.4785  131.7022  150.0004 H   0  0  0  0  0  0  0  0  0  0  0  0
  142.4448  133.4085  150.2575 H   0  0  0  0  0  0  0  0  0  0  0  0
  144.0594  135.2721  150.7086 H   0  0  0  0  0  0  0  0  0  0  0  0
  145.6850  135.7053  150.2347 H   0  0  0  0  0  0  0  0  0  0  0  0
  149.7365  138.9777  154.2208 H   0  0  0  0  0  0  0  0  0  0  0  0
  150.2599  141.3022  155.1339 H   0  0  0  0  0  0  0  0  0  0  0  0
  148.6402  142.9493  155.0020 H   0  0  0  0  0  0  0  0  0  0  0  0
  1  2  1  0  0  0  0
  1 21  1  0  0  0  0
  1 22  1  0  0  0  0
  1 23  1  0  0  0  0
  2 18  1  0  0  0  0
  2  3  2  0  0  0  0
  3  4  1  0  0  0  0
  3 24  1  0  0  0  0
  4  5  1  0  0  0  0
  4 16  2  0  0  0  0
  5  6  1  0  0  0  0
  5 25  1  0  0  0  0
  6  7  2  0  0  0  0
  6  8  1  0  0  0  0
  8  9  1  0  0  0  0
  8 26  1  0  0  0  0
  9 19  1  0  0  0  0
  9 15  1  0  0  0  0
  9 10  1  0  0  0  0
 10 11  2  0  0  0  0
 10 27  1  0  0  0  0
 11 12  1  0  0  0  0
 11 28  1  0  0  0  0
 12 20  1  0  0  0  0
 12 13  1  0  0  0  0
 12 15  1  0  0  0  0
 13 14  1  0  0  0  0
 13 29  1  0  0  0  0
 13 30  1  0  0  0  0
 14 31  1  0  0  0  0
 15 32  1  0  0  0  0
 15 33  1  0  0  0  0
 16 17  1  0  0  0  0
 16 34  1  0  0  0  0
 17 18  2  0  0  0  0
 17 35  1  0  0  0  0
 18 36  1  0  0  0  0
M  CHG  1  18   1
M  END
> <s_m_source_file>
AV-unprocessed.smi

> <i_m_source_file_index>
3298

> <i_lp_mmshare_version>
43012

> <i_f3d_flags>
0

> <s_epik_input>
W0NIM11jMVtjSF1jKFtjSF1bY0hdbjEpW05IXUMoPU8pW05IXVtDQEBIXTJbQ0hdPVtDSF1bQ0BASF0oW0NIMl0yKVtDSDJdW09IXQ==

> <s_epik_cmdline>
J2VwaWtfcHl0aG9uJywgJy1waCcsICc3LjAnLCAnLXRuJywgJzgnLCAnLW1hJywgJzIwMCcsICctbWV0YWxfYmluZGluZycsICctaW1hZScsICc8aW5maWxlLm1hZT4nLCAnLW9tYWUnLCAnPG91dGZpbGUubWFlPic=

> <r_epik_Ionization_Penalty>
0.443901

> <r_epik_Ionization_Penalty_Charging>
0.443881

> <r_epik_Ionization_Penalty_Neutral>
1.94967e-05

> <r_epik_State_Penalty>
0.446172

> <r_epik_Charging_Adjusted_Penalty>
0.890053

> <i_epik_Tot_Q>
1

> <i_epik_Tot_abs_Q>
1

> <r_epik_Metal_State_Penalty>
0.675842

> <b_epik_Metal_Only>
0

> <s_lp_Force_Field>
OPLS_2005

> <r_lp_Energy>
27.4169

> <b_lp_Chiralities_Consistent>
1

> <s_lp_Variant>
AV-unprocessed.smi:3298-7

> <Gold.Version>
5.8.1

> <Gold.Id.Protein>
6NUR|6NUR_protein|mol2

> <Gold.PLP.Fitness>
48.2235

> <Gold.PLP.PLP>
-33.9138

> <Gold.PLP.part.hbond>
-4.0000

> <Gold.PLP.part.metal>
0.0000

> <Gold.PLP.part.buried>
-3.8835

> <Gold.PLP.part.nonpolar>
-27.4654

> <Gold.PLP.part.repulsive>
0.5602

> <Gold.PLP.ligand.clash>
0.0000

> <Gold.PLP.ligand.torsion>
0.3414

> <Gold.PLP.Chemscore.Hbond>
4.9920

> <Gold.PLP.Chemscore.CHOScore>
0.0000

> <Gold.PLP.Chemscore.Metal>
0.0000

> <Gold.Chemscore.Hbonds>
donor molecule, donor type, donor heavy atom, donor atom, acceptor molecule, acceptor atom, score
      L1  H     5    25       P1  7948  0.99
      L1  H     8    26       P1  7948  1.00
      L1  H    14    31       P1 10186  1.00
      L1  H    18    36       P1  8028  2.00

> <Gold.PLP.Chemscore.Internal.Correction>
0.0165

> <Gold.Rescore>
     Score         DG    S(hbond)    S(metal)    S(lipo)     H(rot)  DE(clash)    DE(int)     intcor
     22.28     -22.65       3.94        0.00      73.83       1.81       0.02       0.35       ----

> <Gold.Chemscore.Fitness>
22.2781

> <Gold.Chemscore.DG>
-22.6482

> <Gold.Chemscore.ZeroCoef>
-5.4800

> <Gold.Chemscore.Hbond>
3.9381

> <Gold.Chemscore.Metal>
0.0000

> <Gold.Chemscore.Lipo>
73.8341

> <Gold.Chemscore.Internal_Hbond>
0.0000

> <Gold.Chemscore.DEClash>
0.0195

> <Gold.Chemscore.DEInternal>
0.3506

> <Gold.Chemscore.Rot>
1.8061

> <Gold.Chemscore.Internal.Correction>
   9.000000E+99

> <Gold.Chemscore.Hbonds>
donor molecule, donor type, donor heavy atom, donor atom, acceptor molecule, acceptor atom, score
      L1  H     5    25       P1  7948  0.93
      L1  H     8    26       P1  7948  0.97
      L1  H    14    31       P1 10186  1.00
      L1  H    18    36       P1  8028  1.00

> <Gold.Chemscore.Hbond.Weighted>
-13.1533

> <Gold.Chemscore.Metal.Weighted>
-0.0000

> <Gold.Chemscore.Lipo.Weighted>
-8.6386

> <Gold.Chemscore.Internal_Hbond.Weighted>
0.0000

> <Gold.Chemscore.DEClash.Weighted>
0.0195

> <Gold.Chemscore.DEInternal.Weighted>
0.3506

> <Gold.Chemscore.Rot.Weighted>
4.6237

> <Gold.Chemscore.Internal.Correction.Weighted>
   9.000000E+99

> <Gold.Protein.RotatedTorsions>
[ 6907 6896 6895 6894 ] final   94.19 input  -60.11 | X-H torsion
[ 7974 7965 7964 7962 ] final   -0.47 input  175.53 | X-H torsion
[ 8008 7997 7996 7995 ] final  -47.96 input   59.86 | X-H torsion
[ 10167 10162 10161 10158 ] final -144.13 input  -65.29 | X-H torsion
[ 10718 10713 10712 10709 ] final  -84.48 input   66.30 | X-H torsion
[ 10763 10752 10751 10750 ] final   92.24 input  -60.55 | X-H torsion
[ 11005 11000 10999 10996 ] final  175.43 input  -57.11 | X-H torsion

> <Gold.Protein.ActiveResidues>
 VAL166  LYS551  ARG553  GLY616  TRP617  ASP618  TYR619  PRO620  LYS621  CYS622 
 ASP623  PHE694  ASN695  SER759  ASP760  ASP761  ALA762  ILE779  LEU786  VAL792 
 PHE793  MET794  SER795  GLU796  ALA797  LYS798  CYS799  TRP800  GLU811  SER814 

> <Gold.Protein.RotatedAtoms>
  152.5450  134.1232  159.8407 H   0  0  0  0  0  0  0  0  0  0  0  0  # atno 6907 bound_to 6896
  151.1285  133.5046  159.2607 H   0  0  0  0  0  0  0  0  0  0  0  0  # atno 6908 bound_to 6896
  151.1701  135.0323  159.8802 H   0  0  0  0  0  0  0  0  0  0  0  0  # atno 6909 bound_to 6896
  146.2427  140.1274  142.8339 H   0  0  0  0  0  0  0  0  0  0  0  0  # atno 7974 bound_to 7965
  154.4023  140.1333  156.4261 H   0  0  0  0  0  0  0  0  0  0  0  0  # atno 8008 bound_to 7997
  155.7596  140.3486  155.5171 H   0  0  0  0  0  0  0  0  0  0  0  0  # atno 8009 bound_to 7997
  155.8872  140.0997  157.1434 H   0  0  0  0  0  0  0  0  0  0  0  0  # atno 8010 bound_to 7997
  139.7928  143.7942  152.2651 H   0  0  0  0  0  0  0  0  0  0  0  0  # atno 10167 bound_to 10162
  156.0006  130.4699  150.4416 H   0  0  0  0  0  0  0  0  0  0  0  0  # atno 10718 bound_to 10713
  153.2170  135.4368  155.0446 H   0  0  0  0  0  0  0  0  0  0  0  0  # atno 10763 bound_to 10752
  154.8230  135.3347  154.6983 H   0  0  0  0  0  0  0  0  0  0  0  0  # atno 10764 bound_to 10752
  153.7418  135.7004  153.5021 H   0  0  0  0  0  0  0  0  0  0  0  0  # atno 10765 bound_to 10752
  140.3621  134.7103  157.4338 H   0  0  0  0  0  0  0  0  0  0  0  0  # atno 11005 bound_to 11000
  145.0355  140.8904  143.5084 LP  0  0  0  0  0  0  0  0  0  0  0  0  # atno 17320 bound_to 7965
  145.1345  139.2610  143.5522 LP  0  0  0  0  0  0  0  0  0  0  0  0  # atno 17321 bound_to 7965
  139.8039  144.7363  150.9788 LP  0  0  0  0  0  0  0  0  0  0  0  0  # atno 17342 bound_to 10162
  140.7820  143.4318  151.0684 LP  0  0  0  0  0  0  0  0  0  0  0  0  # atno 17343 bound_to 10162
  157.2457  131.0535  151.2410 LP  0  0  0  0  0  0  0  0  0  0  0  0  # atno 17370 bound_to 10713
  157.3577  130.7115  149.6482 LP  0  0  0  0  0  0  0  0  0  0  0  0  # atno 17371 bound_to 10713
  140.0618  134.5985  155.8740 LP  0  0  0  0  0  0  0  0  0  0  0  0  # atno 17394 bound_to 11000
  141.1981  133.6599  156.5774 LP  0  0  0  0  0  0  0  0  0  0  0  0  # atno 17395 bound_to 11000

$$$$
