AV-unprocessed.smi:2445|AV-procd|sdf|9634|dock5
  -GOLD-   2272013263D 1   1.00000     0.00000
 Structure written by MMmdl.
 40 41  0  0  0  0  0  0  0  0  1 V2000
  144.6094  145.4661  153.0926 C   0  0  0  0  0  0  0  0  0  0  0  0
  145.2295  144.2874  153.7630 C   0  0  0  0  0  0  0  0  0  0  0  0
  145.0332  143.8537  155.0506 C   0  0  0  0  0  0  0  0  0  0  0  0
  145.7658  142.7110  155.3789 N   0  0  0  0  0  0  0  0  0  0  0  0
  146.5132  142.2723  154.3618 C   0  0  0  0  0  0  0  0  0  0  0  0
  147.3950  141.0655  154.4369 C   0  0  1  0  0  0  0  0  0  0  0  0
  146.8769  139.9289  153.5386 C   0  0  0  0  0  0  0  0  0  0  0  0
  148.8771  141.4322  154.2053 C   0  0  0  0  0  0  0  0  0  0  0  0
  149.4205  142.2831  155.2591 N   0  0  0  0  0  0  0  0  0  0  0  0
  150.4502  141.9599  156.0530 C   0  0  0  0  0  0  0  0  0  0  0  0
  151.0553  140.8893  155.9964 O   0  0  0  0  0  0  0  0  0  0  0  0
  150.7475  142.9489  156.9064 N   0  0  0  0  0  0  0  0  0  0  0  0
  151.8401  142.9204  157.8736 C   0  0  2  0  0  0  0  0  0  0  0  0
  151.7460  141.7167  158.7881 C   0  0  0  0  0  0  0  0  0  0  0  0
  152.5244  142.1795  160.0165 C   0  0  0  0  0  0  0  0  0  0  0  0
  152.4083  143.5989  160.0524 O   0  0  0  0  0  0  0  0  0  0  0  0
  151.7508  144.0725  158.8816 C   0  0  1  0  0  0  0  0  0  0  0  0
  152.3900  145.3841  158.4097 C   0  0  0  0  0  0  0  0  0  0  0  0
  146.3540  143.2600  152.9134 S   0  0  0  0  0  0  0  0  0  0  0  0
  143.9369  145.9946  153.7690 H   0  0  0  0  0  0  0  0  0  0  0  0
  144.0342  145.1561  152.2200 H   0  0  0  0  0  0  0  0  0  0  0  0
  145.3744  146.1688  152.7617 H   0  0  0  0  0  0  0  0  0  0  0  0
  144.3921  144.2959  155.7988 H   0  0  0  0  0  0  0  0  0  0  0  0
  147.3153  140.7020  155.4623 H   0  0  0  0  0  0  0  0  0  0  0  0
  145.8410  139.6859  153.7765 H   0  0  0  0  0  0  0  0  0  0  0  0
  147.4609  139.0174  153.6665 H   0  0  0  0  0  0  0  0  0  0  0  0
  146.9202  140.2065  152.4850 H   0  0  0  0  0  0  0  0  0  0  0  0
  149.4827  140.5265  154.1626 H   0  0  0  0  0  0  0  0  0  0  0  0
  148.9974  141.9276  153.2401 H   0  0  0  0  0  0  0  0  0  0  0  0
  148.9883  143.1871  155.3819 H   0  0  0  0  0  0  0  0  0  0  0  0
  150.1903  143.7902  156.8737 H   0  0  0  0  0  0  0  0  0  0  0  0
  152.8148  142.9165  157.3811 H   0  0  0  0  0  0  0  0  0  0  0  0
  150.7076  141.5256  159.0643 H   0  0  0  0  0  0  0  0  0  0  0  0
  152.1529  140.8074  158.3451 H   0  0  0  0  0  0  0  0  0  0  0  0
  152.1527  141.7267  160.9358 H   0  0  0  0  0  0  0  0  0  0  0  0
  153.5798  141.9233  159.9169 H   0  0  0  0  0  0  0  0  0  0  0  0
  150.7072  144.2478  159.1489 H   0  0  0  0  0  0  0  0  0  0  0  0
  151.8829  145.7747  157.5275 H   0  0  0  0  0  0  0  0  0  0  0  0
  153.4410  145.2427  158.1576 H   0  0  0  0  0  0  0  0  0  0  0  0
  152.3328  146.1455  159.1877 H   0  0  0  0  0  0  0  0  0  0  0  0
  1  2  1  0  0  0  0
  1 20  1  0  0  0  0
  1 21  1  0  0  0  0
  1 22  1  0  0  0  0
  2 19  1  0  0  0  0
  2  3  2  0  0  0  0
  3  4  1  0  0  0  0
  3 23  1  0  0  0  0
  4  5  2  0  0  0  0
  5  6  1  0  0  0  0
  5 19  1  0  0  0  0
  6  7  1  0  0  0  0
  6  8  1  0  0  0  0
  6 24  1  0  0  0  0
  7 25  1  0  0  0  0
  7 26  1  0  0  0  0
  7 27  1  0  0  0  0
  8  9  1  0  0  0  0
  8 28  1  0  0  0  0
  8 29  1  0  0  0  0
  9 10  1  0  0  0  0
  9 30  1  0  0  0  0
 10 11  2  0  0  0  0
 10 12  1  0  0  0  0
 12 13  1  0  0  0  0
 12 31  1  0  0  0  0
 13 17  1  0  0  0  0
 13 14  1  0  0  0  0
 13 32  1  0  0  0  0
 14 15  1  0  0  0  0
 14 33  1  0  0  0  0
 14 34  1  0  0  0  0
 15 16  1  0  0  0  0
 15 35  1  0  0  0  0
 15 36  1  0  0  0  0
 16 17  1  0  0  0  0
 17 18  1  0  0  0  0
 17 37  1  0  0  0  0
 18 38  1  0  0  0  0
 18 39  1  0  0  0  0
 18 40  1  0  0  0  0
M  END
> <s_m_source_file>
AV-unprocessed.smi

> <i_m_source_file_index>
2445

> <i_lp_mmshare_version>
43012

> <i_f3d_flags>
0

> <s_epik_input>
W0NIM11jMVtjSF1uYyhzMSlbQ0BIXShbQ0gzXSlbQ0gyXVtOSF1DKD1PKVtOSF1bQ0BASF0yW0NIMl1bQ0gyXU9bQ0BIXTJbQ0gzXQ==

> <s_epik_cmdline>
J2VwaWtfcHl0aG9uJywgJy1waCcsICc3LjAnLCAnLXRuJywgJzgnLCAnLW1hJywgJzIwMCcsICctbWV0YWxfYmluZGluZycsICctaW1hZScsICc8aW5maWxlLm1hZT4nLCAnLW9tYWUnLCAnPG91dGZpbGUubWFlPic=

> <r_epik_Ionization_Penalty>
0.000649483

> <r_epik_Ionization_Penalty_Charging>
0

> <r_epik_Ionization_Penalty_Neutral>
0.000649483

> <r_epik_State_Penalty>
0.000379895

> <r_epik_Charging_Adjusted_Penalty>
0.000379895

> <i_epik_Tot_Q>
0

> <i_epik_Tot_abs_Q>
0

> <r_epik_Metal_State_Penalty>
-0

> <b_epik_Metal_Only>
0

> <s_lp_Force_Field>
OPLS_2005

> <r_lp_Energy>
5.33919

> <b_lp_Chiralities_Consistent>
1

> <s_lp_Variant>
AV-unprocessed.smi:2445-2

> <Gold.Version>
5.8.1

> <Gold.Id.Protein>
6NUR|6NUR_protein|mol2

> <Gold.PLP.Fitness>
45.9403

> <Gold.PLP.PLP>
-41.4736

> <Gold.PLP.part.hbond>
-1.9640

> <Gold.PLP.part.metal>
0.0000

> <Gold.PLP.part.buried>
-7.3201

> <Gold.PLP.part.nonpolar>
-31.6650

> <Gold.PLP.part.repulsive>
0.4082

> <Gold.PLP.ligand.clash>
0.0000

> <Gold.PLP.ligand.torsion>
0.1741

> <Gold.PLP.Chemscore.Hbond>
1.5606

> <Gold.PLP.Chemscore.CHOScore>
0.0000

> <Gold.PLP.Chemscore.Metal>
0.0000

> <Gold.Chemscore.Hbonds>
donor molecule, donor type, donor heavy atom, donor atom, acceptor molecule, acceptor atom, score
      L1  H     9    30       P1  8028  1.00
      L1  H    12    31       P1  8028  0.82

> <Gold.PLP.Chemscore.Internal.Correction>
0.1332

> <Gold.Rescore>
     Score         DG    S(hbond)    S(metal)    S(lipo)     H(rot)  DE(clash)    DE(int)     intcor
     18.53     -21.71       2.20        0.00     109.54       1.53       2.94       0.24       ----

> <Gold.Chemscore.Fitness>
18.5332

> <Gold.Chemscore.DG>
-21.7126

> <Gold.Chemscore.ZeroCoef>
-5.4800

> <Gold.Chemscore.Hbond>
2.1977

> <Gold.Chemscore.Metal>
0.0000

> <Gold.Chemscore.Lipo>
109.5368

> <Gold.Chemscore.Internal_Hbond>
0.0000

> <Gold.Chemscore.DEClash>
2.9440

> <Gold.Chemscore.DEInternal>
0.2355

> <Gold.Chemscore.Rot>
1.5325

> <Gold.Chemscore.Internal.Correction>
   9.000000E+99

> <Gold.Chemscore.Hbonds>
donor molecule, donor type, donor heavy atom, donor atom, acceptor molecule, acceptor atom, score
      L1  H     9    30       P1  8028  0.95
      L1  H    12    31       P1  8028  0.78

> <Gold.Chemscore.Hbond.Weighted>
-7.3402

> <Gold.Chemscore.Metal.Weighted>
-0.0000

> <Gold.Chemscore.Lipo.Weighted>
-12.8158

> <Gold.Chemscore.Internal_Hbond.Weighted>
0.0000

> <Gold.Chemscore.DEClash.Weighted>
2.9440

> <Gold.Chemscore.DEInternal.Weighted>
0.2355

> <Gold.Chemscore.Rot.Weighted>
3.9233

> <Gold.Chemscore.Internal.Correction.Weighted>
   9.000000E+99

> <Gold.Protein.RotatedTorsions>
[ 6907 6896 6895 6894 ] final -171.43 input  -60.11 | X-H torsion
[ 7974 7965 7964 7962 ] final   45.31 input  175.53 | X-H torsion
[ 8008 7997 7996 7995 ] final  124.98 input   59.86 | X-H torsion
[ 10167 10162 10161 10158 ] final  165.47 input  -65.29 | X-H torsion
[ 10718 10713 10712 10709 ] final -177.17 input   66.30 | X-H torsion
[ 10763 10752 10751 10750 ] final  152.58 input  -60.55 | X-H torsion
[ 11005 11000 10999 10996 ] final -146.54 input  -57.11 | X-H torsion

> <Gold.Protein.ActiveResidues>
 VAL166  LYS551  ARG553  GLY616  TRP617  ASP618  TYR619  PRO620  LYS621  CYS622 
 ASP623  PHE694  ASN695  SER759  ASP760  ASP761  ALA762  ILE779  LEU786  VAL792 
 PHE793  MET794  SER795  GLU796  ALA797  LYS798  CYS799  TRP800  GLU811  SER814 

> <Gold.Protein.RotatedAtoms>
  151.5237  133.3462  159.2905 H   0  0  0  0  0  0  0  0  0  0  0  0  # atno 6907 bound_to 6896
  150.8636  134.7997  159.7113 H   0  0  0  0  0  0  0  0  0  0  0  0  # atno 6908 bound_to 6896
  152.4648  134.5110  159.9805 H   0  0  0  0  0  0  0  0  0  0  0  0  # atno 6909 bound_to 6896
  146.0491  139.4978  142.9729 H   0  0  0  0  0  0  0  0  0  0  0  0  # atno 7974 bound_to 7965
  156.2819  140.2727  156.1875 H   0  0  0  0  0  0  0  0  0  0  0  0  # atno 8008 bound_to 7997
  155.0492  140.0386  157.2555 H   0  0  0  0  0  0  0  0  0  0  0  0  # atno 8009 bound_to 7997
  154.7209  140.2687  155.6548 H   0  0  0  0  0  0  0  0  0  0  0  0  # atno 8010 bound_to 7997
  139.4906  144.4128  151.9279 H   0  0  0  0  0  0  0  0  0  0  0  0  # atno 10167 bound_to 10162
  156.8255  130.9635  151.3109 H   0  0  0  0  0  0  0  0  0  0  0  0  # atno 10718 bound_to 10713
  154.1224  135.2832  155.3205 H   0  0  0  0  0  0  0  0  0  0  0  0  # atno 10763 bound_to 10752
  154.6414  135.5401  153.7797 H   0  0  0  0  0  0  0  0  0  0  0  0  # atno 10764 bound_to 10752
  153.0308  135.6487  154.1377 H   0  0  0  0  0  0  0  0  0  0  0  0  # atno 10765 bound_to 10752
  140.7809  134.3080  157.5046 H   0  0  0  0  0  0  0  0  0  0  0  0  # atno 11005 bound_to 11000
  145.6754  141.0205  143.1635 LP  0  0  0  0  0  0  0  0  0  0  0  0  # atno 17320 bound_to 7965
  144.7113  139.8359  143.7413 LP  0  0  0  0  0  0  0  0  0  0  0  0  # atno 17321 bound_to 7965
  140.3570  144.3020  150.5939 LP  0  0  0  0  0  0  0  0  0  0  0  0  # atno 17342 bound_to 10162
  140.5436  143.2219  151.8044 LP  0  0  0  0  0  0  0  0  0  0  0  0  # atno 17343 bound_to 10162
  157.6434  130.8824  149.9492 LP  0  0  0  0  0  0  0  0  0  0  0  0  # atno 17370 bound_to 10713
  156.0964  130.3659  150.0298 LP  0  0  0  0  0  0  0  0  0  0  0  0  # atno 17371 bound_to 10713
  139.8743  134.9317  156.3536 LP  0  0  0  0  0  0  0  0  0  0  0  0  # atno 17394 bound_to 11000
  140.9483  133.7468  156.0238 LP  0  0  0  0  0  0  0  0  0  0  0  0  # atno 17395 bound_to 11000

$$$$
