AV-unprocessed.smi:1209|AV-procd|sdf|5074|dock4
  -GOLD-   22720 4123D 1   1.00000     0.00000
 Structure written by MMmdl.
 49 51  0  0  0  0  0  0  0  0  2 V2000
  147.3473  135.6473  162.6844 C   0  0  0  0  0  0  0  0  0  0  0  0
  147.7758  135.7961  161.2648 C   0  0  0  0  0  0  0  0  0  0  0  0
  148.0059  134.8985  160.2612 C   0  0  0  0  0  0  0  0  0  0  0  0
  148.3894  135.7150  159.1619 C   0  0  0  0  0  0  0  0  0  0  0  0
  148.7664  135.2860  157.7707 C   0  0  0  0  0  0  0  0  0  0  0  0
  149.1632  136.4467  156.9320 N   0  3  2  0  0  0  0  0  0  0  0  0
  148.1129  136.8333  155.9601 C   0  0  0  0  0  0  0  0  0  0  0  0
  150.4855  136.2694  156.2788 C   0  0  0  0  0  0  0  0  0  0  0  0
  151.0205  137.5829  155.6750 C   0  0  2  0  0  0  0  0  0  0  0  0
  151.9411  137.2697  154.6478 O   0  0  0  0  0  0  0  0  0  0  0  0
  151.7186  138.4587  156.7327 C   0  0  0  0  0  0  0  0  0  0  0  0
  151.3082  139.8489  156.6533 N   0  0  0  0  0  0  0  0  0  0  0  0
  150.5230  140.4172  155.7179 C   0  0  0  0  0  0  0  0  0  0  0  0
  150.2688  141.7164  155.8450 N   0  0  0  0  0  0  0  0  0  0  0  0
  150.9782  142.0298  156.9918 C   0  0  0  0  0  0  0  0  0  0  0  0
  151.1244  143.2571  157.6744 C   0  0  0  0  0  0  0  0  0  0  0  0
  151.9082  143.3451  158.8472 C   0  0  0  0  0  0  0  0  0  0  0  0
  152.0352  144.6843  159.5514 C   0  0  0  0  0  0  0  0  0  0  0  0
  152.5640  142.1935  159.3522 C   0  0  0  0  0  0  0  0  0  0  0  0
  153.4121  142.2645  160.6095 C   0  0  0  0  0  0  0  0  0  0  0  0
  152.4293  140.9599  158.6820 C   0  0  0  0  0  0  0  0  0  0  0  0
  151.6430  140.8843  157.5189 C   0  0  0  0  0  0  0  0  0  0  0  0
  148.3840  136.9993  159.4789 N   0  0  0  0  0  0  0  0  0  0  0  0
  147.9951  137.0606  160.8216 O   0  0  0  0  0  0  0  0  0  0  0  0
  147.4298  134.6101  163.0098 H   0  0  0  0  0  0  0  0  0  0  0  0
  146.3105  135.9600  162.8088 H   0  0  0  0  0  0  0  0  0  0  0  0
  147.9662  136.2574  163.3425 H   0  0  0  0  0  0  0  0  0  0  0  0
  147.9145  133.8234  160.3075 H   0  0  0  0  0  0  0  0  0  0  0  0
  149.5861  134.5723  157.8416 H   0  0  0  0  0  0  0  0  0  0  0  0
  147.9480  134.7492  157.2875 H   0  0  0  0  0  0  0  0  0  0  0  0
  147.9438  136.0384  155.2323 H   0  0  0  0  0  0  0  0  0  0  0  0
  148.4010  137.7355  155.4195 H   0  0  0  0  0  0  0  0  0  0  0  0
  147.1673  137.0473  156.4582 H   0  0  0  0  0  0  0  0  0  0  0  0
  151.1909  135.8620  157.0050 H   0  0  0  0  0  0  0  0  0  0  0  0
  150.4134  135.5283  155.4807 H   0  0  0  0  0  0  0  0  0  0  0  0
  150.2069  138.1560  155.2318 H   0  0  0  0  0  0  0  0  0  0  0  0
  152.3534  138.0704  154.3593 H   0  0  0  0  0  0  0  0  0  0  0  0
  151.4863  138.0964  157.7350 H   0  0  0  0  0  0  0  0  0  0  0  0
  152.8028  138.4033  156.6236 H   0  0  0  0  0  0  0  0  0  0  0  0
  150.1095  139.8444  154.9003 H   0  0  0  0  0  0  0  0  0  0  0  0
  150.6265  144.1345  157.2886 H   0  0  0  0  0  0  0  0  0  0  0  0
  153.0778  145.0017  159.5839 H   0  0  0  0  0  0  0  0  0  0  0  0
  151.6611  144.6159  160.5732 H   0  0  0  0  0  0  0  0  0  0  0  0
  151.4653  145.4597  159.0384 H   0  0  0  0  0  0  0  0  0  0  0  0
  153.8482  141.2947  160.8508 H   0  0  0  0  0  0  0  0  0  0  0  0
  152.8075  142.5805  161.4598 H   0  0  0  0  0  0  0  0  0  0  0  0
  154.2287  142.9753  160.4811 H   0  0  0  0  0  0  0  0  0  0  0  0
  152.9241  140.0758  159.0555 H   0  0  0  0  0  0  0  0  0  0  0  0
  149.2710  137.2338  157.5564 H   0  0  0  0  0  0  0  0  0  0  0  0
  1  2  1  0  0  0  0
  1 25  1  0  0  0  0
  1 26  1  0  0  0  0
  1 27  1  0  0  0  0
  2 24  1  0  0  0  0
  2  3  2  0  0  0  0
  3  4  1  0  0  0  0
  3 28  1  0  0  0  0
  4  5  1  0  0  0  0
  4 23  2  0  0  0  0
  5  6  1  0  0  0  0
  5 29  1  0  0  0  0
  5 30  1  0  0  0  0
  6  7  1  0  0  0  0
  6  8  1  0  0  0  0
  6 49  1  0  0  0  0
  7 31  1  0  0  0  0
  7 32  1  0  0  0  0
  7 33  1  0  0  0  0
  8  9  1  0  0  0  0
  8 34  1  0  0  0  0
  8 35  1  0  0  0  0
  9 10  1  0  0  0  0
  9 11  1  0  0  0  0
  9 36  1  0  0  0  0
 10 37  1  0  0  0  0
 11 12  1  0  0  0  0
 11 38  1  0  0  0  0
 11 39  1  0  0  0  0
 12 22  1  0  0  0  0
 12 13  1  0  0  0  0
 13 14  2  0  0  0  0
 13 40  1  0  0  0  0
 14 15  1  0  0  0  0
 15 22  2  0  0  0  0
 15 16  1  0  0  0  0
 16 17  2  0  0  0  0
 16 41  1  0  0  0  0
 17 18  1  0  0  0  0
 17 19  1  0  0  0  0
 18 42  1  0  0  0  0
 18 43  1  0  0  0  0
 18 44  1  0  0  0  0
 19 20  1  0  0  0  0
 19 21  2  0  0  0  0
 20 45  1  0  0  0  0
 20 46  1  0  0  0  0
 20 47  1  0  0  0  0
 21 22  1  0  0  0  0
 21 48  1  0  0  0  0
 23 24  1  0  0  0  0
M  CHG  1   6   1
M  END
> <s_m_source_file>
AV-unprocessed.smi

> <i_m_source_file_index>
1209

> <i_lp_mmshare_version>
43012

> <i_f3d_flags>
0

> <s_epik_input>
W0NIM11jMVtjSF1jKG5vMSlbQ0gyXU4oW0NIM10pW0NIMl1bQ0BIXShbT0hdKVtDSDJdbihbY0hdbjIpYyhjMjMpW2NIXWMoW0NIM10pYyhbY0hdMylbQ0gzXQ==

> <s_epik_cmdline>
J2VwaWtfcHl0aG9uJywgJy1waCcsICc3LjAnLCAnLXRuJywgJzgnLCAnLW1hJywgJzIwMCcsICctbWV0YWxfYmluZGluZycsICctaW1hZScsICc8aW5maWxlLm1hZT4nLCAnLW9tYWUnLCAnPG91dGZpbGUubWFlPic=

> <r_epik_Ionization_Penalty>
2.05249

> <r_epik_Ionization_Penalty_Charging>
1.96618

> <r_epik_Ionization_Penalty_Neutral>
0.0863156

> <r_epik_State_Penalty>
2.19215

> <r_epik_Charging_Adjusted_Penalty>
4.15833

> <i_epik_Tot_Q>
1

> <i_epik_Tot_abs_Q>
1

> <r_epik_Metal_State_Penalty>
2.17654

> <b_epik_Metal_Only>
0

> <s_lp_Force_Field>
OPLS_2005

> <r_lp_Energy>
8.61119

> <b_lp_Chiralities_Consistent>
1

> <s_lp_Variant>
AV-unprocessed.smi:1209-6

> <Gold.Version>
5.8.1

> <Gold.Id.Protein>
6NUR|6NUR_protein|mol2

> <Gold.PLP.Fitness>
51.5447

> <Gold.PLP.PLP>
-46.4692

> <Gold.PLP.part.hbond>
-3.0000

> <Gold.PLP.part.metal>
0.0000

> <Gold.PLP.part.buried>
-6.3640

> <Gold.PLP.part.nonpolar>
-37.8987

> <Gold.PLP.part.repulsive>
0.1169

> <Gold.PLP.ligand.clash>
0.0000

> <Gold.PLP.ligand.torsion>
1.6608

> <Gold.PLP.Chemscore.Hbond>
2.6400

> <Gold.PLP.Chemscore.CHOScore>
0.0000

> <Gold.PLP.Chemscore.Metal>
0.0000

> <Gold.Chemscore.Hbonds>
donor molecule, donor type, donor heavy atom, donor atom, acceptor molecule, acceptor atom, score
      P1  H  6931  6943       L1    24  0.93
      P1  H  6934  6947       L1    24  0.61
      P1  H 10752 10765       L1    10  0.94

> <Gold.PLP.Chemscore.Internal.Correction>
0.4772

> <Gold.Rescore>
     Score         DG    S(hbond)    S(metal)    S(lipo)     H(rot)  DE(clash)    DE(int)     intcor
     18.67     -20.38       2.07        0.00     123.67       2.53       0.07       1.64       ----

> <Gold.Chemscore.Fitness>
18.6703

> <Gold.Chemscore.DG>
-20.3792

> <Gold.Chemscore.ZeroCoef>
-5.4800

> <Gold.Chemscore.Hbond>
2.0703

> <Gold.Chemscore.Metal>
0.0000

> <Gold.Chemscore.Lipo>
123.6714

> <Gold.Chemscore.Internal_Hbond>
0.0000

> <Gold.Chemscore.DEClash>
0.0668

> <Gold.Chemscore.DEInternal>
1.6420

> <Gold.Chemscore.Rot>
2.5332

> <Gold.Chemscore.Internal.Correction>
   9.000000E+99

> <Gold.Chemscore.Hbonds>
donor molecule, donor type, donor heavy atom, donor atom, acceptor molecule, acceptor atom, score
      P1  H  6931  6943       L1    24  0.77
      P1  H  6934  6947       L1    24  0.18
      P1  H 10752 10765       L1    10  0.85

> <Gold.Chemscore.Hbond.Weighted>
-6.9147

> <Gold.Chemscore.Metal.Weighted>
-0.0000

> <Gold.Chemscore.Lipo.Weighted>
-14.4695

> <Gold.Chemscore.Internal_Hbond.Weighted>
0.0000

> <Gold.Chemscore.DEClash.Weighted>
0.0668

> <Gold.Chemscore.DEInternal.Weighted>
1.6420

> <Gold.Chemscore.Rot.Weighted>
6.4851

> <Gold.Chemscore.Internal.Correction.Weighted>
   9.000000E+99

> <Gold.Protein.RotatedTorsions>
[ 6907 6896 6895 6894 ] final  168.62 input  -60.11 | X-H torsion
[ 7974 7965 7964 7962 ] final -125.02 input  175.53 | X-H torsion
[ 8008 7997 7996 7995 ] final  123.04 input   59.86 | X-H torsion
[ 10167 10162 10161 10158 ] final -170.71 input  -65.29 | X-H torsion
[ 10718 10713 10712 10709 ] final -172.38 input   66.30 | X-H torsion
[ 10763 10752 10751 10750 ] final  166.74 input  -60.55 | X-H torsion
[ 11005 11000 10999 10996 ] final   38.69 input  -57.11 | X-H torsion

> <Gold.Protein.ActiveResidues>
 VAL166  LYS551  ARG553  GLY616  TRP617  ASP618  TYR619  PRO620  LYS621  CYS622 
 ASP623  PHE694  ASN695  SER759  ASP760  ASP761  ALA762  ILE779  LEU786  VAL792 
 PHE793  MET794  SER795  GLU796  ALA797  LYS798  CYS799  TRP800  GLU811  SER814 

> <Gold.Protein.RotatedAtoms>
  151.8448  133.3429  159.3654 H   0  0  0  0  0  0  0  0  0  0  0  0  # atno 6907 bound_to 6896
  150.7224  134.5356  159.5731 H   0  0  0  0  0  0  0  0  0  0  0  0  # atno 6908 bound_to 6896
  152.2837  134.7800  160.0442 H   0  0  0  0  0  0  0  0  0  0  0  0  # atno 6909 bound_to 6896
  145.0020  140.7829  143.4490 H   0  0  0  0  0  0  0  0  0  0  0  0  # atno 7974 bound_to 7965
  156.2751  140.2772  156.1564 H   0  0  0  0  0  0  0  0  0  0  0  0  # atno 8008 bound_to 7997
  155.0799  140.0387  157.2653 H   0  0  0  0  0  0  0  0  0  0  0  0  # atno 8009 bound_to 7997
  154.6972  140.2641  155.6760 H   0  0  0  0  0  0  0  0  0  0  0  0  # atno 8010 bound_to 7997
  139.5845  144.1349  152.1558 H   0  0  0  0  0  0  0  0  0  0  0  0  # atno 10167 bound_to 10162
  156.7547  130.9391  151.3116 H   0  0  0  0  0  0  0  0  0  0  0  0  # atno 10718 bound_to 10713
  154.3435  135.2754  155.2410 H   0  0  0  0  0  0  0  0  0  0  0  0  # atno 10763 bound_to 10752
  154.4670  135.5892  153.6298 H   0  0  0  0  0  0  0  0  0  0  0  0  # atno 10764 bound_to 10752
  152.9855  135.6079  154.3639 H   0  0  0  0  0  0  0  0  0  0  0  0  # atno 10765 bound_to 10752
  140.2102  134.3765  155.8053 H   0  0  0  0  0  0  0  0  0  0  0  0  # atno 11005 bound_to 11000
  145.2140  139.2191  143.5128 LP  0  0  0  0  0  0  0  0  0  0  0  0  # atno 17320 bound_to 7965
  146.3454  140.1984  142.8589 LP  0  0  0  0  0  0  0  0  0  0  0  0  # atno 17321 bound_to 7965
  140.0909  144.5621  150.7055 LP  0  0  0  0  0  0  0  0  0  0  0  0  # atno 17342 bound_to 10162
  140.7119  143.2512  151.4555 LP  0  0  0  0  0  0  0  0  0  0  0  0  # atno 17343 bound_to 10162
  157.6761  130.9096  150.0155 LP  0  0  0  0  0  0  0  0  0  0  0  0  # atno 17370 bound_to 10713
  156.1378  130.3642  149.9629 LP  0  0  0  0  0  0  0  0  0  0  0  0  # atno 17371 bound_to 10713
  141.2226  133.7139  156.8404 LP  0  0  0  0  0  0  0  0  0  0  0  0  # atno 17394 bound_to 11000
  140.1959  134.8932  157.3114 LP  0  0  0  0  0  0  0  0  0  0  0  0  # atno 17395 bound_to 11000

$$$$
