AV-unprocessed.smi:1522|AV-procd|sdf|6134|dock1
  -GOLD-   22720 6273D 1   1.00000     0.00000
 Structure written by MMmdl.
 35 36  0  0  0  0  0  0  0  0  2 V2000
  143.4394  135.2247  154.4100 C   0  0  0  0  0  0  0  0  0  0  0  0
  144.6043  134.7490  153.5131 C   0  0  2  0  0  0  0  0  0  0  0  0
  144.9655  135.8318  152.4623 C   0  0  0  0  0  0  0  0  0  0  0  0
  146.2479  136.4773  152.7275 N   0  0  0  0  0  0  0  0  0  0  0  0
  146.3929  137.6972  153.2644 C   0  0  0  0  0  0  0  0  0  0  0  0
  145.4423  138.4036  153.5992 O   0  0  0  0  0  0  0  0  0  0  0  0
  147.6888  138.0297  153.3776 N   0  0  0  0  0  0  0  0  0  0  0  0
  148.2375  139.2437  153.8614 C   0  0  0  0  0  0  0  0  0  0  0  0
  149.5377  139.2635  154.1765 N   0  0  0  0  0  0  0  0  0  0  0  0
  149.9443  140.5122  154.6305 N   0  0  0  0  0  0  0  0  0  0  0  0
  148.9336  141.3866  154.6388 C   0  0  0  0  0  0  0  0  0  0  0  0
  147.3833  140.7722  154.0933 S   0  0  0  0  0  0  0  0  0  0  0  0
  144.2832  133.4543  152.8457 N   0  3  0  0  0  0  0  0  0  0  0  0
  143.3059  133.5451  151.7306 C   0  0  0  0  0  0  0  0  0  0  0  0
  143.7501  132.5488  150.6505 C   0  0  0  0  0  0  0  0  0  0  0  0
  144.8530  131.7265  151.3060 C   0  0  0  0  0  0  0  0  0  0  0  0
  145.4407  132.6927  152.3277 C   0  0  0  0  0  0  0  0  0  0  0  0
  143.6654  136.1757  154.8925 H   0  0  0  0  0  0  0  0  0  0  0  0
  143.2280  134.5209  155.2147 H   0  0  0  0  0  0  0  0  0  0  0  0
  142.5244  135.3585  153.8319 H   0  0  0  0  0  0  0  0  0  0  0  0
  145.4700  134.5774  154.1549 H   0  0  0  0  0  0  0  0  0  0  0  0
  144.9939  135.4188  151.4533 H   0  0  0  0  0  0  0  0  0  0  0  0
  144.1974  136.6057  152.4501 H   0  0  0  0  0  0  0  0  0  0  0  0
  147.0802  135.9603  152.4826 H   0  0  0  0  0  0  0  0  0  0  0  0
  148.3618  137.3429  153.0707 H   0  0  0  0  0  0  0  0  0  0  0  0
  149.1029  142.4013  154.9680 H   0  0  0  0  0  0  0  0  0  0  0  0
  142.3098  133.3068  152.1049 H   0  0  0  0  0  0  0  0  0  0  0  0
  143.2701  134.5505  151.3072 H   0  0  0  0  0  0  0  0  0  0  0  0
  142.9295  131.9284  150.2890 H   0  0  0  0  0  0  0  0  0  0  0  0
  144.1557  133.0917  149.7956 H   0  0  0  0  0  0  0  0  0  0  0  0
  144.4210  130.8647  151.8166 H   0  0  0  0  0  0  0  0  0  0  0  0
  145.5918  131.3605  150.5923 H   0  0  0  0  0  0  0  0  0  0  0  0
  146.1378  133.3713  151.8328 H   0  0  0  0  0  0  0  0  0  0  0  0
  145.9758  132.1697  153.1210 H   0  0  0  0  0  0  0  0  0  0  0  0
  143.8558  132.8604  153.5421 H   0  0  0  0  0  0  0  0  0  0  0  0
  1  2  1  0  0  0  0
  1 18  1  0  0  0  0
  1 19  1  0  0  0  0
  1 20  1  0  0  0  0
  2  3  1  0  0  0  0
  2 13  1  0  0  0  0
  2 21  1  0  0  0  0
  3  4  1  0  0  0  0
  3 22  1  0  0  0  0
  3 23  1  0  0  0  0
  4  5  1  0  0  0  0
  4 24  1  0  0  0  0
  5  6  2  0  0  0  0
  5  7  1  0  0  0  0
  7  8  1  0  0  0  0
  7 25  1  0  0  0  0
  8 12  1  0  0  0  0
  8  9  2  0  0  0  0
  9 10  1  0  0  0  0
 10 11  2  0  0  0  0
 11 12  1  0  0  0  0
 11 26  1  0  0  0  0
 13 17  1  0  0  0  0
 13 14  1  0  0  0  0
 13 35  1  0  0  0  0
 14 15  1  0  0  0  0
 14 27  1  0  0  0  0
 14 28  1  0  0  0  0
 15 16  1  0  0  0  0
 15 29  1  0  0  0  0
 15 30  1  0  0  0  0
 16 17  1  0  0  0  0
 16 31  1  0  0  0  0
 16 32  1  0  0  0  0
 17 33  1  0  0  0  0
 17 34  1  0  0  0  0
M  CHG  1  13   1
M  END
> <s_m_source_file>
AV-unprocessed.smi

> <i_m_source_file_index>
1522

> <i_lp_mmshare_version>
43012

> <i_f3d_flags>
0

> <s_epik_input>
W0NIMl0xW0NIMl1bQ0gyXVtDSDJdTjFbQ0BIXShbQ0gzXSlbQ0gyXVtOSF1DKD1PKVtOSF1jMm5uW2NIXXMy

> <s_epik_cmdline>
J2VwaWtfcHl0aG9uJywgJy1waCcsICc3LjAnLCAnLXRuJywgJzgnLCAnLW1hJywgJzIwMCcsICctbWV0YWxfYmluZGluZycsICctaW1hZScsICc8aW5maWxlLm1hZT4nLCAnLW9tYWUnLCAnPG91dGZpbGUubWFlPic=

> <r_lp_tautomer_probability>
1

> <r_epik_Ionization_Penalty>
0.00457064

> <r_epik_Ionization_Penalty_Charging>
0.000848324

> <r_epik_Ionization_Penalty_Neutral>
0.00372231

> <r_epik_State_Penalty>
-0

> <r_epik_Charging_Adjusted_Penalty>
0.000848324

> <i_epik_Tot_Q>
1

> <i_epik_Tot_abs_Q>
1

> <r_epik_Metal_State_Penalty>
0.370178

> <b_epik_Metal_Only>
0

> <s_lp_Force_Field>
OPLS_2005

> <r_lp_Energy>
27.0536

> <b_lp_Chiralities_Consistent>
1

> <s_lp_Variant>
AV-unprocessed.smi:1522-1

> <Gold.Version>
5.8.1

> <Gold.Id.Protein>
6NUR|6NUR_protein|mol2

> <Gold.PLP.Fitness>
39.3325

> <Gold.PLP.PLP>
-24.1889

> <Gold.PLP.part.hbond>
-4.0000

> <Gold.PLP.part.metal>
0.0000

> <Gold.PLP.part.buried>
-4.5232

> <Gold.PLP.part.nonpolar>
-17.4561

> <Gold.PLP.part.repulsive>
1.5253

> <Gold.PLP.ligand.clash>
0.0000

> <Gold.PLP.ligand.torsion>
1.0887

> <Gold.PLP.Chemscore.Hbond>
4.7600

> <Gold.PLP.Chemscore.CHOScore>
0.9995

> <Gold.PLP.Chemscore.Metal>
0.0000

> <Gold.Chemscore.Hbonds>
donor molecule, donor type, donor heavy atom, donor atom, acceptor molecule, acceptor atom, score
      L1  H     4    24       P1  7948  0.83
      L1  H     7    25       P1  7948  1.00
      L1  H    13    35       P1 10957  1.98
      P1  H  7989  7998       L1    10  0.81
      L1  C    11    26       P1  8028  1.00

> <Gold.PLP.Chemscore.Internal.Correction>
0.0425

> <Gold.Rescore>
     Score         DG    S(hbond)    S(metal)    S(lipo)     H(rot)  DE(clash)    DE(int)     intcor
     16.54     -17.71       3.25        0.00      48.94       1.70       0.01       1.17       ----

> <Gold.Chemscore.Fitness>
16.5380

> <Gold.Chemscore.DG>
-17.7108

> <Gold.Chemscore.ZeroCoef>
-5.4800

> <Gold.Chemscore.Hbond>
3.2527

> <Gold.Chemscore.Metal>
0.0000

> <Gold.Chemscore.Lipo>
48.9386

> <Gold.Chemscore.Internal_Hbond>
0.0000

> <Gold.Chemscore.DEClash>
0.0059

> <Gold.Chemscore.DEInternal>
1.1669

> <Gold.Chemscore.Rot>
1.7028

> <Gold.Chemscore.Internal.Correction>
   9.000000E+99

> <Gold.Chemscore.Hbonds>
donor molecule, donor type, donor heavy atom, donor atom, acceptor molecule, acceptor atom, score
      L1  H     4    24       P1  7948  0.81
      L1  H     7    25       P1  7948  0.95
      L1  H    13    35       P1 10957  0.69
      P1  H  7989  7998       L1    10  0.30

> <Gold.Chemscore.Hbond.Weighted>
-10.8641

> <Gold.Chemscore.Metal.Weighted>
-0.0000

> <Gold.Chemscore.Lipo.Weighted>
-5.7258

> <Gold.Chemscore.Internal_Hbond.Weighted>
0.0000

> <Gold.Chemscore.DEClash.Weighted>
0.0059

> <Gold.Chemscore.DEInternal.Weighted>
1.1669

> <Gold.Chemscore.Rot.Weighted>
4.3592

> <Gold.Chemscore.Internal.Correction.Weighted>
   9.000000E+99

> <Gold.Protein.RotatedTorsions>
[ 6907 6896 6895 6894 ] final  -55.58 input  -60.11 | X-H torsion
[ 7974 7965 7964 7962 ] final   22.62 input  175.53 | X-H torsion
[ 8008 7997 7996 7995 ] final   73.13 input   59.86 | X-H torsion
[ 10167 10162 10161 10158 ] final  -72.25 input  -65.29 | X-H torsion
[ 10718 10713 10712 10709 ] final  171.48 input   66.30 | X-H torsion
[ 10763 10752 10751 10750 ] final -136.79 input  -60.55 | X-H torsion
[ 11005 11000 10999 10996 ] final -101.97 input  -57.11 | X-H torsion

> <Gold.Protein.ActiveResidues>
 VAL166  LYS551  ARG553  GLY616  TRP617  ASP618  TYR619  PRO620  LYS621  CYS622 
 ASP623  PHE694  ASN695  SER759  ASP760  ASP761  ALA762  ILE779  LEU786  VAL792 
 PHE793  MET794  SER795  GLU796  ALA797  LYS798  CYS799  TRP800  GLU811  SER814 

> <Gold.Protein.RotatedAtoms>
  150.8239  134.7461  159.6795 H   0  0  0  0  0  0  0  0  0  0  0  0  # atno 6907 bound_to 6896
  152.4352  134.5697  159.9927 H   0  0  0  0  0  0  0  0  0  0  0  0  # atno 6908 bound_to 6896
  151.5874  133.3333  159.3056 H   0  0  0  0  0  0  0  0  0  0  0  0  # atno 6909 bound_to 6896
  146.2021  139.7859  142.8754 H   0  0  0  0  0  0  0  0  0  0  0  0  # atno 7974 bound_to 7965
  155.7792  140.3482  155.5288 H   0  0  0  0  0  0  0  0  0  0  0  0  # atno 8008 bound_to 7997
  155.8746  140.0992  157.1548 H   0  0  0  0  0  0  0  0  0  0  0  0  # atno 8009 bound_to 7997
  154.4020  140.1334  156.4107 H   0  0  0  0  0  0  0  0  0  0  0  0  # atno 8010 bound_to 7997
  140.5207  143.2332  151.7434 H   0  0  0  0  0  0  0  0  0  0  0  0  # atno 10167 bound_to 10162
  156.9929  131.0153  151.2852 H   0  0  0  0  0  0  0  0  0  0  0  0  # atno 10718 bound_to 10713
  154.8676  135.3662  154.5117 H   0  0  0  0  0  0  0  0  0  0  0  0  # atno 10763 bound_to 10752
  153.5752  135.7019  153.5492 H   0  0  0  0  0  0  0  0  0  0  0  0  # atno 10764 bound_to 10752
  153.3506  135.4073  155.1606 H   0  0  0  0  0  0  0  0  0  0  0  0  # atno 10765 bound_to 10752
  141.1209  133.8521  157.1300 H   0  0  0  0  0  0  0  0  0  0  0  0  # atno 11005 bound_to 11000
  145.3449  141.0295  143.3371 LP  0  0  0  0  0  0  0  0  0  0  0  0  # atno 17320 bound_to 7965
  144.8706  139.5043  143.6769 LP  0  0  0  0  0  0  0  0  0  0  0  0  # atno 17321 bound_to 7965
  139.4923  144.4258  151.9927 LP  0  0  0  0  0  0  0  0  0  0  0  0  # atno 17342 bound_to 10162
  140.3355  144.3266  150.5978 LP  0  0  0  0  0  0  0  0  0  0  0  0  # atno 17343 bound_to 10162
  157.5446  130.8142  149.8070 LP  0  0  0  0  0  0  0  0  0  0  0  0  # atno 17370 bound_to 10713
  156.0200  130.3799  150.1991 LP  0  0  0  0  0  0  0  0  0  0  0  0  # atno 17371 bound_to 10713
  140.0165  134.9965  157.0504 LP  0  0  0  0  0  0  0  0  0  0  0  0  # atno 17394 bound_to 11000
  140.4511  134.1581  155.7181 LP  0  0  0  0  0  0  0  0  0  0  0  0  # atno 17395 bound_to 11000

$$$$
