AV-unprocessed.smi:34|AV-procd|sdf|222|dock6
  -GOLD-   2262015543D 1   1.00000     0.00000
 Structure written by MMmdl.
 55 59  0  0  0  0  0  0  0  0  1 V2000
  153.1244  140.0675  158.2136 O   0  0  0  0  0  0  0  0  0  0  0  0
  152.3055  140.9529  157.9648 C   0  0  0  0  0  0  0  0  0  0  0  0
  151.2722  140.7885  156.9587 N   0  0  0  0  0  0  0  0  0  0  0  0
  151.0923  139.7476  156.1129 C   0  0  0  0  0  0  0  0  0  0  0  0
  150.7927  139.9206  154.7983 N   0  0  0  0  0  0  0  0  0  0  0  0
  150.6187  138.8609  154.0024 C   0  0  0  0  0  0  0  0  0  0  0  0
  150.6934  137.5639  154.3110 N   0  0  0  0  0  0  0  0  0  0  0  0
  150.9880  137.3855  155.6308 C   0  0  0  0  0  0  0  0  0  0  0  0
  151.1956  138.4150  156.5892 C   0  0  0  0  0  0  0  0  0  0  0  0
  151.4688  137.8527  157.8294 N   0  0  0  0  0  0  0  0  0  0  0  0
  151.4306  136.5655  157.6091 C   0  0  0  0  0  0  0  0  0  0  0  0
  151.1426  136.1980  156.3106 N   0  0  0  0  0  0  0  0  0  0  0  0
  151.0322  134.8304  155.7051 C   0  0  1  0  0  0  0  0  0  0  0  0
  151.3811  133.8879  156.6747 O   0  0  0  0  0  0  0  0  0  0  0  0
  150.1966  133.3275  157.2260 C   0  0  2  0  0  0  0  0  0  0  0  0
  150.4945  132.0025  157.9359 C   0  0  0  0  0  0  0  0  0  0  0  0
  151.4916  131.3094  157.2038 O   0  0  0  0  0  0  0  0  0  0  0  0
  152.7945  131.5130  157.4756 C   0  0  0  0  0  0  0  0  0  0  0  0
  153.1967  132.1385  158.4588 O   0  0  0  0  0  0  0  0  0  0  0  0
  153.7005  130.9033  156.4598 C   0  0  0  0  0  0  0  0  0  0  0  0
  155.0741  131.2410  156.4646 C   0  0  0  0  0  0  0  0  0  0  0  0
  155.9535  130.6828  155.5165 C   0  0  0  0  0  0  0  0  0  0  0  0
  155.4700  129.7801  154.5516 C   0  0  0  0  0  0  0  0  0  0  0  0
  154.1058  129.4354  154.5362 C   0  0  0  0  0  0  0  0  0  0  0  0
  153.2248  129.9922  155.4840 C   0  0  0  0  0  0  0  0  0  0  0  0
  149.2949  133.2087  155.9992 C   0  0  2  0  0  0  0  0  0  0  0  0
  149.6564  132.1628  155.2527 F   0  0  0  0  0  0  0  0  0  0  0  0
  149.5914  134.4964  155.2439 C   0  0  1  0  0  0  0  0  0  0  0  0
  148.6220  135.4811  155.5605 O   0  0  0  0  0  0  0  0  0  0  0  0
  152.2559  142.2278  158.7544 C   0  0  0  0  0  0  0  0  0  0  0  0
  151.5479  143.3430  158.2530 C   0  0  0  0  0  0  0  0  0  0  0  0
  151.4867  144.5398  158.9933 C   0  0  0  0  0  0  0  0  0  0  0  0
  152.1243  144.6280  160.2453 C   0  0  0  0  0  0  0  0  0  0  0  0
  152.8197  143.5171  160.7587 C   0  0  0  0  0  0  0  0  0  0  0  0
  152.8836  142.3203  160.0183 C   0  0  0  0  0  0  0  0  0  0  0  0
  150.6017  141.5397  156.8859 H   0  0  0  0  0  0  0  0  0  0  0  0
  150.3866  139.0848  152.9714 H   0  0  0  0  0  0  0  0  0  0  0  0
  151.6191  135.8512  158.3971 H   0  0  0  0  0  0  0  0  0  0  0  0
  151.7646  134.8288  154.8968 H   0  0  0  0  0  0  0  0  0  0  0  0
  149.7462  134.0326  157.9266 H   0  0  0  0  0  0  0  0  0  0  0  0
  150.8654  132.1955  158.9433 H   0  0  0  0  0  0  0  0  0  0  0  0
  149.5892  131.3997  158.0243 H   0  0  0  0  0  0  0  0  0  0  0  0
  155.4688  131.9322  157.1957 H   0  0  0  0  0  0  0  0  0  0  0  0
  157.0003  130.9485  155.5302 H   0  0  0  0  0  0  0  0  0  0  0  0
  156.1441  129.3526  153.8242 H   0  0  0  0  0  0  0  0  0  0  0  0
  153.7333  128.7429  153.7957 H   0  0  0  0  0  0  0  0  0  0  0  0
  152.1839  129.7060  155.4438 H   0  0  0  0  0  0  0  0  0  0  0  0
  148.2415  133.0760  156.2495 H   0  0  0  0  0  0  0  0  0  0  0  0
  149.5824  134.3391  154.1647 H   0  0  0  0  0  0  0  0  0  0  0  0
  147.8111  135.2485  155.1332 H   0  0  0  0  0  0  0  0  0  0  0  0
  151.0524  143.2907  157.2940 H   0  0  0  0  0  0  0  0  0  0  0  0
  150.9494  145.3903  158.6005 H   0  0  0  0  0  0  0  0  0  0  0  0
  152.0765  145.5458  160.8128 H   0  0  0  0  0  0  0  0  0  0  0  0
  153.3030  143.5817  161.7224 H   0  0  0  0  0  0  0  0  0  0  0  0
  153.4149  141.4763  160.4341 H   0  0  0  0  0  0  0  0  0  0  0  0
  1  2  2  0  0  0  0
  2  3  1  0  0  0  0
  2 30  1  0  0  0  0
  3  4  1  0  0  0  0
  3 36  1  0  0  0  0
  4  9  1  0  0  0  0
  4  5  2  0  0  0  0
  5  6  1  0  0  0  0
  6  7  2  0  0  0  0
  6 37  1  0  0  0  0
  7  8  1  0  0  0  0
  8 12  1  0  0  0  0
  8  9  2  0  0  0  0
  9 10  1  0  0  0  0
 10 11  2  0  0  0  0
 11 12  1  0  0  0  0
 11 38  1  0  0  0  0
 12 13  1  0  0  0  0
 13 28  1  0  0  0  0
 13 14  1  0  0  0  0
 13 39  1  0  0  0  0
 14 15  1  0  0  0  0
 15 16  1  0  0  0  0
 15 26  1  0  0  0  0
 15 40  1  0  0  0  0
 16 17  1  0  0  0  0
 16 41  1  0  0  0  0
 16 42  1  0  0  0  0
 17 18  1  0  0  0  0
 18 19  2  0  0  0  0
 18 20  1  0  0  0  0
 20 25  1  0  0  0  0
 20 21  2  0  0  0  0
 21 22  1  0  0  0  0
 21 43  1  0  0  0  0
 22 23  2  0  0  0  0
 22 44  1  0  0  0  0
 23 24  1  0  0  0  0
 23 45  1  0  0  0  0
 24 25  2  0  0  0  0
 24 46  1  0  0  0  0
 25 47  1  0  0  0  0
 26 27  1  0  0  0  0
 26 28  1  0  0  0  0
 26 48  1  0  0  0  0
 28 29  1  0  0  0  0
 28 49  1  0  0  0  0
 29 50  1  0  0  0  0
 30 35  1  0  0  0  0
 30 31  2  0  0  0  0
 31 32  1  0  0  0  0
 31 51  1  0  0  0  0
 32 33  2  0  0  0  0
 32 52  1  0  0  0  0
 33 34  1  0  0  0  0
 33 53  1  0  0  0  0
 34 35  2  0  0  0  0
 34 54  1  0  0  0  0
 35 55  1  0  0  0  0
M  END
> <s_m_source_file>
AV-unprocessed.smi

> <i_m_source_file_index>
34

> <i_lp_mmshare_version>
43012

> <i_f3d_flags>
0

> <s_epik_input>
W2NIXTFbY0hdW2NIXVtjSF1bY0hdYzFDKD1PKVtOSF1jKG5bY0hdbjIpYyhjMjMpbltjSF1uM1tDQEBIXTRPW0NASF0oW0NAQEhdKEYpW0NASF00W09IXSlbQ0gyXU9DKD1PKWM1W2NIXVtjSF1bY0hdW2NIXVtjSF01

> <s_epik_cmdline>
J2VwaWtfcHl0aG9uJywgJy1waCcsICc3LjAnLCAnLXRuJywgJzgnLCAnLW1hJywgJzIwMCcsICctbWV0YWxfYmluZGluZycsICctaW1hZScsICc8aW5maWxlLm1hZT4nLCAnLW9tYWUnLCAnPG91dGZpbGUubWFlPic=

> <r_lp_tautomer_probability>
1

> <r_epik_Ionization_Penalty>
0.00257489

> <r_epik_Ionization_Penalty_Charging>
0

> <r_epik_Ionization_Penalty_Neutral>
0.00257489

> <r_epik_State_Penalty>
0.00519398

> <r_epik_Charging_Adjusted_Penalty>
0.00519398

> <i_epik_Tot_Q>
0

> <i_epik_Tot_abs_Q>
0

> <r_epik_Metal_State_Penalty>
0.335891

> <b_epik_Metal_Only>
0

> <s_epik_Chemistry_Notes>
This compound has an ester and may undergo hydrolysis at high or low pH. This compound contains an acetal/aminal-like group ( X-CH(R)-Y where X, Y are N, S, or O) that may be acid/base labile, releasing an aldehyde.

> <s_lp_Force_Field>
OPLS_2005

> <r_lp_Energy>
48.7075

> <b_lp_Chiralities_Consistent>
1

> <s_lp_Variant>
AV-unprocessed.smi:34-8

> <Gold.Version>
5.8.1

> <Gold.Id.Protein>
6NUR|6NUR_protein|mol2

> <Gold.PLP.Fitness>
62.0289

> <Gold.PLP.PLP>
-53.0658

> <Gold.PLP.part.hbond>
-3.0000

> <Gold.PLP.part.metal>
0.0000

> <Gold.PLP.part.buried>
-6.9513

> <Gold.PLP.part.nonpolar>
-44.5427

> <Gold.PLP.part.repulsive>
0.4235

> <Gold.PLP.ligand.clash>
0.0000

> <Gold.PLP.ligand.torsion>
1.1352

> <Gold.PLP.Chemscore.Hbond>
2.6000

> <Gold.PLP.Chemscore.CHOScore>
0.9884

> <Gold.PLP.Chemscore.Metal>
0.0000

> <Gold.Chemscore.Hbonds>
donor molecule, donor type, donor heavy atom, donor atom, acceptor molecule, acceptor atom, score
      P1  H  6896  6907       L1    19  1.00
      P1  H  7989  7998       L1     5  0.65
      P1  H  7997  8008       L1     1  0.99
      L1  C     6    37       P1  7957  1.00

> <Gold.PLP.Chemscore.Internal.Correction>
0.4682

> <Gold.Rescore>
     Score         DG    S(hbond)    S(metal)    S(lipo)     H(rot)  DE(clash)    DE(int)     intcor
     12.77     -19.64       1.99        0.00     123.80       2.72       0.24       6.63       ----

> <Gold.Chemscore.Fitness>
12.7706

> <Gold.Chemscore.DG>
-19.6405

> <Gold.Chemscore.ZeroCoef>
-5.4800

> <Gold.Chemscore.Hbond>
1.9890

> <Gold.Chemscore.Metal>
0.0000

> <Gold.Chemscore.Lipo>
123.7976

> <Gold.Chemscore.Internal_Hbond>
0.0000

> <Gold.Chemscore.DEClash>
0.2426

> <Gold.Chemscore.DEInternal>
6.6273

> <Gold.Chemscore.Rot>
2.7215

> <Gold.Chemscore.Internal.Correction>
   9.000000E+99

> <Gold.Chemscore.Hbonds>
donor molecule, donor type, donor heavy atom, donor atom, acceptor molecule, acceptor atom, score
      P1  H  6896  6907       L1    19  1.00
      P1  H  7989  7998       L1     5  0.06
      P1  H  7997  8008       L1     1  0.70

> <Gold.Chemscore.Hbond.Weighted>
-6.6432

> <Gold.Chemscore.Metal.Weighted>
-0.0000

> <Gold.Chemscore.Lipo.Weighted>
-14.4843

> <Gold.Chemscore.Internal_Hbond.Weighted>
0.0000

> <Gold.Chemscore.DEClash.Weighted>
0.2426

> <Gold.Chemscore.DEInternal.Weighted>
6.6273

> <Gold.Chemscore.Rot.Weighted>
6.9670

> <Gold.Chemscore.Internal.Correction.Weighted>
   9.000000E+99

> <Gold.Protein.RotatedTorsions>
[ 6907 6896 6895 6894 ] final  148.09 input  -60.11 | X-H torsion
[ 7974 7965 7964 7962 ] final  -11.89 input  175.53 | X-H torsion
[ 8008 7997 7996 7995 ] final  -75.52 input   59.86 | X-H torsion
[ 10167 10162 10161 10158 ] final  103.23 input  -65.29 | X-H torsion
[ 10718 10713 10712 10709 ] final  117.70 input   66.30 | X-H torsion
[ 10763 10752 10751 10750 ] final  162.06 input  -60.55 | X-H torsion
[ 11005 11000 10999 10996 ] final  -52.63 input  -57.11 | X-H torsion

> <Gold.Protein.ActiveResidues>
 VAL166  LYS551  ARG553  GLY616  TRP617  ASP618  TYR619  PRO620  LYS621  CYS622 
 ASP623  PHE694  ASN695  SER759  ASP760  ASP761  ALA762  ILE779  LEU786  VAL792 
 PHE793  MET794  SER795  GLU796  ALA797  LYS798  CYS799  TRP800  GLU811  SER814 

> <Gold.Protein.RotatedAtoms>
  152.1461  133.4493  159.4790 H   0  0  0  0  0  0  0  0  0  0  0  0  # atno 6907 bound_to 6896
  150.6891  134.2246  159.4419 H   0  0  0  0  0  0  0  0  0  0  0  0  # atno 6908 bound_to 6896
  152.0140  134.9860  160.0619 H   0  0  0  0  0  0  0  0  0  0  0  0  # atno 6909 bound_to 6896
  146.2171  140.2978  142.8373 H   0  0  0  0  0  0  0  0  0  0  0  0  # atno 7974 bound_to 7965
  154.5424  140.0742  156.8532 H   0  0  0  0  0  0  0  0  0  0  0  0  # atno 8008 bound_to 7997
  155.3154  140.3393  155.4224 H   0  0  0  0  0  0  0  0  0  0  0  0  # atno 8009 bound_to 7997
  156.1887  140.1678  156.8121 H   0  0  0  0  0  0  0  0  0  0  0  0  # atno 8010 bound_to 7997
  139.7281  144.7042  151.0766 H   0  0  0  0  0  0  0  0  0  0  0  0  # atno 10167 bound_to 10162
  157.6079  131.1040  150.7651 H   0  0  0  0  0  0  0  0  0  0  0  0  # atno 10718 bound_to 10713
  154.2725  135.2765  155.2732 H   0  0  0  0  0  0  0  0  0  0  0  0  # atno 10763 bound_to 10752
  154.5289  135.5735  153.6746 H   0  0  0  0  0  0  0  0  0  0  0  0  # atno 10764 bound_to 10752
  152.9943  135.6223  154.2880 H   0  0  0  0  0  0  0  0  0  0  0  0  # atno 10765 bound_to 10752
  141.0934  133.6628  156.4052 H   0  0  0  0  0  0  0  0  0  0  0  0  # atno 11005 bound_to 11000
  144.9079  140.7722  143.5825 LP  0  0  0  0  0  0  0  0  0  0  0  0  # atno 17320 bound_to 7965
  145.2907  139.1885  143.4742 LP  0  0  0  0  0  0  0  0  0  0  0  0  # atno 17321 bound_to 7965
  140.7766  143.5079  150.9689 LP  0  0  0  0  0  0  0  0  0  0  0  0  # atno 17342 bound_to 10162
  139.8767  143.7124  152.3161 LP  0  0  0  0  0  0  0  0  0  0  0  0  # atno 17343 bound_to 10162
  156.8035  130.4929  149.5366 LP  0  0  0  0  0  0  0  0  0  0  0  0  # atno 17370 bound_to 10713
  156.1172  130.6083  151.0138 LP  0  0  0  0  0  0  0  0  0  0  0  0  # atno 17371 bound_to 10713
  140.5198  134.6315  157.5314 LP  0  0  0  0  0  0  0  0  0  0  0  0  # atno 17394 bound_to 11000
  139.9765  134.7207  155.9940 LP  0  0  0  0  0  0  0  0  0  0  0  0  # atno 17395 bound_to 11000

$$$$
