AV-unprocessed.smi:3172|AV-procd|sdf|12115|dock2
  -GOLD-   2272017553D 1   1.00000     0.00000
 Structure written by MMmdl.
 43 44  0  0  0  0  0  0  0  0  2 V2000
  150.2926  135.4477  155.9453 C   0  0  0  0  0  0  0  0  0  0  0  0
  150.8572  136.7909  155.6007 C   0  0  0  0  0  0  0  0  0  0  0  0
  151.5394  137.0018  154.4054 N   0  0  0  0  0  0  0  0  0  0  0  0
  151.8784  138.2814  154.4561 C   0  0  0  0  0  0  0  0  0  0  0  0
  151.4946  138.9159  155.5726 N   0  0  0  0  0  0  0  0  0  0  0  0
  151.7572  140.3068  155.9073 C   0  0  0  0  0  0  0  0  0  0  0  0
  150.4569  141.1198  156.0509 C   0  0  2  0  0  0  0  0  0  0  0  0
  149.5497  140.9499  154.8244 C   0  0  0  0  0  0  0  0  0  0  0  0
  150.7692  142.5529  156.2598 N   0  3  0  0  0  0  0  0  0  0  0  0
  150.9732  142.9651  157.6654 C   0  0  0  0  0  0  0  0  0  0  0  0
  151.6049  144.3692  157.7110 C   0  0  0  0  0  0  0  0  0  0  0  0
  151.8711  144.8205  159.1563 C   0  0  0  0  0  0  0  0  0  0  0  0
  152.7557  143.8079  159.8999 C   0  0  0  0  0  0  0  0  0  0  0  0
  152.1413  142.4006  159.8581 C   0  0  0  0  0  0  0  0  0  0  0  0
  151.8690  141.9527  158.4132 C   0  0  0  0  0  0  0  0  0  0  0  0
  150.8136  137.9620  156.3276 C   0  0  0  0  0  0  0  0  0  0  0  0
  150.1963  138.2402  157.6610 C   0  0  0  0  0  0  0  0  0  0  0  0
  149.2259  135.4033  155.7253 H   0  0  0  0  0  0  0  0  0  0  0  0
  150.4216  135.2247  157.0045 H   0  0  0  0  0  0  0  0  0  0  0  0
  150.7806  134.6520  155.3817 H   0  0  0  0  0  0  0  0  0  0  0  0
  152.4330  138.7661  153.6657 H   0  0  0  0  0  0  0  0  0  0  0  0
  152.3359  140.3432  156.8319 H   0  0  0  0  0  0  0  0  0  0  0  0
  152.3919  140.7339  155.1305 H   0  0  0  0  0  0  0  0  0  0  0  0
  149.9174  140.7360  156.9162 H   0  0  0  0  0  0  0  0  0  0  0  0
  149.2929  139.9015  154.6700 H   0  0  0  0  0  0  0  0  0  0  0  0
  150.0364  141.3094  153.9171 H   0  0  0  0  0  0  0  0  0  0  0  0
  148.6162  141.5009  154.9424 H   0  0  0  0  0  0  0  0  0  0  0  0
  151.6170  142.7729  155.7564 H   0  0  0  0  0  0  0  0  0  0  0  0
  149.9996  143.0179  158.1554 H   0  0  0  0  0  0  0  0  0  0  0  0
  152.5426  144.3727  157.1533 H   0  0  0  0  0  0  0  0  0  0  0  0
  150.9501  145.0899  157.2195 H   0  0  0  0  0  0  0  0  0  0  0  0
  152.3478  145.8013  159.1581 H   0  0  0  0  0  0  0  0  0  0  0  0
  150.9238  144.9363  159.6847 H   0  0  0  0  0  0  0  0  0  0  0  0
  153.7480  143.7875  159.4476 H   0  0  0  0  0  0  0  0  0  0  0  0
  152.8942  144.1230  160.9345 H   0  0  0  0  0  0  0  0  0  0  0  0
  152.8086  141.6903  160.3475 H   0  0  0  0  0  0  0  0  0  0  0  0
  151.2100  142.3908  160.4255 H   0  0  0  0  0  0  0  0  0  0  0  0
  151.4099  140.9644  158.4281 H   0  0  0  0  0  0  0  0  0  0  0  0
  152.8170  141.8392  157.8850 H   0  0  0  0  0  0  0  0  0  0  0  0
  149.4757  137.4667  157.9261 H   0  0  0  0  0  0  0  0  0  0  0  0
  149.6682  139.1934  157.6630 H   0  0  0  0  0  0  0  0  0  0  0  0
  150.9554  138.2686  158.4422 H   0  0  0  0  0  0  0  0  0  0  0  0
  150.0145  143.0955  155.8645 H   0  0  0  0  0  0  0  0  0  0  0  0
  1  2  1  0  0  0  0
  1 18  1  0  0  0  0
  1 19  1  0  0  0  0
  1 20  1  0  0  0  0
  2 16  2  0  0  0  0
  2  3  1  0  0  0  0
  3  4  2  0  0  0  0
  4  5  1  0  0  0  0
  4 21  1  0  0  0  0
  5  6  1  0  0  0  0
  5 16  1  0  0  0  0
  6  7  1  0  0  0  0
  6 22  1  0  0  0  0
  6 23  1  0  0  0  0
  7  8  1  0  0  0  0
  7  9  1  0  0  0  0
  7 24  1  0  0  0  0
  8 25  1  0  0  0  0
  8 26  1  0  0  0  0
  8 27  1  0  0  0  0
  9 10  1  0  0  0  0
  9 28  1  0  0  0  0
  9 43  1  0  0  0  0
 10 15  1  0  0  0  0
 10 11  1  0  0  0  0
 10 29  1  0  0  0  0
 11 12  1  0  0  0  0
 11 30  1  0  0  0  0
 11 31  1  0  0  0  0
 12 13  1  0  0  0  0
 12 32  1  0  0  0  0
 12 33  1  0  0  0  0
 13 14  1  0  0  0  0
 13 34  1  0  0  0  0
 13 35  1  0  0  0  0
 14 15  1  0  0  0  0
 14 36  1  0  0  0  0
 14 37  1  0  0  0  0
 15 38  1  0  0  0  0
 15 39  1  0  0  0  0
 16 17  1  0  0  0  0
 17 40  1  0  0  0  0
 17 41  1  0  0  0  0
 17 42  1  0  0  0  0
M  CHG  1   9   1
M  END
> <s_m_source_file>
AV-unprocessed.smi

> <i_m_source_file_index>
3172

> <i_lp_mmshare_version>
43012

> <i_f3d_flags>
0

> <s_epik_input>
W0NIM11jMW5bY0hdbihjMVtDSDNdKVtDSDJdW0NASF0oW0NIM10pW05IXVtDSF0yW0NIMl1bQ0gyXVtDSDJdW0NIMl1bQ0gyXTI=

> <s_epik_cmdline>
J2VwaWtfcHl0aG9uJywgJy1waCcsICc3LjAnLCAnLXRuJywgJzgnLCAnLW1hJywgJzIwMCcsICctbWV0YWxfYmluZGluZycsICctaW1hZScsICc8aW5maWxlLm1hZT4nLCAnLW9tYWUnLCAnPG91dGZpbGUubWFlPic=

> <r_lp_tautomer_probability>
1

> <r_epik_Ionization_Penalty>
0.328572

> <r_epik_Ionization_Penalty_Charging>
0.328572

> <r_epik_Ionization_Penalty_Neutral>
3.58496e-13

> <r_epik_State_Penalty>
0.596179

> <r_epik_Charging_Adjusted_Penalty>
0.924751

> <i_epik_Tot_Q>
1

> <i_epik_Tot_abs_Q>
1

> <r_epik_Metal_State_Penalty>
0.00102252

> <b_epik_Metal_Only>
0

> <s_lp_Force_Field>
OPLS_2005

> <r_lp_Energy>
15.8324

> <b_lp_Chiralities_Consistent>
1

> <s_lp_Variant>
AV-unprocessed.smi:3172-3

> <Gold.Version>
5.8.1

> <Gold.Id.Protein>
6NUR|6NUR_protein|mol2

> <Gold.PLP.Fitness>
48.8668

> <Gold.PLP.PLP>
-40.8151

> <Gold.PLP.part.hbond>
-2.0000

> <Gold.PLP.part.metal>
0.0000

> <Gold.PLP.part.buried>
-4.8488

> <Gold.PLP.part.nonpolar>
-34.2507

> <Gold.PLP.part.repulsive>
0.3829

> <Gold.PLP.ligand.clash>
0.0000

> <Gold.PLP.ligand.torsion>
0.5001

> <Gold.PLP.Chemscore.Hbond>
3.0000

> <Gold.PLP.Chemscore.CHOScore>
0.0000

> <Gold.PLP.Chemscore.Metal>
0.0000

> <Gold.Chemscore.Hbonds>
donor molecule, donor type, donor heavy atom, donor atom, acceptor molecule, acceptor atom, score
      L1  H     9    43       P1  8028  2.00
      P1  H 10752 10765       L1     3  1.00

> <Gold.PLP.Chemscore.Internal.Correction>
0.0518

> <Gold.Rescore>
     Score         DG    S(hbond)    S(metal)    S(lipo)     H(rot)  DE(clash)    DE(int)     intcor
     18.42     -20.03       1.88        0.00     103.37       1.50       0.06       1.55       ----

> <Gold.Chemscore.Fitness>
18.4164

> <Gold.Chemscore.DG>
-20.0255

> <Gold.Chemscore.ZeroCoef>
-5.4800

> <Gold.Chemscore.Hbond>
1.8834

> <Gold.Chemscore.Metal>
0.0000

> <Gold.Chemscore.Lipo>
103.3736

> <Gold.Chemscore.Internal_Hbond>
0.0000

> <Gold.Chemscore.DEClash>
0.0556

> <Gold.Chemscore.DEInternal>
1.5535

> <Gold.Chemscore.Rot>
1.4999

> <Gold.Chemscore.Internal.Correction>
   9.000000E+99

> <Gold.Chemscore.Hbonds>
donor molecule, donor type, donor heavy atom, donor atom, acceptor molecule, acceptor atom, score
      L1  H     9    43       P1  8028  0.95
      P1  H 10752 10765       L1     3  0.74

> <Gold.Chemscore.Hbond.Weighted>
-6.2905

> <Gold.Chemscore.Metal.Weighted>
-0.0000

> <Gold.Chemscore.Lipo.Weighted>
-12.0947

> <Gold.Chemscore.Internal_Hbond.Weighted>
0.0000

> <Gold.Chemscore.DEClash.Weighted>
0.0556

> <Gold.Chemscore.DEInternal.Weighted>
1.5535

> <Gold.Chemscore.Rot.Weighted>
3.8397

> <Gold.Chemscore.Internal.Correction.Weighted>
   9.000000E+99

> <Gold.Protein.RotatedTorsions>
[ 6907 6896 6895 6894 ] final -134.76 input  -60.11 | X-H torsion
[ 7974 7965 7964 7962 ] final  -73.89 input  175.53 | X-H torsion
[ 8008 7997 7996 7995 ] final  -86.37 input   59.86 | X-H torsion
[ 10167 10162 10161 10158 ] final  104.61 input  -65.29 | X-H torsion
[ 10718 10713 10712 10709 ] final  -47.81 input   66.30 | X-H torsion
[ 10763 10752 10751 10750 ] final  155.20 input  -60.55 | X-H torsion
[ 11005 11000 10999 10996 ] final   10.41 input  -57.11 | X-H torsion

> <Gold.Protein.ActiveResidues>
 VAL166  LYS551  ARG553  GLY616  TRP617  ASP618  TYR619  PRO620  LYS621  CYS622 
 ASP623  PHE694  ASN695  SER759  ASP760  ASP761  ALA762  ILE779  LEU786  VAL792 
 PHE793  MET794  SER795  GLU796  ALA797  LYS798  CYS799  TRP800  GLU811  SER814 

> <Gold.Protein.RotatedAtoms>
  150.9897  133.6161  159.2709 H   0  0  0  0  0  0  0  0  0  0  0  0  # atno 6907 bound_to 6896
  151.3386  135.0857  159.9373 H   0  0  0  0  0  0  0  0  0  0  0  0  # atno 6908 bound_to 6896
  152.5242  133.9513  159.7727 H   0  0  0  0  0  0  0  0  0  0  0  0  # atno 6909 bound_to 6896
  145.6462  140.9296  143.1009 H   0  0  0  0  0  0  0  0  0  0  0  0  # atno 7974 bound_to 7965
  154.6511  140.0579  156.9957 H   0  0  0  0  0  0  0  0  0  0  0  0  # atno 8008 bound_to 7997
  155.1370  140.3262  155.4442 H   0  0  0  0  0  0  0  0  0  0  0  0  # atno 8009 bound_to 7997
  156.2576  140.1971  156.6487 H   0  0  0  0  0  0  0  0  0  0  0  0  # atno 8010 bound_to 7997
  139.7162  144.7068  151.0946 H   0  0  0  0  0  0  0  0  0  0  0  0  # atno 10167 bound_to 10162
  156.2049  130.4158  149.9192 H   0  0  0  0  0  0  0  0  0  0  0  0  # atno 10718 bound_to 10713
  154.1645  135.2808  155.3099 H   0  0  0  0  0  0  0  0  0  0  0  0  # atno 10763 bound_to 10752
  154.6121  135.5495  153.7488 H   0  0  0  0  0  0  0  0  0  0  0  0  # atno 10764 bound_to 10752
  153.0182  135.6418  154.1787 H   0  0  0  0  0  0  0  0  0  0  0  0  # atno 10765 bound_to 10752
  140.5148  134.0616  155.7828 H   0  0  0  0  0  0  0  0  0  0  0  0  # atno 11005 bound_to 11000
  144.7139  139.8268  143.7405 LP  0  0  0  0  0  0  0  0  0  0  0  0  # atno 17320 bound_to 7965
  146.1241  139.4264  143.0210 LP  0  0  0  0  0  0  0  0  0  0  0  0  # atno 17321 bound_to 7965
  140.7744  143.5226  150.9518 LP  0  0  0  0  0  0  0  0  0  0  0  0  # atno 17342 bound_to 10162
  139.8912  143.6951  152.3145 LP  0  0  0  0  0  0  0  0  0  0  0  0  # atno 17343 bound_to 10162
  156.6889  130.8888  151.3585 LP  0  0  0  0  0  0  0  0  0  0  0  0  # atno 17370 bound_to 10713
  157.7006  130.9329  150.0775 LP  0  0  0  0  0  0  0  0  0  0  0  0  # atno 17371 bound_to 10713
  141.1366  133.9211  157.2420 LP  0  0  0  0  0  0  0  0  0  0  0  0  # atno 17394 bound_to 11000
  139.9638  135.0147  156.9333 LP  0  0  0  0  0  0  0  0  0  0  0  0  # atno 17395 bound_to 11000

$$$$
