AV-unprocessed.smi:2817|AV-procd|sdf|10847|dock9
  -GOLD-   2272015293D 1   1.00000     0.00000
 Structure written by MMmdl.
 42 44  0  0  0  0  0  0  0  0  1 V2000
  149.8319  140.0214  154.7337 O   0  0  0  0  0  0  0  0  0  0  0  0
  150.4911  140.1512  155.7654 C   0  0  0  0  0  0  0  0  0  0  0  0
  150.6036  141.4264  156.4738 C   0  0  0  0  0  0  0  0  0  0  0  0
  151.3428  141.5294  157.6042 C   0  0  0  0  0  0  0  0  0  0  0  0
  151.4981  142.8485  158.3485 C   0  0  0  0  0  0  0  0  0  0  0  0
  151.1447  144.1166  157.5541 C   0  0  0  0  0  0  0  0  0  0  0  0
  152.3336  144.7998  158.2390 C   0  0  0  0  0  0  0  0  0  0  0  0
  152.9289  143.4034  158.4512 C   0  0  0  0  0  0  0  0  0  0  0  0
  152.0243  140.4175  158.1128 N   0  0  0  0  0  0  0  0  0  0  0  0
  151.9403  139.2773  157.5049 C   0  0  0  0  0  0  0  0  0  0  0  0
  151.1776  139.1167  156.3325 N   0  0  0  0  0  0  0  0  0  0  0  0
  151.1677  137.7703  155.7381 C   0  0  0  0  0  0  0  0  0  0  0  0
  150.9731  136.6638  156.7990 C   0  0  1  0  0  0  0  0  0  0  0  0
  149.8133  136.9129  157.5681 O   0  0  0  0  0  0  0  0  0  0  0  0
  150.8381  135.2586  156.1877 C   0  0  0  0  0  0  0  0  0  0  0  0
  149.5819  135.1311  155.5319 O   0  0  0  0  0  0  0  0  0  0  0  0
  149.1672  133.8735  155.1504 C   0  0  0  0  0  0  0  0  0  0  0  0
  147.9537  133.7901  154.4367 C   0  0  0  0  0  0  0  0  0  0  0  0
  147.4531  132.5459  154.0077 C   0  0  0  0  0  0  0  0  0  0  0  0
  148.1656  131.3661  154.2902 C   0  0  0  0  0  0  0  0  0  0  0  0
  149.3782  131.4343  155.0010 C   0  0  0  0  0  0  0  0  0  0  0  0
  149.8790  132.6790  155.4296 C   0  0  0  0  0  0  0  0  0  0  0  0
  150.0873  142.2911  156.0827 H   0  0  0  0  0  0  0  0  0  0  0  0
  151.0011  142.8254  159.3200 H   0  0  0  0  0  0  0  0  0  0  0  0
  151.2900  144.0120  156.4772 H   0  0  0  0  0  0  0  0  0  0  0  0
  150.1715  144.5478  157.7904 H   0  0  0  0  0  0  0  0  0  0  0  0
  152.9196  145.4541  157.5931 H   0  0  0  0  0  0  0  0  0  0  0  0
  152.0597  145.2907  159.1744 H   0  0  0  0  0  0  0  0  0  0  0  0
  153.4093  143.2531  159.4183 H   0  0  0  0  0  0  0  0  0  0  0  0
  153.5767  143.0996  157.6267 H   0  0  0  0  0  0  0  0  0  0  0  0
  152.4537  138.3811  157.8572 H   0  0  0  0  0  0  0  0  0  0  0  0
  150.4188  137.6778  154.9486 H   0  0  0  0  0  0  0  0  0  0  0  0
  152.1189  137.6132  155.2259 H   0  0  0  0  0  0  0  0  0  0  0  0
  151.8197  136.6456  157.4864 H   0  0  0  0  0  0  0  0  0  0  0  0
  149.0637  136.9100  156.9929 H   0  0  0  0  0  0  0  0  0  0  0  0
  151.6340  135.1185  155.4543 H   0  0  0  0  0  0  0  0  0  0  0  0
  150.9609  134.4961  156.9589 H   0  0  0  0  0  0  0  0  0  0  0  0
  147.4001  134.6910  154.2159 H   0  0  0  0  0  0  0  0  0  0  0  0
  146.5222  132.4977  153.4623 H   0  0  0  0  0  0  0  0  0  0  0  0
  147.7829  130.4107  153.9626 H   0  0  0  0  0  0  0  0  0  0  0  0
  149.9269  130.5298  155.2185 H   0  0  0  0  0  0  0  0  0  0  0  0
  150.8124  132.6900  155.9716 H   0  0  0  0  0  0  0  0  0  0  0  0
  1  2  2  0  0  0  0
  2 11  1  0  0  0  0
  2  3  1  0  0  0  0
  3  4  2  0  0  0  0
  3 23  1  0  0  0  0
  4  5  1  0  0  0  0
  4  9  1  0  0  0  0
  5  8  1  0  0  0  0
  5  6  1  0  0  0  0
  5 24  1  0  0  0  0
  6  7  1  0  0  0  0
  6 25  1  0  0  0  0
  6 26  1  0  0  0  0
  7  8  1  0  0  0  0
  7 27  1  0  0  0  0
  7 28  1  0  0  0  0
  8 29  1  0  0  0  0
  8 30  1  0  0  0  0
  9 10  2  0  0  0  0
 10 11  1  0  0  0  0
 10 31  1  0  0  0  0
 11 12  1  0  0  0  0
 12 13  1  0  0  0  0
 12 32  1  0  0  0  0
 12 33  1  0  0  0  0
 13 14  1  0  0  0  0
 13 15  1  0  0  0  0
 13 34  1  0  0  0  0
 14 35  1  0  0  0  0
 15 16  1  0  0  0  0
 15 36  1  0  0  0  0
 15 37  1  0  0  0  0
 16 17  1  0  0  0  0
 17 22  1  0  0  0  0
 17 18  2  0  0  0  0
 18 19  1  0  0  0  0
 18 38  1  0  0  0  0
 19 20  2  0  0  0  0
 19 39  1  0  0  0  0
 20 21  1  0  0  0  0
 20 40  1  0  0  0  0
 21 22  2  0  0  0  0
 21 41  1  0  0  0  0
 22 42  1  0  0  0  0
M  END
> <s_m_source_file>
AV-unprocessed.smi

> <i_m_source_file_index>
2817

> <i_lp_mmshare_version>
43012

> <i_f3d_flags>
0

> <s_epik_input>
W0NIMl0xW0NIMl1bQ0gyXVtDSF0xYyhbY0hdYzI9TyluW2NIXW4yW0NIMl1bQ0BIXShbT0hdKVtDSDJdT2MzW2NIXVtjSF1bY0hdW2NIXVtjSF0z

> <s_epik_cmdline>
J2VwaWtfcHl0aG9uJywgJy1waCcsICc3LjAnLCAnLXRuJywgJzgnLCAnLW1hJywgJzIwMCcsICctbWV0YWxfYmluZGluZycsICctaW1hZScsICc8aW5maWxlLm1hZT4nLCAnLW9tYWUnLCAnPG91dGZpbGUubWFlPic=

> <r_lp_tautomer_probability>
1

> <r_epik_Ionization_Penalty>
2.12778e-05

> <r_epik_Ionization_Penalty_Charging>
7.42033e-08

> <r_epik_Ionization_Penalty_Neutral>
2.12036e-05

> <r_epik_State_Penalty>
-0

> <r_epik_Charging_Adjusted_Penalty>
7.42033e-08

> <i_epik_Tot_Q>
0

> <i_epik_Tot_abs_Q>
0

> <r_epik_Metal_State_Penalty>
-0

> <b_epik_Metal_Only>
0

> <s_lp_Force_Field>
OPLS_2005

> <r_lp_Energy>
33.1228

> <b_lp_Chiralities_Consistent>
1

> <s_lp_Variant>
AV-unprocessed.smi:2817-2

> <Gold.Version>
5.8.1

> <Gold.Id.Protein>
6NUR|6NUR_protein|mol2

> <Gold.PLP.Fitness>
46.6360

> <Gold.PLP.PLP>
-44.2864

> <Gold.PLP.part.hbond>
-1.0000

> <Gold.PLP.part.metal>
0.0000

> <Gold.PLP.part.buried>
-4.6494

> <Gold.PLP.part.nonpolar>
-38.6319

> <Gold.PLP.part.repulsive>
0.1959

> <Gold.PLP.ligand.clash>
0.0000

> <Gold.PLP.ligand.torsion>
0.5740

> <Gold.PLP.Chemscore.Hbond>
1.0000

> <Gold.PLP.Chemscore.CHOScore>
0.0000

> <Gold.PLP.Chemscore.Metal>
0.0000

> <Gold.Chemscore.Hbonds>
donor molecule, donor type, donor heavy atom, donor atom, acceptor molecule, acceptor atom, score
      P1  H  7989  7998       L1     1  0.11

> <Gold.PLP.Chemscore.Internal.Correction>
0.4976

> <Gold.Rescore>
     Score         DG    S(hbond)    S(metal)    S(lipo)     H(rot)  DE(clash)    DE(int)     intcor
     14.63     -15.32       0.99        0.00     108.83       2.42       0.02       0.67       ----

> <Gold.Chemscore.Fitness>
14.6304

> <Gold.Chemscore.DG>
-15.3165

> <Gold.Chemscore.ZeroCoef>
-5.4800

> <Gold.Chemscore.Hbond>
0.9911

> <Gold.Chemscore.Metal>
0.0000

> <Gold.Chemscore.Lipo>
108.8286

> <Gold.Chemscore.Internal_Hbond>
0.0000

> <Gold.Chemscore.DEClash>
0.0154

> <Gold.Chemscore.DEInternal>
0.6707

> <Gold.Chemscore.Rot>
2.4245

> <Gold.Chemscore.Internal.Correction>
   9.000000E+99

> <Gold.Chemscore.Hbonds>
donor molecule, donor type, donor heavy atom, donor atom, acceptor molecule, acceptor atom, score
      P1  H  7989  7998       L1     1  0.01

> <Gold.Chemscore.Hbond.Weighted>
-3.3102

> <Gold.Chemscore.Metal.Weighted>
-0.0000

> <Gold.Chemscore.Lipo.Weighted>
-12.7329

> <Gold.Chemscore.Internal_Hbond.Weighted>
0.0000

> <Gold.Chemscore.DEClash.Weighted>
0.0154

> <Gold.Chemscore.DEInternal.Weighted>
0.6707

> <Gold.Chemscore.Rot.Weighted>
6.2066

> <Gold.Chemscore.Internal.Correction.Weighted>
   9.000000E+99

> <Gold.Protein.RotatedTorsions>
[ 6907 6896 6895 6894 ] final  112.96 input  -60.11 | X-H torsion
[ 7974 7965 7964 7962 ] final  -22.52 input  175.53 | X-H torsion
[ 8008 7997 7996 7995 ] final  176.90 input   59.86 | X-H torsion
[ 10167 10162 10161 10158 ] final  112.24 input  -65.29 | X-H torsion
[ 10718 10713 10712 10709 ] final  121.35 input   66.30 | X-H torsion
[ 10763 10752 10751 10750 ] final   93.07 input  -60.55 | X-H torsion
[ 11005 11000 10999 10996 ] final  -61.36 input  -57.11 | X-H torsion

> <Gold.Protein.ActiveResidues>
 VAL166  LYS551  ARG553  GLY616  TRP617  ASP618  TYR619  PRO620  LYS621  CYS622 
 ASP623  PHE694  ASN695  SER759  ASP760  ASP761  ALA762  ILE779  LEU786  VAL792 
 PHE793  MET794  SER795  GLU796  ALA797  LYS798  CYS799  TRP800  GLU811  SER814 

> <Gold.Protein.RotatedAtoms>
  152.4887  133.8442  159.7167 H   0  0  0  0  0  0  0  0  0  0  0  0  # atno 6907 bound_to 6896
  150.8997  133.7125  159.2889 H   0  0  0  0  0  0  0  0  0  0  0  0  # atno 6908 bound_to 6896
  151.4571  135.1039  159.9766 H   0  0  0  0  0  0  0  0  0  0  0  0  # atno 6909 bound_to 6896
  146.1670  140.4491  142.8548 H   0  0  0  0  0  0  0  0  0  0  0  0  # atno 7974 bound_to 7965
  156.0715  140.1372  156.9822 H   0  0  0  0  0  0  0  0  0  0  0  0  # atno 8008 bound_to 7997
  154.4534  140.0971  156.6738 H   0  0  0  0  0  0  0  0  0  0  0  0  # atno 8009 bound_to 7997
  155.5220  140.3456  155.4411 H   0  0  0  0  0  0  0  0  0  0  0  0  # atno 8010 bound_to 7997
  139.6551  144.7129  151.1973 H   0  0  0  0  0  0  0  0  0  0  0  0  # atno 10167 bound_to 10162
  157.5824  131.1073  150.8162 H   0  0  0  0  0  0  0  0  0  0  0  0  # atno 10718 bound_to 10713
  153.2262  135.4338  155.0544 H   0  0  0  0  0  0  0  0  0  0  0  0  # atno 10763 bound_to 10752
  154.8274  135.3368  154.6854 H   0  0  0  0  0  0  0  0  0  0  0  0  # atno 10764 bound_to 10752
  153.7284  135.7012  153.5051 H   0  0  0  0  0  0  0  0  0  0  0  0  # atno 10765 bound_to 10752
  141.1321  133.6629  156.5363 H   0  0  0  0  0  0  0  0  0  0  0  0  # atno 11005 bound_to 11000
  144.8107  140.6381  143.6417 LP  0  0  0  0  0  0  0  0  0  0  0  0  # atno 17320 bound_to 7965
  145.4440  139.1532  143.3955 LP  0  0  0  0  0  0  0  0  0  0  0  0  # atno 17321 bound_to 7965
  140.7555  143.6086  150.8628 LP  0  0  0  0  0  0  0  0  0  0  0  0  # atno 17342 bound_to 10162
  139.9738  143.6027  152.2965 LP  0  0  0  0  0  0  0  0  0  0  0  0  # atno 17343 bound_to 10162
  156.8604  130.5111  149.5304 LP  0  0  0  0  0  0  0  0  0  0  0  0  # atno 17370 bound_to 10713
  156.0870  130.5866  150.9666 LP  0  0  0  0  0  0  0  0  0  0  0  0  # atno 17371 bound_to 10713
  140.4175  134.7217  157.4871 LP  0  0  0  0  0  0  0  0  0  0  0  0  # atno 17394 bound_to 11000
  140.0383  134.6304  155.9014 LP  0  0  0  0  0  0  0  0  0  0  0  0  # atno 17395 bound_to 11000

$$$$
