AV-unprocessed.smi:3126|AV-procd|sdf|11913|dock1
  -GOLD-   2272017293D 1   1.00000     0.00000
 Structure written by MMmdl.
 42 43  0  0  0  0  0  0  0  0  2 V2000
  154.1344  141.2206  160.0818 C   0  0  0  0  0  0  0  0  0  0  0  0
  153.6176  142.5100  160.7343 C   0  0  0  0  0  0  0  0  0  0  0  0
  152.8280  143.4279  159.7788 C   0  0  1  0  0  0  0  0  0  0  0  0
  152.6037  144.8375  160.3665 C   0  0  0  0  0  0  0  0  0  0  0  0
  151.8376  145.7461  159.3924 C   0  0  0  0  0  0  0  0  0  0  0  0
  152.5491  145.8414  158.0330 C   0  0  0  0  0  0  0  0  0  0  0  0
  152.8108  144.4542  157.4175 C   0  0  2  0  0  0  0  0  0  0  0  0
  151.5483  143.8332  156.9564 N   0  3  0  0  0  0  0  0  0  0  0  0
  151.6519  142.4049  156.5988 C   0  0  0  0  0  0  0  0  0  0  0  0
  150.4738  141.9720  155.7170 C   0  0  0  0  0  0  0  0  0  0  0  0
  150.6999  140.6082  155.0953 C   0  0  0  0  0  0  0  0  0  0  0  0
  149.7316  140.0297  154.2488 C   0  0  0  0  0  0  0  0  0  0  0  0
  149.9834  138.7584  153.6988 C   0  0  0  0  0  0  0  0  0  0  0  0
  151.1963  138.1170  154.0200 C   0  0  0  0  0  0  0  0  0  0  0  0
  152.1299  138.6607  154.8303 N   0  0  0  0  0  0  0  0  0  0  0  0
  151.8816  139.8807  155.3524 C   0  0  0  0  0  0  0  0  0  0  0  0
  153.5421  143.5328  158.4133 C   0  0  0  0  0  0  0  0  0  0  0  0
  154.7434  140.6524  160.7852 H   0  0  0  0  0  0  0  0  0  0  0  0
  154.7538  141.4392  159.2115 H   0  0  0  0  0  0  0  0  0  0  0  0
  153.3181  140.5733  159.7627 H   0  0  0  0  0  0  0  0  0  0  0  0
  153.0051  142.2602  161.6017 H   0  0  0  0  0  0  0  0  0  0  0  0
  154.4780  143.0561  161.1226 H   0  0  0  0  0  0  0  0  0  0  0  0
  151.8520  142.9695  159.6118 H   0  0  0  0  0  0  0  0  0  0  0  0
  152.0472  144.7771  161.3013 H   0  0  0  0  0  0  0  0  0  0  0  0
  153.5647  145.2932  160.6094 H   0  0  0  0  0  0  0  0  0  0  0  0
  150.8254  145.3641  159.2548 H   0  0  0  0  0  0  0  0  0  0  0  0
  151.7324  146.7422  159.8234 H   0  0  0  0  0  0  0  0  0  0  0  0
  151.9688  146.4589  157.3461 H   0  0  0  0  0  0  0  0  0  0  0  0
  153.5018  146.3548  158.1696 H   0  0  0  0  0  0  0  0  0  0  0  0
  153.4650  144.5905  156.5549 H   0  0  0  0  0  0  0  0  0  0  0  0
  150.8650  143.9247  157.6947 H   0  0  0  0  0  0  0  0  0  0  0  0
  152.5944  142.2313  156.0770 H   0  0  0  0  0  0  0  0  0  0  0  0
  151.6712  141.8099  157.5132 H   0  0  0  0  0  0  0  0  0  0  0  0
  149.5551  141.9452  156.3049 H   0  0  0  0  0  0  0  0  0  0  0  0
  150.3107  142.7020  154.9226 H   0  0  0  0  0  0  0  0  0  0  0  0
  148.8111  140.5488  154.0252 H   0  0  0  0  0  0  0  0  0  0  0  0
  149.2647  138.2853  153.0458 H   0  0  0  0  0  0  0  0  0  0  0  0
  151.4217  137.1412  153.6156 H   0  0  0  0  0  0  0  0  0  0  0  0
  152.6476  140.2862  155.9969 H   0  0  0  0  0  0  0  0  0  0  0  0
  154.5519  143.9152  158.5700 H   0  0  0  0  0  0  0  0  0  0  0  0
  153.6630  142.5415  157.9740 H   0  0  0  0  0  0  0  0  0  0  0  0
  151.2175  144.3456  156.1511 H   0  0  0  0  0  0  0  0  0  0  0  0
  1  2  1  0  0  0  0
  1 18  1  0  0  0  0
  1 19  1  0  0  0  0
  1 20  1  0  0  0  0
  2  3  1  0  0  0  0
  2 21  1  0  0  0  0
  2 22  1  0  0  0  0
  3 17  1  0  0  0  0
  3  4  1  0  0  0  0
  3 23  1  0  0  0  0
  4  5  1  0  0  0  0
  4 24  1  0  0  0  0
  4 25  1  0  0  0  0
  5  6  1  0  0  0  0
  5 26  1  0  0  0  0
  5 27  1  0  0  0  0
  6  7  1  0  0  0  0
  6 28  1  0  0  0  0
  6 29  1  0  0  0  0
  7  8  1  0  0  0  0
  7 17  1  0  0  0  0
  7 30  1  0  0  0  0
  8  9  1  0  0  0  0
  8 31  1  0  0  0  0
  8 42  1  0  0  0  0
  9 10  1  0  0  0  0
  9 32  1  0  0  0  0
  9 33  1  0  0  0  0
 10 11  1  0  0  0  0
 10 34  1  0  0  0  0
 10 35  1  0  0  0  0
 11 16  1  0  0  0  0
 11 12  2  0  0  0  0
 12 13  1  0  0  0  0
 12 36  1  0  0  0  0
 13 14  2  0  0  0  0
 13 37  1  0  0  0  0
 14 15  1  0  0  0  0
 14 38  1  0  0  0  0
 15 16  2  0  0  0  0
 16 39  1  0  0  0  0
 17 40  1  0  0  0  0
 17 41  1  0  0  0  0
M  CHG  1   8   1
M  END
> <s_m_source_file>
AV-unprocessed.smi

> <i_m_source_file_index>
3126

> <i_lp_mmshare_version>
43012

> <i_f3d_flags>
0

> <s_epik_input>
W0NIM11bQ0gyXVtDQEBIXTFbQ0gyXVtDSDJdW0NIMl1bQ0BIXShbQ0gyXTEpW05IXVtDSDJdW0NIMl1jMltjSF1bY0hdW2NIXW5bY0hdMg==

> <s_epik_cmdline>
J2VwaWtfcHl0aG9uJywgJy1waCcsICc3LjAnLCAnLXRuJywgJzgnLCAnLW1hJywgJzIwMCcsICctbWV0YWxfYmluZGluZycsICctaW1hZScsICc8aW5maWxlLm1hZT4nLCAnLW9tYWUnLCAnPG91dGZpbGUubWFlPic=

> <r_lp_tautomer_probability>
1

> <r_epik_Ionization_Penalty>
0.000947364

> <r_epik_Ionization_Penalty_Charging>
0.000286103

> <r_epik_Ionization_Penalty_Neutral>
0.000661261

> <r_epik_State_Penalty>
-0

> <r_epik_Charging_Adjusted_Penalty>
0.000286103

> <i_epik_Tot_Q>
1

> <i_epik_Tot_abs_Q>
1

> <r_epik_Metal_State_Penalty>
-0

> <b_epik_Metal_Only>
0

> <s_lp_Force_Field>
OPLS_2005

> <r_lp_Energy>
19.3892

> <b_lp_Chiralities_Consistent>
1

> <s_lp_Variant>
AV-unprocessed.smi:3126-4

> <Gold.Version>
5.8.1

> <Gold.Id.Protein>
6NUR|6NUR_protein|mol2

> <Gold.PLP.Fitness>
57.1899

> <Gold.PLP.PLP>
-48.8370

> <Gold.PLP.part.hbond>
-1.0000

> <Gold.PLP.part.metal>
0.0000

> <Gold.PLP.part.buried>
-2.8714

> <Gold.PLP.part.nonpolar>
-44.7130

> <Gold.PLP.part.repulsive>
0.0301

> <Gold.PLP.ligand.clash>
0.0000

> <Gold.PLP.ligand.torsion>
0.3184

> <Gold.PLP.Chemscore.Hbond>
1.9825

> <Gold.PLP.Chemscore.CHOScore>
1.0000

> <Gold.PLP.Chemscore.Metal>
0.0000

> <Gold.Chemscore.Hbonds>
donor molecule, donor type, donor heavy atom, donor atom, acceptor molecule, acceptor atom, score
      L1  H     8    42       P1  8028  0.13
      L1  C    14    38       P1  7949  1.00

> <Gold.PLP.Chemscore.Internal.Correction>
0.0421

> <Gold.Rescore>
     Score         DG    S(hbond)    S(metal)    S(lipo)     H(rot)  DE(clash)    DE(int)     intcor
     20.90     -21.55       0.98        0.00     138.91       1.35       0.06       0.59       ----

> <Gold.Chemscore.Fitness>
20.9010

> <Gold.Chemscore.DG>
-21.5501

> <Gold.Chemscore.ZeroCoef>
-5.4800

> <Gold.Chemscore.Hbond>
0.9808

> <Gold.Chemscore.Metal>
0.0000

> <Gold.Chemscore.Lipo>
138.9077

> <Gold.Chemscore.Internal_Hbond>
0.0000

> <Gold.Chemscore.DEClash>
0.0599

> <Gold.Chemscore.DEInternal>
0.5892

> <Gold.Chemscore.Rot>
1.3507

> <Gold.Chemscore.Internal.Correction>
   9.000000E+99

> <Gold.Chemscore.Hbonds>
donor molecule, donor type, donor heavy atom, donor atom, acceptor molecule, acceptor atom, score
      L1  H     8    42       P1  8028  0.08

> <Gold.Chemscore.Hbond.Weighted>
-3.2758

> <Gold.Chemscore.Metal.Weighted>
-0.0000

> <Gold.Chemscore.Lipo.Weighted>
-16.2522

> <Gold.Chemscore.Internal_Hbond.Weighted>
0.0000

> <Gold.Chemscore.DEClash.Weighted>
0.0599

> <Gold.Chemscore.DEInternal.Weighted>
0.5892

> <Gold.Chemscore.Rot.Weighted>
3.4579

> <Gold.Chemscore.Internal.Correction.Weighted>
   9.000000E+99

> <Gold.Protein.RotatedTorsions>
[ 6907 6896 6895 6894 ] final -141.29 input  -60.11 | X-H torsion
[ 7974 7965 7964 7962 ] final -109.23 input  175.53 | X-H torsion
[ 8008 7997 7996 7995 ] final   35.51 input   59.86 | X-H torsion
[ 10167 10162 10161 10158 ] final  -53.38 input  -65.29 | X-H torsion
[ 10718 10713 10712 10709 ] final  -79.53 input   66.30 | X-H torsion
[ 10763 10752 10751 10750 ] final   24.34 input  -60.55 | X-H torsion
[ 11005 11000 10999 10996 ] final -173.19 input  -57.11 | X-H torsion

> <Gold.Protein.ActiveResidues>
 VAL166  LYS551  ARG553  GLY616  TRP617  ASP618  TYR619  PRO620  LYS621  CYS622 
 ASP623  PHE694  ASN695  SER759  ASP760  ASP761  ALA762  ILE779  LEU786  VAL792 
 PHE793  MET794  SER795  GLU796  ALA797  LYS798  CYS799  TRP800  GLU811  SER814 

> <Gold.Protein.RotatedAtoms>
  151.0718  133.5460  159.2626 H   0  0  0  0  0  0  0  0  0  0  0  0  # atno 6907 bound_to 6896
  151.2396  135.0583  159.9029 H   0  0  0  0  0  0  0  0  0  0  0  0  # atno 6908 bound_to 6896
  152.5412  134.0495  159.8157 H   0  0  0  0  0  0  0  0  0  0  0  0  # atno 6909 bound_to 6896
  145.1831  140.8980  143.3468 H   0  0  0  0  0  0  0  0  0  0  0  0  # atno 7974 bound_to 7965
  155.1723  140.3293  155.4390 H   0  0  0  0  0  0  0  0  0  0  0  0  # atno 8008 bound_to 7997
  156.2506  140.1941  156.6776 H   0  0  0  0  0  0  0  0  0  0  0  0  # atno 8009 bound_to 7997
  154.6329  140.0580  156.9740 H   0  0  0  0  0  0  0  0  0  0  0  0  # atno 8010 bound_to 7997
  140.6488  143.2552  151.4784 H   0  0  0  0  0  0  0  0  0  0  0  0  # atno 10167 bound_to 10162
  156.0090  130.4548  150.3662 H   0  0  0  0  0  0  0  0  0  0  0  0  # atno 10718 bound_to 10713
  153.0771  135.6607  154.0123 H   0  0  0  0  0  0  0  0  0  0  0  0  # atno 10763 bound_to 10752
  153.9754  135.2960  155.3425 H   0  0  0  0  0  0  0  0  0  0  0  0  # atno 10764 bound_to 10752
  154.7162  135.5184  153.8811 H   0  0  0  0  0  0  0  0  0  0  0  0  # atno 10765 bound_to 10752
  140.4885  134.6007  157.4946 H   0  0  0  0  0  0  0  0  0  0  0  0  # atno 11005 bound_to 11000
  145.0117  139.3504  143.6117 LP  0  0  0  0  0  0  0  0  0  0  0  0  # atno 17320 bound_to 7965
  146.3450  139.9381  142.8744 LP  0  0  0  0  0  0  0  0  0  0  0  0  # atno 17321 bound_to 7965
  139.5701  144.1950  152.1823 LP  0  0  0  0  0  0  0  0  0  0  0  0  # atno 17342 bound_to 10162
  140.1243  144.5345  150.6843 LP  0  0  0  0  0  0  0  0  0  0  0  0  # atno 17343 bound_to 10162
  157.1749  131.0378  151.2777 LP  0  0  0  0  0  0  0  0  0  0  0  0  # atno 17370 bound_to 10713
  157.4197  130.7430  149.6903 LP  0  0  0  0  0  0  0  0  0  0  0  0  # atno 17371 bound_to 10713
  139.9783  134.7179  155.9907 LP  0  0  0  0  0  0  0  0  0  0  0  0  # atno 17394 bound_to 11000
  141.1496  133.6550  156.3971 LP  0  0  0  0  0  0  0  0  0  0  0  0  # atno 17395 bound_to 11000

$$$$
