AV-unprocessed.smi:1769|AV-procd|sdf|7154|dock2
  -GOLD-   22720 8393D 1   1.00000     0.00000
 Structure written by MMmdl.
 42 43  0  0  0  0  0  0  0  0  2 V2000
  150.4581  141.0883  155.8355 C   0  0  0  0  0  0  0  0  0  0  0  0
  151.3563  139.8741  155.5884 C   0  0  0  0  0  0  0  0  0  0  0  0
  152.4843  139.8777  156.0823 O   0  0  0  0  0  0  0  0  0  0  0  0
  150.8891  138.8457  154.8405 N   0  0  0  0  0  0  0  0  0  0  0  0
  151.6015  137.5875  154.5825 C   0  0  0  0  0  0  0  0  0  0  0  0
  150.9022  136.4553  155.3567 C   0  0  0  0  0  0  0  0  0  0  0  0
  149.4087  136.3706  154.9854 C   0  0  0  0  0  0  0  0  0  0  0  0
  148.7140  137.7480  155.0968 C   0  0  2  0  0  0  0  0  0  0  0  0
  147.2669  137.6943  154.5934 C   0  0  0  0  0  0  0  0  0  0  0  0
  146.3345  137.9497  155.3565 O   0  0  0  0  0  0  0  0  0  0  0  0
  147.0923  137.3249  153.3140 N   0  0  0  0  0  0  0  0  0  0  0  0
  145.8032  137.1140  152.6595 C   0  0  0  0  0  0  0  0  0  0  0  0
  145.9591  136.6842  151.1868 C   0  0  0  0  0  0  0  0  0  0  0  0
  145.3542  135.3242  150.8813 C   0  0  0  0  0  0  0  0  0  0  0  0
  146.0366  134.1360  151.2271 C   0  0  0  0  0  0  0  0  0  0  0  0
  145.4310  132.8892  150.9668 C   0  0  0  0  0  0  0  0  0  0  0  0
  144.1581  132.8580  150.3617 C   0  0  0  0  0  0  0  0  0  0  0  0
  143.5383  134.0146  150.0395 N   0  3  0  0  0  0  0  0  0  0  0  0
  144.0839  135.2283  150.2733 C   0  0  0  0  0  0  0  0  0  0  0  0
  149.5198  138.8091  154.3145 C   0  0  0  0  0  0  0  0  0  0  0  0
  150.1617  141.5499  154.8932 H   0  0  0  0  0  0  0  0  0  0  0  0
  150.9830  141.8420  156.4237 H   0  0  0  0  0  0  0  0  0  0  0  0
  149.5630  140.7996  156.3868 H   0  0  0  0  0  0  0  0  0  0  0  0
  151.5770  137.3762  153.5124 H   0  0  0  0  0  0  0  0  0  0  0  0
  152.6574  137.6210  154.8469 H   0  0  0  0  0  0  0  0  0  0  0  0
  151.3914  135.5028  155.1519 H   0  0  0  0  0  0  0  0  0  0  0  0
  151.0039  136.6313  156.4284 H   0  0  0  0  0  0  0  0  0  0  0  0
  149.3242  135.9923  153.9653 H   0  0  0  0  0  0  0  0  0  0  0  0
  148.9100  135.6418  155.6257 H   0  0  0  0  0  0  0  0  0  0  0  0
  148.7019  138.0372  156.1498 H   0  0  0  0  0  0  0  0  0  0  0  0
  147.9171  137.1402  152.7609 H   0  0  0  0  0  0  0  0  0  0  0  0
  145.2128  136.3763  153.2053 H   0  0  0  0  0  0  0  0  0  0  0  0
  145.2405  138.0465  152.7092 H   0  0  0  0  0  0  0  0  0  0  0  0
  145.4929  137.4271  150.5388 H   0  0  0  0  0  0  0  0  0  0  0  0
  147.0165  136.6721  150.9191 H   0  0  0  0  0  0  0  0  0  0  0  0
  147.0061  134.1769  151.7020 H   0  0  0  0  0  0  0  0  0  0  0  0
  145.9340  131.9711  151.2333 H   0  0  0  0  0  0  0  0  0  0  0  0
  143.6199  131.9507  150.1294 H   0  0  0  0  0  0  0  0  0  0  0  0
  143.4859  136.0793  149.9817 H   0  0  0  0  0  0  0  0  0  0  0  0
  149.0257  139.7800  154.3737 H   0  0  0  0  0  0  0  0  0  0  0  0
  149.5530  138.5618  153.2518 H   0  0  0  0  0  0  0  0  0  0  0  0
  142.6165  133.9701  149.6047 H   0  0  0  0  0  0  0  0  0  0  0  0
  1  2  1  0  0  0  0
  1 21  1  0  0  0  0
  1 22  1  0  0  0  0
  1 23  1  0  0  0  0
  2  3  2  0  0  0  0
  2  4  1  0  0  0  0
  4 20  1  0  0  0  0
  4  5  1  0  0  0  0
  5  6  1  0  0  0  0
  5 24  1  0  0  0  0
  5 25  1  0  0  0  0
  6  7  1  0  0  0  0
  6 26  1  0  0  0  0
  6 27  1  0  0  0  0
  7  8  1  0  0  0  0
  7 28  1  0  0  0  0
  7 29  1  0  0  0  0
  8  9  1  0  0  0  0
  8 20  1  0  0  0  0
  8 30  1  0  0  0  0
  9 10  2  0  0  0  0
  9 11  1  0  0  0  0
 11 12  1  0  0  0  0
 11 31  1  0  0  0  0
 12 13  1  0  0  0  0
 12 32  1  0  0  0  0
 12 33  1  0  0  0  0
 13 14  1  0  0  0  0
 13 34  1  0  0  0  0
 13 35  1  0  0  0  0
 14 19  1  0  0  0  0
 14 15  2  0  0  0  0
 15 16  1  0  0  0  0
 15 36  1  0  0  0  0
 16 17  2  0  0  0  0
 16 37  1  0  0  0  0
 17 18  1  0  0  0  0
 17 38  1  0  0  0  0
 18 19  2  0  0  0  0
 18 42  1  0  0  0  0
 19 39  1  0  0  0  0
 20 40  1  0  0  0  0
 20 41  1  0  0  0  0
M  CHG  1  18   1
M  END
> <s_m_source_file>
AV-unprocessed.smi

> <i_m_source_file_index>
1769

> <i_lp_mmshare_version>
43012

> <i_f3d_flags>
0

> <s_epik_input>
W0NIM11DKD1PKU4xW0NIMl1bQ0gyXVtDSDJdW0NASF0oW0NIMl0xKUMoPU8pW05IXVtDSDJdW0NIMl1jMltjSF1bY0hdW2NIXW5bY0hdMg==

> <s_epik_cmdline>
J2VwaWtfcHl0aG9uJywgJy1waCcsICc3LjAnLCAnLXRuJywgJzgnLCAnLW1hJywgJzIwMCcsICctbWV0YWxfYmluZGluZycsICctaW1hZScsICc8aW5maWxlLm1hZT4nLCAnLW9tYWUnLCAnPG91dGZpbGUubWFlPic=

> <r_epik_Ionization_Penalty>
2.25127

> <r_epik_Ionization_Penalty_Charging>
2.25127

> <r_epik_Ionization_Penalty_Neutral>
1.02261e-06

> <r_epik_State_Penalty>
2.39841

> <r_epik_Charging_Adjusted_Penalty>
4.64968

> <i_epik_Tot_Q>
1

> <i_epik_Tot_abs_Q>
1

> <r_epik_Metal_State_Penalty>
2.41159

> <b_epik_Metal_Only>
0

> <s_lp_Force_Field>
OPLS_2005

> <r_lp_Energy>
29.6354

> <b_lp_Chiralities_Consistent>
1

> <s_lp_Variant>
AV-unprocessed.smi:1769-4

> <Gold.Version>
5.8.1

> <Gold.Id.Protein>
6NUR|6NUR_protein|mol2

> <Gold.PLP.Fitness>
46.3385

> <Gold.PLP.PLP>
-35.6249

> <Gold.PLP.part.hbond>
-3.0000

> <Gold.PLP.part.metal>
0.0000

> <Gold.PLP.part.buried>
-1.2985

> <Gold.PLP.part.nonpolar>
-32.1947

> <Gold.PLP.part.repulsive>
0.0782

> <Gold.PLP.ligand.clash>
0.0000

> <Gold.PLP.ligand.torsion>
0.6572

> <Gold.PLP.Chemscore.Hbond>
4.0000

> <Gold.PLP.Chemscore.CHOScore>
0.0000

> <Gold.PLP.Chemscore.Metal>
0.0000

> <Gold.Chemscore.Hbonds>
donor molecule, donor type, donor heavy atom, donor atom, acceptor molecule, acceptor atom, score
      L1  H    11    31       P1  7948  1.00
      L1  H    18    42       P1 10186  2.00
      P1  H  7997  8010       L1     3  1.00

> <Gold.PLP.Chemscore.Internal.Correction>
0.0280

> <Gold.Rescore>
     Score         DG    S(hbond)    S(metal)    S(lipo)     H(rot)  DE(clash)    DE(int)     intcor
     19.28     -20.50       2.91        0.00      80.44       1.61       0.62       0.60       ----

> <Gold.Chemscore.Fitness>
19.2785

> <Gold.Chemscore.DG>
-20.4963

> <Gold.Chemscore.ZeroCoef>
-5.4800

> <Gold.Chemscore.Hbond>
2.9120

> <Gold.Chemscore.Metal>
0.0000

> <Gold.Chemscore.Lipo>
80.4444

> <Gold.Chemscore.Internal_Hbond>
0.0000

> <Gold.Chemscore.DEClash>
0.6183

> <Gold.Chemscore.DEInternal>
0.5995

> <Gold.Chemscore.Rot>
1.6100

> <Gold.Chemscore.Internal.Correction>
   9.000000E+99

> <Gold.Chemscore.Hbonds>
donor molecule, donor type, donor heavy atom, donor atom, acceptor molecule, acceptor atom, score
      L1  H    11    31       P1  7948  0.99
      L1  H    18    42       P1 10186  0.95
      P1  H  7997  8010       L1     3  1.00

> <Gold.Chemscore.Hbond.Weighted>
-9.7260

> <Gold.Chemscore.Metal.Weighted>
-0.0000

> <Gold.Chemscore.Lipo.Weighted>
-9.4120

> <Gold.Chemscore.Internal_Hbond.Weighted>
0.0000

> <Gold.Chemscore.DEClash.Weighted>
0.6183

> <Gold.Chemscore.DEInternal.Weighted>
0.5995

> <Gold.Chemscore.Rot.Weighted>
4.1216

> <Gold.Chemscore.Internal.Correction.Weighted>
   9.000000E+99

> <Gold.Protein.RotatedTorsions>
[ 6907 6896 6895 6894 ] final -130.63 input  -60.11 | X-H torsion
[ 7974 7965 7964 7962 ] final   60.78 input  175.53 | X-H torsion
[ 8008 7997 7996 7995 ] final   85.34 input   59.86 | X-H torsion
[ 10167 10162 10161 10158 ] final   72.55 input  -65.29 | X-H torsion
[ 10718 10713 10712 10709 ] final  -86.91 input   66.30 | X-H torsion
[ 10763 10752 10751 10750 ] final   -7.69 input  -60.55 | X-H torsion
[ 11005 11000 10999 10996 ] final  173.13 input  -57.11 | X-H torsion

> <Gold.Protein.ActiveResidues>
 VAL166  LYS551  ARG553  GLY616  TRP617  ASP618  TYR619  PRO620  LYS621  CYS622 
 ASP623  PHE694  ASN695  SER759  ASP760  ASP761  ALA762  ILE779  LEU786  VAL792 
 PHE793  MET794  SER795  GLU796  ALA797  LYS798  CYS799  TRP800  GLU811  SER814 

> <Gold.Protein.RotatedAtoms>
  150.9419  133.6646  159.2788 H   0  0  0  0  0  0  0  0  0  0  0  0  # atno 6907 bound_to 6896
  151.4032  135.0973  159.9572 H   0  0  0  0  0  0  0  0  0  0  0  0  # atno 6908 bound_to 6896
  152.5073  133.8909  159.7448 H   0  0  0  0  0  0  0  0  0  0  0  0  # atno 6909 bound_to 6896
  145.8922  139.3519  143.0642 H   0  0  0  0  0  0  0  0  0  0  0  0  # atno 7974 bound_to 7965
  155.9487  140.3402  155.6389 H   0  0  0  0  0  0  0  0  0  0  0  0  # atno 8008 bound_to 7997
  155.6947  140.0753  157.2452 H   0  0  0  0  0  0  0  0  0  0  0  0  # atno 8009 bound_to 7997
  154.4117  140.1651  156.2112 H   0  0  0  0  0  0  0  0  0  0  0  0  # atno 8010 bound_to 7997
  140.0340  144.5443  150.7485 H   0  0  0  0  0  0  0  0  0  0  0  0  # atno 10167 bound_to 10162
  155.9987  130.4781  150.4787 H   0  0  0  0  0  0  0  0  0  0  0  0  # atno 10718 bound_to 10713
  153.4299  135.7012  153.6237 H   0  0  0  0  0  0  0  0  0  0  0  0  # atno 10763 bound_to 10752
  153.4656  135.3726  155.2363 H   0  0  0  0  0  0  0  0  0  0  0  0  # atno 10764 bound_to 10752
  154.8725  135.4030  154.3681 H   0  0  0  0  0  0  0  0  0  0  0  0  # atno 10765 bound_to 10752
  140.3371  134.7308  157.4176 H   0  0  0  0  0  0  0  0  0  0  0  0  # atno 11005 bound_to 11000
  145.8894  140.9313  143.0560 LP  0  0  0  0  0  0  0  0  0  0  0  0  # atno 17320 bound_to 7965
  144.6731  140.0886  143.7466 LP  0  0  0  0  0  0  0  0  0  0  0  0  # atno 17321 bound_to 7965
  140.7289  143.2667  151.4021 LP  0  0  0  0  0  0  0  0  0  0  0  0  # atno 17342 bound_to 10162
  139.6057  144.1202  152.2246 LP  0  0  0  0  0  0  0  0  0  0  0  0  # atno 17343 bound_to 10162
  157.2795  131.0604  151.2207 LP  0  0  0  0  0  0  0  0  0  0  0  0  # atno 17370 bound_to 10713
  157.3259  130.6960  149.6296 LP  0  0  0  0  0  0  0  0  0  0  0  0  # atno 17371 bound_to 10713
  140.0812  134.5729  155.8539 LP  0  0  0  0  0  0  0  0  0  0  0  0  # atno 17394 bound_to 11000
  141.2048  133.6642  156.6144 LP  0  0  0  0  0  0  0  0  0  0  0  0  # atno 17395 bound_to 11000

$$$$
