AV-unprocessed.smi:1452|AV-procd|sdf|5908|dock4
  -GOLD-   22720 5593D 1   1.00000     0.00000
 Structure written by MMmdl.
 40 42  0  0  0  0  0  0  0  0  2 V2000
  146.5906  136.8320  153.8751 O   0  0  0  0  0  0  0  0  0  0  0  0
  145.7609  137.6040  153.3976 C   0  0  0  0  0  0  0  0  0  0  0  0
  146.0202  138.9248  153.2884 N   0  0  0  0  0  0  0  0  0  0  0  0
  147.1656  139.6977  153.6433 C   0  0  0  0  0  0  0  0  0  0  0  0
  146.9424  141.0929  153.6748 C   0  0  0  0  0  0  0  0  0  0  0  0
  147.9982  141.9603  154.0150 C   0  0  0  0  0  0  0  0  0  0  0  0
  149.2559  141.4101  154.3181 C   0  0  0  0  0  0  0  0  0  0  0  0
  149.3966  140.0117  154.2664 C   0  0  0  0  0  0  0  0  0  0  0  0
  148.3850  139.1791  153.9405 N   0  0  0  0  0  0  0  0  0  0  0  0
  144.5593  137.1948  152.9588 N   0  0  0  0  0  0  0  0  0  0  0  0
  144.0703  135.8203  152.9704 C   0  0  1  0  0  0  0  0  0  0  0  0
  142.5626  135.7266  153.1714 C   0  0  0  0  0  0  0  0  0  0  0  0
  142.2548  134.3215  152.6520 C   0  0  0  0  0  0  0  0  0  0  0  0
  143.2060  134.0805  151.5431 N   0  3  2  0  0  0  0  0  0  0  0  0
  143.6669  132.6758  151.4193 C   0  0  0  0  0  0  0  0  0  0  0  0
  144.6384  132.5235  150.2344 C   0  0  0  0  0  0  0  0  0  0  0  0
  145.7740  133.5683  150.2447 C   0  0  0  0  0  0  0  0  0  0  0  0
  145.6997  134.5042  151.4610 C   0  0  0  0  0  0  0  0  0  0  0  0
  144.2853  135.1055  151.6256 C   0  0  2  0  0  0  0  0  0  0  0  0
  145.2622  139.4649  152.8966 H   0  0  0  0  0  0  0  0  0  0  0  0
  145.9701  141.5014  153.4397 H   0  0  0  0  0  0  0  0  0  0  0  0
  147.8448  143.0290  154.0426 H   0  0  0  0  0  0  0  0  0  0  0  0
  150.0902  142.0426  154.5833 H   0  0  0  0  0  0  0  0  0  0  0  0
  150.3455  139.5484  154.4921 H   0  0  0  0  0  0  0  0  0  0  0  0
  143.9378  137.8981  152.5839 H   0  0  0  0  0  0  0  0  0  0  0  0
  144.5488  135.2543  153.7727 H   0  0  0  0  0  0  0  0  0  0  0  0
  142.2611  135.8694  154.2096 H   0  0  0  0  0  0  0  0  0  0  0  0
  142.0480  136.4714  152.5619 H   0  0  0  0  0  0  0  0  0  0  0  0
  142.4251  133.5989  153.4519 H   0  0  0  0  0  0  0  0  0  0  0  0
  141.2212  134.2148  152.3215 H   0  0  0  0  0  0  0  0  0  0  0  0
  144.1530  132.3641  152.3450 H   0  0  0  0  0  0  0  0  0  0  0  0
  142.8052  132.0214  151.2818 H   0  0  0  0  0  0  0  0  0  0  0  0
  145.0589  131.5174  150.2377 H   0  0  0  0  0  0  0  0  0  0  0  0
  144.0824  132.6121  149.3002 H   0  0  0  0  0  0  0  0  0  0  0  0
  146.7438  133.0701  150.2211 H   0  0  0  0  0  0  0  0  0  0  0  0
  145.7194  134.1641  149.3327 H   0  0  0  0  0  0  0  0  0  0  0  0
  145.9778  133.9498  152.3585 H   0  0  0  0  0  0  0  0  0  0  0  0
  146.4376  135.3003  151.3592 H   0  0  0  0  0  0  0  0  0  0  0  0
  144.0984  135.8050  150.8090 H   0  0  0  0  0  0  0  0  0  0  0  0
  142.7079  134.2883  150.6893 H   0  0  0  0  0  0  0  0  0  0  0  0
  1  2  2  0  0  0  0
  2  3  1  0  0  0  0
  2 10  1  0  0  0  0
  3  4  1  0  0  0  0
  3 20  1  0  0  0  0
  4  9  1  0  0  0  0
  4  5  2  0  0  0  0
  5  6  1  0  0  0  0
  5 21  1  0  0  0  0
  6  7  2  0  0  0  0
  6 22  1  0  0  0  0
  7  8  1  0  0  0  0
  7 23  1  0  0  0  0
  8  9  2  0  0  0  0
  8 24  1  0  0  0  0
 10 11  1  0  0  0  0
 10 25  1  0  0  0  0
 11 19  1  0  0  0  0
 11 12  1  0  0  0  0
 11 26  1  0  0  0  0
 12 13  1  0  0  0  0
 12 27  1  0  0  0  0
 12 28  1  0  0  0  0
 13 14  1  0  0  0  0
 13 29  1  0  0  0  0
 13 30  1  0  0  0  0
 14 19  1  0  0  0  0
 14 15  1  0  0  0  0
 14 40  1  0  0  0  0
 15 16  1  0  0  0  0
 15 31  1  0  0  0  0
 15 32  1  0  0  0  0
 16 17  1  0  0  0  0
 16 33  1  0  0  0  0
 16 34  1  0  0  0  0
 17 18  1  0  0  0  0
 17 35  1  0  0  0  0
 17 36  1  0  0  0  0
 18 19  1  0  0  0  0
 18 37  1  0  0  0  0
 18 38  1  0  0  0  0
 19 39  1  0  0  0  0
M  CHG  1  14   1
M  END
> <s_m_source_file>
AV-unprocessed.smi

> <i_m_source_file_index>
1452

> <i_lp_mmshare_version>
43012

> <i_f3d_flags>
0

> <s_epik_input>
W0NIMl0xW0NIMl1bQ0gyXVtDSDJdW0NASF0oTjEyKVtDQEBIXShbQ0gyXVtDSDJdMilbTkhdQyg9TylbTkhdYzNbY0hdW2NIXVtjSF1bY0hdbjM=

> <s_epik_cmdline>
J2VwaWtfcHl0aG9uJywgJy1waCcsICc3LjAnLCAnLXRuJywgJzgnLCAnLW1hJywgJzIwMCcsICctbWV0YWxfYmluZGluZycsICctaW1hZScsICc8aW5maWxlLm1hZT4nLCAnLW9tYWUnLCAnPG91dGZpbGUubWFlPic=

> <r_epik_Ionization_Penalty>
0.00100813

> <r_epik_Ionization_Penalty_Charging>
0.000974069

> <r_epik_Ionization_Penalty_Neutral>
3.40643e-05

> <r_epik_State_Penalty>
0.000633842

> <r_epik_Charging_Adjusted_Penalty>
0.00160791

> <i_epik_Tot_Q>
1

> <i_epik_Tot_abs_Q>
1

> <r_epik_Metal_State_Penalty>
-0

> <b_epik_Metal_Only>
0

> <s_lp_Force_Field>
OPLS_2005

> <r_lp_Energy>
44.0476

> <b_lp_Chiralities_Consistent>
1

> <s_lp_Variant>
AV-unprocessed.smi:1452-6

> <Gold.Version>
5.8.1

> <Gold.Id.Protein>
6NUR|6NUR_protein|mol2

> <Gold.PLP.Fitness>
41.4556

> <Gold.PLP.PLP>
-33.2513

> <Gold.PLP.part.hbond>
-2.0000

> <Gold.PLP.part.metal>
0.0000

> <Gold.PLP.part.buried>
-2.5952

> <Gold.PLP.part.nonpolar>
-27.2710

> <Gold.PLP.part.repulsive>
0.2584

> <Gold.PLP.ligand.clash>
0.0000

> <Gold.PLP.ligand.torsion>
0.4016

> <Gold.PLP.Chemscore.Hbond>
3.0000

> <Gold.PLP.Chemscore.CHOScore>
0.0000

> <Gold.PLP.Chemscore.Metal>
0.0000

> <Gold.Chemscore.Hbonds>
donor molecule, donor type, donor heavy atom, donor atom, acceptor molecule, acceptor atom, score
      L1  H     3    20       P1 10175  1.00
      L1  H    14    40       P1 10186  1.95

> <Gold.PLP.Chemscore.Internal.Correction>
0.0075

> <Gold.Rescore>
     Score         DG    S(hbond)    S(metal)    S(lipo)     H(rot)  DE(clash)    DE(int)     intcor
     15.79     -17.50       1.75        0.00      74.57       1.00       0.13       1.58       ----

> <Gold.Chemscore.Fitness>
15.7854

> <Gold.Chemscore.DG>
-17.5004

> <Gold.Chemscore.ZeroCoef>
-5.4800

> <Gold.Chemscore.Hbond>
1.7531

> <Gold.Chemscore.Metal>
0.0000

> <Gold.Chemscore.Lipo>
74.5744

> <Gold.Chemscore.Internal_Hbond>
0.0000

> <Gold.Chemscore.DEClash>
0.1325

> <Gold.Chemscore.DEInternal>
1.5825

> <Gold.Chemscore.Rot>
1.0000

> <Gold.Chemscore.Internal.Correction>
   9.000000E+99

> <Gold.Chemscore.Hbonds>
donor molecule, donor type, donor heavy atom, donor atom, acceptor molecule, acceptor atom, score
      L1  H     3    20       P1 10175  1.00
      L1  H    14    40       P1 10186  0.44

> <Gold.Chemscore.Hbond.Weighted>
-5.8552

> <Gold.Chemscore.Metal.Weighted>
-0.0000

> <Gold.Chemscore.Lipo.Weighted>
-8.7252

> <Gold.Chemscore.Internal_Hbond.Weighted>
0.0000

> <Gold.Chemscore.DEClash.Weighted>
0.1325

> <Gold.Chemscore.DEInternal.Weighted>
1.5825

> <Gold.Chemscore.Rot.Weighted>
2.5600

> <Gold.Chemscore.Internal.Correction.Weighted>
   9.000000E+99

> <Gold.Protein.RotatedTorsions>
[ 6907 6896 6895 6894 ] final  166.50 input  -60.11 | X-H torsion
[ 7974 7965 7964 7962 ] final -164.25 input  175.53 | X-H torsion
[ 8008 7997 7996 7995 ] final -133.23 input   59.86 | X-H torsion
[ 10167 10162 10161 10158 ] final    5.49 input  -65.29 | X-H torsion
[ 10718 10713 10712 10709 ] final -155.15 input   66.30 | X-H torsion
[ 10763 10752 10751 10750 ] final   13.34 input  -60.55 | X-H torsion
[ 11005 11000 10999 10996 ] final -113.11 input  -57.11 | X-H torsion

> <Gold.Protein.ActiveResidues>
 VAL166  LYS551  ARG553  GLY616  TRP617  ASP618  TYR619  PRO620  LYS621  CYS622 
 ASP623  PHE694  ASN695  SER759  ASP760  ASP761  ALA762  ILE779  LEU786  VAL792 
 PHE793  MET794  SER795  GLU796  ALA797  LYS798  CYS799  TRP800  GLU811  SER814 

> <Gold.Protein.RotatedAtoms>
  151.8779  133.3489  159.3756 H   0  0  0  0  0  0  0  0  0  0  0  0  # atno 6907 bound_to 6896
  150.7135  134.5047  159.5588 H   0  0  0  0  0  0  0  0  0  0  0  0  # atno 6908 bound_to 6896
  152.2593  134.8051  160.0484 H   0  0  0  0  0  0  0  0  0  0  0  0  # atno 6909 bound_to 6896
  144.7302  140.2989  143.6208 H   0  0  0  0  0  0  0  0  0  0  0  0  # atno 7974 bound_to 7965
  155.3420  140.0472  157.3045 H   0  0  0  0  0  0  0  0  0  0  0  0  # atno 8008 bound_to 7997
  154.5272  140.2245  155.8834 H   0  0  0  0  0  0  0  0  0  0  0  0  # atno 8009 bound_to 7997
  156.1751  140.3087  155.9051 H   0  0  0  0  0  0  0  0  0  0  0  0  # atno 8010 bound_to 7997
  140.6479  143.7617  150.7528 H   0  0  0  0  0  0  0  0  0  0  0  0  # atno 10167 bound_to 10162
  156.5089  130.8426  151.2638 H   0  0  0  0  0  0  0  0  0  0  0  0  # atno 10718 bound_to 10713
  153.1731  135.6815  153.8580 H   0  0  0  0  0  0  0  0  0  0  0  0  # atno 10763 bound_to 10752
  153.7938  135.3165  155.3383 H   0  0  0  0  0  0  0  0  0  0  0  0  # atno 10764 bound_to 10752
  154.8011  135.4777  154.0371 H   0  0  0  0  0  0  0  0  0  0  0  0  # atno 10765 bound_to 10752
  141.0634  133.9498  157.2624 H   0  0  0  0  0  0  0  0  0  0  0  0  # atno 11005 bound_to 11000
  145.7781  139.1881  143.2174 LP  0  0  0  0  0  0  0  0  0  0  0  0  # atno 17320 bound_to 7965
  146.0856  140.7714  142.9620 LP  0  0  0  0  0  0  0  0  0  0  0  0  # atno 17321 bound_to 7965
  140.1262  143.4567  152.2283 LP  0  0  0  0  0  0  0  0  0  0  0  0  # atno 17342 bound_to 10162
  139.5691  144.7452  151.3940 LP  0  0  0  0  0  0  0  0  0  0  0  0  # atno 17343 bound_to 10162
  157.7453  130.9956  150.2751 LP  0  0  0  0  0  0  0  0  0  0  0  0  # atno 17370 bound_to 10713
  156.3260  130.3793  149.7533 LP  0  0  0  0  0  0  0  0  0  0  0  0  # atno 17371 bound_to 10713
  139.9454  135.0185  156.8836 LP  0  0  0  0  0  0  0  0  0  0  0  0  # atno 17394 bound_to 11000
  140.5822  134.0341  155.7468 LP  0  0  0  0  0  0  0  0  0  0  0  0  # atno 17395 bound_to 11000

$$$$
