AV-unprocessed.smi:3018|AV-procd|sdf|11483|dock6
  -GOLD-   2272016423D 1   1.00000     0.00000
 Structure written by MMmdl.
 44 45  0  0  0  0  0  0  0  0  2 V2000
  151.8021  139.7204  155.0934 C   0  0  0  0  0  0  0  0  0  0  0  0
  151.5095  140.6092  156.3087 C   0  0  0  0  0  0  0  0  0  0  0  0
  150.8011  141.9224  155.9292 C   0  0  2  0  0  0  0  0  0  0  0  0
  150.3867  142.5594  157.1370 O   0  0  0  0  0  0  0  0  0  0  0  0
  151.4064  143.1707  157.9238 C   0  0  0  0  0  0  0  0  0  0  0  0
  151.8668  142.2193  159.0472 C   0  0  0  0  0  0  0  0  0  0  0  0
  152.8642  142.9116  159.9908 C   0  0  0  0  0  0  0  0  0  0  0  0
  152.2772  144.2080  160.5721 C   0  0  0  0  0  0  0  0  0  0  0  0
  151.8109  145.1566  159.4565 C   0  0  0  0  0  0  0  0  0  0  0  0
  150.8131  144.4599  158.5177 C   0  0  0  0  0  0  0  0  0  0  0  0
  149.5800  141.6478  155.0385 C   0  0  0  0  0  0  0  0  0  0  0  0
  149.7284  141.1466  153.9238 O   0  0  0  0  0  0  0  0  0  0  0  0
  148.3838  141.9780  155.5507 N   0  0  0  0  0  0  0  0  0  0  0  0
  147.1002  141.8509  154.8641 C   0  0  0  0  0  0  0  0  0  0  0  0
  146.4202  140.4950  155.1449 C   0  0  0  0  0  0  0  0  0  0  0  0
  146.7460  139.4531  154.1058 C   0  0  0  0  0  0  0  0  0  0  0  0
  147.2077  138.2797  154.3312 N   0  0  0  0  0  0  0  0  0  0  0  0
  147.2986  137.7501  153.1005 N   0  0  0  0  0  0  0  0  0  0  0  0
  146.8972  138.6081  152.1598 C   0  0  0  0  0  0  0  0  0  0  0  0
  146.8906  138.3458  150.9590 O   0  0  0  0  0  0  0  0  0  0  0  0
  146.5336  139.7372  152.7933 N   0  5  0  0  0  0  0  0  0  0  0  0
  147.6375  136.8076  152.9756 H   0  0  0  0  0  0  0  0  0  0  0  0
  152.2886  138.7939  155.3991 H   0  0  0  0  0  0  0  0  0  0  0  0
  152.4607  140.2237  154.3851 H   0  0  0  0  0  0  0  0  0  0  0  0
  150.8838  139.4566  154.5683 H   0  0  0  0  0  0  0  0  0  0  0  0
  150.8904  140.0471  157.0099 H   0  0  0  0  0  0  0  0  0  0  0  0
  152.4431  140.8248  156.8306 H   0  0  0  0  0  0  0  0  0  0  0  0
  151.5093  142.5534  155.3903 H   0  0  0  0  0  0  0  0  0  0  0  0
  152.2639  143.4481  157.3097 H   0  0  0  0  0  0  0  0  0  0  0  0
  151.0011  141.8799  159.6174 H   0  0  0  0  0  0  0  0  0  0  0  0
  152.3299  141.3261  158.6291 H   0  0  0  0  0  0  0  0  0  0  0  0
  153.1422  142.2352  160.7996 H   0  0  0  0  0  0  0  0  0  0  0  0
  153.7827  143.1381  159.4478 H   0  0  0  0  0  0  0  0  0  0  0  0
  151.4350  143.9673  161.2223 H   0  0  0  0  0  0  0  0  0  0  0  0
  153.0189  144.7052  161.1979 H   0  0  0  0  0  0  0  0  0  0  0  0
  151.3536  146.0457  159.8916 H   0  0  0  0  0  0  0  0  0  0  0  0
  152.6728  145.5010  158.8835 H   0  0  0  0  0  0  0  0  0  0  0  0
  150.5251  145.1384  157.7141 H   0  0  0  0  0  0  0  0  0  0  0  0
  149.8998  144.2260  159.0665 H   0  0  0  0  0  0  0  0  0  0  0  0
  148.3638  142.3792  156.4767 H   0  0  0  0  0  0  0  0  0  0  0  0
  146.4300  142.6784  155.1054 H   0  0  0  0  0  0  0  0  0  0  0  0
  147.2995  141.9317  153.7956 H   0  0  0  0  0  0  0  0  0  0  0  0
  146.7336  140.1358  156.1261 H   0  0  0  0  0  0  0  0  0  0  0  0
  145.3396  140.6280  155.2101 H   0  0  0  0  0  0  0  0  0  0  0  0
  1  2  1  0  0  0  0
  1 23  1  0  0  0  0
  1 24  1  0  0  0  0
  1 25  1  0  0  0  0
  2  3  1  0  0  0  0
  2 26  1  0  0  0  0
  2 27  1  0  0  0  0
  3  4  1  0  0  0  0
  3 11  1  0  0  0  0
  3 28  1  0  0  0  0
  4  5  1  0  0  0  0
  5 10  1  0  0  0  0
  5  6  1  0  0  0  0
  5 29  1  0  0  0  0
  6  7  1  0  0  0  0
  6 30  1  0  0  0  0
  6 31  1  0  0  0  0
  7  8  1  0  0  0  0
  7 32  1  0  0  0  0
  7 33  1  0  0  0  0
  8  9  1  0  0  0  0
  8 34  1  0  0  0  0
  8 35  1  0  0  0  0
  9 10  1  0  0  0  0
  9 36  1  0  0  0  0
  9 37  1  0  0  0  0
 10 38  1  0  0  0  0
 10 39  1  0  0  0  0
 11 12  2  0  0  0  0
 11 13  1  0  0  0  0
 13 14  1  0  0  0  0
 13 40  1  0  0  0  0
 14 15  1  0  0  0  0
 14 41  1  0  0  0  0
 14 42  1  0  0  0  0
 15 16  1  0  0  0  0
 15 43  1  0  0  0  0
 15 44  1  0  0  0  0
 16 21  1  0  0  0  0
 16 17  2  0  0  0  0
 17 18  1  0  0  0  0
 18 22  1  0  0  0  0
 18 19  1  0  0  0  0
 19 20  2  0  0  0  0
 19 21  1  0  0  0  0
M  CHG  1  21  -1
M  END
> <s_m_source_file>
AV-unprocessed.smi

> <i_m_source_file_index>
3018

> <i_lp_mmshare_version>
43012

> <i_f3d_flags>
0

> <s_epik_input>
W0NIMl0xW0NIMl1bQ0gyXVtDSDJdW0NIMl1bQ0hdMU9bQ0BASF0oW0NIMl1bQ0gzXSlDKD1PKVtOSF1bQ0gyXVtDSDJdYzJuW25IXWMoPU8pW25IXTI=

> <s_epik_cmdline>
J2VwaWtfcHl0aG9uJywgJy1waCcsICc3LjAnLCAnLXRuJywgJzgnLCAnLW1hJywgJzIwMCcsICctbWV0YWxfYmluZGluZycsICctaW1hZScsICc8aW5maWxlLm1hZT4nLCAnLW9tYWUnLCAnPG91dGZpbGUubWFlPic=

> <r_lp_tautomer_probability>
1

> <r_epik_Ionization_Penalty>
13.7173

> <r_epik_Ionization_Penalty_Charging>
13.7173

> <r_epik_Ionization_Penalty_Neutral>
5.37575e-06

> <r_epik_State_Penalty>
4.05785

> <r_epik_Charging_Adjusted_Penalty>
17.7751

> <i_epik_Tot_Q>
-1

> <i_epik_Tot_abs_Q>
1

> <r_epik_Metal_State_Penalty>
0.460256

> <b_epik_Metal_Only>
1

> <s_lp_Force_Field>
OPLS_2005

> <r_lp_Energy>
25.0633

> <b_lp_Chiralities_Consistent>
1

> <s_lp_Variant>
AV-unprocessed.smi:3018-5

> <Gold.Version>
5.8.1

> <Gold.Id.Protein>
6NUR|6NUR_protein|mol2

> <Gold.PLP.Fitness>
46.9091

> <Gold.PLP.PLP>
-41.2823

> <Gold.PLP.part.hbond>
-5.0000

> <Gold.PLP.part.metal>
0.0000

> <Gold.PLP.part.buried>
-4.8333

> <Gold.PLP.part.nonpolar>
-35.8364

> <Gold.PLP.part.repulsive>
4.1758

> <Gold.PLP.ligand.clash>
0.0000

> <Gold.PLP.ligand.torsion>
1.1254

> <Gold.PLP.Chemscore.Hbond>
2.6081

> <Gold.PLP.Chemscore.CHOScore>
0.0000

> <Gold.PLP.Chemscore.Metal>
0.0000

> <Gold.Chemscore.Hbonds>
donor molecule, donor type, donor heavy atom, donor atom, acceptor molecule, acceptor atom, score
      L1  H    18    22       P1  7948  0.56
      P1  H  7954  7966       L1    20  1.00
      P1  H  7989  7998       L1    12  0.35
      P1  H  8011  8017       L1    12  0.82

> <Gold.PLP.Chemscore.Internal.Correction>
0.0533

> <Gold.Rescore>
     Score         DG    S(hbond)    S(metal)    S(lipo)     H(rot)  DE(clash)    DE(int)     intcor
     13.55     -17.98       2.66        0.00      96.00       2.98       2.03       2.41       ----

> <Gold.Chemscore.Fitness>
13.5452

> <Gold.Chemscore.DG>
-17.9781

> <Gold.Chemscore.ZeroCoef>
-5.4800

> <Gold.Chemscore.Hbond>
2.6609

> <Gold.Chemscore.Metal>
0.0000

> <Gold.Chemscore.Lipo>
96.0034

> <Gold.Chemscore.Internal_Hbond>
0.0000

> <Gold.Chemscore.DEClash>
2.0274

> <Gold.Chemscore.DEInternal>
2.4056

> <Gold.Chemscore.Rot>
2.9772

> <Gold.Chemscore.Internal.Correction>
   9.000000E+99

> <Gold.Chemscore.Hbonds>
donor molecule, donor type, donor heavy atom, donor atom, acceptor molecule, acceptor atom, score
      L1  H    18    22       P1  7948  0.56
      P1  H  7954  7966       L1    20  0.98
      P1  H  7989  7998       L1    12  0.29
      P1  H  8011  8017       L1    12  0.71

> <Gold.Chemscore.Hbond.Weighted>
-8.8873

> <Gold.Chemscore.Metal.Weighted>
-0.0000

> <Gold.Chemscore.Lipo.Weighted>
-11.2324

> <Gold.Chemscore.Internal_Hbond.Weighted>
0.0000

> <Gold.Chemscore.DEClash.Weighted>
2.0274

> <Gold.Chemscore.DEInternal.Weighted>
2.4056

> <Gold.Chemscore.Rot.Weighted>
7.6216

> <Gold.Chemscore.Internal.Correction.Weighted>
   9.000000E+99

> <Gold.Protein.RotatedTorsions>
[ 6907 6896 6895 6894 ] final  -26.40 input  -60.11 | X-H torsion
[ 7974 7965 7964 7962 ] final   91.07 input  175.53 | X-H torsion
[ 8008 7997 7996 7995 ] final  154.35 input   59.86 | X-H torsion
[ 10167 10162 10161 10158 ] final  -59.03 input  -65.29 | X-H torsion
[ 10718 10713 10712 10709 ] final -112.90 input   66.30 | X-H torsion
[ 10763 10752 10751 10750 ] final    1.36 input  -60.55 | X-H torsion
[ 11005 11000 10999 10996 ] final  153.19 input  -57.11 | X-H torsion

> <Gold.Protein.ActiveResidues>
 VAL166  LYS551  ARG553  GLY616  TRP617  ASP618  TYR619  PRO620  LYS621  CYS622 
 ASP623  PHE694  ASN695  SER759  ASP760  ASP761  ALA762  ILE779  LEU786  VAL792 
 PHE793  MET794  SER795  GLU796  ALA797  LYS798  CYS799  TRP800  GLU811  SER814 

> <Gold.Protein.RotatedAtoms>
  151.1616  135.0276  159.8712 H   0  0  0  0  0  0  0  0  0  0  0  0  # atno 6907 bound_to 6896
  152.5451  134.1273  159.8434 H   0  0  0  0  0  0  0  0  0  0  0  0  # atno 6908 bound_to 6896
  151.1369  133.4952  159.2630 H   0  0  0  0  0  0  0  0  0  0  0  0  # atno 6909 bound_to 6896
  145.5106  139.2277  143.2727 H   0  0  0  0  0  0  0  0  0  0  0  0  # atno 7974 bound_to 7965
  156.2535  140.1969  156.6633 H   0  0  0  0  0  0  0  0  0  0  0  0  # atno 8008 bound_to 7997
  154.6448  140.0579  156.9913 H   0  0  0  0  0  0  0  0  0  0  0  0  # atno 8009 bound_to 7997
  155.1508  140.3251  155.4434 H   0  0  0  0  0  0  0  0  0  0  0  0  # atno 8010 bound_to 7997
  140.6161  143.2403  151.5594 H   0  0  0  0  0  0  0  0  0  0  0  0  # atno 10167 bound_to 10162
  156.0734  130.5945  150.8571 H   0  0  0  0  0  0  0  0  0  0  0  0  # atno 10718 bound_to 10713
  153.3090  135.6961  153.7133 H   0  0  0  0  0  0  0  0  0  0  0  0  # atno 10763 bound_to 10752
  153.6017  135.3461  155.2948 H   0  0  0  0  0  0  0  0  0  0  0  0  # atno 10764 bound_to 10752
  154.8570  135.4342  154.2223 H   0  0  0  0  0  0  0  0  0  0  0  0  # atno 10765 bound_to 10752
  140.1376  134.8761  157.2287 H   0  0  0  0  0  0  0  0  0  0  0  0  # atno 11005 bound_to 11000
  146.2169  140.5912  142.9034 LP  0  0  0  0  0  0  0  0  0  0  0  0  # atno 17320 bound_to 7965
  144.7729  140.5678  143.6657 LP  0  0  0  0  0  0  0  0  0  0  0  0  # atno 17321 bound_to 7965
  139.5399  144.2675  152.1330 LP  0  0  0  0  0  0  0  0  0  0  0  0  # atno 17342 bound_to 10162
  140.1885  144.4775  150.6491 LP  0  0  0  0  0  0  0  0  0  0  0  0  # atno 17343 bound_to 10162
  157.5817  131.0946  150.9261 LP  0  0  0  0  0  0  0  0  0  0  0  0  # atno 17370 bound_to 10713
  156.9455  130.5400  149.5281 LP  0  0  0  0  0  0  0  0  0  0  0  0  # atno 17371 bound_to 10713
  140.2763  134.3402  155.7357 LP  0  0  0  0  0  0  0  0  0  0  0  0  # atno 17394 bound_to 11000
  141.2181  133.7452  156.9298 LP  0  0  0  0  0  0  0  0  0  0  0  0  # atno 17395 bound_to 11000

$$$$
