AV-unprocessed.smi:290|AV-procd|sdf|2227|dock2
  -GOLD-   2262022 83D 1   1.00000     0.00000
 Structure written by MMmdl.
 59 62  0  0  0  0  0  0  0  0  2 V2000
  152.9976  144.5215  157.7679 C   0  0  0  0  0  0  0  0  0  0  0  0
  152.2023  143.8790  158.9150 C   0  0  2  0  0  0  0  0  0  0  0  0
  153.1315  143.4775  159.9179 O   0  0  0  0  0  0  0  0  0  0  0  0
  152.5971  142.3638  160.6108 C   0  0  0  0  0  0  0  0  0  0  0  0
  151.9899  141.5435  159.4835 C   0  0  0  0  0  0  0  0  0  0  0  0
  151.3772  142.6054  158.5727 C   0  0  1  0  0  0  0  0  0  0  0  0
  150.0444  142.8241  159.0046 O   0  0  0  0  0  0  0  0  0  0  0  0
  151.3386  142.1895  157.0784 C   0  0  0  0  0  0  0  0  0  0  0  0
  150.8303  140.8427  156.8676 N   0  0  0  0  0  0  0  0  0  0  0  0
  149.6958  140.2935  157.4206 C   0  0  0  0  0  0  0  0  0  0  0  0
  149.4440  139.0633  157.0659 N   0  0  0  0  0  0  0  0  0  0  0  0
  150.4910  138.7324  156.2131 C   0  0  0  0  0  0  0  0  0  0  0  0
  150.8365  137.5662  155.4713 C   0  0  0  0  0  0  0  0  0  0  0  0
  150.0927  136.4285  155.4934 N   0  0  0  0  0  0  0  0  0  0  0  0
  150.8033  135.1720  155.7192 C   0  0  0  0  0  0  0  0  0  0  0  0
  150.0909  134.1097  154.8756 C   0  0  0  0  0  0  0  0  0  0  0  0
  148.6969  134.7128  154.6725 C   0  0  2  0  0  0  0  0  0  0  0  0
  147.9037  134.1527  153.5412 N   0  3  2  0  0  0  0  0  0  0  0  0
  146.4790  134.5558  153.6076 C   0  0  0  0  0  0  0  0  0  0  0  0
  148.0755  132.6954  153.2914 C   0  0  0  0  0  0  0  0  0  0  0  0
  147.2576  132.2282  152.0775 C   0  0  0  0  0  0  0  0  0  0  0  0
  147.3227  130.8218  151.9648 O   0  0  0  0  0  0  0  0  0  0  0  0
  148.9803  136.2179  154.5677 C   0  0  1  0  0  0  0  0  0  0  0  0
  147.7526  137.0817  154.9089 C   0  0  0  0  0  0  0  0  0  0  0  0
  151.9664  137.6218  154.7168 N   0  0  0  0  0  0  0  0  0  0  0  0
  152.7094  138.7320  154.6885 C   0  0  0  0  0  0  0  0  0  0  0  0
  152.5089  139.8859  155.3269 N   0  0  0  0  0  0  0  0  0  0  0  0
  151.3740  139.8417  156.0816 C   0  0  0  0  0  0  0  0  0  0  0  0
  148.1324  134.5552  155.5941 H   0  0  0  0  0  0  0  0  0  0  0  0
  149.3225  136.4683  153.5643 H   0  0  0  0  0  0  0  0  0  0  0  0
  152.3398  144.8666  156.9702 H   0  0  0  0  0  0  0  0  0  0  0  0
  153.7189  143.8248  157.3406 H   0  0  0  0  0  0  0  0  0  0  0  0
  153.5552  145.3868  158.1267 H   0  0  0  0  0  0  0  0  0  0  0  0
  151.5571  144.6422  159.3550 H   0  0  0  0  0  0  0  0  0  0  0  0
  153.3663  141.8223  161.1614 H   0  0  0  0  0  0  0  0  0  0  0  0
  151.8320  142.6954  161.3146 H   0  0  0  0  0  0  0  0  0  0  0  0
  152.7928  141.0197  158.9630 H   0  0  0  0  0  0  0  0  0  0  0  0
  151.2772  140.7946  159.8324 H   0  0  0  0  0  0  0  0  0  0  0  0
  149.8250  143.7312  158.8558 H   0  0  0  0  0  0  0  0  0  0  0  0
  150.7201  142.8810  156.5047 H   0  0  0  0  0  0  0  0  0  0  0  0
  152.3374  142.2349  156.6436 H   0  0  0  0  0  0  0  0  0  0  0  0
  149.0519  140.8398  158.0944 H   0  0  0  0  0  0  0  0  0  0  0  0
  151.8599  135.2371  155.4550 H   0  0  0  0  0  0  0  0  0  0  0  0
  150.7357  134.9223  156.7786 H   0  0  0  0  0  0  0  0  0  0  0  0
  150.6239  133.9954  153.9319 H   0  0  0  0  0  0  0  0  0  0  0  0
  150.0661  133.1354  155.3643 H   0  0  0  0  0  0  0  0  0  0  0  0
  145.9937  134.1347  154.4888 H   0  0  0  0  0  0  0  0  0  0  0  0
  145.9312  134.2205  152.7273 H   0  0  0  0  0  0  0  0  0  0  0  0
  146.3853  135.6412  153.6536 H   0  0  0  0  0  0  0  0  0  0  0  0
  149.1188  132.4351  153.1182 H   0  0  0  0  0  0  0  0  0  0  0  0
  147.7773  132.1385  154.1810 H   0  0  0  0  0  0  0  0  0  0  0  0
  146.2122  132.5138  152.1989 H   0  0  0  0  0  0  0  0  0  0  0  0
  147.6069  132.6861  151.1524 H   0  0  0  0  0  0  0  0  0  0  0  0
  148.0576  130.5943  151.4150 H   0  0  0  0  0  0  0  0  0  0  0  0
  146.9292  136.8733  154.2255 H   0  0  0  0  0  0  0  0  0  0  0  0
  147.9723  138.1464  154.8352 H   0  0  0  0  0  0  0  0  0  0  0  0
  147.4006  136.8876  155.9226 H   0  0  0  0  0  0  0  0  0  0  0  0
  153.5897  138.6907  154.0642 H   0  0  0  0  0  0  0  0  0  0  0  0
  148.2766  134.6079  152.7196 H   0  0  0  0  0  0  0  0  0  0  0  0
  1  2  1  0  0  0  0
  1 31  1  0  0  0  0
  1 32  1  0  0  0  0
  1 33  1  0  0  0  0
  2  6  1  0  0  0  0
  2  3  1  0  0  0  0
  2 34  1  0  0  0  0
  3  4  1  0  0  0  0
  4  5  1  0  0  0  0
  4 35  1  0  0  0  0
  4 36  1  0  0  0  0
  5  6  1  0  0  0  0
  5 37  1  0  0  0  0
  5 38  1  0  0  0  0
  6  7  1  0  0  0  0
  6  8  1  0  0  0  0
  7 39  1  0  0  0  0
  8  9  1  0  0  0  0
  8 40  1  0  0  0  0
  8 41  1  0  0  0  0
  9 28  1  0  0  0  0
  9 10  1  0  0  0  0
 10 11  2  0  0  0  0
 10 42  1  0  0  0  0
 11 12  1  0  0  0  0
 12 28  2  0  0  0  0
 12 13  1  0  0  0  0
 13 14  1  0  0  0  0
 13 25  2  0  0  0  0
 14 23  1  0  0  0  0
 14 15  1  0  0  0  0
 15 16  1  0  0  0  0
 15 43  1  0  0  0  0
 15 44  1  0  0  0  0
 16 17  1  0  0  0  0
 16 45  1  0  0  0  0
 16 46  1  0  0  0  0
 17 29  1  0  0  0  0
 17 18  1  0  0  0  0
 17 23  1  0  0  0  0
 18 19  1  0  0  0  0
 18 20  1  0  0  0  0
 18 59  1  0  0  0  0
 19 47  1  0  0  0  0
 19 48  1  0  0  0  0
 19 49  1  0  0  0  0
 20 21  1  0  0  0  0
 20 50  1  0  0  0  0
 20 51  1  0  0  0  0
 21 22  1  0  0  0  0
 21 52  1  0  0  0  0
 21 53  1  0  0  0  0
 22 54  1  0  0  0  0
 23 30  1  0  0  0  0
 23 24  1  0  0  0  0
 24 55  1  0  0  0  0
 24 56  1  0  0  0  0
 24 57  1  0  0  0  0
 25 26  1  0  0  0  0
 26 27  2  0  0  0  0
 26 58  1  0  0  0  0
 27 28  1  0  0  0  0
M  CHG  1  18   1
M  END
> <s_m_source_file>
AV-unprocessed.smi

> <i_m_source_file_index>
290

> <i_lp_mmshare_version>
43012

> <i_f3d_flags>
0

> <s_epik_input>
W0NIMl0xW0NIMl1PW0NAQEhdKFtDSDNdKVtDQEBdMShbT0hdKVtDSDJdbihbY0hdbjIpYyhjMjMpbltjSF1uYzNONFtDSDJdW0NIMl1bQ0BIXShbQ0BIXTRbQ0gzXSlOKFtDSDNdKVtDSDJdW0NIMl1bT0hd

> <s_epik_cmdline>
J2VwaWtfcHl0aG9uJywgJy1waCcsICc3LjAnLCAnLXRuJywgJzgnLCAnLW1hJywgJzIwMCcsICctbWV0YWxfYmluZGluZycsICctaW1hZScsICc8aW5maWxlLm1hZT4nLCAnLW9tYWUnLCAnPG91dGZpbGUubWFlPic=

> <r_lp_tautomer_probability>
1

> <r_epik_Ionization_Penalty>
0.0036983

> <r_epik_Ionization_Penalty_Charging>
0.0032725

> <r_epik_Ionization_Penalty_Neutral>
0.000425798

> <r_epik_State_Penalty>
-0

> <r_epik_Charging_Adjusted_Penalty>
0.0032725

> <i_epik_Tot_Q>
1

> <i_epik_Tot_abs_Q>
1

> <r_epik_Metal_State_Penalty>
-0

> <b_epik_Metal_Only>
0

> <s_lp_Force_Field>
OPLS_2005

> <r_lp_Energy>
58.7997

> <b_lp_Chiralities_Consistent>
1

> <s_lp_Variant>
AV-unprocessed.smi:290-13

> <Gold.Version>
5.8.1

> <Gold.Id.Protein>
6NUR|6NUR_protein|mol2

> <Gold.PLP.Fitness>
54.6214

> <Gold.PLP.PLP>
-42.2474

> <Gold.PLP.part.hbond>
-5.3205

> <Gold.PLP.part.metal>
0.0000

> <Gold.PLP.part.buried>
-1.8587

> <Gold.PLP.part.nonpolar>
-35.3714

> <Gold.PLP.part.repulsive>
0.2011

> <Gold.PLP.ligand.clash>
0.0000

> <Gold.PLP.ligand.torsion>
1.1384

> <Gold.PLP.Chemscore.Hbond>
4.6660

> <Gold.PLP.Chemscore.CHOScore>
0.0000

> <Gold.PLP.Chemscore.Metal>
0.0000

> <Gold.Chemscore.Hbonds>
donor molecule, donor type, donor heavy atom, donor atom, acceptor molecule, acceptor atom, score
      L1  H    18    59       P1  7948  2.00
      L1  H    22    54       P1 10747  0.86
      P1  H  7989  7998       L1    27  0.19
      P1  H  7997  8008       L1    27  1.00
      P1  H 10752 10763       L1    25  0.43

> <Gold.PLP.Chemscore.Internal.Correction>
0.6527

> <Gold.Rescore>
     Score         DG    S(hbond)    S(metal)    S(lipo)     H(rot)  DE(clash)    DE(int)     intcor
     12.20     -16.82       2.65        0.00     101.62       3.67       2.57       2.06       ----

> <Gold.Chemscore.Fitness>
12.1969

> <Gold.Chemscore.DG>
-16.8220

> <Gold.Chemscore.ZeroCoef>
-5.4800

> <Gold.Chemscore.Hbond>
2.6457

> <Gold.Chemscore.Metal>
0.0000

> <Gold.Chemscore.Lipo>
101.6217

> <Gold.Chemscore.Internal_Hbond>
0.0000

> <Gold.Chemscore.DEClash>
2.5678

> <Gold.Chemscore.DEInternal>
2.0572

> <Gold.Chemscore.Rot>
3.6658

> <Gold.Chemscore.Internal.Correction>
   9.000000E+99

> <Gold.Chemscore.Hbonds>
donor molecule, donor type, donor heavy atom, donor atom, acceptor molecule, acceptor atom, score
      L1  H    18    59       P1  7948  0.38
      L1  H    22    54       P1 10747  0.82
      P1  H  7997  8008       L1    27  0.24
      P1  H 10752 10763       L1    25  0.37

> <Gold.Chemscore.Hbond.Weighted>
-8.8366

> <Gold.Chemscore.Metal.Weighted>
-0.0000

> <Gold.Chemscore.Lipo.Weighted>
-11.8897

> <Gold.Chemscore.Internal_Hbond.Weighted>
0.0000

> <Gold.Chemscore.DEClash.Weighted>
2.5678

> <Gold.Chemscore.DEInternal.Weighted>
2.0572

> <Gold.Chemscore.Rot.Weighted>
9.3844

> <Gold.Chemscore.Internal.Correction.Weighted>
   9.000000E+99

> <Gold.Protein.RotatedTorsions>
[ 6907 6896 6895 6894 ] final   43.55 input  -60.11 | X-H torsion
[ 7974 7965 7964 7962 ] final  -97.68 input  175.53 | X-H torsion
[ 8008 7997 7996 7995 ] final  -29.45 input   59.86 | X-H torsion
[ 10167 10162 10161 10158 ] final   89.55 input  -65.29 | X-H torsion
[ 10718 10713 10712 10709 ] final -105.10 input   66.30 | X-H torsion
[ 10763 10752 10751 10750 ] final   48.84 input  -60.55 | X-H torsion
[ 11005 11000 10999 10996 ] final   49.30 input  -57.11 | X-H torsion

> <Gold.Protein.ActiveResidues>
 VAL166  LYS551  ARG553  GLY616  TRP617  ASP618  TYR619  PRO620  LYS621  CYS622 
 ASP623  PHE694  ASN695  SER759  ASP760  ASP761  ALA762  ILE779  LEU786  VAL792 
 PHE793  MET794  SER795  GLU796  ALA797  LYS798  CYS799  TRP800  GLU811  SER814 

> <Gold.Protein.RotatedAtoms>
  152.2217  134.8406  160.0484 H   0  0  0  0  0  0  0  0  0  0  0  0  # atno 6907 bound_to 6896
  151.9188  133.3575  159.3897 H   0  0  0  0  0  0  0  0  0  0  0  0  # atno 6908 bound_to 6896
  150.7002  134.4582  159.5412 H   0  0  0  0  0  0  0  0  0  0  0  0  # atno 6909 bound_to 6896
  145.3306  140.9440  143.2664 H   0  0  0  0  0  0  0  0  0  0  0  0  # atno 7974 bound_to 7965
  154.4289  140.1818  156.1250 H   0  0  0  0  0  0  0  0  0  0  0  0  # atno 8008 bound_to 7997
  156.0113  140.3350  155.6918 H   0  0  0  0  0  0  0  0  0  0  0  0  # atno 8009 bound_to 7997
  155.6107  140.0650  157.2697 H   0  0  0  0  0  0  0  0  0  0  0  0  # atno 8010 bound_to 7997
  139.8561  144.6568  150.9112 H   0  0  0  0  0  0  0  0  0  0  0  0  # atno 10167 bound_to 10162
  156.0332  130.5547  150.7491 H   0  0  0  0  0  0  0  0  0  0  0  0  # atno 10718 bound_to 10713
  152.9789  135.5931  154.3992 H   0  0  0  0  0  0  0  0  0  0  0  0  # atno 10763 bound_to 10752
  154.3639  135.2767  155.2306 H   0  0  0  0  0  0  0  0  0  0  0  0  # atno 10764 bound_to 10752
  154.4291  135.6040  153.6112 H   0  0  0  0  0  0  0  0  0  0  0  0  # atno 10765 bound_to 10752
  140.1115  134.4948  155.8673 H   0  0  0  0  0  0  0  0  0  0  0  0  # atno 11005 bound_to 11000
  144.8867  139.4830  143.6697 LP  0  0  0  0  0  0  0  0  0  0  0  0  # atno 17320 bound_to 7965
  146.3047  139.7540  142.9065 LP  0  0  0  0  0  0  0  0  0  0  0  0  # atno 17321 bound_to 7965
  140.7781  143.3784  151.1520 LP  0  0  0  0  0  0  0  0  0  0  0  0  # atno 17342 bound_to 10162
  139.7418  143.8912  152.3052 LP  0  0  0  0  0  0  0  0  0  0  0  0  # atno 17343 bound_to 10162
  157.5040  131.0920  151.0279 LP  0  0  0  0  0  0  0  0  0  0  0  0  # atno 17370 bound_to 10713
  157.0653  130.5842  149.5393 LP  0  0  0  0  0  0  0  0  0  0  0  0  # atno 17371 bound_to 10713
  141.2131  133.6729  156.6715 LP  0  0  0  0  0  0  0  0  0  0  0  0  # atno 17394 bound_to 11000
  140.3084  134.8106  157.4156 LP  0  0  0  0  0  0  0  0  0  0  0  0  # atno 17395 bound_to 11000

$$$$
