AV-unprocessed.smi:1815|AV-procd|sdf|7356|dock3
  -GOLD-   22720 9 13D 1   1.00000     0.00000
 Structure written by MMmdl.
 40 41  0  0  0  0  0  0  0  0  2 V2000
  146.7508  134.6762  153.9633 C   0  0  0  0  0  0  0  0  0  0  0  0
  145.3582  135.1458  153.5063 C   0  0  1  0  0  0  0  0  0  0  0  0
  145.3666  136.5317  152.8321 C   0  0  0  0  0  0  0  0  0  0  0  0
  145.9428  136.4630  151.4679 N   0  3  2  0  0  0  0  0  0  0  0  0
  146.0244  137.7979  150.8248 C   0  0  0  0  0  0  0  0  0  0  0  0
  146.5840  138.8776  151.7710 C   0  0  0  0  0  0  0  0  0  0  0  0
  147.8841  138.4939  152.3085 N   0  0  0  0  0  0  0  0  0  0  0  0
  148.5023  139.1145  153.3237 C   0  0  0  0  0  0  0  0  0  0  0  0
  148.0273  140.0890  153.9082 O   0  0  0  0  0  0  0  0  0  0  0  0
  149.6855  138.5399  153.6024 N   0  0  0  0  0  0  0  0  0  0  0  0
  150.6244  138.9075  154.6020 C   0  0  0  0  0  0  0  0  0  0  0  0
  150.8042  140.1574  155.0450 N   0  0  0  0  0  0  0  0  0  0  0  0
  151.7917  140.2274  156.0309 C   0  0  0  0  0  0  0  0  0  0  0  0
  152.3586  139.0128  156.3271 C   0  0  0  0  0  0  0  0  0  0  0  0
  151.6691  137.7247  155.3755 S   0  0  0  0  0  0  0  0  0  0  0  0
  145.2241  135.4502  150.6579 C   0  0  0  0  0  0  0  0  0  0  0  0
  145.2684  134.0783  151.3546 C   0  0  2  0  0  0  0  0  0  0  0  0
  144.4646  133.0196  150.5914 C   0  0  0  0  0  0  0  0  0  0  0  0
  144.7143  134.1910  152.6628 O   0  0  0  0  0  0  0  0  0  0  0  0
  147.1597  135.3544  154.7129 H   0  0  0  0  0  0  0  0  0  0  0  0
  147.4654  134.6345  153.1416 H   0  0  0  0  0  0  0  0  0  0  0  0
  146.6982  133.6842  154.4124 H   0  0  0  0  0  0  0  0  0  0  0  0
  144.7422  135.2182  154.4033 H   0  0  0  0  0  0  0  0  0  0  0  0
  144.3467  136.9140  152.7667 H   0  0  0  0  0  0  0  0  0  0  0  0
  145.9285  137.2378  153.4452 H   0  0  0  0  0  0  0  0  0  0  0  0
  146.6214  137.7350  149.9136 H   0  0  0  0  0  0  0  0  0  0  0  0
  145.0211  138.0950  150.5158 H   0  0  0  0  0  0  0  0  0  0  0  0
  146.6612  139.8368  151.2559 H   0  0  0  0  0  0  0  0  0  0  0  0
  145.9186  139.0328  152.6194 H   0  0  0  0  0  0  0  0  0  0  0  0
  148.3407  137.7001  151.8828 H   0  0  0  0  0  0  0  0  0  0  0  0
  149.9458  137.7467  153.0353 H   0  0  0  0  0  0  0  0  0  0  0  0
  152.0284  141.1855  156.4695 H   0  0  0  0  0  0  0  0  0  0  0  0
  153.1364  138.7990  157.0451 H   0  0  0  0  0  0  0  0  0  0  0  0
  144.1904  135.7674  150.5094 H   0  0  0  0  0  0  0  0  0  0  0  0
  145.6758  135.3619  149.6707 H   0  0  0  0  0  0  0  0  0  0  0  0
  146.3010  133.7344  151.4198 H   0  0  0  0  0  0  0  0  0  0  0  0
  144.8497  132.8873  149.5800 H   0  0  0  0  0  0  0  0  0  0  0  0
  143.4134  133.2993  150.5156 H   0  0  0  0  0  0  0  0  0  0  0  0
  144.5164  132.0539  151.0949 H   0  0  0  0  0  0  0  0  0  0  0  0
  146.8930  136.1380  151.5771 H   0  0  0  0  0  0  0  0  0  0  0  0
  1  2  1  0  0  0  0
  1 20  1  0  0  0  0
  1 21  1  0  0  0  0
  1 22  1  0  0  0  0
  2 19  1  0  0  0  0
  2  3  1  0  0  0  0
  2 23  1  0  0  0  0
  3  4  1  0  0  0  0
  3 24  1  0  0  0  0
  3 25  1  0  0  0  0
  4  5  1  0  0  0  0
  4 16  1  0  0  0  0
  4 40  1  0  0  0  0
  5  6  1  0  0  0  0
  5 26  1  0  0  0  0
  5 27  1  0  0  0  0
  6  7  1  0  0  0  0
  6 28  1  0  0  0  0
  6 29  1  0  0  0  0
  7  8  1  0  0  0  0
  7 30  1  0  0  0  0
  8  9  2  0  0  0  0
  8 10  1  0  0  0  0
 10 11  1  0  0  0  0
 10 31  1  0  0  0  0
 11 15  1  0  0  0  0
 11 12  2  0  0  0  0
 12 13  1  0  0  0  0
 13 14  2  0  0  0  0
 13 32  1  0  0  0  0
 14 15  1  0  0  0  0
 14 33  1  0  0  0  0
 16 17  1  0  0  0  0
 16 34  1  0  0  0  0
 16 35  1  0  0  0  0
 17 18  1  0  0  0  0
 17 19  1  0  0  0  0
 17 36  1  0  0  0  0
 18 37  1  0  0  0  0
 18 38  1  0  0  0  0
 18 39  1  0  0  0  0
M  CHG  1   4   1
M  END
> <s_m_source_file>
AV-unprocessed.smi

> <i_m_source_file_index>
1815

> <i_lp_mmshare_version>
43012

> <i_f3d_flags>
0

> <s_epik_input>
W0NIM11bQ0BASF0xW0NIMl1OKFtDSDJdW0NASF0oTzEpW0NIM10pW0NIMl1bQ0gyXVtOSF1DKD1PKVtOSF1jMm5bY0hdW2NIXXMy

> <s_epik_cmdline>
J2VwaWtfcHl0aG9uJywgJy1waCcsICc3LjAnLCAnLXRuJywgJzgnLCAnLW1hJywgJzIwMCcsICctbWV0YWxfYmluZGluZycsICctaW1hZScsICc8aW5maWxlLm1hZT4nLCAnLW9tYWUnLCAnPG91dGZpbGUubWFlPic=

> <r_lp_tautomer_probability>
0.999

> <r_epik_Ionization_Penalty>
0.695838

> <r_epik_Ionization_Penalty_Charging>
0.695697

> <r_epik_Ionization_Penalty_Neutral>
0.000141198

> <r_epik_State_Penalty>
0.717972

> <r_epik_Charging_Adjusted_Penalty>
1.41367

> <i_epik_Tot_Q>
1

> <i_epik_Tot_abs_Q>
1

> <r_epik_Metal_State_Penalty>
0.756405

> <b_epik_Metal_Only>
0

> <s_lp_Force_Field>
OPLS_2005

> <r_lp_Energy>
15.0285

> <b_lp_Chiralities_Consistent>
1

> <s_lp_Variant>
AV-unprocessed.smi:1815-7

> <Gold.Version>
5.8.1

> <Gold.Id.Protein>
6NUR|6NUR_protein|mol2

> <Gold.PLP.Fitness>
43.3478

> <Gold.PLP.PLP>
-30.0214

> <Gold.PLP.part.hbond>
-5.8708

> <Gold.PLP.part.metal>
0.0000

> <Gold.PLP.part.buried>
4.7706

> <Gold.PLP.part.nonpolar>
-30.2250

> <Gold.PLP.part.repulsive>
0.6217

> <Gold.PLP.ligand.clash>
0.0000

> <Gold.PLP.ligand.torsion>
0.3359

> <Gold.PLP.Chemscore.Hbond>
4.6564

> <Gold.PLP.Chemscore.CHOScore>
0.0000

> <Gold.PLP.Chemscore.Metal>
0.0000

> <Gold.Chemscore.Hbonds>
donor molecule, donor type, donor heavy atom, donor atom, acceptor molecule, acceptor atom, score
      L1  H     4    40       P1  7948  1.92
      L1  H     7    30       P1  7948  1.00
      L1  H    10    31       P1  7948  0.62
      P1  H  7989  7998       L1    12  0.90

> <Gold.PLP.Chemscore.Internal.Correction>
0.0291

> <Gold.Rescore>
     Score         DG    S(hbond)    S(metal)    S(lipo)     H(rot)  DE(clash)    DE(int)     intcor
     16.58     -20.08       3.31        0.00      66.27       1.64       2.80       0.69       ----

> <Gold.Chemscore.Fitness>
16.5837

> <Gold.Chemscore.DG>
-20.0792

> <Gold.Chemscore.ZeroCoef>
-5.4800

> <Gold.Chemscore.Hbond>
3.3055

> <Gold.Chemscore.Metal>
0.0000

> <Gold.Chemscore.Lipo>
66.2673

> <Gold.Chemscore.Internal_Hbond>
0.0000

> <Gold.Chemscore.DEClash>
2.8033

> <Gold.Chemscore.DEInternal>
0.6922

> <Gold.Chemscore.Rot>
1.6385

> <Gold.Chemscore.Internal.Correction>
   9.000000E+99

> <Gold.Chemscore.Hbonds>
donor molecule, donor type, donor heavy atom, donor atom, acceptor molecule, acceptor atom, score
      L1  H     4    40       P1  7948  0.91
      L1  H     7    30       P1  7948  0.94
      L1  H    10    31       P1  7948  0.21
      P1  H  7989  7998       L1    12  0.08

> <Gold.Chemscore.Hbond.Weighted>
-11.0404

> <Gold.Chemscore.Metal.Weighted>
-0.0000

> <Gold.Chemscore.Lipo.Weighted>
-7.7533

> <Gold.Chemscore.Internal_Hbond.Weighted>
0.0000

> <Gold.Chemscore.DEClash.Weighted>
2.8033

> <Gold.Chemscore.DEInternal.Weighted>
0.6922

> <Gold.Chemscore.Rot.Weighted>
4.1945

> <Gold.Chemscore.Internal.Correction.Weighted>
   9.000000E+99

> <Gold.Protein.RotatedTorsions>
[ 6907 6896 6895 6894 ] final  -17.55 input  -60.11 | X-H torsion
[ 7974 7965 7964 7962 ] final   82.51 input  175.53 | X-H torsion
[ 8008 7997 7996 7995 ] final  -94.45 input   59.86 | X-H torsion
[ 10167 10162 10161 10158 ] final -114.03 input  -65.29 | X-H torsion
[ 10718 10713 10712 10709 ] final  -77.82 input   66.30 | X-H torsion
[ 10763 10752 10751 10750 ] final   -3.25 input  -60.55 | X-H torsion
[ 11005 11000 10999 10996 ] final -146.23 input  -57.11 | X-H torsion

> <Gold.Protein.ActiveResidues>
 VAL166  LYS551  ARG553  GLY616  TRP617  ASP618  TYR619  PRO620  LYS621  CYS622 
 ASP623  PHE694  ASN695  SER759  ASP760  ASP761  ALA762  ILE779  LEU786  VAL792 
 PHE793  MET794  SER795  GLU796  ALA797  LYS798  CYS799  TRP800  GLU811  SER814 

> <Gold.Protein.RotatedAtoms>
  151.2917  135.0743  159.9206 H   0  0  0  0  0  0  0  0  0  0  0  0  # atno 6907 bound_to 6896
  152.5315  133.9925  159.7868 H   0  0  0  0  0  0  0  0  0  0  0  0  # atno 6908 bound_to 6896
  151.0196  133.5838  159.2703 H   0  0  0  0  0  0  0  0  0  0  0  0  # atno 6909 bound_to 6896
  145.6241  139.2391  143.2122 H   0  0  0  0  0  0  0  0  0  0  0  0  # atno 7974 bound_to 7965
  154.7486  140.0489  157.0874 H   0  0  0  0  0  0  0  0  0  0  0  0  # atno 8008 bound_to 7997
  155.0086  140.3133  155.4819 H   0  0  0  0  0  0  0  0  0  0  0  0  # atno 8009 bound_to 7997
  156.2880  140.2188  156.5199 H   0  0  0  0  0  0  0  0  0  0  0  0  # atno 8010 bound_to 7997
  140.1054  143.4575  152.1786 H   0  0  0  0  0  0  0  0  0  0  0  0  # atno 10167 bound_to 10162
  156.0134  130.4501  150.3402 H   0  0  0  0  0  0  0  0  0  0  0  0  # atno 10718 bound_to 10713
  153.3689  135.6993  153.6653 H   0  0  0  0  0  0  0  0  0  0  0  0  # atno 10763 bound_to 10752
  153.5312  135.3592  155.2677 H   0  0  0  0  0  0  0  0  0  0  0  0  # atno 10764 bound_to 10752
  154.8678  135.4181  154.2962 H   0  0  0  0  0  0  0  0  0  0  0  0  # atno 10765 bound_to 10752
  140.7841  134.3045  157.5036 H   0  0  0  0  0  0  0  0  0  0  0  0  # atno 11005 bound_to 11000
  146.1408  140.7060  142.9368 LP  0  0  0  0  0  0  0  0  0  0  0  0  # atno 17320 bound_to 7965
  144.7219  140.4402  143.7001 LP  0  0  0  0  0  0  0  0  0  0  0  0  # atno 17321 bound_to 7965
  139.5648  144.7428  151.4053 LP  0  0  0  0  0  0  0  0  0  0  0  0  # atno 17342 bound_to 10162
  140.6955  143.7759  150.7320 LP  0  0  0  0  0  0  0  0  0  0  0  0  # atno 17343 bound_to 10162
  157.1498  131.0318  151.2890 LP  0  0  0  0  0  0  0  0  0  0  0  0  # atno 17370 bound_to 10713
  157.4402  130.7539  149.7063 LP  0  0  0  0  0  0  0  0  0  0  0  0  # atno 17371 bound_to 10713
  139.8739  134.9336  156.3584 LP  0  0  0  0  0  0  0  0  0  0  0  0  # atno 17394 bound_to 11000
  140.9454  133.7486  156.0201 LP  0  0  0  0  0  0  0  0  0  0  0  0  # atno 17395 bound_to 11000

$$$$
