AV-unprocessed.smi:242|AV-procd|sdf|1844|dock1
  -GOLD-   2262020463D 1   1.00000     0.00000
 Structure written by MMmdl.
 58 61  0  0  0  0  0  0  0  0  2 V2000
  147.5186  146.0357  160.8058 C   0  0  0  0  0  0  0  0  0  0  0  0
  147.0879  144.8051  159.9838 C   0  0  0  0  0  0  0  0  0  0  0  0
  146.6452  143.6827  160.9426 C   0  0  0  0  0  0  0  0  0  0  0  0
  148.1733  144.3372  159.0756 N   0  3  2  0  0  0  0  0  0  0  0  0
  148.0253  142.9565  158.5514 C   0  0  0  0  0  0  0  0  0  0  0  0
  149.4418  142.4700  158.2553 C   0  0  0  0  0  0  0  0  0  0  0  0
  150.2131  143.0830  159.4193 C   0  0  1  0  0  0  0  0  0  0  0  0
  151.6712  143.1239  159.2610 N   0  0  0  0  0  0  0  0  0  0  0  0
  152.2676  143.2660  157.9350 C   0  0  0  0  0  0  0  0  0  0  0  0
  152.4622  142.5651  160.2164 C   0  0  0  0  0  0  0  0  0  0  0  0
  152.4921  143.1068  161.4637 N   0  0  0  0  0  0  0  0  0  0  0  0
  153.2580  142.5719  162.4186 C   0  0  0  0  0  0  0  0  0  0  0  0
  154.0662  141.5139  162.3434 N   0  0  0  0  0  0  0  0  0  0  0  0
  154.0479  140.9653  161.0954 C   0  0  0  0  0  0  0  0  0  0  0  0
  153.2833  141.4228  159.9841 C   0  0  0  0  0  0  0  0  0  0  0  0
  153.5424  140.6237  158.8761 N   0  0  0  0  0  0  0  0  0  0  0  0
  154.4060  139.7461  159.3072 C   0  0  0  0  0  0  0  0  0  0  0  0
  154.7582  139.8716  160.6316 N   0  0  0  0  0  0  0  0  0  0  0  0
  155.7006  139.0405  161.3649 C   0  0  0  0  0  0  0  0  0  0  0  0
  155.1086  137.6976  161.8743 C   0  0  0  0  0  0  0  0  0  0  0  0
  155.7931  137.3515  163.0634 O   0  0  0  0  0  0  0  0  0  0  0  0
  153.6023  137.7526  162.2065 C   0  0  0  0  0  0  0  0  0  0  0  0
  152.7522  137.8375  160.9272 C   0  0  0  0  0  0  0  0  0  0  0  0
  153.0372  136.7259  160.0847 O   0  0  0  0  0  0  0  0  0  0  0  0
  154.3922  136.6830  159.6493 C   0  0  0  0  0  0  0  0  0  0  0  0
  155.3358  136.5591  160.8603 C   0  0  0  0  0  0  0  0  0  0  0  0
  149.5515  144.4534  159.6206 C   0  0  0  0  0  0  0  0  0  0  0  0
  146.7301  146.3384  161.4956 H   0  0  0  0  0  0  0  0  0  0  0  0
  147.7301  146.8993  160.1754 H   0  0  0  0  0  0  0  0  0  0  0  0
  148.4108  145.8263  161.3973 H   0  0  0  0  0  0  0  0  0  0  0  0
  146.2331  145.0919  159.3692 H   0  0  0  0  0  0  0  0  0  0  0  0
  145.8649  144.0331  161.6191 H   0  0  0  0  0  0  0  0  0  0  0  0
  147.4778  143.3344  161.5546 H   0  0  0  0  0  0  0  0  0  0  0  0
  146.2394  142.8203  160.4149 H   0  0  0  0  0  0  0  0  0  0  0  0
  147.5816  142.3164  159.3164 H   0  0  0  0  0  0  0  0  0  0  0  0
  147.3844  142.9251  157.6697 H   0  0  0  0  0  0  0  0  0  0  0  0
  149.5165  141.3829  158.2188 H   0  0  0  0  0  0  0  0  0  0  0  0
  149.7820  142.8675  157.2986 H   0  0  0  0  0  0  0  0  0  0  0  0
  149.9742  142.5046  160.3135 H   0  0  0  0  0  0  0  0  0  0  0  0
  153.0169  142.4947  157.7511 H   0  0  0  0  0  0  0  0  0  0  0  0
  152.7472  144.2404  157.8415 H   0  0  0  0  0  0  0  0  0  0  0  0
  151.5198  143.1863  157.1466 H   0  0  0  0  0  0  0  0  0  0  0  0
  153.2187  143.0619  163.3802 H   0  0  0  0  0  0  0  0  0  0  0  0
  154.8101  138.9755  158.6670 H   0  0  0  0  0  0  0  0  0  0  0  0
  156.5568  138.8652  160.7142 H   0  0  0  0  0  0  0  0  0  0  0  0
  156.0832  139.6225  162.2047 H   0  0  0  0  0  0  0  0  0  0  0  0
  156.5906  137.8561  163.1100 H   0  0  0  0  0  0  0  0  0  0  0  0
  153.3149  136.8474  162.7435 H   0  0  0  0  0  0  0  0  0  0  0  0
  153.3694  138.5788  162.8776 H   0  0  0  0  0  0  0  0  0  0  0  0
  151.6928  137.8180  161.1827 H   0  0  0  0  0  0  0  0  0  0  0  0
  152.9292  138.7714  160.3926 H   0  0  0  0  0  0  0  0  0  0  0  0
  154.5190  135.8232  158.9917 H   0  0  0  0  0  0  0  0  0  0  0  0
  154.6215  137.5667  159.0531 H   0  0  0  0  0  0  0  0  0  0  0  0
  156.3748  136.5389  160.5292 H   0  0  0  0  0  0  0  0  0  0  0  0
  155.1498  135.5969  161.3401 H   0  0  0  0  0  0  0  0  0  0  0  0
  150.0584  145.2470  159.0722 H   0  0  0  0  0  0  0  0  0  0  0  0
  149.5724  144.7214  160.6775 H   0  0  0  0  0  0  0  0  0  0  0  0
  148.1500  144.9399  158.2655 H   0  0  0  0  0  0  0  0  0  0  0  0
  1  2  1  0  0  0  0
  1 28  1  0  0  0  0
  1 29  1  0  0  0  0
  1 30  1  0  0  0  0
  2  3  1  0  0  0  0
  2  4  1  0  0  0  0
  2 31  1  0  0  0  0
  3 32  1  0  0  0  0
  3 33  1  0  0  0  0
  3 34  1  0  0  0  0
  4 27  1  0  0  0  0
  4  5  1  0  0  0  0
  4 58  1  0  0  0  0
  5  6  1  0  0  0  0
  5 35  1  0  0  0  0
  5 36  1  0  0  0  0
  6  7  1  0  0  0  0
  6 37  1  0  0  0  0
  6 38  1  0  0  0  0
  7  8  1  0  0  0  0
  7 27  1  0  0  0  0
  7 39  1  0  0  0  0
  8  9  1  0  0  0  0
  8 10  1  0  0  0  0
  9 40  1  0  0  0  0
  9 41  1  0  0  0  0
  9 42  1  0  0  0  0
 10 15  1  0  0  0  0
 10 11  2  0  0  0  0
 11 12  1  0  0  0  0
 12 13  2  0  0  0  0
 12 43  1  0  0  0  0
 13 14  1  0  0  0  0
 14 18  1  0  0  0  0
 14 15  2  0  0  0  0
 15 16  1  0  0  0  0
 16 17  2  0  0  0  0
 17 18  1  0  0  0  0
 17 44  1  0  0  0  0
 18 19  1  0  0  0  0
 19 20  1  0  0  0  0
 19 45  1  0  0  0  0
 19 46  1  0  0  0  0
 20 26  1  0  0  0  0
 20 21  1  0  0  0  0
 20 22  1  0  0  0  0
 21 47  1  0  0  0  0
 22 23  1  0  0  0  0
 22 48  1  0  0  0  0
 22 49  1  0  0  0  0
 23 24  1  0  0  0  0
 23 50  1  0  0  0  0
 23 51  1  0  0  0  0
 24 25  1  0  0  0  0
 25 26  1  0  0  0  0
 25 52  1  0  0  0  0
 25 53  1  0  0  0  0
 26 54  1  0  0  0  0
 26 55  1  0  0  0  0
 27 56  1  0  0  0  0
 27 57  1  0  0  0  0
M  CHG  1   4   1
M  END
> <s_m_source_file>
AV-unprocessed.smi

> <i_m_source_file_index>
242

> <i_lp_mmshare_version>
43012

> <i_f3d_flags>
0

> <s_epik_input>
W0NIM11bQ0hdKFtDSDNdKU4xW0NIMl1bQ0gyXVtDQEhdKFtDSDJdMSlOKFtDSDNdKWMobltjSF1uMiljKGMyMyluW2NIXW4zW0NIMl1DNChbT0hdKVtDSDJdW0NIMl1PW0NIMl1bQ0gyXTQ=

> <s_epik_cmdline>
J2VwaWtfcHl0aG9uJywgJy1waCcsICc3LjAnLCAnLXRuJywgJzgnLCAnLW1hJywgJzIwMCcsICctbWV0YWxfYmluZGluZycsICctaW1hZScsICc8aW5maWxlLm1hZT4nLCAnLW9tYWUnLCAnPG91dGZpbGUubWFlPic=

> <r_lp_tautomer_probability>
1

> <r_epik_Ionization_Penalty>
0.000825961

> <r_epik_Ionization_Penalty_Charging>
0.00034898

> <r_epik_Ionization_Penalty_Neutral>
0.000476981

> <r_epik_State_Penalty>
-0

> <r_epik_Charging_Adjusted_Penalty>
0.00034898

> <i_epik_Tot_Q>
1

> <i_epik_Tot_abs_Q>
1

> <r_epik_Metal_State_Penalty>
-0

> <b_epik_Metal_Only>
0

> <s_lp_Force_Field>
OPLS_2005

> <r_lp_Energy>
46.8911

> <b_lp_Chiralities_Consistent>
1

> <s_lp_Variant>
AV-unprocessed.smi:242-1

> <Gold.Version>
5.8.1

> <Gold.Id.Protein>
6NUR|6NUR_protein|mol2

> <Gold.PLP.Fitness>
44.1049

> <Gold.PLP.PLP>
-39.4965

> <Gold.PLP.part.hbond>
-3.6094

> <Gold.PLP.part.metal>
0.0000

> <Gold.PLP.part.buried>
-0.0483

> <Gold.PLP.part.nonpolar>
-36.0570

> <Gold.PLP.part.repulsive>
0.2277

> <Gold.PLP.ligand.clash>
0.0000

> <Gold.PLP.ligand.torsion>
2.6943

> <Gold.PLP.Chemscore.Hbond>
3.0195

> <Gold.PLP.Chemscore.CHOScore>
0.0000

> <Gold.PLP.Chemscore.Metal>
0.0000

> <Gold.Chemscore.Hbonds>
donor molecule, donor type, donor heavy atom, donor atom, acceptor molecule, acceptor atom, score
      L1  H     4    58       P1  8029  1.53
      P1  H  6896  6907       L1    24  1.00
      P1  H  7997  8008       L1    16  0.02

> <Gold.PLP.Chemscore.Internal.Correction>
0.9386

> <Gold.Rescore>
     Score         DG    S(hbond)    S(metal)    S(lipo)     H(rot)  DE(clash)    DE(int)     intcor
      9.30     -16.13       1.93        0.00      84.55       2.22       1.53       5.29       ----

> <Gold.Chemscore.Fitness>
9.3024

> <Gold.Chemscore.DG>
-16.1259

> <Gold.Chemscore.ZeroCoef>
-5.4800

> <Gold.Chemscore.Hbond>
1.9296

> <Gold.Chemscore.Metal>
0.0000

> <Gold.Chemscore.Lipo>
84.5547

> <Gold.Chemscore.Internal_Hbond>
0.0000

> <Gold.Chemscore.DEClash>
1.5315

> <Gold.Chemscore.DEInternal>
5.2920

> <Gold.Chemscore.Rot>
2.2234

> <Gold.Chemscore.Internal.Correction>
   9.000000E+99

> <Gold.Chemscore.Hbonds>
donor molecule, donor type, donor heavy atom, donor atom, acceptor molecule, acceptor atom, score
      L1  H     4    58       P1  8029  0.71
      P1  H  6896  6907       L1    24  0.87

> <Gold.Chemscore.Hbond.Weighted>
-6.4449

> <Gold.Chemscore.Metal.Weighted>
-0.0000

> <Gold.Chemscore.Lipo.Weighted>
-9.8929

> <Gold.Chemscore.Internal_Hbond.Weighted>
0.0000

> <Gold.Chemscore.DEClash.Weighted>
1.5315

> <Gold.Chemscore.DEInternal.Weighted>
5.2920

> <Gold.Chemscore.Rot.Weighted>
5.6919

> <Gold.Chemscore.Internal.Correction.Weighted>
   9.000000E+99

> <Gold.Protein.RotatedTorsions>
[ 6907 6896 6895 6894 ] final   33.69 input  -60.11 | X-H torsion
[ 7974 7965 7964 7962 ] final   11.73 input  175.53 | X-H torsion
[ 8008 7997 7996 7995 ] final  -70.29 input   59.86 | X-H torsion
[ 10167 10162 10161 10158 ] final -151.64 input  -65.29 | X-H torsion
[ 10718 10713 10712 10709 ] final  111.37 input   66.30 | X-H torsion
[ 10763 10752 10751 10750 ] final   62.03 input  -60.55 | X-H torsion
[ 11005 11000 10999 10996 ] final  -33.06 input  -57.11 | X-H torsion

> <Gold.Protein.ActiveResidues>
 VAL166  LYS551  ARG553  GLY616  TRP617  ASP618  TYR619  PRO620  LYS621  CYS622 
 ASP623  PHE694  ASN695  SER759  ASP760  ASP761  ALA762  ILE779  LEU786  VAL792 
 PHE793  MET794  SER795  GLU796  ALA797  LYS798  CYS799  TRP800  GLU811  SER814 

> <Gold.Protein.RotatedAtoms>
  152.0920  134.9401  160.0571 H   0  0  0  0  0  0  0  0  0  0  0  0  # atno 6907 bound_to 6896
  152.0648  133.4074  159.4442 H   0  0  0  0  0  0  0  0  0  0  0  0  # atno 6908 bound_to 6896
  150.6837  134.3079  159.4777 H   0  0  0  0  0  0  0  0  0  0  0  0  # atno 6909 bound_to 6896
  146.2365  139.9441  142.8479 H   0  0  0  0  0  0  0  0  0  0  0  0  # atno 7974 bound_to 7965
  154.5001  140.0837  156.7780 H   0  0  0  0  0  0  0  0  0  0  0  0  # atno 8008 bound_to 7997
  155.4023  140.3437  155.4239 H   0  0  0  0  0  0  0  0  0  0  0  0  # atno 8009 bound_to 7997
  156.1445  140.1539  156.8856 H   0  0  0  0  0  0  0  0  0  0  0  0  # atno 8010 bound_to 7997
  139.7250  143.8897  152.2516 H   0  0  0  0  0  0  0  0  0  0  0  0  # atno 10167 bound_to 10162
  157.6448  131.0949  150.6738 H   0  0  0  0  0  0  0  0  0  0  0  0  # atno 10718 bound_to 10713
  152.9969  135.5479  154.6128 H   0  0  0  0  0  0  0  0  0  0  0  0  # atno 10763 bound_to 10752
  154.5445  135.2822  155.1068 H   0  0  0  0  0  0  0  0  0  0  0  0  # atno 10764 bound_to 10752
  154.2332  135.6430  153.5235 H   0  0  0  0  0  0  0  0  0  0  0  0  # atno 10765 bound_to 10752
  140.9604  133.7168  156.1360 H   0  0  0  0  0  0  0  0  0  0  0  0  # atno 11005 bound_to 11000
  145.1924  140.9817  143.4203 LP  0  0  0  0  0  0  0  0  0  0  0  0  # atno 17320 bound_to 7965
  144.9845  139.3750  143.6245 LP  0  0  0  0  0  0  0  0  0  0  0  0  # atno 17321 bound_to 7965
  139.8804  144.7021  150.8884 LP  0  0  0  0  0  0  0  0  0  0  0  0  # atno 17342 bound_to 10162
  140.7761  143.3666  151.1728 LP  0  0  0  0  0  0  0  0  0  0  0  0  # atno 17343 bound_to 10162
  156.7057  130.4636  149.5561 LP  0  0  0  0  0  0  0  0  0  0  0  0  # atno 17370 bound_to 10713
  156.1764  130.6471  151.0900 LP  0  0  0  0  0  0  0  0  0  0  0  0  # atno 17371 bound_to 10713
  140.7476  134.4081  157.5546 LP  0  0  0  0  0  0  0  0  0  0  0  0  # atno 17394 bound_to 11000
  139.8876  134.8878  156.2519 LP  0  0  0  0  0  0  0  0  0  0  0  0  # atno 17395 bound_to 11000

$$$$
