AV-unprocessed.smi:2044|AV-procd|sdf|8307|dock3
  -GOLD-   2272010573D 1   1.00000     0.00000
 Structure written by MMmdl.
 39 40  0  0  0  0  0  0  0  0  3 V2000
  146.6580  133.6533  161.7117 C   0  0  0  0  0  0  0  0  0  0  0  0
  147.1692  134.9634  161.2175 C   0  0  0  0  0  0  0  0  0  0  0  0
  147.8385  135.3305  160.0842 C   0  0  0  0  0  0  0  0  0  0  0  0
  148.0196  136.7285  160.2562 C   0  0  0  0  0  0  0  0  0  0  0  0
  148.6837  137.5003  159.2667 N   0  0  0  0  0  0  0  0  0  0  0  0
  149.6172  137.1076  158.3816 C   0  0  0  0  0  0  0  0  0  0  0  0
  149.9618  135.9212  158.3211 O   0  0  0  0  0  0  0  0  0  0  0  0
  150.0964  138.1441  157.6390 N   0  5  0  0  0  0  0  0  0  0  0  0
  150.4802  139.4562  158.1719 C   0  0  0  0  0  0  0  0  0  0  0  0
  151.9032  139.8768  157.7094 C   0  0  1  0  0  0  0  0  0  0  0  0
  152.1040  139.8605  156.1733 C   0  0  0  0  0  0  0  0  0  0  0  0
  152.3352  141.1448  158.3799 N   0  3  0  0  0  0  0  0  0  0  0  0
  151.6405  142.3604  157.8914 C   0  0  0  0  0  0  0  0  0  0  0  0
  152.3116  143.6182  158.4700 C   0  0  0  0  0  0  0  0  0  0  0  0
  152.3207  143.5534  159.8914 O   0  0  0  0  0  0  0  0  0  0  0  0
  153.0494  142.4288  160.3699 C   0  0  0  0  0  0  0  0  0  0  0  0
  152.3824  141.1399  159.8668 C   0  0  0  0  0  0  0  0  0  0  0  0
  147.4999  137.1758  161.3901 N   0  0  0  0  0  0  0  0  0  0  0  0
  146.9557  136.0466  162.0133 O   0  0  0  0  0  0  0  0  0  0  0  0
  146.2200  133.0769  160.8967 H   0  0  0  0  0  0  0  0  0  0  0  0
  145.8917  133.7934  162.4746 H   0  0  0  0  0  0  0  0  0  0  0  0
  147.4653  133.0645  162.1470 H   0  0  0  0  0  0  0  0  0  0  0  0
  148.1494  134.6985  159.2654 H   0  0  0  0  0  0  0  0  0  0  0  0
  148.4359  138.4783  159.2377 H   0  0  0  0  0  0  0  0  0  0  0  0
  149.7754  140.2361  157.8798 H   0  0  0  0  0  0  0  0  0  0  0  0
  150.4565  139.4525  159.2616 H   0  0  0  0  0  0  0  0  0  0  0  0
  152.5534  139.0839  158.0820 H   0  0  0  0  0  0  0  0  0  0  0  0
  151.8928  138.8769  155.7496 H   0  0  0  0  0  0  0  0  0  0  0  0
  153.1381  140.0911  155.9161 H   0  0  0  0  0  0  0  0  0  0  0  0
  151.4668  140.5779  155.6536 H   0  0  0  0  0  0  0  0  0  0  0  0
  151.6793  142.4019  156.8022 H   0  0  0  0  0  0  0  0  0  0  0  0
  150.5887  142.3218  158.1783 H   0  0  0  0  0  0  0  0  0  0  0  0
  153.3314  143.7204  158.0948 H   0  0  0  0  0  0  0  0  0  0  0  0
  151.7675  144.5104  158.1601 H   0  0  0  0  0  0  0  0  0  0  0  0
  154.0896  142.4829  160.0438 H   0  0  0  0  0  0  0  0  0  0  0  0
  153.0555  142.4487  161.4598 H   0  0  0  0  0  0  0  0  0  0  0  0
  151.3750  141.0664  160.2780 H   0  0  0  0  0  0  0  0  0  0  0  0
  152.9452  140.2795  160.2289 H   0  0  0  0  0  0  0  0  0  0  0  0
  153.2965  141.2537  158.0861 H   0  0  0  0  0  0  0  0  0  0  0  0
  1  2  1  0  0  0  0
  1 20  1  0  0  0  0
  1 21  1  0  0  0  0
  1 22  1  0  0  0  0
  2 19  1  0  0  0  0
  2  3  2  0  0  0  0
  3  4  1  0  0  0  0
  3 23  1  0  0  0  0
  4  5  1  0  0  0  0
  4 18  2  0  0  0  0
  5  6  1  0  0  0  0
  5 24  1  0  0  0  0
  6  7  2  0  0  0  0
  6  8  1  0  0  0  0
  8  9  1  0  0  0  0
  9 10  1  0  0  0  0
  9 25  1  0  0  0  0
  9 26  1  0  0  0  0
 10 11  1  0  0  0  0
 10 12  1  0  0  0  0
 10 27  1  0  0  0  0
 11 28  1  0  0  0  0
 11 29  1  0  0  0  0
 11 30  1  0  0  0  0
 12 17  1  0  0  0  0
 12 13  1  0  0  0  0
 12 39  1  0  0  0  0
 13 14  1  0  0  0  0
 13 31  1  0  0  0  0
 13 32  1  0  0  0  0
 14 15  1  0  0  0  0
 14 33  1  0  0  0  0
 14 34  1  0  0  0  0
 15 16  1  0  0  0  0
 16 17  1  0  0  0  0
 16 35  1  0  0  0  0
 16 36  1  0  0  0  0
 17 37  1  0  0  0  0
 17 38  1  0  0  0  0
 18 19  1  0  0  0  0
M  CHG  1   8  -1
M  CHG  1  12   1
M  END
> <s_m_source_file>
AV-unprocessed.smi

> <i_m_source_file_index>
2044

> <i_lp_mmshare_version>
43012

> <i_f3d_flags>
0

> <s_epik_input>
W0NIM11jMVtjSF1jKG5vMSlbTkhdQyg9TylbTkhdW0NIMl1bQ0BIXShbQ0gzXSlOMltDSDJdW0NIMl1PW0NIMl1bQ0gyXTI=

> <s_epik_cmdline>
J2VwaWtfcHl0aG9uJywgJy1waCcsICc3LjAnLCAnLXRuJywgJzgnLCAnLW1hJywgJzIwMCcsICctbWV0YWxfYmluZGluZycsICctaW1hZScsICc8aW5maWxlLm1hZT4nLCAnLW9tYWUnLCAnPG91dGZpbGUubWFlPic=

> <r_epik_Ionization_Penalty>
6.79272

> <r_epik_Ionization_Penalty_Charging>
6.79272

> <r_epik_Ionization_Penalty_Neutral>
5.6208e-06

> <r_epik_State_Penalty>
7.45901

> <r_epik_Charging_Adjusted_Penalty>
14.2517

> <i_epik_Tot_Q>
0

> <i_epik_Tot_abs_Q>
2

> <r_epik_Metal_State_Penalty>
3.38639

> <b_epik_Metal_Only>
1

> <s_lp_Force_Field>
OPLS_2005

> <r_lp_Energy>
15.3215

> <b_lp_Chiralities_Consistent>
1

> <s_lp_Variant>
AV-unprocessed.smi:2044-10

> <Gold.Version>
5.8.1

> <Gold.Id.Protein>
6NUR|6NUR_protein|mol2

> <Gold.PLP.Fitness>
41.2740

> <Gold.PLP.PLP>
-34.0214

> <Gold.PLP.part.hbond>
-3.0000

> <Gold.PLP.part.metal>
0.0000

> <Gold.PLP.part.buried>
-5.0596

> <Gold.PLP.part.nonpolar>
-26.0416

> <Gold.PLP.part.repulsive>
0.3054

> <Gold.PLP.ligand.clash>
0.0000

> <Gold.PLP.ligand.torsion>
0.6487

> <Gold.PLP.Chemscore.Hbond>
2.7600

> <Gold.PLP.Chemscore.CHOScore>
0.0000

> <Gold.PLP.Chemscore.Metal>
0.0000

> <Gold.Chemscore.Hbonds>
donor molecule, donor type, donor heavy atom, donor atom, acceptor molecule, acceptor atom, score
      P1  H  6896  6908       L1     7  1.00
      P1  H  6931  6943       L1    18  0.74
      P1  H  6934  6947       L1    18  0.90

> <Gold.PLP.Chemscore.Internal.Correction>
0.2699

> <Gold.Rescore>
     Score         DG    S(hbond)    S(metal)    S(lipo)     H(rot)  DE(clash)    DE(int)     intcor
     14.03     -16.15       1.73        0.00      76.66       1.59       0.00       2.12       ----

> <Gold.Chemscore.Fitness>
14.0344

> <Gold.Chemscore.DG>
-16.1543

> <Gold.Chemscore.ZeroCoef>
-5.4800

> <Gold.Chemscore.Hbond>
1.7314

> <Gold.Chemscore.Metal>
0.0000

> <Gold.Chemscore.Lipo>
76.6611

> <Gold.Chemscore.Internal_Hbond>
0.0000

> <Gold.Chemscore.DEClash>
0.0000

> <Gold.Chemscore.DEInternal>
2.1199

> <Gold.Chemscore.Rot>
1.5930

> <Gold.Chemscore.Internal.Correction>
   9.000000E+99

> <Gold.Chemscore.Hbonds>
donor molecule, donor type, donor heavy atom, donor atom, acceptor molecule, acceptor atom, score
      P1  H  6896  6908       L1     7  0.95
      P1  H  6931  6943       L1    18  0.11
      P1  H  6934  6947       L1    18  0.26

> <Gold.Chemscore.Hbond.Weighted>
-5.7830

> <Gold.Chemscore.Metal.Weighted>
-0.0000

> <Gold.Chemscore.Lipo.Weighted>
-8.9693

> <Gold.Chemscore.Internal_Hbond.Weighted>
0.0000

> <Gold.Chemscore.DEClash.Weighted>
0.0000

> <Gold.Chemscore.DEInternal.Weighted>
2.1199

> <Gold.Chemscore.Rot.Weighted>
4.0781

> <Gold.Chemscore.Internal.Correction.Weighted>
   9.000000E+99

> <Gold.Protein.RotatedTorsions>
[ 6907 6896 6895 6894 ] final  175.09 input  -60.11 | X-H torsion
[ 7974 7965 7964 7962 ] final   44.46 input  175.53 | X-H torsion
[ 8008 7997 7996 7995 ] final -144.73 input   59.86 | X-H torsion
[ 10167 10162 10161 10158 ] final -155.30 input  -65.29 | X-H torsion
[ 10718 10713 10712 10709 ] final -121.81 input   66.30 | X-H torsion
[ 10763 10752 10751 10750 ] final   86.77 input  -60.55 | X-H torsion
[ 11005 11000 10999 10996 ] final  159.54 input  -57.11 | X-H torsion

> <Gold.Protein.ActiveResidues>
 VAL166  LYS551  ARG553  GLY616  TRP617  ASP618  TYR619  PRO620  LYS621  CYS622 
 ASP623  PHE694  ASN695  SER759  ASP760  ASP761  ALA762  ILE779  LEU786  VAL792 
 PHE793  MET794  SER795  GLU796  ALA797  LYS798  CYS799  TRP800  GLU811  SER814 

> <Gold.Protein.RotatedAtoms>
  151.7418  133.3322  159.3367 H   0  0  0  0  0  0  0  0  0  0  0  0  # atno 6907 bound_to 6896
  150.7570  134.6271  159.6176 H   0  0  0  0  0  0  0  0  0  0  0  0  # atno 6908 bound_to 6896
  152.3525  134.6987  160.0283 H   0  0  0  0  0  0  0  0  0  0  0  0  # atno 6909 bound_to 6896
  146.0566  139.5072  142.9684 H   0  0  0  0  0  0  0  0  0  0  0  0  # atno 7974 bound_to 7965
  155.5317  140.0600  157.2887 H   0  0  0  0  0  0  0  0  0  0  0  0  # atno 8008 bound_to 7997
  154.4482  140.1934  156.0546 H   0  0  0  0  0  0  0  0  0  0  0  0  # atno 8009 bound_to 7997
  156.0647  140.3268  155.7507 H   0  0  0  0  0  0  0  0  0  0  0  0  # atno 8010 bound_to 7997
  139.6942  143.9369  152.2399 H   0  0  0  0  0  0  0  0  0  0  0  0  # atno 10167 bound_to 10162
  156.1367  130.6436  150.9708 H   0  0  0  0  0  0  0  0  0  0  0  0  # atno 10718 bound_to 10713
  153.1603  135.4568  154.9762 H   0  0  0  0  0  0  0  0  0  0  0  0  # atno 10763 bound_to 10752
  154.7892  135.3214  154.7819 H   0  0  0  0  0  0  0  0  0  0  0  0  # atno 10764 bound_to 10752
  153.8309  135.6938  153.4869 H   0  0  0  0  0  0  0  0  0  0  0  0  # atno 10765 bound_to 10752
  140.1971  134.8365  157.2977 H   0  0  0  0  0  0  0  0  0  0  0  0  # atno 11005 bound_to 11000
  145.6632  141.0235  143.1697 LP  0  0  0  0  0  0  0  0  0  0  0  0  # atno 17320 bound_to 7965
  144.7151  139.8225  143.7401 LP  0  0  0  0  0  0  0  0  0  0  0  0  # atno 17321 bound_to 7965
  139.9194  144.6809  150.8478 LP  0  0  0  0  0  0  0  0  0  0  0  0  # atno 17342 bound_to 10162
  140.7691  143.3386  151.2256 LP  0  0  0  0  0  0  0  0  0  0  0  0  # atno 17343 bound_to 10162
  157.6539  131.0892  150.7990 LP  0  0  0  0  0  0  0  0  0  0  0  0  # atno 17370 bound_to 10713
  156.8070  130.4940  149.5361 LP  0  0  0  0  0  0  0  0  0  0  0  0  # atno 17371 bound_to 10713
  140.2095  134.4156  155.7620 LP  0  0  0  0  0  0  0  0  0  0  0  0  # atno 17394 bound_to 11000
  141.2227  133.7111  156.8314 LP  0  0  0  0  0  0  0  0  0  0  0  0  # atno 17395 bound_to 11000

$$$$
