AV-unprocessed.smi:567|AV-procd|sdf|2956|dock6
  -GOLD-   2262023463D 1   1.00000     0.00000
 Structure written by MMmdl.
 53 54  0  0  0  0  0  0  0  0  2 V2000
  148.0913  144.8578  161.5140 C   0  0  0  0  0  0  0  0  0  0  0  0
  149.0965  144.0907  160.8763 O   0  0  0  0  0  0  0  0  0  0  0  0
  149.2475  144.4223  159.5043 C   0  0  0  0  0  0  0  0  0  0  0  0
  150.7385  144.3971  159.1322 C   0  0  0  0  0  0  0  0  0  0  0  0
  151.1358  143.1002  158.5728 N   0  0  0  0  0  0  0  0  0  0  0  0
  150.4175  142.7383  157.4482 N   0  0  0  0  0  0  0  0  0  0  0  0
  150.6623  141.6185  156.8492 C   0  0  0  0  0  0  0  0  0  0  0  0
  149.8900  141.1977  155.6497 C   0  0  0  0  0  0  0  0  0  0  0  0
  150.1307  140.1504  155.0480 O   0  0  0  0  0  0  0  0  0  0  0  0
  148.9266  142.0572  155.2753 N   0  0  0  0  0  0  0  0  0  0  0  0
  148.0773  141.9522  154.0956 C   0  0  0  0  0  0  0  0  0  0  0  0
  146.8260  142.8424  154.1890 C   0  0  0  0  0  0  0  0  0  0  0  0
  145.7215  142.3240  155.1466 C   0  0  0  0  0  0  0  0  0  0  0  0
  146.0322  142.6268  156.6302 C   0  0  0  0  0  0  0  0  0  0  0  0
  144.4169  143.0735  154.8124 C   0  0  0  0  0  0  0  0  0  0  0  0
  145.4523  140.8741  154.9277 N   0  3  0  0  0  0  0  0  0  0  0  0
  146.5860  139.9202  154.7603 C   0  0  0  0  0  0  0  0  0  0  0  0
  147.1610  139.4725  156.1241 C   0  0  0  0  0  0  0  0  0  0  0  0
  146.0057  138.6566  154.0958 C   0  0  0  0  0  0  0  0  0  0  0  0
  147.6733  140.4962  153.8155 C   0  0  0  0  0  0  0  0  0  0  0  0
  151.7054  140.7297  157.3292 C   0  0  0  0  0  0  0  0  0  0  0  0
  152.3848  141.0856  158.4422 C   0  0  0  0  0  0  0  0  0  0  0  0
  152.1047  142.3328  159.1576 C   0  0  0  0  0  0  0  0  0  0  0  0
  152.6860  142.6599  160.1917 O   0  0  0  0  0  0  0  0  0  0  0  0
  148.0124  144.5604  162.5596 H   0  0  0  0  0  0  0  0  0  0  0  0
  147.1187  144.7026  161.0450 H   0  0  0  0  0  0  0  0  0  0  0  0
  148.3298  145.9217  161.4832 H   0  0  0  0  0  0  0  0  0  0  0  0
  148.7094  143.6929  158.8973 H   0  0  0  0  0  0  0  0  0  0  0  0
  148.8169  145.4024  159.2928 H   0  0  0  0  0  0  0  0  0  0  0  0
  150.9546  145.1928  158.4171 H   0  0  0  0  0  0  0  0  0  0  0  0
  151.3368  144.6366  160.0126 H   0  0  0  0  0  0  0  0  0  0  0  0
  148.7984  142.8784  155.8493 H   0  0  0  0  0  0  0  0  0  0  0  0
  148.6688  142.2903  153.2428 H   0  0  0  0  0  0  0  0  0  0  0  0
  147.1062  143.8640  154.4509 H   0  0  0  0  0  0  0  0  0  0  0  0
  146.4098  142.9090  153.1824 H   0  0  0  0  0  0  0  0  0  0  0  0
  146.0840  143.7024  156.8029 H   0  0  0  0  0  0  0  0  0  0  0  0
  146.9775  142.2225  156.9757 H   0  0  0  0  0  0  0  0  0  0  0  0
  145.2544  142.2325  157.2849 H   0  0  0  0  0  0  0  0  0  0  0  0
  144.5361  144.1517  154.9279 H   0  0  0  0  0  0  0  0  0  0  0  0
  143.5986  142.7636  155.4638 H   0  0  0  0  0  0  0  0  0  0  0  0
  144.1001  142.8899  153.7849 H   0  0  0  0  0  0  0  0  0  0  0  0
  144.8441  140.5373  155.6603 H   0  0  0  0  0  0  0  0  0  0  0  0
  147.8814  138.6640  155.9946 H   0  0  0  0  0  0  0  0  0  0  0  0
  146.3741  139.0986  156.7801 H   0  0  0  0  0  0  0  0  0  0  0  0
  147.6838  140.2546  156.6642 H   0  0  0  0  0  0  0  0  0  0  0  0
  146.7800  137.9101  153.9137 H   0  0  0  0  0  0  0  0  0  0  0  0
  145.5416  138.8849  153.1353 H   0  0  0  0  0  0  0  0  0  0  0  0
  145.2428  138.1902  154.7207 H   0  0  0  0  0  0  0  0  0  0  0  0
  147.2964  140.4644  152.7917 H   0  0  0  0  0  0  0  0  0  0  0  0
  148.5557  139.8544  153.8160 H   0  0  0  0  0  0  0  0  0  0  0  0
  151.9313  139.8043  156.8197 H   0  0  0  0  0  0  0  0  0  0  0  0
  153.1610  140.4336  158.8154 H   0  0  0  0  0  0  0  0  0  0  0  0
  144.9375  140.8287  154.0599 H   0  0  0  0  0  0  0  0  0  0  0  0
  1  2  1  0  0  0  0
  1 25  1  0  0  0  0
  1 26  1  0  0  0  0
  1 27  1  0  0  0  0
  2  3  1  0  0  0  0
  3  4  1  0  0  0  0
  3 28  1  0  0  0  0
  3 29  1  0  0  0  0
  4  5  1  0  0  0  0
  4 30  1  0  0  0  0
  4 31  1  0  0  0  0
  5 23  1  0  0  0  0
  5  6  1  0  0  0  0
  6  7  2  0  0  0  0
  7  8  1  0  0  0  0
  7 21  1  0  0  0  0
  8  9  2  0  0  0  0
  8 10  1  0  0  0  0
 10 11  1  0  0  0  0
 10 32  1  0  0  0  0
 11 20  1  0  0  0  0
 11 12  1  0  0  0  0
 11 33  1  0  0  0  0
 12 13  1  0  0  0  0
 12 34  1  0  0  0  0
 12 35  1  0  0  0  0
 13 14  1  0  0  0  0
 13 15  1  0  0  0  0
 13 16  1  0  0  0  0
 14 36  1  0  0  0  0
 14 37  1  0  0  0  0
 14 38  1  0  0  0  0
 15 39  1  0  0  0  0
 15 40  1  0  0  0  0
 15 41  1  0  0  0  0
 16 17  1  0  0  0  0
 16 42  1  0  0  0  0
 16 53  1  0  0  0  0
 17 18  1  0  0  0  0
 17 19  1  0  0  0  0
 17 20  1  0  0  0  0
 18 43  1  0  0  0  0
 18 44  1  0  0  0  0
 18 45  1  0  0  0  0
 19 46  1  0  0  0  0
 19 47  1  0  0  0  0
 19 48  1  0  0  0  0
 20 49  1  0  0  0  0
 20 50  1  0  0  0  0
 21 22  2  0  0  0  0
 21 51  1  0  0  0  0
 22 23  1  0  0  0  0
 22 52  1  0  0  0  0
 23 24  2  0  0  0  0
M  CHG  1  16   1
M  END
> <s_m_source_file>
AV-unprocessed.smi

> <i_m_source_file_index>
567

> <i_lp_mmshare_version>
43012

> <i_f3d_flags>
0

> <s_epik_input>
W0NIM11PW0NIMl1bQ0gyXW4xbmMoW2NIXVtjSF1jMT1PKUMoPU8pW05IXVtDSF0oW0NIMl1DMihbQ0gzXSlbQ0gzXSlbQ0gyXUMoW05IXTIpKFtDSDNdKVtDSDNd

> <s_epik_cmdline>
J2VwaWtfcHl0aG9uJywgJy1waCcsICc3LjAnLCAnLXRuJywgJzgnLCAnLW1hJywgJzIwMCcsICctbWV0YWxfYmluZGluZycsICctaW1hZScsICc8aW5maWxlLm1hZT4nLCAnLW9tYWUnLCAnPG91dGZpbGUubWFlPic=

> <r_lp_tautomer_probability>
1

> <r_epik_Ionization_Penalty>
0.000138804

> <r_epik_Ionization_Penalty_Charging>
0.000136152

> <r_epik_Ionization_Penalty_Neutral>
2.65225e-06

> <r_epik_State_Penalty>
-0

> <r_epik_Charging_Adjusted_Penalty>
0.000136152

> <i_epik_Tot_Q>
1

> <i_epik_Tot_abs_Q>
1

> <r_epik_Metal_State_Penalty>
-0

> <b_epik_Metal_Only>
0

> <s_lp_Force_Field>
OPLS_2005

> <r_lp_Energy>
46.3617

> <b_lp_Chiralities_Consistent>
1

> <s_lp_Variant>
AV-unprocessed.smi:567-1

> <Gold.Version>
5.8.1

> <Gold.Id.Protein>
6NUR|6NUR_protein|mol2

> <Gold.PLP.Fitness>
47.7825

> <Gold.PLP.PLP>
-38.1936

> <Gold.PLP.part.hbond>
-3.2754

> <Gold.PLP.part.metal>
0.0000

> <Gold.PLP.part.buried>
-3.2663

> <Gold.PLP.part.nonpolar>
-32.1206

> <Gold.PLP.part.repulsive>
0.9923

> <Gold.PLP.ligand.clash>
0.0000

> <Gold.PLP.ligand.torsion>
0.7783

> <Gold.PLP.Chemscore.Hbond>
3.7008

> <Gold.PLP.Chemscore.CHOScore>
0.0000

> <Gold.PLP.Chemscore.Metal>
0.0000

> <Gold.Chemscore.Hbonds>
donor molecule, donor type, donor heavy atom, donor atom, acceptor molecule, acceptor atom, score
      L1  H    10    32       P1  8028  0.75
      L1  H    16    53       P1 10175  1.95
      P1  H  6933  6944       L1     2  0.55
      P1  H  7989  7998       L1     9  0.39

> <Gold.PLP.Chemscore.Internal.Correction>
0.0432

> <Gold.Rescore>
     Score         DG    S(hbond)    S(metal)    S(lipo)     H(rot)  DE(clash)    DE(int)     intcor
     13.85     -15.94       1.75        0.00      74.62       1.61       0.12       1.96       ----

> <Gold.Chemscore.Fitness>
13.8548

> <Gold.Chemscore.DG>
-15.9383

> <Gold.Chemscore.ZeroCoef>
-5.4800

> <Gold.Chemscore.Hbond>
1.7521

> <Gold.Chemscore.Metal>
0.0000

> <Gold.Chemscore.Lipo>
74.6244

> <Gold.Chemscore.Internal_Hbond>
0.0000

> <Gold.Chemscore.DEClash>
0.1224

> <Gold.Chemscore.DEInternal>
1.9610

> <Gold.Chemscore.Rot>
1.6112

> <Gold.Chemscore.Internal.Correction>
   9.000000E+99

> <Gold.Chemscore.Hbonds>
donor molecule, donor type, donor heavy atom, donor atom, acceptor molecule, acceptor atom, score
      L1  H    10    32       P1  8028  0.76
      L1  H    16    53       P1 10175  0.88
      P1  H  6933  6944       L1     2  0.12
      P1  H  7989  7998       L1     9  0.12

> <Gold.Chemscore.Hbond.Weighted>
-5.8519

> <Gold.Chemscore.Metal.Weighted>
-0.0000

> <Gold.Chemscore.Lipo.Weighted>
-8.7311

> <Gold.Chemscore.Internal_Hbond.Weighted>
0.0000

> <Gold.Chemscore.DEClash.Weighted>
0.1224

> <Gold.Chemscore.DEInternal.Weighted>
1.9610

> <Gold.Chemscore.Rot.Weighted>
4.1247

> <Gold.Chemscore.Internal.Correction.Weighted>
   9.000000E+99

> <Gold.Protein.RotatedTorsions>
[ 6907 6896 6895 6894 ] final -119.67 input  -60.11 | X-H torsion
[ 7974 7965 7964 7962 ] final -141.32 input  175.53 | X-H torsion
[ 8008 7997 7996 7995 ] final   21.25 input   59.86 | X-H torsion
[ 10167 10162 10161 10158 ] final  113.90 input  -65.29 | X-H torsion
[ 10718 10713 10712 10709 ] final  110.64 input   66.30 | X-H torsion
[ 10763 10752 10751 10750 ] final -131.75 input  -60.55 | X-H torsion
[ 11005 11000 10999 10996 ] final  -92.61 input  -57.11 | X-H torsion

> <Gold.Protein.ActiveResidues>
 VAL166  LYS551  ARG553  GLY616  TRP617  ASP618  TYR619  PRO620  LYS621  CYS622 
 ASP623  PHE694  ASN695  SER759  ASP760  ASP761  ALA762  ILE779  LEU786  VAL792 
 PHE793  MET794  SER795  GLU796  ALA797  LYS798  CYS799  TRP800  GLU811  SER814 

> <Gold.Protein.RotatedAtoms>
  150.8325  133.8067  159.3092 H   0  0  0  0  0  0  0  0  0  0  0  0  # atno 6907 bound_to 6896
  151.5793  135.1057  160.0023 H   0  0  0  0  0  0  0  0  0  0  0  0  # atno 6908 bound_to 6896
  152.4403  133.7393  159.6688 H   0  0  0  0  0  0  0  0  0  0  0  0  # atno 6909 bound_to 6896
  144.8528  140.6094  143.5379 H   0  0  0  0  0  0  0  0  0  0  0  0  # atno 7974 bound_to 7965
  154.9478  140.3061  155.5090 H   0  0  0  0  0  0  0  0  0  0  0  0  # atno 8008 bound_to 7997
  156.2990  140.2324  156.4490 H   0  0  0  0  0  0  0  0  0  0  0  0  # atno 8009 bound_to 7997
  154.8084  140.0430  157.1313 H   0  0  0  0  0  0  0  0  0  0  0  0  # atno 8010 bound_to 7997
  139.6428  144.7125  151.2203 H   0  0  0  0  0  0  0  0  0  0  0  0  # atno 10167 bound_to 10162
  157.6484  131.0936  150.6632 H   0  0  0  0  0  0  0  0  0  0  0  0  # atno 10718 bound_to 10713
  154.8748  135.3820  154.4297 H   0  0  0  0  0  0  0  0  0  0  0  0  # atno 10763 bound_to 10752
  153.4992  135.7030  153.5846 H   0  0  0  0  0  0  0  0  0  0  0  0  # atno 10764 bound_to 10752
  153.4185  135.3907  155.2063 H   0  0  0  0  0  0  0  0  0  0  0  0  # atno 10765 bound_to 10752
  141.1517  133.7832  157.0044 H   0  0  0  0  0  0  0  0  0  0  0  0  # atno 11005 bound_to 11000
  145.4465  139.1529  143.3942 LP  0  0  0  0  0  0  0  0  0  0  0  0  # atno 17320 bound_to 7965
  146.2799  140.4589  142.8780 LP  0  0  0  0  0  0  0  0  0  0  0  0  # atno 17321 bound_to 7965
  140.7499  143.6283  150.8447 LP  0  0  0  0  0  0  0  0  0  0  0  0  # atno 17342 bound_to 10162
  139.9922  143.5834  152.2906 LP  0  0  0  0  0  0  0  0  0  0  0  0  # atno 17343 bound_to 10162
  156.6946  130.4605  149.5590 LP  0  0  0  0  0  0  0  0  0  0  0  0  # atno 17370 bound_to 10713
  156.1837  130.6516  151.0982 LP  0  0  0  0  0  0  0  0  0  0  0  0  # atno 17371 bound_to 10713
  140.0918  134.9587  157.1789 LP  0  0  0  0  0  0  0  0  0  0  0  0  # atno 17394 bound_to 11000
  140.3435  134.2677  155.7208 LP  0  0  0  0  0  0  0  0  0  0  0  0  # atno 17395 bound_to 11000

$$$$
