AV-unprocessed.smi:433|AV-procd|sdf|2550|dock5
  -GOLD-   2262022513D 1   1.00000     0.00000
 Structure written by MMmdl.
 36 37  0  0  0  0  0  0  0  0  1 V2000
  150.7499  141.6547  156.1546 C   0  0  0  0  0  0  0  0  0  0  0  0
  151.0046  140.2440  156.1051 N   0  0  0  0  0  0  0  0  0  0  0  0
  152.0283  139.7015  155.3532 C   0  0  0  0  0  0  0  0  0  0  0  0
  152.2672  138.3734  155.2912 C   0  0  0  0  0  0  0  0  0  0  0  0
  151.4408  137.4277  156.0333 C   0  0  0  0  0  0  0  0  0  0  0  0
  151.6065  136.2082  155.9831 O   0  0  0  0  0  0  0  0  0  0  0  0
  150.4128  138.0201  156.8097 N   0  0  0  0  0  0  0  0  0  0  0  0
  149.5336  137.1381  157.5575 C   0  0  0  0  0  0  0  0  0  0  0  0
  149.6449  137.3328  159.0869 C   0  0  2  0  0  0  0  0  0  0  0  0
  150.9902  137.1404  159.4739 O   0  0  0  0  0  0  0  0  0  0  0  0
  148.7960  136.3170  159.8654 C   0  0  0  0  0  0  0  0  0  0  0  0
  147.8269  137.0293  160.6229 O   0  0  0  0  0  0  0  0  0  0  0  0
  146.8782  136.3099  161.3159 C   0  0  0  0  0  0  0  0  0  0  0  0
  145.6590  136.9625  161.5927 C   0  0  0  0  0  0  0  0  0  0  0  0
  144.6320  136.3034  162.2952 C   0  0  0  0  0  0  0  0  0  0  0  0
  144.8164  134.9784  162.7310 C   0  0  0  0  0  0  0  0  0  0  0  0
  146.0286  134.3156  162.4631 C   0  0  0  0  0  0  0  0  0  0  0  0
  147.0559  134.9750  161.7599 C   0  0  0  0  0  0  0  0  0  0  0  0
  150.1514  139.4093  156.8591 C   0  0  0  0  0  0  0  0  0  0  0  0
  149.2190  139.8765  157.5194 O   0  0  0  0  0  0  0  0  0  0  0  0
  151.4939  142.1532  155.5323 H   0  0  0  0  0  0  0  0  0  0  0  0
  150.8444  141.9704  157.1949 H   0  0  0  0  0  0  0  0  0  0  0  0
  149.7453  141.8213  155.7620 H   0  0  0  0  0  0  0  0  0  0  0  0
  152.6656  140.3636  154.7851 H   0  0  0  0  0  0  0  0  0  0  0  0
  153.0788  138.0043  154.6816 H   0  0  0  0  0  0  0  0  0  0  0  0
  148.5206  137.3319  157.2010 H   0  0  0  0  0  0  0  0  0  0  0  0
  149.7252  136.1100  157.2443 H   0  0  0  0  0  0  0  0  0  0  0  0
  149.3445  138.3406  159.3773 H   0  0  0  0  0  0  0  0  0  0  0  0
  151.5351  137.7160  158.9589 H   0  0  0  0  0  0  0  0  0  0  0  0
  148.3170  135.6202  159.1751 H   0  0  0  0  0  0  0  0  0  0  0  0
  149.4324  135.7434  160.5417 H   0  0  0  0  0  0  0  0  0  0  0  0
  145.5095  137.9796  161.2610 H   0  0  0  0  0  0  0  0  0  0  0  0
  143.7030  136.8151  162.4994 H   0  0  0  0  0  0  0  0  0  0  0  0
  144.0296  134.4714  163.2701 H   0  0  0  0  0  0  0  0  0  0  0  0
  146.1718  133.2988  162.7981 H   0  0  0  0  0  0  0  0  0  0  0  0
  147.9720  134.4351  161.5750 H   0  0  0  0  0  0  0  0  0  0  0  0
  1  2  1  0  0  0  0
  1 21  1  0  0  0  0
  1 22  1  0  0  0  0
  1 23  1  0  0  0  0
  2 19  1  0  0  0  0
  2  3  1  0  0  0  0
  3  4  2  0  0  0  0
  3 24  1  0  0  0  0
  4  5  1  0  0  0  0
  4 25  1  0  0  0  0
  5  6  2  0  0  0  0
  5  7  1  0  0  0  0
  7  8  1  0  0  0  0
  7 19  1  0  0  0  0
  8  9  1  0  0  0  0
  8 26  1  0  0  0  0
  8 27  1  0  0  0  0
  9 10  1  0  0  0  0
  9 11  1  0  0  0  0
  9 28  1  0  0  0  0
 10 29  1  0  0  0  0
 11 12  1  0  0  0  0
 11 30  1  0  0  0  0
 11 31  1  0  0  0  0
 12 13  1  0  0  0  0
 13 18  1  0  0  0  0
 13 14  2  0  0  0  0
 14 15  1  0  0  0  0
 14 32  1  0  0  0  0
 15 16  2  0  0  0  0
 15 33  1  0  0  0  0
 16 17  1  0  0  0  0
 16 34  1  0  0  0  0
 17 18  2  0  0  0  0
 17 35  1  0  0  0  0
 18 36  1  0  0  0  0
 19 20  2  0  0  0  0
M  END
> <s_m_source_file>
AV-unprocessed.smi

> <i_m_source_file_index>
433

> <i_lp_mmshare_version>
43012

> <i_f3d_flags>
0

> <s_epik_input>
W0NIM11uMVtjSF1bY0hdYyg9TyluKGMxPU8pW0NIMl1bQ0BIXShbT0hdKVtDSDJdT2MyW2NIXVtjSF1bY0hdW2NIXVtjSF0y

> <s_epik_cmdline>
J2VwaWtfcHl0aG9uJywgJy1waCcsICc3LjAnLCAnLXRuJywgJzgnLCAnLW1hJywgJzIwMCcsICctbWV0YWxfYmluZGluZycsICctaW1hZScsICc8aW5maWxlLm1hZT4nLCAnLW9tYWUnLCAnPG91dGZpbGUubWFlPic=

> <r_lp_tautomer_probability>
1

> <r_epik_Ionization_Penalty>
2.21742e-07

> <r_epik_Ionization_Penalty_Charging>
1.04568e-07

> <r_epik_Ionization_Penalty_Neutral>
1.17174e-07

> <r_epik_State_Penalty>
-0

> <r_epik_Charging_Adjusted_Penalty>
1.04568e-07

> <i_epik_Tot_Q>
0

> <i_epik_Tot_abs_Q>
0

> <r_epik_Metal_State_Penalty>
-0

> <b_epik_Metal_Only>
0

> <s_lp_Force_Field>
OPLS_2005

> <r_lp_Energy>
22.5639

> <b_lp_Chiralities_Consistent>
1

> <s_lp_Variant>
AV-unprocessed.smi:433-1

> <Gold.Version>
5.8.1

> <Gold.Id.Protein>
6NUR|6NUR_protein|mol2

> <Gold.PLP.Fitness>
44.3153

> <Gold.PLP.PLP>
-35.9421

> <Gold.PLP.part.hbond>
-4.0000

> <Gold.PLP.part.metal>
0.0000

> <Gold.PLP.part.buried>
-4.7997

> <Gold.PLP.part.nonpolar>
-27.4134

> <Gold.PLP.part.repulsive>
0.0267

> <Gold.PLP.ligand.clash>
0.0000

> <Gold.PLP.ligand.torsion>
1.1413

> <Gold.PLP.Chemscore.Hbond>
3.5430

> <Gold.PLP.Chemscore.CHOScore>
0.0000

> <Gold.PLP.Chemscore.Metal>
0.0000

> <Gold.Chemscore.Hbonds>
donor molecule, donor type, donor heavy atom, donor atom, acceptor molecule, acceptor atom, score
      P1  H  6896  6907       L1    10  0.91
      P1  H  6931  6943       L1    12  0.63
      P1  H  6934  6947       L1    12  0.70
      P1  H 10752 10765       L1     6  1.00

> <Gold.PLP.Chemscore.Internal.Correction>
0.0268

> <Gold.Rescore>
     Score         DG    S(hbond)    S(metal)    S(lipo)     H(rot)  DE(clash)    DE(int)     intcor
     16.20     -17.44       2.71        0.00      78.63       2.46       0.00       1.24       ----

> <Gold.Chemscore.Fitness>
16.1992

> <Gold.Chemscore.DG>
-17.4392

> <Gold.Chemscore.ZeroCoef>
-5.4800

> <Gold.Chemscore.Hbond>
2.7123

> <Gold.Chemscore.Metal>
0.0000

> <Gold.Chemscore.Lipo>
78.6318

> <Gold.Chemscore.Internal_Hbond>
0.0000

> <Gold.Chemscore.DEClash>
0.0000

> <Gold.Chemscore.DEInternal>
1.2400

> <Gold.Chemscore.Rot>
2.4608

> <Gold.Chemscore.Internal.Correction>
   9.000000E+99

> <Gold.Chemscore.Hbonds>
donor molecule, donor type, donor heavy atom, donor atom, acceptor molecule, acceptor atom, score
      P1  H  6896  6907       L1    10  0.61
      P1  H  6931  6943       L1    12  0.21
      P1  H  6934  6947       L1    12  0.27
      P1  H 10752 10765       L1     6  0.97

> <Gold.Chemscore.Hbond.Weighted>
-9.0590

> <Gold.Chemscore.Metal.Weighted>
-0.0000

> <Gold.Chemscore.Lipo.Weighted>
-9.1999

> <Gold.Chemscore.Internal_Hbond.Weighted>
0.0000

> <Gold.Chemscore.DEClash.Weighted>
0.0000

> <Gold.Chemscore.DEInternal.Weighted>
1.2400

> <Gold.Chemscore.Rot.Weighted>
6.2997

> <Gold.Chemscore.Internal.Correction.Weighted>
   9.000000E+99

> <Gold.Protein.RotatedTorsions>
[ 6907 6896 6895 6894 ] final  -18.39 input  -60.11 | X-H torsion
[ 7974 7965 7964 7962 ] final -119.97 input  175.53 | X-H torsion
[ 8008 7997 7996 7995 ] final  -91.72 input   59.86 | X-H torsion
[ 10167 10162 10161 10158 ] final  -98.63 input  -65.29 | X-H torsion
[ 10718 10713 10712 10709 ] final  110.55 input   66.30 | X-H torsion
[ 10763 10752 10751 10750 ] final -148.46 input  -60.55 | X-H torsion
[ 11005 11000 10999 10996 ] final  -65.92 input  -57.11 | X-H torsion

> <Gold.Protein.ActiveResidues>
 VAL166  LYS551  ARG553  GLY616  TRP617  ASP618  TYR619  PRO620  LYS621  CYS622 
 ASP623  PHE694  ASN695  SER759  ASP760  ASP761  ALA762  ILE779  LEU786  VAL792 
 PHE793  MET794  SER795  GLU796  ALA797  LYS798  CYS799  TRP800  GLU811  SER814 

> <Gold.Protein.RotatedAtoms>
  151.2789  135.0708  159.9161 H   0  0  0  0  0  0  0  0  0  0  0  0  # atno 6907 bound_to 6896
  152.5337  134.0051  159.7923 H   0  0  0  0  0  0  0  0  0  0  0  0  # atno 6908 bound_to 6896
  151.0302  133.5747  159.2692 H   0  0  0  0  0  0  0  0  0  0  0  0  # atno 6909 bound_to 6896
  145.0566  140.8258  143.4177 H   0  0  0  0  0  0  0  0  0  0  0  0  # atno 7974 bound_to 7965
  154.7142  140.0516  157.0579 H   0  0  0  0  0  0  0  0  0  0  0  0  # atno 8008 bound_to 7997
  155.0514  140.3179  155.4672 H   0  0  0  0  0  0  0  0  0  0  0  0  # atno 8009 bound_to 7997
  156.2798  140.2115  156.5639 H   0  0  0  0  0  0  0  0  0  0  0  0  # atno 8010 bound_to 7997
  140.2709  143.3344  152.0535 H   0  0  0  0  0  0  0  0  0  0  0  0  # atno 10167 bound_to 10162
  157.6488  131.0935  150.6618 H   0  0  0  0  0  0  0  0  0  0  0  0  # atno 10718 bound_to 10713
  154.8231  135.3334  154.6978 H   0  0  0  0  0  0  0  0  0  0  0  0  # atno 10763 bound_to 10752
  153.7607  135.6932  153.4930 H   0  0  0  0  0  0  0  0  0  0  0  0  # atno 10764 bound_to 10752
  153.2112  135.4481  155.0331 H   0  0  0  0  0  0  0  0  0  0  0  0  # atno 10765 bound_to 10752
  141.1468  133.6690  156.6060 H   0  0  0  0  0  0  0  0  0  0  0  0  # atno 11005 bound_to 11000
  145.1461  139.2543  143.5465 LP  0  0  0  0  0  0  0  0  0  0  0  0  # atno 17320 bound_to 7965
  146.3522  140.1151  142.8602 LP  0  0  0  0  0  0  0  0  0  0  0  0  # atno 17321 bound_to 7965
  139.4989  144.6657  151.6362 LP  0  0  0  0  0  0  0  0  0  0  0  0  # atno 17342 bound_to 10162
  140.5890  143.9813  150.6313 LP  0  0  0  0  0  0  0  0  0  0  0  0  # atno 17343 bound_to 10162
  156.6932  130.4601  149.5594 LP  0  0  0  0  0  0  0  0  0  0  0  0  # atno 17370 bound_to 10713
  156.1847  130.6521  151.0992 LP  0  0  0  0  0  0  0  0  0  0  0  0  # atno 17371 bound_to 10713
  140.3651  134.7654  157.4561 LP  0  0  0  0  0  0  0  0  0  0  0  0  # atno 17394 bound_to 11000
  140.0754  134.5804  155.8597 LP  0  0  0  0  0  0  0  0  0  0  0  0  # atno 17395 bound_to 11000

$$$$
