AV-unprocessed.smi:3116|AV-procd|sdf|11876|dock3
  -GOLD-   2272017263D 1   1.00000     0.00000
 Structure written by MMmdl.
 33 33  0  0  0  0  0  0  0  0  1 V2000
  148.1805  142.0100  154.5622 C   0  0  0  0  0  0  0  0  0  0  0  0
  149.2182  141.2710  155.4216 C   0  0  2  0  0  0  0  0  0  0  0  0
  150.1506  142.2449  156.0176 N   0  0  0  0  0  0  0  0  0  0  0  0
  150.6191  141.9293  157.3669 C   0  0  1  0  0  0  0  0  0  0  0  0
  151.0425  140.4465  157.3894 C   0  0  0  0  0  0  0  0  0  0  0  0
  151.7736  142.9024  157.7250 C   0  0  1  0  0  0  0  0  0  0  0  0
  151.3253  144.3758  157.7423 C   0  0  0  0  0  0  0  0  0  0  0  0
  152.3884  142.5652  159.0029 N   0  0  0  0  0  0  0  0  0  0  0  0
  152.4848  143.3367  160.1442 C   0  0  0  0  0  0  0  0  0  0  0  0
  153.1461  142.5977  161.0825 C   0  0  0  0  0  0  0  0  0  0  0  0
  153.4204  141.3722  160.4142 C   0  0  0  0  0  0  0  0  0  0  0  0
  152.9677  141.3562  159.1712 N   0  0  0  0  0  0  0  0  0  0  0  0
  149.9211  140.1780  154.5994 C   0  0  0  0  0  0  0  0  0  0  0  0
  149.1517  139.3969  153.8372 N   0  0  0  0  0  0  0  0  0  0  0  0
  151.1398  140.0293  154.6661 O   0  0  0  0  0  0  0  0  0  0  0  0
  147.4650  141.3161  154.1194 H   0  0  0  0  0  0  0  0  0  0  0  0
  148.6514  142.5664  153.7505 H   0  0  0  0  0  0  0  0  0  0  0  0
  147.6132  142.7214  155.1634 H   0  0  0  0  0  0  0  0  0  0  0  0
  148.6766  140.7885  156.2376 H   0  0  0  0  0  0  0  0  0  0  0  0
  150.9337  142.4429  155.4107 H   0  0  0  0  0  0  0  0  0  0  0  0
  149.8212  142.0737  158.0969 H   0  0  0  0  0  0  0  0  0  0  0  0
  151.3310  140.1256  158.3902 H   0  0  0  0  0  0  0  0  0  0  0  0
  151.8906  140.2673  156.7277 H   0  0  0  0  0  0  0  0  0  0  0  0
  150.2322  139.7906  157.0717 H   0  0  0  0  0  0  0  0  0  0  0  0
  152.5466  142.8045  156.9596 H   0  0  0  0  0  0  0  0  0  0  0  0
  150.9600  144.6943  156.7660 H   0  0  0  0  0  0  0  0  0  0  0  0
  152.1548  145.0324  158.0069 H   0  0  0  0  0  0  0  0  0  0  0  0
  150.5260  144.5419  158.4648 H   0  0  0  0  0  0  0  0  0  0  0  0
  152.0771  144.3356  160.1928 H   0  0  0  0  0  0  0  0  0  0  0  0
  153.3965  142.8883  162.0919 H   0  0  0  0  0  0  0  0  0  0  0  0
  153.9320  140.4993  160.7921 H   0  0  0  0  0  0  0  0  0  0  0  0
  149.5700  138.6649  153.2818 H   0  0  0  0  0  0  0  0  0  0  0  0
  148.1525  139.5408  153.8208 H   0  0  0  0  0  0  0  0  0  0  0  0
  1  2  1  0  0  0  0
  1 16  1  0  0  0  0
  1 17  1  0  0  0  0
  1 18  1  0  0  0  0
  2  3  1  0  0  0  0
  2 13  1  0  0  0  0
  2 19  1  0  0  0  0
  3  4  1  0  0  0  0
  3 20  1  0  0  0  0
  4  5  1  0  0  0  0
  4  6  1  0  0  0  0
  4 21  1  0  0  0  0
  5 22  1  0  0  0  0
  5 23  1  0  0  0  0
  5 24  1  0  0  0  0
  6  7  1  0  0  0  0
  6  8  1  0  0  0  0
  6 25  1  0  0  0  0
  7 26  1  0  0  0  0
  7 27  1  0  0  0  0
  7 28  1  0  0  0  0
  8 12  1  0  0  0  0
  8  9  1  0  0  0  0
  9 10  2  0  0  0  0
  9 29  1  0  0  0  0
 10 11  1  0  0  0  0
 10 30  1  0  0  0  0
 11 12  2  0  0  0  0
 11 31  1  0  0  0  0
 13 14  1  0  0  0  0
 13 15  2  0  0  0  0
 14 32  1  0  0  0  0
 14 33  1  0  0  0  0
M  END
> <s_m_source_file>
AV-unprocessed.smi

> <i_m_source_file_index>
3116

> <i_lp_mmshare_version>
43012

> <i_f3d_flags>
0

> <s_epik_input>
W05IMl1DKD1PKVtDQEhdKFtDSDNdKVtOSF1bQ0BIXShbQ0gzXSlbQ0BIXShbQ0gzXSluMVtjSF1bY0hdW2NIXW4x

> <s_epik_cmdline>
J2VwaWtfcHl0aG9uJywgJy1waCcsICc3LjAnLCAnLXRuJywgJzgnLCAnLW1hJywgJzIwMCcsICctbWV0YWxfYmluZGluZycsICctaW1hZScsICc8aW5maWxlLm1hZT4nLCAnLW9tYWUnLCAnPG91dGZpbGUubWFlPic=

> <r_lp_tautomer_probability>
1

> <r_epik_Ionization_Penalty>
0.865977

> <r_epik_Ionization_Penalty_Charging>
0

> <r_epik_Ionization_Penalty_Neutral>
0.865977

> <r_epik_State_Penalty>
0.901888

> <r_epik_Charging_Adjusted_Penalty>
0.901888

> <i_epik_Tot_Q>
0

> <i_epik_Tot_abs_Q>
0

> <r_epik_Metal_State_Penalty>
0.901181

> <b_epik_Metal_Only>
0

> <s_lp_Force_Field>
OPLS_2005

> <r_lp_Energy>
9.22902

> <b_lp_Chiralities_Consistent>
1

> <s_lp_Variant>
AV-unprocessed.smi:3116-15

> <Gold.Version>
5.8.1

> <Gold.Id.Protein>
6NUR|6NUR_protein|mol2

> <Gold.PLP.Fitness>
36.2682

> <Gold.PLP.PLP>
-34.9477

> <Gold.PLP.part.hbond>
-3.0000

> <Gold.PLP.part.metal>
0.0000

> <Gold.PLP.part.buried>
-2.3466

> <Gold.PLP.part.nonpolar>
-29.6740

> <Gold.PLP.part.repulsive>
0.1695

> <Gold.PLP.ligand.clash>
0.0000

> <Gold.PLP.ligand.torsion>
0.8888

> <Gold.PLP.Chemscore.Hbond>
1.0000

> <Gold.PLP.Chemscore.CHOScore>
0.0000

> <Gold.PLP.Chemscore.Metal>
0.0000

> <Gold.Chemscore.Hbonds>
donor molecule, donor type, donor heavy atom, donor atom, acceptor molecule, acceptor atom, score
      P1  H  7989  7998       L1    15  0.98

> <Gold.PLP.Chemscore.Internal.Correction>
0.0982

> <Gold.Rescore>
     Score         DG    S(hbond)    S(metal)    S(lipo)     H(rot)  DE(clash)    DE(int)     intcor
      9.02     -11.94       1.00        0.00      78.91       2.38       0.45       2.47       ----

> <Gold.Chemscore.Fitness>
9.0201

> <Gold.Chemscore.DG>
-11.9409

> <Gold.Chemscore.ZeroCoef>
-5.4800

> <Gold.Chemscore.Hbond>
0.9971

> <Gold.Chemscore.Metal>
0.0000

> <Gold.Chemscore.Lipo>
78.9122

> <Gold.Chemscore.Internal_Hbond>
0.0000

> <Gold.Chemscore.DEClash>
0.4519

> <Gold.Chemscore.DEInternal>
2.4689

> <Gold.Chemscore.Rot>
2.3836

> <Gold.Chemscore.Internal.Correction>
   9.000000E+99

> <Gold.Chemscore.Hbonds>
donor molecule, donor type, donor heavy atom, donor atom, acceptor molecule, acceptor atom, score
      P1  H  7989  7998       L1    15  0.36

> <Gold.Chemscore.Hbond.Weighted>
-3.3302

> <Gold.Chemscore.Metal.Weighted>
-0.0000

> <Gold.Chemscore.Lipo.Weighted>
-9.2327

> <Gold.Chemscore.Internal_Hbond.Weighted>
0.0000

> <Gold.Chemscore.DEClash.Weighted>
0.4519

> <Gold.Chemscore.DEInternal.Weighted>
2.4689

> <Gold.Chemscore.Rot.Weighted>
6.1020

> <Gold.Chemscore.Internal.Correction.Weighted>
   9.000000E+99

> <Gold.Protein.RotatedTorsions>
[ 6907 6896 6895 6894 ] final -120.58 input  -60.11 | X-H torsion
[ 7974 7965 7964 7962 ] final  -68.83 input  175.53 | X-H torsion
[ 8008 7997 7996 7995 ] final  -85.18 input   59.86 | X-H torsion
[ 10167 10162 10161 10158 ] final  -44.61 input  -65.29 | X-H torsion
[ 10718 10713 10712 10709 ] final  175.99 input   66.30 | X-H torsion
[ 10763 10752 10751 10750 ] final -119.07 input  -60.55 | X-H torsion
[ 11005 11000 10999 10996 ] final -111.34 input  -57.11 | X-H torsion

> <Gold.Protein.ActiveResidues>
 VAL166  LYS551  ARG553  GLY616  TRP617  ASP618  TYR619  PRO620  LYS621  CYS622 
 ASP623  PHE694  ASN695  SER759  ASP760  ASP761  ALA762  ILE779  LEU786  VAL792 
 PHE793  MET794  SER795  GLU796  ALA797  LYS798  CYS799  TRP800  GLU811  SER814 

> <Gold.Protein.RotatedAtoms>
  150.8406  133.7942  159.3062 H   0  0  0  0  0  0  0  0  0  0  0  0  # atno 6907 bound_to 6896
  151.5645  135.1063  159.9990 H   0  0  0  0  0  0  0  0  0  0  0  0  # atno 6908 bound_to 6896
  152.4470  133.7513  159.6752 H   0  0  0  0  0  0  0  0  0  0  0  0  # atno 6909 bound_to 6896
  145.7115  140.9076  143.0678 H   0  0  0  0  0  0  0  0  0  0  0  0  # atno 7974 bound_to 7965
  154.6379  140.0595  156.9810 H   0  0  0  0  0  0  0  0  0  0  0  0  # atno 8008 bound_to 7997
  155.1563  140.3278  155.4402 H   0  0  0  0  0  0  0  0  0  0  0  0  # atno 8009 bound_to 7997
  156.2516  140.1938  156.6673 H   0  0  0  0  0  0  0  0  0  0  0  0  # atno 8010 bound_to 7997
  140.6890  143.2921  151.3520 H   0  0  0  0  0  0  0  0  0  0  0  0  # atno 10167 bound_to 10162
  156.9267  130.9958  151.2994 H   0  0  0  0  0  0  0  0  0  0  0  0  # atno 10718 bound_to 10713
  154.8606  135.4251  154.2240 H   0  0  0  0  0  0  0  0  0  0  0  0  # atno 10763 bound_to 10752
  153.3239  135.6984  153.7012 H   0  0  0  0  0  0  0  0  0  0  0  0  # atno 10764 bound_to 10752
  153.6056  135.3529  155.2934 H   0  0  0  0  0  0  0  0  0  0  0  0  # atno 10765 bound_to 10752
  141.0740  133.9332  157.2427 H   0  0  0  0  0  0  0  0  0  0  0  0  # atno 11005 bound_to 11000
  144.6940  139.9081  143.7462 LP  0  0  0  0  0  0  0  0  0  0  0  0  # atno 17320 bound_to 7965
  146.0708  139.3697  143.0524 LP  0  0  0  0  0  0  0  0  0  0  0  0  # atno 17321 bound_to 7965
  139.6275  144.0786  152.2447 LP  0  0  0  0  0  0  0  0  0  0  0  0  # atno 17342 bound_to 10162
  140.0250  144.6124  150.7535 LP  0  0  0  0  0  0  0  0  0  0  0  0  # atno 17343 bound_to 10162
  157.5873  130.8418  149.8608 LP  0  0  0  0  0  0  0  0  0  0  0  0  # atno 17370 bound_to 10713
  156.0466  130.3726  150.1303 LP  0  0  0  0  0  0  0  0  0  0  0  0  # atno 17371 bound_to 10713
  139.9552  135.0167  156.9109 LP  0  0  0  0  0  0  0  0  0  0  0  0  # atno 17394 bound_to 11000
  140.5613  134.0532  155.7400 LP  0  0  0  0  0  0  0  0  0  0  0  0  # atno 17395 bound_to 11000

$$$$
