AV-unprocessed.smi:1643|AV-procd|sdf|6578|dock6
  -GOLD-   22720 7263D 1   1.00000     0.00000
 Structure written by MMmdl.
 55 57  0  0  0  0  0  0  0  0  3 V2000
  148.6790  132.8372  157.8735 C   0  0  0  0  0  0  0  0  0  0  0  0
  148.6290  134.3666  157.8210 C   0  0  0  0  0  0  0  0  0  0  0  0
  148.9278  134.9899  158.8396 O   0  0  0  0  0  0  0  0  0  0  0  0
  148.2723  134.9807  156.6658 N   0  0  0  0  0  0  0  0  0  0  0  0
  147.8246  134.2091  155.4968 C   0  0  0  0  0  0  0  0  0  0  0  0
  148.9399  134.0412  154.4397 C   0  0  0  0  0  0  0  0  0  0  0  0
  150.1768  134.9520  154.6145 C   0  0  0  0  0  0  0  0  0  0  0  0
  149.9150  136.4156  154.4824 N   0  3  2  0  0  0  0  0  0  0  0  0
  151.0606  137.2480  154.9414 C   0  0  0  0  0  0  0  0  0  0  0  0
  150.6985  138.7343  155.1434 C   0  0  2  0  0  0  0  0  0  0  0  0
  150.7842  139.3657  153.8823 O   0  0  0  0  0  0  0  0  0  0  0  0
  151.6330  139.4438  156.1468 C   0  0  0  0  0  0  0  0  0  0  0  0
  151.1729  140.7917  156.5123 N   0  0  0  0  0  0  0  0  0  0  0  0
  150.3112  141.6220  155.8629 C   0  0  0  0  0  0  0  0  0  0  0  0
  150.1946  142.7572  156.6059 N   0  3  0  0  0  0  0  0  0  0  0  0
  150.9925  142.6519  157.7468 C   0  0  0  0  0  0  0  0  0  0  0  0
  151.2050  143.5418  158.7929 C   0  0  0  0  0  0  0  0  0  0  0  0
  152.0914  143.1351  159.8155 C   0  0  0  0  0  0  0  0  0  0  0  0
  152.3509  144.0868  160.9710 C   0  0  0  0  0  0  0  0  0  0  0  0
  152.7290  141.8683  159.7677 C   0  0  0  0  0  0  0  0  0  0  0  0
  153.6827  141.4425  160.8712 C   0  0  0  0  0  0  0  0  0  0  0  0
  152.4971  140.9762  158.6964 C   0  0  0  0  0  0  0  0  0  0  0  0
  151.6227  141.3931  157.6949 C   0  0  0  0  0  0  0  0  0  0  0  0
  148.6138  136.9001  155.0282 C   0  0  0  0  0  0  0  0  0  0  0  0
  148.2962  136.4432  156.4761 C   0  0  0  0  0  0  0  0  0  0  0  0
  149.2412  132.4331  157.0309 H   0  0  0  0  0  0  0  0  0  0  0  0
  147.6724  132.4185  157.8627 H   0  0  0  0  0  0  0  0  0  0  0  0
  149.1696  132.5017  158.7881 H   0  0  0  0  0  0  0  0  0  0  0  0
  147.4381  133.2277  155.7775 H   0  0  0  0  0  0  0  0  0  0  0  0
  146.9595  134.7057  155.0566 H   0  0  0  0  0  0  0  0  0  0  0  0
  149.2860  133.0076  154.4776 H   0  0  0  0  0  0  0  0  0  0  0  0
  148.5193  134.1701  153.4418 H   0  0  0  0  0  0  0  0  0  0  0  0
  150.6534  134.7438  155.5736 H   0  0  0  0  0  0  0  0  0  0  0  0
  150.9084  134.6690  153.8581 H   0  0  0  0  0  0  0  0  0  0  0  0
  151.4412  136.8632  155.8886 H   0  0  0  0  0  0  0  0  0  0  0  0
  151.8788  137.1497  154.2259 H   0  0  0  0  0  0  0  0  0  0  0  0
  149.6639  138.8340  155.4706 H   0  0  0  0  0  0  0  0  0  0  0  0
  149.9435  139.3028  153.4547 H   0  0  0  0  0  0  0  0  0  0  0  0
  151.6898  138.8694  157.0721 H   0  0  0  0  0  0  0  0  0  0  0  0
  152.6527  139.5045  155.7654 H   0  0  0  0  0  0  0  0  0  0  0  0
  149.8070  141.4177  154.9292 H   0  0  0  0  0  0  0  0  0  0  0  0
  150.7157  144.5045  158.8228 H   0  0  0  0  0  0  0  0  0  0  0  0
  152.0326  143.6410  161.9136 H   0  0  0  0  0  0  0  0  0  0  0  0
  151.8078  145.0240  160.8453 H   0  0  0  0  0  0  0  0  0  0  0  0
  153.4125  144.3247  161.0409 H   0  0  0  0  0  0  0  0  0  0  0  0
  154.0589  140.4325  160.7060 H   0  0  0  0  0  0  0  0  0  0  0  0
  153.1810  141.4555  161.8390 H   0  0  0  0  0  0  0  0  0  0  0  0
  154.5401  142.1145  160.9154 H   0  0  0  0  0  0  0  0  0  0  0  0
  152.9883  140.0151  158.6603 H   0  0  0  0  0  0  0  0  0  0  0  0
  148.5840  137.9894  154.9866 H   0  0  0  0  0  0  0  0  0  0  0  0
  147.8226  136.5980  154.3431 H   0  0  0  0  0  0  0  0  0  0  0  0
  147.3257  136.8402  156.7762 H   0  0  0  0  0  0  0  0  0  0  0  0
  149.0318  136.9140  157.1279 H   0  0  0  0  0  0  0  0  0  0  0  0
  149.8414  136.5901  153.4903 H   0  0  0  0  0  0  0  0  0  0  0  0
  149.6106  143.5443  156.3523 H   0  0  0  0  0  0  0  0  0  0  0  0
  1  2  1  0  0  0  0
  1 26  1  0  0  0  0
  1 27  1  0  0  0  0
  1 28  1  0  0  0  0
  2  3  2  0  0  0  0
  2  4  1  0  0  0  0
  4 25  1  0  0  0  0
  4  5  1  0  0  0  0
  5  6  1  0  0  0  0
  5 29  1  0  0  0  0
  5 30  1  0  0  0  0
  6  7  1  0  0  0  0
  6 31  1  0  0  0  0
  6 32  1  0  0  0  0
  7  8  1  0  0  0  0
  7 33  1  0  0  0  0
  7 34  1  0  0  0  0
  8  9  1  0  0  0  0
  8 24  1  0  0  0  0
  8 54  1  0  0  0  0
  9 10  1  0  0  0  0
  9 35  1  0  0  0  0
  9 36  1  0  0  0  0
 10 11  1  0  0  0  0
 10 12  1  0  0  0  0
 10 37  1  0  0  0  0
 11 38  1  0  0  0  0
 12 13  1  0  0  0  0
 12 39  1  0  0  0  0
 12 40  1  0  0  0  0
 13 23  1  0  0  0  0
 13 14  1  0  0  0  0
 14 15  2  0  0  0  0
 14 41  1  0  0  0  0
 15 16  1  0  0  0  0
 15 55  1  0  0  0  0
 16 23  2  0  0  0  0
 16 17  1  0  0  0  0
 17 18  2  0  0  0  0
 17 42  1  0  0  0  0
 18 19  1  0  0  0  0
 18 20  1  0  0  0  0
 19 43  1  0  0  0  0
 19 44  1  0  0  0  0
 19 45  1  0  0  0  0
 20 21  1  0  0  0  0
 20 22  2  0  0  0  0
 21 46  1  0  0  0  0
 21 47  1  0  0  0  0
 21 48  1  0  0  0  0
 22 23  1  0  0  0  0
 22 49  1  0  0  0  0
 24 25  1  0  0  0  0
 24 50  1  0  0  0  0
 24 51  1  0  0  0  0
 25 52  1  0  0  0  0
 25 53  1  0  0  0  0
M  CHG  1   8   1
M  CHG  1  15   1
M  END
> <s_m_source_file>
AV-unprocessed.smi

> <i_m_source_file_index>
1643

> <i_lp_mmshare_version>
43012

> <i_f3d_flags>
0

> <s_epik_input>
W0NIM11DKD1PKU4xW0NIMl1bQ0gyXVtDSDJdTihbQ0gyXVtDSDJdMSlbQ0gyXVtDQEhdKFtPSF0pW0NIMl1uKFtjSF1uMiljKGMyMylbY0hdYyhbQ0gzXSljKFtjSF0zKVtDSDNd

> <s_epik_cmdline>
J2VwaWtfcHl0aG9uJywgJy1waCcsICc3LjAnLCAnLXRuJywgJzgnLCAnLW1hJywgJzIwMCcsICctbWV0YWxfYmluZGluZycsICctaW1hZScsICc8aW5maWxlLm1hZT4nLCAnLW9tYWUnLCAnPG91dGZpbGUubWFlPic=

> <r_epik_Ionization_Penalty>
1.2865

> <r_epik_Ionization_Penalty_Charging>
1.2865

> <r_epik_Ionization_Penalty_Neutral>
2.89706e-06

> <r_epik_State_Penalty>
1.3566

> <r_epik_Charging_Adjusted_Penalty>
2.6431

> <i_epik_Tot_Q>
2

> <i_epik_Tot_abs_Q>
2

> <r_epik_Metal_State_Penalty>
5.37339

> <b_epik_Metal_Only>
0

> <s_lp_Force_Field>
OPLS_2005

> <r_lp_Energy>
60.0404

> <b_lp_Chiralities_Consistent>
1

> <s_lp_Variant>
AV-unprocessed.smi:1643-7

> <Gold.Version>
5.8.1

> <Gold.Id.Protein>
6NUR|6NUR_protein|mol2

> <Gold.PLP.Fitness>
60.7630

> <Gold.PLP.PLP>
-44.3127

> <Gold.PLP.part.hbond>
-4.9006

> <Gold.PLP.part.metal>
0.0000

> <Gold.PLP.part.buried>
-4.6940

> <Gold.PLP.part.nonpolar>
-35.8718

> <Gold.PLP.part.repulsive>
0.0987

> <Gold.PLP.ligand.clash>
0.0000

> <Gold.PLP.ligand.torsion>
0.8188

> <Gold.PLP.Chemscore.Hbond>
6.0000

> <Gold.PLP.Chemscore.CHOScore>
0.0000

> <Gold.PLP.Chemscore.Metal>
0.0000

> <Gold.Chemscore.Hbonds>
donor molecule, donor type, donor heavy atom, donor atom, acceptor molecule, acceptor atom, score
      L1  H     8    54       P1  7948  1.98
      L1  H    11    38       P1  7957  0.01
      L1  H    15    55       P1  8028  2.00
      P1  H  6896  6908       L1     3  1.00
      P1  H  7989  7998       L1    11  1.00

> <Gold.PLP.Chemscore.Internal.Correction>
0.0879

> <Gold.Rescore>
     Score         DG    S(hbond)    S(metal)    S(lipo)     H(rot)  DE(clash)    DE(int)     intcor
     24.20     -25.45       3.77        0.00     110.68       2.17       0.45       0.80       ----

> <Gold.Chemscore.Fitness>
24.1993

> <Gold.Chemscore.DG>
-25.4512

> <Gold.Chemscore.ZeroCoef>
-5.4800

> <Gold.Chemscore.Hbond>
3.7689

> <Gold.Chemscore.Metal>
0.0000

> <Gold.Chemscore.Lipo>
110.6817

> <Gold.Chemscore.Internal_Hbond>
0.0000

> <Gold.Chemscore.DEClash>
0.4482

> <Gold.Chemscore.DEInternal>
0.8037

> <Gold.Chemscore.Rot>
2.1744

> <Gold.Chemscore.Internal.Correction>
   9.000000E+99

> <Gold.Chemscore.Hbonds>
donor molecule, donor type, donor heavy atom, donor atom, acceptor molecule, acceptor atom, score
      L1  H     8    54       P1  7948  0.28
      L1  H    11    38       P1  7957  0.03
      L1  H    15    55       P1  8028  0.94
      P1  H  6896  6908       L1     3  0.55
      P1  H  7989  7998       L1    11  0.80

> <Gold.Chemscore.Hbond.Weighted>
-12.5880

> <Gold.Chemscore.Metal.Weighted>
-0.0000

> <Gold.Chemscore.Lipo.Weighted>
-12.9498

> <Gold.Chemscore.Internal_Hbond.Weighted>
0.0000

> <Gold.Chemscore.DEClash.Weighted>
0.4482

> <Gold.Chemscore.DEInternal.Weighted>
0.8037

> <Gold.Chemscore.Rot.Weighted>
5.5666

> <Gold.Chemscore.Internal.Correction.Weighted>
   9.000000E+99

> <Gold.Protein.RotatedTorsions>
[ 6907 6896 6895 6894 ] final  149.47 input  -60.11 | X-H torsion
[ 7974 7965 7964 7962 ] final   -6.84 input  175.53 | X-H torsion
[ 8008 7997 7996 7995 ] final -114.11 input   59.86 | X-H torsion
[ 10167 10162 10161 10158 ] final -149.49 input  -65.29 | X-H torsion
[ 10718 10713 10712 10709 ] final  168.82 input   66.30 | X-H torsion
[ 10763 10752 10751 10750 ] final  133.21 input  -60.55 | X-H torsion
[ 11005 11000 10999 10996 ] final   13.22 input  -57.11 | X-H torsion

> <Gold.Protein.ActiveResidues>
 VAL166  LYS551  ARG553  GLY616  TRP617  ASP618  TYR619  PRO620  LYS621  CYS622 
 ASP623  PHE694  ASN695  SER759  ASP760  ASP761  ALA762  ILE779  LEU786  VAL792 
 PHE793  MET794  SER795  GLU796  ALA797  LYS798  CYS799  TRP800  GLU811  SER814 

> <Gold.Protein.RotatedAtoms>
  152.1276  133.4389  159.4705 H   0  0  0  0  0  0  0  0  0  0  0  0  # atno 6907 bound_to 6896
  150.6876  134.2460  159.4500 H   0  0  0  0  0  0  0  0  0  0  0  0  # atno 6908 bound_to 6896
  152.0341  134.9750  160.0623 H   0  0  0  0  0  0  0  0  0  0  0  0  # atno 6909 bound_to 6896
  146.2321  140.2231  142.8338 H   0  0  0  0  0  0  0  0  0  0  0  0  # atno 7974 bound_to 7965
  155.0312  140.0393  157.2475 H   0  0  0  0  0  0  0  0  0  0  0  0  # atno 8008 bound_to 7997
  154.7295  140.2727  155.6445 H   0  0  0  0  0  0  0  0  0  0  0  0  # atno 8009 bound_to 7997
  156.2838  140.2687  156.1990 H   0  0  0  0  0  0  0  0  0  0  0  0  # atno 8010 bound_to 7997
  139.7437  143.8622  152.2569 H   0  0  0  0  0  0  0  0  0  0  0  0  # atno 10167 bound_to 10162
  157.0316  131.0261  151.2742 H   0  0  0  0  0  0  0  0  0  0  0  0  # atno 10718 bound_to 10713
  153.8034  135.3139  155.3393 H   0  0  0  0  0  0  0  0  0  0  0  0  # atno 10763 bound_to 10752
  154.8080  135.4685  154.0445 H   0  0  0  0  0  0  0  0  0  0  0  0  # atno 10764 bound_to 10752
  153.1800  135.6892  153.8579 H   0  0  0  0  0  0  0  0  0  0  0  0  # atno 10765 bound_to 10752
  140.4832  134.0914  155.7755 H   0  0  0  0  0  0  0  0  0  0  0  0  # atno 11005 bound_to 11000
  144.9617  140.8281  143.5510 LP  0  0  0  0  0  0  0  0  0  0  0  0  # atno 17320 bound_to 7965
  145.2202  139.2163  143.5097 LP  0  0  0  0  0  0  0  0  0  0  0  0  # atno 17321 bound_to 7965
  139.8581  144.7131  150.9133 LP  0  0  0  0  0  0  0  0  0  0  0  0  # atno 17342 bound_to 10162
  140.7789  143.3841  151.1424 LP  0  0  0  0  0  0  0  0  0  0  0  0  # atno 17343 bound_to 10162
  157.5173  130.7976  149.7770 LP  0  0  0  0  0  0  0  0  0  0  0  0  # atno 17370 bound_to 10713
  156.0067  130.3852  150.2405 LP  0  0  0  0  0  0  0  0  0  0  0  0  # atno 17371 bound_to 10713
  141.1521  133.8950  157.2072 LP  0  0  0  0  0  0  0  0  0  0  0  0  # atno 17394 bound_to 11000
  139.9813  135.0097  156.9757 LP  0  0  0  0  0  0  0  0  0  0  0  0  # atno 17395 bound_to 11000

$$$$
