AV-unprocessed.smi:1875|AV-procd|sdf|7615|dock4
  -GOLD-   22720 9343D 1   1.00000     0.00000
 Structure written by MMmdl.
 47 49  0  0  0  0  0  0  0  0  1 V2000
  142.5952  144.4517  157.1610 C   0  0  0  0  0  0  0  0  0  0  0  0
  143.4165  144.1752  155.9187 C   0  0  0  0  0  0  0  0  0  0  0  0
  143.1774  144.9483  154.8545 N   0  0  0  0  0  0  0  0  0  0  0  0
  143.9014  144.6966  153.7420 C   0  0  0  0  0  0  0  0  0  0  0  0
  144.8644  143.6684  153.7000 C   0  0  0  0  0  0  0  0  0  0  0  0
  145.0284  142.9201  154.8849 C   0  0  0  0  0  0  0  0  0  0  0  0
  146.0260  141.7830  154.9633 C   0  0  0  0  0  0  0  0  0  0  0  0
  147.3741  142.2171  154.6142 N   0  0  0  0  0  0  0  0  0  0  0  0
  148.1354  141.2123  153.8796 C   0  0  0  0  0  0  0  0  0  0  0  0
  149.2342  140.5951  154.7606 C   0  0  1  0  0  0  0  0  0  0  0  0
  150.1621  139.9329  153.9222 O   0  0  0  0  0  0  0  0  0  0  0  0
  149.9743  141.6674  155.5833 C   0  0  0  0  0  0  0  0  0  0  0  0
  150.7029  141.1033  156.7057 N   0  0  0  0  0  0  0  0  0  0  0  0
  151.1616  139.8422  156.8189 C   0  0  0  0  0  0  0  0  0  0  0  0
  151.8080  139.5273  157.9377 N   0  0  0  0  0  0  0  0  0  0  0  0
  151.7656  140.7251  158.6304 C   0  0  0  0  0  0  0  0  0  0  0  0
  152.2782  141.0674  159.9010 C   0  0  0  0  0  0  0  0  0  0  0  0
  152.1188  142.3721  160.4195 C   0  0  0  0  0  0  0  0  0  0  0  0
  152.6859  142.6963  161.7905 C   0  0  0  0  0  0  0  0  0  0  0  0
  151.4371  143.3590  159.6628 C   0  0  0  0  0  0  0  0  0  0  0  0
  151.2566  144.7684  160.1984 C   0  0  0  0  0  0  0  0  0  0  0  0
  150.9171  143.0335  158.3925 C   0  0  0  0  0  0  0  0  0  0  0  0
  151.0816  141.7314  157.8874 C   0  0  0  0  0  0  0  0  0  0  0  0
  144.3003  143.1754  155.9947 N   0  0  0  0  0  0  0  0  0  0  0  0
  142.2606  145.4896  157.1884 H   0  0  0  0  0  0  0  0  0  0  0  0
  143.1786  144.2630  158.0629 H   0  0  0  0  0  0  0  0  0  0  0  0
  141.7158  143.8072  157.1793 H   0  0  0  0  0  0  0  0  0  0  0  0
  143.7114  145.3198  152.8808 H   0  0  0  0  0  0  0  0  0  0  0  0
  145.4420  143.4663  152.8100 H   0  0  0  0  0  0  0  0  0  0  0  0
  146.0100  141.3848  155.9785 H   0  0  0  0  0  0  0  0  0  0  0  0
  145.7082  140.9736  154.3042 H   0  0  0  0  0  0  0  0  0  0  0  0
  147.8775  142.4709  155.4585 H   0  0  0  0  0  0  0  0  0  0  0  0
  147.4782  140.4323  153.4926 H   0  0  0  0  0  0  0  0  0  0  0  0
  148.5944  141.6868  153.0113 H   0  0  0  0  0  0  0  0  0  0  0  0
  148.7967  139.8664  155.4452 H   0  0  0  0  0  0  0  0  0  0  0  0
  149.7884  139.8619  153.0572 H   0  0  0  0  0  0  0  0  0  0  0  0
  150.6722  142.2216  154.9544 H   0  0  0  0  0  0  0  0  0  0  0  0
  149.2637  142.3967  155.9746 H   0  0  0  0  0  0  0  0  0  0  0  0
  151.0124  139.1143  156.0347 H   0  0  0  0  0  0  0  0  0  0  0  0
  152.7978  140.3156  160.4763 H   0  0  0  0  0  0  0  0  0  0  0  0
  151.8939  143.0250  162.4635 H   0  0  0  0  0  0  0  0  0  0  0  0
  153.4314  143.4886  161.7177 H   0  0  0  0  0  0  0  0  0  0  0  0
  153.1654  141.8260  162.2395 H   0  0  0  0  0  0  0  0  0  0  0  0
  150.7208  145.3985  159.4879 H   0  0  0  0  0  0  0  0  0  0  0  0
  152.2249  145.2308  160.3914 H   0  0  0  0  0  0  0  0  0  0  0  0
  150.6874  144.7538  161.1280 H   0  0  0  0  0  0  0  0  0  0  0  0
  150.3967  143.7759  157.8061 H   0  0  0  0  0  0  0  0  0  0  0  0
  1  2  1  0  0  0  0
  1 25  1  0  0  0  0
  1 26  1  0  0  0  0
  1 27  1  0  0  0  0
  2 24  1  0  0  0  0
  2  3  2  0  0  0  0
  3  4  1  0  0  0  0
  4  5  2  0  0  0  0
  4 28  1  0  0  0  0
  5  6  1  0  0  0  0
  5 29  1  0  0  0  0
  6  7  1  0  0  0  0
  6 24  2  0  0  0  0
  7  8  1  0  0  0  0
  7 30  1  0  0  0  0
  7 31  1  0  0  0  0
  8  9  1  0  0  0  0
  8 32  1  0  0  0  0
  9 10  1  0  0  0  0
  9 33  1  0  0  0  0
  9 34  1  0  0  0  0
 10 11  1  0  0  0  0
 10 12  1  0  0  0  0
 10 35  1  0  0  0  0
 11 36  1  0  0  0  0
 12 13  1  0  0  0  0
 12 37  1  0  0  0  0
 12 38  1  0  0  0  0
 13 23  1  0  0  0  0
 13 14  1  0  0  0  0
 14 15  2  0  0  0  0
 14 39  1  0  0  0  0
 15 16  1  0  0  0  0
 16 23  2  0  0  0  0
 16 17  1  0  0  0  0
 17 18  2  0  0  0  0
 17 40  1  0  0  0  0
 18 19  1  0  0  0  0
 18 20  1  0  0  0  0
 19 41  1  0  0  0  0
 19 42  1  0  0  0  0
 19 43  1  0  0  0  0
 20 21  1  0  0  0  0
 20 22  2  0  0  0  0
 21 44  1  0  0  0  0
 21 45  1  0  0  0  0
 21 46  1  0  0  0  0
 22 23  1  0  0  0  0
 22 47  1  0  0  0  0
M  END
> <s_m_source_file>
AV-unprocessed.smi

> <i_m_source_file_index>
1875

> <i_lp_mmshare_version>
43012

> <i_f3d_flags>
0

> <s_epik_input>
W0NIM11jMW5bY0hdW2NIXWMobjEpW0NIMl1bTkhdW0NIMl1bQ0BIXShbT0hdKVtDSDJdbihbY0hdbjIpYyhjMjMpW2NIXWMoW0NIM10pYyhbY0hdMylbQ0gzXQ==

> <s_epik_cmdline>
J2VwaWtfcHl0aG9uJywgJy1waCcsICc3LjAnLCAnLXRuJywgJzgnLCAnLW1hJywgJzIwMCcsICctbWV0YWxfYmluZGluZycsICctaW1hZScsICc8aW5maWxlLm1hZT4nLCAnLW9tYWUnLCAnPG91dGZpbGUubWFlPic=

> <r_lp_tautomer_probability>
1

> <r_epik_Ionization_Penalty>
1.21192

> <r_epik_Ionization_Penalty_Charging>
0

> <r_epik_Ionization_Penalty_Neutral>
1.21192

> <r_epik_State_Penalty>
1.26105

> <r_epik_Charging_Adjusted_Penalty>
1.26105

> <i_epik_Tot_Q>
0

> <i_epik_Tot_abs_Q>
0

> <r_epik_Metal_State_Penalty>
1.2224

> <b_epik_Metal_Only>
0

> <s_epik_Chemistry_Notes>
This compound contains an electron-poor aromatic ring that is susceptible to covalent hydrolysis at low pH, typically resulting in measured values for nitrogen ring protonation that are around two units higher than predicted values.

> <s_lp_Force_Field>
OPLS_2005

> <r_lp_Energy>
10.0128

> <b_lp_Chiralities_Consistent>
1

> <s_lp_Variant>
AV-unprocessed.smi:1875-4

> <Gold.Version>
5.8.1

> <Gold.Id.Protein>
6NUR|6NUR_protein|mol2

> <Gold.PLP.Fitness>
60.8588

> <Gold.PLP.PLP>
-56.2659

> <Gold.PLP.part.hbond>
-3.0000

> <Gold.PLP.part.metal>
0.0000

> <Gold.PLP.part.buried>
-7.6436

> <Gold.PLP.part.nonpolar>
-45.1647

> <Gold.PLP.part.repulsive>
0.1772

> <Gold.PLP.ligand.clash>
0.0000

> <Gold.PLP.ligand.torsion>
1.2395

> <Gold.PLP.Chemscore.Hbond>
2.3210

> <Gold.PLP.Chemscore.CHOScore>
0.0000

> <Gold.PLP.Chemscore.Metal>
0.0000

> <Gold.Chemscore.Hbonds>
donor molecule, donor type, donor heavy atom, donor atom, acceptor molecule, acceptor atom, score
      L1  H    11    36       P1  7957  1.00
      P1  H  7989  7998       L1    11  0.80

> <Gold.PLP.Chemscore.Internal.Correction>
0.1089

> <Gold.Rescore>
     Score         DG    S(hbond)    S(metal)    S(lipo)     H(rot)  DE(clash)    DE(int)     intcor
     16.52     -18.02       1.16        0.00     133.61       2.72       0.19       1.31       ----

> <Gold.Chemscore.Fitness>
16.5168

> <Gold.Chemscore.DG>
-18.0175

> <Gold.Chemscore.ZeroCoef>
-5.4800

> <Gold.Chemscore.Hbond>
1.1603

> <Gold.Chemscore.Metal>
0.0000

> <Gold.Chemscore.Lipo>
133.6087

> <Gold.Chemscore.Internal_Hbond>
0.0000

> <Gold.Chemscore.DEClash>
0.1899

> <Gold.Chemscore.DEInternal>
1.3108

> <Gold.Chemscore.Rot>
2.7228

> <Gold.Chemscore.Internal.Correction>
   9.000000E+99

> <Gold.Chemscore.Hbonds>
donor molecule, donor type, donor heavy atom, donor atom, acceptor molecule, acceptor atom, score
      L1  H     8    32       P1  8028  0.02
      L1  H    11    36       P1  7957  0.99
      P1  H  7989  7998       L1    11  0.12

> <Gold.Chemscore.Hbond.Weighted>
-3.8755

> <Gold.Chemscore.Metal.Weighted>
-0.0000

> <Gold.Chemscore.Lipo.Weighted>
-15.6322

> <Gold.Chemscore.Internal_Hbond.Weighted>
0.0000

> <Gold.Chemscore.DEClash.Weighted>
0.1899

> <Gold.Chemscore.DEInternal.Weighted>
1.3108

> <Gold.Chemscore.Rot.Weighted>
6.9702

> <Gold.Chemscore.Internal.Correction.Weighted>
   9.000000E+99

> <Gold.Protein.RotatedTorsions>
[ 6907 6896 6895 6894 ] final  110.49 input  -60.11 | X-H torsion
[ 7974 7965 7964 7962 ] final  -77.21 input  175.53 | X-H torsion
[ 8008 7997 7996 7995 ] final   88.06 input   59.86 | X-H torsion
[ 10167 10162 10161 10158 ] final  -23.47 input  -65.29 | X-H torsion
[ 10718 10713 10712 10709 ] final  -22.93 input   66.30 | X-H torsion
[ 10763 10752 10751 10750 ] final -143.98 input  -60.55 | X-H torsion
[ 11005 11000 10999 10996 ] final -153.46 input  -57.11 | X-H torsion

> <Gold.Protein.ActiveResidues>
 VAL166  LYS551  ARG553  GLY616  TRP617  ASP618  TYR619  PRO620  LYS621  CYS622 
 ASP623  PHE694  ASN695  SER759  ASP760  ASP761  ALA762  ILE779  LEU786  VAL792 
 PHE793  MET794  SER795  GLU796  ALA797  LYS798  CYS799  TRP800  GLU811  SER814 

> <Gold.Protein.RotatedAtoms>
  152.5017  133.8792  159.7337 H   0  0  0  0  0  0  0  0  0  0  0  0  # atno 6907 bound_to 6896
  150.9259  133.6815  159.2828 H   0  0  0  0  0  0  0  0  0  0  0  0  # atno 6908 bound_to 6896
  151.4177  135.0998  159.9657 H   0  0  0  0  0  0  0  0  0  0  0  0  # atno 6909 bound_to 6896
  145.6026  140.9405  143.1232 H   0  0  0  0  0  0  0  0  0  0  0  0  # atno 7974 bound_to 7965
  155.9831  140.3375  155.6681 H   0  0  0  0  0  0  0  0  0  0  0  0  # atno 8008 bound_to 7997
  155.6522  140.0707  157.2601 H   0  0  0  0  0  0  0  0  0  0  0  0  # atno 8009 bound_to 7997
  154.4197  140.1723  156.1674 H   0  0  0  0  0  0  0  0  0  0  0  0  # atno 8010 bound_to 7997
  140.7288  143.4440  151.0615 H   0  0  0  0  0  0  0  0  0  0  0  0  # atno 10167 bound_to 10162
  156.4979  130.4581  149.6718 H   0  0  0  0  0  0  0  0  0  0  0  0  # atno 10718 bound_to 10713
  154.8447  135.3453  154.6273 H   0  0  0  0  0  0  0  0  0  0  0  0  # atno 10763 bound_to 10752
  153.6883  135.6976  153.5102 H   0  0  0  0  0  0  0  0  0  0  0  0  # atno 10764 bound_to 10752
  153.2615  135.4321  155.0854 H   0  0  0  0  0  0  0  0  0  0  0  0  # atno 10765 bound_to 10752
  140.7078  134.3866  157.5201 H   0  0  0  0  0  0  0  0  0  0  0  0  # atno 11005 bound_to 11000
  144.7303  139.7746  143.7349 LP  0  0  0  0  0  0  0  0  0  0  0  0  # atno 17320 bound_to 7965
  146.1564  139.4664  143.0016 LP  0  0  0  0  0  0  0  0  0  0  0  0  # atno 17321 bound_to 7965
  139.8110  143.7951  152.3171 LP  0  0  0  0  0  0  0  0  0  0  0  0  # atno 17342 bound_to 10162
  139.8001  144.7377  150.9837 LP  0  0  0  0  0  0  0  0  0  0  0  0  # atno 17343 bound_to 10162
  156.3361  130.7357  151.2295 LP  0  0  0  0  0  0  0  0  0  0  0  0  # atno 17370 bound_to 10713
  157.7466  131.0416  150.4656 LP  0  0  0  0  0  0  0  0  0  0  0  0  # atno 17371 bound_to 10713
  139.8879  134.8869  156.2501 LP  0  0  0  0  0  0  0  0  0  0  0  0  # atno 17394 bound_to 11000
  141.0109  133.7096  156.1111 LP  0  0  0  0  0  0  0  0  0  0  0  0  # atno 17395 bound_to 11000

$$$$
