AV-unprocessed.smi:37|AV-procd|sdf|334|dock2
  -GOLD-   2262016173D 1   1.00000     0.00000
 Structure written by MMmdl.
 43 44  0  0  0  0  0  0  0  0  2 V2000
  149.4239  131.2614  154.3852 C   0  0  0  0  0  0  0  0  0  0  0  0
  150.6152  131.6146  155.2880 C   0  0  0  0  0  0  0  0  0  0  0  0
  150.2230  132.3909  156.5470 C   0  0  0  0  0  0  0  0  0  0  0  0
  151.0483  132.7370  157.3945 O   0  0  0  0  0  0  0  0  0  0  0  0
  148.9048  132.6334  156.5949 O   0  0  0  0  0  0  0  0  0  0  0  0
  148.3352  133.2039  157.7632 C   0  0  0  0  0  0  0  0  0  0  0  0
  148.9899  134.5568  158.0737 C   0  0  1  0  0  0  0  0  0  0  0  0
  149.5232  135.1589  156.8950 O   0  0  0  0  0  0  0  0  0  0  0  0
  149.0975  136.4873  156.8172 C   0  0  2  0  0  0  0  0  0  0  0  0
  150.1984  137.3558  156.2535 N   0  0  0  0  0  0  0  0  0  0  0  0
  150.3674  138.6660  156.6702 C   0  0  0  0  0  0  0  0  0  0  0  0
  151.3498  139.4383  156.1629 C   0  0  0  0  0  0  0  0  0  0  0  0
  151.4862  140.7080  156.5824 F   0  0  0  0  0  0  0  0  0  0  0  0
  152.2570  138.8879  155.1574 C   0  0  0  0  0  0  0  0  0  0  0  0
  153.1544  139.5955  154.7026 O   0  0  0  0  0  0  0  0  0  0  0  0
  152.0638  137.5957  154.7633 N   0  5  0  0  0  0  0  0  0  0  0  0
  151.0687  136.8111  155.2715 C   0  0  0  0  0  0  0  0  0  0  0  0
  150.8817  135.6460  154.9201 O   0  0  0  0  0  0  0  0  0  0  0  0
  148.6786  136.8986  158.2335 C   0  0  2  0  0  0  0  0  0  0  0  0
  150.2553  137.3748  159.3708 Br  0  0  0  0  0  0  0  0  0  0  0  0
  148.0580  135.5961  158.7086 C   0  0  2  0  0  0  0  0  0  0  0  0
  148.0204  135.4777  160.1247 O   0  0  0  0  0  0  0  0  0  0  0  0
  147.5217  136.4768  160.8743 C   0  0  0  0  0  0  0  0  0  0  0  0
  146.9997  137.5076  160.4497 O   0  0  0  0  0  0  0  0  0  0  0  0
  147.6751  136.2217  162.3719 C   0  0  0  0  0  0  0  0  0  0  0  0
  147.0594  134.8818  162.7977 C   0  0  0  0  0  0  0  0  0  0  0  0
  149.7613  130.7214  153.5004 H   0  0  0  0  0  0  0  0  0  0  0  0
  148.9027  132.1572  154.0454 H   0  0  0  0  0  0  0  0  0  0  0  0
  148.7043  130.6269  154.9040 H   0  0  0  0  0  0  0  0  0  0  0  0
  151.1276  130.7016  155.5919 H   0  0  0  0  0  0  0  0  0  0  0  0
  151.3366  132.2086  154.7265 H   0  0  0  0  0  0  0  0  0  0  0  0
  147.2641  133.3481  157.6139 H   0  0  0  0  0  0  0  0  0  0  0  0
  148.4583  132.5219  158.6053 H   0  0  0  0  0  0  0  0  0  0  0  0
  149.8411  134.3890  158.7353 H   0  0  0  0  0  0  0  0  0  0  0  0
  148.2762  136.5342  156.0991 H   0  0  0  0  0  0  0  0  0  0  0  0
  149.7027  139.0931  157.4057 H   0  0  0  0  0  0  0  0  0  0  0  0
  147.9855  137.7403  158.2215 H   0  0  0  0  0  0  0  0  0  0  0  0
  147.0606  135.4971  158.2778 H   0  0  0  0  0  0  0  0  0  0  0  0
  148.7347  136.2454  162.6272 H   0  0  0  0  0  0  0  0  0  0  0  0
  147.1998  137.0368  162.9183 H   0  0  0  0  0  0  0  0  0  0  0  0
  147.1400  134.7486  163.8764 H   0  0  0  0  0  0  0  0  0  0  0  0
  147.5661  134.0402  162.3241 H   0  0  0  0  0  0  0  0  0  0  0  0
  146.0019  134.8295  162.5364 H   0  0  0  0  0  0  0  0  0  0  0  0
  1  2  1  0  0  0  0
  1 27  1  0  0  0  0
  1 28  1  0  0  0  0
  1 29  1  0  0  0  0
  2  3  1  0  0  0  0
  2 30  1  0  0  0  0
  2 31  1  0  0  0  0
  3  4  2  0  0  0  0
  3  5  1  0  0  0  0
  5  6  1  0  0  0  0
  6  7  1  0  0  0  0
  6 32  1  0  0  0  0
  6 33  1  0  0  0  0
  7 21  1  0  0  0  0
  7  8  1  0  0  0  0
  7 34  1  0  0  0  0
  8  9  1  0  0  0  0
  9 10  1  0  0  0  0
  9 19  1  0  0  0  0
  9 35  1  0  0  0  0
 10 17  1  0  0  0  0
 10 11  1  0  0  0  0
 11 12  2  0  0  0  0
 11 36  1  0  0  0  0
 12 13  1  0  0  0  0
 12 14  1  0  0  0  0
 14 15  2  0  0  0  0
 14 16  1  0  0  0  0
 16 17  1  0  0  0  0
 17 18  2  0  0  0  0
 19 20  1  0  0  0  0
 19 21  1  0  0  0  0
 19 37  1  0  0  0  0
 21 22  1  0  0  0  0
 21 38  1  0  0  0  0
 22 23  1  0  0  0  0
 23 24  2  0  0  0  0
 23 25  1  0  0  0  0
 25 26  1  0  0  0  0
 25 39  1  0  0  0  0
 25 40  1  0  0  0  0
 26 41  1  0  0  0  0
 26 42  1  0  0  0  0
 26 43  1  0  0  0  0
M  CHG  1  16  -1
M  END
> <s_m_source_file>
AV-unprocessed.smi

> <i_m_source_file_index>
37

> <i_lp_mmshare_version>
43012

> <i_f3d_flags>
0

> <s_epik_input>
W0NIM11bQ0gyXUMoPU8pT1tDSDJdW0NAQEhdMU9bQ0BASF0objJbY0hdYyhGKWMoPU8pW25IXWMyPU8pW0NAQEhdKEJyKVtDQEhdMU9DKD1PKVtDSDJdW0NIM10=

> <s_epik_cmdline>
J2VwaWtfcHl0aG9uJywgJy1waCcsICc3LjAnLCAnLXRuJywgJzgnLCAnLW1hJywgJzIwMCcsICctbWV0YWxfYmluZGluZycsICctaW1hZScsICc8aW5maWxlLm1hZT4nLCAnLW9tYWUnLCAnPG91dGZpbGUubWFlPic=

> <r_epik_Ionization_Penalty>
1.08158

> <r_epik_Ionization_Penalty_Charging>
9.05154e-09

> <r_epik_Ionization_Penalty_Neutral>
1.08158

> <r_epik_State_Penalty>
1.13706

> <r_epik_Charging_Adjusted_Penalty>
1.13706

> <i_epik_Tot_Q>
-1

> <i_epik_Tot_abs_Q>
1

> <r_epik_Metal_State_Penalty>
0.00343535

> <b_epik_Metal_Only>
0

> <s_epik_Chemistry_Notes>
This compound has an ester and may undergo hydrolysis at high or low pH. This compound contains an acetal/aminal-like group ( X-CH(R)-Y where X, Y are N, S, or O) that may be acid/base labile, releasing an aldehyde.

> <s_lp_Force_Field>
OPLS_2005

> <r_lp_Energy>
36.4441

> <b_lp_Chiralities_Consistent>
1

> <s_lp_Variant>
AV-unprocessed.smi:37-32

> <Gold.Version>
5.8.1

> <Gold.Id.Protein>
6NUR|6NUR_protein|mol2

> <Gold.PLP.Fitness>
42.2578

> <Gold.PLP.PLP>
-36.5725

> <Gold.PLP.part.hbond>
-6.0000

> <Gold.PLP.part.metal>
0.0000

> <Gold.PLP.part.buried>
-4.0599

> <Gold.PLP.part.nonpolar>
-27.5815

> <Gold.PLP.part.repulsive>
0.2744

> <Gold.PLP.ligand.clash>
2.2865

> <Gold.PLP.ligand.torsion>
1.3633

> <Gold.PLP.Chemscore.Hbond>
3.4476

> <Gold.PLP.Chemscore.CHOScore>
0.0000

> <Gold.PLP.Chemscore.Metal>
0.0000

> <Gold.Chemscore.Hbonds>
donor molecule, donor type, donor heavy atom, donor atom, acceptor molecule, acceptor atom, score
      P1  H  6896  6907       L1     4  1.00
      P1  H  6934  6947       L1    24  1.00
      P1  H  7989  7998       L1    15  0.08
      P1  H  7997  8010       L1    15  1.00
      P1  H 10752 10764       L1    18  0.27

> <Gold.PLP.Chemscore.Internal.Correction>
0.3557

> <Gold.Rescore>
     Score         DG    S(hbond)    S(metal)    S(lipo)     H(rot)  DE(clash)    DE(int)     intcor
      9.06     -13.18       2.87        0.00      55.37       3.27       0.11       4.01       ----

> <Gold.Chemscore.Fitness>
9.0647

> <Gold.Chemscore.DG>
-13.1823

> <Gold.Chemscore.ZeroCoef>
-5.4800

> <Gold.Chemscore.Hbond>
2.8706

> <Gold.Chemscore.Metal>
0.0000

> <Gold.Chemscore.Lipo>
55.3670

> <Gold.Chemscore.Internal_Hbond>
0.0000

> <Gold.Chemscore.DEClash>
0.1115

> <Gold.Chemscore.DEInternal>
4.0061

> <Gold.Chemscore.Rot>
3.2669

> <Gold.Chemscore.Internal.Correction>
   9.000000E+99

> <Gold.Chemscore.Hbonds>
donor molecule, donor type, donor heavy atom, donor atom, acceptor molecule, acceptor atom, score
      P1  H  6896  6907       L1     4  0.97
      P1  H  6934  6947       L1    24  0.98
      P1  H  7989  7998       L1    15  0.01
      P1  H  7997  8010       L1    15  0.98
      P1  H 10752 10764       L1    18  0.01

> <Gold.Chemscore.Hbond.Weighted>
-9.5878

> <Gold.Chemscore.Metal.Weighted>
-0.0000

> <Gold.Chemscore.Lipo.Weighted>
-6.4779

> <Gold.Chemscore.Internal_Hbond.Weighted>
0.0000

> <Gold.Chemscore.DEClash.Weighted>
0.1115

> <Gold.Chemscore.DEInternal.Weighted>
4.0061

> <Gold.Chemscore.Rot.Weighted>
8.3634

> <Gold.Chemscore.Internal.Correction.Weighted>
   9.000000E+99

> <Gold.Protein.RotatedTorsions>
[ 6907 6896 6895 6894 ] final -161.38 input  -60.11 | X-H torsion
[ 7974 7965 7964 7962 ] final -104.07 input  175.53 | X-H torsion
[ 8008 7997 7996 7995 ] final  110.84 input   59.86 | X-H torsion
[ 10167 10162 10161 10158 ] final  117.43 input  -65.29 | X-H torsion
[ 10718 10713 10712 10709 ] final -132.38 input   66.30 | X-H torsion
[ 10763 10752 10751 10750 ] final  -75.22 input  -60.55 | X-H torsion
[ 11005 11000 10999 10996 ] final  143.33 input  -57.11 | X-H torsion

> <Gold.Protein.ActiveResidues>
 VAL166  LYS551  ARG553  GLY616  TRP617  ASP618  TYR619  PRO620  LYS621  CYS622 
 ASP623  PHE694  ASN695  SER759  ASP760  ASP761  ALA762  ILE779  LEU786  VAL792 
 PHE793  MET794  SER795  GLU796  ALA797  LYS798  CYS799  TRP800  GLU811  SER814 

> <Gold.Protein.RotatedAtoms>
  151.3638  133.3880  159.2692 H   0  0  0  0  0  0  0  0  0  0  0  0  # atno 6907 bound_to 6896
  150.9705  134.9079  159.7795 H   0  0  0  0  0  0  0  0  0  0  0  0  # atno 6908 bound_to 6896
  152.5182  134.3599  159.9333 H   0  0  0  0  0  0  0  0  0  0  0  0  # atno 6909 bound_to 6896
  145.2478  140.9227  143.3112 H   0  0  0  0  0  0  0  0  0  0  0  0  # atno 7974 bound_to 7965
  156.2082  140.3031  155.9673 H   0  0  0  0  0  0  0  0  0  0  0  0  # atno 8008 bound_to 7997
  155.2790  140.0437  157.3031 H   0  0  0  0  0  0  0  0  0  0  0  0  # atno 8009 bound_to 7997
  154.5662  140.2335  155.8268 H   0  0  0  0  0  0  0  0  0  0  0  0  # atno 8010 bound_to 7997
  139.6179  144.7095  151.2699 H   0  0  0  0  0  0  0  0  0  0  0  0  # atno 10167 bound_to 10162
  156.2340  130.7055  151.0888 H   0  0  0  0  0  0  0  0  0  0  0  0  # atno 10718 bound_to 10713
  154.4836  135.5838  153.6407 H   0  0  0  0  0  0  0  0  0  0  0  0  # atno 10763 bound_to 10752
  152.9851  135.6096  154.3215 H   0  0  0  0  0  0  0  0  0  0  0  0  # atno 10764 bound_to 10752
  154.3108  135.2845  155.2546 H   0  0  0  0  0  0  0  0  0  0  0  0  # atno 10765 bound_to 10752
  140.0546  134.9238  157.1077 H   0  0  0  0  0  0  0  0  0  0  0  0  # atno 11005 bound_to 11000
  144.9530  139.4062  143.6393 LP  0  0  0  0  0  0  0  0  0  0  0  0  # atno 17320 bound_to 7965
  146.3311  139.8547  142.8867 LP  0  0  0  0  0  0  0  0  0  0  0  0  # atno 17321 bound_to 7965
  140.7363  143.6712  150.8080 LP  0  0  0  0  0  0  0  0  0  0  0  0  # atno 17342 bound_to 10162
  140.0317  143.5436  152.2757 LP  0  0  0  0  0  0  0  0  0  0  0  0  # atno 17343 bound_to 10162
  157.7146  131.0716  150.6375 LP  0  0  0  0  0  0  0  0  0  0  0  0  # atno 17370 bound_to 10713
  156.6444  130.4467  149.5741 LP  0  0  0  0  0  0  0  0  0  0  0  0  # atno 17371 bound_to 10713
  140.3865  134.2231  155.7168 LP  0  0  0  0  0  0  0  0  0  0  0  0  # atno 17394 bound_to 11000
  141.1946  133.8125  157.0751 LP  0  0  0  0  0  0  0  0  0  0  0  0  # atno 17395 bound_to 11000

$$$$
