AV-unprocessed.smi:2754|AV-procd|sdf|10615|dock3
  -GOLD-   2272015 63D 1   1.00000     0.00000
 Structure written by MMmdl.
 28 29  0  0  0  0  0  0  0  0  2 V2000
  149.9537  138.4101  153.1974 N   0  0  0  0  0  0  0  0  0  0  0  0
  150.5238  138.4750  154.4446 C   0  0  0  0  0  0  0  0  0  0  0  0
  150.7118  137.3151  155.0769 N   0  0  0  0  0  0  0  0  0  0  0  0
  151.2705  137.3754  156.3051 C   0  0  0  0  0  0  0  0  0  0  0  0
  151.6406  138.6023  156.8931 C   0  0  0  0  0  0  0  0  0  0  0  0
  151.3941  139.7627  156.1274 C   0  0  0  0  0  0  0  0  0  0  0  0
  151.7515  141.1469  156.6503 C   0  0  2  0  0  0  0  0  0  0  0  0
  152.1629  141.1214  158.1355 C   0  0  0  0  0  0  0  0  0  0  0  0
  152.5071  142.5374  158.6228 C   0  0  0  0  0  0  0  0  0  0  0  0
  151.3503  143.5114  158.3434 C   0  0  0  0  0  0  0  0  0  0  0  0
  151.0010  143.5095  156.9059 N   0  3  0  0  0  0  0  0  0  0  0  0
  150.6225  142.1700  156.4038 C   0  0  0  0  0  0  0  0  0  0  0  0
  150.8330  139.6920  154.8977 N   0  0  0  0  0  0  0  0  0  0  0  0
  149.7875  139.2552  152.6702 H   0  0  0  0  0  0  0  0  0  0  0  0
  149.7982  137.5173  152.7527 H   0  0  0  0  0  0  0  0  0  0  0  0
  151.4244  136.4392  156.8212 H   0  0  0  0  0  0  0  0  0  0  0  0
  152.0868  138.6425  157.8759 H   0  0  0  0  0  0  0  0  0  0  0  0
  152.6205  141.4840  156.0825 H   0  0  0  0  0  0  0  0  0  0  0  0
  151.3514  140.7186  158.7434 H   0  0  0  0  0  0  0  0  0  0  0  0
  153.0179  140.4600  158.2797 H   0  0  0  0  0  0  0  0  0  0  0  0
  152.7308  142.5200  159.6898 H   0  0  0  0  0  0  0  0  0  0  0  0
  153.4112  142.8880  158.1232 H   0  0  0  0  0  0  0  0  0  0  0  0
  150.4714  143.2364  158.9279 H   0  0  0  0  0  0  0  0  0  0  0  0
  151.6274  144.5232  158.6406 H   0  0  0  0  0  0  0  0  0  0  0  0
  150.2305  144.1452  156.7548 H   0  0  0  0  0  0  0  0  0  0  0  0
  150.4029  142.2435  155.3383 H   0  0  0  0  0  0  0  0  0  0  0  0
  149.7019  141.8568  156.8983 H   0  0  0  0  0  0  0  0  0  0  0  0
  151.7999  143.8361  156.3814 H   0  0  0  0  0  0  0  0  0  0  0  0
  1  2  1  0  0  0  0
  1 14  1  0  0  0  0
  1 15  1  0  0  0  0
  2 13  1  0  0  0  0
  2  3  2  0  0  0  0
  3  4  1  0  0  0  0
  4  5  2  0  0  0  0
  4 16  1  0  0  0  0
  5  6  1  0  0  0  0
  5 17  1  0  0  0  0
  6  7  1  0  0  0  0
  6 13  2  0  0  0  0
  7 12  1  0  0  0  0
  7  8  1  0  0  0  0
  7 18  1  0  0  0  0
  8  9  1  0  0  0  0
  8 19  1  0  0  0  0
  8 20  1  0  0  0  0
  9 10  1  0  0  0  0
  9 21  1  0  0  0  0
  9 22  1  0  0  0  0
 10 11  1  0  0  0  0
 10 23  1  0  0  0  0
 10 24  1  0  0  0  0
 11 12  1  0  0  0  0
 11 25  1  0  0  0  0
 11 28  1  0  0  0  0
 12 26  1  0  0  0  0
 12 27  1  0  0  0  0
M  CHG  1  11   1
M  END
> <s_m_source_file>
AV-unprocessed.smi

> <i_m_source_file_index>
2754

> <i_lp_mmshare_version>
43012

> <i_f3d_flags>
0

> <s_epik_input>
W05IMl1jMW5bY0hdW2NIXWMobjEpW0NAQEhdMltDSDJdW0NIMl1bQ0gyXVtOSF1bQ0gyXTI=

> <s_epik_cmdline>
J2VwaWtfcHl0aG9uJywgJy1waCcsICc3LjAnLCAnLXRuJywgJzgnLCAnLW1hJywgJzIwMCcsICctbWV0YWxfYmluZGluZycsICctaW1hZScsICc8aW5maWxlLm1hZT4nLCAnLW9tYWUnLCAnPG91dGZpbGUubWFlPic=

> <r_lp_tautomer_probability>
1

> <r_epik_Ionization_Penalty>
0.000528025

> <r_epik_Ionization_Penalty_Charging>
0.000372054

> <r_epik_Ionization_Penalty_Neutral>
0.000155972

> <r_epik_State_Penalty>
-0

> <r_epik_Charging_Adjusted_Penalty>
0.000372054

> <i_epik_Tot_Q>
1

> <i_epik_Tot_abs_Q>
1

> <r_epik_Metal_State_Penalty>
-0

> <b_epik_Metal_Only>
0

> <s_lp_Force_Field>
OPLS_2005

> <r_lp_Energy>
4.9837

> <b_lp_Chiralities_Consistent>
1

> <s_lp_Variant>
AV-unprocessed.smi:2754-1

> <Gold.Version>
5.8.1

> <Gold.Id.Protein>
6NUR|6NUR_protein|mol2

> <Gold.PLP.Fitness>
35.4738

> <Gold.PLP.PLP>
-21.0144

> <Gold.PLP.part.hbond>
-4.5400

> <Gold.PLP.part.metal>
0.0000

> <Gold.PLP.part.buried>
-2.1935

> <Gold.PLP.part.nonpolar>
-13.4716

> <Gold.PLP.part.repulsive>
0.3012

> <Gold.PLP.ligand.clash>
0.0000

> <Gold.PLP.ligand.torsion>
0.2759

> <Gold.PLP.Chemscore.Hbond>
4.9920

> <Gold.PLP.Chemscore.CHOScore>
0.0000

> <Gold.PLP.Chemscore.Metal>
0.0000

> <Gold.Chemscore.Hbonds>
donor molecule, donor type, donor heavy atom, donor atom, acceptor molecule, acceptor atom, score
      L1  H     1    14       P1  7957  0.98
      L1  H     1    15       P1  7948  1.00
      L1  H    11    25       P1  8028  1.98
      P1  H  7989  7998       L1    13  1.00

> <Gold.PLP.Chemscore.Internal.Correction>
0.0351

> <Gold.Rescore>
     Score         DG    S(hbond)    S(metal)    S(lipo)     H(rot)  DE(clash)    DE(int)     intcor
     19.81     -21.41       3.44        0.00      59.84       1.00       1.24       0.36       ----

> <Gold.Chemscore.Fitness>
19.8124

> <Gold.Chemscore.DG>
-21.4105

> <Gold.Chemscore.ZeroCoef>
-5.4800

> <Gold.Chemscore.Hbond>
3.4398

> <Gold.Chemscore.Metal>
0.0000

> <Gold.Chemscore.Lipo>
59.8430

> <Gold.Chemscore.Internal_Hbond>
0.0000

> <Gold.Chemscore.DEClash>
1.2374

> <Gold.Chemscore.DEInternal>
0.3607

> <Gold.Chemscore.Rot>
1.0000

> <Gold.Chemscore.Internal.Correction>
   9.000000E+99

> <Gold.Chemscore.Hbonds>
donor molecule, donor type, donor heavy atom, donor atom, acceptor molecule, acceptor atom, score
      L1  H     1    14       P1  7957  0.88
      L1  H     1    15       P1  7948  0.30
      L1  H    11    25       P1  8028  0.92
      P1  H  7989  7998       L1    13  0.77

> <Gold.Chemscore.Hbond.Weighted>
-11.4889

> <Gold.Chemscore.Metal.Weighted>
-0.0000

> <Gold.Chemscore.Lipo.Weighted>
-7.0016

> <Gold.Chemscore.Internal_Hbond.Weighted>
0.0000

> <Gold.Chemscore.DEClash.Weighted>
1.2374

> <Gold.Chemscore.DEInternal.Weighted>
0.3607

> <Gold.Chemscore.Rot.Weighted>
2.5600

> <Gold.Chemscore.Internal.Correction.Weighted>
   9.000000E+99

> <Gold.Protein.RotatedTorsions>
[ 6907 6896 6895 6894 ] final   36.17 input  -60.11 | X-H torsion
[ 7974 7965 7964 7962 ] final  -31.43 input  175.53 | X-H torsion
[ 8008 7997 7996 7995 ] final  -85.91 input   59.86 | X-H torsion
[ 10167 10162 10161 10158 ] final  112.54 input  -65.29 | X-H torsion
[ 10718 10713 10712 10709 ] final -134.04 input   66.30 | X-H torsion
[ 10763 10752 10751 10750 ] final  -66.62 input  -60.55 | X-H torsion
[ 11005 11000 10999 10996 ] final  -87.43 input  -57.11 | X-H torsion

> <Gold.Protein.ActiveResidues>
 VAL166  LYS551  ARG553  GLY616  TRP617  ASP618  TYR619  PRO620  LYS621  CYS622 
 ASP623  PHE694  ASN695  SER759  ASP760  ASP761  ALA762  ILE779  LEU786  VAL792 
 PHE793  MET794  SER795  GLU796  ALA797  LYS798  CYS799  TRP800  GLU811  SER814 

> <Gold.Protein.RotatedAtoms>
  152.1261  134.9170  160.0560 H   0  0  0  0  0  0  0  0  0  0  0  0  # atno 6907 bound_to 6896
  152.0292  133.3925  159.4298 H   0  0  0  0  0  0  0  0  0  0  0  0  # atno 6908 bound_to 6896
  150.6852  134.3461  159.4932 H   0  0  0  0  0  0  0  0  0  0  0  0  # atno 6909 bound_to 6896
  146.1068  140.5666  142.8796 H   0  0  0  0  0  0  0  0  0  0  0  0  # atno 7974 bound_to 7965
  154.6460  140.0585  156.9901 H   0  0  0  0  0  0  0  0  0  0  0  0  # atno 8008 bound_to 7997
  155.1444  140.3268  155.4426 H   0  0  0  0  0  0  0  0  0  0  0  0  # atno 8009 bound_to 7997
  156.2554  140.1958  156.6558 H   0  0  0  0  0  0  0  0  0  0  0  0  # atno 8010 bound_to 7997
  139.6528  144.7128  151.2014 H   0  0  0  0  0  0  0  0  0  0  0  0  # atno 10167 bound_to 10162
  156.2513  130.7154  151.1054 H   0  0  0  0  0  0  0  0  0  0  0  0  # atno 10718 bound_to 10713
  154.3624  135.6113  153.5698 H   0  0  0  0  0  0  0  0  0  0  0  0  # atno 10763 bound_to 10752
  152.9793  135.5818  154.4617 H   0  0  0  0  0  0  0  0  0  0  0  0  # atno 10764 bound_to 10752
  154.4357  135.2849  155.1860 H   0  0  0  0  0  0  0  0  0  0  0  0  # atno 10765 bound_to 10752
  141.1617  133.7511  156.9305 H   0  0  0  0  0  0  0  0  0  0  0  0  # atno 11005 bound_to 11000
  144.7477  140.5112  143.6823 LP  0  0  0  0  0  0  0  0  0  0  0  0  # atno 17320 bound_to 7965
  145.5744  139.1485  143.3270 LP  0  0  0  0  0  0  0  0  0  0  0  0  # atno 17321 bound_to 7965
  140.7545  143.6121  150.8595 LP  0  0  0  0  0  0  0  0  0  0  0  0  # atno 17342 bound_to 10162
  139.9771  143.5992  152.2955 LP  0  0  0  0  0  0  0  0  0  0  0  0  # atno 17343 bound_to 10162
  157.7215  131.0678  150.6114 LP  0  0  0  0  0  0  0  0  0  0  0  0  # atno 17370 bound_to 10713
  156.6194  130.4402  149.5828 LP  0  0  0  0  0  0  0  0  0  0  0  0  # atno 17371 bound_to 10713
  140.1390  134.9306  157.2440 LP  0  0  0  0  0  0  0  0  0  0  0  0  # atno 17394 bound_to 11000
  140.2860  134.3295  155.7329 LP  0  0  0  0  0  0  0  0  0  0  0  0  # atno 17395 bound_to 11000

$$$$
