AV-unprocessed.smi:276|AV-procd|sdf|2083|dock8
  -GOLD-   2262021353D 1   1.00000     0.00000
 Structure written by MMmdl.
 57 61  0  0  0  0  0  0  0  0  1 V2000
  149.1191  138.1405  157.7885 C   0  0  0  0  0  0  0  0  0  0  0  0
  149.1360  138.1754  156.3721 O   0  0  0  0  0  0  0  0  0  0  0  0
  150.0313  139.1495  155.8537 C   0  0  1  0  0  0  0  0  0  0  0  0
  149.9736  139.2464  154.3223 C   0  0  0  0  0  0  0  0  0  0  0  0
  148.8957  140.3410  154.4552 C   0  0  1  0  0  0  0  0  0  0  0  0
  147.5413  139.7811  154.3530 N   0  0  0  0  0  0  0  0  0  0  0  0
  147.1313  139.2817  153.0430 C   0  0  0  0  0  0  0  0  0  0  0  0
  146.5375  140.4729  154.9397 C   0  0  0  0  0  0  0  0  0  0  0  0
  145.7963  139.8116  155.8636 N   0  0  0  0  0  0  0  0  0  0  0  0
  144.7878  140.4317  156.4826 C   0  0  0  0  0  0  0  0  0  0  0  0
  144.3523  141.6825  156.3212 N   0  0  0  0  0  0  0  0  0  0  0  0
  145.0833  142.3455  155.3800 C   0  0  0  0  0  0  0  0  0  0  0  0
  146.1852  141.8224  154.6457 C   0  0  0  0  0  0  0  0  0  0  0  0
  146.6779  142.7938  153.7820 N   0  0  0  0  0  0  0  0  0  0  0  0
  145.9204  143.8328  154.0016 C   0  0  0  0  0  0  0  0  0  0  0  0
  144.9203  143.6435  154.9280 N   0  0  0  0  0  0  0  0  0  0  0  0
  143.9362  144.6225  155.3553 C   0  0  0  0  0  0  0  0  0  0  0  0
  142.8540  144.9381  154.2952 C   0  0  1  0  0  0  0  0  0  0  0  0
  142.1090  143.7455  154.1509 O   0  0  0  0  0  0  0  0  0  0  0  0
  141.8542  146.0574  154.6695 C   0  0  1  0  0  0  0  0  0  0  0  0
  140.5806  146.1388  153.8206 C   0  0  0  0  0  0  0  0  0  0  0  0
  139.5397  146.7371  154.7540 C   0  0  0  0  0  0  0  0  0  0  0  0
  140.1919  146.6527  156.1330 C   0  0  0  0  0  0  0  0  0  0  0  0
  141.2987  145.7841  155.9483 O   0  0  0  0  0  0  0  0  0  0  0  0
  149.4208  140.5613  155.8990 C   0  0  0  0  0  0  0  0  0  0  0  0
  150.3557  141.7486  156.1878 C   0  0  0  0  0  0  0  0  0  0  0  0
  149.8511  141.7299  157.6325 C   0  0  0  0  0  0  0  0  0  0  0  0
  148.5914  141.0375  157.1099 C   0  0  0  0  0  0  0  0  0  0  0  0
  148.4197  137.3758  158.1259 H   0  0  0  0  0  0  0  0  0  0  0  0
  148.7955  139.0973  158.2000 H   0  0  0  0  0  0  0  0  0  0  0  0
  150.1011  137.8994  158.1963 H   0  0  0  0  0  0  0  0  0  0  0  0
  151.0370  139.0905  156.2730 H   0  0  0  0  0  0  0  0  0  0  0  0
  150.9025  139.6345  153.9011 H   0  0  0  0  0  0  0  0  0  0  0  0
  149.6717  138.3315  153.8127 H   0  0  0  0  0  0  0  0  0  0  0  0
  149.0835  141.1793  153.7845 H   0  0  0  0  0  0  0  0  0  0  0  0
  146.0970  139.5292  152.7963 H   0  0  0  0  0  0  0  0  0  0  0  0
  147.2268  138.1960  153.0198 H   0  0  0  0  0  0  0  0  0  0  0  0
  147.7637  139.6933  152.2556 H   0  0  0  0  0  0  0  0  0  0  0  0
  144.2524  139.8403  157.2107 H   0  0  0  0  0  0  0  0  0  0  0  0
  146.0610  144.7663  153.4765 H   0  0  0  0  0  0  0  0  0  0  0  0
  143.4673  144.2280  156.2581 H   0  0  0  0  0  0  0  0  0  0  0  0
  144.4539  145.5362  155.6511 H   0  0  0  0  0  0  0  0  0  0  0  0
  143.3220  145.1625  153.3364 H   0  0  0  0  0  0  0  0  0  0  0  0
  142.1754  143.4552  153.2541 H   0  0  0  0  0  0  0  0  0  0  0  0
  142.3486  147.0310  154.6863 H   0  0  0  0  0  0  0  0  0  0  0  0
  140.7151  146.7377  152.9205 H   0  0  0  0  0  0  0  0  0  0  0  0
  140.2601  145.1402  153.5207 H   0  0  0  0  0  0  0  0  0  0  0  0
  139.3076  147.7706  154.4957 H   0  0  0  0  0  0  0  0  0  0  0  0
  138.6131  146.1636  154.7138 H   0  0  0  0  0  0  0  0  0  0  0  0
  140.5527  147.6324  156.4501 H   0  0  0  0  0  0  0  0  0  0  0  0
  139.5135  146.2739  156.8978 H   0  0  0  0  0  0  0  0  0  0  0  0
  151.4197  141.5406  156.0718 H   0  0  0  0  0  0  0  0  0  0  0  0
  150.0637  142.6540  155.6526 H   0  0  0  0  0  0  0  0  0  0  0  0
  150.4485  141.0882  158.2822 H   0  0  0  0  0  0  0  0  0  0  0  0
  149.6842  142.7134  158.0724 H   0  0  0  0  0  0  0  0  0  0  0  0
  147.8182  141.7645  156.8656 H   0  0  0  0  0  0  0  0  0  0  0  0
  148.2064  140.2449  157.7518 H   0  0  0  0  0  0  0  0  0  0  0  0
  1  2  1  0  0  0  0
  1 29  1  0  0  0  0
  1 30  1  0  0  0  0
  1 31  1  0  0  0  0
  2  3  1  0  0  0  0
  3 25  1  0  0  0  0
  3  4  1  0  0  0  0
  3 32  1  0  0  0  0
  4  5  1  0  0  0  0
  4 33  1  0  0  0  0
  4 34  1  0  0  0  0
  5  6  1  0  0  0  0
  5 25  1  0  0  0  0
  5 35  1  0  0  0  0
  6  7  1  0  0  0  0
  6  8  1  0  0  0  0
  7 36  1  0  0  0  0
  7 37  1  0  0  0  0
  7 38  1  0  0  0  0
  8 13  1  0  0  0  0
  8  9  2  0  0  0  0
  9 10  1  0  0  0  0
 10 11  2  0  0  0  0
 10 39  1  0  0  0  0
 11 12  1  0  0  0  0
 12 16  1  0  0  0  0
 12 13  2  0  0  0  0
 13 14  1  0  0  0  0
 14 15  2  0  0  0  0
 15 16  1  0  0  0  0
 15 40  1  0  0  0  0
 16 17  1  0  0  0  0
 17 18  1  0  0  0  0
 17 41  1  0  0  0  0
 17 42  1  0  0  0  0
 18 19  1  0  0  0  0
 18 20  1  0  0  0  0
 18 43  1  0  0  0  0
 19 44  1  0  0  0  0
 20 24  1  0  0  0  0
 20 21  1  0  0  0  0
 20 45  1  0  0  0  0
 21 22  1  0  0  0  0
 21 46  1  0  0  0  0
 21 47  1  0  0  0  0
 22 23  1  0  0  0  0
 22 48  1  0  0  0  0
 22 49  1  0  0  0  0
 23 24  1  0  0  0  0
 23 50  1  0  0  0  0
 23 51  1  0  0  0  0
 25 28  1  0  0  0  0
 25 26  1  0  0  0  0
 26 27  1  0  0  0  0
 26 52  1  0  0  0  0
 26 53  1  0  0  0  0
 27 28  1  0  0  0  0
 27 54  1  0  0  0  0
 27 55  1  0  0  0  0
 28 56  1  0  0  0  0
 28 57  1  0  0  0  0
M  END
> <s_m_source_file>
AV-unprocessed.smi

> <i_m_source_file_index>
276

> <i_lp_mmshare_version>
43012

> <i_f3d_flags>
0

> <s_epik_input>
W0NIMl0xW0NIMl1bQ0gyXUMxMltDQEhdKE9bQ0gzXSlbQ0gyXVtDQEhdMk4oW0NIM10pYyhuW2NIXW4zKWMoYzM0KW5bY0hdbjRbQ0gyXVtDQEhdKFtPSF0pW0NAQEhdNVtDSDJdW0NIMl1bQ0gyXU81

> <s_epik_cmdline>
J2VwaWtfcHl0aG9uJywgJy1waCcsICc3LjAnLCAnLXRuJywgJzgnLCAnLW1hJywgJzIwMCcsICctbWV0YWxfYmluZGluZycsICctaW1hZScsICc8aW5maWxlLm1hZT4nLCAnLW9tYWUnLCAnPG91dGZpbGUubWFlPic=

> <r_lp_tautomer_probability>
1

> <r_epik_Ionization_Penalty>
0.00204117

> <r_epik_Ionization_Penalty_Charging>
0

> <r_epik_Ionization_Penalty_Neutral>
0.00204117

> <r_epik_State_Penalty>
0.00127401

> <r_epik_Charging_Adjusted_Penalty>
0.00127401

> <i_epik_Tot_Q>
0

> <i_epik_Tot_abs_Q>
0

> <r_epik_Metal_State_Penalty>
-0

> <b_epik_Metal_Only>
0

> <s_lp_Force_Field>
OPLS_2005

> <r_lp_Energy>
58.3472

> <b_lp_Chiralities_Consistent>
1

> <s_lp_Variant>
AV-unprocessed.smi:276-14

> <Gold.Version>
5.8.1

> <Gold.Id.Protein>
6NUR|6NUR_protein|mol2

> <Gold.PLP.Fitness>
38.4181

> <Gold.PLP.PLP>
-36.0032

> <Gold.PLP.part.hbond>
-0.9456

> <Gold.PLP.part.metal>
0.0000

> <Gold.PLP.part.buried>
-5.4725

> <Gold.PLP.part.nonpolar>
-30.8164

> <Gold.PLP.part.repulsive>
0.4084

> <Gold.PLP.ligand.clash>
0.0000

> <Gold.PLP.ligand.torsion>
0.8400

> <Gold.PLP.Chemscore.Hbond>
1.0000

> <Gold.PLP.Chemscore.CHOScore>
0.0000

> <Gold.PLP.Chemscore.Metal>
0.0000

> <Gold.Chemscore.Hbonds>
donor molecule, donor type, donor heavy atom, donor atom, acceptor molecule, acceptor atom, score
      L1  H    19    44       P1 10174  1.00

> <Gold.PLP.Chemscore.Internal.Correction>
1.0949

> <Gold.Rescore>
     Score         DG    S(hbond)    S(metal)    S(lipo)     H(rot)  DE(clash)    DE(int)     intcor
     10.10     -12.14       0.98        0.00      88.25       2.72       0.11       1.92       ----

> <Gold.Chemscore.Fitness>
10.1017

> <Gold.Chemscore.DG>
-12.1357

> <Gold.Chemscore.ZeroCoef>
-5.4800

> <Gold.Chemscore.Hbond>
0.9840

> <Gold.Chemscore.Metal>
0.0000

> <Gold.Chemscore.Lipo>
88.2497

> <Gold.Chemscore.Internal_Hbond>
0.0000

> <Gold.Chemscore.DEClash>
0.1137

> <Gold.Chemscore.DEInternal>
1.9203

> <Gold.Chemscore.Rot>
2.7172

> <Gold.Chemscore.Internal.Correction>
   9.000000E+99

> <Gold.Chemscore.Hbonds>
donor molecule, donor type, donor heavy atom, donor atom, acceptor molecule, acceptor atom, score
      L1  H    19    44       P1 10174  0.93

> <Gold.Chemscore.Hbond.Weighted>
-3.2865

> <Gold.Chemscore.Metal.Weighted>
-0.0000

> <Gold.Chemscore.Lipo.Weighted>
-10.3252

> <Gold.Chemscore.Internal_Hbond.Weighted>
0.0000

> <Gold.Chemscore.DEClash.Weighted>
0.1137

> <Gold.Chemscore.DEInternal.Weighted>
1.9203

> <Gold.Chemscore.Rot.Weighted>
6.9560

> <Gold.Chemscore.Internal.Correction.Weighted>
   9.000000E+99

> <Gold.Protein.RotatedTorsions>
[ 6907 6896 6895 6894 ] final   36.14 input  -60.11 | X-H torsion
[ 7974 7965 7964 7962 ] final  104.66 input  175.53 | X-H torsion
[ 8008 7997 7996 7995 ] final   38.35 input   59.86 | X-H torsion
[ 10167 10162 10161 10158 ] final   52.90 input  -65.29 | X-H torsion
[ 10718 10713 10712 10709 ] final -109.47 input   66.30 | X-H torsion
[ 10763 10752 10751 10750 ] final  170.23 input  -60.55 | X-H torsion
[ 11005 11000 10999 10996 ] final  -76.83 input  -57.11 | X-H torsion

> <Gold.Protein.ActiveResidues>
 VAL166  LYS551  ARG553  GLY616  TRP617  ASP618  TYR619  PRO620  LYS621  CYS622 
 ASP623  PHE694  ASN695  SER759  ASP760  ASP761  ALA762  ILE779  LEU786  VAL792 
 PHE793  MET794  SER795  GLU796  ALA797  LYS798  CYS799  TRP800  GLU811  SER814 

> <Gold.Protein.RotatedAtoms>
  152.1256  134.9173  160.0560 H   0  0  0  0  0  0  0  0  0  0  0  0  # atno 6907 bound_to 6896
  152.0297  133.3927  159.4300 H   0  0  0  0  0  0  0  0  0  0  0  0  # atno 6908 bound_to 6896
  150.6852  134.3456  159.4930 H   0  0  0  0  0  0  0  0  0  0  0  0  # atno 6909 bound_to 6896
  145.3298  139.2490  143.3667 H   0  0  0  0  0  0  0  0  0  0  0  0  # atno 7974 bound_to 7965
  155.2187  140.3329  155.4318 H   0  0  0  0  0  0  0  0  0  0  0  0  # atno 8008 bound_to 7997
  156.2342  140.1864  156.7212 H   0  0  0  0  0  0  0  0  0  0  0  0  # atno 8009 bound_to 7997
  154.6030  140.0620  156.9378 H   0  0  0  0  0  0  0  0  0  0  0  0  # atno 8010 bound_to 7997
  140.2465  144.3527  150.6362 H   0  0  0  0  0  0  0  0  0  0  0  0  # atno 10167 bound_to 10162
  156.0539  130.5766  150.8105 H   0  0  0  0  0  0  0  0  0  0  0  0  # atno 10718 bound_to 10713
  154.3945  135.2754  155.2134 H   0  0  0  0  0  0  0  0  0  0  0  0  # atno 10763 bound_to 10752
  154.4186  135.6005  153.6000 H   0  0  0  0  0  0  0  0  0  0  0  0  # atno 10764 bound_to 10752
  152.9831  135.5967  154.4205 H   0  0  0  0  0  0  0  0  0  0  0  0  # atno 10765 bound_to 10752
  141.1656  133.6999  156.7729 H   0  0  0  0  0  0  0  0  0  0  0  0  # atno 11005 bound_to 11000
  146.3050  140.3873  142.8690 LP  0  0  0  0  0  0  0  0  0  0  0  0  # atno 17320 bound_to 7965
  144.8873  140.7478  143.5949 LP  0  0  0  0  0  0  0  0  0  0  0  0  # atno 17321 bound_to 7965
  140.6074  143.2168  151.6954 LP  0  0  0  0  0  0  0  0  0  0  0  0  # atno 17342 bound_to 10162
  139.5060  144.3697  152.0482 LP  0  0  0  0  0  0  0  0  0  0  0  0  # atno 17343 bound_to 10162
  157.5491  131.0943  150.9721 LP  0  0  0  0  0  0  0  0  0  0  0  0  # atno 17370 bound_to 10713
  156.9985  130.5590  149.5309 LP  0  0  0  0  0  0  0  0  0  0  0  0  # atno 17371 bound_to 10713
  140.2451  134.8584  157.3612 LP  0  0  0  0  0  0  0  0  0  0  0  0  # atno 17394 bound_to 11000
  140.1757  134.4552  155.7803 LP  0  0  0  0  0  0  0  0  0  0  0  0  # atno 17395 bound_to 11000

$$$$
