AV-unprocessed.smi:648|AV-procd|sdf|3170|dock4
  -GOLD-   22720 0 93D 1   1.00000     0.00000
 Structure written by MMmdl.
 46 47  0  0  0  0  0  0  0  0  2 V2000
  142.3362  135.7948  153.9118 C   0  0  0  0  0  0  0  0  0  0  0  0
  143.8557  135.7394  153.6968 C   0  0  2  0  0  0  0  0  0  0  0  0
  144.6024  135.6287  155.0398 C   0  0  0  0  0  0  0  0  0  0  0  0
  146.1416  135.5732  154.8920 C   0  0  0  0  0  0  0  0  0  0  0  0
  146.7733  135.7363  156.2896 C   0  0  0  0  0  0  0  0  0  0  0  0
  146.5944  134.1963  154.3547 C   0  0  0  0  0  0  0  0  0  0  0  0
  146.6274  136.7510  153.9996 C   0  0  0  0  0  0  0  0  0  0  0  0
  145.8784  136.9565  152.6478 C   0  0  1  0  0  0  0  0  0  0  0  0
  146.3047  138.2978  151.9869 C   0  0  0  0  0  0  0  0  0  0  0  0
  147.6721  138.3310  151.6296 O   0  0  0  0  0  0  0  0  0  0  0  0
  146.1468  135.8496  151.6893 N   0  3  0  0  0  0  0  0  0  0  0  0
  145.2648  135.6997  150.5067 C   0  0  0  0  0  0  0  0  0  0  0  0
  144.1123  134.7252  150.7968 C   0  0  0  0  0  0  0  0  0  0  0  0
  144.4366  133.3602  150.4252 N   0  0  0  0  0  0  0  0  0  0  0  0
  143.6436  132.3406  150.0922 C   0  0  0  0  0  0  0  0  0  0  0  0
  144.2989  131.2219  149.8167 N   0  0  0  0  0  0  0  0  0  0  0  0
  145.5809  131.6541  150.0063 C   0  0  0  0  0  0  0  0  0  0  0  0
  145.7186  132.9278  150.3751 N   0  0  0  0  0  0  0  0  0  0  0  0
  144.3506  136.9700  152.9115 C   0  0  0  0  0  0  0  0  0  0  0  0
  142.0479  136.6701  154.4950 H   0  0  0  0  0  0  0  0  0  0  0  0
  141.9823  134.9106  154.4424 H   0  0  0  0  0  0  0  0  0  0  0  0
  141.8062  135.8400  152.9600 H   0  0  0  0  0  0  0  0  0  0  0  0
  144.0545  134.8436  153.1091 H   0  0  0  0  0  0  0  0  0  0  0  0
  144.3316  136.4886  155.6550 H   0  0  0  0  0  0  0  0  0  0  0  0
  144.2514  134.7520  155.5864 H   0  0  0  0  0  0  0  0  0  0  0  0
  147.8623  135.7063  156.2396 H   0  0  0  0  0  0  0  0  0  0  0  0
  146.4547  134.9427  156.9665 H   0  0  0  0  0  0  0  0  0  0  0  0
  146.4946  136.6849  156.7504 H   0  0  0  0  0  0  0  0  0  0  0  0
  147.6741  134.1659  154.2061 H   0  0  0  0  0  0  0  0  0  0  0  0
  146.1259  133.9266  153.4110 H   0  0  0  0  0  0  0  0  0  0  0  0
  146.3444  133.4015  155.0585 H   0  0  0  0  0  0  0  0  0  0  0  0
  146.4945  137.6627  154.5835 H   0  0  0  0  0  0  0  0  0  0  0  0
  147.7044  136.6879  153.8467 H   0  0  0  0  0  0  0  0  0  0  0  0
  145.7348  138.4869  151.0774 H   0  0  0  0  0  0  0  0  0  0  0  0
  146.1136  139.1329  152.6621 H   0  0  0  0  0  0  0  0  0  0  0  0
  148.1143  137.6109  152.0536 H   0  0  0  0  0  0  0  0  0  0  0  0
  147.0905  135.9712  151.3507 H   0  0  0  0  0  0  0  0  0  0  0  0
  144.8542  136.6629  150.2054 H   0  0  0  0  0  0  0  0  0  0  0  0
  145.8343  135.3145  149.6628 H   0  0  0  0  0  0  0  0  0  0  0  0
  143.8783  134.7386  151.8621 H   0  0  0  0  0  0  0  0  0  0  0  0
  143.2042  135.0313  150.2750 H   0  0  0  0  0  0  0  0  0  0  0  0
  142.5670  132.4165  150.0528 H   0  0  0  0  0  0  0  0  0  0  0  0
  146.4372  131.0100  149.8722 H   0  0  0  0  0  0  0  0  0  0  0  0
  143.8126  137.0453  151.9651 H   0  0  0  0  0  0  0  0  0  0  0  0
  144.0755  137.8592  153.4799 H   0  0  0  0  0  0  0  0  0  0  0  0
  146.1134  134.9815  152.2051 H   0  0  0  0  0  0  0  0  0  0  0  0
  1  2  1  0  0  0  0
  1 20  1  0  0  0  0
  1 21  1  0  0  0  0
  1 22  1  0  0  0  0
  2 19  1  0  0  0  0
  2  3  1  0  0  0  0
  2 23  1  0  0  0  0
  3  4  1  0  0  0  0
  3 24  1  0  0  0  0
  3 25  1  0  0  0  0
  4  5  1  0  0  0  0
  4  6  1  0  0  0  0
  4  7  1  0  0  0  0
  5 26  1  0  0  0  0
  5 27  1  0  0  0  0
  5 28  1  0  0  0  0
  6 29  1  0  0  0  0
  6 30  1  0  0  0  0
  6 31  1  0  0  0  0
  7  8  1  0  0  0  0
  7 32  1  0  0  0  0
  7 33  1  0  0  0  0
  8  9  1  0  0  0  0
  8 11  1  0  0  0  0
  8 19  1  0  0  0  0
  9 10  1  0  0  0  0
  9 34  1  0  0  0  0
  9 35  1  0  0  0  0
 10 36  1  0  0  0  0
 11 12  1  0  0  0  0
 11 37  1  0  0  0  0
 11 46  1  0  0  0  0
 12 13  1  0  0  0  0
 12 38  1  0  0  0  0
 12 39  1  0  0  0  0
 13 14  1  0  0  0  0
 13 40  1  0  0  0  0
 13 41  1  0  0  0  0
 14 18  1  0  0  0  0
 14 15  1  0  0  0  0
 15 16  2  0  0  0  0
 15 42  1  0  0  0  0
 16 17  1  0  0  0  0
 17 18  2  0  0  0  0
 17 43  1  0  0  0  0
 19 44  1  0  0  0  0
 19 45  1  0  0  0  0
M  CHG  1  11   1
M  END
> <s_m_source_file>
AV-unprocessed.smi

> <i_m_source_file_index>
648

> <i_lp_mmshare_version>
43012

> <i_f3d_flags>
0

> <s_epik_input>
W0NIM11DMShbQ0gzXSlbQ0gyXVtDQEBIXShbQ0gzXSlbQ0gyXVtDQF0oW0NIMl0xKShbQ0gyXVtPSF0pW05IXVtDSDJdW0NIMl1uMltjSF1uW2NIXW4y

> <s_epik_cmdline>
J2VwaWtfcHl0aG9uJywgJy1waCcsICc3LjAnLCAnLXRuJywgJzgnLCAnLW1hJywgJzIwMCcsICctbWV0YWxfYmluZGluZycsICctaW1hZScsICc8aW5maWxlLm1hZT4nLCAnLW9tYWUnLCAnPG91dGZpbGUubWFlPic=

> <r_lp_tautomer_probability>
1

> <r_epik_Ionization_Penalty>
0.00942316

> <r_epik_Ionization_Penalty_Charging>
0.00942185

> <r_epik_Ionization_Penalty_Neutral>
1.31257e-06

> <r_epik_State_Penalty>
0.00715409

> <r_epik_Charging_Adjusted_Penalty>
0.0165759

> <i_epik_Tot_Q>
1

> <i_epik_Tot_abs_Q>
1

> <r_epik_Metal_State_Penalty>
0.00715563

> <b_epik_Metal_Only>
0

> <s_lp_Force_Field>
OPLS_2005

> <r_lp_Energy>
29.4172

> <b_lp_Chiralities_Consistent>
1

> <s_lp_Variant>
AV-unprocessed.smi:648-1

> <Gold.Version>
5.8.1

> <Gold.Id.Protein>
6NUR|6NUR_protein|mol2

> <Gold.PLP.Fitness>
45.8131

> <Gold.PLP.PLP>
-28.3844

> <Gold.PLP.part.hbond>
-4.8202

> <Gold.PLP.part.metal>
0.0000

> <Gold.PLP.part.buried>
-2.5473

> <Gold.PLP.part.nonpolar>
-22.4100

> <Gold.PLP.part.repulsive>
0.3208

> <Gold.PLP.ligand.clash>
0.0000

> <Gold.PLP.ligand.torsion>
0.9392

> <Gold.PLP.Chemscore.Hbond>
4.2320

> <Gold.PLP.Chemscore.CHOScore>
2.1826

> <Gold.PLP.Chemscore.Metal>
0.0000

> <Gold.Chemscore.Hbonds>
donor molecule, donor type, donor heavy atom, donor atom, acceptor molecule, acceptor atom, score
      L1  H    10    36       P1  7948  0.90
      L1  H    11    37       P1  7948  1.89
      P1  H  7954  7966       L1    10  0.80
      P1  H 10785 10796       L1    16  0.46
      L1  C    15    42       P1 10186  0.87
      L1  C    15    42       P1 10952  0.44
      L1  C    17    43       P1 10747  0.93

> <Gold.PLP.Chemscore.Internal.Correction>
0.0634

> <Gold.Rescore>
     Score         DG    S(hbond)    S(metal)    S(lipo)     H(rot)  DE(clash)    DE(int)     intcor
      9.65     -10.68       2.58        0.00      40.22       3.17       0.13       0.90       ----

> <Gold.Chemscore.Fitness>
9.6501

> <Gold.Chemscore.DG>
-10.6806

> <Gold.Chemscore.ZeroCoef>
-5.4800

> <Gold.Chemscore.Hbond>
2.5816

> <Gold.Chemscore.Metal>
0.0000

> <Gold.Chemscore.Lipo>
40.2233

> <Gold.Chemscore.Internal_Hbond>
0.0000

> <Gold.Chemscore.DEClash>
0.1283

> <Gold.Chemscore.DEInternal>
0.9023

> <Gold.Chemscore.Rot>
3.1750

> <Gold.Chemscore.Internal.Correction>
   9.000000E+99

> <Gold.Chemscore.Hbonds>
donor molecule, donor type, donor heavy atom, donor atom, acceptor molecule, acceptor atom, score
      L1  H    10    36       P1  7948  0.87
      L1  H    11    37       P1  7948  0.91
      P1  H  7954  7966       L1    10  0.11
      P1  H 10785 10796       L1    16  0.34

> <Gold.Chemscore.Hbond.Weighted>
-8.6224

> <Gold.Chemscore.Metal.Weighted>
-0.0000

> <Gold.Chemscore.Lipo.Weighted>
-4.7061

> <Gold.Chemscore.Internal_Hbond.Weighted>
0.0000

> <Gold.Chemscore.DEClash.Weighted>
0.1283

> <Gold.Chemscore.DEInternal.Weighted>
0.9023

> <Gold.Chemscore.Rot.Weighted>
8.1279

> <Gold.Chemscore.Internal.Correction.Weighted>
   9.000000E+99

> <Gold.Protein.RotatedTorsions>
[ 6907 6896 6895 6894 ] final  -98.72 input  -60.11 | X-H torsion
[ 7974 7965 7964 7962 ] final  -53.56 input  175.53 | X-H torsion
[ 8008 7997 7996 7995 ] final  114.73 input   59.86 | X-H torsion
[ 10167 10162 10161 10158 ] final -131.93 input  -65.29 | X-H torsion
[ 10718 10713 10712 10709 ] final  -19.70 input   66.30 | X-H torsion
[ 10763 10752 10751 10750 ] final  -56.10 input  -60.55 | X-H torsion
[ 11005 11000 10999 10996 ] final  -24.36 input  -57.11 | X-H torsion

> <Gold.Protein.ActiveResidues>
 VAL166  LYS551  ARG553  GLY616  TRP617  ASP618  TYR619  PRO620  LYS621  CYS622 
 ASP623  PHE694  ASN695  SER759  ASP760  ASP761  ALA762  ILE779  LEU786  VAL792 
 PHE793  MET794  SER795  GLU796  ALA797  LYS798  CYS799  TRP800  GLU811  SER814 

> <Gold.Protein.RotatedAtoms>
  150.7056  134.1151  159.4014 H   0  0  0  0  0  0  0  0  0  0  0  0  # atno 6907 bound_to 6896
  151.9138  135.0325  160.0526 H   0  0  0  0  0  0  0  0  0  0  0  0  # atno 6908 bound_to 6896
  152.2314  133.5025  159.5254 H   0  0  0  0  0  0  0  0  0  0  0  0  # atno 6909 bound_to 6896
  145.8955  140.8037  142.9770 H   0  0  0  0  0  0  0  0  0  0  0  0  # atno 7974 bound_to 7965
  156.2339  140.2953  156.0260 H   0  0  0  0  0  0  0  0  0  0  0  0  # atno 8008 bound_to 7997
  155.2147  140.0413  157.2956 H   0  0  0  0  0  0  0  0  0  0  0  0  # atno 8009 bound_to 7997
  154.6044  140.2435  155.7758 H   0  0  0  0  0  0  0  0  0  0  0  0  # atno 8010 bound_to 7997
  139.9139  143.6462  152.2569 H   0  0  0  0  0  0  0  0  0  0  0  0  # atno 10167 bound_to 10162
  156.5421  130.4681  149.6493 H   0  0  0  0  0  0  0  0  0  0  0  0  # atno 10718 bound_to 10713
  154.2013  135.6410  153.5088 H   0  0  0  0  0  0  0  0  0  0  0  0  # atno 10763 bound_to 10752
  153.0011  135.5452  154.6313 H   0  0  0  0  0  0  0  0  0  0  0  0  # atno 10764 bound_to 10752
  154.5726  135.2918  155.0785 H   0  0  0  0  0  0  0  0  0  0  0  0  # atno 10765 bound_to 10752
  140.8837  133.7636  156.0334 H   0  0  0  0  0  0  0  0  0  0  0  0  # atno 11005 bound_to 11000
  144.6732  140.1595  143.7423 LP  0  0  0  0  0  0  0  0  0  0  0  0  # atno 17320 bound_to 7965
  145.8856  139.2347  143.1579 LP  0  0  0  0  0  0  0  0  0  0  0  0  # atno 17321 bound_to 7965
  139.6919  144.7646  151.1423 LP  0  0  0  0  0  0  0  0  0  0  0  0  # atno 17342 bound_to 10162
  140.7679  143.5577  150.9134 LP  0  0  0  0  0  0  0  0  0  0  0  0  # atno 17343 bound_to 10162
  156.2962  130.7151  151.2012 LP  0  0  0  0  0  0  0  0  0  0  0  0  # atno 17370 bound_to 10713
  157.7403  131.0518  150.5173 LP  0  0  0  0  0  0  0  0  0  0  0  0  # atno 17371 bound_to 10713
  140.8430  134.3044  157.5306 LP  0  0  0  0  0  0  0  0  0  0  0  0  # atno 17394 bound_to 11000
  139.8722  134.9426  156.3830 LP  0  0  0  0  0  0  0  0  0  0  0  0  # atno 17395 bound_to 11000

$$$$
