AV-unprocessed.smi:1535|AV-procd|sdf|6171|dock7
  -GOLD-   22720 6323D 1   1.00000     0.00000
 Structure written by MMmdl.
 46 47  0  0  0  0  0  0  0  0  1 V2000
  152.8479  143.1352  161.5632 C   0  0  0  0  0  0  0  0  0  0  0  0
  152.3232  142.7225  160.1992 C   0  0  0  0  0  0  0  0  0  0  0  0
  152.8329  141.5523  159.5927 C   0  0  0  0  0  0  0  0  0  0  0  0
  152.3724  141.1341  158.3250 C   0  0  0  0  0  0  0  0  0  0  0  0
  152.7265  140.0383  157.5568 N   0  0  0  0  0  0  0  0  0  0  0  0
  151.9511  140.1986  156.4883 C   0  0  0  0  0  0  0  0  0  0  0  0
  151.1358  141.2709  156.4728 N   0  0  0  0  0  0  0  0  0  0  0  0
  150.2030  141.6498  155.4260 C   0  0  0  0  0  0  0  0  0  0  0  0
  149.3637  140.4606  154.9207 C   0  0  1  0  0  0  0  0  0  0  0  0
  150.0971  139.7609  153.9334 O   0  0  0  0  0  0  0  0  0  0  0  0
  149.0239  139.4838  156.0658 C   0  0  0  0  0  0  0  0  0  0  0  0
  148.2578  138.2927  155.6801 N   0  0  0  0  0  0  0  0  0  0  0  0
  147.0939  138.6476  154.8723 C   0  0  0  0  0  0  0  0  0  0  0  0
  147.8274  137.5180  156.8465 C   0  0  0  0  0  0  0  0  0  0  0  0
  148.9566  136.9876  157.7529 C   0  0  2  0  0  0  0  0  0  0  0  0
  149.4179  135.5813  157.3439 C   0  0  0  0  0  0  0  0  0  0  0  0
  148.5282  136.9965  159.1606 C   0  0  0  0  0  0  0  0  0  0  0  0
  148.1917  137.0033  160.2675 N   0  0  0  0  0  0  0  0  0  0  0  0
  151.3787  141.9241  157.6761 C   0  0  0  0  0  0  0  0  0  0  0  0
  150.8632  143.0898  158.2697 C   0  0  0  0  0  0  0  0  0  0  0  0
  151.3366  143.4951  159.5352 C   0  0  0  0  0  0  0  0  0  0  0  0
  150.7769  144.7580  160.1657 C   0  0  0  0  0  0  0  0  0  0  0  0
  153.5616  142.4083  161.9521 H   0  0  0  0  0  0  0  0  0  0  0  0
  152.0307  143.2162  162.2800 H   0  0  0  0  0  0  0  0  0  0  0  0
  153.3521  144.0999  161.5014 H   0  0  0  0  0  0  0  0  0  0  0  0
  153.5850  140.9640  160.0971 H   0  0  0  0  0  0  0  0  0  0  0  0
  151.9781  139.4964  155.6678 H   0  0  0  0  0  0  0  0  0  0  0  0
  149.5556  142.4429  155.8037 H   0  0  0  0  0  0  0  0  0  0  0  0
  150.7765  142.0805  154.6041 H   0  0  0  0  0  0  0  0  0  0  0  0
  148.4592  140.8534  154.4596 H   0  0  0  0  0  0  0  0  0  0  0  0
  149.6070  139.7780  153.1259 H   0  0  0  0  0  0  0  0  0  0  0  0
  149.9648  139.1937  156.5302 H   0  0  0  0  0  0  0  0  0  0  0  0
  148.4724  140.0193  156.8401 H   0  0  0  0  0  0  0  0  0  0  0  0
  146.5222  137.7578  154.6058 H   0  0  0  0  0  0  0  0  0  0  0  0
  147.3819  139.1243  153.9368 H   0  0  0  0  0  0  0  0  0  0  0  0
  146.4301  139.3246  155.4117 H   0  0  0  0  0  0  0  0  0  0  0  0
  147.1389  138.1183  157.4433 H   0  0  0  0  0  0  0  0  0  0  0  0
  147.2500  136.6550  156.5112 H   0  0  0  0  0  0  0  0  0  0  0  0
  149.8136  137.6581  157.7204 H   0  0  0  0  0  0  0  0  0  0  0  0
  150.2088  135.2238  158.0037 H   0  0  0  0  0  0  0  0  0  0  0  0
  149.8100  135.5720  156.3267 H   0  0  0  0  0  0  0  0  0  0  0  0
  148.5958  134.8666  157.3926 H   0  0  0  0  0  0  0  0  0  0  0  0
  150.1114  143.6681  157.7535 H   0  0  0  0  0  0  0  0  0  0  0  0
  150.0793  145.2614  159.4958 H   0  0  0  0  0  0  0  0  0  0  0  0
  151.5793  145.4582  160.3988 H   0  0  0  0  0  0  0  0  0  0  0  0
  150.2452  144.5202  161.0871 H   0  0  0  0  0  0  0  0  0  0  0  0
  1  2  1  0  0  0  0
  1 23  1  0  0  0  0
  1 24  1  0  0  0  0
  1 25  1  0  0  0  0
  2 21  1  0  0  0  0
  2  3  2  0  0  0  0
  3  4  1  0  0  0  0
  3 26  1  0  0  0  0
  4 19  2  0  0  0  0
  4  5  1  0  0  0  0
  5  6  2  0  0  0  0
  6  7  1  0  0  0  0
  6 27  1  0  0  0  0
  7  8  1  0  0  0  0
  7 19  1  0  0  0  0
  8  9  1  0  0  0  0
  8 28  1  0  0  0  0
  8 29  1  0  0  0  0
  9 10  1  0  0  0  0
  9 11  1  0  0  0  0
  9 30  1  0  0  0  0
 10 31  1  0  0  0  0
 11 12  1  0  0  0  0
 11 32  1  0  0  0  0
 11 33  1  0  0  0  0
 12 13  1  0  0  0  0
 12 14  1  0  0  0  0
 13 34  1  0  0  0  0
 13 35  1  0  0  0  0
 13 36  1  0  0  0  0
 14 15  1  0  0  0  0
 14 37  1  0  0  0  0
 14 38  1  0  0  0  0
 15 16  1  0  0  0  0
 15 17  1  0  0  0  0
 15 39  1  0  0  0  0
 16 40  1  0  0  0  0
 16 41  1  0  0  0  0
 16 42  1  0  0  0  0
 17 18  3  0  0  0  0
 19 20  1  0  0  0  0
 20 21  2  0  0  0  0
 20 43  1  0  0  0  0
 21 22  1  0  0  0  0
 22 44  1  0  0  0  0
 22 45  1  0  0  0  0
 22 46  1  0  0  0  0
M  END
> <s_m_source_file>
AV-unprocessed.smi

> <i_m_source_file_index>
1535

> <i_lp_mmshare_version>
43012

> <i_f3d_flags>
0

> <s_epik_input>
W0NIM11jKFtjSF0xKWMoW0NIM10pW2NIXWMoYzEyKW4oW2NIXW4yKVtDSDJdW0NASF0oW09IXSlbQ0gyXU4oW0NIM10pW0NIMl1bQ0BIXShbQ0gzXSlDI04=

> <s_epik_cmdline>
J2VwaWtfcHl0aG9uJywgJy1waCcsICc3LjAnLCAnLXRuJywgJzgnLCAnLW1hJywgJzIwMCcsICctbWV0YWxfYmluZGluZycsICctaW1hZScsICc8aW5maWxlLm1hZT4nLCAnLW9tYWUnLCAnPG91dGZpbGUubWFlPic=

> <r_epik_Ionization_Penalty>
0.098511

> <r_epik_Ionization_Penalty_Charging>
0

> <r_epik_Ionization_Penalty_Neutral>
0.098511

> <r_epik_State_Penalty>
0.0881608

> <r_epik_Charging_Adjusted_Penalty>
0.0881608

> <i_epik_Tot_Q>
0

> <i_epik_Tot_abs_Q>
0

> <r_epik_Metal_State_Penalty>
0.0128087

> <b_epik_Metal_Only>
0

> <s_lp_Force_Field>
OPLS_2005

> <r_lp_Energy>
24.761

> <b_lp_Chiralities_Consistent>
1

> <s_lp_Variant>
AV-unprocessed.smi:1535-2

> <Gold.Version>
5.8.1

> <Gold.Id.Protein>
6NUR|6NUR_protein|mol2

> <Gold.PLP.Fitness>
50.2538

> <Gold.PLP.PLP>
-39.1392

> <Gold.PLP.part.hbond>
-5.0000

> <Gold.PLP.part.metal>
0.0000

> <Gold.PLP.part.buried>
-5.5050

> <Gold.PLP.part.nonpolar>
-28.0196

> <Gold.PLP.part.repulsive>
0.0240

> <Gold.PLP.ligand.clash>
0.0000

> <Gold.PLP.ligand.torsion>
0.9198

> <Gold.PLP.Chemscore.Hbond>
4.3019

> <Gold.PLP.Chemscore.CHOScore>
0.0000

> <Gold.PLP.Chemscore.Metal>
0.0000

> <Gold.Chemscore.Hbonds>
donor molecule, donor type, donor heavy atom, donor atom, acceptor molecule, acceptor atom, score
      L1  H    10    31       P1  7957  0.96
      P1  H  6931  6943       L1    18  0.40
      P1  H  6934  6947       L1    18  0.15
      P1  H  7989  7998       L1    10  0.96
      P1  H  7997  8010       L1     5  1.00

> <Gold.PLP.Chemscore.Internal.Correction>
0.0484

> <Gold.Rescore>
     Score         DG    S(hbond)    S(metal)    S(lipo)     H(rot)  DE(clash)    DE(int)     intcor
     19.60     -20.68       3.06        0.00      97.50       2.51       0.22       0.86       ----

> <Gold.Chemscore.Fitness>
19.6016

> <Gold.Chemscore.DG>
-20.6766

> <Gold.Chemscore.ZeroCoef>
-5.4800

> <Gold.Chemscore.Hbond>
3.0592

> <Gold.Chemscore.Metal>
0.0000

> <Gold.Chemscore.Lipo>
97.5028

> <Gold.Chemscore.Internal_Hbond>
0.0000

> <Gold.Chemscore.DEClash>
0.2190

> <Gold.Chemscore.DEInternal>
0.8561

> <Gold.Chemscore.Rot>
2.5113

> <Gold.Chemscore.Internal.Correction>
   9.000000E+99

> <Gold.Chemscore.Hbonds>
donor molecule, donor type, donor heavy atom, donor atom, acceptor molecule, acceptor atom, score
      L1  H    10    31       P1  7957  0.90
      P1  H  6931  6943       L1    18  0.41
      P1  H  6934  6947       L1    18  0.14
      P1  H  7989  7998       L1    10  0.17
      P1  H  7997  8010       L1     5  0.48

> <Gold.Chemscore.Hbond.Weighted>
-10.2177

> <Gold.Chemscore.Metal.Weighted>
-0.0000

> <Gold.Chemscore.Lipo.Weighted>
-11.4078

> <Gold.Chemscore.Internal_Hbond.Weighted>
0.0000

> <Gold.Chemscore.DEClash.Weighted>
0.2190

> <Gold.Chemscore.DEInternal.Weighted>
0.8561

> <Gold.Chemscore.Rot.Weighted>
6.4289

> <Gold.Chemscore.Internal.Correction.Weighted>
   9.000000E+99

> <Gold.Protein.RotatedTorsions>
[ 6907 6896 6895 6894 ] final  178.00 input  -60.11 | X-H torsion
[ 7974 7965 7964 7962 ] final  169.73 input  175.53 | X-H torsion
[ 8008 7997 7996 7995 ] final   42.33 input   59.86 | X-H torsion
[ 10167 10162 10161 10158 ] final  111.98 input  -65.29 | X-H torsion
[ 10718 10713 10712 10709 ] final -161.20 input   66.30 | X-H torsion
[ 10763 10752 10751 10750 ] final  105.78 input  -60.55 | X-H torsion
[ 11005 11000 10999 10996 ] final  -65.52 input  -57.11 | X-H torsion

> <Gold.Protein.ActiveResidues>
 VAL166  LYS551  ARG553  GLY616  TRP617  ASP618  TYR619  PRO620  LYS621  CYS622 
 ASP623  PHE694  ASN695  SER759  ASP760  ASP761  ALA762  ILE779  LEU786  VAL792 
 PHE793  MET794  SER795  GLU796  ALA797  LYS798  CYS799  TRP800  GLU811  SER814 

> <Gold.Protein.RotatedAtoms>
  151.6949  133.3311  159.3251 H   0  0  0  0  0  0  0  0  0  0  0  0  # atno 6907 bound_to 6896
  150.7762  134.6666  159.6378 H   0  0  0  0  0  0  0  0  0  0  0  0  # atno 6908 bound_to 6896
  152.3805  134.6601  160.0196 H   0  0  0  0  0  0  0  0  0  0  0  0  # atno 6909 bound_to 6896
  144.7346  139.9098  143.6414 H   0  0  0  0  0  0  0  0  0  0  0  0  # atno 7974 bound_to 7965
  155.2845  140.3374  155.4256 H   0  0  0  0  0  0  0  0  0  0  0  0  # atno 8008 bound_to 7997
  156.2075  140.1756  156.7809 H   0  0  0  0  0  0  0  0  0  0  0  0  # atno 8009 bound_to 7997
  154.5640  140.0682  156.8847 H   0  0  0  0  0  0  0  0  0  0  0  0  # atno 8010 bound_to 7997
  139.6570  144.7129  151.1937 H   0  0  0  0  0  0  0  0  0  0  0  0  # atno 10167 bound_to 10162
  156.5928  130.8777  151.2894 H   0  0  0  0  0  0  0  0  0  0  0  0  # atno 10718 bound_to 10713
  153.3840  135.3899  155.1876 H   0  0  0  0  0  0  0  0  0  0  0  0  # atno 10763 bound_to 10752
  154.8711  135.3732  154.4822 H   0  0  0  0  0  0  0  0  0  0  0  0  # atno 10764 bound_to 10752
  153.5301  135.7086  153.5748 H   0  0  0  0  0  0  0  0  0  0  0  0  # atno 10765 bound_to 10752
  141.1457  133.6683  156.5999 H   0  0  0  0  0  0  0  0  0  0  0  0  # atno 11005 bound_to 11000
  146.1010  139.4005  143.0347 LP  0  0  0  0  0  0  0  0  0  0  0  0  # atno 17320 bound_to 7965
  145.7579  140.9947  143.1216 LP  0  0  0  0  0  0  0  0  0  0  0  0  # atno 17321 bound_to 7965
  140.7563  143.6056  150.8656 LP  0  0  0  0  0  0  0  0  0  0  0  0  # atno 17342 bound_to 10162
  139.9709  143.6057  152.2973 LP  0  0  0  0  0  0  0  0  0  0  0  0  # atno 17343 bound_to 10162
  157.7299  130.9678  150.1809 LP  0  0  0  0  0  0  0  0  0  0  0  0  # atno 17370 bound_to 10713
  156.2535  130.3703  149.8207 LP  0  0  0  0  0  0  0  0  0  0  0  0  # atno 17371 bound_to 10713
  140.3697  134.7617  157.4590 LP  0  0  0  0  0  0  0  0  0  0  0  0  # atno 17394 bound_to 11000
  140.0721  134.5849  155.8631 LP  0  0  0  0  0  0  0  0  0  0  0  0  # atno 17395 bound_to 11000

$$$$
