AV-unprocessed.smi:528|AV-procd|sdf|2833|dock10
  -GOLD-   2262023323D 1   1.00000     0.00000
 Structure written by MMmdl.
 45 47  0  0  0  0  0  0  0  0  1 V2000
  149.7796  138.2619  154.3419 C   0  0  0  0  0  0  0  0  0  0  0  0
  150.2438  139.6414  154.8414 C   0  0  2  0  0  0  0  0  0  0  0  0
  150.5460  139.5402  156.2686 N   0  0  0  0  0  0  0  0  0  0  0  0
  151.7492  139.2718  156.7983 C   0  0  0  0  0  0  0  0  0  0  0  0
  152.7631  139.0978  156.1206 O   0  0  0  0  0  0  0  0  0  0  0  0
  151.8001  139.2012  158.3317 C   0  0  0  0  0  0  0  0  0  0  0  0
  152.5168  140.3285  158.9526 N   0  0  0  0  0  0  0  0  0  0  0  0
  152.0501  141.6248  158.6585 C   0  0  0  0  0  0  0  0  0  0  0  0
  152.6065  142.7388  159.1722 C   0  0  0  0  0  0  0  0  0  0  0  0
  152.1152  144.1272  158.7927 C   0  0  0  0  0  0  0  0  0  0  0  0
  150.8717  144.0823  158.3141 F   0  0  0  0  0  0  0  0  0  0  0  0
  152.1306  144.9486  159.8432 F   0  0  0  0  0  0  0  0  0  0  0  0
  152.9035  144.6442  157.8512 F   0  0  0  0  0  0  0  0  0  0  0  0
  153.7561  142.5468  160.0343 C   0  0  0  0  0  0  0  0  0  0  0  0
  154.2230  141.3146  160.3159 C   0  0  0  0  0  0  0  0  0  0  0  0
  153.5930  140.1117  159.7669 C   0  0  0  0  0  0  0  0  0  0  0  0
  154.0073  138.9804  160.0215 O   0  0  0  0  0  0  0  0  0  0  0  0
  149.1913  140.7547  154.6131 C   0  0  1  0  0  0  0  0  0  0  0  0
  148.6068  140.7677  153.1776 C   0  0  0  0  0  0  0  0  0  0  0  0
  147.0867  140.7129  153.4109 C   0  0  2  0  0  0  0  0  0  0  0  0
  146.6105  142.0442  154.0196 C   0  0  0  0  0  0  0  0  0  0  0  0
  147.1564  141.9714  155.4576 C   0  0  0  0  0  0  0  0  0  0  0  0
  147.9057  140.6249  155.4698 C   0  0  1  0  0  0  0  0  0  0  0  0
  146.9938  139.7662  154.5992 C   0  0  0  0  0  0  0  0  0  0  0  0
  149.6291  138.2493  153.2635 H   0  0  0  0  0  0  0  0  0  0  0  0
  148.8430  137.9635  154.8140 H   0  0  0  0  0  0  0  0  0  0  0  0
  150.5218  137.4949  154.5663 H   0  0  0  0  0  0  0  0  0  0  0  0
  151.1504  139.9116  154.2975 H   0  0  0  0  0  0  0  0  0  0  0  0
  149.7723  139.6751  156.9033 H   0  0  0  0  0  0  0  0  0  0  0  0
  150.7759  139.1476  158.7032 H   0  0  0  0  0  0  0  0  0  0  0  0
  152.2601  138.2570  158.6301 H   0  0  0  0  0  0  0  0  0  0  0  0
  151.2107  141.6569  157.9790 H   0  0  0  0  0  0  0  0  0  0  0  0
  154.2503  143.4057  160.4640 H   0  0  0  0  0  0  0  0  0  0  0  0
  155.0815  141.2095  160.9628 H   0  0  0  0  0  0  0  0  0  0  0  0
  149.6687  141.7144  154.8192 H   0  0  0  0  0  0  0  0  0  0  0  0
  148.9087  141.6520  152.6156 H   0  0  0  0  0  0  0  0  0  0  0  0
  148.9220  139.8926  152.6073 H   0  0  0  0  0  0  0  0  0  0  0  0
  146.5201  140.4054  152.5315 H   0  0  0  0  0  0  0  0  0  0  0  0
  146.9915  142.9071  153.4723 H   0  0  0  0  0  0  0  0  0  0  0  0
  145.5215  142.1038  154.0254 H   0  0  0  0  0  0  0  0  0  0  0  0
  147.8037  142.8140  155.7027 H   0  0  0  0  0  0  0  0  0  0  0  0
  146.3362  141.9628  156.1767 H   0  0  0  0  0  0  0  0  0  0  0  0
  148.0626  140.2427  156.4775 H   0  0  0  0  0  0  0  0  0  0  0  0
  145.9815  139.6701  154.9966 H   0  0  0  0  0  0  0  0  0  0  0  0
  147.3921  138.7711  154.3949 H   0  0  0  0  0  0  0  0  0  0  0  0
  1  2  1  0  0  0  0
  1 25  1  0  0  0  0
  1 26  1  0  0  0  0
  1 27  1  0  0  0  0
  2  3  1  0  0  0  0
  2 18  1  0  0  0  0
  2 28  1  0  0  0  0
  3  4  1  0  0  0  0
  3 29  1  0  0  0  0
  4  5  2  0  0  0  0
  4  6  1  0  0  0  0
  6  7  1  0  0  0  0
  6 30  1  0  0  0  0
  6 31  1  0  0  0  0
  7 16  1  0  0  0  0
  7  8  1  0  0  0  0
  8  9  2  0  0  0  0
  8 32  1  0  0  0  0
  9 10  1  0  0  0  0
  9 14  1  0  0  0  0
 10 11  1  0  0  0  0
 10 12  1  0  0  0  0
 10 13  1  0  0  0  0
 14 15  2  0  0  0  0
 14 33  1  0  0  0  0
 15 16  1  0  0  0  0
 15 34  1  0  0  0  0
 16 17  2  0  0  0  0
 18 23  1  0  0  0  0
 18 19  1  0  0  0  0
 18 35  1  0  0  0  0
 19 20  1  0  0  0  0
 19 36  1  0  0  0  0
 19 37  1  0  0  0  0
 20 24  1  0  0  0  0
 20 21  1  0  0  0  0
 20 38  1  0  0  0  0
 21 22  1  0  0  0  0
 21 39  1  0  0  0  0
 21 40  1  0  0  0  0
 22 23  1  0  0  0  0
 22 41  1  0  0  0  0
 22 42  1  0  0  0  0
 23 24  1  0  0  0  0
 23 43  1  0  0  0  0
 24 44  1  0  0  0  0
 24 45  1  0  0  0  0
M  END
> <s_m_source_file>
AV-unprocessed.smi

> <i_m_source_file_index>
528

> <i_lp_mmshare_version>
43012

> <i_f3d_flags>
0

> <s_epik_input>
W0NIMl0xW0NIMl1bQ0BASF0oW0NIMl0yKVtDQEBIXShbQ0gyXVtDQEhdMTIpW0NASF0oW0NIM10pW05IXUMoPU8pW0NIMl1uM1tjSF1jKEMoRikoRilGKVtjSF1bY0hdYzM9Tw==

> <s_epik_cmdline>
J2VwaWtfcHl0aG9uJywgJy1waCcsICc3LjAnLCAnLXRuJywgJzgnLCAnLW1hJywgJzIwMCcsICctbWV0YWxfYmluZGluZycsICctaW1hZScsICc8aW5maWxlLm1hZT4nLCAnLW9tYWUnLCAnPG91dGZpbGUubWFlPic=

> <r_lp_tautomer_probability>
1

> <r_epik_Ionization_Penalty>
4.09479e-08

> <r_epik_Ionization_Penalty_Charging>
1.9321e-08

> <r_epik_Ionization_Penalty_Neutral>
2.16269e-08

> <r_epik_State_Penalty>
-0

> <r_epik_Charging_Adjusted_Penalty>
1.9321e-08

> <i_epik_Tot_Q>
0

> <i_epik_Tot_abs_Q>
0

> <r_epik_Metal_State_Penalty>
-0

> <b_epik_Metal_Only>
0

> <s_lp_Force_Field>
OPLS_2005

> <r_lp_Energy>
62.8308

> <b_lp_Chiralities_Consistent>
1

> <s_lp_Variant>
AV-unprocessed.smi:528-3

> <Gold.Version>
5.8.1

> <Gold.Id.Protein>
6NUR|6NUR_protein|mol2

> <Gold.PLP.Fitness>
52.2967

> <Gold.PLP.PLP>
-52.0296

> <Gold.PLP.part.hbond>
-1.0000

> <Gold.PLP.part.metal>
0.0000

> <Gold.PLP.part.buried>
-0.7797

> <Gold.PLP.part.nonpolar>
-50.3468

> <Gold.PLP.part.repulsive>
0.0428

> <Gold.PLP.ligand.clash>
0.1073

> <Gold.PLP.ligand.torsion>
1.3542

> <Gold.PLP.Chemscore.Hbond>
1.0000

> <Gold.PLP.Chemscore.CHOScore>
0.0000

> <Gold.PLP.Chemscore.Metal>
0.0000

> <Gold.Chemscore.Hbonds>
donor molecule, donor type, donor heavy atom, donor atom, acceptor molecule, acceptor atom, score
      P1  H  7997  8008       L1     5  1.00

> <Gold.PLP.Chemscore.Internal.Correction>
0.0828

> <Gold.Rescore>
     Score         DG    S(hbond)    S(metal)    S(lipo)     H(rot)  DE(clash)    DE(int)     intcor
     14.29     -16.61       1.00        0.00     104.03       1.71       1.29       1.03       ----

> <Gold.Chemscore.Fitness>
14.2906

> <Gold.Chemscore.DG>
-16.6069

> <Gold.Chemscore.ZeroCoef>
-5.4800

> <Gold.Chemscore.Hbond>
0.9998

> <Gold.Chemscore.Metal>
0.0000

> <Gold.Chemscore.Lipo>
104.0292

> <Gold.Chemscore.Internal_Hbond>
0.0000

> <Gold.Chemscore.DEClash>
1.2899

> <Gold.Chemscore.DEInternal>
1.0264

> <Gold.Chemscore.Rot>
1.7125

> <Gold.Chemscore.Internal.Correction>
   9.000000E+99

> <Gold.Chemscore.Hbonds>
donor molecule, donor type, donor heavy atom, donor atom, acceptor molecule, acceptor atom, score
      P1  H  7997  8008       L1     5  0.91

> <Gold.Chemscore.Hbond.Weighted>
-3.3395

> <Gold.Chemscore.Metal.Weighted>
-0.0000

> <Gold.Chemscore.Lipo.Weighted>
-12.1714

> <Gold.Chemscore.Internal_Hbond.Weighted>
0.0000

> <Gold.Chemscore.DEClash.Weighted>
1.2899

> <Gold.Chemscore.DEInternal.Weighted>
1.0264

> <Gold.Chemscore.Rot.Weighted>
4.3840

> <Gold.Chemscore.Internal.Correction.Weighted>
   9.000000E+99

> <Gold.Protein.RotatedTorsions>
[ 6907 6896 6895 6894 ] final -127.30 input  -60.11 | X-H torsion
[ 7974 7965 7964 7962 ] final   73.70 input  175.53 | X-H torsion
[ 8008 7997 7996 7995 ] final  -61.26 input   59.86 | X-H torsion
[ 10167 10162 10161 10158 ] final    2.82 input  -65.29 | X-H torsion
[ 10718 10713 10712 10709 ] final  176.27 input   66.30 | X-H torsion
[ 10763 10752 10751 10750 ] final   28.26 input  -60.55 | X-H torsion
[ 11005 11000 10999 10996 ] final  -12.10 input  -57.11 | X-H torsion

> <Gold.Protein.ActiveResidues>
 VAL166  LYS551  ARG553  GLY616  TRP617  ASP618  TYR619  PRO620  LYS621  CYS622 
 ASP623  PHE694  ASN695  SER759  ASP760  ASP761  ALA762  ILE779  LEU786  VAL792 
 PHE793  MET794  SER795  GLU796  ALA797  LYS798  CYS799  TRP800  GLU811  SER814 

> <Gold.Protein.RotatedAtoms>
  150.9059  133.7059  159.2866 H   0  0  0  0  0  0  0  0  0  0  0  0  # atno 6907 bound_to 6896
  151.4562  135.1033  159.9721 H   0  0  0  0  0  0  0  0  0  0  0  0  # atno 6908 bound_to 6896
  152.4903  133.8433  159.7219 H   0  0  0  0  0  0  0  0  0  0  0  0  # atno 6909 bound_to 6896
  145.7376  139.2708  143.1505 H   0  0  0  0  0  0  0  0  0  0  0  0  # atno 7974 bound_to 7965
  154.4439  140.1021  156.6402 H   0  0  0  0  0  0  0  0  0  0  0  0  # atno 8008 bound_to 7997
  155.5509  140.3485  155.4450 H   0  0  0  0  0  0  0  0  0  0  0  0  # atno 8009 bound_to 7997
  156.0529  140.1308  157.0018 H   0  0  0  0  0  0  0  0  0  0  0  0  # atno 8010 bound_to 7997
  140.6616  143.7288  150.7750 H   0  0  0  0  0  0  0  0  0  0  0  0  # atno 10167 bound_to 10162
  156.9226  130.9945  151.3002 H   0  0  0  0  0  0  0  0  0  0  0  0  # atno 10718 bound_to 10713
  153.0503  135.6517  154.0710 H   0  0  0  0  0  0  0  0  0  0  0  0  # atno 10763 bound_to 10752
  154.0400  135.2904  155.3358 H   0  0  0  0  0  0  0  0  0  0  0  0  # atno 10764 bound_to 10752
  154.6787  135.5328  153.8301 H   0  0  0  0  0  0  0  0  0  0  0  0  # atno 10765 bound_to 10752
  140.7622  133.8506  155.9134 H   0  0  0  0  0  0  0  0  0  0  0  0  # atno 11005 bound_to 11000
  146.0478  140.8100  142.9796 LP  0  0  0  0  0  0  0  0  0  0  0  0  # atno 17320 bound_to 7965
  144.6878  140.3007  143.7263 LP  0  0  0  0  0  0  0  0  0  0  0  0  # atno 17321 bound_to 7965
  140.0957  143.4835  152.2453 LP  0  0  0  0  0  0  0  0  0  0  0  0  # atno 17342 bound_to 10162
  139.5852  144.7528  151.3538 LP  0  0  0  0  0  0  0  0  0  0  0  0  # atno 17343 bound_to 10162
  157.5898  130.8435  149.8642 LP  0  0  0  0  0  0  0  0  0  0  0  0  # atno 17370 bound_to 10713
  156.0484  130.3723  150.1261 LP  0  0  0  0  0  0  0  0  0  0  0  0  # atno 17371 bound_to 10713
  140.9652  134.1603  157.4621 LP  0  0  0  0  0  0  0  0  0  0  0  0  # atno 17394 bound_to 11000
  139.8769  134.9959  156.5768 LP  0  0  0  0  0  0  0  0  0  0  0  0  # atno 17395 bound_to 11000

$$$$
