AV-unprocessed.smi:2198|AV-procd|sdf|8919|dock2
  -GOLD-   2272012133D 1   1.00000     0.00000
 Structure written by MMmdl.
 42 43  0  0  0  0  0  0  0  0  2 V2000
  153.5672  142.7238  162.7884 C   0  0  0  0  0  0  0  0  0  0  0  0
  152.9579  142.7103  161.4029 C   0  0  0  0  0  0  0  0  0  0  0  0
  152.1587  143.6489  161.0643 N   0  0  0  0  0  0  0  0  0  0  0  0
  151.5897  143.6424  159.7796 C   0  0  0  0  0  0  0  0  0  0  0  0
  150.6496  144.7930  159.4648 C   0  0  0  0  0  0  0  0  0  0  0  0
  151.8765  142.6533  158.8855 C   0  0  0  0  0  0  0  0  0  0  0  0
  151.2816  142.6023  157.4785 C   0  0  0  0  0  0  0  0  0  0  0  0
  150.2383  141.5102  157.2315 C   0  0  0  0  0  0  0  0  0  0  0  0
  150.4877  140.3338  157.4956 O   0  0  0  0  0  0  0  0  0  0  0  0
  149.0669  141.9185  156.7206 N   0  0  0  0  0  0  0  0  0  0  0  0
  147.9330  141.0540  156.3991 C   0  0  2  0  0  0  0  0  0  0  0  0
  148.3826  139.9078  155.4727 C   0  0  0  0  0  0  0  0  0  0  0  0
  148.7116  140.4027  154.0536 C   0  0  0  0  0  0  0  0  0  0  0  0
  147.5340  141.1801  153.4452 C   0  0  0  0  0  0  0  0  0  0  0  0
  147.1065  142.3554  154.3449 C   0  0  1  0  0  0  0  0  0  0  0  0
  145.9309  143.1311  153.7342 C   0  0  0  0  0  0  0  0  0  0  0  0
  146.7731  141.8535  155.7654 C   0  0  0  0  0  0  0  0  0  0  0  0
  152.8061  141.5923  159.3132 C   0  0  0  0  0  0  0  0  0  0  0  0
  153.1092  140.6834  158.5410 O   0  0  0  0  0  0  0  0  0  0  0  0
  153.3086  141.6643  160.5790 N   0  5  0  0  0  0  0  0  0  0  0  0
  153.4117  143.6873  163.2756 H   0  0  0  0  0  0  0  0  0  0  0  0
  154.6408  142.5403  162.7353 H   0  0  0  0  0  0  0  0  0  0  0  0
  153.1132  141.9489  163.4062 H   0  0  0  0  0  0  0  0  0  0  0  0
  149.6372  144.4241  159.3000 H   0  0  0  0  0  0  0  0  0  0  0  0
  150.9766  145.3248  158.5713 H   0  0  0  0  0  0  0  0  0  0  0  0
  150.6159  145.5105  160.2855 H   0  0  0  0  0  0  0  0  0  0  0  0
  150.8401  143.5618  157.2078 H   0  0  0  0  0  0  0  0  0  0  0  0
  152.0997  142.4666  156.7705 H   0  0  0  0  0  0  0  0  0  0  0  0
  148.9522  142.9047  156.5377 H   0  0  0  0  0  0  0  0  0  0  0  0
  147.5783  140.6077  157.3300 H   0  0  0  0  0  0  0  0  0  0  0  0
  149.2443  139.3923  155.8987 H   0  0  0  0  0  0  0  0  0  0  0  0
  147.5854  139.1659  155.4123 H   0  0  0  0  0  0  0  0  0  0  0  0
  149.5964  141.0401  154.0793 H   0  0  0  0  0  0  0  0  0  0  0  0
  148.9635  139.5547  153.4163 H   0  0  0  0  0  0  0  0  0  0  0  0
  147.8123  141.5476  152.4570 H   0  0  0  0  0  0  0  0  0  0  0  0
  146.6913  140.5034  153.2961 H   0  0  0  0  0  0  0  0  0  0  0  0
  147.9472  143.0470  154.4175 H   0  0  0  0  0  0  0  0  0  0  0  0
  145.0486  142.4987  153.6307 H   0  0  0  0  0  0  0  0  0  0  0  0
  146.1846  143.5137  152.7451 H   0  0  0  0  0  0  0  0  0  0  0  0
  145.6589  143.9841  154.3564 H   0  0  0  0  0  0  0  0  0  0  0  0
  145.8900  141.2147  155.7213 H   0  0  0  0  0  0  0  0  0  0  0  0
  146.5008  142.6934  156.4059 H   0  0  0  0  0  0  0  0  0  0  0  0
  1  2  1  0  0  0  0
  1 21  1  0  0  0  0
  1 22  1  0  0  0  0
  1 23  1  0  0  0  0
  2 20  1  0  0  0  0
  2  3  2  0  0  0  0
  3  4  1  0  0  0  0
  4  5  1  0  0  0  0
  4  6  2  0  0  0  0
  5 24  1  0  0  0  0
  5 25  1  0  0  0  0
  5 26  1  0  0  0  0
  6  7  1  0  0  0  0
  6 18  1  0  0  0  0
  7  8  1  0  0  0  0
  7 27  1  0  0  0  0
  7 28  1  0  0  0  0
  8  9  2  0  0  0  0
  8 10  1  0  0  0  0
 10 11  1  0  0  0  0
 10 29  1  0  0  0  0
 11 17  1  0  0  0  0
 11 12  1  0  0  0  0
 11 30  1  0  0  0  0
 12 13  1  0  0  0  0
 12 31  1  0  0  0  0
 12 32  1  0  0  0  0
 13 14  1  0  0  0  0
 13 33  1  0  0  0  0
 13 34  1  0  0  0  0
 14 15  1  0  0  0  0
 14 35  1  0  0  0  0
 14 36  1  0  0  0  0
 15 16  1  0  0  0  0
 15 17  1  0  0  0  0
 15 37  1  0  0  0  0
 16 38  1  0  0  0  0
 16 39  1  0  0  0  0
 16 40  1  0  0  0  0
 17 41  1  0  0  0  0
 17 42  1  0  0  0  0
 18 19  2  0  0  0  0
 18 20  1  0  0  0  0
M  CHG  1  20  -1
M  END
> <s_m_source_file>
AV-unprocessed.smi

> <i_m_source_file_index>
2198

> <i_lp_mmshare_version>
43012

> <i_f3d_flags>
0

> <s_epik_input>
W0NIM11jMW5jKFtDSDNdKWMoYyg9TylbbkhdMSlbQ0gyXUMoPU8pW05IXVtDQEBIXTJbQ0gyXVtDSDJdW0NIMl1bQ0BASF0oW0NIM10pW0NIMl0y

> <s_epik_cmdline>
J2VwaWtfcHl0aG9uJywgJy1waCcsICc3LjAnLCAnLXRuJywgJzgnLCAnLW1hJywgJzIwMCcsICctbWV0YWxfYmluZGluZycsICctaW1hZScsICc8aW5maWxlLm1hZT4nLCAnLW9tYWUnLCAnPG91dGZpbGUubWFlPic=

> <r_lp_tautomer_probability>
0.839158

> <r_epik_Ionization_Penalty>
6.67193

> <r_epik_Ionization_Penalty_Charging>
7.66837e-08

> <r_epik_Ionization_Penalty_Neutral>
6.67193

> <r_epik_State_Penalty>
4.51643

> <r_epik_Charging_Adjusted_Penalty>
4.51643

> <i_epik_Tot_Q>
-1

> <i_epik_Tot_abs_Q>
1

> <r_epik_Metal_State_Penalty>
0.851582

> <b_epik_Metal_Only>
1

> <s_lp_Force_Field>
OPLS_2005

> <r_lp_Energy>
13.1445

> <b_lp_Chiralities_Consistent>
1

> <s_lp_Variant>
AV-unprocessed.smi:2198-9

> <Gold.Version>
5.8.1

> <Gold.Id.Protein>
6NUR|6NUR_protein|mol2

> <Gold.PLP.Fitness>
44.5481

> <Gold.PLP.PLP>
-40.5323

> <Gold.PLP.part.hbond>
-1.9254

> <Gold.PLP.part.metal>
0.0000

> <Gold.PLP.part.buried>
-4.5244

> <Gold.PLP.part.nonpolar>
-31.8984

> <Gold.PLP.part.repulsive>
0.1003

> <Gold.PLP.ligand.clash>
0.0000

> <Gold.PLP.ligand.torsion>
0.1921

> <Gold.PLP.Chemscore.Hbond>
1.4641

> <Gold.PLP.Chemscore.CHOScore>
0.0000

> <Gold.PLP.Chemscore.Metal>
0.0000

> <Gold.Chemscore.Hbonds>
donor molecule, donor type, donor heavy atom, donor atom, acceptor molecule, acceptor atom, score
      L1  H    10    29       P1  8028  1.00
      P1  H  7997  8009       L1    19  0.41

> <Gold.PLP.Chemscore.Internal.Correction>
0.0076

> <Gold.Rescore>
     Score         DG    S(hbond)    S(metal)    S(lipo)     H(rot)  DE(clash)    DE(int)     intcor
     14.49     -17.29       1.61        0.00      86.71       1.45       0.23       2.57       ----

> <Gold.Chemscore.Fitness>
14.4897

> <Gold.Chemscore.DG>
-17.2894

> <Gold.Chemscore.ZeroCoef>
-5.4800

> <Gold.Chemscore.Hbond>
1.6059

> <Gold.Chemscore.Metal>
0.0000

> <Gold.Chemscore.Lipo>
86.7096

> <Gold.Chemscore.Internal_Hbond>
0.0000

> <Gold.Chemscore.DEClash>
0.2312

> <Gold.Chemscore.DEInternal>
2.5685

> <Gold.Chemscore.Rot>
1.4450

> <Gold.Chemscore.Internal.Correction>
   9.000000E+99

> <Gold.Chemscore.Hbonds>
donor molecule, donor type, donor heavy atom, donor atom, acceptor molecule, acceptor atom, score
      L1  H    10    29       P1  8028  0.94
      P1  H  7997  8009       L1    19  0.42

> <Gold.Chemscore.Hbond.Weighted>
-5.3636

> <Gold.Chemscore.Metal.Weighted>
-0.0000

> <Gold.Chemscore.Lipo.Weighted>
-10.1450

> <Gold.Chemscore.Internal_Hbond.Weighted>
0.0000

> <Gold.Chemscore.DEClash.Weighted>
0.2312

> <Gold.Chemscore.DEInternal.Weighted>
2.5685

> <Gold.Chemscore.Rot.Weighted>
3.6992

> <Gold.Chemscore.Internal.Correction.Weighted>
   9.000000E+99

> <Gold.Protein.RotatedTorsions>
[ 6907 6896 6895 6894 ] final  170.86 input  -60.11 | X-H torsion
[ 7974 7965 7964 7962 ] final  -78.98 input  175.53 | X-H torsion
[ 8008 7997 7996 7995 ] final  152.60 input   59.86 | X-H torsion
[ 10167 10162 10161 10158 ] final  162.60 input  -65.29 | X-H torsion
[ 10718 10713 10712 10709 ] final  -47.66 input   66.30 | X-H torsion
[ 10763 10752 10751 10750 ] final   92.01 input  -60.55 | X-H torsion
[ 11005 11000 10999 10996 ] final   32.46 input  -57.11 | X-H torsion

> <Gold.Protein.ActiveResidues>
 VAL166  LYS551  ARG553  GLY616  TRP617  ASP618  TYR619  PRO620  LYS621  CYS622 
 ASP623  PHE694  ASN695  SER759  ASP760  ASP761  ALA762  ILE779  LEU786  VAL792 
 PHE793  MET794  SER795  GLU796  ALA797  LYS798  CYS799  TRP800  GLU811  SER814 

> <Gold.Protein.RotatedAtoms>
  151.8094  133.3380  159.3550 H   0  0  0  0  0  0  0  0  0  0  0  0  # atno 6907 bound_to 6896
  150.7331  134.5678  159.5884 H   0  0  0  0  0  0  0  0  0  0  0  0  # atno 6908 bound_to 6896
  152.3086  134.7526  160.0393 H   0  0  0  0  0  0  0  0  0  0  0  0  # atno 6909 bound_to 6896
  145.5792  140.9451  143.1353 H   0  0  0  0  0  0  0  0  0  0  0  0  # atno 7974 bound_to 7965
  156.2621  140.2016  156.6359 H   0  0  0  0  0  0  0  0  0  0  0  0  # atno 8008 bound_to 7997
  154.6647  140.0557  157.0125 H   0  0  0  0  0  0  0  0  0  0  0  0  # atno 8009 bound_to 7997
  155.1225  140.3226  155.4496 H   0  0  0  0  0  0  0  0  0  0  0  0  # atno 8010 bound_to 7997
  139.4863  144.4421  151.8938 H   0  0  0  0  0  0  0  0  0  0  0  0  # atno 10167 bound_to 10162
  156.2062  130.4158  149.9174 H   0  0  0  0  0  0  0  0  0  0  0  0  # atno 10718 bound_to 10713
  153.2145  135.4377  155.0418 H   0  0  0  0  0  0  0  0  0  0  0  0  # atno 10763 bound_to 10752
  154.8218  135.3341  154.7019 H   0  0  0  0  0  0  0  0  0  0  0  0  # atno 10764 bound_to 10752
  153.7455  135.7002  153.5013 H   0  0  0  0  0  0  0  0  0  0  0  0  # atno 10765 bound_to 10752
  140.2733  134.3057  155.7821 H   0  0  0  0  0  0  0  0  0  0  0  0  # atno 11005 bound_to 11000
  144.7401  139.7472  143.7314 LP  0  0  0  0  0  0  0  0  0  0  0  0  # atno 17320 bound_to 7965
  146.1728  139.4886  142.9916 LP  0  0  0  0  0  0  0  0  0  0  0  0  # atno 17321 bound_to 7965
  140.3874  144.2660  150.5903 LP  0  0  0  0  0  0  0  0  0  0  0  0  # atno 17342 bound_to 10162
  140.5178  143.2273  151.8436 LP  0  0  0  0  0  0  0  0  0  0  0  0  # atno 17343 bound_to 10162
  156.6867  130.8880  151.3583 LP  0  0  0  0  0  0  0  0  0  0  0  0  # atno 17370 bound_to 10713
  157.7014  130.9337  150.0796 LP  0  0  0  0  0  0  0  0  0  0  0  0  # atno 17371 bound_to 10713
  141.2174  133.7480  156.9368 LP  0  0  0  0  0  0  0  0  0  0  0  0  # atno 17394 bound_to 11000
  140.1353  134.9329  157.2392 LP  0  0  0  0  0  0  0  0  0  0  0  0  # atno 17395 bound_to 11000

$$$$
