AV-unprocessed.smi:438|AV-procd|sdf|2569|dock2
  -GOLD-   2262022543D 1   1.00000     0.00000
 Structure written by MMmdl.
 48 49  0  0  0  0  0  0  0  0  1 V2000
  146.7381  134.3961  157.3374 C   0  0  0  0  0  0  0  0  0  0  0  0
  147.3635  135.4415  158.2444 C   0  0  0  0  0  0  0  0  0  0  0  0
  148.2640  136.2815  157.6141 N   0  0  0  0  0  0  0  0  0  0  0  0
  148.9008  137.2633  158.3576 C   0  0  0  0  0  0  0  0  0  0  0  0
  150.0367  138.2079  157.3010 S   0  0  0  0  0  0  0  0  0  0  0  0
  150.0153  139.8344  158.1077 C   0  0  0  0  0  0  0  0  0  0  0  0
  151.3963  140.4805  158.1326 C   0  0  0  0  0  0  0  0  0  0  0  0
  152.3244  139.9837  157.4952 O   0  0  0  0  0  0  0  0  0  0  0  0
  151.5149  141.5898  158.8774 N   0  0  0  0  0  0  0  0  0  0  0  0
  152.7329  142.3812  159.0471 C   0  0  2  0  0  0  0  0  0  0  0  0
  153.7448  141.6457  159.9519 C   0  0  0  0  0  0  0  0  0  0  0  0
  153.2709  141.5759  161.4137 C   0  0  0  0  0  0  0  0  0  0  0  0
  152.9568  142.9758  161.9622 C   0  0  0  0  0  0  0  0  0  0  0  0
  151.9353  143.7084  161.0773 C   0  0  0  0  0  0  0  0  0  0  0  0
  152.4066  143.7870  159.6099 C   0  0  2  0  0  0  0  0  0  0  0  0
  151.4055  144.5628  158.7362 C   0  0  0  0  0  0  0  0  0  0  0  0
  148.6914  137.4548  159.6265 N   0  0  0  0  0  0  0  0  0  0  0  0
  147.7781  136.6454  160.3179 C   0  0  0  0  0  0  0  0  0  0  0  0
  147.5606  136.8338  161.5140 O   0  0  0  0  0  0  0  0  0  0  0  0
  147.0955  135.5698  159.5670 C   0  0  0  0  0  0  0  0  0  0  0  0
  146.1057  134.6761  160.3145 C   0  0  0  0  0  0  0  0  0  0  0  0
  146.7189  133.9814  161.5431 C   0  0  0  0  0  0  0  0  0  0  0  0
  145.7498  133.2082  162.2190 O   0  0  0  0  0  0  0  0  0  0  0  0
  146.9296  133.3941  157.7221 H   0  0  0  0  0  0  0  0  0  0  0  0
  147.1405  134.4477  156.3249 H   0  0  0  0  0  0  0  0  0  0  0  0
  145.6594  134.5425  157.2753 H   0  0  0  0  0  0  0  0  0  0  0  0
  149.6429  139.7256  159.1269 H   0  0  0  0  0  0  0  0  0  0  0  0
  149.3229  140.4924  157.5808 H   0  0  0  0  0  0  0  0  0  0  0  0
  150.6938  141.9177  159.3650 H   0  0  0  0  0  0  0  0  0  0  0  0
  153.1888  142.5148  158.0642 H   0  0  0  0  0  0  0  0  0  0  0  0
  153.9361  140.6408  159.5736 H   0  0  0  0  0  0  0  0  0  0  0  0
  154.7018  142.1673  159.9134 H   0  0  0  0  0  0  0  0  0  0  0  0
  152.3833  140.9457  161.4855 H   0  0  0  0  0  0  0  0  0  0  0  0
  154.0352  141.0998  162.0285 H   0  0  0  0  0  0  0  0  0  0  0  0
  152.5774  142.8990  162.9813 H   0  0  0  0  0  0  0  0  0  0  0  0
  153.8759  143.5601  162.0184 H   0  0  0  0  0  0  0  0  0  0  0  0
  150.9726  143.1985  161.1333 H   0  0  0  0  0  0  0  0  0  0  0  0
  151.7714  144.7127  161.4696 H   0  0  0  0  0  0  0  0  0  0  0  0
  153.3365  144.3577  159.6013 H   0  0  0  0  0  0  0  0  0  0  0  0
  150.4230  144.0899  158.7273 H   0  0  0  0  0  0  0  0  0  0  0  0
  151.7536  144.6276  157.7050 H   0  0  0  0  0  0  0  0  0  0  0  0
  151.2759  145.5813  159.1030 H   0  0  0  0  0  0  0  0  0  0  0  0
  148.4353  136.1421  156.6286 H   0  0  0  0  0  0  0  0  0  0  0  0
  145.6840  133.9242  159.6485 H   0  0  0  0  0  0  0  0  0  0  0  0
  145.2558  135.2838  160.6279 H   0  0  0  0  0  0  0  0  0  0  0  0
  147.5537  133.3408  161.2587 H   0  0  0  0  0  0  0  0  0  0  0  0
  147.1115  134.7268  162.2348 H   0  0  0  0  0  0  0  0  0  0  0  0
  146.0501  132.3127  162.2520 H   0  0  0  0  0  0  0  0  0  0  0  0
  1 24  1  0  0  0  0
  1 25  1  0  0  0  0
  1 26  1  0  0  0  0
  1  2  1  0  0  0  0
  2 20  2  0  0  0  0
  2  3  1  0  0  0  0
  3  4  1  0  0  0  0
  3 43  1  0  0  0  0
  4  5  1  0  0  0  0
  4 17  2  0  0  0  0
  5  6  1  0  0  0  0
  6  7  1  0  0  0  0
  6 27  1  0  0  0  0
  6 28  1  0  0  0  0
  7  8  2  0  0  0  0
  7  9  1  0  0  0  0
  9 10  1  0  0  0  0
  9 29  1  0  0  0  0
 10 15  1  0  0  0  0
 10 11  1  0  0  0  0
 10 30  1  0  0  0  0
 11 12  1  0  0  0  0
 11 31  1  0  0  0  0
 11 32  1  0  0  0  0
 12 13  1  0  0  0  0
 12 33  1  0  0  0  0
 12 34  1  0  0  0  0
 13 14  1  0  0  0  0
 13 35  1  0  0  0  0
 13 36  1  0  0  0  0
 14 15  1  0  0  0  0
 14 37  1  0  0  0  0
 14 38  1  0  0  0  0
 15 16  1  0  0  0  0
 15 39  1  0  0  0  0
 16 40  1  0  0  0  0
 16 41  1  0  0  0  0
 16 42  1  0  0  0  0
 17 18  1  0  0  0  0
 18 19  2  0  0  0  0
 18 20  1  0  0  0  0
 20 21  1  0  0  0  0
 21 22  1  0  0  0  0
 21 44  1  0  0  0  0
 21 45  1  0  0  0  0
 22 23  1  0  0  0  0
 22 46  1  0  0  0  0
 22 47  1  0  0  0  0
 23 48  1  0  0  0  0
M  END
> <s_m_source_file>
AV-unprocessed.smi

> <i_m_source_file_index>
438

> <i_lp_mmshare_version>
43012

> <i_f3d_flags>
0

> <s_epik_input>
W09IXVtDSDJdW0NIMl1jMWMoW09IXSluYyhuYzFbQ0gzXSlTW0NIMl1DKD1PKVtOSF1bQ0BASF0yW0NIMl1bQ0gyXVtDSDJdW0NIMl1bQ0BIXTJbQ0gzXQ==

> <s_epik_cmdline>
J2VwaWtfcHl0aG9uJywgJy1waCcsICc3LjAnLCAnLXRuJywgJzgnLCAnLW1hJywgJzIwMCcsICctbWV0YWxfYmluZGluZycsICctaW1hZScsICc8aW5maWxlLm1hZT4nLCAnLW9tYWUnLCAnPG91dGZpbGUubWFlPic=

> <r_lp_tautomer_probability>
0.273662

> <r_epik_Ionization_Penalty>
0.0875285

> <r_epik_Ionization_Penalty_Charging>
0.0875254

> <r_epik_Ionization_Penalty_Neutral>
3.01536e-06

> <r_epik_State_Penalty>
0.985796

> <r_epik_Charging_Adjusted_Penalty>
1.07332

> <i_epik_Tot_Q>
0

> <i_epik_Tot_abs_Q>
0

> <r_epik_Metal_State_Penalty>
1.58101

> <b_epik_Metal_Only>
0

> <s_lp_Force_Field>
OPLS_2005

> <r_lp_Energy>
19.296

> <b_lp_Chiralities_Consistent>
1

> <s_lp_Variant>
AV-unprocessed.smi:438-7

> <Gold.Version>
5.8.1

> <Gold.Id.Protein>
6NUR|6NUR_protein|mol2

> <Gold.PLP.Fitness>
53.9674

> <Gold.PLP.PLP>
-48.6742

> <Gold.PLP.part.hbond>
-5.1001

> <Gold.PLP.part.metal>
0.0000

> <Gold.PLP.part.buried>
-5.5864

> <Gold.PLP.part.nonpolar>
-38.3495

> <Gold.PLP.part.repulsive>
0.2072

> <Gold.PLP.ligand.clash>
0.0000

> <Gold.PLP.ligand.torsion>
0.9434

> <Gold.PLP.Chemscore.Hbond>
2.3760

> <Gold.PLP.Chemscore.CHOScore>
0.0000

> <Gold.PLP.Chemscore.Metal>
0.0000

> <Gold.Chemscore.Hbonds>
donor molecule, donor type, donor heavy atom, donor atom, acceptor molecule, acceptor atom, score
      P1  H  6931  6943       L1    19  0.88
      P1  H  6934  6947       L1    19  0.09
      P1  H  7997  8010       L1     8  0.44

> <Gold.PLP.Chemscore.Internal.Correction>
0.0520

> <Gold.Rescore>
     Score         DG    S(hbond)    S(metal)    S(lipo)     H(rot)  DE(clash)    DE(int)     intcor
     14.41     -17.16       1.89        0.00     108.45       2.86       0.02       2.72       ----

> <Gold.Chemscore.Fitness>
14.4134

> <Gold.Chemscore.DG>
-17.1583

> <Gold.Chemscore.ZeroCoef>
-5.4800

> <Gold.Chemscore.Hbond>
1.8930

> <Gold.Chemscore.Metal>
0.0000

> <Gold.Chemscore.Lipo>
108.4514

> <Gold.Chemscore.Internal_Hbond>
0.0000

> <Gold.Chemscore.DEClash>
0.0249

> <Gold.Chemscore.DEInternal>
2.7200

> <Gold.Chemscore.Rot>
2.8645

> <Gold.Chemscore.Internal.Correction>
   9.000000E+99

> <Gold.Chemscore.Hbonds>
donor molecule, donor type, donor heavy atom, donor atom, acceptor molecule, acceptor atom, score
      P1  H  6931  6943       L1    19  0.22
      P1  H  7997  8010       L1     8  0.41

> <Gold.Chemscore.Hbond.Weighted>
-6.3226

> <Gold.Chemscore.Metal.Weighted>
-0.0000

> <Gold.Chemscore.Lipo.Weighted>
-12.6888

> <Gold.Chemscore.Internal_Hbond.Weighted>
0.0000

> <Gold.Chemscore.DEClash.Weighted>
0.0249

> <Gold.Chemscore.DEInternal.Weighted>
2.7200

> <Gold.Chemscore.Rot.Weighted>
7.3331

> <Gold.Chemscore.Internal.Correction.Weighted>
   9.000000E+99

> <Gold.Protein.RotatedTorsions>
[ 6907 6896 6895 6894 ] final   89.96 input  -60.11 | X-H torsion
[ 7974 7965 7964 7962 ] final  -35.10 input  175.53 | X-H torsion
[ 8008 7997 7996 7995 ] final   41.60 input   59.86 | X-H torsion
[ 10167 10162 10161 10158 ] final  137.97 input  -65.29 | X-H torsion
[ 10718 10713 10712 10709 ] final -152.03 input   66.30 | X-H torsion
[ 10763 10752 10751 10750 ] final -169.97 input  -60.55 | X-H torsion
[ 11005 11000 10999 10996 ] final -100.05 input  -57.11 | X-H torsion

> <Gold.Protein.ActiveResidues>
 VAL166  LYS551  ARG553  GLY616  TRP617  ASP618  TYR619  PRO620  LYS621  CYS622 
 ASP623  PHE694  ASN695  SER759  ASP760  ASP761  ALA762  ILE779  LEU786  VAL792 
 PHE793  MET794  SER795  GLU796  ALA797  LYS798  CYS799  TRP800  GLU811  SER814 

> <Gold.Protein.RotatedAtoms>
  152.5441  134.1886  159.8664 H   0  0  0  0  0  0  0  0  0  0  0  0  # atno 6907 bound_to 6896
  151.1883  133.4676  159.2602 H   0  0  0  0  0  0  0  0  0  0  0  0  # atno 6908 bound_to 6896
  151.1109  135.0038  159.8549 H   0  0  0  0  0  0  0  0  0  0  0  0  # atno 6909 bound_to 6896
  146.0774  140.6119  142.8924 H   0  0  0  0  0  0  0  0  0  0  0  0  # atno 7974 bound_to 7965
  155.2722  140.3367  155.4264 H   0  0  0  0  0  0  0  0  0  0  0  0  # atno 8008 bound_to 7997
  156.2127  140.1776  156.7700 H   0  0  0  0  0  0  0  0  0  0  0  0  # atno 8009 bound_to 7997
  154.5709  140.0670  156.8948 H   0  0  0  0  0  0  0  0  0  0  0  0  # atno 8010 bound_to 7997
  139.5126  144.6380  151.5646 H   0  0  0  0  0  0  0  0  0  0  0  0  # atno 10167 bound_to 10162
  156.4671  130.8241  151.2471 H   0  0  0  0  0  0  0  0  0  0  0  0  # atno 10718 bound_to 10713
  154.6466  135.2905  155.0039 H   0  0  0  0  0  0  0  0  0  0  0  0  # atno 10763 bound_to 10752
  154.1147  135.6557  153.4895 H   0  0  0  0  0  0  0  0  0  0  0  0  # atno 10764 bound_to 10752
  153.0354  135.5273  154.7355 H   0  0  0  0  0  0  0  0  0  0  0  0  # atno 10765 bound_to 10752
  141.1285  133.8369  157.1052 H   0  0  0  0  0  0  0  0  0  0  0  0  # atno 11005 bound_to 11000
  144.7271  140.4557  143.6965 LP  0  0  0  0  0  0  0  0  0  0  0  0  # atno 17320 bound_to 7965
  145.6280  139.1532  143.2985 LP  0  0  0  0  0  0  0  0  0  0  0  0  # atno 17321 bound_to 7965
  140.6136  143.9391  150.6471 LP  0  0  0  0  0  0  0  0  0  0  0  0  # atno 17342 bound_to 10162
  140.2641  143.3503  152.1296 LP  0  0  0  0  0  0  0  0  0  0  0  0  # atno 17343 bound_to 10162
  157.7494  131.0088  150.3243 LP  0  0  0  0  0  0  0  0  0  0  0  0  # atno 17370 bound_to 10713
  156.3656  130.3854  149.7216 LP  0  0  0  0  0  0  0  0  0  0  0  0  # atno 17371 bound_to 10713
  140.0309  134.9901  157.0778 LP  0  0  0  0  0  0  0  0  0  0  0  0  # atno 17394 bound_to 11000
  140.4287  134.1803  155.7167 LP  0  0  0  0  0  0  0  0  0  0  0  0  # atno 17395 bound_to 11000

$$$$
