AV-unprocessed.smi:3142|AV-procd|sdf|11970|dock10
  -GOLD-   2272017373D 1   1.00000     0.00000
 Structure written by MMmdl.
 36 38  0  0  0  0  0  0  0  0  1 V2000
  149.4017  141.4134  154.8147 C   0  0  0  0  0  0  0  0  0  0  0  0
  149.5011  140.4123  155.9818 C   0  0  2  0  0  0  0  0  0  0  0  0
  150.0761  141.0354  157.2641 C   0  0  0  0  0  0  0  0  0  0  0  0
  149.3819  141.1523  158.2746 O   0  0  0  0  0  0  0  0  0  0  0  0
  151.3563  141.4346  157.2004 N   0  0  0  0  0  0  0  0  0  0  0  0
  152.1066  142.0760  158.2738 C   0  0  0  0  0  0  0  0  0  0  0  0
  152.1549  141.2015  159.5131 C   0  0  0  0  0  0  0  0  0  0  0  0
  153.1465  141.4587  160.6230 C   0  0  0  0  0  0  0  0  0  0  0  0
  153.2957  140.2394  159.7406 C   0  0  0  0  0  0  0  0  0  0  0  0
  151.5665  143.4540  158.6176 C   0  0  0  0  0  0  0  0  0  0  0  0
  152.1744  144.7056  158.0300 C   0  0  0  0  0  0  0  0  0  0  0  0
  152.3396  144.4041  159.5018 C   0  0  0  0  0  0  0  0  0  0  0  0
  150.2667  139.2323  155.6041 N   0  0  0  0  0  0  0  0  0  0  0  0
  150.7131  138.9031  154.3299 C   0  0  0  0  0  0  0  0  0  0  0  0
  151.3722  137.6998  154.4395 C   0  0  0  0  0  0  0  0  0  0  0  0
  151.3398  137.2663  155.7623 N   0  0  0  0  0  0  0  0  0  0  0  0
  150.6686  138.2220  156.3916 C   0  0  0  0  0  0  0  0  0  0  0  0
  148.7975  142.2793  155.0876 H   0  0  0  0  0  0  0  0  0  0  0  0
  148.9329  140.9507  153.9457 H   0  0  0  0  0  0  0  0  0  0  0  0
  150.3825  141.7766  154.5052 H   0  0  0  0  0  0  0  0  0  0  0  0
  148.4871  140.0835  156.2153 H   0  0  0  0  0  0  0  0  0  0  0  0
  151.8460  141.2985  156.3278 H   0  0  0  0  0  0  0  0  0  0  0  0
  153.1387  142.2029  157.9401 H   0  0  0  0  0  0  0  0  0  0  0  0
  151.1753  140.8492  159.8313 H   0  0  0  0  0  0  0  0  0  0  0  0
  153.8684  142.2618  160.4891 H   0  0  0  0  0  0  0  0  0  0  0  0
  152.8071  141.3025  161.6448 H   0  0  0  0  0  0  0  0  0  0  0  0
  153.0558  139.2705  160.1738 H   0  0  0  0  0  0  0  0  0  0  0  0
  154.1088  140.2384  159.0173 H   0  0  0  0  0  0  0  0  0  0  0  0
  150.4858  143.4724  158.7485 H   0  0  0  0  0  0  0  0  0  0  0  0
  153.0521  144.5969  157.3962 H   0  0  0  0  0  0  0  0  0  0  0  0
  151.4962  145.5096  157.7527 H   0  0  0  0  0  0  0  0  0  0  0  0
  151.7716  145.0082  160.2064 H   0  0  0  0  0  0  0  0  0  0  0  0
  153.3279  144.0997  159.8394 H   0  0  0  0  0  0  0  0  0  0  0  0
  150.5300  139.5344  153.4729 H   0  0  0  0  0  0  0  0  0  0  0  0
  151.8598  137.1155  153.6732 H   0  0  0  0  0  0  0  0  0  0  0  0
  150.4602  138.1843  157.4511 H   0  0  0  0  0  0  0  0  0  0  0  0
  1  2  1  0  0  0  0
  1 18  1  0  0  0  0
  1 19  1  0  0  0  0
  1 20  1  0  0  0  0
  2  3  1  0  0  0  0
  2 13  1  0  0  0  0
  2 21  1  0  0  0  0
  3  4  2  0  0  0  0
  3  5  1  0  0  0  0
  5  6  1  0  0  0  0
  5 22  1  0  0  0  0
  6  7  1  0  0  0  0
  6 10  1  0  0  0  0
  6 23  1  0  0  0  0
  7  9  1  0  0  0  0
  7  8  1  0  0  0  0
  7 24  1  0  0  0  0
  8  9  1  0  0  0  0
  8 25  1  0  0  0  0
  8 26  1  0  0  0  0
  9 27  1  0  0  0  0
  9 28  1  0  0  0  0
 10 12  1  0  0  0  0
 10 11  1  0  0  0  0
 10 29  1  0  0  0  0
 11 12  1  0  0  0  0
 11 30  1  0  0  0  0
 11 31  1  0  0  0  0
 12 32  1  0  0  0  0
 12 33  1  0  0  0  0
 13 17  1  0  0  0  0
 13 14  1  0  0  0  0
 14 15  2  0  0  0  0
 14 34  1  0  0  0  0
 15 16  1  0  0  0  0
 15 35  1  0  0  0  0
 16 17  2  0  0  0  0
 17 36  1  0  0  0  0
M  END
> <s_m_source_file>
AV-unprocessed.smi

> <i_m_source_file_index>
3142

> <i_lp_mmshare_version>
43012

> <i_f3d_flags>
0

> <s_epik_input>
W2NIXTFuW2NIXVtjSF1uMVtDQEhdKFtDSDNdKUMoPU8pW05IXVtDSF0oW0NIXTJbQ0gyXVtDSDJdMilbQ0hdM1tDSDJdW0NIMl0z

> <s_epik_cmdline>
J2VwaWtfcHl0aG9uJywgJy1waCcsICc3LjAnLCAnLXRuJywgJzgnLCAnLW1hJywgJzIwMCcsICctbWV0YWxfYmluZGluZycsICctaW1hZScsICc8aW5maWxlLm1hZT4nLCAnLW9tYWUnLCAnPG91dGZpbGUubWFlPic=

> <r_lp_tautomer_probability>
1

> <r_epik_Ionization_Penalty>
0.32285

> <r_epik_Ionization_Penalty_Charging>
0.32285

> <r_epik_Ionization_Penalty_Neutral>
3.37967e-08

> <r_epik_State_Penalty>
0.317502

> <r_epik_Charging_Adjusted_Penalty>
0.640352

> <i_epik_Tot_Q>
0

> <i_epik_Tot_abs_Q>
0

> <r_epik_Metal_State_Penalty>
0.20415

> <b_epik_Metal_Only>
0

> <s_lp_Force_Field>
OPLS_2005

> <r_lp_Energy>
29.0844

> <b_lp_Chiralities_Consistent>
1

> <s_lp_Variant>
AV-unprocessed.smi:3142-1

> <Gold.Version>
5.8.1

> <Gold.Id.Protein>
6NUR|6NUR_protein|mol2

> <Gold.PLP.Fitness>
39.6707

> <Gold.PLP.PLP>
-34.3449

> <Gold.PLP.part.hbond>
0.0000

> <Gold.PLP.part.metal>
0.0000

> <Gold.PLP.part.buried>
-4.9764

> <Gold.PLP.part.nonpolar>
-30.3722

> <Gold.PLP.part.repulsive>
0.1488

> <Gold.PLP.ligand.clash>
0.0000

> <Gold.PLP.ligand.torsion>
1.4405

> <Gold.PLP.Chemscore.Hbond>
0.0000

> <Gold.PLP.Chemscore.CHOScore>
2.0000

> <Gold.PLP.Chemscore.Metal>
0.0000

> <Gold.Chemscore.Hbonds>
donor molecule, donor type, donor heavy atom, donor atom, acceptor molecule, acceptor atom, score
      L1  C    14    34       P1  7957  1.00
      L1  C    15    35       P1  7949  0.95

> <Gold.PLP.Chemscore.Internal.Correction>
2.2067

> <Gold.Rescore>
     Score         DG    S(hbond)    S(metal)    S(lipo)     H(rot)  DE(clash)    DE(int)     intcor
     11.65     -12.91       0.00        0.00     104.01       1.85       0.04       1.23       ----

> <Gold.Chemscore.Fitness>
11.6450

> <Gold.Chemscore.DG>
-12.9113

> <Gold.Chemscore.ZeroCoef>
-5.4800

> <Gold.Chemscore.Hbond>
0.0000

> <Gold.Chemscore.Metal>
0.0000

> <Gold.Chemscore.Lipo>
104.0054

> <Gold.Chemscore.Internal_Hbond>
0.0000

> <Gold.Chemscore.DEClash>
0.0402

> <Gold.Chemscore.DEInternal>
1.2261

> <Gold.Chemscore.Rot>
1.8505

> <Gold.Chemscore.Internal.Correction>
   9.000000E+99

> <Gold.Chemscore.Hbond.Weighted>
-0.0000

> <Gold.Chemscore.Metal.Weighted>
-0.0000

> <Gold.Chemscore.Lipo.Weighted>
-12.1686

> <Gold.Chemscore.Internal_Hbond.Weighted>
0.0000

> <Gold.Chemscore.DEClash.Weighted>
0.0402

> <Gold.Chemscore.DEInternal.Weighted>
1.2261

> <Gold.Chemscore.Rot.Weighted>
4.7373

> <Gold.Chemscore.Internal.Correction.Weighted>
   9.000000E+99

> <Gold.Protein.RotatedTorsions>
[ 6907 6896 6895 6894 ] final   63.03 input  -60.11 | X-H torsion
[ 7974 7965 7964 7962 ] final    7.00 input  175.53 | X-H torsion
[ 8008 7997 7996 7995 ] final   38.13 input   59.86 | X-H torsion
[ 10167 10162 10161 10158 ] final  -34.40 input  -65.29 | X-H torsion
[ 10718 10713 10712 10709 ] final -119.40 input   66.30 | X-H torsion
[ 10763 10752 10751 10750 ] final  -46.23 input  -60.55 | X-H torsion
[ 11005 11000 10999 10996 ] final  -94.58 input  -57.11 | X-H torsion

> <Gold.Protein.ActiveResidues>
 VAL166  LYS551  ARG553  GLY616  TRP617  ASP618  TYR619  PRO620  LYS621  CYS622 
 ASP623  PHE694  ASN695  SER759  ASP760  ASP761  ALA762  ILE779  LEU786  VAL792 
 PHE793  MET794  SER795  GLU796  ALA797  LYS798  CYS799  TRP800  GLU811  SER814 

> <Gold.Protein.RotatedAtoms>
  152.4220  134.5937  159.9980 H   0  0  0  0  0  0  0  0  0  0  0  0  # atno 6907 bound_to 6896
  151.6084  133.3344  159.3070 H   0  0  0  0  0  0  0  0  0  0  0  0  # atno 6908 bound_to 6896
  150.8109  134.7300  159.6752 H   0  0  0  0  0  0  0  0  0  0  0  0  # atno 6909 bound_to 6896
  146.2430  140.0149  142.8403 H   0  0  0  0  0  0  0  0  0  0  0  0  # atno 7974 bound_to 7965
  155.2152  140.3326  155.4323 H   0  0  0  0  0  0  0  0  0  0  0  0  # atno 8008 bound_to 7997
  156.2355  140.1870  156.7179 H   0  0  0  0  0  0  0  0  0  0  0  0  # atno 8009 bound_to 7997
  154.6051  140.0617  156.9406 H   0  0  0  0  0  0  0  0  0  0  0  0  # atno 8010 bound_to 7997
  140.7186  143.3551  151.2076 H   0  0  0  0  0  0  0  0  0  0  0  0  # atno 10167 bound_to 10162
  156.1178  130.6299  150.9411 H   0  0  0  0  0  0  0  0  0  0  0  0  # atno 10718 bound_to 10713
  154.0416  135.6643  153.4790 H   0  0  0  0  0  0  0  0  0  0  0  0  # atno 10763 bound_to 10752
  153.0499  135.5091  154.7836 H   0  0  0  0  0  0  0  0  0  0  0  0  # atno 10764 bound_to 10752
  154.6814  135.3045  154.9573 H   0  0  0  0  0  0  0  0  0  0  0  0  # atno 10765 bound_to 10752
  141.1466  133.7966  157.0318 H   0  0  0  0  0  0  0  0  0  0  0  0  # atno 11005 bound_to 11000
  145.1294  140.9509  143.4553 LP  0  0  0  0  0  0  0  0  0  0  0  0  # atno 17320 bound_to 7965
  145.0402  139.3266  143.5980 LP  0  0  0  0  0  0  0  0  0  0  0  0  # atno 17321 bound_to 7965
  139.7090  143.9407  152.2939 LP  0  0  0  0  0  0  0  0  0  0  0  0  # atno 17342 bound_to 10162
  139.9126  144.6847  150.8546 LP  0  0  0  0  0  0  0  0  0  0  0  0  # atno 17343 bound_to 10162
  157.6361  131.0916  150.8345 LP  0  0  0  0  0  0  0  0  0  0  0  0  # atno 17370 bound_to 10713
  156.8445  130.5059  149.5318 LP  0  0  0  0  0  0  0  0  0  0  0  0  # atno 17371 bound_to 10713
  140.0749  134.9681  157.1529 LP  0  0  0  0  0  0  0  0  0  0  0  0  # atno 17394 bound_to 11000
  140.3658  134.2444  155.7182 LP  0  0  0  0  0  0  0  0  0  0  0  0  # atno 17395 bound_to 11000

$$$$
