AV-unprocessed.smi:3032|AV-procd|sdf|11560|dock3
  -GOLD-   2272016523D 1   1.00000     0.00000
 Structure written by MMmdl.
 37 38  0  0  0  0  0  0  0  0  1 V2000
  152.8607  143.1803  162.2151 C   0  0  0  0  0  0  0  0  0  0  0  0
  152.1158  143.4450  160.8988 C   0  0  1  0  0  0  0  0  0  0  0  0
  151.8094  144.9434  160.7198 C   0  0  0  0  0  0  0  0  0  0  0  0
  151.0641  145.2149  159.4047 C   0  0  0  0  0  0  0  0  0  0  0  0
  151.8507  144.6799  158.1941 C   0  0  0  0  0  0  0  0  0  0  0  0
  152.2436  143.1894  158.3213 C   0  0  2  0  0  0  0  0  0  0  0  0
  151.0724  142.2327  158.0282 C   0  0  0  0  0  0  0  0  0  0  0  0
  150.0878  142.1908  158.7655 O   0  0  0  0  0  0  0  0  0  0  0  0
  151.1965  141.4590  156.9383 N   0  0  0  0  0  0  0  0  0  0  0  0
  150.2195  140.4717  156.4937 C   0  0  0  0  0  0  0  0  0  0  0  0
  150.0992  140.4471  154.9613 C   0  0  0  0  0  0  0  0  0  0  0  0
  148.7850  140.9695  154.4809 C   0  0  0  0  0  0  0  0  0  0  0  0
  148.3587  142.2009  154.7687 N   0  0  0  0  0  0  0  0  0  0  0  0
  147.1415  142.3914  154.2174 N   0  0  0  0  0  0  0  0  0  0  0  0
  146.9183  141.2205  153.6234 C   0  0  0  0  0  0  0  0  0  0  0  0
  147.9070  140.2858  153.7549 N   0  0  0  0  0  0  0  0  0  0  0  0
  152.9115  142.9086  159.6885 C   0  0  0  0  0  0  0  0  0  0  0  0
  148.8375  142.9086  155.3075 H   0  0  0  0  0  0  0  0  0  0  0  0
  153.8251  143.6888  162.2352 H   0  0  0  0  0  0  0  0  0  0  0  0
  153.0428  142.1145  162.3548 H   0  0  0  0  0  0  0  0  0  0  0  0
  152.2826  143.5300  163.0706 H   0  0  0  0  0  0  0  0  0  0  0  0
  151.1671  142.9119  160.9582 H   0  0  0  0  0  0  0  0  0  0  0  0
  151.2118  145.3048  161.5575 H   0  0  0  0  0  0  0  0  0  0  0  0
  152.7388  145.5145  160.7349 H   0  0  0  0  0  0  0  0  0  0  0  0
  150.0727  144.7640  159.4432 H   0  0  0  0  0  0  0  0  0  0  0  0
  150.9012  146.2869  159.2900 H   0  0  0  0  0  0  0  0  0  0  0  0
  151.2750  144.8431  157.2819 H   0  0  0  0  0  0  0  0  0  0  0  0
  152.7597  145.2718  158.0796 H   0  0  0  0  0  0  0  0  0  0  0  0
  152.9977  142.9973  157.5559 H   0  0  0  0  0  0  0  0  0  0  0  0
  152.0330  141.5564  156.3810 H   0  0  0  0  0  0  0  0  0  0  0  0
  150.4832  139.4834  156.8741 H   0  0  0  0  0  0  0  0  0  0  0  0
  149.2570  140.7285  156.9364 H   0  0  0  0  0  0  0  0  0  0  0  0
  150.8990  141.0378  154.5128 H   0  0  0  0  0  0  0  0  0  0  0  0
  150.2204  139.4291  154.5886 H   0  0  0  0  0  0  0  0  0  0  0  0
  146.0073  141.0303  153.0750 H   0  0  0  0  0  0  0  0  0  0  0  0
  153.9037  143.3622  159.6882 H   0  0  0  0  0  0  0  0  0  0  0  0
  153.0783  141.8366  159.8052 H   0  0  0  0  0  0  0  0  0  0  0  0
  1  2  1  0  0  0  0
  1 19  1  0  0  0  0
  1 20  1  0  0  0  0
  1 21  1  0  0  0  0
  2 17  1  0  0  0  0
  2  3  1  0  0  0  0
  2 22  1  0  0  0  0
  3  4  1  0  0  0  0
  3 23  1  0  0  0  0
  3 24  1  0  0  0  0
  4  5  1  0  0  0  0
  4 25  1  0  0  0  0
  4 26  1  0  0  0  0
  5  6  1  0  0  0  0
  5 27  1  0  0  0  0
  5 28  1  0  0  0  0
  6  7  1  0  0  0  0
  6 17  1  0  0  0  0
  6 29  1  0  0  0  0
  7  8  2  0  0  0  0
  7  9  1  0  0  0  0
  9 10  1  0  0  0  0
  9 30  1  0  0  0  0
 10 11  1  0  0  0  0
 10 31  1  0  0  0  0
 10 32  1  0  0  0  0
 11 33  1  0  0  0  0
 11 34  1  0  0  0  0
 11 12  1  0  0  0  0
 12 16  2  0  0  0  0
 12 13  1  0  0  0  0
 13 18  1  0  0  0  0
 13 14  1  0  0  0  0
 14 15  2  0  0  0  0
 15 16  1  0  0  0  0
 15 35  1  0  0  0  0
 17 36  1  0  0  0  0
 17 37  1  0  0  0  0
M  END
> <s_m_source_file>
AV-unprocessed.smi

> <i_m_source_file_index>
3032

> <i_lp_mmshare_version>
43012

> <i_f3d_flags>
0

> <s_epik_input>
W0NIM11bQ0BASF0xW0NIMl1bQ0gyXVtDSDJdW0NASF0oW0NIMl0xKUMoPU8pW05IXVtDSDJdW0NIMl1jMm5uW2NIXVtuSF0y

> <s_epik_cmdline>
J2VwaWtfcHl0aG9uJywgJy1waCcsICc3LjAnLCAnLXRuJywgJzgnLCAnLW1hJywgJzIwMCcsICctbWV0YWxfYmluZGluZycsICctaW1hZScsICc8aW5maWxlLm1hZT4nLCAnLW9tYWUnLCAnPG91dGZpbGUubWFlPic=

> <r_lp_tautomer_probability>
0.948284

> <r_epik_Ionization_Penalty>
0.000474052

> <r_epik_Ionization_Penalty_Charging>
0

> <r_epik_Ionization_Penalty_Neutral>
0.000474052

> <r_epik_State_Penalty>
0.271807

> <r_epik_Charging_Adjusted_Penalty>
0.271807

> <i_epik_Tot_Q>
0

> <i_epik_Tot_abs_Q>
0

> <r_epik_Metal_State_Penalty>
0.397201

> <b_epik_Metal_Only>
0

> <s_lp_Force_Field>
OPLS_2005

> <r_lp_Energy>
9.09743

> <b_lp_Chiralities_Consistent>
1

> <s_lp_Variant>
AV-unprocessed.smi:3032-4

> <Gold.Version>
5.8.1

> <Gold.Id.Protein>
6NUR|6NUR_protein|mol2

> <Gold.PLP.Fitness>
46.6385

> <Gold.PLP.PLP>
-42.2617

> <Gold.PLP.part.hbond>
-1.3812

> <Gold.PLP.part.metal>
0.0000

> <Gold.PLP.part.buried>
-6.5863

> <Gold.PLP.part.nonpolar>
-34.3036

> <Gold.PLP.part.repulsive>
0.7242

> <Gold.PLP.ligand.clash>
0.0000

> <Gold.PLP.ligand.torsion>
0.5476

> <Gold.PLP.Chemscore.Hbond>
0.8160

> <Gold.PLP.Chemscore.CHOScore>
0.9870

> <Gold.PLP.Chemscore.Metal>
0.0000

> <Gold.Chemscore.Hbonds>
donor molecule, donor type, donor heavy atom, donor atom, acceptor molecule, acceptor atom, score
      L1  H    13    18       P1  8028  0.85
      L1  C    15    35       P1 10175  1.00

> <Gold.PLP.Chemscore.Internal.Correction>
0.0631

> <Gold.Rescore>
     Score         DG    S(hbond)    S(metal)    S(lipo)     H(rot)  DE(clash)    DE(int)     intcor
     13.28     -13.97       0.85        0.00      97.65       2.25       0.06       0.63       ----

> <Gold.Chemscore.Fitness>
13.2761

> <Gold.Chemscore.DG>
-13.9719

> <Gold.Chemscore.ZeroCoef>
-5.4800

> <Gold.Chemscore.Hbond>
0.8465

> <Gold.Chemscore.Metal>
0.0000

> <Gold.Chemscore.Lipo>
97.6486

> <Gold.Chemscore.Internal_Hbond>
0.0000

> <Gold.Chemscore.DEClash>
0.0617

> <Gold.Chemscore.DEInternal>
0.6340

> <Gold.Chemscore.Rot>
2.2501

> <Gold.Chemscore.Internal.Correction>
   9.000000E+99

> <Gold.Chemscore.Hbonds>
donor molecule, donor type, donor heavy atom, donor atom, acceptor molecule, acceptor atom, score
      L1  H    13    18       P1  8028  0.83

> <Gold.Chemscore.Hbond.Weighted>
-2.8273

> <Gold.Chemscore.Metal.Weighted>
-0.0000

> <Gold.Chemscore.Lipo.Weighted>
-11.4249

> <Gold.Chemscore.Internal_Hbond.Weighted>
0.0000

> <Gold.Chemscore.DEClash.Weighted>
0.0617

> <Gold.Chemscore.DEInternal.Weighted>
0.6340

> <Gold.Chemscore.Rot.Weighted>
5.7603

> <Gold.Chemscore.Internal.Correction.Weighted>
   9.000000E+99

> <Gold.Protein.RotatedTorsions>
[ 6907 6896 6895 6894 ] final  -27.92 input  -60.11 | X-H torsion
[ 7974 7965 7964 7962 ] final  -98.23 input  175.53 | X-H torsion
[ 8008 7997 7996 7995 ] final -139.85 input   59.86 | X-H torsion
[ 10167 10162 10161 10158 ] final  -11.85 input  -65.29 | X-H torsion
[ 10718 10713 10712 10709 ] final  -69.92 input   66.30 | X-H torsion
[ 10763 10752 10751 10750 ] final  -55.82 input  -60.55 | X-H torsion
[ 11005 11000 10999 10996 ] final -116.72 input  -57.11 | X-H torsion

> <Gold.Protein.ActiveResidues>
 VAL166  LYS551  ARG553  GLY616  TRP617  ASP618  TYR619  PRO620  LYS621  CYS622 
 ASP623  PHE694  ASN695  SER759  ASP760  ASP761  ALA762  ILE779  LEU786  VAL792 
 PHE793  MET794  SER795  GLU796  ALA797  LYS798  CYS799  TRP800  GLU811  SER814 

> <Gold.Protein.RotatedAtoms>
  151.1401  135.0175  159.8621 H   0  0  0  0  0  0  0  0  0  0  0  0  # atno 6907 bound_to 6896
  152.5452  134.1509  159.8528 H   0  0  0  0  0  0  0  0  0  0  0  0  # atno 6908 bound_to 6896
  151.1584  133.4816  159.2627 H   0  0  0  0  0  0  0  0  0  0  0  0  # atno 6909 bound_to 6896
  145.3233  140.9426  143.2703 H   0  0  0  0  0  0  0  0  0  0  0  0  # atno 7974 bound_to 7965
  155.4517  140.0539  157.3000 H   0  0  0  0  0  0  0  0  0  0  0  0  # atno 8008 bound_to 7997
  154.4774  140.2067  155.9800 H   0  0  0  0  0  0  0  0  0  0  0  0  # atno 8009 bound_to 7997
  156.1154  140.3197  155.8136 H   0  0  0  0  0  0  0  0  0  0  0  0  # atno 8010 bound_to 7997
  140.7148  143.5595  150.9211 H   0  0  0  0  0  0  0  0  0  0  0  0  # atno 10167 bound_to 10162
  156.0432  130.4321  150.2219 H   0  0  0  0  0  0  0  0  0  0  0  0  # atno 10718 bound_to 10713
  154.1969  135.6418  153.5076 H   0  0  0  0  0  0  0  0  0  0  0  0  # atno 10763 bound_to 10752
  153.0021  135.5442  154.6357 H   0  0  0  0  0  0  0  0  0  0  0  0  # atno 10764 bound_to 10752
  154.5760  135.2921  155.0754 H   0  0  0  0  0  0  0  0  0  0  0  0  # atno 10765 bound_to 10752
  141.0403  133.9845  157.3005 H   0  0  0  0  0  0  0  0  0  0  0  0  # atno 11005 bound_to 11000
  144.8922  139.4760  143.6672 LP  0  0  0  0  0  0  0  0  0  0  0  0  # atno 17320 bound_to 7965
  146.3074  139.7626  142.9046 LP  0  0  0  0  0  0  0  0  0  0  0  0  # atno 17321 bound_to 7965
  139.9320  143.6482  152.3074 LP  0  0  0  0  0  0  0  0  0  0  0  0  # atno 17342 bound_to 10162
  139.6936  144.7644  151.1395 LP  0  0  0  0  0  0  0  0  0  0  0  0  # atno 17343 bound_to 10162
  157.0311  131.0008  151.3312 LP  0  0  0  0  0  0  0  0  0  0  0  0  # atno 17370 bound_to 10713
  157.5276  130.8038  149.7880 LP  0  0  0  0  0  0  0  0  0  0  0  0  # atno 17371 bound_to 10713
  139.9271  135.0201  156.8272 LP  0  0  0  0  0  0  0  0  0  0  0  0  # atno 17394 bound_to 11000
  140.6246  133.9962  155.7634 LP  0  0  0  0  0  0  0  0  0  0  0  0  # atno 17395 bound_to 11000

$$$$
