AV-unprocessed.smi:3181|AV-procd|sdf|12135|dock4
  -GOLD-   2272017573D 1   1.00000     0.00000
 Structure written by MMmdl.
 42 43  0  0  0  0  0  0  0  0  2 V2000
  149.2878  141.4605  154.6333 C   0  0  0  0  0  0  0  0  0  0  0  0
  150.1281  141.3080  155.9119 C   0  0  2  0  0  0  0  0  0  0  0  0
  150.0541  139.8901  156.5141 C   0  0  0  0  0  0  0  0  0  0  0  0
  150.7206  138.8923  155.6977 N   0  0  0  0  0  0  0  0  0  0  0  0
  151.1637  137.6715  156.0039 C   0  0  0  0  0  0  0  0  0  0  0  0
  151.7362  137.0404  154.9886 N   0  0  0  0  0  0  0  0  0  0  0  0
  151.6103  137.9989  154.0229 C   0  0  0  0  0  0  0  0  0  0  0  0
  151.0100  139.1291  154.3971 N   0  0  0  0  0  0  0  0  0  0  0  0
  149.6896  142.3004  156.9193 N   0  3  0  0  0  0  0  0  0  0  0  0
  150.7457  142.8102  157.8222 C   0  0  2  0  0  0  0  0  0  0  0  0
  151.4554  141.6328  158.5137 C   0  0  0  0  0  0  0  0  0  0  0  0
  152.5301  142.1168  159.5001 C   0  0  0  0  0  0  0  0  0  0  0  0
  151.9407  143.0828  160.5465 C   0  0  1  0  0  0  0  0  0  0  0  0
  152.9884  143.5049  161.5896 C   0  0  0  0  0  0  0  0  0  0  0  0
  151.2231  144.2818  159.8755 C   0  0  1  0  0  0  0  0  0  0  0  0
  152.1754  145.3034  159.2216 C   0  0  0  0  0  0  0  0  0  0  0  0
  150.1601  143.7751  158.8778 C   0  0  0  0  0  0  0  0  0  0  0  0
  149.6379  140.7970  153.8422 H   0  0  0  0  0  0  0  0  0  0  0  0
  149.3450  142.4787  154.2472 H   0  0  0  0  0  0  0  0  0  0  0  0
  148.2376  141.2332  154.8185 H   0  0  0  0  0  0  0  0  0  0  0  0
  151.1677  141.5026  155.6441 H   0  0  0  0  0  0  0  0  0  0  0  0
  150.5093  139.8760  157.5055 H   0  0  0  0  0  0  0  0  0  0  0  0
  149.0140  139.5872  156.6438 H   0  0  0  0  0  0  0  0  0  0  0  0
  151.0632  137.2340  156.9864 H   0  0  0  0  0  0  0  0  0  0  0  0
  151.9724  137.8599  153.0147 H   0  0  0  0  0  0  0  0  0  0  0  0
  149.2689  143.0859  156.4438 H   0  0  0  0  0  0  0  0  0  0  0  0
  151.4826  143.3339  157.2113 H   0  0  0  0  0  0  0  0  0  0  0  0
  150.7253  141.0234  159.0487 H   0  0  0  0  0  0  0  0  0  0  0  0
  151.9125  140.9810  157.7683 H   0  0  0  0  0  0  0  0  0  0  0  0
  152.9729  141.2551  160.0009 H   0  0  0  0  0  0  0  0  0  0  0  0
  153.3418  142.5996  158.9549 H   0  0  0  0  0  0  0  0  0  0  0  0
  151.1766  142.5278  161.0934 H   0  0  0  0  0  0  0  0  0  0  0  0
  153.8446  143.9965  161.1277 H   0  0  0  0  0  0  0  0  0  0  0  0
  153.3660  142.6389  162.1338 H   0  0  0  0  0  0  0  0  0  0  0  0
  152.5611  144.1903  162.3219 H   0  0  0  0  0  0  0  0  0  0  0  0
  150.6888  144.8214  160.6589 H   0  0  0  0  0  0  0  0  0  0  0  0
  152.8093  144.8496  158.4606 H   0  0  0  0  0  0  0  0  0  0  0  0
  152.8280  145.7701  159.9592 H   0  0  0  0  0  0  0  0  0  0  0  0
  151.6149  146.1074  158.7440 H   0  0  0  0  0  0  0  0  0  0  0  0
  149.6773  144.6268  158.3980 H   0  0  0  0  0  0  0  0  0  0  0  0
  149.3724  143.2617  159.4319 H   0  0  0  0  0  0  0  0  0  0  0  0
  148.9815  141.8594  157.4886 H   0  0  0  0  0  0  0  0  0  0  0  0
  1  2  1  0  0  0  0
  1 18  1  0  0  0  0
  1 19  1  0  0  0  0
  1 20  1  0  0  0  0
  2  3  1  0  0  0  0
  2  9  1  0  0  0  0
  2 21  1  0  0  0  0
  3  4  1  0  0  0  0
  3 22  1  0  0  0  0
  3 23  1  0  0  0  0
  4  8  1  0  0  0  0
  4  5  1  0  0  0  0
  5  6  2  0  0  0  0
  5 24  1  0  0  0  0
  6  7  1  0  0  0  0
  7  8  2  0  0  0  0
  7 25  1  0  0  0  0
  9 10  1  0  0  0  0
  9 26  1  0  0  0  0
  9 42  1  0  0  0  0
 10 17  1  0  0  0  0
 10 11  1  0  0  0  0
 10 27  1  0  0  0  0
 11 12  1  0  0  0  0
 11 28  1  0  0  0  0
 11 29  1  0  0  0  0
 12 13  1  0  0  0  0
 12 30  1  0  0  0  0
 12 31  1  0  0  0  0
 13 14  1  0  0  0  0
 13 15  1  0  0  0  0
 13 32  1  0  0  0  0
 14 33  1  0  0  0  0
 14 34  1  0  0  0  0
 14 35  1  0  0  0  0
 15 16  1  0  0  0  0
 15 17  1  0  0  0  0
 15 36  1  0  0  0  0
 16 37  1  0  0  0  0
 16 38  1  0  0  0  0
 16 39  1  0  0  0  0
 17 40  1  0  0  0  0
 17 41  1  0  0  0  0
M  CHG  1   9   1
M  END
> <s_m_source_file>
AV-unprocessed.smi

> <i_m_source_file_index>
3181

> <i_lp_mmshare_version>
43012

> <i_f3d_flags>
0

> <s_epik_input>
bjFbY0hdbltjSF1uMVtDSDJdW0NAQEhdKFtDSDNdKVtOSF1bQ0BASF0yW0NIMl1bQ0gyXVtDQEBIXShbQ0gzXSlbQ0BASF0oW0NIM10pW0NIMl0y

> <s_epik_cmdline>
J2VwaWtfcHl0aG9uJywgJy1waCcsICc3LjAnLCAnLXRuJywgJzgnLCAnLW1hJywgJzIwMCcsICctbWV0YWxfYmluZGluZycsICctaW1hZScsICc8aW5maWxlLm1hZT4nLCAnLW9tYWUnLCAnPG91dGZpbGUubWFlPic=

> <r_lp_tautomer_probability>
1

> <r_epik_Ionization_Penalty>
0.000617007

> <r_epik_Ionization_Penalty_Charging>
0.000616215

> <r_epik_Ionization_Penalty_Neutral>
7.92544e-07

> <r_epik_State_Penalty>
0.000388807

> <r_epik_Charging_Adjusted_Penalty>
0.00100502

> <i_epik_Tot_Q>
1

> <i_epik_Tot_abs_Q>
1

> <r_epik_Metal_State_Penalty>
-0

> <b_epik_Metal_Only>
0

> <s_lp_Force_Field>
OPLS_2005

> <r_lp_Energy>
21.1585

> <b_lp_Chiralities_Consistent>
1

> <s_lp_Variant>
AV-unprocessed.smi:3181-1

> <Gold.Version>
5.8.1

> <Gold.Id.Protein>
6NUR|6NUR_protein|mol2

> <Gold.PLP.Fitness>
47.9736

> <Gold.PLP.PLP>
-34.8654

> <Gold.PLP.part.hbond>
-2.9977

> <Gold.PLP.part.metal>
0.0000

> <Gold.PLP.part.buried>
-5.3461

> <Gold.PLP.part.nonpolar>
-26.5162

> <Gold.PLP.part.repulsive>
0.2674

> <Gold.PLP.ligand.clash>
0.0039

> <Gold.PLP.ligand.torsion>
0.6979

> <Gold.PLP.Chemscore.Hbond>
3.9588

> <Gold.PLP.Chemscore.CHOScore>
0.8684

> <Gold.PLP.Chemscore.Metal>
0.0000

> <Gold.Chemscore.Hbonds>
donor molecule, donor type, donor heavy atom, donor atom, acceptor molecule, acceptor atom, score
      L1  H     9    26       P1  8028  2.00
      P1  H  7989  7998       L1     8  0.96
      P1  H 10752 10765       L1     6  1.00
      L1  C     7    25       P1  7949  0.87

> <Gold.PLP.Chemscore.Internal.Correction>
0.0265

> <Gold.Rescore>
     Score         DG    S(hbond)    S(metal)    S(lipo)     H(rot)  DE(clash)    DE(int)     intcor
     17.40     -20.24       2.60        0.00      98.20       2.11       0.64       2.20       ----

> <Gold.Chemscore.Fitness>
17.4007

> <Gold.Chemscore.DG>
-20.2381

> <Gold.Chemscore.ZeroCoef>
-5.4800

> <Gold.Chemscore.Hbond>
2.5954

> <Gold.Chemscore.Metal>
0.0000

> <Gold.Chemscore.Lipo>
98.2028

> <Gold.Chemscore.Internal_Hbond>
0.0000

> <Gold.Chemscore.DEClash>
0.6383

> <Gold.Chemscore.DEInternal>
2.1991

> <Gold.Chemscore.Rot>
2.1095

> <Gold.Chemscore.Internal.Correction>
   9.000000E+99

> <Gold.Chemscore.Hbonds>
donor molecule, donor type, donor heavy atom, donor atom, acceptor molecule, acceptor atom, score
      L1  H     9    26       P1  8028  1.00
      P1  H  7989  7998       L1     8  0.84
      P1  H 10752 10765       L1     6  0.76

> <Gold.Chemscore.Hbond.Weighted>
-8.6687

> <Gold.Chemscore.Metal.Weighted>
-0.0000

> <Gold.Chemscore.Lipo.Weighted>
-11.4897

> <Gold.Chemscore.Internal_Hbond.Weighted>
0.0000

> <Gold.Chemscore.DEClash.Weighted>
0.6383

> <Gold.Chemscore.DEInternal.Weighted>
2.1991

> <Gold.Chemscore.Rot.Weighted>
5.4003

> <Gold.Chemscore.Internal.Correction.Weighted>
   9.000000E+99

> <Gold.Protein.RotatedTorsions>
[ 6907 6896 6895 6894 ] final  -57.42 input  -60.11 | X-H torsion
[ 7974 7965 7964 7962 ] final  175.97 input  175.53 | X-H torsion
[ 8008 7997 7996 7995 ] final  156.45 input   59.86 | X-H torsion
[ 10167 10162 10161 10158 ] final   -7.37 input  -65.29 | X-H torsion
[ 10718 10713 10712 10709 ] final  142.98 input   66.30 | X-H torsion
[ 10763 10752 10751 10750 ] final  169.83 input  -60.55 | X-H torsion
[ 11005 11000 10999 10996 ] final -156.77 input  -57.11 | X-H torsion

> <Gold.Protein.ActiveResidues>
 VAL166  LYS551  ARG553  GLY616  TRP617  ASP618  TYR619  PRO620  LYS621  CYS622 
 ASP623  PHE694  ASN695  SER759  ASP760  ASP761  ALA762  ILE779  LEU786  VAL792 
 PHE793  MET794  SER795  GLU796  ALA797  LYS798  CYS799  TRP800  GLU811  SER814 

> <Gold.Protein.RotatedAtoms>
  150.8087  134.7229  159.6668 H   0  0  0  0  0  0  0  0  0  0  0  0  # atno 6907 bound_to 6896
  152.4207  134.5956  159.9996 H   0  0  0  0  0  0  0  0  0  0  0  0  # atno 6908 bound_to 6896
  151.6172  133.3305  159.3116 H   0  0  0  0  0  0  0  0  0  0  0  0  # atno 6909 bound_to 6896
  144.7192  140.0026  143.6440 H   0  0  0  0  0  0  0  0  0  0  0  0  # atno 7974 bound_to 7965
  156.2422  140.1912  156.6957 H   0  0  0  0  0  0  0  0  0  0  0  0  # atno 8008 bound_to 7997
  154.6219  140.0607  156.9652 H   0  0  0  0  0  0  0  0  0  0  0  0  # atno 8009 bound_to 7997
  155.1848  140.3279  155.4371 H   0  0  0  0  0  0  0  0  0  0  0  0  # atno 8010 bound_to 7997
  140.7027  143.6088  150.8724 H   0  0  0  0  0  0  0  0  0  0  0  0  # atno 10167 bound_to 10162
  157.3743  131.0983  151.0799 H   0  0  0  0  0  0  0  0  0  0  0  0  # atno 10718 bound_to 10713
  154.3888  135.2754  155.2167 H   0  0  0  0  0  0  0  0  0  0  0  0  # atno 10763 bound_to 10752
  154.4242  135.5993  153.6032 H   0  0  0  0  0  0  0  0  0  0  0  0  # atno 10764 bound_to 10752
  152.9832  135.5980  154.4141 H   0  0  0  0  0  0  0  0  0  0  0  0  # atno 10765 bound_to 10752
  140.6719  134.4238  157.5231 H   0  0  0  0  0  0  0  0  0  0  0  0  # atno 11005 bound_to 11000
  146.0323  139.3346  143.0748 LP  0  0  0  0  0  0  0  0  0  0  0  0  # atno 17320 bound_to 7965
  145.8437  140.9566  143.0786 LP  0  0  0  0  0  0  0  0  0  0  0  0  # atno 17321 bound_to 7965
  139.9812  143.5950  152.2942 LP  0  0  0  0  0  0  0  0  0  0  0  0  # atno 17342 bound_to 10162
  139.6571  144.7662  151.2034 LP  0  0  0  0  0  0  0  0  0  0  0  0  # atno 17343 bound_to 10162
  157.1891  130.6344  149.5698 LP  0  0  0  0  0  0  0  0  0  0  0  0  # atno 17370 bound_to 10713
  155.9762  130.4728  150.6512 LP  0  0  0  0  0  0  0  0  0  0  0  0  # atno 17371 bound_to 10713
  139.8979  134.8626  156.2025 LP  0  0  0  0  0  0  0  0  0  0  0  0  # atno 17394 bound_to 11000
  141.0385  133.6950  156.1556 LP  0  0  0  0  0  0  0  0  0  0  0  0  # atno 17395 bound_to 11000

$$$$
