AV-unprocessed.smi:101|AV-procd|sdf|924|dock10
  -GOLD-   2262017433D 1   1.00000     0.00000
 Structure written by MMmdl.
 44 46  0  0  0  0  0  0  0  0  1 V2000
  143.9578  145.4505  153.8709 C   0  0  0  0  0  0  0  0  0  0  0  0
  144.6120  144.1807  154.3910 C   0  0  0  0  0  0  0  0  0  0  0  0
  145.6094  143.5482  153.7208 C   0  0  0  0  0  0  0  0  0  0  0  0
  146.2296  142.3875  154.1718 N   0  0  0  0  0  0  0  0  0  0  0  0
  147.3264  141.6796  153.3925 C   0  0  1  0  0  0  0  0  0  0  0  0
  148.5540  141.8474  154.0342 O   0  0  0  0  0  0  0  0  0  0  0  0
  148.8073  140.7226  154.8625 C   0  0  2  0  0  0  0  0  0  0  0  0
  150.2977  140.6451  155.2213 C   0  0  0  0  0  0  0  0  0  0  0  0
  150.6292  141.6628  156.1529 O   0  0  0  0  0  0  0  0  0  0  0  0
  151.3165  141.3616  157.2702 C   0  0  0  0  0  0  0  0  0  0  0  0
  151.6859  140.2215  157.5582 O   0  0  0  0  0  0  0  0  0  0  0  0
  151.5838  142.5553  158.1235 C   0  0  0  0  0  0  0  0  0  0  0  0
  152.1786  142.3800  159.3948 C   0  0  0  0  0  0  0  0  0  0  0  0
  152.4417  143.4886  160.2227 C   0  0  0  0  0  0  0  0  0  0  0  0
  152.1143  144.7864  159.7890 C   0  0  0  0  0  0  0  0  0  0  0  0
  151.5233  144.9744  158.5260 C   0  0  0  0  0  0  0  0  0  0  0  0
  151.2582  143.8668  157.6970 C   0  0  0  0  0  0  0  0  0  0  0  0
  148.2564  139.5432  154.0590 C   0  0  1  0  0  0  0  0  0  0  0  0
  147.8301  138.5162  154.9317 O   0  0  0  0  0  0  0  0  0  0  0  0
  147.0680  140.1533  153.3167 C   0  0  2  0  0  0  0  0  0  0  0  0
  147.0411  139.6949  151.9800 O   0  0  0  0  0  0  0  0  0  0  0  0
  145.7715  141.7882  155.3646 C   0  0  0  0  0  0  0  0  0  0  0  0
  146.2343  140.7343  155.8001 O   0  0  0  0  0  0  0  0  0  0  0  0
  144.7528  142.4401  156.0558 N   0  0  0  0  0  0  0  0  0  0  0  0
  144.1294  143.6239  155.6572 C   0  0  0  0  0  0  0  0  0  0  0  0
  143.2431  144.1095  156.3581 O   0  0  0  0  0  0  0  0  0  0  0  0
  144.4337  142.0176  156.9155 H   0  0  0  0  0  0  0  0  0  0  0  0
  144.3929  145.7739  152.9247 H   0  0  0  0  0  0  0  0  0  0  0  0
  144.0791  146.2627  154.5887 H   0  0  0  0  0  0  0  0  0  0  0  0
  142.8910  145.2912  153.7109 H   0  0  0  0  0  0  0  0  0  0  0  0
  145.9177  143.9853  152.7836 H   0  0  0  0  0  0  0  0  0  0  0  0
  147.3503  142.1862  152.4254 H   0  0  0  0  0  0  0  0  0  0  0  0
  148.2276  140.8412  155.7795 H   0  0  0  0  0  0  0  0  0  0  0  0
  150.5272  139.6669  155.6459 H   0  0  0  0  0  0  0  0  0  0  0  0
  150.9026  140.7613  154.3211 H   0  0  0  0  0  0  0  0  0  0  0  0
  152.4397  141.3932  159.7490 H   0  0  0  0  0  0  0  0  0  0  0  0
  152.8955  143.3424  161.1917 H   0  0  0  0  0  0  0  0  0  0  0  0
  152.3166  145.6363  160.4239 H   0  0  0  0  0  0  0  0  0  0  0  0
  151.2720  145.9701  158.1916 H   0  0  0  0  0  0  0  0  0  0  0  0
  150.8036  144.0468  156.7336 H   0  0  0  0  0  0  0  0  0  0  0  0
  149.0010  139.1614  153.3588 H   0  0  0  0  0  0  0  0  0  0  0  0
  147.9540  137.6860  154.4974 H   0  0  0  0  0  0  0  0  0  0  0  0
  146.1257  139.9049  153.8078 H   0  0  0  0  0  0  0  0  0  0  0  0
  147.7912  140.0516  151.5285 H   0  0  0  0  0  0  0  0  0  0  0  0
  1  2  1  0  0  0  0
  1 28  1  0  0  0  0
  1 29  1  0  0  0  0
  1 30  1  0  0  0  0
  2 25  1  0  0  0  0
  2  3  2  0  0  0  0
  3  4  1  0  0  0  0
  3 31  1  0  0  0  0
  4  5  1  0  0  0  0
  4 22  1  0  0  0  0
  5 20  1  0  0  0  0
  5  6  1  0  0  0  0
  5 32  1  0  0  0  0
  6  7  1  0  0  0  0
  7  8  1  0  0  0  0
  7 18  1  0  0  0  0
  7 33  1  0  0  0  0
  8  9  1  0  0  0  0
  8 34  1  0  0  0  0
  8 35  1  0  0  0  0
  9 10  1  0  0  0  0
 10 11  2  0  0  0  0
 10 12  1  0  0  0  0
 12 17  1  0  0  0  0
 12 13  2  0  0  0  0
 13 14  1  0  0  0  0
 13 36  1  0  0  0  0
 14 15  2  0  0  0  0
 14 37  1  0  0  0  0
 15 16  1  0  0  0  0
 15 38  1  0  0  0  0
 16 17  2  0  0  0  0
 16 39  1  0  0  0  0
 17 40  1  0  0  0  0
 18 19  1  0  0  0  0
 18 20  1  0  0  0  0
 18 41  1  0  0  0  0
 19 42  1  0  0  0  0
 20 21  1  0  0  0  0
 20 43  1  0  0  0  0
 21 44  1  0  0  0  0
 22 23  2  0  0  0  0
 22 24  1  0  0  0  0
 24 27  1  0  0  0  0
 24 25  1  0  0  0  0
 25 26  2  0  0  0  0
M  END
> <s_m_source_file>
AV-unprocessed.smi

> <i_m_source_file_index>
101

> <i_lp_mmshare_version>
43012

> <i_f3d_flags>
0

> <s_epik_input>
Tz1jMVtuSF1jKD1PKW4oW2NIXWMxW0NIM10pW0NAQEhdMk9bQ0BIXShbQ0BASF0oW09IXSlbQ0BIXTJbT0hdKVtDSDJdT0MoPU8pYzNbY0hdW2NIXVtjSF1bY0hdW2NIXTM=

> <s_epik_cmdline>
J2VwaWtfcHl0aG9uJywgJy1waCcsICc3LjAnLCAnLXRuJywgJzgnLCAnLW1hJywgJzIwMCcsICctbWV0YWxfYmluZGluZycsICctaW1hZScsICc8aW5maWxlLm1hZT4nLCAnLW9tYWUnLCAnPG91dGZpbGUubWFlPic=

> <r_lp_tautomer_probability>
0.999537

> <r_epik_Ionization_Penalty>
0.00263537

> <r_epik_Ionization_Penalty_Charging>
0.00263428

> <r_epik_Ionization_Penalty_Neutral>
1.09111e-06

> <r_epik_State_Penalty>
0.00183335

> <r_epik_Charging_Adjusted_Penalty>
0.00446763

> <i_epik_Tot_Q>
0

> <i_epik_Tot_abs_Q>
0

> <r_epik_Metal_State_Penalty>
1.00528

> <b_epik_Metal_Only>
0

> <s_epik_Chemistry_Notes>
This compound has an ester and may undergo hydrolysis at high or low pH. This compound contains an acetal/aminal-like group ( X-CH(R)-Y where X, Y are N, S, or O) that may be acid/base labile, releasing an aldehyde.

> <s_lp_Force_Field>
OPLS_2005

> <r_lp_Energy>
29.5421

> <b_lp_Chiralities_Consistent>
1

> <s_lp_Variant>
AV-unprocessed.smi:101-12

> <Gold.Version>
5.8.1

> <Gold.Id.Protein>
6NUR|6NUR_protein|mol2

> <Gold.PLP.Fitness>
53.4139

> <Gold.PLP.PLP>
-53.7238

> <Gold.PLP.part.hbond>
-2.0000

> <Gold.PLP.part.metal>
0.0000

> <Gold.PLP.part.buried>
-8.9350

> <Gold.PLP.part.nonpolar>
-44.0194

> <Gold.PLP.part.repulsive>
0.3244

> <Gold.PLP.ligand.clash>
2.8161

> <Gold.PLP.ligand.torsion>
0.7671

> <Gold.PLP.Chemscore.Hbond>
1.3243

> <Gold.PLP.Chemscore.CHOScore>
0.0000

> <Gold.PLP.Chemscore.Metal>
0.0000

> <Gold.Chemscore.Hbonds>
donor molecule, donor type, donor heavy atom, donor atom, acceptor molecule, acceptor atom, score
      L1  H    21    44       P1  7957  1.00
      P1  H  8011  8017       L1     6  0.31

> <Gold.PLP.Chemscore.Internal.Correction>
0.0675

> <Gold.Rescore>
     Score         DG    S(hbond)    S(metal)    S(lipo)     H(rot)  DE(clash)    DE(int)     intcor
      8.00     -14.38       1.01        0.00     119.83       3.32       0.13       6.24       ----

> <Gold.Chemscore.Fitness>
8.0032

> <Gold.Chemscore.DG>
-14.3752

> <Gold.Chemscore.ZeroCoef>
-5.4800

> <Gold.Chemscore.Hbond>
1.0080

> <Gold.Chemscore.Metal>
0.0000

> <Gold.Chemscore.Lipo>
119.8331

> <Gold.Chemscore.Internal_Hbond>
0.0000

> <Gold.Chemscore.DEClash>
0.1326

> <Gold.Chemscore.DEInternal>
6.2394

> <Gold.Chemscore.Rot>
3.3172

> <Gold.Chemscore.Internal.Correction>
   9.000000E+99

> <Gold.Chemscore.Hbonds>
donor molecule, donor type, donor heavy atom, donor atom, acceptor molecule, acceptor atom, score
      L1  H    21    44       P1  7957  0.96
      P1  H  8011  8017       L1     6  0.08

> <Gold.Chemscore.Hbond.Weighted>
-3.3667

> <Gold.Chemscore.Metal.Weighted>
-0.0000

> <Gold.Chemscore.Lipo.Weighted>
-14.0205

> <Gold.Chemscore.Internal_Hbond.Weighted>
0.0000

> <Gold.Chemscore.DEClash.Weighted>
0.1326

> <Gold.Chemscore.DEInternal.Weighted>
6.2394

> <Gold.Chemscore.Rot.Weighted>
8.4920

> <Gold.Chemscore.Internal.Correction.Weighted>
   9.000000E+99

> <Gold.Protein.RotatedTorsions>
[ 6907 6896 6895 6894 ] final  -44.43 input  -60.11 | X-H torsion
[ 7974 7965 7964 7962 ] final -171.99 input  175.53 | X-H torsion
[ 8008 7997 7996 7995 ] final  -47.72 input   59.86 | X-H torsion
[ 10167 10162 10161 10158 ] final  161.13 input  -65.29 | X-H torsion
[ 10718 10713 10712 10709 ] final -176.02 input   66.30 | X-H torsion
[ 10763 10752 10751 10750 ] final  115.35 input  -60.55 | X-H torsion
[ 11005 11000 10999 10996 ] final -161.10 input  -57.11 | X-H torsion

> <Gold.Protein.ActiveResidues>
 VAL166  LYS551  ARG553  GLY616  TRP617  ASP618  TYR619  PRO620  LYS621  CYS622 
 ASP623  PHE694  ASN695  SER759  ASP760  ASP761  ALA762  ILE779  LEU786  VAL792 
 PHE793  MET794  SER795  GLU796  ALA797  LYS798  CYS799  TRP800  GLU811  SER814 

> <Gold.Protein.RotatedAtoms>
  150.9330  134.8744  159.7562 H   0  0  0  0  0  0  0  0  0  0  0  0  # atno 6907 bound_to 6896
  152.5046  134.4052  159.9440 H   0  0  0  0  0  0  0  0  0  0  0  0  # atno 6908 bound_to 6896
  151.4078  133.3697  159.2775 H   0  0  0  0  0  0  0  0  0  0  0  0  # atno 6909 bound_to 6896
  144.7151  140.1839  143.6355 H   0  0  0  0  0  0  0  0  0  0  0  0  # atno 7974 bound_to 7965
  154.4020  140.1339  156.4222 H   0  0  0  0  0  0  0  0  0  0  0  0  # atno 8008 bound_to 7997
  155.7631  140.3485  155.5188 H   0  0  0  0  0  0  0  0  0  0  0  0  # atno 8009 bound_to 7997
  155.8839  140.0992  157.1456 H   0  0  0  0  0  0  0  0  0  0  0  0  # atno 8010 bound_to 7997
  139.4846  144.4566  151.8760 H   0  0  0  0  0  0  0  0  0  0  0  0  # atno 10167 bound_to 10162
  156.8085  130.9577  151.3116 H   0  0  0  0  0  0  0  0  0  0  0  0  # atno 10718 bound_to 10713
  153.5209  135.3598  155.2631 H   0  0  0  0  0  0  0  0  0  0  0  0  # atno 10763 bound_to 10752
  154.8735  135.4045  154.3260 H   0  0  0  0  0  0  0  0  0  0  0  0  # atno 10764 bound_to 10752
  153.3931  135.7072  153.6547 H   0  0  0  0  0  0  0  0  0  0  0  0  # atno 10765 bound_to 10752
  140.6241  134.4720  157.5225 H   0  0  0  0  0  0  0  0  0  0  0  0  # atno 11005 bound_to 11000
  145.8831  139.2334  143.1594 LP  0  0  0  0  0  0  0  0  0  0  0  0  # atno 17320 bound_to 7965
  145.9976  140.8548  143.0035 LP  0  0  0  0  0  0  0  0  0  0  0  0  # atno 17321 bound_to 7965
  140.4026  144.2473  150.5892 LP  0  0  0  0  0  0  0  0  0  0  0  0  # atno 17342 bound_to 10162
  140.5043  143.2309  151.8632 LP  0  0  0  0  0  0  0  0  0  0  0  0  # atno 17343 bound_to 10162
  157.6518  130.8891  149.9648 LP  0  0  0  0  0  0  0  0  0  0  0  0  # atno 17370 bound_to 10713
  156.1059  130.3653  150.0135 LP  0  0  0  0  0  0  0  0  0  0  0  0  # atno 17371 bound_to 10713
  139.9142  134.8282  156.1424 LP  0  0  0  0  0  0  0  0  0  0  0  0  # atno 17394 bound_to 11000
  141.0722  133.6792  156.2163 LP  0  0  0  0  0  0  0  0  0  0  0  0  # atno 17395 bound_to 11000

$$$$
