AV-unprocessed.smi:232|AV-procd|sdf|1782|dock1
  -GOLD-   2262020333D 1   1.00000     0.00000
 Structure written by MMmdl.
 52 55  0  0  0  0  0  0  0  0  1 V2000
  153.5992  142.5593  160.2615 C   0  0  0  0  0  0  0  0  0  0  0  0
  153.2691  141.6148  159.0991 C   0  0  0  0  0  0  0  0  0  0  0  0
  151.9133  141.9295  158.4297 C   0  0  1  0  0  0  0  0  0  0  0  0
  151.7839  143.3977  157.9789 C   0  0  0  0  0  0  0  0  0  0  0  0
  151.2767  143.3444  156.5330 C   0  0  0  0  0  0  0  0  0  0  0  0
  150.8078  141.9022  156.3350 C   0  0  2  0  0  0  0  0  0  0  0  0
  149.3102  141.7386  156.6692 C   0  0  0  0  0  0  0  0  0  0  0  0
  151.6803  141.1388  157.2212 N   0  0  0  0  0  0  0  0  0  0  0  0
  151.4715  139.7967  157.2861 C   0  0  0  0  0  0  0  0  0  0  0  0
  151.3880  139.1782  158.4945 N   0  0  0  0  0  0  0  0  0  0  0  0
  151.1553  137.8649  158.5686 C   0  0  0  0  0  0  0  0  0  0  0  0
  150.9695  136.9939  157.5756 N   0  0  0  0  0  0  0  0  0  0  0  0
  151.0528  137.6061  156.3600 C   0  0  0  0  0  0  0  0  0  0  0  0
  151.3036  138.9881  156.1267 C   0  0  0  0  0  0  0  0  0  0  0  0
  151.3318  139.2371  154.7595 N   0  0  0  0  0  0  0  0  0  0  0  0
  151.0964  138.0742  154.2170 C   0  0  0  0  0  0  0  0  0  0  0  0
  150.8918  137.0433  155.1058 N   0  0  0  0  0  0  0  0  0  0  0  0
  150.6010  135.6585  154.7775 C   0  0  0  0  0  0  0  0  0  0  0  0
  149.2428  135.1636  155.3265 C   0  0  1  0  0  0  0  0  0  0  0  0
  148.2573  135.8075  154.5448 O   0  0  0  0  0  0  0  0  0  0  0  0
  148.9912  133.6410  155.2163 C   0  0  1  0  0  0  0  0  0  0  0  0
  148.9510  133.0601  153.7998 C   0  0  0  0  0  0  0  0  0  0  0  0
  149.3496  131.6058  153.9852 C   0  0  0  0  0  0  0  0  0  0  0  0
  149.9994  131.5778  155.3688 C   0  0  0  0  0  0  0  0  0  0  0  0
  150.1069  132.9416  155.7503 O   0  0  0  0  0  0  0  0  0  0  0  0
  154.5431  142.2798  160.7297 H   0  0  0  0  0  0  0  0  0  0  0  0
  152.8247  142.5228  161.0279 H   0  0  0  0  0  0  0  0  0  0  0  0
  153.6911  143.5922  159.9255 H   0  0  0  0  0  0  0  0  0  0  0  0
  154.0662  141.6552  158.3558 H   0  0  0  0  0  0  0  0  0  0  0  0
  153.2727  140.5959  159.4845 H   0  0  0  0  0  0  0  0  0  0  0  0
  151.1094  141.7172  159.1363 H   0  0  0  0  0  0  0  0  0  0  0  0
  151.0787  143.9263  158.6210 H   0  0  0  0  0  0  0  0  0  0  0  0
  152.7321  143.9346  158.0243 H   0  0  0  0  0  0  0  0  0  0  0  0
  150.5007  144.0826  156.3274 H   0  0  0  0  0  0  0  0  0  0  0  0
  152.1071  143.5484  155.8554 H   0  0  0  0  0  0  0  0  0  0  0  0
  150.9742  141.6180  155.2964 H   0  0  0  0  0  0  0  0  0  0  0  0
  148.6989  142.3697  156.0240 H   0  0  0  0  0  0  0  0  0  0  0  0
  149.0921  142.0130  157.7017 H   0  0  0  0  0  0  0  0  0  0  0  0
  148.9776  140.7108  156.5204 H   0  0  0  0  0  0  0  0  0  0  0  0
  151.1052  137.4553  159.5664 H   0  0  0  0  0  0  0  0  0  0  0  0
  151.0533  137.9390  153.1460 H   0  0  0  0  0  0  0  0  0  0  0  0
  150.6134  135.5818  153.6893 H   0  0  0  0  0  0  0  0  0  0  0  0
  151.4106  135.0237  155.1399 H   0  0  0  0  0  0  0  0  0  0  0  0
  149.1204  135.4887  156.3604 H   0  0  0  0  0  0  0  0  0  0  0  0
  148.5181  135.7631  153.6377 H   0  0  0  0  0  0  0  0  0  0  0  0
  148.0857  133.3547  155.7552 H   0  0  0  0  0  0  0  0  0  0  0  0
  147.9734  133.1596  153.3294 H   0  0  0  0  0  0  0  0  0  0  0  0
  149.6875  133.5557  153.1660 H   0  0  0  0  0  0  0  0  0  0  0  0
  148.4801  130.9484  153.9572 H   0  0  0  0  0  0  0  0  0  0  0  0
  150.0397  131.2858  153.2037 H   0  0  0  0  0  0  0  0  0  0  0  0
  149.3640  131.0512  156.0822 H   0  0  0  0  0  0  0  0  0  0  0  0
  150.9778  131.0967  155.3624 H   0  0  0  0  0  0  0  0  0  0  0  0
  1  2  1  0  0  0  0
  1 26  1  0  0  0  0
  1 27  1  0  0  0  0
  1 28  1  0  0  0  0
  2  3  1  0  0  0  0
  2 29  1  0  0  0  0
  2 30  1  0  0  0  0
  3  8  1  0  0  0  0
  3  4  1  0  0  0  0
  3 31  1  0  0  0  0
  4  5  1  0  0  0  0
  4 32  1  0  0  0  0
  4 33  1  0  0  0  0
  5  6  1  0  0  0  0
  5 34  1  0  0  0  0
  5 35  1  0  0  0  0
  6  7  1  0  0  0  0
  6  8  1  0  0  0  0
  6 36  1  0  0  0  0
  7 37  1  0  0  0  0
  7 38  1  0  0  0  0
  7 39  1  0  0  0  0
  8  9  1  0  0  0  0
  9 14  1  0  0  0  0
  9 10  2  0  0  0  0
 10 11  1  0  0  0  0
 11 12  2  0  0  0  0
 11 40  1  0  0  0  0
 12 13  1  0  0  0  0
 13 17  1  0  0  0  0
 13 14  2  0  0  0  0
 14 15  1  0  0  0  0
 15 16  2  0  0  0  0
 16 17  1  0  0  0  0
 16 41  1  0  0  0  0
 17 18  1  0  0  0  0
 18 19  1  0  0  0  0
 18 42  1  0  0  0  0
 18 43  1  0  0  0  0
 19 20  1  0  0  0  0
 19 21  1  0  0  0  0
 19 44  1  0  0  0  0
 20 45  1  0  0  0  0
 21 25  1  0  0  0  0
 21 22  1  0  0  0  0
 21 46  1  0  0  0  0
 22 23  1  0  0  0  0
 22 47  1  0  0  0  0
 22 48  1  0  0  0  0
 23 24  1  0  0  0  0
 23 49  1  0  0  0  0
 23 50  1  0  0  0  0
 24 25  1  0  0  0  0
 24 51  1  0  0  0  0
 24 52  1  0  0  0  0
M  END
> <s_m_source_file>
AV-unprocessed.smi

> <i_m_source_file_index>
232

> <i_lp_mmshare_version>
43012

> <i_f3d_flags>
0

> <s_epik_input>
W0NIM11bQ0gyXVtDQEBIXTFbQ0gyXVtDSDJdW0NAQEhdKFtDSDNdKU4xYyhuW2NIXW4yKWMoYzIzKW5bY0hdbjNbQ0gyXVtDQEhdKFtPSF0pW0NAQEhdNFtDSDJdW0NIMl1bQ0gyXU80

> <s_epik_cmdline>
J2VwaWtfcHl0aG9uJywgJy1waCcsICc3LjAnLCAnLXRuJywgJzgnLCAnLW1hJywgJzIwMCcsICctbWV0YWxfYmluZGluZycsICctaW1hZScsICc8aW5maWxlLm1hZT4nLCAnLW9tYWUnLCAnPG91dGZpbGUubWFlPic=

> <r_lp_tautomer_probability>
1

> <r_epik_Ionization_Penalty>
0.00258048

> <r_epik_Ionization_Penalty_Charging>
0

> <r_epik_Ionization_Penalty_Neutral>
0.00258048

> <r_epik_State_Penalty>
0.00168551

> <r_epik_Charging_Adjusted_Penalty>
0.00168551

> <i_epik_Tot_Q>
0

> <i_epik_Tot_abs_Q>
0

> <r_epik_Metal_State_Penalty>
-0

> <b_epik_Metal_Only>
0

> <s_lp_Force_Field>
OPLS_2005

> <r_lp_Energy>
55.4366

> <b_lp_Chiralities_Consistent>
1

> <s_lp_Variant>
AV-unprocessed.smi:232-16

> <Gold.Version>
5.8.1

> <Gold.Id.Protein>
6NUR|6NUR_protein|mol2

> <Gold.PLP.Fitness>
48.5687

> <Gold.PLP.PLP>
-40.1401

> <Gold.PLP.part.hbond>
-2.0000

> <Gold.PLP.part.metal>
0.0000

> <Gold.PLP.part.buried>
-1.9396

> <Gold.PLP.part.nonpolar>
-33.5152

> <Gold.PLP.part.repulsive>
0.0800

> <Gold.PLP.ligand.clash>
0.0000

> <Gold.PLP.ligand.torsion>
0.3017

> <Gold.PLP.Chemscore.Hbond>
1.9588

> <Gold.PLP.Chemscore.CHOScore>
0.9495

> <Gold.PLP.Chemscore.Metal>
0.0000

> <Gold.Chemscore.Hbonds>
donor molecule, donor type, donor heavy atom, donor atom, acceptor molecule, acceptor atom, score
      L1  H    20    45       P1  7948  1.00
      P1  H  7989  7998       L1    15  0.88
      L1  C    16    41       P1  7949  0.94

> <Gold.PLP.Chemscore.Internal.Correction>
0.3073

> <Gold.Rescore>
     Score         DG    S(hbond)    S(metal)    S(lipo)     H(rot)  DE(clash)    DE(int)     intcor
     15.79     -17.45       1.84        0.00     102.85       2.43       1.28       0.38       ----

> <Gold.Chemscore.Fitness>
15.7897

> <Gold.Chemscore.DG>
-17.4486

> <Gold.Chemscore.ZeroCoef>
-5.4800

> <Gold.Chemscore.Hbond>
1.8402

> <Gold.Chemscore.Metal>
0.0000

> <Gold.Chemscore.Lipo>
102.8470

> <Gold.Chemscore.Internal_Hbond>
0.0000

> <Gold.Chemscore.DEClash>
1.2752

> <Gold.Chemscore.DEInternal>
0.3837

> <Gold.Chemscore.Rot>
2.4260

> <Gold.Chemscore.Internal.Correction>
   9.000000E+99

> <Gold.Chemscore.Hbonds>
donor molecule, donor type, donor heavy atom, donor atom, acceptor molecule, acceptor atom, score
      L1  H    20    45       P1  7948  1.00
      P1  H  7989  7998       L1    15  0.82

> <Gold.Chemscore.Hbond.Weighted>
-6.1462

> <Gold.Chemscore.Metal.Weighted>
-0.0000

> <Gold.Chemscore.Lipo.Weighted>
-12.0331

> <Gold.Chemscore.Internal_Hbond.Weighted>
0.0000

> <Gold.Chemscore.DEClash.Weighted>
1.2752

> <Gold.Chemscore.DEInternal.Weighted>
0.3837

> <Gold.Chemscore.Rot.Weighted>
6.2107

> <Gold.Chemscore.Internal.Correction.Weighted>
   9.000000E+99

> <Gold.Protein.RotatedTorsions>
[ 6907 6896 6895 6894 ] final   47.73 input  -60.11 | X-H torsion
[ 7974 7965 7964 7962 ] final -107.30 input  175.53 | X-H torsion
[ 8008 7997 7996 7995 ] final   95.37 input   59.86 | X-H torsion
[ 10167 10162 10161 10158 ] final   84.47 input  -65.29 | X-H torsion
[ 10718 10713 10712 10709 ] final   95.39 input   66.30 | X-H torsion
[ 10763 10752 10751 10750 ] final   86.27 input  -60.55 | X-H torsion
[ 11005 11000 10999 10996 ] final   -2.11 input  -57.11 | X-H torsion

> <Gold.Protein.ActiveResidues>
 VAL166  LYS551  ARG553  GLY616  TRP617  ASP618  TYR619  PRO620  LYS621  CYS622 
 ASP623  PHE694  ASN695  SER759  ASP760  ASP761  ALA762  ILE779  LEU786  VAL792 
 PHE793  MET794  SER795  GLU796  ALA797  LYS798  CYS799  TRP800  GLU811  SER814 

> <Gold.Protein.RotatedAtoms>
  152.2714  134.7928  160.0413 H   0  0  0  0  0  0  0  0  0  0  0  0  # atno 6907 bound_to 6896
  151.8539  133.3439  159.3690 H   0  0  0  0  0  0  0  0  0  0  0  0  # atno 6908 bound_to 6896
  150.7153  134.5200  159.5693 H   0  0  0  0  0  0  0  0  0  0  0  0  # atno 6909 bound_to 6896
  145.2070  140.9080  143.3336 H   0  0  0  0  0  0  0  0  0  0  0  0  # atno 7974 bound_to 7965
  156.0682  140.3287  155.7543 H   0  0  0  0  0  0  0  0  0  0  0  0  # atno 8008 bound_to 7997
  155.5348  140.0596  157.2899 H   0  0  0  0  0  0  0  0  0  0  0  0  # atno 8009 bound_to 7997
  154.4516  140.1921  156.0520 H   0  0  0  0  0  0  0  0  0  0  0  0  # atno 8010 bound_to 7997
  139.9077  144.6291  150.8570 H   0  0  0  0  0  0  0  0  0  0  0  0  # atno 10167 bound_to 10162
  157.6939  131.0544  150.4332 H   0  0  0  0  0  0  0  0  0  0  0  0  # atno 10718 bound_to 10713
  153.1555  135.4586  154.9698 H   0  0  0  0  0  0  0  0  0  0  0  0  # atno 10763 bound_to 10752
  154.7858  135.3203  154.7892 H   0  0  0  0  0  0  0  0  0  0  0  0  # atno 10764 bound_to 10752
  153.8391  135.6932  153.4859 H   0  0  0  0  0  0  0  0  0  0  0  0  # atno 10765 bound_to 10752
  140.6548  133.9373  155.8401 H   0  0  0  0  0  0  0  0  0  0  0  0  # atno 11005 bound_to 11000
  144.9892  139.3706  143.6223 LP  0  0  0  0  0  0  0  0  0  0  0  0  # atno 17320 bound_to 7965
  146.3405  139.9067  142.8786 LP  0  0  0  0  0  0  0  0  0  0  0  0  # atno 17321 bound_to 7965
  140.7692  143.3389  151.2250 LP  0  0  0  0  0  0  0  0  0  0  0  0  # atno 17342 bound_to 10162
  139.6970  143.9596  152.2887 LP  0  0  0  0  0  0  0  0  0  0  0  0  # atno 17343 bound_to 10162
  156.4697  130.4050  149.6526 LP  0  0  0  0  0  0  0  0  0  0  0  0  # atno 17370 bound_to 10713
  156.3611  130.7482  151.2454 LP  0  0  0  0  0  0  0  0  0  0  0  0  # atno 17371 bound_to 10713
  141.0510  134.0485  157.3784 LP  0  0  0  0  0  0  0  0  0  0  0  0  # atno 17394 bound_to 11000
  139.9033  135.0172  156.7372 LP  0  0  0  0  0  0  0  0  0  0  0  0  # atno 17395 bound_to 11000

$$$$
