AV-unprocessed.smi:1422|AV-procd|sdf|5793|dock8
  -GOLD-   22720 5443D 1   1.00000     0.00000
 Structure written by MMmdl.
 31 32  0  0  0  0  0  0  0  0  1 V2000
  153.6090  142.9912  163.8984 C   0  0  0  0  0  0  0  0  0  0  0  0
  153.3576  142.5095  162.5108 C   0  0  0  0  0  0  0  0  0  0  0  0
  152.4089  142.8180  161.5770 C   0  0  0  0  0  0  0  0  0  0  0  0
  152.7599  141.9892  160.4782 C   0  0  0  0  0  0  0  0  0  0  0  0
  152.0040  142.0124  159.2786 N   0  0  0  0  0  0  0  0  0  0  0  0
  152.0891  141.1636  158.2403 C   0  0  0  0  0  0  0  0  0  0  0  0
  152.8587  140.2049  158.1696 O   0  0  0  0  0  0  0  0  0  0  0  0
  151.2221  141.4922  157.2713 N   0  0  0  0  0  0  0  0  0  0  0  0
  151.0559  140.7808  156.0075 C   0  0  0  0  0  0  0  0  0  0  0  0
  149.9671  141.4209  155.1260 C   0  0  1  0  0  0  0  0  0  0  0  0
  149.4536  140.5504  153.9949 C   0  0  0  0  0  0  0  0  0  0  0  0
  148.1242  141.2192  153.6571 C   0  0  0  0  0  0  0  0  0  0  0  0
  147.6571  141.7995  154.8718 O   0  0  0  0  0  0  0  0  0  0  0  0
  148.6668  141.7153  155.8726 C   0  0  0  0  0  0  0  0  0  0  0  0
  153.8262  141.2420  160.7196 N   0  0  0  0  0  0  0  0  0  0  0  0
  154.2144  141.5713  162.0237 O   0  0  0  0  0  0  0  0  0  0  0  0
  153.0788  143.9245  164.0887 H   0  0  0  0  0  0  0  0  0  0  0  0
  154.6723  143.1688  164.0610 H   0  0  0  0  0  0  0  0  0  0  0  0
  153.2724  142.2553  164.6288 H   0  0  0  0  0  0  0  0  0  0  0  0
  151.5962  143.5230  161.6690 H   0  0  0  0  0  0  0  0  0  0  0  0
  151.3249  142.7551  159.2032 H   0  0  0  0  0  0  0  0  0  0  0  0
  150.6300  142.2967  157.4175 H   0  0  0  0  0  0  0  0  0  0  0  0
  152.0027  140.7188  155.4681 H   0  0  0  0  0  0  0  0  0  0  0  0
  150.7737  139.7543  156.2422 H   0  0  0  0  0  0  0  0  0  0  0  0
  150.3432  142.3551  154.7052 H   0  0  0  0  0  0  0  0  0  0  0  0
  150.1319  140.5044  153.1424 H   0  0  0  0  0  0  0  0  0  0  0  0
  149.2801  139.5325  154.3476 H   0  0  0  0  0  0  0  0  0  0  0  0
  148.2739  142.0172  152.9291 H   0  0  0  0  0  0  0  0  0  0  0  0
  147.3992  140.5168  153.2454 H   0  0  0  0  0  0  0  0  0  0  0  0
  148.4142  140.8950  156.5461 H   0  0  0  0  0  0  0  0  0  0  0  0
  148.7205  142.6310  156.4617 H   0  0  0  0  0  0  0  0  0  0  0  0
  1  2  1  0  0  0  0
  1 17  1  0  0  0  0
  1 18  1  0  0  0  0
  1 19  1  0  0  0  0
  2 16  1  0  0  0  0
  2  3  2  0  0  0  0
  3  4  1  0  0  0  0
  3 20  1  0  0  0  0
  4  5  1  0  0  0  0
  4 15  2  0  0  0  0
  5  6  1  0  0  0  0
  5 21  1  0  0  0  0
  6  7  2  0  0  0  0
  6  8  1  0  0  0  0
  8  9  1  0  0  0  0
  8 22  1  0  0  0  0
  9 10  1  0  0  0  0
  9 23  1  0  0  0  0
  9 24  1  0  0  0  0
 10 14  1  0  0  0  0
 10 11  1  0  0  0  0
 10 25  1  0  0  0  0
 11 12  1  0  0  0  0
 11 26  1  0  0  0  0
 11 27  1  0  0  0  0
 12 13  1  0  0  0  0
 12 28  1  0  0  0  0
 12 29  1  0  0  0  0
 13 14  1  0  0  0  0
 14 30  1  0  0  0  0
 14 31  1  0  0  0  0
 15 16  1  0  0  0  0
M  END
> <s_m_source_file>
AV-unprocessed.smi

> <i_m_source_file_index>
1422

> <i_lp_mmshare_version>
43012

> <i_f3d_flags>
0

> <s_epik_input>
W0NIM11jMVtjSF1jKG5vMSlbTkhdQyg9TylbTkhdW0NIMl1bQ0BASF0yW0NIMl1bQ0gyXU9bQ0gyXTI=

> <s_epik_cmdline>
J2VwaWtfcHl0aG9uJywgJy1waCcsICc3LjAnLCAnLXRuJywgJzgnLCAnLW1hJywgJzIwMCcsICctbWV0YWxfYmluZGluZycsICctaW1hZScsICc8aW5maWxlLm1hZT4nLCAnLW9tYWUnLCAnPG91dGZpbGUubWFlPic=

> <r_lp_tautomer_probability>
1

> <r_epik_Ionization_Penalty>
2.27275e-05

> <r_epik_Ionization_Penalty_Charging>
0

> <r_epik_Ionization_Penalty_Neutral>
2.27275e-05

> <r_epik_State_Penalty>
-0

> <r_epik_Charging_Adjusted_Penalty>
0

> <i_epik_Tot_Q>
0

> <i_epik_Tot_abs_Q>
0

> <r_epik_Metal_State_Penalty>
-0

> <b_epik_Metal_Only>
0

> <s_lp_Force_Field>
OPLS_2005

> <r_lp_Energy>
16.3124

> <b_lp_Chiralities_Consistent>
1

> <s_lp_Variant>
AV-unprocessed.smi:1422-2

> <Gold.Version>
5.8.1

> <Gold.Id.Protein>
6NUR|6NUR_protein|mol2

> <Gold.PLP.Fitness>
35.8754

> <Gold.PLP.PLP>
-33.2218

> <Gold.PLP.part.hbond>
-2.0000

> <Gold.PLP.part.metal>
0.0000

> <Gold.PLP.part.buried>
-1.5894

> <Gold.PLP.part.nonpolar>
-27.6248

> <Gold.PLP.part.repulsive>
0.2732

> <Gold.PLP.ligand.clash>
0.0000

> <Gold.PLP.ligand.torsion>
0.1271

> <Gold.PLP.Chemscore.Hbond>
0.9675

> <Gold.PLP.Chemscore.CHOScore>
0.0000

> <Gold.PLP.Chemscore.Metal>
0.0000

> <Gold.Chemscore.Hbonds>
donor molecule, donor type, donor heavy atom, donor atom, acceptor molecule, acceptor atom, score
      P1  H  7997  8009       L1     7  0.89

> <Gold.PLP.Chemscore.Internal.Correction>
0.0054

> <Gold.Rescore>
     Score         DG    S(hbond)    S(metal)    S(lipo)     H(rot)  DE(clash)    DE(int)     intcor
     11.50     -13.37       0.95        0.00      68.77       1.30       0.54       1.32       ----

> <Gold.Chemscore.Fitness>
11.5044

> <Gold.Chemscore.DG>
-13.3705

> <Gold.Chemscore.ZeroCoef>
-5.4800

> <Gold.Chemscore.Hbond>
0.9474

> <Gold.Chemscore.Metal>
0.0000

> <Gold.Chemscore.Lipo>
68.7652

> <Gold.Chemscore.Internal_Hbond>
0.0000

> <Gold.Chemscore.DEClash>
0.5445

> <Gold.Chemscore.DEInternal>
1.3216

> <Gold.Chemscore.Rot>
1.2965

> <Gold.Chemscore.Internal.Correction>
   9.000000E+99

> <Gold.Chemscore.Hbonds>
donor molecule, donor type, donor heavy atom, donor atom, acceptor molecule, acceptor atom, score
      P1  H  7997  8009       L1     7  0.81

> <Gold.Chemscore.Hbond.Weighted>
-3.1642

> <Gold.Chemscore.Metal.Weighted>
-0.0000

> <Gold.Chemscore.Lipo.Weighted>
-8.0455

> <Gold.Chemscore.Internal_Hbond.Weighted>
0.0000

> <Gold.Chemscore.DEClash.Weighted>
0.5445

> <Gold.Chemscore.DEInternal.Weighted>
1.3216

> <Gold.Chemscore.Rot.Weighted>
3.3192

> <Gold.Chemscore.Internal.Correction.Weighted>
   9.000000E+99

> <Gold.Protein.RotatedTorsions>
[ 6907 6896 6895 6894 ] final   23.64 input  -60.11 | X-H torsion
[ 7974 7965 7964 7962 ] final   -8.39 input  175.53 | X-H torsion
[ 8008 7997 7996 7995 ] final  162.03 input   59.86 | X-H torsion
[ 10167 10162 10161 10158 ] final   53.60 input  -65.29 | X-H torsion
[ 10718 10713 10712 10709 ] final  147.72 input   66.30 | X-H torsion
[ 10763 10752 10751 10750 ] final  -11.55 input  -60.55 | X-H torsion
[ 11005 11000 10999 10996 ] final   49.29 input  -57.11 | X-H torsion

> <Gold.Protein.ActiveResidues>
 VAL166  LYS551  ARG553  GLY616  TRP617  ASP618  TYR619  PRO620  LYS621  CYS622 
 ASP623  PHE694  ASN695  SER759  ASP760  ASP761  ALA762  ILE779  LEU786  VAL792 
 PHE793  MET794  SER795  GLU796  ALA797  LYS798  CYS799  TRP800  GLU811  SER814 

> <Gold.Protein.RotatedAtoms>
  151.9454  135.0194  160.0538 H   0  0  0  0  0  0  0  0  0  0  0  0  # atno 6907 bound_to 6896
  152.1999  133.4829  159.5061 H   0  0  0  0  0  0  0  0  0  0  0  0  # atno 6908 bound_to 6896
  150.6952  134.1520  159.4187 H   0  0  0  0  0  0  0  0  0  0  0  0  # atno 6909 bound_to 6896
  146.2281  140.2461  142.8345 H   0  0  0  0  0  0  0  0  0  0  0  0  # atno 7974 bound_to 7965
  156.2061  140.1761  156.7796 H   0  0  0  0  0  0  0  0  0  0  0  0  # atno 8008 bound_to 7997
  154.5657  140.0691  156.8918 H   0  0  0  0  0  0  0  0  0  0  0  0  # atno 8009 bound_to 7997
  155.2765  140.3346  155.4264 H   0  0  0  0  0  0  0  0  0  0  0  0  # atno 8010 bound_to 7997
  140.2390  144.3604  150.6387 H   0  0  0  0  0  0  0  0  0  0  0  0  # atno 10167 bound_to 10162
  157.3175  131.0898  151.1267 H   0  0  0  0  0  0  0  0  0  0  0  0  # atno 10718 bound_to 10713
  153.4855  135.7017  153.5914 H   0  0  0  0  0  0  0  0  0  0  0  0  # atno 10763 bound_to 10752
  153.4109  135.3849  155.2049 H   0  0  0  0  0  0  0  0  0  0  0  0  # atno 10764 bound_to 10752
  154.8719  135.3904  154.4309 H   0  0  0  0  0  0  0  0  0  0  0  0  # atno 10765 bound_to 10752
  140.1117  134.4946  155.8672 H   0  0  0  0  0  0  0  0  0  0  0  0  # atno 11005 bound_to 11000
  144.9447  140.8116  143.5609 LP  0  0  0  0  0  0  0  0  0  0  0  0  # atno 17320 bound_to 7965
  145.2416  139.2070  143.4990 LP  0  0  0  0  0  0  0  0  0  0  0  0  # atno 17321 bound_to 7965
  140.6128  143.2170  151.6852 LP  0  0  0  0  0  0  0  0  0  0  0  0  # atno 17342 bound_to 10162
  139.5084  144.3613  152.0559 LP  0  0  0  0  0  0  0  0  0  0  0  0  # atno 17343 bound_to 10162
  157.2565  130.6638  149.5955 LP  0  0  0  0  0  0  0  0  0  0  0  0  # atno 17370 bound_to 10713
  155.9683  130.4522  150.5765 LP  0  0  0  0  0  0  0  0  0  0  0  0  # atno 17371 bound_to 10713
  141.2131  133.6729  156.6717 LP  0  0  0  0  0  0  0  0  0  0  0  0  # atno 17394 bound_to 11000
  140.3083  134.8107  157.4155 LP  0  0  0  0  0  0  0  0  0  0  0  0  # atno 17395 bound_to 11000

$$$$
