AV-unprocessed.smi:2083|AV-procd|sdf|8508|dock5
  -GOLD-   2272011223D 1   1.00000     0.00000
 Structure written by MMmdl.
 44 45  0  0  0  0  0  0  0  0  3 V2000
  152.5731  142.3999  161.1689 C   0  0  0  0  0  0  0  0  0  0  0  0
  152.3818  141.6462  159.8978 C   0  0  0  0  0  0  0  0  0  0  0  0
  151.5555  141.8267  158.8247 C   0  0  0  0  0  0  0  0  0  0  0  0
  151.8971  140.7446  157.9704 C   0  0  0  0  0  0  0  0  0  0  0  0
  151.2469  140.5772  156.7190 N   0  0  0  0  0  0  0  0  0  0  0  0
  151.6513  139.8705  155.6474 C   0  0  0  0  0  0  0  0  0  0  0  0
  152.7085  139.2297  155.6854 O   0  0  0  0  0  0  0  0  0  0  0  0
  150.7801  139.9701  154.6061 N   0  5  0  0  0  0  0  0  0  0  0  0
  149.6092  139.1141  154.4157 C   0  0  0  0  0  0  0  0  0  0  0  0
  148.6875  139.6944  153.3110 C   0  0  2  0  0  0  0  0  0  0  0  0
  148.1003  141.0909  153.6379 C   0  0  0  0  0  0  0  0  0  0  0  0
  147.6394  138.6978  152.9265 N   0  3  2  0  0  0  0  0  0  0  0  0
  146.9389  139.0390  151.6597 C   0  0  0  0  0  0  0  0  0  0  0  0
  146.0954  137.8536  151.1628 C   0  0  0  0  0  0  0  0  0  0  0  0
  145.1047  137.3852  152.2387 C   0  0  0  0  0  0  0  0  0  0  0  0
  145.8193  137.0976  153.5728 C   0  0  1  0  0  0  0  0  0  0  0  0
  146.6369  135.7942  153.5463 C   0  0  0  0  0  0  0  0  0  0  0  0
  146.6721  138.3102  153.9969 C   0  0  0  0  0  0  0  0  0  0  0  0
  152.8478  139.9738  158.4778 N   0  0  0  0  0  0  0  0  0  0  0  0
  153.1626  140.5473  159.7153 O   0  0  0  0  0  0  0  0  0  0  0  0
  151.8264  143.1877  161.2710 H   0  0  0  0  0  0  0  0  0  0  0  0
  153.5594  142.8630  161.1980 H   0  0  0  0  0  0  0  0  0  0  0  0
  152.4841  141.7364  162.0290 H   0  0  0  0  0  0  0  0  0  0  0  0
  150.8253  142.6080  158.6758 H   0  0  0  0  0  0  0  0  0  0  0  0
  150.3696  141.0649  156.6156 H   0  0  0  0  0  0  0  0  0  0  0  0
  149.8952  138.1028  154.1211 H   0  0  0  0  0  0  0  0  0  0  0  0
  149.0379  138.9979  155.3371 H   0  0  0  0  0  0  0  0  0  0  0  0
  149.3286  139.8250  152.4373 H   0  0  0  0  0  0  0  0  0  0  0  0
  148.8832  141.8407  153.7652 H   0  0  0  0  0  0  0  0  0  0  0  0
  147.4990  141.0948  154.5488 H   0  0  0  0  0  0  0  0  0  0  0  0
  147.4653  141.4438  152.8252 H   0  0  0  0  0  0  0  0  0  0  0  0
  146.3096  139.9168  151.8133 H   0  0  0  0  0  0  0  0  0  0  0  0
  147.6627  139.2976  150.8860 H   0  0  0  0  0  0  0  0  0  0  0  0
  145.5548  138.1367  150.2593 H   0  0  0  0  0  0  0  0  0  0  0  0
  146.7520  137.0306  150.8786 H   0  0  0  0  0  0  0  0  0  0  0  0
  144.3558  138.1630  152.3937 H   0  0  0  0  0  0  0  0  0  0  0  0
  144.5617  136.5036  151.8962 H   0  0  0  0  0  0  0  0  0  0  0  0
  145.0469  136.9598  154.3306 H   0  0  0  0  0  0  0  0  0  0  0  0
  147.4563  135.8400  152.8290 H   0  0  0  0  0  0  0  0  0  0  0  0
  146.0091  134.9438  153.2793 H   0  0  0  0  0  0  0  0  0  0  0  0
  147.0703  135.5860  154.5249 H   0  0  0  0  0  0  0  0  0  0  0  0
  147.1931  138.0778  154.9264 H   0  0  0  0  0  0  0  0  0  0  0  0
  146.0125  139.1519  154.2130 H   0  0  0  0  0  0  0  0  0  0  0  0
  148.1645  137.8609  152.7154 H   0  0  0  0  0  0  0  0  0  0  0  0
  1  2  1  0  0  0  0
  1 21  1  0  0  0  0
  1 22  1  0  0  0  0
  1 23  1  0  0  0  0
  2 20  1  0  0  0  0
  2  3  2  0  0  0  0
  3  4  1  0  0  0  0
  3 24  1  0  0  0  0
  4  5  1  0  0  0  0
  4 19  2  0  0  0  0
  5  6  1  0  0  0  0
  5 25  1  0  0  0  0
  6  7  2  0  0  0  0
  6  8  1  0  0  0  0
  8  9  1  0  0  0  0
  9 10  1  0  0  0  0
  9 26  1  0  0  0  0
  9 27  1  0  0  0  0
 10 11  1  0  0  0  0
 10 12  1  0  0  0  0
 10 28  1  0  0  0  0
 11 29  1  0  0  0  0
 11 30  1  0  0  0  0
 11 31  1  0  0  0  0
 12 18  1  0  0  0  0
 12 13  1  0  0  0  0
 12 44  1  0  0  0  0
 13 14  1  0  0  0  0
 13 32  1  0  0  0  0
 13 33  1  0  0  0  0
 14 15  1  0  0  0  0
 14 34  1  0  0  0  0
 14 35  1  0  0  0  0
 15 16  1  0  0  0  0
 15 36  1  0  0  0  0
 15 37  1  0  0  0  0
 16 17  1  0  0  0  0
 16 18  1  0  0  0  0
 16 38  1  0  0  0  0
 17 39  1  0  0  0  0
 17 40  1  0  0  0  0
 17 41  1  0  0  0  0
 18 42  1  0  0  0  0
 18 43  1  0  0  0  0
 19 20  1  0  0  0  0
M  CHG  1   8  -1
M  CHG  1  12   1
M  END
> <s_m_source_file>
AV-unprocessed.smi

> <i_m_source_file_index>
2083

> <i_lp_mmshare_version>
43012

> <i_f3d_flags>
0

> <s_epik_input>
W0NIM11jMVtjSF1jKG5vMSlbTkhdQyg9TylbTkhdW0NIMl1bQ0BIXShbQ0gzXSlOMltDSDJdW0NIMl1bQ0gyXVtDQEBIXShbQ0gzXSlbQ0gyXTI=

> <s_epik_cmdline>
J2VwaWtfcHl0aG9uJywgJy1waCcsICc3LjAnLCAnLXRuJywgJzgnLCAnLW1hJywgJzIwMCcsICctbWV0YWxfYmluZGluZycsICctaW1hZScsICc8aW5maWxlLm1hZT4nLCAnLW9tYWUnLCAnPG91dGZpbGUubWFlPic=

> <r_epik_Ionization_Penalty>
6.76934

> <r_epik_Ionization_Penalty_Charging>
6.76934

> <r_epik_Ionization_Penalty_Neutral>
5.77849e-06

> <r_epik_State_Penalty>
6.79457

> <r_epik_Charging_Adjusted_Penalty>
13.5639

> <i_epik_Tot_Q>
0

> <i_epik_Tot_abs_Q>
2

> <r_epik_Metal_State_Penalty>
2.72837

> <b_epik_Metal_Only>
1

> <s_lp_Force_Field>
OPLS_2005

> <r_lp_Energy>
20.5905

> <b_lp_Chiralities_Consistent>
1

> <s_lp_Variant>
AV-unprocessed.smi:2083-19

> <Gold.Version>
5.8.1

> <Gold.Id.Protein>
6NUR|6NUR_protein|mol2

> <Gold.PLP.Fitness>
43.5617

> <Gold.PLP.PLP>
-33.3829

> <Gold.PLP.part.hbond>
-4.4105

> <Gold.PLP.part.metal>
0.0000

> <Gold.PLP.part.buried>
3.9854

> <Gold.PLP.part.nonpolar>
-32.2819

> <Gold.PLP.part.repulsive>
0.2266

> <Gold.PLP.ligand.clash>
0.0000

> <Gold.PLP.ligand.torsion>
0.9953

> <Gold.PLP.Chemscore.Hbond>
4.0000

> <Gold.PLP.Chemscore.CHOScore>
0.0000

> <Gold.PLP.Chemscore.Metal>
0.0000

> <Gold.Chemscore.Hbonds>
donor molecule, donor type, donor heavy atom, donor atom, acceptor molecule, acceptor atom, score
      L1  H    12    44       P1  7948  2.00
      P1  H  7989  7998       L1     8  1.00
      P1  H  7997  8008       L1     7  1.00

> <Gold.PLP.Chemscore.Internal.Correction>
0.1694

> <Gold.Rescore>
     Score         DG    S(hbond)    S(metal)    S(lipo)     H(rot)  DE(clash)    DE(int)     intcor
     15.79     -19.49       2.64        0.00      77.50       1.52       1.35       2.34       ----

> <Gold.Chemscore.Fitness>
15.7936

> <Gold.Chemscore.DG>
-19.4885

> <Gold.Chemscore.ZeroCoef>
-5.4800

> <Gold.Chemscore.Hbond>
2.6435

> <Gold.Chemscore.Metal>
0.0000

> <Gold.Chemscore.Lipo>
77.5021

> <Gold.Chemscore.Internal_Hbond>
0.0000

> <Gold.Chemscore.DEClash>
1.3506

> <Gold.Chemscore.DEInternal>
2.3442

> <Gold.Chemscore.Rot>
1.5190

> <Gold.Chemscore.Internal.Correction>
   9.000000E+99

> <Gold.Chemscore.Hbonds>
donor molecule, donor type, donor heavy atom, donor atom, acceptor molecule, acceptor atom, score
      L1  H    12    44       P1  7948  0.97
      P1  H  7989  7998       L1     8  0.40
      P1  H  7997  8008       L1     7  0.96

> <Gold.Chemscore.Hbond.Weighted>
-8.8294

> <Gold.Chemscore.Metal.Weighted>
-0.0000

> <Gold.Chemscore.Lipo.Weighted>
-9.0677

> <Gold.Chemscore.Internal_Hbond.Weighted>
0.0000

> <Gold.Chemscore.DEClash.Weighted>
1.3506

> <Gold.Chemscore.DEInternal.Weighted>
2.3442

> <Gold.Chemscore.Rot.Weighted>
3.8886

> <Gold.Chemscore.Internal.Correction.Weighted>
   9.000000E+99

> <Gold.Protein.RotatedTorsions>
[ 6907 6896 6895 6894 ] final  -84.52 input  -60.11 | X-H torsion
[ 7974 7965 7964 7962 ] final -110.82 input  175.53 | X-H torsion
[ 8008 7997 7996 7995 ] final  -35.37 input   59.86 | X-H torsion
[ 10167 10162 10161 10158 ] final -149.01 input  -65.29 | X-H torsion
[ 10718 10713 10712 10709 ] final   74.85 input   66.30 | X-H torsion
[ 10763 10752 10751 10750 ] final    7.16 input  -60.55 | X-H torsion
[ 11005 11000 10999 10996 ] final   86.78 input  -57.11 | X-H torsion

> <Gold.Protein.ActiveResidues>
 VAL166  LYS551  ARG553  GLY616  TRP617  ASP618  TYR619  PRO620  LYS621  CYS622 
 ASP623  PHE694  ASN695  SER759  ASP760  ASP761  ALA762  ILE779  LEU786  VAL792 
 PHE793  MET794  SER795  GLU796  ALA797  LYS798  CYS799  TRP800  GLU811  SER814 

> <Gold.Protein.RotatedAtoms>
  150.6876  134.3345  159.4841 H   0  0  0  0  0  0  0  0  0  0  0  0  # atno 6907 bound_to 6896
  152.1206  134.9206  160.0572 H   0  0  0  0  0  0  0  0  0  0  0  0  # atno 6908 bound_to 6896
  152.0413  133.3944  159.4375 H   0  0  0  0  0  0  0  0  0  0  0  0  # atno 6909 bound_to 6896
  145.1636  140.8891  143.3576 H   0  0  0  0  0  0  0  0  0  0  0  0  # atno 7974 bound_to 7965
  154.4097  140.1659  156.2201 H   0  0  0  0  0  0  0  0  0  0  0  0  # atno 8008 bound_to 7997
  155.9371  140.3410  155.6273 H   0  0  0  0  0  0  0  0  0  0  0  0  # atno 8009 bound_to 7997
  155.7035  140.0748  157.2391 H   0  0  0  0  0  0  0  0  0  0  0  0  # atno 8010 bound_to 7997
  139.7480  143.8560  152.2579 H   0  0  0  0  0  0  0  0  0  0  0  0  # atno 10167 bound_to 10162
  157.6610  130.9698  150.1270 H   0  0  0  0  0  0  0  0  0  0  0  0  # atno 10718 bound_to 10713
  153.2395  135.6902  153.7799 H   0  0  0  0  0  0  0  0  0  0  0  0  # atno 10763 bound_to 10752
  153.6934  135.3309  155.3208 H   0  0  0  0  0  0  0  0  0  0  0  0  # atno 10764 bound_to 10752
  154.8349  135.4550  154.1311 H   0  0  0  0  0  0  0  0  0  0  0  0  # atno 10765 bound_to 10752
  139.8936  134.8378  156.2768 H   0  0  0  0  0  0  0  0  0  0  0  0  # atno 11005 bound_to 11000
  145.0305  139.3345  143.6027 LP  0  0  0  0  0  0  0  0  0  0  0  0  # atno 17320 bound_to 7965
  146.3479  139.9641  142.8714 LP  0  0  0  0  0  0  0  0  0  0  0  0  # atno 17321 bound_to 7965
  139.8531  144.7155  150.9190 LP  0  0  0  0  0  0  0  0  0  0  0  0  # atno 17342 bound_to 10162
  140.7794  143.3882  151.1356 LP  0  0  0  0  0  0  0  0  0  0  0  0  # atno 17343 bound_to 10162
  156.2127  130.3668  149.8651 LP  0  0  0  0  0  0  0  0  0  0  0  0  # atno 17370 bound_to 10713
  156.6525  130.8749  151.3534 LP  0  0  0  0  0  0  0  0  0  0  0  0  # atno 17371 bound_to 10713
  141.0065  133.7121  156.1043 LP  0  0  0  0  0  0  0  0  0  0  0  0  # atno 17394 bound_to 11000
  140.7427  134.4133  157.5552 LP  0  0  0  0  0  0  0  0  0  0  0  0  # atno 17395 bound_to 11000

$$$$
