AV-unprocessed.smi:3094|AV-procd|sdf|11788|dock1
  -GOLD-   2272017163D 1   1.00000     0.00000
 Structure written by MMmdl.
 30 31  0  0  0  0  0  0  0  0  2 V2000
  149.4122  140.5208  157.3113 C   0  0  0  0  0  0  0  0  0  0  0  0
  150.2645  141.2421  156.2584 C   0  0  2  0  0  0  0  0  0  0  0  0
  151.5733  140.4727  155.9769 C   0  0  0  0  0  0  0  0  0  0  0  0
  151.3439  139.1571  155.3703 N   0  0  0  0  0  0  0  0  0  0  0  0
  151.7519  137.9397  155.8517 C   0  0  0  0  0  0  0  0  0  0  0  0
  151.3016  136.9972  154.9636 C   0  0  0  0  0  0  0  0  0  0  0  0
  150.6430  137.6789  153.9755 N   0  3  0  0  0  0  0  0  0  0  0  0
  150.6740  138.9926  154.2220 C   0  0  0  0  0  0  0  0  0  0  0  0
  150.5396  142.6007  156.7252 N   0  0  0  0  0  0  0  0  0  0  0  0
  151.2795  142.9306  157.7959 C   0  0  0  0  0  0  0  0  0  0  0  0
  151.8069  142.0954  158.5322 O   0  0  0  0  0  0  0  0  0  0  0  0
  151.3899  144.4020  158.0249 C   0  0  0  0  0  0  0  0  0  0  0  0
  152.3747  144.8813  159.0720 C   0  0  0  0  0  0  0  0  0  0  0  0
  150.8938  144.9414  159.3507 C   0  0  0  0  0  0  0  0  0  0  0  0
  149.1539  139.5133  156.9842 H   0  0  0  0  0  0  0  0  0  0  0  0
  148.4788  141.0547  157.4942 H   0  0  0  0  0  0  0  0  0  0  0  0
  149.9400  140.4362  158.2620 H   0  0  0  0  0  0  0  0  0  0  0  0
  149.6737  141.2819  155.3413 H   0  0  0  0  0  0  0  0  0  0  0  0
  152.2344  141.0493  155.3277 H   0  0  0  0  0  0  0  0  0  0  0  0
  152.1171  140.3013  156.9069 H   0  0  0  0  0  0  0  0  0  0  0  0
  152.3109  137.8369  156.7705 H   0  0  0  0  0  0  0  0  0  0  0  0
  151.3969  135.9210  154.9615 H   0  0  0  0  0  0  0  0  0  0  0  0
  150.2338  139.7663  153.6184 H   0  0  0  0  0  0  0  0  0  0  0  0
  150.1468  143.3539  156.1786 H   0  0  0  0  0  0  0  0  0  0  0  0
  151.2480  145.0424  157.1553 H   0  0  0  0  0  0  0  0  0  0  0  0
  152.9568  144.1411  159.6184 H   0  0  0  0  0  0  0  0  0  0  0  0
  152.8949  145.8154  158.8697 H   0  0  0  0  0  0  0  0  0  0  0  0
  150.4109  145.9163  159.3363 H   0  0  0  0  0  0  0  0  0  0  0  0
  150.4928  144.2403  160.0805 H   0  0  0  0  0  0  0  0  0  0  0  0
  150.1948  137.2527  153.1742 H   0  0  0  0  0  0  0  0  0  0  0  0
  1  2  1  0  0  0  0
  1 15  1  0  0  0  0
  1 16  1  0  0  0  0
  1 17  1  0  0  0  0
  2  3  1  0  0  0  0
  2  9  1  0  0  0  0
  2 18  1  0  0  0  0
  3  4  1  0  0  0  0
  3 19  1  0  0  0  0
  3 20  1  0  0  0  0
  4  8  1  0  0  0  0
  4  5  1  0  0  0  0
  5  6  2  0  0  0  0
  5 21  1  0  0  0  0
  6  7  1  0  0  0  0
  6 22  1  0  0  0  0
  7  8  2  0  0  0  0
  7 30  1  0  0  0  0
  8 23  1  0  0  0  0
  9 10  1  0  0  0  0
  9 24  1  0  0  0  0
 10 11  2  0  0  0  0
 10 12  1  0  0  0  0
 12 14  1  0  0  0  0
 12 13  1  0  0  0  0
 12 25  1  0  0  0  0
 13 14  1  0  0  0  0
 13 26  1  0  0  0  0
 13 27  1  0  0  0  0
 14 28  1  0  0  0  0
 14 29  1  0  0  0  0
M  CHG  1   7   1
M  END
> <s_m_source_file>
AV-unprocessed.smi

> <i_m_source_file_index>
3094

> <i_lp_mmshare_version>
43012

> <i_f3d_flags>
0

> <s_epik_input>
W0NIMl0xW0NIMl1bQ0hdMUMoPU8pW05IXVtDQEhdKFtDSDNdKVtDSDJdbjJbY0hdW2NIXW5bY0hdMg==

> <s_epik_cmdline>
J2VwaWtfcHl0aG9uJywgJy1waCcsICc3LjAnLCAnLXRuJywgJzgnLCAnLW1hJywgJzIwMCcsICctbWV0YWxfYmluZGluZycsICctaW1hZScsICc8aW5maWxlLm1hZT4nLCAnLW9tYWUnLCAnPG91dGZpbGUubWFlPic=

> <r_lp_tautomer_probability>
1

> <r_epik_Ionization_Penalty>
0.244425

> <r_epik_Ionization_Penalty_Charging>
0

> <r_epik_Ionization_Penalty_Neutral>
0.244425

> <r_epik_State_Penalty>
0.23553

> <r_epik_Charging_Adjusted_Penalty>
0.23553

> <i_epik_Tot_Q>
1

> <i_epik_Tot_abs_Q>
1

> <r_epik_Metal_State_Penalty>
0.528799

> <b_epik_Metal_Only>
0

> <s_lp_Force_Field>
OPLS_2005

> <r_lp_Energy>
8.8376

> <b_lp_Chiralities_Consistent>
1

> <s_lp_Variant>
AV-unprocessed.smi:3094-1

> <Gold.Version>
5.8.1

> <Gold.Id.Protein>
6NUR|6NUR_protein|mol2

> <Gold.PLP.Fitness>
44.9146

> <Gold.PLP.PLP>
-33.3364

> <Gold.PLP.part.hbond>
-3.0000

> <Gold.PLP.part.metal>
0.0000

> <Gold.PLP.part.buried>
-2.4281

> <Gold.PLP.part.nonpolar>
-27.4924

> <Gold.PLP.part.repulsive>
0.1308

> <Gold.PLP.ligand.clash>
0.0000

> <Gold.PLP.ligand.torsion>
0.1334

> <Gold.PLP.Chemscore.Hbond>
3.0000

> <Gold.PLP.Chemscore.CHOScore>
0.9171

> <Gold.PLP.Chemscore.Metal>
0.0000

> <Gold.Chemscore.Hbonds>
donor molecule, donor type, donor heavy atom, donor atom, acceptor molecule, acceptor atom, score
      L1  H     7    30       P1  7948  1.40
      L1  H     9    24       P1  8028  1.00
      L1  C     8    23       P1  7957  0.97

> <Gold.PLP.Chemscore.Internal.Correction>
0.0936

> <Gold.Rescore>
     Score         DG    S(hbond)    S(metal)    S(lipo)     H(rot)  DE(clash)    DE(int)     intcor
     13.22     -15.38       1.93        0.00      71.09       1.90       1.02       1.14       ----

> <Gold.Chemscore.Fitness>
13.2207

> <Gold.Chemscore.DG>
-15.3814

> <Gold.Chemscore.ZeroCoef>
-5.4800

> <Gold.Chemscore.Hbond>
1.9319

> <Gold.Chemscore.Metal>
0.0000

> <Gold.Chemscore.Lipo>
71.0914

> <Gold.Chemscore.Internal_Hbond>
0.0000

> <Gold.Chemscore.DEClash>
1.0162

> <Gold.Chemscore.DEInternal>
1.1444

> <Gold.Chemscore.Rot>
1.9019

> <Gold.Chemscore.Internal.Correction>
   9.000000E+99

> <Gold.Chemscore.Hbonds>
donor molecule, donor type, donor heavy atom, donor atom, acceptor molecule, acceptor atom, score
      L1  H     7    30       P1  7948  0.07
      L1  H     9    24       P1  8028  0.99

> <Gold.Chemscore.Hbond.Weighted>
-6.4526

> <Gold.Chemscore.Metal.Weighted>
-0.0000

> <Gold.Chemscore.Lipo.Weighted>
-8.3177

> <Gold.Chemscore.Internal_Hbond.Weighted>
0.0000

> <Gold.Chemscore.DEClash.Weighted>
1.0162

> <Gold.Chemscore.DEInternal.Weighted>
1.1444

> <Gold.Chemscore.Rot.Weighted>
4.8689

> <Gold.Chemscore.Internal.Correction.Weighted>
   9.000000E+99

> <Gold.Protein.RotatedTorsions>
[ 6907 6896 6895 6894 ] final  116.83 input  -60.11 | X-H torsion
[ 7974 7965 7964 7962 ] final  -45.70 input  175.53 | X-H torsion
[ 8008 7997 7996 7995 ] final  128.39 input   59.86 | X-H torsion
[ 10167 10162 10161 10158 ] final   60.85 input  -65.29 | X-H torsion
[ 10718 10713 10712 10709 ] final  -55.90 input   66.30 | X-H torsion
[ 10763 10752 10751 10750 ] final  -45.75 input  -60.55 | X-H torsion
[ 11005 11000 10999 10996 ] final   51.38 input  -57.11 | X-H torsion

> <Gold.Protein.ActiveResidues>
 VAL166  LYS551  ARG553  GLY616  TRP617  ASP618  TYR619  PRO620  LYS621  CYS622 
 ASP623  PHE694  ASN695  SER759  ASP760  ASP761  ALA762  ILE779  LEU786  VAL792 
 PHE793  MET794  SER795  GLU796  ALA797  LYS798  CYS799  TRP800  GLU811  SER814 

> <Gold.Protein.RotatedAtoms>
  152.4652  133.7907  159.6900 H   0  0  0  0  0  0  0  0  0  0  0  0  # atno 6907 bound_to 6896
  150.8613  133.7630  159.2998 H   0  0  0  0  0  0  0  0  0  0  0  0  # atno 6908 bound_to 6896
  151.5194  135.1070  159.9926 H   0  0  0  0  0  0  0  0  0  0  0  0  # atno 6909 bound_to 6896
  145.9794  140.7300  142.9371 H   0  0  0  0  0  0  0  0  0  0  0  0  # atno 7974 bound_to 7965
  156.2914  140.2646  156.2428 H   0  0  0  0  0  0  0  0  0  0  0  0  # atno 8008 bound_to 7997
  154.9960  140.0388  157.2358 H   0  0  0  0  0  0  0  0  0  0  0  0  # atno 8009 bound_to 7997
  154.7644  140.2766  155.6193 H   0  0  0  0  0  0  0  0  0  0  0  0  # atno 8010 bound_to 7997
  140.1611  144.4369  150.6709 H   0  0  0  0  0  0  0  0  0  0  0  0  # atno 10167 bound_to 10162
  156.1331  130.4158  150.0233 H   0  0  0  0  0  0  0  0  0  0  0  0  # atno 10718 bound_to 10713
  154.0337  135.6653  153.4783 H   0  0  0  0  0  0  0  0  0  0  0  0  # atno 10763 bound_to 10752
  153.0530  135.5073  154.7908 H   0  0  0  0  0  0  0  0  0  0  0  0  # atno 10764 bound_to 10752
  154.6862  135.3053  154.9509 H   0  0  0  0  0  0  0  0  0  0  0  0  # atno 10765 bound_to 10752
  140.0937  134.5174  155.8827 H   0  0  0  0  0  0  0  0  0  0  0  0  # atno 11005 bound_to 11000
  144.6857  140.2882  143.7282 LP  0  0  0  0  0  0  0  0  0  0  0  0  # atno 17320 bound_to 7965
  145.7792  139.1885  143.2168 LP  0  0  0  0  0  0  0  0  0  0  0  0  # atno 17321 bound_to 7965
  140.6642  143.2262  151.5783 LP  0  0  0  0  0  0  0  0  0  0  0  0  # atno 17342 bound_to 10162
  139.5380  144.2725  152.1293 LP  0  0  0  0  0  0  0  0  0  0  0  0  # atno 17343 bound_to 10162
  156.8140  130.9335  151.3643 LP  0  0  0  0  0  0  0  0  0  0  0  0  # atno 17370 bound_to 10713
  157.6507  130.8882  149.9627 LP  0  0  0  0  0  0  0  0  0  0  0  0  # atno 17371 bound_to 10713
  141.2086  133.6675  156.6380 LP  0  0  0  0  0  0  0  0  0  0  0  0  # atno 17394 bound_to 11000
  140.3316  134.7924  157.4330 LP  0  0  0  0  0  0  0  0  0  0  0  0  # atno 17395 bound_to 11000

$$$$
