AV-unprocessed.smi:2473|AV-procd|sdf|9743|dock2
  -GOLD-   2272013383D 1   1.00000     0.00000
 Structure written by MMmdl.
 48 49  0  0  0  0  0  0  0  0  2 V2000
  145.0885  141.4543  156.3887 C   0  0  0  0  0  0  0  0  0  0  0  0
  146.2150  140.8245  155.5566 C   0  0  2  0  0  0  0  0  0  0  0  0
  146.9828  141.8988  154.7591 C   0  0  0  0  0  0  0  0  0  0  0  0
  148.1143  141.3163  153.8814 C   0  0  1  0  0  0  0  0  0  0  0  0
  149.3934  140.9515  154.6599 C   0  0  0  0  0  0  0  0  0  0  0  0
  149.9789  139.8864  154.4625 O   0  0  0  0  0  0  0  0  0  0  0  0
  149.8090  141.8456  155.5693 N   0  0  0  0  0  0  0  0  0  0  0  0
  151.0157  141.7034  156.3710 C   0  0  0  0  0  0  0  0  0  0  0  0
  150.6941  141.8668  157.8619 C   0  0  0  0  0  0  0  0  0  0  0  0
  151.1722  143.1727  158.4161 C   0  0  0  0  0  0  0  0  0  0  0  0
  150.8040  144.3836  157.9812 N   0  3  0  0  0  0  0  0  0  0  0  0
  151.4152  145.3613  158.7185 C   0  0  0  0  0  0  0  0  0  0  0  0
  152.1870  144.7180  159.6504 C   0  0  0  0  0  0  0  0  0  0  0  0
  152.0158  143.3732  159.4424 N   0  0  0  0  0  0  0  0  0  0  0  0
  152.6396  142.2865  160.2010 C   0  0  0  0  0  0  0  0  0  0  0  0
  147.5761  140.1633  152.9950 C   0  0  0  0  0  0  0  0  0  0  0  0
  146.7505  139.0697  153.7272 C   0  0  0  0  0  0  0  0  0  0  0  0
  146.0508  138.2007  152.6624 C   0  0  0  0  0  0  0  0  0  0  0  0
  147.6424  138.1269  154.5661 C   0  0  0  0  0  0  0  0  0  0  0  0
  145.6668  139.7391  154.6078 C   0  0  0  0  0  0  0  0  0  0  0  0
  144.3527  141.9480  155.7534 H   0  0  0  0  0  0  0  0  0  0  0  0
  145.4822  142.1978  157.0823 H   0  0  0  0  0  0  0  0  0  0  0  0
  144.5667  140.6998  156.9783 H   0  0  0  0  0  0  0  0  0  0  0  0
  146.8971  140.3542  156.2635 H   0  0  0  0  0  0  0  0  0  0  0  0
  146.2822  142.4304  154.1138 H   0  0  0  0  0  0  0  0  0  0  0  0
  147.3824  142.6534  155.4385 H   0  0  0  0  0  0  0  0  0  0  0  0
  148.4272  142.1162  153.2086 H   0  0  0  0  0  0  0  0  0  0  0  0
  149.2686  142.6902  155.6890 H   0  0  0  0  0  0  0  0  0  0  0  0
  151.4590  140.7245  156.1829 H   0  0  0  0  0  0  0  0  0  0  0  0
  151.7471  142.4530  156.0647 H   0  0  0  0  0  0  0  0  0  0  0  0
  149.6207  141.8054  158.0438 H   0  0  0  0  0  0  0  0  0  0  0  0
  151.1664  141.0781  158.4491 H   0  0  0  0  0  0  0  0  0  0  0  0
  151.2574  146.4136  158.5311 H   0  0  0  0  0  0  0  0  0  0  0  0
  152.8280  145.1086  160.4276 H   0  0  0  0  0  0  0  0  0  0  0  0
  153.2739  142.7041  160.9832 H   0  0  0  0  0  0  0  0  0  0  0  0
  153.2486  141.6795  159.5307 H   0  0  0  0  0  0  0  0  0  0  0  0
  151.8652  141.6704  160.6581 H   0  0  0  0  0  0  0  0  0  0  0  0
  146.9411  140.6211  152.2349 H   0  0  0  0  0  0  0  0  0  0  0  0
  148.3880  139.6984  152.4340 H   0  0  0  0  0  0  0  0  0  0  0  0
  145.4416  137.4209  153.1211 H   0  0  0  0  0  0  0  0  0  0  0  0
  146.7754  137.7101  152.0113 H   0  0  0  0  0  0  0  0  0  0  0  0
  145.3920  138.7943  152.0275 H   0  0  0  0  0  0  0  0  0  0  0  0
  147.0609  137.3026  154.9802 H   0  0  0  0  0  0  0  0  0  0  0  0
  148.1143  138.6259  155.4092 H   0  0  0  0  0  0  0  0  0  0  0  0
  148.4373  137.6912  153.9596 H   0  0  0  0  0  0  0  0  0  0  0  0
  145.1401  138.9781  155.1856 H   0  0  0  0  0  0  0  0  0  0  0  0
  144.9138  140.1956  153.9633 H   0  0  0  0  0  0  0  0  0  0  0  0
  150.1633  144.5503  157.2153 H   0  0  0  0  0  0  0  0  0  0  0  0
  1  2  1  0  0  0  0
  1 21  1  0  0  0  0
  1 22  1  0  0  0  0
  1 23  1  0  0  0  0
  2 20  1  0  0  0  0
  2  3  1  0  0  0  0
  2 24  1  0  0  0  0
  3  4  1  0  0  0  0
  3 25  1  0  0  0  0
  3 26  1  0  0  0  0
  4  5  1  0  0  0  0
  4 16  1  0  0  0  0
  4 27  1  0  0  0  0
  5  6  2  0  0  0  0
  5  7  1  0  0  0  0
  7  8  1  0  0  0  0
  7 28  1  0  0  0  0
  8  9  1  0  0  0  0
  8 29  1  0  0  0  0
  8 30  1  0  0  0  0
  9 10  1  0  0  0  0
  9 31  1  0  0  0  0
  9 32  1  0  0  0  0
 10 14  1  0  0  0  0
 10 11  2  0  0  0  0
 11 12  1  0  0  0  0
 11 48  1  0  0  0  0
 12 13  2  0  0  0  0
 12 33  1  0  0  0  0
 13 14  1  0  0  0  0
 13 34  1  0  0  0  0
 14 15  1  0  0  0  0
 15 35  1  0  0  0  0
 15 36  1  0  0  0  0
 15 37  1  0  0  0  0
 16 17  1  0  0  0  0
 16 38  1  0  0  0  0
 16 39  1  0  0  0  0
 17 18  1  0  0  0  0
 17 19  1  0  0  0  0
 17 20  1  0  0  0  0
 18 40  1  0  0  0  0
 18 41  1  0  0  0  0
 18 42  1  0  0  0  0
 19 43  1  0  0  0  0
 19 44  1  0  0  0  0
 19 45  1  0  0  0  0
 20 46  1  0  0  0  0
 20 47  1  0  0  0  0
M  CHG  1  11   1
M  END
> <s_m_source_file>
AV-unprocessed.smi

> <i_m_source_file_index>
2473

> <i_lp_mmshare_version>
43012

> <i_f3d_flags>
0

> <s_epik_input>
W0NIM11bQ0BASF0oW0NIMl0xKVtDSDJdW0NASF0oW0NIMl1DMShbQ0gzXSlbQ0gzXSlDKD1PKVtOSF1bQ0gyXVtDSDJdYzJuW2NIXVtjSF1uMltDSDNd

> <s_epik_cmdline>
J2VwaWtfcHl0aG9uJywgJy1waCcsICc3LjAnLCAnLXRuJywgJzgnLCAnLW1hJywgJzIwMCcsICctbWV0YWxfYmluZGluZycsICctaW1hZScsICc8aW5maWxlLm1hZT4nLCAnLW9tYWUnLCAnPG91dGZpbGUubWFlPic=

> <r_lp_tautomer_probability>
1

> <r_epik_Ionization_Penalty>
0.0796112

> <r_epik_Ionization_Penalty_Charging>
0

> <r_epik_Ionization_Penalty_Neutral>
0.0796112

> <r_epik_State_Penalty>
0.0704541

> <r_epik_Charging_Adjusted_Penalty>
0.0704541

> <i_epik_Tot_Q>
1

> <i_epik_Tot_abs_Q>
1

> <r_epik_Metal_State_Penalty>
0.409899

> <b_epik_Metal_Only>
0

> <s_lp_Force_Field>
OPLS_2005

> <r_lp_Energy>
17.1237

> <b_lp_Chiralities_Consistent>
1

> <s_lp_Variant>
AV-unprocessed.smi:2473-1

> <Gold.Version>
5.8.1

> <Gold.Id.Protein>
6NUR|6NUR_protein|mol2

> <Gold.PLP.Fitness>
50.8958

> <Gold.PLP.PLP>
-40.2008

> <Gold.PLP.part.hbond>
-3.0311

> <Gold.PLP.part.metal>
0.0000

> <Gold.PLP.part.buried>
-1.3511

> <Gold.PLP.part.nonpolar>
-36.2911

> <Gold.PLP.part.repulsive>
0.4600

> <Gold.PLP.ligand.clash>
0.0000

> <Gold.PLP.ligand.torsion>
0.6157

> <Gold.PLP.Chemscore.Hbond>
3.9520

> <Gold.PLP.Chemscore.CHOScore>
0.0000

> <Gold.PLP.Chemscore.Metal>
0.0000

> <Gold.Chemscore.Hbonds>
donor molecule, donor type, donor heavy atom, donor atom, acceptor molecule, acceptor atom, score
      L1  H     7    28       P1  8028  0.91
      L1  H    11    48       P1  8028  2.00
      P1  H  7989  7998       L1     6  0.43

> <Gold.PLP.Chemscore.Internal.Correction>
0.0704

> <Gold.Rescore>
     Score         DG    S(hbond)    S(metal)    S(lipo)     H(rot)  DE(clash)    DE(int)     intcor
     15.38     -19.05       2.07        0.00      91.41       1.58       1.64       2.03       ----

> <Gold.Chemscore.Fitness>
15.3789

> <Gold.Chemscore.DG>
-19.0531

> <Gold.Chemscore.ZeroCoef>
-5.4800

> <Gold.Chemscore.Hbond>
2.0742

> <Gold.Chemscore.Metal>
0.0000

> <Gold.Chemscore.Lipo>
91.4067

> <Gold.Chemscore.Internal_Hbond>
0.0000

> <Gold.Chemscore.DEClash>
1.6410

> <Gold.Chemscore.DEInternal>
2.0332

> <Gold.Chemscore.Rot>
1.5818

> <Gold.Chemscore.Internal.Correction>
   9.000000E+99

> <Gold.Chemscore.Hbonds>
donor molecule, donor type, donor heavy atom, donor atom, acceptor molecule, acceptor atom, score
      L1  H     7    28       P1  8028  0.88
      L1  H    11    48       P1  8028  0.44
      P1  H  7989  7998       L1     6  0.03

> <Gold.Chemscore.Hbond.Weighted>
-6.9280

> <Gold.Chemscore.Metal.Weighted>
-0.0000

> <Gold.Chemscore.Lipo.Weighted>
-10.6946

> <Gold.Chemscore.Internal_Hbond.Weighted>
0.0000

> <Gold.Chemscore.DEClash.Weighted>
1.6410

> <Gold.Chemscore.DEInternal.Weighted>
2.0332

> <Gold.Chemscore.Rot.Weighted>
4.0495

> <Gold.Chemscore.Internal.Correction.Weighted>
   9.000000E+99

> <Gold.Protein.RotatedTorsions>
[ 6907 6896 6895 6894 ] final -153.85 input  -60.11 | X-H torsion
[ 7974 7965 7964 7962 ] final   51.24 input  175.53 | X-H torsion
[ 8008 7997 7996 7995 ] final -165.11 input   59.86 | X-H torsion
[ 10167 10162 10161 10158 ] final  147.68 input  -65.29 | X-H torsion
[ 10718 10713 10712 10709 ] final   90.08 input   66.30 | X-H torsion
[ 10763 10752 10751 10750 ] final -132.19 input  -60.55 | X-H torsion
[ 11005 11000 10999 10996 ] final   64.22 input  -57.11 | X-H torsion

> <Gold.Protein.ActiveResidues>
 VAL166  LYS551  ARG553  GLY616  TRP617  ASP618  TYR619  PRO620  LYS621  CYS622 
 ASP623  PHE694  ASN695  SER759  ASP760  ASP761  ALA762  ILE779  LEU786  VAL792 
 PHE793  MET794  SER795  GLU796  ALA797  LYS798  CYS799  TRP800  GLU811  SER814 

> <Gold.Protein.RotatedAtoms>
  151.2486  133.4362  159.2610 H   0  0  0  0  0  0  0  0  0  0  0  0  # atno 6907 bound_to 6896
  151.0638  134.9754  159.8284 H   0  0  0  0  0  0  0  0  0  0  0  0  # atno 6908 bound_to 6896
  152.5402  134.2435  159.8924 H   0  0  0  0  0  0  0  0  0  0  0  0  # atno 6909 bound_to 6896
  145.9932  139.4361  143.0060 H   0  0  0  0  0  0  0  0  0  0  0  0  # atno 7974 bound_to 7965
  155.8451  140.0954  157.1710 H   0  0  0  0  0  0  0  0  0  0  0  0  # atno 8008 bound_to 7997
  154.3983  140.1393  156.3838 H   0  0  0  0  0  0  0  0  0  0  0  0  # atno 8009 bound_to 7997
  155.8022  140.3452  155.5411 H   0  0  0  0  0  0  0  0  0  0  0  0  # atno 8010 bound_to 7997
  139.4886  144.5737  151.7005 H   0  0  0  0  0  0  0  0  0  0  0  0  # atno 10167 bound_to 10162
  157.6958  131.0357  150.3523 H   0  0  0  0  0  0  0  0  0  0  0  0  # atno 10718 bound_to 10713
  154.8745  135.3806  154.4369 H   0  0  0  0  0  0  0  0  0  0  0  0  # atno 10763 bound_to 10752
  153.5058  135.7030  153.5812 H   0  0  0  0  0  0  0  0  0  0  0  0  # atno 10764 bound_to 10752
  153.4124  135.3921  155.2025 H   0  0  0  0  0  0  0  0  0  0  0  0  # atno 10765 bound_to 10752
  139.9973  134.6497  155.9989 H   0  0  0  0  0  0  0  0  0  0  0  0  # atno 11005 bound_to 11000
  145.7598  140.9940  143.1206 LP  0  0  0  0  0  0  0  0  0  0  0  0  # atno 17320 bound_to 7965
  144.6895  139.9316  143.7472 LP  0  0  0  0  0  0  0  0  0  0  0  0  # atno 17321 bound_to 7965
  140.5329  144.0701  150.6060 LP  0  0  0  0  0  0  0  0  0  0  0  0  # atno 17342 bound_to 10162
  140.3697  143.2861  152.0291 LP  0  0  0  0  0  0  0  0  0  0  0  0  # atno 17343 bound_to 10162
  156.3969  130.3908  149.6988 LP  0  0  0  0  0  0  0  0  0  0  0  0  # atno 17370 bound_to 10713
  156.4318  130.7819  151.2839 LP  0  0  0  0  0  0  0  0  0  0  0  0  # atno 17371 bound_to 10713
  141.1614  133.6538  156.4333 LP  0  0  0  0  0  0  0  0  0  0  0  0  # atno 17394 bound_to 11000
  140.4794  134.6679  157.5164 LP  0  0  0  0  0  0  0  0  0  0  0  0  # atno 17395 bound_to 11000

$$$$
