AV-unprocessed.smi:1483|AV-procd|sdf|5991|dock10
  -GOLD-   22720 6 83D 1   1.00000     0.00000
 Structure written by MMmdl.
 50 51  0  0  0  0  0  0  0  0  3 V2000
  152.5416  142.9922  161.2038 C   0  0  0  0  0  0  0  0  0  0  0  0
  152.0754  142.6618  159.8017 C   0  0  0  0  0  0  0  0  0  0  0  0
  151.6628  143.6575  158.8905 C   0  0  0  0  0  0  0  0  0  0  0  0
  151.2425  143.2779  157.5991 C   0  0  0  0  0  0  0  0  0  0  0  0
  151.2408  141.9108  157.2438 C   0  0  0  0  0  0  0  0  0  0  0  0
  150.7913  141.4707  155.8620 C   0  0  0  0  0  0  0  0  0  0  0  0
  149.6136  140.5018  155.9704 C   0  0  0  0  0  0  0  0  0  0  0  0
  149.2272  140.1273  157.0769 O   0  0  0  0  0  0  0  0  0  0  0  0
  149.0501  140.1096  154.8167 N   0  0  0  0  0  0  0  0  0  0  0  0
  147.9123  139.2021  154.7020 C   0  0  2  0  0  0  0  0  0  0  0  0
  148.3066  137.7759  155.1238 C   0  0  0  0  0  0  0  0  0  0  0  0
  147.1459  136.7907  154.9072 C   0  0  0  0  0  0  0  0  0  0  0  0
  146.6789  136.8071  153.4964 N   0  3  1  0  0  0  0  0  0  0  0  0
  145.6499  135.7675  153.2344 C   0  0  0  0  0  0  0  0  0  0  0  0
  144.7992  136.0568  151.9782 C   0  0  0  0  0  0  0  0  0  0  0  0
  143.5966  135.1040  151.9109 C   0  0  0  0  0  0  0  0  0  0  0  0
  145.6312  135.9632  150.6880 C   0  0  0  0  0  0  0  0  0  0  0  0
  146.2572  138.1713  153.0792 C   0  0  0  0  0  0  0  0  0  0  0  0
  147.4008  139.1848  153.2532 C   0  0  0  0  0  0  0  0  0  0  0  0
  151.6664  140.9594  158.1968 C   0  0  0  0  0  0  0  0  0  0  0  0
  152.0620  141.3638  159.4238 N   0  3  0  0  0  0  0  0  0  0  0  0
  152.3955  144.0496  161.4268 H   0  0  0  0  0  0  0  0  0  0  0  0
  153.6019  142.7641  161.3139 H   0  0  0  0  0  0  0  0  0  0  0  0
  151.9849  142.4105  161.9389 H   0  0  0  0  0  0  0  0  0  0  0  0
  151.6677  144.6997  159.1747 H   0  0  0  0  0  0  0  0  0  0  0  0
  150.9235  144.0296  156.8918 H   0  0  0  0  0  0  0  0  0  0  0  0
  150.5110  142.3382  155.2627 H   0  0  0  0  0  0  0  0  0  0  0  0
  151.6190  140.9851  155.3430 H   0  0  0  0  0  0  0  0  0  0  0  0
  149.4372  140.4668  153.9552 H   0  0  0  0  0  0  0  0  0  0  0  0
  147.1026  139.5536  155.3450 H   0  0  0  0  0  0  0  0  0  0  0  0
  149.1735  137.4445  154.5498 H   0  0  0  0  0  0  0  0  0  0  0  0
  148.6070  137.7624  156.1723 H   0  0  0  0  0  0  0  0  0  0  0  0
  147.4785  135.7868  155.1739 H   0  0  0  0  0  0  0  0  0  0  0  0
  146.3142  137.0364  155.5699 H   0  0  0  0  0  0  0  0  0  0  0  0
  146.1355  134.7999  153.0984 H   0  0  0  0  0  0  0  0  0  0  0  0
  145.0144  135.6637  154.1154 H   0  0  0  0  0  0  0  0  0  0  0  0
  144.3929  137.0655  152.0421 H   0  0  0  0  0  0  0  0  0  0  0  0
  143.9162  134.0641  151.8350 H   0  0  0  0  0  0  0  0  0  0  0  0
  142.9690  135.3225  151.0461 H   0  0  0  0  0  0  0  0  0  0  0  0
  142.9712  135.1959  152.7995 H   0  0  0  0  0  0  0  0  0  0  0  0
  146.0664  134.9706  150.5669 H   0  0  0  0  0  0  0  0  0  0  0  0
  146.4458  136.6875  150.6837 H   0  0  0  0  0  0  0  0  0  0  0  0
  145.0161  136.1636  149.8103 H   0  0  0  0  0  0  0  0  0  0  0  0
  145.9461  138.1726  152.0356 H   0  0  0  0  0  0  0  0  0  0  0  0
  145.3903  138.4811  153.6651 H   0  0  0  0  0  0  0  0  0  0  0  0
  147.0569  140.1794  152.9661 H   0  0  0  0  0  0  0  0  0  0  0  0
  148.2151  138.9305  152.5727 H   0  0  0  0  0  0  0  0  0  0  0  0
  151.6989  139.8943  158.0178 H   0  0  0  0  0  0  0  0  0  0  0  0
  147.4802  136.5592  152.9337 H   0  0  0  0  0  0  0  0  0  0  0  0
  152.3636  140.6575  160.0955 H   0  0  0  0  0  0  0  0  0  0  0  0
  1  2  1  0  0  0  0
  1 22  1  0  0  0  0
  1 23  1  0  0  0  0
  1 24  1  0  0  0  0
  2 21  1  0  0  0  0
  2  3  2  0  0  0  0
  3  4  1  0  0  0  0
  3 25  1  0  0  0  0
  4  5  2  0  0  0  0
  4 26  1  0  0  0  0
  5  6  1  0  0  0  0
  5 20  1  0  0  0  0
  6  7  1  0  0  0  0
  6 27  1  0  0  0  0
  6 28  1  0  0  0  0
  7  8  2  0  0  0  0
  7  9  1  0  0  0  0
  9 10  1  0  0  0  0
  9 29  1  0  0  0  0
 10 19  1  0  0  0  0
 10 11  1  0  0  0  0
 10 30  1  0  0  0  0
 11 12  1  0  0  0  0
 11 31  1  0  0  0  0
 11 32  1  0  0  0  0
 12 13  1  0  0  0  0
 12 33  1  0  0  0  0
 12 34  1  0  0  0  0
 13 14  1  0  0  0  0
 13 18  1  0  0  0  0
 13 49  1  0  0  0  0
 14 15  1  0  0  0  0
 14 35  1  0  0  0  0
 14 36  1  0  0  0  0
 15 16  1  0  0  0  0
 15 17  1  0  0  0  0
 15 37  1  0  0  0  0
 16 38  1  0  0  0  0
 16 39  1  0  0  0  0
 16 40  1  0  0  0  0
 17 41  1  0  0  0  0
 17 42  1  0  0  0  0
 17 43  1  0  0  0  0
 18 19  1  0  0  0  0
 18 44  1  0  0  0  0
 18 45  1  0  0  0  0
 19 46  1  0  0  0  0
 19 47  1  0  0  0  0
 20 21  2  0  0  0  0
 20 48  1  0  0  0  0
 21 50  1  0  0  0  0
M  CHG  1  13   1
M  CHG  1  21   1
M  END
> <s_m_source_file>
AV-unprocessed.smi

> <i_m_source_file_index>
1483

> <i_lp_mmshare_version>
43012

> <i_f3d_flags>
0

> <s_epik_input>
W0NIM11jMVtjSF1bY0hdYyhbY0hdbjEpW0NIMl1DKD1PKVtOSF1bQ0hdMltDSDJdW0NIMl1OKFtDSDJdW0NIMl0yKVtDSDJdW0NIXShbQ0gzXSlbQ0gzXQ==

> <s_epik_cmdline>
J2VwaWtfcHl0aG9uJywgJy1waCcsICc3LjAnLCAnLXRuJywgJzgnLCAnLW1hJywgJzIwMCcsICctbWV0YWxfYmluZGluZycsICctaW1hZScsICc8aW5maWxlLm1hZT4nLCAnLW9tYWUnLCAnPG91dGZpbGUubWFlPic=

> <r_epik_Ionization_Penalty>
2.20554

> <r_epik_Ionization_Penalty_Charging>
2.20554

> <r_epik_Ionization_Penalty_Neutral>
2.83835e-07

> <r_epik_State_Penalty>
2.34446

> <r_epik_Charging_Adjusted_Penalty>
4.55

> <i_epik_Tot_Q>
2

> <i_epik_Tot_abs_Q>
2

> <r_epik_Metal_State_Penalty>
2.35906

> <b_epik_Metal_Only>
0

> <s_lp_Force_Field>
OPLS_2005

> <r_lp_Energy>
27.324

> <b_lp_Chiralities_Consistent>
1

> <s_lp_Variant>
AV-unprocessed.smi:1483-3

> <Gold.Version>
5.8.1

> <Gold.Id.Protein>
6NUR|6NUR_protein|mol2

> <Gold.PLP.Fitness>
40.1563

> <Gold.PLP.PLP>
-34.9405

> <Gold.PLP.part.hbond>
-1.0000

> <Gold.PLP.part.metal>
0.0000

> <Gold.PLP.part.buried>
-5.4453

> <Gold.PLP.part.nonpolar>
-28.9778

> <Gold.PLP.part.repulsive>
0.2225

> <Gold.PLP.ligand.clash>
0.0000

> <Gold.PLP.ligand.torsion>
0.4053

> <Gold.PLP.Chemscore.Hbond>
2.0000

> <Gold.PLP.Chemscore.CHOScore>
0.0000

> <Gold.PLP.Chemscore.Metal>
0.0000

> <Gold.Chemscore.Hbonds>
donor molecule, donor type, donor heavy atom, donor atom, acceptor molecule, acceptor atom, score
      L1  H    13    49       P1  7948  2.00

> <Gold.PLP.Chemscore.Internal.Correction>
0.0264

> <Gold.Rescore>
     Score         DG    S(hbond)    S(metal)    S(lipo)     H(rot)  DE(clash)    DE(int)     intcor
     15.35     -17.28       1.00        0.00     106.24       1.55       0.19       1.74       ----

> <Gold.Chemscore.Fitness>
15.3495

> <Gold.Chemscore.DG>
-17.2751

> <Gold.Chemscore.ZeroCoef>
-5.4800

> <Gold.Chemscore.Hbond>
0.9995

> <Gold.Chemscore.Metal>
0.0000

> <Gold.Chemscore.Lipo>
106.2369

> <Gold.Chemscore.Internal_Hbond>
0.0000

> <Gold.Chemscore.DEClash>
0.1856

> <Gold.Chemscore.DEInternal>
1.7400

> <Gold.Chemscore.Rot>
1.5520

> <Gold.Chemscore.Internal.Correction>
   9.000000E+99

> <Gold.Chemscore.Hbonds>
donor molecule, donor type, donor heavy atom, donor atom, acceptor molecule, acceptor atom, score
      L1  H    13    49       P1  7948  1.00

> <Gold.Chemscore.Hbond.Weighted>
-3.3384

> <Gold.Chemscore.Metal.Weighted>
-0.0000

> <Gold.Chemscore.Lipo.Weighted>
-12.4297

> <Gold.Chemscore.Internal_Hbond.Weighted>
0.0000

> <Gold.Chemscore.DEClash.Weighted>
0.1856

> <Gold.Chemscore.DEInternal.Weighted>
1.7400

> <Gold.Chemscore.Rot.Weighted>
3.9730

> <Gold.Chemscore.Internal.Correction.Weighted>
   9.000000E+99

> <Gold.Protein.RotatedTorsions>
[ 6907 6896 6895 6894 ] final   90.38 input  -60.11 | X-H torsion
[ 7974 7965 7964 7962 ] final   25.81 input  175.53 | X-H torsion
[ 8008 7997 7996 7995 ] final  -22.82 input   59.86 | X-H torsion
[ 10167 10162 10161 10158 ] final  117.11 input  -65.29 | X-H torsion
[ 10718 10713 10712 10709 ] final   40.09 input   66.30 | X-H torsion
[ 10763 10752 10751 10750 ] final    7.37 input  -60.55 | X-H torsion
[ 11005 11000 10999 10996 ] final   -3.67 input  -57.11 | X-H torsion

> <Gold.Protein.ActiveResidues>
 VAL166  LYS551  ARG553  GLY616  TRP617  ASP618  TYR619  PRO620  LYS621  CYS622 
 ASP623  PHE694  ASN695  SER759  ASP760  ASP761  ALA762  ILE779  LEU786  VAL792 
 PHE793  MET794  SER795  GLU796  ALA797  LYS798  CYS799  TRP800  GLU811  SER814 

> <Gold.Protein.RotatedAtoms>
  152.5444  134.1821  159.8639 H   0  0  0  0  0  0  0  0  0  0  0  0  # atno 6907 bound_to 6896
  151.1822  133.4711  159.2601 H   0  0  0  0  0  0  0  0  0  0  0  0  # atno 6908 bound_to 6896
  151.1166  135.0068  159.8574 H   0  0  0  0  0  0  0  0  0  0  0  0  # atno 6909 bound_to 6896
  146.1870  139.7415  142.8859 H   0  0  0  0  0  0  0  0  0  0  0  0  # atno 7974 bound_to 7965
  154.4621  140.1997  156.0215 H   0  0  0  0  0  0  0  0  0  0  0  0  # atno 8008 bound_to 7997
  156.0860  140.3265  155.7726 H   0  0  0  0  0  0  0  0  0  0  0  0  # atno 8009 bound_to 7997
  155.5034  140.0556  157.2926 H   0  0  0  0  0  0  0  0  0  0  0  0  # atno 8010 bound_to 7997
  139.6201  144.7099  151.2654 H   0  0  0  0  0  0  0  0  0  0  0  0  # atno 10167 bound_to 10162
  157.3781  130.7738  149.7171 H   0  0  0  0  0  0  0  0  0  0  0  0  # atno 10718 bound_to 10713
  153.2371  135.6899  153.7825 H   0  0  0  0  0  0  0  0  0  0  0  0  # atno 10763 bound_to 10752
  153.6968  135.3304  155.3216 H   0  0  0  0  0  0  0  0  0  0  0  0  # atno 10764 bound_to 10752
  154.8339  135.4558  154.1278 H   0  0  0  0  0  0  0  0  0  0  0  0  # atno 10765 bound_to 10752
  140.6718  133.9230  155.8499 H   0  0  0  0  0  0  0  0  0  0  0  0  # atno 11005 bound_to 11000
  145.3909  141.0372  143.3124 LP  0  0  0  0  0  0  0  0  0  0  0  0  # atno 17320 bound_to 7965
  144.8415  139.5465  143.6898 LP  0  0  0  0  0  0  0  0  0  0  0  0  # atno 17321 bound_to 7965
  140.7376  143.6672  150.8112 LP  0  0  0  0  0  0  0  0  0  0  0  0  # atno 17342 bound_to 10162
  140.0282  143.5471  152.2771 LP  0  0  0  0  0  0  0  0  0  0  0  0  # atno 17343 bound_to 10162
  155.9769  130.4069  150.3744 LP  0  0  0  0  0  0  0  0  0  0  0  0  # atno 17370 bound_to 10713
  157.1844  131.0400  151.2732 LP  0  0  0  0  0  0  0  0  0  0  0  0  # atno 17371 bound_to 10713
  141.0386  134.0654  157.3929 LP  0  0  0  0  0  0  0  0  0  0  0  0  # atno 17394 bound_to 11000
  139.8979  135.0152  156.7123 LP  0  0  0  0  0  0  0  0  0  0  0  0  # atno 17395 bound_to 11000

$$$$
