AV-unprocessed.smi:94|AV-procd|sdf|853|dock2
  -GOLD-   2262017293D 1   1.00000     0.00000
 Structure written by MMmdl.
 53 55  0  0  0  0  0  0  0  0  1 V2000
  149.8269  130.6414  154.5835 C   0  0  0  0  0  0  0  0  0  0  0  0
  149.5605  132.0266  154.7478 O   0  0  0  0  0  0  0  0  0  0  0  0
  148.5400  132.5932  154.0106 C   0  0  0  0  0  0  0  0  0  0  0  0
  147.8080  131.8851  153.0229 C   0  0  0  0  0  0  0  0  0  0  0  0
  146.7707  132.5119  152.3075 C   0  0  0  0  0  0  0  0  0  0  0  0
  146.4428  133.8546  152.5703 C   0  0  0  0  0  0  0  0  0  0  0  0
  145.3228  134.5389  151.8142 C   0  0  0  0  0  0  0  0  0  0  0  0
  147.1601  134.5645  153.5496 C   0  0  0  0  0  0  0  0  0  0  0  0
  148.2158  133.9495  154.2655 C   0  0  0  0  0  0  0  0  0  0  0  0
  148.9883  134.7391  155.3238 C   0  0  2  0  0  0  0  0  0  0  0  0
  148.0541  135.1904  156.4590 C   0  0  0  0  0  0  0  0  0  0  0  0
  149.6656  135.8884  154.7345 N   0  0  0  0  0  0  0  0  0  0  0  0
  150.4890  136.7583  155.3399 C   0  0  0  0  0  0  0  0  0  0  0  0
  150.7703  136.6962  156.5357 O   0  0  0  0  0  0  0  0  0  0  0  0
  151.1013  137.8724  154.4693 C   0  0  0  0  0  0  0  0  0  0  0  0
  150.6447  139.2398  154.8205 N   0  0  0  0  0  0  0  0  0  0  0  0
  149.3696  139.6631  154.3691 C   0  0  0  0  0  0  0  0  0  0  0  0
  148.6585  138.9290  153.6818 O   0  0  0  0  0  0  0  0  0  0  0  0
  148.9676  141.0023  154.7830 C   0  0  0  0  0  0  0  0  0  0  0  0
  147.7859  141.4981  154.3789 F   0  0  0  0  0  0  0  0  0  0  0  0
  149.7629  141.7526  155.5723 C   0  0  0  0  0  0  0  0  0  0  0  0
  150.9859  141.3141  156.0406 N   0  0  0  0  0  0  0  0  0  0  0  0
  151.8030  142.2317  156.9230 C   0  0  1  0  0  0  0  0  0  0  0  0
  151.2316  143.6539  157.0220 C   0  0  0  0  0  0  0  0  0  0  0  0
  151.5732  144.0090  158.4528 C   0  0  0  0  0  0  0  0  0  0  0  0
  151.4196  142.6665  159.1598 C   0  0  0  0  0  0  0  0  0  0  0  0
  151.8659  141.6976  158.2140 O   0  0  0  0  0  0  0  0  0  0  0  0
  151.4704  140.0466  155.6413 C   0  0  0  0  0  0  0  0  0  0  0  0
  152.5729  139.6402  156.0094 O   0  0  0  0  0  0  0  0  0  0  0  0
  150.6572  130.3565  155.2296 H   0  0  0  0  0  0  0  0  0  0  0  0
  150.1141  130.4100  153.5568 H   0  0  0  0  0  0  0  0  0  0  0  0
  148.9669  130.0328  154.8659 H   0  0  0  0  0  0  0  0  0  0  0  0
  148.0219  130.8526  152.7930 H   0  0  0  0  0  0  0  0  0  0  0  0
  146.2256  131.9545  151.5600 H   0  0  0  0  0  0  0  0  0  0  0  0
  144.4561  134.6666  152.4632 H   0  0  0  0  0  0  0  0  0  0  0  0
  145.0172  133.9564  150.9442 H   0  0  0  0  0  0  0  0  0  0  0  0
  145.6415  135.5234  151.4689 H   0  0  0  0  0  0  0  0  0  0  0  0
  146.8847  135.5905  153.7463 H   0  0  0  0  0  0  0  0  0  0  0  0
  149.7608  134.0900  155.7398 H   0  0  0  0  0  0  0  0  0  0  0  0
  147.5720  134.3343  156.9319 H   0  0  0  0  0  0  0  0  0  0  0  0
  147.2692  135.8497  156.0865 H   0  0  0  0  0  0  0  0  0  0  0  0
  148.5986  135.7268  157.2364 H   0  0  0  0  0  0  0  0  0  0  0  0
  149.5025  136.0315  153.7487 H   0  0  0  0  0  0  0  0  0  0  0  0
  152.1873  137.7990  154.5423 H   0  0  0  0  0  0  0  0  0  0  0  0
  150.8946  137.6428  153.4230 H   0  0  0  0  0  0  0  0  0  0  0  0
  149.4157  142.7366  155.8520 H   0  0  0  0  0  0  0  0  0  0  0  0
  152.8122  142.2289  156.5091 H   0  0  0  0  0  0  0  0  0  0  0  0
  151.6943  144.3123  156.2867 H   0  0  0  0  0  0  0  0  0  0  0  0
  150.1530  143.6655  156.8705 H   0  0  0  0  0  0  0  0  0  0  0  0
  152.6075  144.3495  158.5173 H   0  0  0  0  0  0  0  0  0  0  0  0
  150.9298  144.7857  158.8671 H   0  0  0  0  0  0  0  0  0  0  0  0
  151.9945  142.6130  160.0843 H   0  0  0  0  0  0  0  0  0  0  0  0
  150.3737  142.4810  159.4049 H   0  0  0  0  0  0  0  0  0  0  0  0
  1  2  1  0  0  0  0
  1 30  1  0  0  0  0
  1 31  1  0  0  0  0
  1 32  1  0  0  0  0
  2  3  1  0  0  0  0
  3  9  1  0  0  0  0
  3  4  2  0  0  0  0
  4  5  1  0  0  0  0
  4 33  1  0  0  0  0
  5  6  2  0  0  0  0
  5 34  1  0  0  0  0
  6  7  1  0  0  0  0
  6  8  1  0  0  0  0
  7 35  1  0  0  0  0
  7 36  1  0  0  0  0
  7 37  1  0  0  0  0
  8  9  2  0  0  0  0
  8 38  1  0  0  0  0
  9 10  1  0  0  0  0
 10 11  1  0  0  0  0
 10 12  1  0  0  0  0
 10 39  1  0  0  0  0
 11 40  1  0  0  0  0
 11 41  1  0  0  0  0
 11 42  1  0  0  0  0
 12 13  1  0  0  0  0
 12 43  1  0  0  0  0
 13 14  2  0  0  0  0
 13 15  1  0  0  0  0
 15 16  1  0  0  0  0
 15 44  1  0  0  0  0
 15 45  1  0  0  0  0
 16 28  1  0  0  0  0
 16 17  1  0  0  0  0
 17 18  2  0  0  0  0
 17 19  1  0  0  0  0
 19 20  1  0  0  0  0
 19 21  2  0  0  0  0
 21 22  1  0  0  0  0
 21 46  1  0  0  0  0
 22 23  1  0  0  0  0
 22 28  1  0  0  0  0
 23 27  1  0  0  0  0
 23 24  1  0  0  0  0
 23 47  1  0  0  0  0
 24 25  1  0  0  0  0
 24 48  1  0  0  0  0
 24 49  1  0  0  0  0
 25 26  1  0  0  0  0
 25 50  1  0  0  0  0
 25 51  1  0  0  0  0
 26 27  1  0  0  0  0
 26 52  1  0  0  0  0
 26 53  1  0  0  0  0
 28 29  2  0  0  0  0
M  END
> <s_m_source_file>
AV-unprocessed.smi

> <i_m_source_file_index>
94

> <i_lp_mmshare_version>
43012

> <i_f3d_flags>
0

> <s_epik_input>
W0NIM11PYzFbY0hdW2NIXWMoW0NIM10pW2NIXWMxW0NASF0oW0NIM10pW05IXUMoPU8pW0NIMl1uMmMoPU8pYyhGKVtjSF1uKGMyPU8pW0NAQEhdM1tDSDJdW0NIMl1bQ0gyXU8z

> <s_epik_cmdline>
J2VwaWtfcHl0aG9uJywgJy1waCcsICc3LjAnLCAnLXRuJywgJzgnLCAnLW1hJywgJzIwMCcsICctbWV0YWxfYmluZGluZycsICctaW1hZScsICc8aW5maWxlLm1hZT4nLCAnLW9tYWUnLCAnPG91dGZpbGUubWFlPic=

> <r_lp_tautomer_probability>
1

> <r_epik_Ionization_Penalty>
3.37009e-08

> <r_epik_Ionization_Penalty_Charging>
3.59856e-09

> <r_epik_Ionization_Penalty_Neutral>
3.01024e-08

> <r_epik_State_Penalty>
-0

> <r_epik_Charging_Adjusted_Penalty>
3.59856e-09

> <i_epik_Tot_Q>
0

> <i_epik_Tot_abs_Q>
0

> <r_epik_Metal_State_Penalty>
-0

> <b_epik_Metal_Only>
0

> <s_epik_Chemistry_Notes>
This compound contains an acetal/aminal-like group ( X-CH(R)-Y where X, Y are N, S, or O) that may be acid/base labile, releasing an aldehyde.

> <s_lp_Force_Field>
OPLS_2005

> <r_lp_Energy>
25.2965

> <b_lp_Chiralities_Consistent>
1

> <s_lp_Variant>
AV-unprocessed.smi:94-3

> <Gold.Version>
5.8.1

> <Gold.Id.Protein>
6NUR|6NUR_protein|mol2

> <Gold.PLP.Fitness>
54.4879

> <Gold.PLP.PLP>
-46.4297

> <Gold.PLP.part.hbond>
-2.0000

> <Gold.PLP.part.metal>
0.0000

> <Gold.PLP.part.buried>
-2.5200

> <Gold.PLP.part.nonpolar>
-42.3815

> <Gold.PLP.part.repulsive>
1.0332

> <Gold.PLP.ligand.clash>
0.0000

> <Gold.PLP.ligand.torsion>
0.5334

> <Gold.PLP.Chemscore.Hbond>
2.0000

> <Gold.PLP.Chemscore.CHOScore>
1.0000

> <Gold.PLP.Chemscore.Metal>
0.0000

> <Gold.Chemscore.Hbonds>
donor molecule, donor type, donor heavy atom, donor atom, acceptor molecule, acceptor atom, score
      L1  H    12    43       P1  7948  1.00
      P1  H  7997  8008       L1    29  1.00
      L1  C    21    46       P1  8028  1.00

> <Gold.PLP.Chemscore.Internal.Correction>
0.1249

> <Gold.Rescore>
     Score         DG    S(hbond)    S(metal)    S(lipo)     H(rot)  DE(clash)    DE(int)     intcor
     14.80     -16.87       1.85        0.00      95.73       2.34       1.51       0.56       ----

> <Gold.Chemscore.Fitness>
14.8016

> <Gold.Chemscore.DG>
-16.8669

> <Gold.Chemscore.ZeroCoef>
-5.4800

> <Gold.Chemscore.Hbond>
1.8471

> <Gold.Chemscore.Metal>
0.0000

> <Gold.Chemscore.Lipo>
95.7288

> <Gold.Chemscore.Internal_Hbond>
0.0000

> <Gold.Chemscore.DEClash>
1.5099

> <Gold.Chemscore.DEInternal>
0.5554

> <Gold.Chemscore.Rot>
2.3370

> <Gold.Chemscore.Internal.Correction>
   9.000000E+99

> <Gold.Chemscore.Hbonds>
donor molecule, donor type, donor heavy atom, donor atom, acceptor molecule, acceptor atom, score
      L1  H    12    43       P1  7948  0.55
      P1  H  7997  8008       L1    29  1.00

> <Gold.Chemscore.Hbond.Weighted>
-6.1693

> <Gold.Chemscore.Metal.Weighted>
-0.0000

> <Gold.Chemscore.Lipo.Weighted>
-11.2003

> <Gold.Chemscore.Internal_Hbond.Weighted>
0.0000

> <Gold.Chemscore.DEClash.Weighted>
1.5099

> <Gold.Chemscore.DEInternal.Weighted>
0.5554

> <Gold.Chemscore.Rot.Weighted>
5.9827

> <Gold.Chemscore.Internal.Correction.Weighted>
   9.000000E+99

> <Gold.Protein.RotatedTorsions>
[ 6907 6896 6895 6894 ] final  -59.59 input  -60.11 | X-H torsion
[ 7974 7965 7964 7962 ] final -162.68 input  175.53 | X-H torsion
[ 8008 7997 7996 7995 ] final  -44.17 input   59.86 | X-H torsion
[ 10167 10162 10161 10158 ] final   82.52 input  -65.29 | X-H torsion
[ 10718 10713 10712 10709 ] final  155.77 input   66.30 | X-H torsion
[ 10763 10752 10751 10750 ] final -153.59 input  -60.55 | X-H torsion
[ 11005 11000 10999 10996 ] final  110.97 input  -57.11 | X-H torsion

> <Gold.Protein.ActiveResidues>
 VAL166  LYS551  ARG553  GLY616  TRP617  ASP618  TYR619  PRO620  LYS621  CYS622 
 ASP623  PHE694  ASN695  SER759  ASP760  ASP761  ALA762  ILE779  LEU786  VAL792 
 PHE793  MET794  SER795  GLU796  ALA797  LYS798  CYS799  TRP800  GLU811  SER814 

> <Gold.Protein.RotatedAtoms>
  150.7919  134.6949  159.6517 H   0  0  0  0  0  0  0  0  0  0  0  0  # atno 6907 bound_to 6896
  152.4026  134.6257  160.0072 H   0  0  0  0  0  0  0  0  0  0  0  0  # atno 6908 bound_to 6896
  151.6524  133.3283  159.3191 H   0  0  0  0  0  0  0  0  0  0  0  0  # atno 6909 bound_to 6896
  144.7350  140.3218  143.6169 H   0  0  0  0  0  0  0  0  0  0  0  0  # atno 7974 bound_to 7965
  154.3997  140.1429  156.3639 H   0  0  0  0  0  0  0  0  0  0  0  0  # atno 8008 bound_to 7997
  155.8155  140.3471  155.5462 H   0  0  0  0  0  0  0  0  0  0  0  0  # atno 8009 bound_to 7997
  155.8342  140.0917  157.1764 H   0  0  0  0  0  0  0  0  0  0  0  0  # atno 8010 bound_to 7997
  139.9280  144.6170  150.8374 H   0  0  0  0  0  0  0  0  0  0  0  0  # atno 10167 bound_to 10162
  157.2139  131.0703  151.1953 H   0  0  0  0  0  0  0  0  0  0  0  0  # atno 10718 bound_to 10713
  154.7917  135.3209  154.7761 H   0  0  0  0  0  0  0  0  0  0  0  0  # atno 10763 bound_to 10752
  153.8448  135.6867  153.4803 H   0  0  0  0  0  0  0  0  0  0  0  0  # atno 10764 bound_to 10752
  153.1591  135.4668  154.9687 H   0  0  0  0  0  0  0  0  0  0  0  0  # atno 10765 bound_to 10752
  139.8893  134.9497  156.6361 H   0  0  0  0  0  0  0  0  0  0  0  0  # atno 11005 bound_to 11000
  145.7561  139.1809  143.2293 LP  0  0  0  0  0  0  0  0  0  0  0  0  # atno 17320 bound_to 7965
  146.1023  140.7529  142.9543 LP  0  0  0  0  0  0  0  0  0  0  0  0  # atno 17321 bound_to 7965
  140.7645  143.3250  151.2536 LP  0  0  0  0  0  0  0  0  0  0  0  0  # atno 17342 bound_to 10162
  139.6806  143.9861  152.2806 LP  0  0  0  0  0  0  0  0  0  0  0  0  # atno 17343 bound_to 10162
  157.3644  130.7148  149.6523 LP  0  0  0  0  0  0  0  0  0  0  0  0  # atno 17370 bound_to 10713
  155.9688  130.4216  150.4478 LP  0  0  0  0  0  0  0  0  0  0  0  0  # atno 17371 bound_to 10713
  140.7630  133.8802  155.8432 LP  0  0  0  0  0  0  0  0  0  0  0  0  # atno 17394 bound_to 11000
  140.9906  134.1283  157.4411 LP  0  0  0  0  0  0  0  0  0  0  0  0  # atno 17395 bound_to 11000

$$$$
