AV-unprocessed.smi:3270|AV-procd|sdf|12514|dock10
  -GOLD-   2272018423D 1   1.00000     0.00000
 Structure written by MMmdl.
 39 40  0  0  0  0  0  0  0  0  2 V2000
  151.6863  145.5962  159.9028 C   0  0  0  0  0  0  0  0  0  0  0  0
  152.4288  144.4193  159.2373 C   0  0  2  0  0  0  0  0  0  0  0  0
  151.6456  143.7951  158.0679 C   0  0  0  0  0  0  0  0  0  0  0  0
  151.5683  144.3687  156.9806 O   0  0  0  0  0  0  0  0  0  0  0  0
  151.0785  142.5999  158.2998 N   0  0  0  0  0  0  0  0  0  0  0  0
  150.3016  141.8400  157.3281 C   0  0  0  0  0  0  0  0  0  0  0  0
  148.8057  141.8220  157.6963 C   0  0  0  0  0  0  0  0  0  0  0  0
  147.9340  142.2387  156.5694 N   0  3  0  0  0  0  0  0  0  0  0  0
  148.1880  141.4458  155.3423 C   0  0  0  0  0  0  0  0  0  0  0  0
  147.3023  141.9388  154.1858 C   0  0  0  0  0  0  0  0  0  0  0  0
  145.9352  141.8652  154.5695 O   0  0  0  0  0  0  0  0  0  0  0  0
  145.6539  142.6926  155.6911 C   0  0  0  0  0  0  0  0  0  0  0  0
  146.4866  142.2305  156.8996 C   0  0  0  0  0  0  0  0  0  0  0  0
  152.8107  143.4028  160.2120 N   0  0  0  0  0  0  0  0  0  0  0  0
  153.5342  142.2475  159.9948 C   0  0  0  0  0  0  0  0  0  0  0  0
  153.6270  141.5904  161.1880 C   0  0  0  0  0  0  0  0  0  0  0  0
  152.9143  142.4274  162.0907 C   0  0  0  0  0  0  0  0  0  0  0  0
  152.4226  143.5065  161.5043 N   0  0  0  0  0  0  0  0  0  0  0  0
  151.4711  146.3855  159.1815 H   0  0  0  0  0  0  0  0  0  0  0  0
  152.2902  146.0375  160.6962 H   0  0  0  0  0  0  0  0  0  0  0  0
  150.7391  145.2837  160.3445 H   0  0  0  0  0  0  0  0  0  0  0  0
  153.3512  144.8202  158.8145 H   0  0  0  0  0  0  0  0  0  0  0  0
  151.1849  142.1953  159.2190 H   0  0  0  0  0  0  0  0  0  0  0  0
  150.4576  142.3078  156.3568 H   0  0  0  0  0  0  0  0  0  0  0  0
  150.6906  140.8232  157.2497 H   0  0  0  0  0  0  0  0  0  0  0  0
  148.5347  140.8061  157.9879 H   0  0  0  0  0  0  0  0  0  0  0  0
  148.6138  142.4533  158.5653 H   0  0  0  0  0  0  0  0  0  0  0  0
  149.2379  141.5271  155.0580 H   0  0  0  0  0  0  0  0  0  0  0  0
  147.9900  140.3912  155.5407 H   0  0  0  0  0  0  0  0  0  0  0  0
  147.5609  142.9607  153.9035 H   0  0  0  0  0  0  0  0  0  0  0  0
  147.4552  141.3164  153.3039 H   0  0  0  0  0  0  0  0  0  0  0  0
  145.8619  143.7363  155.4502 H   0  0  0  0  0  0  0  0  0  0  0  0
  144.5903  142.6250  155.9206 H   0  0  0  0  0  0  0  0  0  0  0  0
  146.1837  141.2251  157.1967 H   0  0  0  0  0  0  0  0  0  0  0  0
  146.2824  142.8883  157.7436 H   0  0  0  0  0  0  0  0  0  0  0  0
  153.9197  141.9912  159.0190 H   0  0  0  0  0  0  0  0  0  0  0  0
  154.1263  140.6536  161.3858 H   0  0  0  0  0  0  0  0  0  0  0  0
  152.7380  142.2830  163.1464 H   0  0  0  0  0  0  0  0  0  0  0  0
  148.1833  143.1921  156.3471 H   0  0  0  0  0  0  0  0  0  0  0  0
  1  2  1  0  0  0  0
  1 19  1  0  0  0  0
  1 20  1  0  0  0  0
  1 21  1  0  0  0  0
  2  3  1  0  0  0  0
  2 14  1  0  0  0  0
  2 22  1  0  0  0  0
  3  4  2  0  0  0  0
  3  5  1  0  0  0  0
  5  6  1  0  0  0  0
  5 23  1  0  0  0  0
  6  7  1  0  0  0  0
  6 24  1  0  0  0  0
  6 25  1  0  0  0  0
  7  8  1  0  0  0  0
  7 26  1  0  0  0  0
  7 27  1  0  0  0  0
  8 13  1  0  0  0  0
  8  9  1  0  0  0  0
  8 39  1  0  0  0  0
  9 10  1  0  0  0  0
  9 28  1  0  0  0  0
  9 29  1  0  0  0  0
 10 11  1  0  0  0  0
 10 30  1  0  0  0  0
 10 31  1  0  0  0  0
 11 12  1  0  0  0  0
 12 13  1  0  0  0  0
 12 32  1  0  0  0  0
 12 33  1  0  0  0  0
 13 34  1  0  0  0  0
 13 35  1  0  0  0  0
 14 18  1  0  0  0  0
 14 15  1  0  0  0  0
 15 16  2  0  0  0  0
 15 36  1  0  0  0  0
 16 17  1  0  0  0  0
 16 37  1  0  0  0  0
 17 18  2  0  0  0  0
 17 38  1  0  0  0  0
M  CHG  1   8   1
M  END
> <s_m_source_file>
AV-unprocessed.smi

> <i_m_source_file_index>
3270

> <i_lp_mmshare_version>
43012

> <i_f3d_flags>
0

> <s_epik_input>
bjFbY0hdW2NIXVtjSF1uMVtDQEhdKFtDSDNdKUMoPU8pW05IXVtDSDJdW0NIMl1OMltDSDJdW0NIMl1PW0NIMl1bQ0gyXTI=

> <s_epik_cmdline>
J2VwaWtfcHl0aG9uJywgJy1waCcsICc3LjAnLCAnLXRuJywgJzgnLCAnLW1hJywgJzIwMCcsICctbWV0YWxfYmluZGluZycsICctaW1hZScsICc8aW5maWxlLm1hZT4nLCAnLW9tYWUnLCAnPG91dGZpbGUubWFlPic=

> <r_lp_tautomer_probability>
1

> <r_epik_Ionization_Penalty>
0.73255

> <r_epik_Ionization_Penalty_Charging>
0.732531

> <r_epik_Ionization_Penalty_Neutral>
1.96965e-05

> <r_epik_State_Penalty>
0.757939

> <r_epik_Charging_Adjusted_Penalty>
1.49047

> <i_epik_Tot_Q>
1

> <i_epik_Tot_abs_Q>
1

> <r_epik_Metal_State_Penalty>
0.757952

> <b_epik_Metal_Only>
0

> <s_lp_Force_Field>
OPLS_2005

> <r_lp_Energy>
19.6504

> <b_lp_Chiralities_Consistent>
1

> <s_lp_Variant>
AV-unprocessed.smi:3270-3

> <Gold.Version>
5.8.1

> <Gold.Id.Protein>
6NUR|6NUR_protein|mol2

> <Gold.PLP.Fitness>
46.3976

> <Gold.PLP.PLP>
-42.1158

> <Gold.PLP.part.hbond>
-1.0000

> <Gold.PLP.part.metal>
0.0000

> <Gold.PLP.part.buried>
-6.4540

> <Gold.PLP.part.nonpolar>
-36.9491

> <Gold.PLP.part.repulsive>
1.2915

> <Gold.PLP.ligand.clash>
0.0000

> <Gold.PLP.ligand.torsion>
0.9224

> <Gold.PLP.Chemscore.Hbond>
2.0000

> <Gold.PLP.Chemscore.CHOScore>
0.0000

> <Gold.PLP.Chemscore.Metal>
0.0000

> <Gold.Chemscore.Hbonds>
donor molecule, donor type, donor heavy atom, donor atom, acceptor molecule, acceptor atom, score
      L1  H     8    39       P1  8028  2.00

> <Gold.PLP.Chemscore.Internal.Correction>
0.1265

> <Gold.Rescore>
     Score         DG    S(hbond)    S(metal)    S(lipo)     H(rot)  DE(clash)    DE(int)     intcor
     12.89     -14.37       0.99        0.00      89.59       1.91       0.40       1.08       ----

> <Gold.Chemscore.Fitness>
12.8866

> <Gold.Chemscore.DG>
-14.3710

> <Gold.Chemscore.ZeroCoef>
-5.4800

> <Gold.Chemscore.Hbond>
0.9883

> <Gold.Chemscore.Metal>
0.0000

> <Gold.Chemscore.Lipo>
89.5901

> <Gold.Chemscore.Internal_Hbond>
0.0000

> <Gold.Chemscore.DEClash>
0.4015

> <Gold.Chemscore.DEInternal>
1.0830

> <Gold.Chemscore.Rot>
1.9109

> <Gold.Chemscore.Internal.Correction>
   9.000000E+99

> <Gold.Chemscore.Hbonds>
donor molecule, donor type, donor heavy atom, donor atom, acceptor molecule, acceptor atom, score
      L1  H     8    39       P1  8028  0.45

> <Gold.Chemscore.Hbond.Weighted>
-3.3009

> <Gold.Chemscore.Metal.Weighted>
-0.0000

> <Gold.Chemscore.Lipo.Weighted>
-10.4820

> <Gold.Chemscore.Internal_Hbond.Weighted>
0.0000

> <Gold.Chemscore.DEClash.Weighted>
0.4015

> <Gold.Chemscore.DEInternal.Weighted>
1.0830

> <Gold.Chemscore.Rot.Weighted>
4.8919

> <Gold.Chemscore.Internal.Correction.Weighted>
   9.000000E+99

> <Gold.Protein.RotatedTorsions>
[ 6907 6896 6895 6894 ] final   80.13 input  -60.11 | X-H torsion
[ 7974 7965 7964 7962 ] final -121.16 input  175.53 | X-H torsion
[ 8008 7997 7996 7995 ] final  -87.51 input   59.86 | X-H torsion
[ 10167 10162 10161 10158 ] final   90.86 input  -65.29 | X-H torsion
[ 10718 10713 10712 10709 ] final -129.23 input   66.30 | X-H torsion
[ 10763 10752 10751 10750 ] final   62.56 input  -60.55 | X-H torsion
[ 11005 11000 10999 10996 ] final  -48.75 input  -57.11 | X-H torsion

> <Gold.Protein.ActiveResidues>
 VAL166  LYS551  ARG553  GLY616  TRP617  ASP618  TYR619  PRO620  LYS621  CYS622 
 ASP623  PHE694  ASN695  SER759  ASP760  ASP761  ALA762  ILE779  LEU786  VAL792 
 PHE793  MET794  SER795  GLU796  ALA797  LYS798  CYS799  TRP800  GLU811  SER814 

> <Gold.Protein.RotatedAtoms>
  152.5224  134.3405  159.9215 H   0  0  0  0  0  0  0  0  0  0  0  0  # atno 6907 bound_to 6896
  151.3355  133.3977  159.2674 H   0  0  0  0  0  0  0  0  0  0  0  0  # atno 6908 bound_to 6896
  150.9846  134.9212  159.7922 H   0  0  0  0  0  0  0  0  0  0  0  0  # atno 6909 bound_to 6896
  145.0434  140.8162  143.4252 H   0  0  0  0  0  0  0  0  0  0  0  0  # atno 7974 bound_to 7965
  154.6641  140.0565  157.0094 H   0  0  0  0  0  0  0  0  0  0  0  0  # atno 8008 bound_to 7997
  155.1186  140.3245  155.4484 H   0  0  0  0  0  0  0  0  0  0  0  0  # atno 8009 bound_to 7997
  156.2630  140.2001  156.6308 H   0  0  0  0  0  0  0  0  0  0  0  0  # atno 8010 bound_to 7997
  139.8432  144.6631  150.9259 H   0  0  0  0  0  0  0  0  0  0  0  0  # atno 10167 bound_to 10162
  156.2027  130.6868  151.0558 H   0  0  0  0  0  0  0  0  0  0  0  0  # atno 10718 bound_to 10713
  152.9987  135.5460  154.6212 H   0  0  0  0  0  0  0  0  0  0  0  0  # atno 10763 bound_to 10752
  154.5511  135.2826  155.1010 H   0  0  0  0  0  0  0  0  0  0  0  0  # atno 10764 bound_to 10752
  154.2249  135.6444  153.5209 H   0  0  0  0  0  0  0  0  0  0  0  0  # atno 10765 bound_to 10752
  141.0719  133.6676  156.3487 H   0  0  0  0  0  0  0  0  0  0  0  0  # atno 11005 bound_to 11000
  145.1618  139.2454  143.5387 LP  0  0  0  0  0  0  0  0  0  0  0  0  # atno 17320 bound_to 7965
  146.3511  140.1348  142.8596 LP  0  0  0  0  0  0  0  0  0  0  0  0  # atno 17321 bound_to 7965
  140.7796  143.3894  151.1336 LP  0  0  0  0  0  0  0  0  0  0  0  0  # atno 17342 bound_to 10162
  139.7539  143.8737  152.3083 LP  0  0  0  0  0  0  0  0  0  0  0  0  # atno 17343 bound_to 10162
  157.6995  131.0781  150.6865 LP  0  0  0  0  0  0  0  0  0  0  0  0  # atno 17370 bound_to 10713
  156.6923  130.4599  149.5596 LP  0  0  0  0  0  0  0  0  0  0  0  0  # atno 17371 bound_to 10713
  140.5655  134.5892  157.5444 LP  0  0  0  0  0  0  0  0  0  0  0  0  # atno 17394 bound_to 11000
  139.9532  134.7580  156.0400 LP  0  0  0  0  0  0  0  0  0  0  0  0  # atno 17395 bound_to 11000

$$$$
