AV-unprocessed.smi:193|AV-procd|sdf|1498|dock4
  -GOLD-   2262019323D 1   1.00000     0.00000
 Structure written by MMmdl.
 62 66  0  0  0  0  0  0  0  0  2 V2000
  152.2882  139.5738  155.5916 C   0  0  0  0  0  0  0  0  0  0  0  0
  150.9323  140.0873  156.1011 C   0  0  2  0  0  0  0  0  0  0  0  0
  149.7998  139.3380  155.3673 C   0  0  0  0  0  0  0  0  0  0  0  0
  148.4751  139.5597  155.9380 N   0  0  0  0  0  0  0  0  0  0  0  0
  147.5561  138.7166  155.4217 C   0  0  0  0  0  0  0  0  0  0  0  0
  146.3850  139.2525  155.0001 N   0  0  0  0  0  0  0  0  0  0  0  0
  145.4387  138.4614  154.4841 C   0  0  0  0  0  0  0  0  0  0  0  0
  145.4600  137.1380  154.3086 N   0  0  0  0  0  0  0  0  0  0  0  0
  146.6360  136.5979  154.7400 C   0  0  0  0  0  0  0  0  0  0  0  0
  147.7306  137.3093  155.3058 C   0  0  0  0  0  0  0  0  0  0  0  0
  148.7541  136.4281  155.6321 N   0  0  0  0  0  0  0  0  0  0  0  0
  148.2904  135.2601  155.2774 C   0  0  0  0  0  0  0  0  0  0  0  0
  147.0277  135.2708  154.7281 N   0  0  0  0  0  0  0  0  0  0  0  0
  146.2734  134.1208  154.2525 C   0  0  0  0  0  0  0  0  0  0  0  0
  146.1142  134.0666  152.7130 C   0  0  0  0  0  0  0  0  0  0  0  0
  147.3994  133.8493  152.1557 O   0  0  0  0  0  0  0  0  0  0  0  0
  145.2035  132.8904  152.3072 C   0  0  0  0  0  0  0  0  0  0  0  0
  144.8808  132.8980  150.8022 C   0  0  0  0  0  0  0  0  0  0  0  0
  144.3097  134.1472  150.4326 O   0  0  0  0  0  0  0  0  0  0  0  0
  145.1985  135.2395  150.6331 C   0  0  0  0  0  0  0  0  0  0  0  0
  145.5421  135.3760  152.1271 C   0  0  0  0  0  0  0  0  0  0  0  0
  147.9957  140.9298  156.0927 C   0  0  0  0  0  0  0  0  0  0  0  0
  148.7065  141.6383  157.2554 C   0  0  0  0  0  0  0  0  0  0  0  0
  149.9647  142.3287  156.8704 N   0  3  1  0  0  0  0  0  0  0  0  0
  150.7230  142.7785  158.0605 C   0  0  2  0  0  0  0  0  0  0  0  0
  150.0636  143.9145  158.8082 C   0  0  0  0  0  0  0  0  0  0  0  0
  151.2749  144.1823  157.9411 C   0  0  1  0  0  0  0  0  0  0  0  0
  152.5989  144.5481  158.5753 C   0  0  0  0  0  0  0  0  0  0  0  0
  150.8315  141.6168  155.8912 C   0  0  0  0  0  0  0  0  0  0  0  0
  152.4133  139.7715  154.5265 H   0  0  0  0  0  0  0  0  0  0  0  0
  152.3848  138.4983  155.7437 H   0  0  0  0  0  0  0  0  0  0  0  0
  153.1148  140.0511  156.1190 H   0  0  0  0  0  0  0  0  0  0  0  0
  150.8927  139.8553  157.1662 H   0  0  0  0  0  0  0  0  0  0  0  0
  149.7902  139.6144  154.3117 H   0  0  0  0  0  0  0  0  0  0  0  0
  150.0074  138.2668  155.4007 H   0  0  0  0  0  0  0  0  0  0  0  0
  144.5347  138.9601  154.1663 H   0  0  0  0  0  0  0  0  0  0  0  0
  148.8611  134.3515  155.4040 H   0  0  0  0  0  0  0  0  0  0  0  0
  146.7634  133.2168  154.6169 H   0  0  0  0  0  0  0  0  0  0  0  0
  145.2914  134.1431  154.7269 H   0  0  0  0  0  0  0  0  0  0  0  0
  147.7840  134.6885  151.9531 H   0  0  0  0  0  0  0  0  0  0  0  0
  145.6574  131.9390  152.5879 H   0  0  0  0  0  0  0  0  0  0  0  0
  144.2648  132.9541  152.8595 H   0  0  0  0  0  0  0  0  0  0  0  0
  145.7732  132.7017  150.2061 H   0  0  0  0  0  0  0  0  0  0  0  0
  144.1679  132.1064  150.5710 H   0  0  0  0  0  0  0  0  0  0  0  0
  146.0996  135.1046  150.0331 H   0  0  0  0  0  0  0  0  0  0  0  0
  144.7183  136.1513  150.2776 H   0  0  0  0  0  0  0  0  0  0  0  0
  144.6339  135.6440  152.6683 H   0  0  0  0  0  0  0  0  0  0  0  0
  146.2379  136.2041  152.2681 H   0  0  0  0  0  0  0  0  0  0  0  0
  148.0987  141.4904  155.1627 H   0  0  0  0  0  0  0  0  0  0  0  0
  146.9277  140.8993  156.3163 H   0  0  0  0  0  0  0  0  0  0  0  0
  148.0375  142.3978  157.6609 H   0  0  0  0  0  0  0  0  0  0  0  0
  148.8870  140.9341  158.0697 H   0  0  0  0  0  0  0  0  0  0  0  0
  151.2716  142.0092  158.6015 H   0  0  0  0  0  0  0  0  0  0  0  0
  149.1039  144.2837  158.4514 H   0  0  0  0  0  0  0  0  0  0  0  0
  150.1990  143.9471  159.8875 H   0  0  0  0  0  0  0  0  0  0  0  0
  151.0826  144.7062  157.0063 H   0  0  0  0  0  0  0  0  0  0  0  0
  152.7497  143.9969  159.5040 H   0  0  0  0  0  0  0  0  0  0  0  0
  152.6254  145.6154  158.7965 H   0  0  0  0  0  0  0  0  0  0  0  0
  153.4171  144.3131  157.8947 H   0  0  0  0  0  0  0  0  0  0  0  0
  151.8238  142.0692  155.9226 H   0  0  0  0  0  0  0  0  0  0  0  0
  150.4635  141.8256  154.8861 H   0  0  0  0  0  0  0  0  0  0  0  0
  149.6813  143.1745  156.3968 H   0  0  0  0  0  0  0  0  0  0  0  0
  1  2  1  0  0  0  0
  1 30  1  0  0  0  0
  1 31  1  0  0  0  0
  1 32  1  0  0  0  0
  2 29  1  0  0  0  0
  2  3  1  0  0  0  0
  2 33  1  0  0  0  0
  3  4  1  0  0  0  0
  3 34  1  0  0  0  0
  3 35  1  0  0  0  0
  4  5  1  0  0  0  0
  4 22  1  0  0  0  0
  5 10  1  0  0  0  0
  5  6  2  0  0  0  0
  6  7  1  0  0  0  0
  7  8  2  0  0  0  0
  7 36  1  0  0  0  0
  8  9  1  0  0  0  0
  9 13  1  0  0  0  0
  9 10  2  0  0  0  0
 10 11  1  0  0  0  0
 11 12  2  0  0  0  0
 12 13  1  0  0  0  0
 12 37  1  0  0  0  0
 13 14  1  0  0  0  0
 14 15  1  0  0  0  0
 14 38  1  0  0  0  0
 14 39  1  0  0  0  0
 15 21  1  0  0  0  0
 15 16  1  0  0  0  0
 15 17  1  0  0  0  0
 16 40  1  0  0  0  0
 17 18  1  0  0  0  0
 17 41  1  0  0  0  0
 17 42  1  0  0  0  0
 18 19  1  0  0  0  0
 18 43  1  0  0  0  0
 18 44  1  0  0  0  0
 19 20  1  0  0  0  0
 20 21  1  0  0  0  0
 20 45  1  0  0  0  0
 20 46  1  0  0  0  0
 21 47  1  0  0  0  0
 21 48  1  0  0  0  0
 22 23  1  0  0  0  0
 22 49  1  0  0  0  0
 22 50  1  0  0  0  0
 23 24  1  0  0  0  0
 23 51  1  0  0  0  0
 23 52  1  0  0  0  0
 24 25  1  0  0  0  0
 24 29  1  0  0  0  0
 24 62  1  0  0  0  0
 25 27  1  0  0  0  0
 25 26  1  0  0  0  0
 25 53  1  0  0  0  0
 26 27  1  0  0  0  0
 26 54  1  0  0  0  0
 26 55  1  0  0  0  0
 27 28  1  0  0  0  0
 27 56  1  0  0  0  0
 28 57  1  0  0  0  0
 28 58  1  0  0  0  0
 28 59  1  0  0  0  0
 29 60  1  0  0  0  0
 29 61  1  0  0  0  0
M  CHG  1  24   1
M  END
> <s_m_source_file>
AV-unprocessed.smi

> <i_m_source_file_index>
193

> <i_lp_mmshare_version>
43012

> <i_f3d_flags>
0

> <s_epik_input>
W0NIM11bQ0BASF0xW0NIMl1bQ0BIXTFOKFtDSDJdMilbQ0gyXVtDSDJdTihbQ0gyXVtDQEhdMltDSDNdKWMobltjSF1uMyljKGMzNCluW2NIXW40W0NIMl1DNShbT0hdKVtDSDJdW0NIMl1PW0NIMl1bQ0gyXTU=

> <s_epik_cmdline>
J2VwaWtfcHl0aG9uJywgJy1waCcsICc3LjAnLCAnLXRuJywgJzgnLCAnLW1hJywgJzIwMCcsICctbWV0YWxfYmluZGluZycsICctaW1hZScsICc8aW5maWxlLm1hZT4nLCAnLW9tYWUnLCAnPG91dGZpbGUubWFlPic=

> <r_lp_tautomer_probability>
1

> <r_epik_Ionization_Penalty>
0.0540825

> <r_epik_Ionization_Penalty_Charging>
0.0538476

> <r_epik_Ionization_Penalty_Neutral>
0.000234891

> <r_epik_State_Penalty>
0.0200719

> <r_epik_Charging_Adjusted_Penalty>
0.0739194

> <i_epik_Tot_Q>
1

> <i_epik_Tot_abs_Q>
1

> <r_epik_Metal_State_Penalty>
0.0199414

> <b_epik_Metal_Only>
0

> <s_lp_Force_Field>
OPLS_2005

> <r_lp_Energy>
56.0511

> <b_lp_Chiralities_Consistent>
1

> <s_lp_Variant>
AV-unprocessed.smi:193-3

> <Gold.Version>
5.8.1

> <Gold.Id.Protein>
6NUR|6NUR_protein|mol2

> <Gold.PLP.Fitness>
48.8782

> <Gold.PLP.PLP>
-37.1889

> <Gold.PLP.part.hbond>
-2.0000

> <Gold.PLP.part.metal>
0.0000

> <Gold.PLP.part.buried>
-4.6519

> <Gold.PLP.part.nonpolar>
-30.8272

> <Gold.PLP.part.repulsive>
0.4179

> <Gold.PLP.ligand.clash>
0.0000

> <Gold.PLP.ligand.torsion>
0.9508

> <Gold.PLP.Chemscore.Hbond>
3.0000

> <Gold.PLP.Chemscore.CHOScore>
0.9987

> <Gold.PLP.Chemscore.Metal>
0.0000

> <Gold.Chemscore.Hbonds>
donor molecule, donor type, donor heavy atom, donor atom, acceptor molecule, acceptor atom, score
      L1  H    16    40       P1  7948  1.00
      L1  H    24    62       P1  8028  2.00
      L1  C     7    36       P1 10175  1.00

> <Gold.PLP.Chemscore.Internal.Correction>
1.5947

> <Gold.Rescore>
     Score         DG    S(hbond)    S(metal)    S(lipo)     H(rot)  DE(clash)    DE(int)     intcor
     15.84     -18.33       1.88        0.00     104.27       2.20       0.21       2.28       ----

> <Gold.Chemscore.Fitness>
15.8448

> <Gold.Chemscore.DG>
-18.3346

> <Gold.Chemscore.ZeroCoef>
-5.4800

> <Gold.Chemscore.Hbond>
1.8837

> <Gold.Chemscore.Metal>
0.0000

> <Gold.Chemscore.Lipo>
104.2711

> <Gold.Chemscore.Internal_Hbond>
0.0000

> <Gold.Chemscore.DEClash>
0.2145

> <Gold.Chemscore.DEInternal>
2.2754

> <Gold.Chemscore.Rot>
2.2018

> <Gold.Chemscore.Internal.Correction>
   9.000000E+99

> <Gold.Chemscore.Hbonds>
donor molecule, donor type, donor heavy atom, donor atom, acceptor molecule, acceptor atom, score
      L1  H    16    40       P1  7948  0.40
      L1  H    24    62       P1  8028  1.00

> <Gold.Chemscore.Hbond.Weighted>
-6.2915

> <Gold.Chemscore.Metal.Weighted>
-0.0000

> <Gold.Chemscore.Lipo.Weighted>
-12.1997

> <Gold.Chemscore.Internal_Hbond.Weighted>
0.0000

> <Gold.Chemscore.DEClash.Weighted>
0.2145

> <Gold.Chemscore.DEInternal.Weighted>
2.2754

> <Gold.Chemscore.Rot.Weighted>
5.6366

> <Gold.Chemscore.Internal.Correction.Weighted>
   9.000000E+99

> <Gold.Protein.RotatedTorsions>
[ 6907 6896 6895 6894 ] final -155.98 input  -60.11 | X-H torsion
[ 7974 7965 7964 7962 ] final   26.56 input  175.53 | X-H torsion
[ 8008 7997 7996 7995 ] final  -15.14 input   59.86 | X-H torsion
[ 10167 10162 10161 10158 ] final    1.25 input  -65.29 | X-H torsion
[ 10718 10713 10712 10709 ] final   41.61 input   66.30 | X-H torsion
[ 10763 10752 10751 10750 ] final -131.93 input  -60.55 | X-H torsion
[ 11005 11000 10999 10996 ] final  -53.87 input  -57.11 | X-H torsion

> <Gold.Protein.ActiveResidues>
 VAL166  LYS551  ARG553  GLY616  TRP617  ASP618  TYR619  PRO620  LYS621  CYS622 
 ASP623  PHE694  ASN695  SER759  ASP760  ASP761  ALA762  ILE779  LEU786  VAL792 
 PHE793  MET794  SER795  GLU796  ALA797  LYS798  CYS799  TRP800  GLU811  SER814 

> <Gold.Protein.RotatedAtoms>
  151.2807  133.4211  159.2626 H   0  0  0  0  0  0  0  0  0  0  0  0  # atno 6907 bound_to 6896
  151.0363  134.9576  159.8148 H   0  0  0  0  0  0  0  0  0  0  0  0  # atno 6908 bound_to 6896
  152.5356  134.2767  159.9044 H   0  0  0  0  0  0  0  0  0  0  0  0  # atno 6909 bound_to 6896
  146.1831  139.7311  142.8886 H   0  0  0  0  0  0  0  0  0  0  0  0  # atno 7974 bound_to 7965
  154.5154  140.2204  155.9077 H   0  0  0  0  0  0  0  0  0  0  0  0  # atno 8008 bound_to 7997
  156.1601  140.3144  155.8758 H   0  0  0  0  0  0  0  0  0  0  0  0  # atno 8009 bound_to 7997
  155.3769  140.0470  157.3035 H   0  0  0  0  0  0  0  0  0  0  0  0  # atno 8010 bound_to 7997
  140.6691  143.7097  150.7887 H   0  0  0  0  0  0  0  0  0  0  0  0  # atno 10167 bound_to 10162
  157.3955  130.7830  149.7305 H   0  0  0  0  0  0  0  0  0  0  0  0  # atno 10718 bound_to 10713
  154.8747  135.3814  154.4326 H   0  0  0  0  0  0  0  0  0  0  0  0  # atno 10763 bound_to 10752
  153.5019  135.7030  153.5832 H   0  0  0  0  0  0  0  0  0  0  0  0  # atno 10764 bound_to 10752
  153.4160  135.3913  155.2047 H   0  0  0  0  0  0  0  0  0  0  0  0  # atno 10765 bound_to 10752
  141.0997  133.6619  156.4236 H   0  0  0  0  0  0  0  0  0  0  0  0  # atno 11005 bound_to 11000
  145.4018  141.0386  143.3066 LP  0  0  0  0  0  0  0  0  0  0  0  0  # atno 17320 bound_to 7965
  144.8349  139.5566  143.6927 LP  0  0  0  0  0  0  0  0  0  0  0  0  # atno 17321 bound_to 7965
  140.0779  143.4997  152.2545 LP  0  0  0  0  0  0  0  0  0  0  0  0  # atno 17342 bound_to 10162
  139.5952  144.7564  151.3303 LP  0  0  0  0  0  0  0  0  0  0  0  0  # atno 17343 bound_to 10162
  155.9809  130.4024  150.3501 LP  0  0  0  0  0  0  0  0  0  0  0  0  # atno 17370 bound_to 10713
  157.1622  131.0348  151.2835 LP  0  0  0  0  0  0  0  0  0  0  0  0  # atno 17371 bound_to 10713
  140.5051  134.6448  157.5263 LP  0  0  0  0  0  0  0  0  0  0  0  0  # atno 17394 bound_to 11000
  139.9845  134.7084  155.9799 LP  0  0  0  0  0  0  0  0  0  0  0  0  # atno 17395 bound_to 11000

$$$$
