AV-unprocessed.smi:2171|AV-procd|sdf|8832|dock3
  -GOLD-   2272012 23D 1   1.00000     0.00000
 Structure written by MMmdl.
 39 41  0  0  0  0  0  0  0  0  2 V2000
  152.3693  139.8493  156.1381 O   0  0  0  0  0  0  0  0  0  0  0  0
  151.5954  139.2337  155.4042 C   0  0  0  0  0  0  0  0  0  0  0  0
  152.0358  137.9392  154.7134 C   0  0  0  0  0  0  0  0  0  0  0  0
  151.2042  136.8092  155.0914 N   0  0  0  0  0  0  0  0  0  0  0  0
  149.9118  136.5263  154.6997 C   0  0  0  0  0  0  0  0  0  0  0  0
  149.5487  135.3590  155.3077 C   0  0  0  0  0  0  0  0  0  0  0  0
  150.7003  134.9984  156.0617 C   0  0  0  0  0  0  0  0  0  0  0  0
  151.6900  135.8668  155.9288 N   0  0  0  0  0  0  0  0  0  0  0  0
  150.3450  139.6486  155.1488 N   0  0  0  0  0  0  0  0  0  0  0  0
  149.7399  140.8566  155.7037 C   0  0  2  0  0  0  0  0  0  0  0  0
  148.9865  140.6134  157.0052 C   0  0  0  0  0  0  0  0  0  0  0  0
  148.0878  141.8494  157.1196 C   0  0  0  0  0  0  0  0  0  0  0  0
  147.8524  142.3398  155.7389 N   0  3  2  0  0  0  0  0  0  0  0  0
  146.4147  142.4667  155.3781 C   0  0  0  0  0  0  0  0  0  0  0  0
  146.2368  142.5753  153.8564 C   0  0  0  0  0  0  0  0  0  0  0  0
  146.7476  141.3117  153.1383 C   0  0  0  0  0  0  0  0  0  0  0  0
  147.8108  140.5565  153.9593 C   0  0  0  0  0  0  0  0  0  0  0  0
  148.6779  141.5211  154.8058 C   0  0  2  0  0  0  0  0  0  0  0  0
  151.9902  138.0505  153.6290 H   0  0  0  0  0  0  0  0  0  0  0  0
  153.0748  137.7293  154.9719 H   0  0  0  0  0  0  0  0  0  0  0  0
  149.3649  137.1721  154.0285 H   0  0  0  0  0  0  0  0  0  0  0  0
  148.6045  134.8413  155.2264 H   0  0  0  0  0  0  0  0  0  0  0  0
  150.8463  134.1365  156.6962 H   0  0  0  0  0  0  0  0  0  0  0  0
  149.7738  139.0885  154.5323 H   0  0  0  0  0  0  0  0  0  0  0  0
  150.5294  141.5828  155.9088 H   0  0  0  0  0  0  0  0  0  0  0  0
  148.3711  139.7159  156.9254 H   0  0  0  0  0  0  0  0  0  0  0  0
  149.6479  140.4925  157.8638 H   0  0  0  0  0  0  0  0  0  0  0  0
  147.1669  141.6260  157.6601 H   0  0  0  0  0  0  0  0  0  0  0  0
  148.6033  142.6367  157.6706 H   0  0  0  0  0  0  0  0  0  0  0  0
  145.8570  141.6017  155.7413 H   0  0  0  0  0  0  0  0  0  0  0  0
  145.9995  143.3425  155.8777 H   0  0  0  0  0  0  0  0  0  0  0  0
  145.1906  142.7505  153.6036 H   0  0  0  0  0  0  0  0  0  0  0  0
  146.7867  143.4464  153.4973 H   0  0  0  0  0  0  0  0  0  0  0  0
  145.9169  140.6362  152.9309 H   0  0  0  0  0  0  0  0  0  0  0  0
  147.1554  141.5956  152.1673 H   0  0  0  0  0  0  0  0  0  0  0  0
  147.3166  139.8430  154.6202 H   0  0  0  0  0  0  0  0  0  0  0  0
  148.4252  139.9646  153.2808 H   0  0  0  0  0  0  0  0  0  0  0  0
  149.1786  142.2019  154.1156 H   0  0  0  0  0  0  0  0  0  0  0  0
  148.2417  143.2711  155.7004 H   0  0  0  0  0  0  0  0  0  0  0  0
  1  2  2  0  0  0  0
  2  3  1  0  0  0  0
  2  9  1  0  0  0  0
  3  4  1  0  0  0  0
  3 19  1  0  0  0  0
  3 20  1  0  0  0  0
  4  8  1  0  0  0  0
  4  5  1  0  0  0  0
  5  6  2  0  0  0  0
  5 21  1  0  0  0  0
  6  7  1  0  0  0  0
  6 22  1  0  0  0  0
  7  8  2  0  0  0  0
  7 23  1  0  0  0  0
  9 10  1  0  0  0  0
  9 24  1  0  0  0  0
 10 18  1  0  0  0  0
 10 11  1  0  0  0  0
 10 25  1  0  0  0  0
 11 12  1  0  0  0  0
 11 26  1  0  0  0  0
 11 27  1  0  0  0  0
 12 13  1  0  0  0  0
 12 28  1  0  0  0  0
 12 29  1  0  0  0  0
 13 18  1  0  0  0  0
 13 14  1  0  0  0  0
 13 39  1  0  0  0  0
 14 15  1  0  0  0  0
 14 30  1  0  0  0  0
 14 31  1  0  0  0  0
 15 16  1  0  0  0  0
 15 32  1  0  0  0  0
 15 33  1  0  0  0  0
 16 17  1  0  0  0  0
 16 34  1  0  0  0  0
 16 35  1  0  0  0  0
 17 18  1  0  0  0  0
 17 36  1  0  0  0  0
 17 37  1  0  0  0  0
 18 38  1  0  0  0  0
M  CHG  1  13   1
M  END
> <s_m_source_file>
AV-unprocessed.smi

> <i_m_source_file_index>
2171

> <i_lp_mmshare_version>
43012

> <i_f3d_flags>
0

> <s_epik_input>
bjFbY0hdW2NIXVtjSF1uMVtDSDJdQyg9TylbTkhdW0NASF0oW0NIMl1bQ0gyXTIpW0NAQEhdKE4yMylbQ0gyXVtDSDJdW0NIMl1bQ0gyXTM=

> <s_epik_cmdline>
J2VwaWtfcHl0aG9uJywgJy1waCcsICc3LjAnLCAnLXRuJywgJzgnLCAnLW1hJywgJzIwMCcsICctbWV0YWxfYmluZGluZycsICctaW1hZScsICc8aW5maWxlLm1hZT4nLCAnLW9tYWUnLCAnPG91dGZpbGUubWFlPic=

> <r_lp_tautomer_probability>
1

> <r_epik_Ionization_Penalty>
0.00204179

> <r_epik_Ionization_Penalty_Charging>
0.00203239

> <r_epik_Ionization_Penalty_Neutral>
9.40205e-06

> <r_epik_State_Penalty>
0.00138983

> <r_epik_Charging_Adjusted_Penalty>
0.00342221

> <i_epik_Tot_Q>
1

> <i_epik_Tot_abs_Q>
1

> <r_epik_Metal_State_Penalty>
-0

> <b_epik_Metal_Only>
0

> <s_lp_Force_Field>
OPLS_2005

> <r_lp_Energy>
41.0306

> <b_lp_Chiralities_Consistent>
1

> <s_lp_Variant>
AV-unprocessed.smi:2171-7

> <Gold.Version>
5.8.1

> <Gold.Id.Protein>
6NUR|6NUR_protein|mol2

> <Gold.PLP.Fitness>
42.2362

> <Gold.PLP.PLP>
-29.0492

> <Gold.PLP.part.hbond>
-3.0000

> <Gold.PLP.part.metal>
0.0000

> <Gold.PLP.part.buried>
-1.7006

> <Gold.PLP.part.nonpolar>
-25.5715

> <Gold.PLP.part.repulsive>
0.1802

> <Gold.PLP.ligand.clash>
0.0000

> <Gold.PLP.ligand.torsion>
0.5353

> <Gold.PLP.Chemscore.Hbond>
4.0000

> <Gold.PLP.Chemscore.CHOScore>
0.7509

> <Gold.PLP.Chemscore.Metal>
0.0000

> <Gold.Chemscore.Hbonds>
donor molecule, donor type, donor heavy atom, donor atom, acceptor molecule, acceptor atom, score
      L1  H    13    39       P1  8028  2.00
      P1  H  7997  8009       L1     1  1.00
      P1  H 10752 10763       L1     8  1.00
      L1  C     5    21       P1  7948  0.68

> <Gold.PLP.Chemscore.Internal.Correction>
0.0050

> <Gold.Rescore>
     Score         DG    S(hbond)    S(metal)    S(lipo)     H(rot)  DE(clash)    DE(int)     intcor
     15.60     -16.34       1.97        0.00      68.15       1.44       0.21       0.52       ----

> <Gold.Chemscore.Fitness>
15.6034

> <Gold.Chemscore.DG>
-16.3369

> <Gold.Chemscore.ZeroCoef>
-5.4800

> <Gold.Chemscore.Hbond>
1.9677

> <Gold.Chemscore.Metal>
0.0000

> <Gold.Chemscore.Lipo>
68.1526

> <Gold.Chemscore.Internal_Hbond>
0.0000

> <Gold.Chemscore.DEClash>
0.2090

> <Gold.Chemscore.DEInternal>
0.5246

> <Gold.Chemscore.Rot>
1.4410

> <Gold.Chemscore.Internal.Correction>
   9.000000E+99

> <Gold.Chemscore.Hbonds>
donor molecule, donor type, donor heavy atom, donor atom, acceptor molecule, acceptor atom, score
      L1  H    13    39       P1  8028  0.83
      P1  H  7997  8009       L1     1  0.94
      P1  H 10752 10763       L1     8  0.25

> <Gold.Chemscore.Hbond.Weighted>
-6.5720

> <Gold.Chemscore.Metal.Weighted>
-0.0000

> <Gold.Chemscore.Lipo.Weighted>
-7.9739

> <Gold.Chemscore.Internal_Hbond.Weighted>
0.0000

> <Gold.Chemscore.DEClash.Weighted>
0.2090

> <Gold.Chemscore.DEInternal.Weighted>
0.5246

> <Gold.Chemscore.Rot.Weighted>
3.6889

> <Gold.Chemscore.Internal.Correction.Weighted>
   9.000000E+99

> <Gold.Protein.RotatedTorsions>
[ 6907 6896 6895 6894 ] final -117.88 input  -60.11 | X-H torsion
[ 7974 7965 7964 7962 ] final  -82.20 input  175.53 | X-H torsion
[ 8008 7997 7996 7995 ] final -171.96 input   59.86 | X-H torsion
[ 10167 10162 10161 10158 ] final   28.34 input  -65.29 | X-H torsion
[ 10718 10713 10712 10709 ] final -175.44 input   66.30 | X-H torsion
[ 10763 10752 10751 10750 ] final   94.02 input  -60.55 | X-H torsion
[ 11005 11000 10999 10996 ] final   73.39 input  -57.11 | X-H torsion

> <Gold.Protein.ActiveResidues>
 VAL166  LYS551  ARG553  GLY616  TRP617  ASP618  TYR619  PRO620  LYS621  CYS622 
 ASP623  PHE694  ASN695  SER759  ASP760  ASP761  ALA762  ILE779  LEU786  VAL792 
 PHE793  MET794  SER795  GLU796  ALA797  LYS798  CYS799  TRP800  GLU811  SER814 

> <Gold.Protein.RotatedAtoms>
  150.8173  133.8314  159.3154 H   0  0  0  0  0  0  0  0  0  0  0  0  # atno 6907 bound_to 6896
  151.6083  135.1040  160.0085 H   0  0  0  0  0  0  0  0  0  0  0  0  # atno 6908 bound_to 6896
  152.4264  133.7161  159.6563 H   0  0  0  0  0  0  0  0  0  0  0  0  # atno 6909 bound_to 6896
  145.5365  140.9515  143.1575 H   0  0  0  0  0  0  0  0  0  0  0  0  # atno 7974 bound_to 7965
  155.9383  140.1104  157.1076 H   0  0  0  0  0  0  0  0  0  0  0  0  # atno 8008 bound_to 7997
  154.4084  140.1224  156.4959 H   0  0  0  0  0  0  0  0  0  0  0  0  # atno 8009 bound_to 7997
  155.6994  140.3472  155.4929 H   0  0  0  0  0  0  0  0  0  0  0  0  # atno 8010 bound_to 7997
  140.4861  144.0541  150.6281 H   0  0  0  0  0  0  0  0  0  0  0  0  # atno 10167 bound_to 10162
  156.7998  130.9548  151.3119 H   0  0  0  0  0  0  0  0  0  0  0  0  # atno 10718 bound_to 10713
  153.2369  135.4304  155.0656 H   0  0  0  0  0  0  0  0  0  0  0  0  # atno 10763 bound_to 10752
  154.8323  135.3393  154.6705 H   0  0  0  0  0  0  0  0  0  0  0  0  # atno 10764 bound_to 10752
  153.7130  135.7021  153.5089 H   0  0  0  0  0  0  0  0  0  0  0  0  # atno 10765 bound_to 10752
  139.9442  134.7343  156.1021 H   0  0  0  0  0  0  0  0  0  0  0  0  # atno 11005 bound_to 11000
  144.7599  139.6982  143.7238 LP  0  0  0  0  0  0  0  0  0  0  0  0  # atno 17320 bound_to 7965
  146.2010  139.5304  142.9743 LP  0  0  0  0  0  0  0  0  0  0  0  0  # atno 17321 bound_to 7965
  140.3796  143.2810  152.0185 LP  0  0  0  0  0  0  0  0  0  0  0  0  # atno 17342 bound_to 10162
  139.4842  144.6165  151.7336 LP  0  0  0  0  0  0  0  0  0  0  0  0  # atno 17343 bound_to 10162
  157.6559  130.8924  149.9728 LP  0  0  0  0  0  0  0  0  0  0  0  0  # atno 17370 bound_to 10713
  156.1108  130.3650  150.0053 LP  0  0  0  0  0  0  0  0  0  0  0  0  # atno 17371 bound_to 10713
  141.1087  133.6651  156.2927 LP  0  0  0  0  0  0  0  0  0  0  0  0  # atno 17394 bound_to 11000
  140.5875  134.5684  157.5492 LP  0  0  0  0  0  0  0  0  0  0  0  0  # atno 17395 bound_to 11000

$$$$
