AV-unprocessed.smi:719|AV-procd|sdf|3493|dock1
  -GOLD-   22720 0483D 1   1.00000     0.00000
 Structure written by MMmdl.
 41 43  0  0  0  0  0  0  0  0  1 V2000
  153.4393  143.0891  163.4693 C   0  0  0  0  0  0  0  0  0  0  0  0
  152.7549  144.0983  162.5408 C   0  0  0  0  0  0  0  0  0  0  0  0
  152.5986  143.5710  161.1450 C   0  0  0  0  0  0  0  0  0  0  0  0
  152.8430  142.2180  160.8932 N   0  0  0  0  0  0  0  0  0  0  0  0
  152.6682  141.8920  159.6106 C   0  0  0  0  0  0  0  0  0  0  0  0
  152.7991  140.4988  159.0853 C   0  0  0  0  0  0  0  0  0  0  0  0
  151.4690  139.8777  158.6180 C   0  0  0  0  0  0  0  0  0  0  0  0
  151.3719  139.7842  157.1631 N   0  0  0  0  0  0  0  0  0  0  0  0
  152.2148  139.1080  156.3666 C   0  0  0  0  0  0  0  0  0  0  0  0
  153.1973  138.4938  156.7824 O   0  0  0  0  0  0  0  0  0  0  0  0
  151.9001  139.2220  154.9131 C   0  0  2  0  0  0  0  0  0  0  0  0
  150.4665  139.0792  154.4270 C   0  0  2  0  0  0  0  0  0  0  0  0
  149.3175  138.5004  155.2287 C   0  0  0  0  0  0  0  0  0  0  0  0
  149.7554  137.0976  155.6806 C   0  0  0  0  0  0  0  0  0  0  0  0
  150.9240  136.7010  154.7631 C   0  0  0  0  0  0  0  0  0  0  0  0
  151.4547  137.9826  154.1495 C   0  0  2  0  0  0  0  0  0  0  0  0
  152.1796  143.2535  158.6128 S   0  0  0  0  0  0  0  0  0  0  0  0
  152.2356  144.2793  160.0231 C   0  0  0  0  0  0  0  0  0  0  0  0
  151.9083  145.7320  159.9238 C   0  0  0  0  0  0  0  0  0  0  0  0
  153.5436  143.4947  164.4757 H   0  0  0  0  0  0  0  0  0  0  0  0
  154.4362  142.8361  163.1070 H   0  0  0  0  0  0  0  0  0  0  0  0
  152.8643  142.1653  163.5407 H   0  0  0  0  0  0  0  0  0  0  0  0
  151.7784  144.3582  162.9514 H   0  0  0  0  0  0  0  0  0  0  0  0
  153.3279  145.0259  162.5335 H   0  0  0  0  0  0  0  0  0  0  0  0
  153.5088  140.5088  158.2580 H   0  0  0  0  0  0  0  0  0  0  0  0
  153.2439  139.8745  159.8615 H   0  0  0  0  0  0  0  0  0  0  0  0
  151.3362  138.8957  159.0753 H   0  0  0  0  0  0  0  0  0  0  0  0
  150.6392  140.4893  158.9722 H   0  0  0  0  0  0  0  0  0  0  0  0
  150.6067  140.2777  156.7264 H   0  0  0  0  0  0  0  0  0  0  0  0
  152.5538  139.8939  154.3605 H   0  0  0  0  0  0  0  0  0  0  0  0
  150.1761  139.7429  153.6150 H   0  0  0  0  0  0  0  0  0  0  0  0
  149.0614  139.1475  156.0680 H   0  0  0  0  0  0  0  0  0  0  0  0
  148.4434  138.4292  154.5810 H   0  0  0  0  0  0  0  0  0  0  0  0
  150.0992  137.1373  156.7146 H   0  0  0  0  0  0  0  0  0  0  0  0
  148.9379  136.3773  155.6419 H   0  0  0  0  0  0  0  0  0  0  0  0
  151.7104  136.1664  155.2962 H   0  0  0  0  0  0  0  0  0  0  0  0
  150.5662  136.0559  153.9601 H   0  0  0  0  0  0  0  0  0  0  0  0
  151.8543  137.8802  153.1425 H   0  0  0  0  0  0  0  0  0  0  0  0
  152.6888  146.3376  160.3846 H   0  0  0  0  0  0  0  0  0  0  0  0
  150.9679  145.9496  160.4300 H   0  0  0  0  0  0  0  0  0  0  0  0
  151.8108  146.0451  158.8840 H   0  0  0  0  0  0  0  0  0  0  0  0
  1  2  1  0  0  0  0
  1 20  1  0  0  0  0
  1 21  1  0  0  0  0
  1 22  1  0  0  0  0
  2  3  1  0  0  0  0
  2 23  1  0  0  0  0
  2 24  1  0  0  0  0
  3 18  2  0  0  0  0
  3  4  1  0  0  0  0
  4  5  2  0  0  0  0
  5  6  1  0  0  0  0
  5 17  1  0  0  0  0
  6  7  1  0  0  0  0
  6 25  1  0  0  0  0
  6 26  1  0  0  0  0
  7  8  1  0  0  0  0
  7 27  1  0  0  0  0
  7 28  1  0  0  0  0
  8  9  1  0  0  0  0
  8 29  1  0  0  0  0
  9 10  2  0  0  0  0
  9 11  1  0  0  0  0
 11 16  1  0  0  0  0
 11 12  1  0  0  0  0
 11 30  1  0  0  0  0
 12 16  1  0  0  0  0
 12 13  1  0  0  0  0
 12 31  1  0  0  0  0
 13 14  1  0  0  0  0
 13 32  1  0  0  0  0
 13 33  1  0  0  0  0
 14 15  1  0  0  0  0
 14 34  1  0  0  0  0
 14 35  1  0  0  0  0
 15 16  1  0  0  0  0
 15 36  1  0  0  0  0
 15 37  1  0  0  0  0
 16 38  1  0  0  0  0
 17 18  1  0  0  0  0
 18 19  1  0  0  0  0
 19 39  1  0  0  0  0
 19 40  1  0  0  0  0
 19 41  1  0  0  0  0
M  END
> <s_m_source_file>
AV-unprocessed.smi

> <i_m_source_file_index>
719

> <i_lp_mmshare_version>
43012

> <i_f3d_flags>
0

> <s_epik_input>
W0NIM11bQ0gyXWMxbmMoc2MxW0NIM10pW0NIMl1bQ0gyXVtOSF1DKD1PKVtDQEhdMltDQEhdKFtDQEBIXTIzKVtDSDJdW0NIMl1bQ0gyXTM=

> <s_epik_cmdline>
J2VwaWtfcHl0aG9uJywgJy1waCcsICc3LjAnLCAnLXRuJywgJzgnLCAnLW1hJywgJzIwMCcsICctbWV0YWxfYmluZGluZycsICctaW1hZScsICc8aW5maWxlLm1hZT4nLCAnLW9tYWUnLCAnPG91dGZpbGUubWFlPic=

> <r_epik_Ionization_Penalty>
0.00247473

> <r_epik_Ionization_Penalty_Charging>
0

> <r_epik_Ionization_Penalty_Neutral>
0.00247473

> <r_epik_State_Penalty>
0.00171502

> <r_epik_Charging_Adjusted_Penalty>
0.00171502

> <i_epik_Tot_Q>
0

> <i_epik_Tot_abs_Q>
0

> <r_epik_Metal_State_Penalty>
-0

> <b_epik_Metal_Only>
0

> <s_lp_Force_Field>
OPLS_2005

> <r_lp_Energy>
22.4904

> <b_lp_Chiralities_Consistent>
1

> <s_lp_Variant>
AV-unprocessed.smi:719-1

> <Gold.Version>
5.8.1

> <Gold.Id.Protein>
6NUR|6NUR_protein|mol2

> <Gold.PLP.Fitness>
45.9829

> <Gold.PLP.PLP>
-44.4487

> <Gold.PLP.part.hbond>
-1.0000

> <Gold.PLP.part.metal>
0.0000

> <Gold.PLP.part.buried>
-4.3663

> <Gold.PLP.part.nonpolar>
-38.6539

> <Gold.PLP.part.repulsive>
0.0829

> <Gold.PLP.ligand.clash>
0.0000

> <Gold.PLP.ligand.torsion>
0.7746

> <Gold.PLP.Chemscore.Hbond>
0.9600

> <Gold.PLP.Chemscore.CHOScore>
0.0000

> <Gold.PLP.Chemscore.Metal>
0.0000

> <Gold.Chemscore.Hbonds>
donor molecule, donor type, donor heavy atom, donor atom, acceptor molecule, acceptor atom, score
      P1  H  7997  8009       L1    10  0.83

> <Gold.PLP.Chemscore.Internal.Correction>
0.2035

> <Gold.Rescore>
     Score         DG    S(hbond)    S(metal)    S(lipo)     H(rot)  DE(clash)    DE(int)     intcor
     17.24     -18.82       0.54        0.00     129.77       1.42       0.26       1.33       ----

> <Gold.Chemscore.Fitness>
17.2381

> <Gold.Chemscore.DG>
-18.8234

> <Gold.Chemscore.ZeroCoef>
-5.4800

> <Gold.Chemscore.Hbond>
0.5383

> <Gold.Chemscore.Metal>
0.0000

> <Gold.Chemscore.Lipo>
129.7687

> <Gold.Chemscore.Internal_Hbond>
0.0000

> <Gold.Chemscore.DEClash>
0.2587

> <Gold.Chemscore.DEInternal>
1.3265

> <Gold.Chemscore.Rot>
1.4209

> <Gold.Chemscore.Internal.Correction>
   9.000000E+99

> <Gold.Chemscore.Hbonds>
donor molecule, donor type, donor heavy atom, donor atom, acceptor molecule, acceptor atom, score
      P1  H  7997  8009       L1    10  0.13

> <Gold.Chemscore.Hbond.Weighted>
-1.7980

> <Gold.Chemscore.Metal.Weighted>
-0.0000

> <Gold.Chemscore.Lipo.Weighted>
-15.1829

> <Gold.Chemscore.Internal_Hbond.Weighted>
0.0000

> <Gold.Chemscore.DEClash.Weighted>
0.2587

> <Gold.Chemscore.DEInternal.Weighted>
1.3265

> <Gold.Chemscore.Rot.Weighted>
3.6376

> <Gold.Chemscore.Internal.Correction.Weighted>
   9.000000E+99

> <Gold.Protein.RotatedTorsions>
[ 6907 6896 6895 6894 ] final  -50.81 input  -60.11 | X-H torsion
[ 7974 7965 7964 7962 ] final  -27.86 input  175.53 | X-H torsion
[ 8008 7997 7996 7995 ] final  168.55 input   59.86 | X-H torsion
[ 10167 10162 10161 10158 ] final  151.32 input  -65.29 | X-H torsion
[ 10718 10713 10712 10709 ] final   80.87 input   66.30 | X-H torsion
[ 10763 10752 10751 10750 ] final   90.92 input  -60.55 | X-H torsion
[ 11005 11000 10999 10996 ] final  -29.58 input  -57.11 | X-H torsion

> <Gold.Protein.ActiveResidues>
 VAL166  LYS551  ARG553  GLY616  TRP617  ASP618  TYR619  PRO620  LYS621  CYS622 
 ASP623  PHE694  ASN695  SER759  ASP760  ASP761  ALA762  ILE779  LEU786  VAL792 
 PHE793  MET794  SER795  GLU796  ALA797  LYS798  CYS799  TRP800  GLU811  SER814 

> <Gold.Protein.RotatedAtoms>
  150.8671  134.8036  159.7126 H   0  0  0  0  0  0  0  0  0  0  0  0  # atno 6907 bound_to 6896
  152.4688  134.5006  159.9733 H   0  0  0  0  0  0  0  0  0  0  0  0  # atno 6908 bound_to 6896
  151.5101  133.3448  159.2919 H   0  0  0  0  0  0  0  0  0  0  0  0  # atno 6909 bound_to 6896
  146.1329  140.5207  142.8685 H   0  0  0  0  0  0  0  0  0  0  0  0  # atno 7974 bound_to 7965
  156.1537  140.1587  156.8728 H   0  0  0  0  0  0  0  0  0  0  0  0  # atno 8008 bound_to 7997
  154.5095  140.0804  156.7997 H   0  0  0  0  0  0  0  0  0  0  0  0  # atno 8009 bound_to 7997
  155.3845  140.3407  155.4250 H   0  0  0  0  0  0  0  0  0  0  0  0  # atno 8010 bound_to 7997
  139.4841  144.5451  151.7498 H   0  0  0  0  0  0  0  0  0  0  0  0  # atno 10167 bound_to 10162
  157.6818  130.9979  150.2143 H   0  0  0  0  0  0  0  0  0  0  0  0  # atno 10718 bound_to 10713
  153.2027  135.4416  155.0285 H   0  0  0  0  0  0  0  0  0  0  0  0  # atno 10763 bound_to 10752
  154.8156  135.3313  154.7188 H   0  0  0  0  0  0  0  0  0  0  0  0  # atno 10764 bound_to 10752
  153.7632  135.6990  153.4977 H   0  0  0  0  0  0  0  0  0  0  0  0  # atno 10765 bound_to 10752
  140.9308  133.7339  156.0934 H   0  0  0  0  0  0  0  0  0  0  0  0  # atno 11005 bound_to 11000
  144.7709  140.5635  143.6671 LP  0  0  0  0  0  0  0  0  0  0  0  0  # atno 17320 bound_to 7965
  145.5221  139.1476  143.3546 LP  0  0  0  0  0  0  0  0  0  0  0  0  # atno 17321 bound_to 7965
  140.4996  144.1189  150.5968 LP  0  0  0  0  0  0  0  0  0  0  0  0  # atno 17342 bound_to 10162
  140.4077  143.2672  151.9870 LP  0  0  0  0  0  0  0  0  0  0  0  0  # atno 17343 bound_to 10162
  156.2807  130.3733  149.7938 LP  0  0  0  0  0  0  0  0  0  0  0  0  # atno 17370 bound_to 10713
  156.5627  130.8390  151.3333 LP  0  0  0  0  0  0  0  0  0  0  0  0  # atno 17371 bound_to 10713
  140.7865  134.3666  157.5475 LP  0  0  0  0  0  0  0  0  0  0  0  0  # atno 17394 bound_to 11000
  139.8796  134.9114  156.3035 LP  0  0  0  0  0  0  0  0  0  0  0  0  # atno 17395 bound_to 11000

$$$$
