AV-unprocessed.smi:348|AV-procd|sdf|2395|dock1
  -GOLD-   2262022323D 1   1.00000     0.00000
 Structure written by MMmdl.
 39 40  0  0  0  0  0  0  0  0  1 V2000
  151.8437  137.2616  154.7029 C   0  0  0  0  0  0  0  0  0  0  0  0
  152.5521  136.0324  154.7054 O   0  0  0  0  0  0  0  0  0  0  0  0
  152.5523  135.3660  155.9597 C   0  0  0  0  0  0  0  0  0  0  0  0
  151.1834  134.7299  156.2653 C   0  0  0  0  0  0  0  0  0  0  0  0
  150.7828  133.7668  155.2586 N   0  0  0  0  0  0  0  0  0  0  0  0
  149.9058  134.0605  154.2106 C   0  0  0  0  0  0  0  0  0  0  0  0
  149.4094  135.3532  154.1218 N   0  0  0  0  0  0  0  0  0  0  0  0
  149.5433  133.1303  153.2786 C   0  0  0  0  0  0  0  0  0  0  0  0
  148.6649  133.4649  152.2468 N   0  0  0  0  0  0  0  0  0  0  0  0
  148.1358  132.6661  151.1512 C   0  0  0  0  0  0  0  0  0  0  0  0
  146.6241  132.7314  151.0420 C   0  0  0  0  0  0  0  0  0  0  0  0
  145.9727  133.9802  150.9497 C   0  0  0  0  0  0  0  0  0  0  0  0
  144.5693  134.0417  150.8464 C   0  0  0  0  0  0  0  0  0  0  0  0
  143.8110  132.8551  150.8329 C   0  0  0  0  0  0  0  0  0  0  0  0
  144.4571  131.6069  150.9217 C   0  0  0  0  0  0  0  0  0  0  0  0
  145.8605  131.5448  151.0247 C   0  0  0  0  0  0  0  0  0  0  0  0
  150.0904  131.7636  153.3563 C   0  0  0  0  0  0  0  0  0  0  0  0
  149.8450  130.8279  152.5967 O   0  0  0  0  0  0  0  0  0  0  0  0
  150.9798  131.5442  154.4055 N   0  0  0  0  0  0  0  0  0  0  0  0
  151.3651  132.4820  155.3545 C   0  0  0  0  0  0  0  0  0  0  0  0
  152.1805  132.1653  156.2213 O   0  0  0  0  0  0  0  0  0  0  0  0
  151.3852  130.6226  154.4794 H   0  0  0  0  0  0  0  0  0  0  0  0
  151.8588  137.6853  153.6989 H   0  0  0  0  0  0  0  0  0  0  0  0
  152.2926  137.9920  155.3755 H   0  0  0  0  0  0  0  0  0  0  0  0
  150.8012  137.1165  154.9883 H   0  0  0  0  0  0  0  0  0  0  0  0
  153.3524  134.6254  156.0052 H   0  0  0  0  0  0  0  0  0  0  0  0
  152.7809  136.1130  156.7202 H   0  0  0  0  0  0  0  0  0  0  0  0
  151.1747  134.2324  157.2365 H   0  0  0  0  0  0  0  0  0  0  0  0
  150.3870  135.4706  156.3229 H   0  0  0  0  0  0  0  0  0  0  0  0
  149.6649  136.0694  154.7860 H   0  0  0  0  0  0  0  0  0  0  0  0
  148.7902  135.6359  153.3758 H   0  0  0  0  0  0  0  0  0  0  0  0
  148.3025  134.4065  152.2703 H   0  0  0  0  0  0  0  0  0  0  0  0
  148.5585  133.0185  150.2098 H   0  0  0  0  0  0  0  0  0  0  0  0
  148.4494  131.6294  151.2817 H   0  0  0  0  0  0  0  0  0  0  0  0
  146.5486  134.8942  150.9567 H   0  0  0  0  0  0  0  0  0  0  0  0
  144.0749  134.9993  150.7768 H   0  0  0  0  0  0  0  0  0  0  0  0
  142.7350  132.9023  150.7533 H   0  0  0  0  0  0  0  0  0  0  0  0
  143.8760  130.6967  150.9109 H   0  0  0  0  0  0  0  0  0  0  0  0
  146.3467  130.5825  151.0922 H   0  0  0  0  0  0  0  0  0  0  0  0
  1  2  1  0  0  0  0
  1 23  1  0  0  0  0
  1 24  1  0  0  0  0
  1 25  1  0  0  0  0
  2  3  1  0  0  0  0
  3  4  1  0  0  0  0
  3 26  1  0  0  0  0
  3 27  1  0  0  0  0
  4  5  1  0  0  0  0
  4 28  1  0  0  0  0
  4 29  1  0  0  0  0
  5 20  1  0  0  0  0
  5  6  1  0  0  0  0
  6  7  1  0  0  0  0
  6  8  2  0  0  0  0
  7 30  1  0  0  0  0
  7 31  1  0  0  0  0
  8  9  1  0  0  0  0
  8 17  1  0  0  0  0
  9 10  1  0  0  0  0
  9 32  1  0  0  0  0
 10 11  1  0  0  0  0
 10 33  1  0  0  0  0
 10 34  1  0  0  0  0
 11 16  1  0  0  0  0
 11 12  2  0  0  0  0
 12 13  1  0  0  0  0
 12 35  1  0  0  0  0
 13 14  2  0  0  0  0
 13 36  1  0  0  0  0
 14 15  1  0  0  0  0
 14 37  1  0  0  0  0
 15 16  2  0  0  0  0
 15 38  1  0  0  0  0
 16 39  1  0  0  0  0
 17 18  2  0  0  0  0
 17 19  1  0  0  0  0
 19 22  1  0  0  0  0
 19 20  1  0  0  0  0
 20 21  2  0  0  0  0
M  END
> <s_m_source_file>
AV-unprocessed.smi

> <i_m_source_file_index>
348

> <i_lp_mmshare_version>
43012

> <i_f3d_flags>
0

> <s_epik_input>
W0NIM11PW0NIMl1bQ0gyXW4xYyhbTkgyXSljKGMoPU8pW25IXWMxPU8pW05IXVtDSDJdYzJbY0hdW2NIXVtjSF1bY0hdW2NIXTI=

> <s_epik_cmdline>
J2VwaWtfcHl0aG9uJywgJy1waCcsICc3LjAnLCAnLXRuJywgJzgnLCAnLW1hJywgJzIwMCcsICctbWV0YWxfYmluZGluZycsICctaW1hZScsICc8aW5maWxlLm1hZT4nLCAnLW9tYWUnLCAnPG91dGZpbGUubWFlPic=

> <r_lp_tautomer_probability>
1

> <r_epik_Ionization_Penalty>
5.85579e-06

> <r_epik_Ionization_Penalty_Charging>
2.30036e-06

> <r_epik_Ionization_Penalty_Neutral>
3.55543e-06

> <r_epik_State_Penalty>
-0

> <r_epik_Charging_Adjusted_Penalty>
2.30036e-06

> <i_epik_Tot_Q>
0

> <i_epik_Tot_abs_Q>
0

> <r_epik_Metal_State_Penalty>
-0

> <b_epik_Metal_Only>
0

> <s_epik_Chemistry_Notes>
This compound has an imine and may undergo hydrolysis.

> <s_lp_Force_Field>
OPLS_2005

> <r_lp_Energy>
18.6076

> <b_lp_Chiralities_Consistent>
1

> <s_lp_Variant>
AV-unprocessed.smi:348-1

> <Gold.Version>
5.8.1

> <Gold.Id.Protein>
6NUR|6NUR_protein|mol2

> <Gold.PLP.Fitness>
43.5697

> <Gold.PLP.PLP>
-34.0534

> <Gold.PLP.part.hbond>
-4.0000

> <Gold.PLP.part.metal>
0.0000

> <Gold.PLP.part.buried>
-1.0008

> <Gold.PLP.part.nonpolar>
-29.2961

> <Gold.PLP.part.repulsive>
0.1491

> <Gold.PLP.ligand.clash>
0.0000

> <Gold.PLP.ligand.torsion>
0.4135

> <Gold.PLP.Chemscore.Hbond>
3.4240

> <Gold.PLP.Chemscore.CHOScore>
0.0000

> <Gold.PLP.Chemscore.Metal>
0.0000

> <Gold.Chemscore.Hbonds>
donor molecule, donor type, donor heavy atom, donor atom, acceptor molecule, acceptor atom, score
      L1  H     7    31       P1  7948  0.70
      L1  H     9    32       P1  7948  0.47

> <Gold.PLP.Chemscore.Internal.Correction>
0.0714

> <Gold.Rescore>
     Score         DG    S(hbond)    S(metal)    S(lipo)     H(rot)  DE(clash)    DE(int)     intcor
     15.81     -19.09       3.12        0.00      73.18       2.10       1.54       1.74       ----

> <Gold.Chemscore.Fitness>
15.8086

> <Gold.Chemscore.DG>
-19.0858

> <Gold.Chemscore.ZeroCoef>
-5.4800

> <Gold.Chemscore.Hbond>
3.1174

> <Gold.Chemscore.Metal>
0.0000

> <Gold.Chemscore.Lipo>
73.1753

> <Gold.Chemscore.Internal_Hbond>
0.0000

> <Gold.Chemscore.DEClash>
1.5375

> <Gold.Chemscore.DEInternal>
1.7397

> <Gold.Chemscore.Rot>
2.0968

> <Gold.Chemscore.Internal.Correction>
   9.000000E+99

> <Gold.Chemscore.Hbonds>
donor molecule, donor type, donor heavy atom, donor atom, acceptor molecule, acceptor atom, score
      L1  H     7    31       P1  7948  0.65
      L1  H     9    32       P1  7948  0.04

> <Gold.Chemscore.Hbond.Weighted>
-10.4120

> <Gold.Chemscore.Metal.Weighted>
-0.0000

> <Gold.Chemscore.Lipo.Weighted>
-8.5615

> <Gold.Chemscore.Internal_Hbond.Weighted>
0.0000

> <Gold.Chemscore.DEClash.Weighted>
1.5375

> <Gold.Chemscore.DEInternal.Weighted>
1.7397

> <Gold.Chemscore.Rot.Weighted>
5.3677

> <Gold.Chemscore.Internal.Correction.Weighted>
   9.000000E+99

> <Gold.Protein.RotatedTorsions>
[ 6907 6896 6895 6894 ] final  -25.97 input  -60.11 | X-H torsion
[ 7974 7965 7964 7962 ] final  138.69 input  175.53 | X-H torsion
[ 8008 7997 7996 7995 ] final   38.35 input   59.86 | X-H torsion
[ 10167 10162 10161 10158 ] final  -49.60 input  -65.29 | X-H torsion
[ 10718 10713 10712 10709 ] final -166.18 input   66.30 | X-H torsion
[ 10763 10752 10751 10750 ] final -168.29 input  -60.55 | X-H torsion
[ 11005 11000 10999 10996 ] final -178.12 input  -57.11 | X-H torsion

> <Gold.Protein.ActiveResidues>
 VAL166  LYS551  ARG553  GLY616  TRP617  ASP618  TYR619  PRO620  LYS621  CYS622 
 ASP623  PHE694  ASN695  SER759  ASP760  ASP761  ALA762  ILE779  LEU786  VAL792 
 PHE793  MET794  SER795  GLU796  ALA797  LYS798  CYS799  TRP800  GLU811  SER814 

> <Gold.Protein.RotatedAtoms>
  151.1675  135.0302  159.8737 H   0  0  0  0  0  0  0  0  0  0  0  0  # atno 6907 bound_to 6896
  152.5450  134.1208  159.8408 H   0  0  0  0  0  0  0  0  0  0  0  0  # atno 6908 bound_to 6896
  151.1310  133.4990  159.2631 H   0  0  0  0  0  0  0  0  0  0  0  0  # atno 6909 bound_to 6896
  144.9349  139.5002  143.5600 H   0  0  0  0  0  0  0  0  0  0  0  0  # atno 7974 bound_to 7965
  155.2188  140.3329  155.4318 H   0  0  0  0  0  0  0  0  0  0  0  0  # atno 8008 bound_to 7997
  156.2341  140.1864  156.7212 H   0  0  0  0  0  0  0  0  0  0  0  0  # atno 8009 bound_to 7997
  154.6029  140.0620  156.9378 H   0  0  0  0  0  0  0  0  0  0  0  0  # atno 8010 bound_to 7997
  140.6677  143.2691  151.4239 H   0  0  0  0  0  0  0  0  0  0  0  0  # atno 10167 bound_to 10162
  156.6642  130.9058  151.3034 H   0  0  0  0  0  0  0  0  0  0  0  0  # atno 10718 bound_to 10713
  154.6644  135.2929  154.9825 H   0  0  0  0  0  0  0  0  0  0  0  0  # atno 10763 bound_to 10752
  154.0873  135.6596  153.4851 H   0  0  0  0  0  0  0  0  0  0  0  0  # atno 10764 bound_to 10752
  153.0448  135.5211  154.7610 H   0  0  0  0  0  0  0  0  0  0  0  0  # atno 10765 bound_to 10752
  140.4333  134.6499  157.4722 H   0  0  0  0  0  0  0  0  0  0  0  0  # atno 11005 bound_to 11000
  146.3262  139.8326  142.8905 LP  0  0  0  0  0  0  0  0  0  0  0  0  # atno 17320 bound_to 7965
  145.3083  141.0213  143.3569 LP  0  0  0  0  0  0  0  0  0  0  0  0  # atno 17321 bound_to 7965
  139.5932  144.1453  152.2113 LP  0  0  0  0  0  0  0  0  0  0  0  0  # atno 17342 bound_to 10162
  140.0814  144.5697  150.7119 LP  0  0  0  0  0  0  0  0  0  0  0  0  # atno 17343 bound_to 10162
  157.7099  130.9428  150.1055 LP  0  0  0  0  0  0  0  0  0  0  0  0  # atno 17370 bound_to 10713
  156.1988  130.3659  149.8815 LP  0  0  0  0  0  0  0  0  0  0  0  0  # atno 17371 bound_to 10713
  140.0120  134.6677  155.9367 LP  0  0  0  0  0  0  0  0  0  0  0  0  # atno 17394 bound_to 11000
  141.1736  133.6539  156.4745 LP  0  0  0  0  0  0  0  0  0  0  0  0  # atno 17395 bound_to 11000

$$$$
