AV-unprocessed.smi:2089|AV-procd|sdf|8528|dock4
  -GOLD-   2272011243D 1   1.00000     0.00000
 Structure written by MMmdl.
 39 40  0  0  0  0  0  0  0  0  1 V2000
  146.0719  142.8387  158.4837 C   0  0  0  0  0  0  0  0  0  0  0  0
  146.4141  141.2862  157.5600 S   0  0  0  0  0  0  0  0  0  0  0  0
  147.5529  140.6106  158.2006 O   0  0  0  0  0  0  0  0  0  0  0  0
  145.1526  140.5587  157.3526 O   0  0  0  0  0  0  0  0  0  0  0  0
  146.9501  141.8658  156.0196 N   0  0  0  0  0  0  0  0  0  0  0  0
  146.1184  142.8457  155.3064 C   0  0  0  0  0  0  0  0  0  0  0  0
  146.4430  142.6659  153.8252 C   0  0  0  0  0  0  0  0  0  0  0  0
  146.8081  141.1911  153.7318 C   0  0  0  0  0  0  0  0  0  0  0  0
  147.5207  140.9012  155.0646 C   0  0  1  0  0  0  0  0  0  0  0  0
  149.0520  140.9900  154.9800 C   0  0  0  0  0  0  0  0  0  0  0  0
  149.6161  141.2165  153.9088 O   0  0  0  0  0  0  0  0  0  0  0  0
  149.7159  140.8178  156.1317 N   0  0  0  0  0  0  0  0  0  0  0  0
  151.1640  140.8796  156.2672 C   0  0  0  0  0  0  0  0  0  0  0  0
  151.5743  140.7735  157.7422 C   0  0  0  0  0  0  0  0  0  0  0  0
  151.6531  142.1312  158.4147 C   0  0  0  0  0  0  0  0  0  0  0  0
  152.7757  142.4850  159.1932 C   0  0  0  0  0  0  0  0  0  0  0  0
  152.8055  143.7622  159.7862 C   0  0  0  0  0  0  0  0  0  0  0  0
  151.7179  144.6323  159.5785 C   0  0  0  0  0  0  0  0  0  0  0  0
  150.6442  144.1844  158.7830 C   0  0  0  0  0  0  0  0  0  0  0  0
  150.6060  142.9621  158.2096 N   0  0  0  0  0  0  0  0  0  0  0  0
  145.7653  142.5942  159.5005 H   0  0  0  0  0  0  0  0  0  0  0  0
  145.2734  143.3918  157.9901 H   0  0  0  0  0  0  0  0  0  0  0  0
  146.9735  143.4501  158.5144 H   0  0  0  0  0  0  0  0  0  0  0  0
  145.0649  142.6285  155.4859 H   0  0  0  0  0  0  0  0  0  0  0  0
  146.3229  143.8570  155.6580 H   0  0  0  0  0  0  0  0  0  0  0  0
  145.6127  142.9394  153.1739 H   0  0  0  0  0  0  0  0  0  0  0  0
  147.3015  143.2815  153.5537 H   0  0  0  0  0  0  0  0  0  0  0  0
  145.9004  140.5897  153.6650 H   0  0  0  0  0  0  0  0  0  0  0  0
  147.4079  140.9669  152.8486 H   0  0  0  0  0  0  0  0  0  0  0  0
  147.2617  139.8873  155.3751 H   0  0  0  0  0  0  0  0  0  0  0  0
  149.1797  140.6514  156.9714 H   0  0  0  0  0  0  0  0  0  0  0  0
  151.6176  140.0688  155.6949 H   0  0  0  0  0  0  0  0  0  0  0  0
  151.5246  141.8177  155.8422 H   0  0  0  0  0  0  0  0  0  0  0  0
  150.8620  140.1500  158.2850 H   0  0  0  0  0  0  0  0  0  0  0  0
  152.5418  140.2764  157.8257 H   0  0  0  0  0  0  0  0  0  0  0  0
  153.5970  141.7971  159.3314 H   0  0  0  0  0  0  0  0  0  0  0  0
  153.6482  144.0694  160.3879 H   0  0  0  0  0  0  0  0  0  0  0  0
  151.7072  145.6188  160.0173 H   0  0  0  0  0  0  0  0  0  0  0  0
  149.7941  144.8253  158.6020 H   0  0  0  0  0  0  0  0  0  0  0  0
  1  2  1  0  0  0  0
  1 21  1  0  0  0  0
  1 22  1  0  0  0  0
  1 23  1  0  0  0  0
  2  3  2  0  0  0  0
  2  4  2  0  0  0  0
  2  5  1  0  0  0  0
  5  9  1  0  0  0  0
  5  6  1  0  0  0  0
  6  7  1  0  0  0  0
  6 24  1  0  0  0  0
  6 25  1  0  0  0  0
  7  8  1  0  0  0  0
  7 26  1  0  0  0  0
  7 27  1  0  0  0  0
  8  9  1  0  0  0  0
  8 28  1  0  0  0  0
  8 29  1  0  0  0  0
  9 10  1  0  0  0  0
  9 30  1  0  0  0  0
 10 11  2  0  0  0  0
 10 12  1  0  0  0  0
 12 13  1  0  0  0  0
 12 31  1  0  0  0  0
 13 14  1  0  0  0  0
 13 32  1  0  0  0  0
 13 33  1  0  0  0  0
 14 15  1  0  0  0  0
 14 34  1  0  0  0  0
 14 35  1  0  0  0  0
 15 20  1  0  0  0  0
 15 16  2  0  0  0  0
 16 17  1  0  0  0  0
 16 36  1  0  0  0  0
 17 18  2  0  0  0  0
 17 37  1  0  0  0  0
 18 19  1  0  0  0  0
 18 38  1  0  0  0  0
 19 20  2  0  0  0  0
 19 39  1  0  0  0  0
M  END
> <s_m_source_file>
AV-unprocessed.smi

> <i_m_source_file_index>
2089

> <i_lp_mmshare_version>
43012

> <i_f3d_flags>
0

> <s_epik_input>
W0NIM11TKD1PKSg9TylOMVtDSDJdW0NIMl1bQ0gyXVtDQEhdMUMoPU8pW05IXVtDSDJdW0NIMl1jMltjSF1bY0hdW2NIXVtjSF1uMg==

> <s_epik_cmdline>
J2VwaWtfcHl0aG9uJywgJy1waCcsICc3LjAnLCAnLXRuJywgJzgnLCAnLW1hJywgJzIwMCcsICctbWV0YWxfYmluZGluZycsICctaW1hZScsICc8aW5maWxlLm1hZT4nLCAnLW9tYWUnLCAnPG91dGZpbGUubWFlPic=

> <r_epik_Ionization_Penalty>
0.0244371

> <r_epik_Ionization_Penalty_Charging>
0

> <r_epik_Ionization_Penalty_Neutral>
0.0244371

> <r_epik_State_Penalty>
0.0198365

> <r_epik_Charging_Adjusted_Penalty>
0.0198365

> <i_epik_Tot_Q>
0

> <i_epik_Tot_abs_Q>
0

> <r_epik_Metal_State_Penalty>
0.0190441

> <b_epik_Metal_Only>
0

> <s_lp_Force_Field>
OPLS_2005

> <r_lp_Energy>
6.09758

> <b_lp_Chiralities_Consistent>
1

> <s_lp_Variant>
AV-unprocessed.smi:2089-1

> <Gold.Version>
5.8.1

> <Gold.Id.Protein>
6NUR|6NUR_protein|mol2

> <Gold.PLP.Fitness>
42.4684

> <Gold.PLP.PLP>
-36.5974

> <Gold.PLP.part.hbond>
-3.0000

> <Gold.PLP.part.metal>
0.0000

> <Gold.PLP.part.buried>
-5.8866

> <Gold.PLP.part.nonpolar>
-29.2829

> <Gold.PLP.part.repulsive>
1.5296

> <Gold.PLP.ligand.clash>
0.0000

> <Gold.PLP.ligand.torsion>
0.6156

> <Gold.PLP.Chemscore.Hbond>
1.1855

> <Gold.PLP.Chemscore.CHOScore>
1.0000

> <Gold.PLP.Chemscore.Metal>
0.0000

> <Gold.Chemscore.Hbonds>
donor molecule, donor type, donor heavy atom, donor atom, acceptor molecule, acceptor atom, score
      P1  H  7989  7998       L1    11  0.30
      P1  H  8011  8017       L1    11  0.82
      L1  C    19    39       P1  8029  0.92

> <Gold.PLP.Chemscore.Internal.Correction>
0.5458

> <Gold.Rescore>
     Score         DG    S(hbond)    S(metal)    S(lipo)     H(rot)  DE(clash)    DE(int)     intcor
     14.33     -15.34       1.14        0.00      93.35       1.90       0.45       0.56       ----

> <Gold.Chemscore.Fitness>
14.3301

> <Gold.Chemscore.DG>
-15.3407

> <Gold.Chemscore.ZeroCoef>
-5.4800

> <Gold.Chemscore.Hbond>
1.1378

> <Gold.Chemscore.Metal>
0.0000

> <Gold.Chemscore.Lipo>
93.3489

> <Gold.Chemscore.Internal_Hbond>
0.0000

> <Gold.Chemscore.DEClash>
0.4479

> <Gold.Chemscore.DEInternal>
0.5627

> <Gold.Chemscore.Rot>
1.8990

> <Gold.Chemscore.Internal.Correction>
   9.000000E+99

> <Gold.Chemscore.Hbonds>
donor molecule, donor type, donor heavy atom, donor atom, acceptor molecule, acceptor atom, score
      P1  H  7989  7998       L1    11  0.29
      P1  H  8011  8017       L1    11  0.79

> <Gold.Chemscore.Hbond.Weighted>
-3.8002

> <Gold.Chemscore.Metal.Weighted>
-0.0000

> <Gold.Chemscore.Lipo.Weighted>
-10.9218

> <Gold.Chemscore.Internal_Hbond.Weighted>
0.0000

> <Gold.Chemscore.DEClash.Weighted>
0.4479

> <Gold.Chemscore.DEInternal.Weighted>
0.5627

> <Gold.Chemscore.Rot.Weighted>
4.8613

> <Gold.Chemscore.Internal.Correction.Weighted>
   9.000000E+99

> <Gold.Protein.RotatedTorsions>
[ 6907 6896 6895 6894 ] final -153.77 input  -60.11 | X-H torsion
[ 7974 7965 7964 7962 ] final  111.57 input  175.53 | X-H torsion
[ 8008 7997 7996 7995 ] final  -99.78 input   59.86 | X-H torsion
[ 10167 10162 10161 10158 ] final  -54.75 input  -65.29 | X-H torsion
[ 10718 10713 10712 10709 ] final  -45.11 input   66.30 | X-H torsion
[ 10763 10752 10751 10750 ] final   -8.44 input  -60.55 | X-H torsion
[ 11005 11000 10999 10996 ] final   97.11 input  -57.11 | X-H torsion

> <Gold.Protein.ActiveResidues>
 VAL166  LYS551  ARG553  GLY616  TRP617  ASP618  TYR619  PRO620  LYS621  CYS622 
 ASP623  PHE694  ASN695  SER759  ASP760  ASP761  ALA762  ILE779  LEU786  VAL792 
 PHE793  MET794  SER795  GLU796  ALA797  LYS798  CYS799  TRP800  GLU811  SER814 

> <Gold.Protein.RotatedAtoms>
  151.2476  133.4367  159.2609 H   0  0  0  0  0  0  0  0  0  0  0  0  # atno 6907 bound_to 6896
  151.0647  134.9760  159.8289 H   0  0  0  0  0  0  0  0  0  0  0  0  # atno 6908 bound_to 6896
  152.5403  134.2424  159.8920 H   0  0  0  0  0  0  0  0  0  0  0  0  # atno 6909 bound_to 6896
  145.2406  139.2780  143.4120 H   0  0  0  0  0  0  0  0  0  0  0  0  # atno 7974 bound_to 7965
  154.8196  140.0445  157.1401 H   0  0  0  0  0  0  0  0  0  0  0  0  # atno 8008 bound_to 7997
  154.9275  140.3035  155.5164 H   0  0  0  0  0  0  0  0  0  0  0  0  # atno 8009 bound_to 7997
  156.2979  140.2329  156.4331 H   0  0  0  0  0  0  0  0  0  0  0  0  # atno 8010 bound_to 7997
  140.6413  143.2509  151.4982 H   0  0  0  0  0  0  0  0  0  0  0  0  # atno 10167 bound_to 10162
  156.2317  130.4173  149.8867 H   0  0  0  0  0  0  0  0  0  0  0  0  # atno 10718 bound_to 10713
  153.4405  135.7013  153.6172 H   0  0  0  0  0  0  0  0  0  0  0  0  # atno 10763 bound_to 10752
  153.4549  135.3749  155.2305 H   0  0  0  0  0  0  0  0  0  0  0  0  # atno 10764 bound_to 10752
  154.8727  135.4006  154.3803 H   0  0  0  0  0  0  0  0  0  0  0  0  # atno 10765 bound_to 10752
  139.8777  134.8984  156.4258 H   0  0  0  0  0  0  0  0  0  0  0  0  # atno 11005 bound_to 11000
  146.3329  140.2768  142.8608 LP  0  0  0  0  0  0  0  0  0  0  0  0  # atno 17320 bound_to 7965
  144.9592  140.8258  143.5524 LP  0  0  0  0  0  0  0  0  0  0  0  0  # atno 17321 bound_to 7965
  139.5622  144.2128  152.1709 LP  0  0  0  0  0  0  0  0  0  0  0  0  # atno 17342 bound_to 10162
  140.1400  144.5211  150.6750 LP  0  0  0  0  0  0  0  0  0  0  0  0  # atno 17343 bound_to 10162
  156.6479  130.8731  151.3526 LP  0  0  0  0  0  0  0  0  0  0  0  0  # atno 17370 bound_to 10713
  157.7136  130.9470  150.1175 LP  0  0  0  0  0  0  0  0  0  0  0  0  # atno 17371 bound_to 10713
  140.9102  133.7717  155.9782 LP  0  0  0  0  0  0  0  0  0  0  0  0  # atno 17394 bound_to 11000
  140.8555  134.2903  157.5257 LP  0  0  0  0  0  0  0  0  0  0  0  0  # atno 17395 bound_to 11000

$$$$
