AV-unprocessed.smi:356|AV-procd|sdf|2411|dock5
  -GOLD-   2262022343D 1   1.00000     0.00000
 Structure written by MMmdl.
 42 44  0  0  0  0  0  0  0  0  2 V2000
  151.8391  138.6276  157.8008 C   0  0  0  0  0  0  0  0  0  0  0  0
  152.0259  140.0095  158.3422 C   0  0  0  0  0  0  0  0  0  0  0  0
  152.5860  140.2379  159.5299 N   0  0  0  0  0  0  0  0  0  0  0  0
  152.5594  141.6164  159.6173 C   0  0  0  0  0  0  0  0  0  0  0  0
  153.0070  142.4808  160.6420 C   0  0  0  0  0  0  0  0  0  0  0  0
  152.8735  143.8781  160.5061 C   0  0  0  0  0  0  0  0  0  0  0  0
  152.2914  144.4305  159.3468 C   0  0  0  0  0  0  0  0  0  0  0  0
  151.8378  143.5875  158.3142 C   0  0  0  0  0  0  0  0  0  0  0  0
  151.9731  142.1930  158.4545 C   0  0  0  0  0  0  0  0  0  0  0  0
  151.6353  141.1082  157.6504 N   0  0  0  0  0  0  0  0  0  0  0  0
  150.9960  141.1631  156.3425 C   0  0  0  0  0  0  0  0  0  0  0  0
  149.4807  141.4355  156.4301 C   0  0  1  0  0  0  0  0  0  0  0  0
  149.2575  142.6680  157.0886 O   0  0  0  0  0  0  0  0  0  0  0  0
  148.8293  141.4961  155.0346 C   0  0  0  0  0  0  0  0  0  0  0  0
  147.5260  142.2087  155.0440 N   0  3  0  0  0  0  0  0  0  0  0  0
  146.8831  142.2352  153.7085 C   0  0  0  0  0  0  0  0  0  0  0  0
  145.5732  143.0397  153.7579 C   0  0  0  0  0  0  0  0  0  0  0  0
  144.7066  142.4804  154.7370 O   0  0  0  0  0  0  0  0  0  0  0  0
  145.2752  142.5256  156.0397 C   0  0  0  0  0  0  0  0  0  0  0  0
  146.5750  141.7033  156.0652 C   0  0  0  0  0  0  0  0  0  0  0  0
  152.1910  137.8856  158.5183 H   0  0  0  0  0  0  0  0  0  0  0  0
  152.4039  138.5041  156.8767 H   0  0  0  0  0  0  0  0  0  0  0  0
  150.7850  138.4364  157.6010 H   0  0  0  0  0  0  0  0  0  0  0  0
  153.4529  142.0678  161.5347 H   0  0  0  0  0  0  0  0  0  0  0  0
  153.2193  144.5296  161.2952 H   0  0  0  0  0  0  0  0  0  0  0  0
  152.1925  145.5021  159.2512 H   0  0  0  0  0  0  0  0  0  0  0  0
  151.3898  144.0091  157.4272 H   0  0  0  0  0  0  0  0  0  0  0  0
  151.4865  141.9363  155.7498 H   0  0  0  0  0  0  0  0  0  0  0  0
  151.1818  140.2236  155.8214 H   0  0  0  0  0  0  0  0  0  0  0  0
  149.0197  140.6492  157.0259 H   0  0  0  0  0  0  0  0  0  0  0  0
  149.3999  143.3708  156.4728 H   0  0  0  0  0  0  0  0  0  0  0  0
  149.5172  142.0003  154.3537 H   0  0  0  0  0  0  0  0  0  0  0  0
  148.6869  140.4915  154.6331 H   0  0  0  0  0  0  0  0  0  0  0  0
  147.5591  142.6842  152.9800 H   0  0  0  0  0  0  0  0  0  0  0  0
  146.6838  141.2147  153.3775 H   0  0  0  0  0  0  0  0  0  0  0  0
  145.7686  144.0894  153.9832 H   0  0  0  0  0  0  0  0  0  0  0  0
  145.0769  143.0095  152.7878 H   0  0  0  0  0  0  0  0  0  0  0  0
  145.4622  143.5599  156.3333 H   0  0  0  0  0  0  0  0  0  0  0  0
  144.5585  142.1173  156.7526 H   0  0  0  0  0  0  0  0  0  0  0  0
  146.3525  140.6527  155.8716 H   0  0  0  0  0  0  0  0  0  0  0  0
  147.0145  141.7581  157.0604 H   0  0  0  0  0  0  0  0  0  0  0  0
  147.7306  143.1701  155.2787 H   0  0  0  0  0  0  0  0  0  0  0  0
  1  2  1  0  0  0  0
  1 21  1  0  0  0  0
  1 22  1  0  0  0  0
  1 23  1  0  0  0  0
  2 10  1  0  0  0  0
  2  3  2  0  0  0  0
  3  4  1  0  0  0  0
  4  9  2  0  0  0  0
  4  5  1  0  0  0  0
  5  6  2  0  0  0  0
  5 24  1  0  0  0  0
  6  7  1  0  0  0  0
  6 25  1  0  0  0  0
  7  8  2  0  0  0  0
  7 26  1  0  0  0  0
  8  9  1  0  0  0  0
  8 27  1  0  0  0  0
  9 10  1  0  0  0  0
 10 11  1  0  0  0  0
 11 12  1  0  0  0  0
 11 28  1  0  0  0  0
 11 29  1  0  0  0  0
 12 13  1  0  0  0  0
 12 14  1  0  0  0  0
 12 30  1  0  0  0  0
 13 31  1  0  0  0  0
 14 15  1  0  0  0  0
 14 32  1  0  0  0  0
 14 33  1  0  0  0  0
 15 20  1  0  0  0  0
 15 16  1  0  0  0  0
 15 42  1  0  0  0  0
 16 17  1  0  0  0  0
 16 34  1  0  0  0  0
 16 35  1  0  0  0  0
 17 18  1  0  0  0  0
 17 36  1  0  0  0  0
 17 37  1  0  0  0  0
 18 19  1  0  0  0  0
 19 20  1  0  0  0  0
 19 38  1  0  0  0  0
 19 39  1  0  0  0  0
 20 40  1  0  0  0  0
 20 41  1  0  0  0  0
M  CHG  1  15   1
M  END
> <s_m_source_file>
AV-unprocessed.smi

> <i_m_source_file_index>
356

> <i_lp_mmshare_version>
43012

> <i_f3d_flags>
0

> <s_epik_input>
W2NIXTFbY0hdW2NIXVtjSF1jKGMxMiluKGMobjIpW0NIM10pW0NIMl1bQ0BIXShbT0hdKVtDSDJdTjNbQ0gyXVtDSDJdT1tDSDJdW0NIMl0z

> <s_epik_cmdline>
J2VwaWtfcHl0aG9uJywgJy1waCcsICc3LjAnLCAnLXRuJywgJzgnLCAnLW1hJywgJzIwMCcsICctbWV0YWxfYmluZGluZycsICctaW1hZScsICc8aW5maWxlLm1hZT4nLCAnLW9tYWUnLCAnPG91dGZpbGUubWFlPic=

> <r_epik_Ionization_Penalty>
0.706388

> <r_epik_Ionization_Penalty_Charging>
0.608065

> <r_epik_Ionization_Penalty_Neutral>
0.0983237

> <r_epik_State_Penalty>
0.742533

> <r_epik_Charging_Adjusted_Penalty>
1.3506

> <i_epik_Tot_Q>
1

> <i_epik_Tot_abs_Q>
1

> <r_epik_Metal_State_Penalty>
0.651809

> <b_epik_Metal_Only>
0

> <s_lp_Force_Field>
OPLS_2005

> <r_lp_Energy>
21.7358

> <b_lp_Chiralities_Consistent>
1

> <s_lp_Variant>
AV-unprocessed.smi:356-4

> <Gold.Version>
5.8.1

> <Gold.Id.Protein>
6NUR|6NUR_protein|mol2

> <Gold.PLP.Fitness>
49.6021

> <Gold.PLP.PLP>
-41.4784

> <Gold.PLP.part.hbond>
-2.0000

> <Gold.PLP.part.metal>
0.0000

> <Gold.PLP.part.buried>
-6.7467

> <Gold.PLP.part.nonpolar>
-33.4290

> <Gold.PLP.part.repulsive>
0.3046

> <Gold.PLP.ligand.clash>
0.0000

> <Gold.PLP.ligand.torsion>
0.4473

> <Gold.PLP.Chemscore.Hbond>
3.0000

> <Gold.PLP.Chemscore.CHOScore>
0.0000

> <Gold.PLP.Chemscore.Metal>
0.0000

> <Gold.Chemscore.Hbonds>
donor molecule, donor type, donor heavy atom, donor atom, acceptor molecule, acceptor atom, score
      L1  H    13    31       P1  8028  1.00
      L1  H    15    42       P1  8028  2.00

> <Gold.PLP.Chemscore.Internal.Correction>
0.0183

> <Gold.Rescore>
     Score         DG    S(hbond)    S(metal)    S(lipo)     H(rot)  DE(clash)    DE(int)     intcor
     16.69     -19.96       1.83        0.00     116.80       2.07       1.68       1.58       ----

> <Gold.Chemscore.Fitness>
16.6948

> <Gold.Chemscore.DG>
-19.9571

> <Gold.Chemscore.ZeroCoef>
-5.4800

> <Gold.Chemscore.Hbond>
1.8263

> <Gold.Chemscore.Metal>
0.0000

> <Gold.Chemscore.Lipo>
116.7957

> <Gold.Chemscore.Internal_Hbond>
0.0000

> <Gold.Chemscore.DEClash>
1.6792

> <Gold.Chemscore.DEInternal>
1.5831

> <Gold.Chemscore.Rot>
2.0656

> <Gold.Chemscore.Internal.Correction>
   9.000000E+99

> <Gold.Chemscore.Hbonds>
donor molecule, donor type, donor heavy atom, donor atom, acceptor molecule, acceptor atom, score
      L1  H    13    31       P1  8028  0.95
      L1  H    15    42       P1  8028  0.49

> <Gold.Chemscore.Hbond.Weighted>
-6.0998

> <Gold.Chemscore.Metal.Weighted>
-0.0000

> <Gold.Chemscore.Lipo.Weighted>
-13.6651

> <Gold.Chemscore.Internal_Hbond.Weighted>
0.0000

> <Gold.Chemscore.DEClash.Weighted>
1.6792

> <Gold.Chemscore.DEInternal.Weighted>
1.5831

> <Gold.Chemscore.Rot.Weighted>
5.2879

> <Gold.Chemscore.Internal.Correction.Weighted>
   9.000000E+99

> <Gold.Protein.RotatedTorsions>
[ 6907 6896 6895 6894 ] final   26.53 input  -60.11 | X-H torsion
[ 7974 7965 7964 7962 ] final -149.22 input  175.53 | X-H torsion
[ 8008 7997 7996 7995 ] final -106.71 input   59.86 | X-H torsion
[ 10167 10162 10161 10158 ] final -111.89 input  -65.29 | X-H torsion
[ 10718 10713 10712 10709 ] final -143.78 input   66.30 | X-H torsion
[ 10763 10752 10751 10750 ] final -176.94 input  -60.55 | X-H torsion
[ 11005 11000 10999 10996 ] final   73.91 input  -57.11 | X-H torsion

> <Gold.Protein.ActiveResidues>
 VAL166  LYS551  ARG553  GLY616  TRP617  ASP618  TYR619  PRO620  LYS621  CYS622 
 ASP623  PHE694  ASN695  SER759  ASP760  ASP761  ALA762  ILE779  LEU786  VAL792 
 PHE793  MET794  SER795  GLU796  ALA797  LYS798  CYS799  TRP800  GLU811  SER814 

> <Gold.Protein.RotatedAtoms>
  151.9889  134.9990  160.0560 H   0  0  0  0  0  0  0  0  0  0  0  0  # atno 6907 bound_to 6896
  152.1627  133.4587  159.4877 H   0  0  0  0  0  0  0  0  0  0  0  0  # atno 6908 bound_to 6896
  150.6890  134.1969  159.4350 H   0  0  0  0  0  0  0  0  0  0  0  0  # atno 6909 bound_to 6896
  144.7981  140.5094  143.5726 H   0  0  0  0  0  0  0  0  0  0  0  0  # atno 7974 bound_to 7965
  154.9185  140.0408  157.1985 H   0  0  0  0  0  0  0  0  0  0  0  0  # atno 8008 bound_to 7997
  154.8277  140.2894  155.5722 H   0  0  0  0  0  0  0  0  0  0  0  0  # atno 8009 bound_to 7997
  156.2984  140.2506  156.3196 H   0  0  0  0  0  0  0  0  0  0  0  0  # atno 8010 bound_to 7997
  140.1286  143.4380  152.1642 H   0  0  0  0  0  0  0  0  0  0  0  0  # atno 10167 bound_to 10162
  156.3621  130.7743  151.1912 H   0  0  0  0  0  0  0  0  0  0  0  0  # atno 10718 bound_to 10713
  154.5662  135.2824  155.0871 H   0  0  0  0  0  0  0  0  0  0  0  0  # atno 10763 bound_to 10752
  154.2261  135.6382  153.5164 H   0  0  0  0  0  0  0  0  0  0  0  0  # atno 10764 bound_to 10752
  153.0044  135.5526  154.6272 H   0  0  0  0  0  0  0  0  0  0  0  0  # atno 10765 bound_to 10752
  139.9416  134.7388  156.1084 H   0  0  0  0  0  0  0  0  0  0  0  0  # atno 11005 bound_to 11000
  145.5622  139.1480  143.3335 LP  0  0  0  0  0  0  0  0  0  0  0  0  # atno 17320 bound_to 7965
  146.2255  140.5758  142.8998 LP  0  0  0  0  0  0  0  0  0  0  0  0  # atno 17321 bound_to 7965
  139.5531  144.7353  151.4375 LP  0  0  0  0  0  0  0  0  0  0  0  0  # atno 17342 bound_to 10162
  140.6830  143.8038  150.7147 LP  0  0  0  0  0  0  0  0  0  0  0  0  # atno 17343 bound_to 10162
  157.7474  131.0397  150.4563 LP  0  0  0  0  0  0  0  0  0  0  0  0  # atno 17370 bound_to 10713
  156.4775  130.4066  149.6481 LP  0  0  0  0  0  0  0  0  0  0  0  0  # atno 17371 bound_to 10713
  141.1053  133.6662  156.2849 LP  0  0  0  0  0  0  0  0  0  0  0  0  # atno 17394 bound_to 11000
  140.5937  134.5625  157.5504 LP  0  0  0  0  0  0  0  0  0  0  0  0  # atno 17395 bound_to 11000

$$$$
