AV-unprocessed.smi:1205|AV-procd|sdf|5041|dock8
  -GOLD-   22720 4 63D 1   1.00000     0.00000
 Structure written by MMmdl.
 49 50  0  0  0  0  0  0  0  0  2 V2000
  153.5001  143.2166  163.6142 C   0  0  0  0  0  0  0  0  0  0  0  0
  153.0762  143.0772  162.1820 C   0  0  0  0  0  0  0  0  0  0  0  0
  153.2535  141.9566  161.3194 C   0  0  0  0  0  0  0  0  0  0  0  0
  152.6837  142.3828  160.1508 C   0  0  0  0  0  0  0  0  0  0  0  0
  152.5668  141.7249  158.9666 N   0  0  0  0  0  0  0  0  0  0  0  0
  151.5023  141.6534  158.1484 C   0  0  0  0  0  0  0  0  0  0  0  0
  150.4163  142.2018  158.3369 O   0  0  0  0  0  0  0  0  0  0  0  0
  151.7635  140.8937  157.0749 N   0  0  0  0  0  0  0  0  0  0  0  0
  150.8145  140.6173  156.0008 C   0  0  0  0  0  0  0  0  0  0  0  0
  149.3907  140.3159  156.5255 C   0  0  2  0  0  0  0  0  0  0  0  0
  149.3024  138.9665  157.2709 C   0  0  0  0  0  0  0  0  0  0  0  0
  148.3873  140.4429  155.4285 N   0  3  2  0  0  0  0  0  0  0  0  0
  148.3170  139.2479  154.5469 C   0  0  0  0  0  0  0  0  0  0  0  0
  147.0887  139.3214  153.6261 C   0  0  0  0  0  0  0  0  0  0  0  0
  147.0870  140.6210  152.8076 C   0  0  0  0  0  0  0  0  0  0  0  0
  147.2323  141.8578  153.7148 C   0  0  1  0  0  0  0  0  0  0  0  0
  145.9468  142.1786  154.4972 C   0  0  0  0  0  0  0  0  0  0  0  0
  148.4558  141.7059  154.6415 C   0  0  0  0  0  0  0  0  0  0  0  0
  152.2108  143.6640  160.3280 N   0  0  0  0  0  0  0  0  0  0  0  0
  151.5357  144.5353  159.3862 C   0  0  0  0  0  0  0  0  0  0  0  0
  152.4557  144.0894  161.5863 N   0  0  0  0  0  0  0  0  0  0  0  0
  154.0101  142.3182  163.9628 H   0  0  0  0  0  0  0  0  0  0  0  0
  152.6406  143.3836  164.2639 H   0  0  0  0  0  0  0  0  0  0  0  0
  154.1841  144.0561  163.7414 H   0  0  0  0  0  0  0  0  0  0  0  0
  153.7237  141.0108  161.5423 H   0  0  0  0  0  0  0  0  0  0  0  0
  153.3934  141.2281  158.6686 H   0  0  0  0  0  0  0  0  0  0  0  0
  152.6814  140.4808  156.9929 H   0  0  0  0  0  0  0  0  0  0  0  0
  150.7934  141.4606  155.3081 H   0  0  0  0  0  0  0  0  0  0  0  0
  151.2057  139.7698  155.4388 H   0  0  0  0  0  0  0  0  0  0  0  0
  149.1581  141.0971  157.2504 H   0  0  0  0  0  0  0  0  0  0  0  0
  149.9430  138.9621  158.1531 H   0  0  0  0  0  0  0  0  0  0  0  0
  149.6160  138.1338  156.6415 H   0  0  0  0  0  0  0  0  0  0  0  0
  148.2888  138.7633  157.6164 H   0  0  0  0  0  0  0  0  0  0  0  0
  149.2275  139.1704  153.9513 H   0  0  0  0  0  0  0  0  0  0  0  0
  148.2525  138.3404  155.1483 H   0  0  0  0  0  0  0  0  0  0  0  0
  147.0761  138.4618  152.9553 H   0  0  0  0  0  0  0  0  0  0  0  0
  146.1779  139.2553  154.2223 H   0  0  0  0  0  0  0  0  0  0  0  0
  147.9177  140.5956  152.1010 H   0  0  0  0  0  0  0  0  0  0  0  0
  146.1790  140.6901  152.2075 H   0  0  0  0  0  0  0  0  0  0  0  0
  147.4180  142.7149  153.0660 H   0  0  0  0  0  0  0  0  0  0  0  0
  145.6875  141.3861  155.1990 H   0  0  0  0  0  0  0  0  0  0  0  0
  145.1010  142.3131  153.8222 H   0  0  0  0  0  0  0  0  0  0  0  0
  146.0573  143.1004  155.0692 H   0  0  0  0  0  0  0  0  0  0  0  0
  148.5189  142.5706  155.3012 H   0  0  0  0  0  0  0  0  0  0  0  0
  149.3641  141.7089  154.0374 H   0  0  0  0  0  0  0  0  0  0  0  0
  150.6735  144.0195  158.9622 H   0  0  0  0  0  0  0  0  0  0  0  0
  152.2214  144.8053  158.5827 H   0  0  0  0  0  0  0  0  0  0  0  0
  151.1932  145.4451  159.8815 H   0  0  0  0  0  0  0  0  0  0  0  0
  147.4947  140.4654  155.9007 H   0  0  0  0  0  0  0  0  0  0  0  0
  1  2  1  0  0  0  0
  1 22  1  0  0  0  0
  1 23  1  0  0  0  0
  1 24  1  0  0  0  0
  2 21  2  0  0  0  0
  2  3  1  0  0  0  0
  3  4  2  0  0  0  0
  3 25  1  0  0  0  0
  4  5  1  0  0  0  0
  4 19  1  0  0  0  0
  5  6  1  0  0  0  0
  5 26  1  0  0  0  0
  6  7  2  0  0  0  0
  6  8  1  0  0  0  0
  8  9  1  0  0  0  0
  8 27  1  0  0  0  0
  9 10  1  0  0  0  0
  9 28  1  0  0  0  0
  9 29  1  0  0  0  0
 10 11  1  0  0  0  0
 10 12  1  0  0  0  0
 10 30  1  0  0  0  0
 11 31  1  0  0  0  0
 11 32  1  0  0  0  0
 11 33  1  0  0  0  0
 12 18  1  0  0  0  0
 12 13  1  0  0  0  0
 12 49  1  0  0  0  0
 13 14  1  0  0  0  0
 13 34  1  0  0  0  0
 13 35  1  0  0  0  0
 14 15  1  0  0  0  0
 14 36  1  0  0  0  0
 14 37  1  0  0  0  0
 15 16  1  0  0  0  0
 15 38  1  0  0  0  0
 15 39  1  0  0  0  0
 16 17  1  0  0  0  0
 16 18  1  0  0  0  0
 16 40  1  0  0  0  0
 17 41  1  0  0  0  0
 17 42  1  0  0  0  0
 17 43  1  0  0  0  0
 18 44  1  0  0  0  0
 18 45  1  0  0  0  0
 19 20  1  0  0  0  0
 19 21  1  0  0  0  0
 20 46  1  0  0  0  0
 20 47  1  0  0  0  0
 20 48  1  0  0  0  0
M  CHG  1  12   1
M  END
> <s_m_source_file>
AV-unprocessed.smi

> <i_m_source_file_index>
1205

> <i_lp_mmshare_version>
43012

> <i_f3d_flags>
0

> <s_epik_input>
W0NIM11jMVtjSF1jKG4objEpW0NIM10pW05IXUMoPU8pW05IXVtDSDJdW0NASF0oW0NIM10pTjJbQ0gyXVtDSDJdW0NIMl1bQ0BASF0oW0NIM10pW0NIMl0y

> <s_epik_cmdline>
J2VwaWtfcHl0aG9uJywgJy1waCcsICc3LjAnLCAnLXRuJywgJzgnLCAnLW1hJywgJzIwMCcsICctbWV0YWxfYmluZGluZycsICctaW1hZScsICc8aW5maWxlLm1hZT4nLCAnLW9tYWUnLCAnPG91dGZpbGUubWFlPic=

> <r_lp_tautomer_probability>
1

> <r_epik_Ionization_Penalty>
0.0020309

> <r_epik_Ionization_Penalty_Charging>
0.00195276

> <r_epik_Ionization_Penalty_Neutral>
7.81448e-05

> <r_epik_State_Penalty>
0.00133177

> <r_epik_Charging_Adjusted_Penalty>
0.00328452

> <i_epik_Tot_Q>
1

> <i_epik_Tot_abs_Q>
1

> <r_epik_Metal_State_Penalty>
-0

> <b_epik_Metal_Only>
0

> <s_lp_Force_Field>
OPLS_2005

> <r_lp_Energy>
24.2768

> <b_lp_Chiralities_Consistent>
1

> <s_lp_Variant>
AV-unprocessed.smi:1205-3

> <Gold.Version>
5.8.1

> <Gold.Id.Protein>
6NUR|6NUR_protein|mol2

> <Gold.PLP.Fitness>
41.3455

> <Gold.PLP.PLP>
-42.6845

> <Gold.PLP.part.hbond>
0.0000

> <Gold.PLP.part.metal>
0.0000

> <Gold.PLP.part.buried>
-4.2227

> <Gold.PLP.part.nonpolar>
-37.4063

> <Gold.PLP.part.repulsive>
0.4489

> <Gold.PLP.ligand.clash>
0.0000

> <Gold.PLP.ligand.torsion>
0.7299

> <Gold.PLP.Chemscore.Hbond>
0.0000

> <Gold.PLP.Chemscore.CHOScore>
0.0000

> <Gold.PLP.Chemscore.Metal>
0.0000

> <Gold.PLP.Chemscore.Internal.Correction>
0.1208

> <Gold.Rescore>
     Score         DG    S(hbond)    S(metal)    S(lipo)     H(rot)  DE(clash)    DE(int)     intcor
      9.22     -13.45       0.00        0.00     100.23       1.47       1.11       3.12       ----

> <Gold.Chemscore.Fitness>
9.2241

> <Gold.Chemscore.DG>
-13.4546

> <Gold.Chemscore.ZeroCoef>
-5.4800

> <Gold.Chemscore.Hbond>
0.0000

> <Gold.Chemscore.Metal>
0.0000

> <Gold.Chemscore.Lipo>
100.2324

> <Gold.Chemscore.Internal_Hbond>
0.0000

> <Gold.Chemscore.DEClash>
1.1079

> <Gold.Chemscore.DEInternal>
3.1226

> <Gold.Chemscore.Rot>
1.4658

> <Gold.Chemscore.Internal.Correction>
   9.000000E+99

> <Gold.Chemscore.Hbond.Weighted>
-0.0000

> <Gold.Chemscore.Metal.Weighted>
-0.0000

> <Gold.Chemscore.Lipo.Weighted>
-11.7272

> <Gold.Chemscore.Internal_Hbond.Weighted>
0.0000

> <Gold.Chemscore.DEClash.Weighted>
1.1079

> <Gold.Chemscore.DEInternal.Weighted>
3.1226

> <Gold.Chemscore.Rot.Weighted>
3.7526

> <Gold.Chemscore.Internal.Correction.Weighted>
   9.000000E+99

> <Gold.Protein.RotatedTorsions>
[ 6907 6896 6895 6894 ] final  106.42 input  -60.11 | X-H torsion
[ 7974 7965 7964 7962 ] final  109.57 input  175.53 | X-H torsion
[ 8008 7997 7996 7995 ] final -162.86 input   59.86 | X-H torsion
[ 10167 10162 10161 10158 ] final   40.57 input  -65.29 | X-H torsion
[ 10718 10713 10712 10709 ] final  105.57 input   66.30 | X-H torsion
[ 10763 10752 10751 10750 ] final  -91.85 input  -60.55 | X-H torsion
[ 11005 11000 10999 10996 ] final  -79.05 input  -57.11 | X-H torsion

> <Gold.Protein.ActiveResidues>
 VAL166  LYS551  ARG553  GLY616  TRP617  ASP618  TYR619  PRO620  LYS621  CYS622 
 ASP623  PHE694  ASN695  SER759  ASP760  ASP761  ALA762  ILE779  LEU786  VAL792 
 PHE793  MET794  SER795  GLU796  ALA797  LYS798  CYS799  TRP800  GLU811  SER814 

> <Gold.Protein.RotatedAtoms>
  152.5194  133.9384  159.7614 H   0  0  0  0  0  0  0  0  0  0  0  0  # atno 6907 bound_to 6896
  150.9719  133.6326  159.2743 H   0  0  0  0  0  0  0  0  0  0  0  0  # atno 6908 bound_to 6896
  151.3535  135.0895  159.9463 H   0  0  0  0  0  0  0  0  0  0  0  0  # atno 6909 bound_to 6896
  145.2661  139.2684  143.3991 H   0  0  0  0  0  0  0  0  0  0  0  0  # atno 7974 bound_to 7965
  155.8130  140.0908  157.1893 H   0  0  0  0  0  0  0  0  0  0  0  0  # atno 8008 bound_to 7997
  154.3979  140.1451  156.3469 H   0  0  0  0  0  0  0  0  0  0  0  0  # atno 8009 bound_to 7997
  155.8345  140.3441  155.5596 H   0  0  0  0  0  0  0  0  0  0  0  0  # atno 8010 bound_to 7997
  140.3729  144.2081  150.6132 H   0  0  0  0  0  0  0  0  0  0  0  0  # atno 10167 bound_to 10162
  157.6700  131.0831  150.5876 H   0  0  0  0  0  0  0  0  0  0  0  0  # atno 10718 bound_to 10713
  154.6802  135.5253  153.8253 H   0  0  0  0  0  0  0  0  0  0  0  0  # atno 10763 bound_to 10752
  153.0559  135.6550  154.0587 H   0  0  0  0  0  0  0  0  0  0  0  0  # atno 10764 bound_to 10752
  154.0476  135.2972  155.3325 H   0  0  0  0  0  0  0  0  0  0  0  0  # atno 10765 bound_to 10752
  141.1666  133.7089  156.8064 H   0  0  0  0  0  0  0  0  0  0  0  0  # atno 11005 bound_to 11000
  146.3260  140.3092  142.8625 LP  0  0  0  0  0  0  0  0  0  0  0  0  # atno 17320 bound_to 7965
  144.9375  140.8043  143.5651 LP  0  0  0  0  0  0  0  0  0  0  0  0  # atno 17321 bound_to 7965
  140.5015  143.2316  151.8671 LP  0  0  0  0  0  0  0  0  0  0  0  0  # atno 17342 bound_to 10162
  139.4802  144.5054  151.9005 LP  0  0  0  0  0  0  0  0  0  0  0  0  # atno 17343 bound_to 10162
  156.6177  130.4397  149.5834 LP  0  0  0  0  0  0  0  0  0  0  0  0  # atno 17370 bound_to 10713
  156.2380  130.6834  151.1528 LP  0  0  0  0  0  0  0  0  0  0  0  0  # atno 17371 bound_to 10713
  140.2219  134.8751  157.3386 LP  0  0  0  0  0  0  0  0  0  0  0  0  # atno 17394 bound_to 11000
  140.1979  134.4291  155.7679 LP  0  0  0  0  0  0  0  0  0  0  0  0  # atno 17395 bound_to 11000

$$$$
