AV-unprocessed.smi:203|AV-procd|sdf|1596|dock4
  -GOLD-   2262019503D 1   1.00000     0.00000
 Structure written by MMmdl.
 57 61  0  0  0  0  0  0  0  0  1 V2000
  149.2959  141.7012  153.6706 O   0  0  0  0  0  0  0  0  0  0  0  0
  149.4245  141.3950  154.8535 C   0  0  0  0  0  0  0  0  0  0  0  0
  150.5700  140.5477  155.3806 C   0  0  0  0  0  0  0  0  0  0  0  0
  150.4269  140.6544  156.9119 C   0  0  1  0  0  0  0  0  0  0  0  0
  151.5704  141.4656  157.6004 C   0  0  1  0  0  0  0  0  0  0  0  0
  151.2604  142.9839  157.6875 C   0  0  0  0  0  0  0  0  0  0  0  0
  152.3957  143.7594  158.3685 C   0  0  0  0  0  0  0  0  0  0  0  0
  152.6790  143.1626  159.7507 C   0  0  0  0  0  0  0  0  0  0  0  0
  152.9915  141.6655  159.6310 C   0  0  0  0  0  0  0  0  0  0  0  0
  151.9196  140.9516  158.9373 N   0  0  0  0  0  0  0  0  0  0  0  0
  152.0995  139.6164  159.0482 C   0  0  0  0  0  0  0  0  0  0  0  0
  150.9872  138.8519  159.1726 N   0  0  0  0  0  0  0  0  0  0  0  0
  151.0992  137.5250  159.2861 C   0  0  0  0  0  0  0  0  0  0  0  0
  152.2056  136.7781  159.3009 N   0  0  0  0  0  0  0  0  0  0  0  0
  153.3257  137.5473  159.1824 C   0  0  0  0  0  0  0  0  0  0  0  0
  153.3647  138.9640  159.0544 C   0  0  0  0  0  0  0  0  0  0  0  0
  154.6822  139.3961  158.9624 N   0  0  0  0  0  0  0  0  0  0  0  0
  155.3827  138.2967  159.0288 C   0  0  0  0  0  0  0  0  0  0  0  0
  154.6480  137.1408  159.1651 N   0  0  0  0  0  0  0  0  0  0  0  0
  155.1703  135.7886  159.2655 C   0  0  0  0  0  0  0  0  0  0  0  0
  154.6804  134.8790  158.1181 C   0  0  1  0  0  0  0  0  0  0  0  0
  155.3724  135.2438  156.9392 O   0  0  0  0  0  0  0  0  0  0  0  0
  154.9475  133.3816  158.3736 C   0  0  1  0  0  0  0  0  0  0  0  0
  156.4023  133.0306  158.6891 C   0  0  0  0  0  0  0  0  0  0  0  0
  156.2873  131.7084  159.4261 C   0  0  0  0  0  0  0  0  0  0  0  0
  154.8573  131.7207  159.9722 C   0  0  0  0  0  0  0  0  0  0  0  0
  154.3101  132.9721  159.5751 O   0  0  0  0  0  0  0  0  0  0  0  0
  149.0162  141.2434  157.1384 C   0  0  0  0  0  0  0  0  0  0  0  0
  148.6020  141.7417  155.8412 N   0  0  0  0  0  0  0  0  0  0  0  0
  150.4315  139.5193  155.0449 H   0  0  0  0  0  0  0  0  0  0  0  0
  151.5344  140.8943  155.0090 H   0  0  0  0  0  0  0  0  0  0  0  0
  150.4373  139.6337  157.2951 H   0  0  0  0  0  0  0  0  0  0  0  0
  152.4600  141.3612  156.9787 H   0  0  0  0  0  0  0  0  0  0  0  0
  151.0958  143.4053  156.6964 H   0  0  0  0  0  0  0  0  0  0  0  0
  150.3390  143.1513  158.2457 H   0  0  0  0  0  0  0  0  0  0  0  0
  153.2954  143.7143  157.7535 H   0  0  0  0  0  0  0  0  0  0  0  0
  152.1301  144.8130  158.4602 H   0  0  0  0  0  0  0  0  0  0  0  0
  153.5138  143.6823  160.2215 H   0  0  0  0  0  0  0  0  0  0  0  0
  151.8144  143.3071  160.3998 H   0  0  0  0  0  0  0  0  0  0  0  0
  153.9277  141.5275  159.0881 H   0  0  0  0  0  0  0  0  0  0  0  0
  153.1372  141.2448  160.6273 H   0  0  0  0  0  0  0  0  0  0  0  0
  150.1690  136.9839  159.3791 H   0  0  0  0  0  0  0  0  0  0  0  0
  156.4621  138.2980  158.9836 H   0  0  0  0  0  0  0  0  0  0  0  0
  156.2601  135.8309  159.2794 H   0  0  0  0  0  0  0  0  0  0  0  0
  154.8629  135.3880  160.2317 H   0  0  0  0  0  0  0  0  0  0  0  0
  153.6128  135.0400  157.9631 H   0  0  0  0  0  0  0  0  0  0  0  0
  155.7915  136.0785  157.0832 H   0  0  0  0  0  0  0  0  0  0  0  0
  154.5953  132.7708  157.5396 H   0  0  0  0  0  0  0  0  0  0  0  0
  157.0273  132.9629  157.7983 H   0  0  0  0  0  0  0  0  0  0  0  0
  156.8350  133.7818  159.3516 H   0  0  0  0  0  0  0  0  0  0  0  0
  156.4208  130.8704  158.7408 H   0  0  0  0  0  0  0  0  0  0  0  0
  157.0335  131.6209  160.2164 H   0  0  0  0  0  0  0  0  0  0  0  0
  154.2709  130.9102  159.5369 H   0  0  0  0  0  0  0  0  0  0  0  0
  154.8260  131.6186  161.0575 H   0  0  0  0  0  0  0  0  0  0  0  0
  148.3196  140.4676  157.4586 H   0  0  0  0  0  0  0  0  0  0  0  0
  148.9936  142.0354  157.8874 H   0  0  0  0  0  0  0  0  0  0  0  0
  147.7736  142.3053  155.7152 H   0  0  0  0  0  0  0  0  0  0  0  0
  1  2  2  0  0  0  0
  2 29  1  0  0  0  0
  2  3  1  0  0  0  0
  3  4  1  0  0  0  0
  3 30  1  0  0  0  0
  3 31  1  0  0  0  0
  4  5  1  0  0  0  0
  4 28  1  0  0  0  0
  4 32  1  0  0  0  0
  5 10  1  0  0  0  0
  5  6  1  0  0  0  0
  5 33  1  0  0  0  0
  6  7  1  0  0  0  0
  6 34  1  0  0  0  0
  6 35  1  0  0  0  0
  7  8  1  0  0  0  0
  7 36  1  0  0  0  0
  7 37  1  0  0  0  0
  8  9  1  0  0  0  0
  8 38  1  0  0  0  0
  8 39  1  0  0  0  0
  9 10  1  0  0  0  0
  9 40  1  0  0  0  0
  9 41  1  0  0  0  0
 10 11  1  0  0  0  0
 11 16  1  0  0  0  0
 11 12  2  0  0  0  0
 12 13  1  0  0  0  0
 13 14  2  0  0  0  0
 13 42  1  0  0  0  0
 14 15  1  0  0  0  0
 15 19  1  0  0  0  0
 15 16  2  0  0  0  0
 16 17  1  0  0  0  0
 17 18  2  0  0  0  0
 18 19  1  0  0  0  0
 18 43  1  0  0  0  0
 19 20  1  0  0  0  0
 20 21  1  0  0  0  0
 20 44  1  0  0  0  0
 20 45  1  0  0  0  0
 21 22  1  0  0  0  0
 21 23  1  0  0  0  0
 21 46  1  0  0  0  0
 22 47  1  0  0  0  0
 23 27  1  0  0  0  0
 23 24  1  0  0  0  0
 23 48  1  0  0  0  0
 24 25  1  0  0  0  0
 24 49  1  0  0  0  0
 24 50  1  0  0  0  0
 25 26  1  0  0  0  0
 25 51  1  0  0  0  0
 25 52  1  0  0  0  0
 26 27  1  0  0  0  0
 26 53  1  0  0  0  0
 26 54  1  0  0  0  0
 28 29  1  0  0  0  0
 28 55  1  0  0  0  0
 28 56  1  0  0  0  0
 29 57  1  0  0  0  0
M  END
> <s_m_source_file>
AV-unprocessed.smi

> <i_m_source_file_index>
203

> <i_lp_mmshare_version>
43012

> <i_f3d_flags>
0

> <s_epik_input>
Tz1DMVtDSDJdW0NASF0oW0NIMl1bTkhdMSlbQ0BASF0yW0NIMl1bQ0gyXVtDSDJdW0NIMl1OMmMobltjSF1uMyljKGMzNCluW2NIXW40W0NIMl1bQ0BIXShbT0hdKVtDQEBIXTVbQ0gyXVtDSDJdW0NIMl1PNQ==

> <s_epik_cmdline>
J2VwaWtfcHl0aG9uJywgJy1waCcsICc3LjAnLCAnLXRuJywgJzgnLCAnLW1hJywgJzIwMCcsICctbWV0YWxfYmluZGluZycsICctaW1hZScsICc8aW5maWxlLm1hZT4nLCAnLW9tYWUnLCAnPG91dGZpbGUubWFlPic=

> <r_lp_tautomer_probability>
1

> <r_epik_Ionization_Penalty>
0.00175146

> <r_epik_Ionization_Penalty_Charging>
0

> <r_epik_Ionization_Penalty_Neutral>
0.00175146

> <r_epik_State_Penalty>
0.00109045

> <r_epik_Charging_Adjusted_Penalty>
0.00109045

> <i_epik_Tot_Q>
0

> <i_epik_Tot_abs_Q>
0

> <r_epik_Metal_State_Penalty>
-0

> <b_epik_Metal_Only>
0

> <s_lp_Force_Field>
OPLS_2005

> <r_lp_Energy>
57.4119

> <b_lp_Chiralities_Consistent>
1

> <s_lp_Variant>
AV-unprocessed.smi:203-15

> <Gold.Version>
5.8.1

> <Gold.Id.Protein>
6NUR|6NUR_protein|mol2

> <Gold.PLP.Fitness>
53.4232

> <Gold.PLP.PLP>
-42.1158

> <Gold.PLP.part.hbond>
-7.3812

> <Gold.PLP.part.metal>
0.0000

> <Gold.PLP.part.buried>
-4.6611

> <Gold.PLP.part.nonpolar>
-30.0951

> <Gold.PLP.part.repulsive>
0.6558

> <Gold.PLP.ligand.clash>
0.0000

> <Gold.PLP.ligand.torsion>
1.5551

> <Gold.PLP.Chemscore.Hbond>
4.6720

> <Gold.PLP.Chemscore.CHOScore>
0.0000

> <Gold.PLP.Chemscore.Metal>
0.0000

> <Gold.Chemscore.Hbonds>
donor molecule, donor type, donor heavy atom, donor atom, acceptor molecule, acceptor atom, score
      P1  H  6896  6907       L1    14  1.00
      P1  H  6896  6908       L1    27  1.00
      P1  H  7997  8009       L1    17  1.00
      P1  H  8011  8017       L1     1  0.67
      P1  H 10752 10763       L1    22  1.00

> <Gold.PLP.Chemscore.Internal.Correction>
0.4017

> <Gold.Rescore>
     Score         DG    S(hbond)    S(metal)    S(lipo)     H(rot)  DE(clash)    DE(int)     intcor
     17.74     -21.75       3.99        0.00      84.47       2.72       0.05       3.97       ----

> <Gold.Chemscore.Fitness>
17.7363

> <Gold.Chemscore.DG>
-21.7504

> <Gold.Chemscore.ZeroCoef>
-5.4800

> <Gold.Chemscore.Hbond>
3.9950

> <Gold.Chemscore.Metal>
0.0000

> <Gold.Chemscore.Lipo>
84.4689

> <Gold.Chemscore.Internal_Hbond>
0.0000

> <Gold.Chemscore.DEClash>
0.0483

> <Gold.Chemscore.DEInternal>
3.9658

> <Gold.Chemscore.Rot>
2.7171

> <Gold.Chemscore.Internal.Correction>
   9.000000E+99

> <Gold.Chemscore.Hbonds>
donor molecule, donor type, donor heavy atom, donor atom, acceptor molecule, acceptor atom, score
      P1  H  6896  6907       L1    14  0.38
      P1  H  6896  6908       L1    27  0.73
      P1  H  7997  8009       L1    17  0.28
      P1  H  8011  8017       L1     1  0.67
      P1  H 10752 10763       L1    22  0.71

> <Gold.Chemscore.Hbond.Weighted>
-13.3433

> <Gold.Chemscore.Metal.Weighted>
-0.0000

> <Gold.Chemscore.Lipo.Weighted>
-9.8829

> <Gold.Chemscore.Internal_Hbond.Weighted>
0.0000

> <Gold.Chemscore.DEClash.Weighted>
0.0483

> <Gold.Chemscore.DEInternal.Weighted>
3.9658

> <Gold.Chemscore.Rot.Weighted>
6.9557

> <Gold.Chemscore.Internal.Correction.Weighted>
   9.000000E+99

> <Gold.Protein.RotatedTorsions>
[ 6907 6896 6895 6894 ] final    1.24 input  -60.11 | X-H torsion
[ 7974 7965 7964 7962 ] final  153.51 input  175.53 | X-H torsion
[ 8008 7997 7996 7995 ] final  115.36 input   59.86 | X-H torsion
[ 10167 10162 10161 10158 ] final  108.64 input  -65.29 | X-H torsion
[ 10718 10713 10712 10709 ] final -168.80 input   66.30 | X-H torsion
[ 10763 10752 10751 10750 ] final  168.13 input  -60.55 | X-H torsion
[ 11005 11000 10999 10996 ] final -157.24 input  -57.11 | X-H torsion

> <Gold.Protein.ActiveResidues>
 VAL166  LYS551  ARG553  GLY616  TRP617  ASP618  TYR619  PRO620  LYS621  CYS622 
 ASP623  PHE694  ASN695  SER759  ASP760  ASP761  ALA762  ILE779  LEU786  VAL792 
 PHE793  MET794  SER795  GLU796  ALA797  LYS798  CYS799  TRP800  GLU811  SER814 

> <Gold.Protein.RotatedAtoms>
  151.5894  135.1054  160.0035 H   0  0  0  0  0  0  0  0  0  0  0  0  # atno 6907 bound_to 6896
  152.4314  133.7280  159.6582 H   0  0  0  0  0  0  0  0  0  0  0  0  # atno 6908 bound_to 6896
  150.8207  133.8187  159.3163 H   0  0  0  0  0  0  0  0  0  0  0  0  # atno 6909 bound_to 6896
  144.8150  139.6810  143.6125 H   0  0  0  0  0  0  0  0  0  0  0  0  # atno 7974 bound_to 7965
  156.2377  140.2940  156.0357 H   0  0  0  0  0  0  0  0  0  0  0  0  # atno 8008 bound_to 7997
  155.2044  140.0410  157.2940 H   0  0  0  0  0  0  0  0  0  0  0  0  # atno 8009 bound_to 7997
  154.6109  140.2451  155.7678 H   0  0  0  0  0  0  0  0  0  0  0  0  # atno 8010 bound_to 7997
  139.6830  144.7116  151.1482 H   0  0  0  0  0  0  0  0  0  0  0  0  # atno 10167 bound_to 10162
  156.7023  130.9201  151.3081 H   0  0  0  0  0  0  0  0  0  0  0  0  # atno 10718 bound_to 10713
  154.3640  135.2753  155.2304 H   0  0  0  0  0  0  0  0  0  0  0  0  # atno 10763 bound_to 10752
  154.4479  135.5938  153.6176 H   0  0  0  0  0  0  0  0  0  0  0  0  # atno 10764 bound_to 10752
  152.9842  135.6035  154.3864 H   0  0  0  0  0  0  0  0  0  0  0  0  # atno 10765 bound_to 10752
  140.6668  134.4290  157.5233 H   0  0  0  0  0  0  0  0  0  0  0  0  # atno 11005 bound_to 11000
  146.2452  139.6083  142.9464 LP  0  0  0  0  0  0  0  0  0  0  0  0  # atno 17320 bound_to 7965
  145.5236  141.0430  143.2422 LP  0  0  0  0  0  0  0  0  0  0  0  0  # atno 17321 bound_to 7965
  140.7658  143.5671  150.9036 LP  0  0  0  0  0  0  0  0  0  0  0  0  # atno 17342 bound_to 10162
  139.9344  143.6455  152.3069 LP  0  0  0  0  0  0  0  0  0  0  0  0  # atno 17343 bound_to 10162
  157.6968  130.9291  150.0669 LP  0  0  0  0  0  0  0  0  0  0  0  0  # atno 17370 bound_to 10713
  156.1720  130.3647  149.9152 LP  0  0  0  0  0  0  0  0  0  0  0  0  # atno 17371 bound_to 10713
  139.8994  134.8591  156.1959 LP  0  0  0  0  0  0  0  0  0  0  0  0  # atno 17394 bound_to 11000
  141.0423  133.6931  156.1620 LP  0  0  0  0  0  0  0  0  0  0  0  0  # atno 17395 bound_to 11000

$$$$
