AV-unprocessed.smi:160|AV-procd|sdf|1373|dock7
  -GOLD-   2262019 93D 1   1.00000     0.00000
 Structure written by MMmdl.
 28 29  0  0  0  0  0  0  0  0  2 V2000
  153.1297  139.3290  157.6817 N   0  5  0  0  0  0  0  0  0  0  0  0
  152.1969  139.0843  156.7359 C   0  0  0  0  0  0  0  0  0  0  0  0
  152.1376  138.0900  156.0133 O   0  0  0  0  0  0  0  0  0  0  0  0
  151.1498  140.1630  156.5930 C   0  0  0  0  0  0  0  0  0  0  0  0
  151.2862  141.3566  157.2475 N   0  0  0  0  0  0  0  0  0  0  0  0
  150.1770  141.9537  156.8338 C   0  0  0  0  0  0  0  0  0  0  0  0
  149.4323  141.2158  156.0059 N   0  0  0  0  0  0  0  0  0  0  0  0
  148.1276  141.5454  155.3434 C   0  0  2  0  0  0  0  0  0  0  0  0
  147.1845  140.5876  155.7237 O   0  0  0  0  0  0  0  0  0  0  0  0
  146.9696  139.6713  154.6550 C   0  0  1  0  0  0  0  0  0  0  0  0
  145.6050  138.9853  154.8232 C   0  0  0  0  0  0  0  0  0  0  0  0
  144.5861  139.9537  154.9508 O   0  0  0  0  0  0  0  0  0  0  0  0
  147.0415  140.6017  153.4429 C   0  0  2  0  0  0  0  0  0  0  0  0
  147.2251  139.9091  152.2220 O   0  0  0  0  0  0  0  0  0  0  0  0
  148.1952  141.5391  153.7966 C   0  0  2  0  0  0  0  0  0  0  0  0
  149.4372  141.1044  153.2633 O   0  0  0  0  0  0  0  0  0  0  0  0
  150.0554  140.0225  155.8384 N   0  0  0  0  0  0  0  0  0  0  0  0
  147.8525  142.5160  155.7577 H   0  0  0  0  0  0  0  0  0  0  0  0
  147.7796  138.9403  154.6132 H   0  0  0  0  0  0  0  0  0  0  0  0
  146.1209  141.1838  153.3799 H   0  0  0  0  0  0  0  0  0  0  0  0
  148.0031  142.5466  153.4267 H   0  0  0  0  0  0  0  0  0  0  0  0
  152.8177  139.6665  158.6002 H   0  0  0  0  0  0  0  0  0  0  0  0
  149.9026  142.9526  157.1391 H   0  0  0  0  0  0  0  0  0  0  0  0
  145.3911  138.3159  153.9894 H   0  0  0  0  0  0  0  0  0  0  0  0
  145.5977  138.3833  155.7320 H   0  0  0  0  0  0  0  0  0  0  0  0
  144.1703  140.0664  154.1101 H   0  0  0  0  0  0  0  0  0  0  0  0
  148.0582  140.1636  151.8561 H   0  0  0  0  0  0  0  0  0  0  0  0
  149.2705  140.4627  152.5900 H   0  0  0  0  0  0  0  0  0  0  0  0
  1  2  1  0  0  0  0
  1 22  1  0  0  0  0
  2  3  2  0  0  0  0
  2  4  1  0  0  0  0
  4 17  2  0  0  0  0
  4  5  1  0  0  0  0
  5  6  2  0  0  0  0
  6  7  1  0  0  0  0
  6 23  1  0  0  0  0
  7  8  1  0  0  0  0
  7 17  1  0  0  0  0
  8 18  1  0  0  0  0
  8 15  1  0  0  0  0
  8  9  1  0  0  0  0
  9 10  1  0  0  0  0
 10 19  1  0  0  0  0
 10 11  1  0  0  0  0
 10 13  1  0  0  0  0
 11 12  1  0  0  0  0
 11 24  1  0  0  0  0
 11 25  1  0  0  0  0
 12 26  1  0  0  0  0
 13 20  1  0  0  0  0
 13 14  1  0  0  0  0
 13 15  1  0  0  0  0
 14 27  1  0  0  0  0
 15 21  1  0  0  0  0
 15 16  1  0  0  0  0
 16 28  1  0  0  0  0
M  CHG  1   1  -1
M  END
> <s_m_source_file>
AV-unprocessed.smi

> <i_m_source_file_index>
160

> <i_lp_mmshare_version>
43012

> <i_f3d_flags>
0

> <s_epik_input>
W05IMl1DKD1PKWMxbltjSF1uKG4xKVtDQEBIXTJPW0NASF0oW0NIMl1bT0hdKVtDQEBIXShbT0hdKVtDQEhdMltPSF0=

> <s_epik_cmdline>
J2VwaWtfcHl0aG9uJywgJy1waCcsICc3LjAnLCAnLXRuJywgJzgnLCAnLW1hJywgJzIwMCcsICctbWV0YWxfYmluZGluZycsICctaW1hZScsICc8aW5maWxlLm1hZT4nLCAnLW9tYWUnLCAnPG91dGZpbGUubWFlPic=

> <r_lp_tautomer_probability>
1

> <r_epik_Ionization_Penalty>
6.6993

> <r_epik_Ionization_Penalty_Charging>
6.6993

> <r_epik_Ionization_Penalty_Neutral>
6.01698e-06

> <r_epik_State_Penalty>
6.69929

> <r_epik_Charging_Adjusted_Penalty>
13.3986

> <i_epik_Tot_Q>
-1

> <i_epik_Tot_abs_Q>
1

> <r_epik_Metal_State_Penalty>
2.62798

> <b_epik_Metal_Only>
1

> <s_epik_Chemistry_Notes>
This compound contains an acetal/aminal-like group ( X-CH(R)-Y where X, Y are N, S, or O) that may be acid/base labile, releasing an aldehyde.

> <s_lp_Force_Field>
OPLS_2005

> <r_lp_Energy>
50.1619

> <b_lp_Chiralities_Consistent>
1

> <s_lp_Variant>
AV-unprocessed.smi:160-31

> <Gold.Version>
5.8.1

> <Gold.Id.Protein>
6NUR|6NUR_protein|mol2

> <Gold.PLP.Fitness>
43.2039

> <Gold.PLP.PLP>
-22.5774

> <Gold.PLP.part.hbond>
-5.4063

> <Gold.PLP.part.metal>
0.0000

> <Gold.PLP.part.buried>
-2.7386

> <Gold.PLP.part.nonpolar>
-14.0475

> <Gold.PLP.part.repulsive>
0.0817

> <Gold.PLP.ligand.clash>
0.0000

> <Gold.PLP.ligand.torsion>
0.0525

> <Gold.PLP.Chemscore.Hbond>
5.9706

> <Gold.PLP.Chemscore.CHOScore>
0.9346

> <Gold.PLP.Chemscore.Metal>
0.0000

> <Gold.Chemscore.Hbonds>
donor molecule, donor type, donor heavy atom, donor atom, acceptor molecule, acceptor atom, score
      L1  H    12    26       P1 10175  1.00
      L1  H    14    27       P1  7957  1.00
      L1  H    16    28       P1  7957  0.87
      P1  H  7989  7998       L1    16  0.09
      P1  H  7997  8010       L1     1  2.00
      P1  H  8011  8017       L1    16  1.00
      L1  C     6    23       P1  8028  0.93

> <Gold.PLP.Chemscore.Internal.Correction>
0.0162

> <Gold.Rescore>
     Score         DG    S(hbond)    S(metal)    S(lipo)     H(rot)  DE(clash)    DE(int)     intcor
      9.52     -10.88       4.03        0.00      19.47       4.04       0.02       1.35       ----

> <Gold.Chemscore.Fitness>
9.5167

> <Gold.Chemscore.DG>
-10.8843

> <Gold.Chemscore.ZeroCoef>
-5.4800

> <Gold.Chemscore.Hbond>
4.0326

> <Gold.Chemscore.Metal>
0.0000

> <Gold.Chemscore.Lipo>
19.4736

> <Gold.Chemscore.Internal_Hbond>
0.0000

> <Gold.Chemscore.DEClash>
0.0221

> <Gold.Chemscore.DEInternal>
1.3455

> <Gold.Chemscore.Rot>
4.0403

> <Gold.Chemscore.Internal.Correction>
   9.000000E+99

> <Gold.Chemscore.Hbonds>
donor molecule, donor type, donor heavy atom, donor atom, acceptor molecule, acceptor atom, score
      L1  H    12    26       P1 10175  1.00
      L1  H    14    27       P1  7957  0.99
      L1  H    16    28       P1  7957  0.80
      P1  H  7989  7998       L1    16  0.03
      P1  H  7997  8010       L1     1  0.82
      P1  H  8011  8017       L1    16  0.06

> <Gold.Chemscore.Hbond.Weighted>
-13.4689

> <Gold.Chemscore.Metal.Weighted>
-0.0000

> <Gold.Chemscore.Lipo.Weighted>
-2.2784

> <Gold.Chemscore.Internal_Hbond.Weighted>
0.0000

> <Gold.Chemscore.DEClash.Weighted>
0.0221

> <Gold.Chemscore.DEInternal.Weighted>
1.3455

> <Gold.Chemscore.Rot.Weighted>
10.3431

> <Gold.Chemscore.Internal.Correction.Weighted>
   9.000000E+99

> <Gold.Protein.RotatedTorsions>
[ 6907 6896 6895 6894 ] final   83.42 input  -60.11 | X-H torsion
[ 7974 7965 7964 7962 ] final   50.69 input  175.53 | X-H torsion
[ 8008 7997 7996 7995 ] final   25.81 input   59.86 | X-H torsion
[ 10167 10162 10161 10158 ] final  179.55 input  -65.29 | X-H torsion
[ 10718 10713 10712 10709 ] final  -14.30 input   66.30 | X-H torsion
[ 10763 10752 10751 10750 ] final  -31.23 input  -60.55 | X-H torsion
[ 11005 11000 10999 10996 ] final -172.63 input  -57.11 | X-H torsion

> <Gold.Protein.ActiveResidues>
 VAL166  LYS551  ARG553  GLY616  TRP617  ASP618  TYR619  PRO620  LYS621  CYS622 
 ASP623  PHE694  ASN695  SER759  ASP760  ASP761  ALA762  ILE779  LEU786  VAL792 
 PHE793  MET794  SER795  GLU796  ALA797  LYS798  CYS799  TRP800  GLU811  SER814 

> <Gold.Protein.RotatedAtoms>
  152.5326  134.2898  159.9038 H   0  0  0  0  0  0  0  0  0  0  0  0  # atno 6907 bound_to 6896
  151.2851  133.4185  159.2637 H   0  0  0  0  0  0  0  0  0  0  0  0  # atno 6908 bound_to 6896
  151.0250  134.9513  159.8137 H   0  0  0  0  0  0  0  0  0  0  0  0  # atno 6909 bound_to 6896
  145.9987  139.4416  143.0028 H   0  0  0  0  0  0  0  0  0  0  0  0  # atno 7974 bound_to 7965
  155.0174  140.3143  155.4806 H   0  0  0  0  0  0  0  0  0  0  0  0  # atno 8008 bound_to 7997
  156.2898  140.2203  156.5233 H   0  0  0  0  0  0  0  0  0  0  0  0  # atno 8009 bound_to 7997
  154.7481  140.0468  157.0858 H   0  0  0  0  0  0  0  0  0  0  0  0  # atno 8010 bound_to 7997
  139.5341  144.2548  152.0755 H   0  0  0  0  0  0  0  0  0  0  0  0  # atno 10167 bound_to 10162
  156.6179  130.4867  149.6176 H   0  0  0  0  0  0  0  0  0  0  0  0  # atno 10718 bound_to 10713
  153.7940  135.6895  153.4866 H   0  0  0  0  0  0  0  0  0  0  0  0  # atno 10763 bound_to 10752
  153.1731  135.4535  154.9927 H   0  0  0  0  0  0  0  0  0  0  0  0  # atno 10764 bound_to 10752
  154.8033  135.3346  154.7434 H   0  0  0  0  0  0  0  0  0  0  0  0  # atno 10765 bound_to 10752
  140.4949  134.5949  157.4967 H   0  0  0  0  0  0  0  0  0  0  0  0  # atno 11005 bound_to 11000
  145.7520  140.9969  143.1245 LP  0  0  0  0  0  0  0  0  0  0  0  0  # atno 17320 bound_to 7965
  144.6912  139.9226  143.7468 LP  0  0  0  0  0  0  0  0  0  0  0  0  # atno 17321 bound_to 7965
  140.2016  144.4652  150.6429 LP  0  0  0  0  0  0  0  0  0  0  0  0  # atno 17342 bound_to 10162
  140.6537  143.2232  151.6017 LP  0  0  0  0  0  0  0  0  0  0  0  0  # atno 17343 bound_to 10162
  156.2336  130.6809  151.1487 LP  0  0  0  0  0  0  0  0  0  0  0  0  # atno 17370 bound_to 10713
  157.7236  131.0665  150.6030 LP  0  0  0  0  0  0  0  0  0  0  0  0  # atno 17371 bound_to 10713
  139.9747  134.7234  155.9972 LP  0  0  0  0  0  0  0  0  0  0  0  0  # atno 17394 bound_to 11000
  141.1465  133.6555  156.3884 LP  0  0  0  0  0  0  0  0  0  0  0  0  # atno 17395 bound_to 11000

$$$$
