AV-unprocessed.smi:1022|AV-procd|sdf|4460|dock9
  -GOLD-   22720 2433D 1   1.00000     0.00000
 Structure written by MMmdl.
 32 33  0  0  0  0  0  0  0  0  2 V2000
  145.4997  136.9557  152.2248 C   0  0  0  0  0  0  0  0  0  0  0  0
  145.6016  137.6385  153.4619 O   0  0  0  0  0  0  0  0  0  0  0  0
  146.9104  138.1292  153.7039 C   0  0  0  0  0  0  0  0  0  0  0  0
  147.0306  139.5679  153.1685 C   0  0  2  0  0  0  0  0  0  0  0  0
  146.7214  139.6493  151.6662 C   0  0  0  0  0  0  0  0  0  0  0  0
  148.3758  140.0862  153.4067 N   0  0  0  0  0  0  0  0  0  0  0  0
  148.8825  140.4591  154.5911 C   0  0  0  0  0  0  0  0  0  0  0  0
  148.1877  140.3912  155.6077 O   0  0  0  0  0  0  0  0  0  0  0  0
  150.1662  140.8802  154.5255 N   0  5  0  0  0  0  0  0  0  0  0  0
  150.9320  140.8728  155.6291 C   0  0  0  0  0  0  0  0  0  0  0  0
  152.1452  140.3035  155.6597 N   0  0  0  0  0  0  0  0  0  0  0  0
  152.7637  140.4061  156.8974 N   0  0  0  0  0  0  0  0  0  0  0  0
  152.0036  141.0468  157.7889 C   0  0  0  0  0  0  0  0  0  0  0  0
  152.4475  141.2862  159.1934 C   0  0  0  0  0  0  0  0  0  0  0  0
  152.4337  142.6710  159.8030 C   0  0  0  0  0  0  0  0  0  0  0  0
  153.7463  142.0034  159.4822 C   0  0  0  0  0  0  0  0  0  0  0  0
  150.4462  141.5747  157.1721 S   0  0  0  0  0  0  0  0  0  0  0  0
  144.4785  136.6015  152.0849 H   0  0  0  0  0  0  0  0  0  0  0  0
  146.1631  136.0903  152.1961 H   0  0  0  0  0  0  0  0  0  0  0  0
  145.7451  137.6135  151.3901 H   0  0  0  0  0  0  0  0  0  0  0  0
  147.1062  138.1081  154.7773 H   0  0  0  0  0  0  0  0  0  0  0  0
  147.6504  137.4844  153.2266 H   0  0  0  0  0  0  0  0  0  0  0  0
  146.3135  140.2011  153.6941 H   0  0  0  0  0  0  0  0  0  0  0  0
  145.7070  139.3109  151.4538 H   0  0  0  0  0  0  0  0  0  0  0  0
  147.4065  139.0308  151.0853 H   0  0  0  0  0  0  0  0  0  0  0  0
  146.8069  140.6738  151.3032 H   0  0  0  0  0  0  0  0  0  0  0  0
  148.9819  140.1619  152.6031 H   0  0  0  0  0  0  0  0  0  0  0  0
  152.1747  140.4474  159.8306 H   0  0  0  0  0  0  0  0  0  0  0  0
  152.1361  143.5081  159.1748 H   0  0  0  0  0  0  0  0  0  0  0  0
  152.1557  142.7543  160.8517 H   0  0  0  0  0  0  0  0  0  0  0  0
  154.3445  141.6416  160.3158 H   0  0  0  0  0  0  0  0  0  0  0  0
  154.3104  142.3875  158.6344 H   0  0  0  0  0  0  0  0  0  0  0  0
  1  2  1  0  0  0  0
  1 18  1  0  0  0  0
  1 19  1  0  0  0  0
  1 20  1  0  0  0  0
  2  3  1  0  0  0  0
  3  4  1  0  0  0  0
  3 21  1  0  0  0  0
  3 22  1  0  0  0  0
  4  5  1  0  0  0  0
  4  6  1  0  0  0  0
  4 23  1  0  0  0  0
  5 24  1  0  0  0  0
  5 25  1  0  0  0  0
  5 26  1  0  0  0  0
  6  7  1  0  0  0  0
  6 27  1  0  0  0  0
  7  8  2  0  0  0  0
  7  9  1  0  0  0  0
  9 10  1  0  0  0  0
 10 17  1  0  0  0  0
 10 11  2  0  0  0  0
 11 12  1  0  0  0  0
 12 13  2  0  0  0  0
 13 14  1  0  0  0  0
 13 17  1  0  0  0  0
 14 16  1  0  0  0  0
 14 15  1  0  0  0  0
 14 28  1  0  0  0  0
 15 16  1  0  0  0  0
 15 29  1  0  0  0  0
 15 30  1  0  0  0  0
 16 31  1  0  0  0  0
 16 32  1  0  0  0  0
M  CHG  1   9  -1
M  END
> <s_m_source_file>
AV-unprocessed.smi

> <i_m_source_file_index>
1022

> <i_lp_mmshare_version>
43012

> <i_f3d_flags>
0

> <s_epik_input>
W0NIM11PW0NIMl1bQ0BIXShbQ0gzXSlbTkhdQyg9TylbTkhdYzFubmMoczEpW0NIXTJbQ0gyXVtDSDJdMg==

> <s_epik_cmdline>
J2VwaWtfcHl0aG9uJywgJy1waCcsICc3LjAnLCAnLXRuJywgJzgnLCAnLW1hJywgJzIwMCcsICctbWV0YWxfYmluZGluZycsICctaW1hZScsICc8aW5maWxlLm1hZT4nLCAnLW9tYWUnLCAnPG91dGZpbGUubWFlPic=

> <r_lp_tautomer_probability>
1

> <r_epik_Ionization_Penalty>
3.79487

> <r_epik_Ionization_Penalty_Charging>
3.64217

> <r_epik_Ionization_Penalty_Neutral>
0.152695

> <r_epik_State_Penalty>
3.6409

> <r_epik_Charging_Adjusted_Penalty>
7.28307

> <i_epik_Tot_Q>
-1

> <i_epik_Tot_abs_Q>
1

> <r_epik_Metal_State_Penalty>
0.534129

> <b_epik_Metal_Only>
1

> <s_lp_Force_Field>
OPLS_2005

> <r_lp_Energy>
-0.766609

> <b_lp_Chiralities_Consistent>
1

> <s_lp_Variant>
AV-unprocessed.smi:1022-3

> <Gold.Version>
5.8.1

> <Gold.Id.Protein>
6NUR|6NUR_protein|mol2

> <Gold.PLP.Fitness>
37.5000

> <Gold.PLP.PLP>
-30.3839

> <Gold.PLP.part.hbond>
-3.2395

> <Gold.PLP.part.metal>
0.0000

> <Gold.PLP.part.buried>
-2.1081

> <Gold.PLP.part.nonpolar>
-25.8731

> <Gold.PLP.part.repulsive>
0.4210

> <Gold.PLP.ligand.clash>
0.0000

> <Gold.PLP.ligand.torsion>
0.9958

> <Gold.PLP.Chemscore.Hbond>
2.9760

> <Gold.PLP.Chemscore.CHOScore>
0.0000

> <Gold.PLP.Chemscore.Metal>
0.0000

> <Gold.Chemscore.Hbonds>
donor molecule, donor type, donor heavy atom, donor atom, acceptor molecule, acceptor atom, score
      L1  H     6    27       P1  7957  1.00
      P1  H  7989  7998       L1     9  0.39
      P1  H  7997  8009       L1    12  0.70

> <Gold.PLP.Chemscore.Internal.Correction>
0.1797

> <Gold.Rescore>
     Score         DG    S(hbond)    S(metal)    S(lipo)     H(rot)  DE(clash)    DE(int)     intcor
     12.65     -15.42       1.80        0.00      70.52       1.69       1.19       1.57       ----

> <Gold.Chemscore.Fitness>
12.6539

> <Gold.Chemscore.DG>
-15.4197

> <Gold.Chemscore.ZeroCoef>
-5.4800

> <Gold.Chemscore.Hbond>
1.8026

> <Gold.Chemscore.Metal>
0.0000

> <Gold.Chemscore.Lipo>
70.5185

> <Gold.Chemscore.Internal_Hbond>
0.0000

> <Gold.Chemscore.DEClash>
1.1935

> <Gold.Chemscore.DEInternal>
1.5724

> <Gold.Chemscore.Rot>
1.6921

> <Gold.Chemscore.Internal.Correction>
   9.000000E+99

> <Gold.Chemscore.Hbonds>
donor molecule, donor type, donor heavy atom, donor atom, acceptor molecule, acceptor atom, score
      L1  H     6    27       P1  7957  0.97
      P1  H  7989  7998       L1     9  0.02
      P1  H  7997  8009       L1    12  0.61

> <Gold.Chemscore.Hbond.Weighted>
-6.0208

> <Gold.Chemscore.Metal.Weighted>
-0.0000

> <Gold.Chemscore.Lipo.Weighted>
-8.2507

> <Gold.Chemscore.Internal_Hbond.Weighted>
0.0000

> <Gold.Chemscore.DEClash.Weighted>
1.1935

> <Gold.Chemscore.DEInternal.Weighted>
1.5724

> <Gold.Chemscore.Rot.Weighted>
4.3317

> <Gold.Chemscore.Internal.Correction.Weighted>
   9.000000E+99

> <Gold.Protein.RotatedTorsions>
[ 6907 6896 6895 6894 ] final   98.34 input  -60.11 | X-H torsion
[ 7974 7965 7964 7962 ] final -108.47 input  175.53 | X-H torsion
[ 8008 7997 7996 7995 ] final  166.21 input   59.86 | X-H torsion
[ 10167 10162 10161 10158 ] final -112.91 input  -65.29 | X-H torsion
[ 10718 10713 10712 10709 ] final  -11.81 input   66.30 | X-H torsion
[ 10763 10752 10751 10750 ] final  101.85 input  -60.55 | X-H torsion
[ 11005 11000 10999 10996 ] final   65.32 input  -57.11 | X-H torsion

> <Gold.Protein.ActiveResidues>
 VAL166  LYS551  ARG553  GLY616  TRP617  ASP618  TYR619  PRO620  LYS621  CYS622 
 ASP623  PHE694  ASN695  SER759  ASP760  ASP761  ALA762  ILE779  LEU786  VAL792 
 PHE793  MET794  SER795  GLU796  ALA797  LYS798  CYS799  TRP800  GLU811  SER814 

> <Gold.Protein.RotatedAtoms>
  152.5410  134.0596  159.8145 H   0  0  0  0  0  0  0  0  0  0  0  0  # atno 6907 bound_to 6896
  151.0726  133.5446  159.2633 H   0  0  0  0  0  0  0  0  0  0  0  0  # atno 6908 bound_to 6896
  151.2304  135.0560  159.9039 H   0  0  0  0  0  0  0  0  0  0  0  0  # atno 6909 bound_to 6896
  145.1924  140.9020  143.3417 H   0  0  0  0  0  0  0  0  0  0  0  0  # atno 7974 bound_to 7965
  156.1737  140.1649  156.8401 H   0  0  0  0  0  0  0  0  0  0  0  0  # atno 8008 bound_to 7997
  154.5284  140.0762  156.8334 H   0  0  0  0  0  0  0  0  0  0  0  0  # atno 8009 bound_to 7997
  155.3458  140.3387  155.4241 H   0  0  0  0  0  0  0  0  0  0  0  0  # atno 8010 bound_to 7997
  140.1176  143.4472  152.1712 H   0  0  0  0  0  0  0  0  0  0  0  0  # atno 10167 bound_to 10162
  156.6536  130.4962  149.6054 H   0  0  0  0  0  0  0  0  0  0  0  0  # atno 10718 bound_to 10713
  153.3320  135.4030  155.1503 H   0  0  0  0  0  0  0  0  0  0  0  0  # atno 10763 bound_to 10752
  154.8625  135.3613  154.5457 H   0  0  0  0  0  0  0  0  0  0  0  0  # atno 10764 bound_to 10752
  153.5897  135.7074  153.5488 H   0  0  0  0  0  0  0  0  0  0  0  0  # atno 10765 bound_to 10752
  139.9902  134.6604  156.0104 H   0  0  0  0  0  0  0  0  0  0  0  0  # atno 11005 bound_to 11000
  145.0028  139.3582  143.6159 LP  0  0  0  0  0  0  0  0  0  0  0  0  # atno 17320 bound_to 7965
  146.3433  139.9258  142.8760 LP  0  0  0  0  0  0  0  0  0  0  0  0  # atno 17321 bound_to 7965
  139.5586  144.7390  151.4221 LP  0  0  0  0  0  0  0  0  0  0  0  0  # atno 17342 bound_to 10162
  140.6890  143.7905  150.7228 LP  0  0  0  0  0  0  0  0  0  0  0  0  # atno 17343 bound_to 10162
  156.2065  130.6652  151.1224 LP  0  0  0  0  0  0  0  0  0  0  0  0  # atno 17370 bound_to 10713
  157.7133  131.0723  150.6422 LP  0  0  0  0  0  0  0  0  0  0  0  0  # atno 17371 bound_to 10713
  141.1559  133.6543  156.4161 LP  0  0  0  0  0  0  0  0  0  0  0  0  # atno 17394 bound_to 11000
  140.4923  134.6563  157.5216 LP  0  0  0  0  0  0  0  0  0  0  0  0  # atno 17395 bound_to 11000

$$$$
