AV-unprocessed.smi:4|AV-procd|sdf|35|dock7
  -GOLD-   2262015153D 1   1.00000     0.00000
 Structure written by MMmdl.
 43 44  0  0  0  0  0  0  0  0  3 V2000
  149.4566  138.9108  156.7190 C   0  0  0  0  0  0  0  0  0  0  0  0
  150.3908  137.9788  155.9013 C   0  0  0  0  0  0  0  0  0  0  0  0
  150.1490  138.3449  154.4156 C   0  0  0  0  0  0  0  0  0  0  0  0
  151.8295  138.3671  156.3285 C   0  0  0  0  0  0  0  0  0  0  0  0
  150.1472  136.5065  156.1279 N   0  0  0  0  0  0  0  0  0  0  0  0
  149.7958  135.6701  155.0363 C   0  0  0  0  0  0  0  0  0  0  0  0
  149.5517  134.3489  155.1542 C   0  0  0  0  0  0  0  0  0  0  0  0
  149.1645  133.4804  153.9670 C   0  0  0  0  0  0  0  0  0  0  0  0
  147.9914  134.0418  153.2674 N   0  3  0  0  0  0  0  0  0  0  0  0
  147.5555  133.2552  152.0963 C   0  0  0  0  0  0  0  0  0  0  0  0
  146.2361  133.7798  151.5244 C   0  0  0  0  0  0  0  0  0  0  0  0
  146.4114  135.1744  151.3644 O   0  0  0  0  0  0  0  0  0  0  0  0
  145.6459  133.0560  150.3004 C   0  0  0  0  0  0  0  0  0  0  0  0
  144.2611  133.1265  150.9450 C   0  0  0  0  0  0  0  0  0  0  0  0
  144.9509  133.4014  152.2817 C   0  0  0  0  0  0  0  0  0  0  0  0
  149.6510  133.7629  156.4882 C   0  0  0  0  0  0  0  0  0  0  0  0
  149.4266  132.5633  156.6462 O   0  0  0  0  0  0  0  0  0  0  0  0
  150.0019  134.5831  157.5136 N   0  5  0  0  0  0  0  0  0  0  0  0
  150.2546  135.9192  157.3705 C   0  0  0  0  0  0  0  0  0  0  0  0
  150.5767  136.5950  158.3456 O   0  0  0  0  0  0  0  0  0  0  0  0
  149.6817  139.9612  156.5288 H   0  0  0  0  0  0  0  0  0  0  0  0
  149.5706  138.7626  157.7939 H   0  0  0  0  0  0  0  0  0  0  0  0
  148.4068  138.7733  156.4563 H   0  0  0  0  0  0  0  0  0  0  0  0
  149.1537  138.0379  154.0926 H   0  0  0  0  0  0  0  0  0  0  0  0
  150.8683  137.8898  153.7369 H   0  0  0  0  0  0  0  0  0  0  0  0
  150.2233  139.4213  154.2576 H   0  0  0  0  0  0  0  0  0  0  0  0
  151.9777  139.4466  156.2834 H   0  0  0  0  0  0  0  0  0  0  0  0
  152.6017  137.9343  155.6952 H   0  0  0  0  0  0  0  0  0  0  0  0
  152.0322  138.0554  157.3537 H   0  0  0  0  0  0  0  0  0  0  0  0
  149.7232  136.1278  154.0669 H   0  0  0  0  0  0  0  0  0  0  0  0
  150.0099  133.4097  153.2810 H   0  0  0  0  0  0  0  0  0  0  0  0
  148.9357  132.4679  154.3021 H   0  0  0  0  0  0  0  0  0  0  0  0
  147.2206  134.1077  153.9168 H   0  0  0  0  0  0  0  0  0  0  0  0
  148.3383  133.3054  151.3382 H   0  0  0  0  0  0  0  0  0  0  0  0
  147.4661  132.2054  152.3802 H   0  0  0  0  0  0  0  0  0  0  0  0
  147.2297  135.4004  151.7808 H   0  0  0  0  0  0  0  0  0  0  0  0
  145.7290  133.6030  149.3606 H   0  0  0  0  0  0  0  0  0  0  0  0
  146.0086  132.0320  150.1960 H   0  0  0  0  0  0  0  0  0  0  0  0
  143.6733  133.9745  150.5911 H   0  0  0  0  0  0  0  0  0  0  0  0
  143.6942  132.1955  150.9086 H   0  0  0  0  0  0  0  0  0  0  0  0
  145.0618  132.5010  152.8880 H   0  0  0  0  0  0  0  0  0  0  0  0
  144.5013  134.2118  152.8569 H   0  0  0  0  0  0  0  0  0  0  0  0
  148.2305  134.9735  152.9566 H   0  0  0  0  0  0  0  0  0  0  0  0
  1  2  1  0  0  0  0
  1 21  1  0  0  0  0
  1 22  1  0  0  0  0
  1 23  1  0  0  0  0
  2  3  1  0  0  0  0
  2  4  1  0  0  0  0
  2  5  1  0  0  0  0
  3 24  1  0  0  0  0
  3 25  1  0  0  0  0
  3 26  1  0  0  0  0
  4 27  1  0  0  0  0
  4 28  1  0  0  0  0
  4 29  1  0  0  0  0
  5 19  1  0  0  0  0
  5  6  1  0  0  0  0
  6  7  2  0  0  0  0
  6 30  1  0  0  0  0
  7  8  1  0  0  0  0
  7 16  1  0  0  0  0
  8  9  1  0  0  0  0
  8 31  1  0  0  0  0
  8 32  1  0  0  0  0
  9 10  1  0  0  0  0
  9 33  1  0  0  0  0
  9 43  1  0  0  0  0
 10 11  1  0  0  0  0
 10 34  1  0  0  0  0
 10 35  1  0  0  0  0
 11 15  1  0  0  0  0
 11 12  1  0  0  0  0
 11 13  1  0  0  0  0
 12 36  1  0  0  0  0
 13 14  1  0  0  0  0
 13 37  1  0  0  0  0
 13 38  1  0  0  0  0
 14 15  1  0  0  0  0
 14 39  1  0  0  0  0
 14 40  1  0  0  0  0
 15 41  1  0  0  0  0
 15 42  1  0  0  0  0
 16 17  2  0  0  0  0
 16 18  1  0  0  0  0
 18 19  1  0  0  0  0
 19 20  2  0  0  0  0
M  CHG  1   9   1
M  CHG  1  18  -1
M  END
> <s_m_source_file>
AV-unprocessed.smi

> <i_m_source_file_index>
4

> <i_lp_mmshare_version>
43012

> <i_f3d_flags>
0

> <s_epik_input>
W0NIM11DKFtDSDNdKShbQ0gzXSluMVtjSF1jKGMoPU8pW25IXWMxPU8pW0NIMl1bTkhdW0NIMl1DMihbT0hdKVtDSDJdW0NIMl1bQ0gyXTI=

> <s_epik_cmdline>
J2VwaWtfcHl0aG9uJywgJy1waCcsICc3LjAnLCAnLXRuJywgJzgnLCAnLW1hJywgJzIwMCcsICctbWV0YWxfYmluZGluZycsICctaW1hZScsICc8aW5maWxlLm1hZT4nLCAnLW9tYWUnLCAnPG91dGZpbGUubWFlPic=

> <r_lp_tautomer_probability>
0.999537

> <r_epik_Ionization_Penalty>
3.42736

> <r_epik_Ionization_Penalty_Charging>
0.0116785

> <r_epik_Ionization_Penalty_Neutral>
3.41568

> <r_epik_State_Penalty>
3.42726

> <r_epik_Charging_Adjusted_Penalty>
3.43893

> <i_epik_Tot_Q>
0

> <i_epik_Tot_abs_Q>
2

> <r_epik_Metal_State_Penalty>
0.176979

> <b_epik_Metal_Only>
1

> <s_lp_Force_Field>
OPLS_2005

> <r_lp_Energy>
29.0009

> <b_lp_Chiralities_Consistent>
1

> <s_lp_Variant>
AV-unprocessed.smi:4-3

> <Gold.Version>
5.8.1

> <Gold.Id.Protein>
6NUR|6NUR_protein|mol2

> <Gold.PLP.Fitness>
45.4836

> <Gold.PLP.PLP>
-28.7541

> <Gold.PLP.part.hbond>
-3.9557

> <Gold.PLP.part.metal>
0.0000

> <Gold.PLP.part.buried>
-4.4046

> <Gold.PLP.part.nonpolar>
-21.2025

> <Gold.PLP.part.repulsive>
0.0000

> <Gold.PLP.ligand.clash>
0.0000

> <Gold.PLP.ligand.torsion>
0.1453

> <Gold.PLP.Chemscore.Hbond>
4.6320

> <Gold.PLP.Chemscore.CHOScore>
1.0000

> <Gold.PLP.Chemscore.Metal>
0.0000

> <Gold.Chemscore.Hbonds>
donor molecule, donor type, donor heavy atom, donor atom, acceptor molecule, acceptor atom, score
      L1  H     9    43       P1  7948  2.00
      L1  H    12    36       P1  7948  1.00
      P1  H  6896  6909       L1    18  1.66
      L1  C     6    30       P1  7948  1.00

> <Gold.PLP.Chemscore.Internal.Correction>
0.1241

> <Gold.Rescore>
     Score         DG    S(hbond)    S(metal)    S(lipo)     H(rot)  DE(clash)    DE(int)     intcor
     13.86     -15.27       2.51        0.00      66.04       2.47       0.00       1.42       ----

> <Gold.Chemscore.Fitness>
13.8583

> <Gold.Chemscore.DG>
-15.2746

> <Gold.Chemscore.ZeroCoef>
-5.4800

> <Gold.Chemscore.Hbond>
2.5120

> <Gold.Chemscore.Metal>
0.0000

> <Gold.Chemscore.Lipo>
66.0370

> <Gold.Chemscore.Internal_Hbond>
0.0000

> <Gold.Chemscore.DEClash>
0.0000

> <Gold.Chemscore.DEInternal>
1.4163

> <Gold.Chemscore.Rot>
2.4694

> <Gold.Chemscore.Internal.Correction>
   9.000000E+99

> <Gold.Chemscore.Hbonds>
donor molecule, donor type, donor heavy atom, donor atom, acceptor molecule, acceptor atom, score
      L1  H     9    43       P1  7948  0.84
      L1  H    12    36       P1  7948  0.96
      P1  H  6896  6909       L1    18  0.48

> <Gold.Chemscore.Hbond.Weighted>
-8.3900

> <Gold.Chemscore.Metal.Weighted>
-0.0000

> <Gold.Chemscore.Lipo.Weighted>
-7.7263

> <Gold.Chemscore.Internal_Hbond.Weighted>
0.0000

> <Gold.Chemscore.DEClash.Weighted>
0.0000

> <Gold.Chemscore.DEInternal.Weighted>
1.4163

> <Gold.Chemscore.Rot.Weighted>
6.3216

> <Gold.Chemscore.Internal.Correction.Weighted>
   9.000000E+99

> <Gold.Protein.RotatedTorsions>
[ 6907 6896 6895 6894 ] final   14.87 input  -60.11 | X-H torsion
[ 7974 7965 7964 7962 ] final  -86.08 input  175.53 | X-H torsion
[ 8008 7997 7996 7995 ] final   65.06 input   59.86 | X-H torsion
[ 10167 10162 10161 10158 ] final  -36.20 input  -65.29 | X-H torsion
[ 10718 10713 10712 10709 ] final  117.99 input   66.30 | X-H torsion
[ 10763 10752 10751 10750 ] final  -80.70 input  -60.55 | X-H torsion
[ 11005 11000 10999 10996 ] final  -65.25 input  -57.11 | X-H torsion

> <Gold.Protein.ActiveResidues>
 VAL166  LYS551  ARG553  GLY616  TRP617  ASP618  TYR619  PRO620  LYS621  CYS622 
 ASP623  PHE694  ASN695  SER759  ASP760  ASP761  ALA762  ILE779  LEU786  VAL792 
 PHE793  MET794  SER795  GLU796  ALA797  LYS798  CYS799  TRP800  GLU811  SER814 

> <Gold.Protein.RotatedAtoms>
  151.8091  135.0686  160.0410 H   0  0  0  0  0  0  0  0  0  0  0  0  # atno 6907 bound_to 6896
  152.3033  133.5673  159.5641 H   0  0  0  0  0  0  0  0  0  0  0  0  # atno 6908 bound_to 6896
  150.7284  134.0175  159.3732 H   0  0  0  0  0  0  0  0  0  0  0  0  # atno 6909 bound_to 6896
  145.4847  140.9555  143.1845 H   0  0  0  0  0  0  0  0  0  0  0  0  # atno 7974 bound_to 7965
  155.6559  140.3497  155.4765 H   0  0  0  0  0  0  0  0  0  0  0  0  # atno 8008 bound_to 7997
  155.9809  140.1174  157.0750 H   0  0  0  0  0  0  0  0  0  0  0  0  # atno 8009 bound_to 7997
  154.4191  140.1138  156.5420 H   0  0  0  0  0  0  0  0  0  0  0  0  # atno 8010 bound_to 7997
  140.7148  143.3424  151.2328 H   0  0  0  0  0  0  0  0  0  0  0  0  # atno 10167 bound_to 10162
  157.6060  131.1043  150.7693 H   0  0  0  0  0  0  0  0  0  0  0  0  # atno 10718 bound_to 10713
  154.5545  135.5652  153.6951 H   0  0  0  0  0  0  0  0  0  0  0  0  # atno 10763 bound_to 10752
  152.9999  135.6259  154.2329 H   0  0  0  0  0  0  0  0  0  0  0  0  # atno 10764 bound_to 10752
  154.2265  135.2867  155.2885 H   0  0  0  0  0  0  0  0  0  0  0  0  # atno 10765 bound_to 10752
  141.1449  133.6678  156.5958 H   0  0  0  0  0  0  0  0  0  0  0  0  # atno 11005 bound_to 11000
  144.7868  139.6409  143.7130 LP  0  0  0  0  0  0  0  0  0  0  0  0  # atno 17320 bound_to 7965
  146.2320  139.5832  142.9549 LP  0  0  0  0  0  0  0  0  0  0  0  0  # atno 17321 bound_to 7965
  139.6935  143.9651  152.2871 LP  0  0  0  0  0  0  0  0  0  0  0  0  # atno 17342 bound_to 10162
  139.9321  144.6735  150.8352 LP  0  0  0  0  0  0  0  0  0  0  0  0  # atno 17343 bound_to 10162
  156.8081  130.4943  149.5360 LP  0  0  0  0  0  0  0  0  0  0  0  0  # atno 17370 bound_to 10713
  156.1146  130.6066  151.0101 LP  0  0  0  0  0  0  0  0  0  0  0  0  # atno 17371 bound_to 10713
  140.3727  134.7591  157.4609 LP  0  0  0  0  0  0  0  0  0  0  0  0  # atno 17394 bound_to 11000
  140.0698  134.5879  155.8655 LP  0  0  0  0  0  0  0  0  0  0  0  0  # atno 17395 bound_to 11000

$$$$
