AV-unprocessed.smi:999|AV-procd|sdf|4353|dock9
  -GOLD-   22720 2253D 1   1.00000     0.00000
 Structure written by MMmdl.
 37 38  0  0  0  0  0  0  0  0  2 V2000
  148.2356  139.4645  157.3329 C   0  0  0  0  0  0  0  0  0  0  0  0
  148.9961  139.6941  156.0105 C   0  0  2  0  0  0  0  0  0  0  0  0
  150.3131  140.4600  156.2108 C   0  0  0  0  0  0  0  0  0  0  0  0
  151.1675  140.4862  155.3239 O   0  0  0  0  0  0  0  0  0  0  0  0
  150.4593  141.0822  157.3911 N   0  0  0  0  0  0  0  0  0  0  0  0
  151.6205  141.8638  157.8024 C   0  0  2  0  0  0  0  0  0  0  0  0
  152.3188  141.1541  158.9780 C   0  0  0  0  0  0  0  0  0  0  0  0
  153.4998  141.9818  159.5189 C   0  0  0  0  0  0  0  0  0  0  0  0
  153.0754  143.4122  159.9321 C   0  0  2  0  0  0  0  0  0  0  0  0
  152.2114  143.4290  161.2154 C   0  0  0  0  0  0  0  0  0  0  0  0
  151.8456  144.5394  161.6606 O   0  0  0  0  0  0  0  0  0  0  0  0
  151.9493  142.3318  161.7567 O   0  5  0  0  0  0  0  0  0  0  0  0
  152.3837  144.1103  158.7352 C   0  0  0  0  0  0  0  0  0  0  0  0
  151.1964  143.2970  158.1860 C   0  0  0  0  0  0  0  0  0  0  0  0
  148.1765  140.3561  155.0019 N   0  0  0  0  0  0  0  0  0  0  0  0
  148.0092  141.7118  154.8031 C   0  0  0  0  0  0  0  0  0  0  0  0
  147.1216  141.8715  153.7780 C   0  0  0  0  0  0  0  0  0  0  0  0
  146.7813  140.5388  153.4160 C   0  0  0  0  0  0  0  0  0  0  0  0
  147.4042  139.6361  154.1551 N   0  0  0  0  0  0  0  0  0  0  0  0
  148.8551  138.9283  158.0525 H   0  0  0  0  0  0  0  0  0  0  0  0
  147.3392  138.8670  157.1661 H   0  0  0  0  0  0  0  0  0  0  0  0
  147.9265  140.4010  157.7987 H   0  0  0  0  0  0  0  0  0  0  0  0
  149.2507  138.7086  155.6164 H   0  0  0  0  0  0  0  0  0  0  0  0
  149.7054  141.0116  158.0589 H   0  0  0  0  0  0  0  0  0  0  0  0
  152.3293  141.9174  156.9738 H   0  0  0  0  0  0  0  0  0  0  0  0
  151.6017  140.9693  159.7792 H   0  0  0  0  0  0  0  0  0  0  0  0
  152.6771  140.1747  158.6595 H   0  0  0  0  0  0  0  0  0  0  0  0
  153.9742  141.4564  160.3485 H   0  0  0  0  0  0  0  0  0  0  0  0
  154.2659  142.0511  158.7460 H   0  0  0  0  0  0  0  0  0  0  0  0
  153.9766  143.9752  160.1769 H   0  0  0  0  0  0  0  0  0  0  0  0
  152.0565  145.1160  159.0015 H   0  0  0  0  0  0  0  0  0  0  0  0
  153.1149  144.2468  157.9376 H   0  0  0  0  0  0  0  0  0  0  0  0
  150.7787  143.8084  157.3181 H   0  0  0  0  0  0  0  0  0  0  0  0
  150.3992  143.2610  158.9297 H   0  0  0  0  0  0  0  0  0  0  0  0
  148.5312  142.4433  155.4025 H   0  0  0  0  0  0  0  0  0  0  0  0
  146.7645  142.7988  153.3553 H   0  0  0  0  0  0  0  0  0  0  0  0
  146.1009  140.2028  152.6475 H   0  0  0  0  0  0  0  0  0  0  0  0
  1  2  1  0  0  0  0
  1 20  1  0  0  0  0
  1 21  1  0  0  0  0
  1 22  1  0  0  0  0
  2  3  1  0  0  0  0
  2 15  1  0  0  0  0
  2 23  1  0  0  0  0
  3  4  2  0  0  0  0
  3  5  1  0  0  0  0
  5  6  1  0  0  0  0
  5 24  1  0  0  0  0
  6 14  1  0  0  0  0
  6  7  1  0  0  0  0
  6 25  1  0  0  0  0
  7  8  1  0  0  0  0
  7 26  1  0  0  0  0
  7 27  1  0  0  0  0
  8  9  1  0  0  0  0
  8 28  1  0  0  0  0
  8 29  1  0  0  0  0
  9 10  1  0  0  0  0
  9 13  1  0  0  0  0
  9 30  1  0  0  0  0
 10 11  2  0  0  0  0
 10 12  1  0  0  0  0
 13 14  1  0  0  0  0
 13 31  1  0  0  0  0
 13 32  1  0  0  0  0
 14 33  1  0  0  0  0
 14 34  1  0  0  0  0
 15 19  1  0  0  0  0
 15 16  1  0  0  0  0
 16 17  2  0  0  0  0
 16 35  1  0  0  0  0
 17 18  1  0  0  0  0
 17 36  1  0  0  0  0
 18 19  2  0  0  0  0
 18 37  1  0  0  0  0
M  CHG  1  12  -1
M  END
> <s_m_source_file>
AV-unprocessed.smi

> <i_m_source_file_index>
999

> <i_lp_mmshare_version>
43012

> <i_f3d_flags>
0

> <s_epik_input>
bjFbY0hdW2NIXVtjSF1uMVtDQEhdKFtDSDNdKUMoPU8pW05IXVtDQEBIXTJbQ0gyXVtDSDJdW0NAQEhdKEMoPU8pW09IXSlbQ0gyXVtDSDJdMg==

> <s_epik_cmdline>
J2VwaWtfcHl0aG9uJywgJy1waCcsICc3LjAnLCAnLXRuJywgJzgnLCAnLW1hJywgJzIwMCcsICctbWV0YWxfYmluZGluZycsICctaW1hZScsICc8aW5maWxlLm1hZT4nLCAnLW9tYWUnLCAnPG91dGZpbGUubWFlPic=

> <r_lp_tautomer_probability>
1

> <r_epik_Ionization_Penalty>
0.00221712

> <r_epik_Ionization_Penalty_Charging>
0.00217268

> <r_epik_Ionization_Penalty_Neutral>
4.44343e-05

> <r_epik_State_Penalty>
0.0014925

> <r_epik_Charging_Adjusted_Penalty>
0.00366518

> <i_epik_Tot_Q>
-1

> <i_epik_Tot_abs_Q>
1

> <r_epik_Metal_State_Penalty>
-0

> <b_epik_Metal_Only>
0

> <s_lp_Force_Field>
OPLS_2005

> <r_lp_Energy>
7.42219

> <b_lp_Chiralities_Consistent>
1

> <s_lp_Variant>
AV-unprocessed.smi:999-3

> <Gold.Version>
5.8.1

> <Gold.Id.Protein>
6NUR|6NUR_protein|mol2

> <Gold.PLP.Fitness>
44.6278

> <Gold.PLP.PLP>
-32.9749

> <Gold.PLP.part.hbond>
-2.0000

> <Gold.PLP.part.metal>
0.0000

> <Gold.PLP.part.buried>
-5.9001

> <Gold.PLP.part.nonpolar>
-28.5588

> <Gold.PLP.part.repulsive>
2.2830

> <Gold.PLP.ligand.clash>
0.0000

> <Gold.PLP.ligand.torsion>
0.9924

> <Gold.PLP.Chemscore.Hbond>
2.5120

> <Gold.PLP.Chemscore.CHOScore>
1.9902

> <Gold.PLP.Chemscore.Metal>
0.0000

> <Gold.Chemscore.Hbonds>
donor molecule, donor type, donor heavy atom, donor atom, acceptor molecule, acceptor atom, score
      P1  H  6933  6945       L1    12  1.53
      P1  H  7989  7998       L1     4  0.94
      L1  C    16    35       P1  8028  1.00
      L1  C    18    37       P1 10175  1.00

> <Gold.PLP.Chemscore.Internal.Correction>
0.1312

> <Gold.Rescore>
     Score         DG    S(hbond)    S(metal)    S(lipo)     H(rot)  DE(clash)    DE(int)     intcor
     13.45     -16.21       1.68        0.00      87.16       1.98       1.02       1.74       ----

> <Gold.Chemscore.Fitness>
13.4530

> <Gold.Chemscore.DG>
-16.2138

> <Gold.Chemscore.ZeroCoef>
-5.4800

> <Gold.Chemscore.Hbond>
1.6760

> <Gold.Chemscore.Metal>
0.0000

> <Gold.Chemscore.Lipo>
87.1617

> <Gold.Chemscore.Internal_Hbond>
0.0000

> <Gold.Chemscore.DEClash>
1.0248

> <Gold.Chemscore.DEInternal>
1.7360

> <Gold.Chemscore.Rot>
1.9774

> <Gold.Chemscore.Internal.Correction>
   9.000000E+99

> <Gold.Chemscore.Hbonds>
donor molecule, donor type, donor heavy atom, donor atom, acceptor molecule, acceptor atom, score
      P1  H  6933  6945       L1    12  0.70
      P1  H  7989  7998       L1     4  0.91

> <Gold.Chemscore.Hbond.Weighted>
-5.5979

> <Gold.Chemscore.Metal.Weighted>
-0.0000

> <Gold.Chemscore.Lipo.Weighted>
-10.1979

> <Gold.Chemscore.Internal_Hbond.Weighted>
0.0000

> <Gold.Chemscore.DEClash.Weighted>
1.0248

> <Gold.Chemscore.DEInternal.Weighted>
1.7360

> <Gold.Chemscore.Rot.Weighted>
5.0620

> <Gold.Chemscore.Internal.Correction.Weighted>
   9.000000E+99

> <Gold.Protein.RotatedTorsions>
[ 6907 6896 6895 6894 ] final  -55.01 input  -60.11 | X-H torsion
[ 7974 7965 7964 7962 ] final   78.05 input  175.53 | X-H torsion
[ 8008 7997 7996 7995 ] final   24.12 input   59.86 | X-H torsion
[ 10167 10162 10161 10158 ] final  127.09 input  -65.29 | X-H torsion
[ 10718 10713 10712 10709 ] final   71.00 input   66.30 | X-H torsion
[ 10763 10752 10751 10750 ] final   21.20 input  -60.55 | X-H torsion
[ 11005 11000 10999 10996 ] final   47.19 input  -57.11 | X-H torsion

> <Gold.Protein.ActiveResidues>
 VAL166  LYS551  ARG553  GLY616  TRP617  ASP618  TYR619  PRO620  LYS621  CYS622 
 ASP623  PHE694  ASN695  SER759  ASP760  ASP761  ALA762  ILE779  LEU786  VAL792 
 PHE793  MET794  SER795  GLU796  ALA797  LYS798  CYS799  TRP800  GLU811  SER814 

> <Gold.Protein.RotatedAtoms>
  150.8289  134.7532  159.6835 H   0  0  0  0  0  0  0  0  0  0  0  0  # atno 6907 bound_to 6896
  152.4396  134.5614  159.9905 H   0  0  0  0  0  0  0  0  0  0  0  0  # atno 6908 bound_to 6896
  151.5780  133.3344  159.3038 H   0  0  0  0  0  0  0  0  0  0  0  0  # atno 6909 bound_to 6896
  145.6821  139.2527  143.1808 H   0  0  0  0  0  0  0  0  0  0  0  0  # atno 7974 bound_to 7965
  154.9913  140.3114  155.4905 H   0  0  0  0  0  0  0  0  0  0  0  0  # atno 8008 bound_to 7997
  156.2939  140.2248  156.4959 H   0  0  0  0  0  0  0  0  0  0  0  0  # atno 8009 bound_to 7997
  154.7700  140.0453  157.1032 H   0  0  0  0  0  0  0  0  0  0  0  0  # atno 8010 bound_to 7997
  139.5597  144.6873  151.4080 H   0  0  0  0  0  0  0  0  0  0  0  0  # atno 10167 bound_to 10162
  157.6429  130.9506  150.0728 H   0  0  0  0  0  0  0  0  0  0  0  0  # atno 10718 bound_to 10713
  153.1014  135.6673  153.9666 H   0  0  0  0  0  0  0  0  0  0  0  0  # atno 10763 bound_to 10752
  153.9235  135.3012  155.3448 H   0  0  0  0  0  0  0  0  0  0  0  0  # atno 10764 bound_to 10752
  154.7435  135.5068  153.9239 H   0  0  0  0  0  0  0  0  0  0  0  0  # atno 10765 bound_to 10752
  140.1301  134.4717  155.8528 H   0  0  0  0  0  0  0  0  0  0  0  0  # atno 11005 bound_to 11000
  146.0955  140.7605  142.9574 LP  0  0  0  0  0  0  0  0  0  0  0  0  # atno 17320 bound_to 7965
  144.7023  140.3705  143.7146 LP  0  0  0  0  0  0  0  0  0  0  0  0  # atno 17321 bound_to 7965
  140.6875  143.7940  150.7207 LP  0  0  0  0  0  0  0  0  0  0  0  0  # atno 17342 bound_to 10162
  140.1412  143.4439  152.2192 LP  0  0  0  0  0  0  0  0  0  0  0  0  # atno 17343 bound_to 10162
  156.1727  130.3647  149.9143 LP  0  0  0  0  0  0  0  0  0  0  0  0  # atno 17370 bound_to 10713
  156.7114  130.8971  151.3610 LP  0  0  0  0  0  0  0  0  0  0  0  0  # atno 17371 bound_to 10713
  141.2168  133.6792  156.7053 LP  0  0  0  0  0  0  0  0  0  0  0  0  # atno 17394 bound_to 11000
  140.2853  134.8284  157.3969 LP  0  0  0  0  0  0  0  0  0  0  0  0  # atno 17395 bound_to 11000

$$$$
