AV-unprocessed.smi:1900|AV-procd|sdf|7714|dock5
  -GOLD-   22720 9453D 1   1.00000     0.00000
 Structure written by MMmdl.
 43 44  0  0  0  0  0  0  0  0  1 V2000
  152.3182  138.0482  157.2256 C   0  0  0  0  0  0  0  0  0  0  0  0
  151.8991  139.2671  156.3968 C   0  0  1  0  0  0  0  0  0  0  0  0
  150.7874  138.9290  155.3858 C   0  0  0  0  0  0  0  0  0  0  0  0
  150.3380  140.1051  154.6493 N   0  0  0  0  0  0  0  0  0  0  0  0
  149.2868  139.7510  153.6965 C   0  0  0  0  0  0  0  0  0  0  0  0
  147.9121  139.4527  154.3194 C   0  0  0  0  0  0  0  0  0  0  0  0
  146.8090  139.3486  153.2544 C   0  0  0  0  0  0  0  0  0  0  0  0
  146.8070  138.0409  152.6082 N   0  0  0  0  0  0  0  0  0  0  0  0
  145.7099  137.3205  152.3346 C   0  0  0  0  0  0  0  0  0  0  0  0
  144.5683  137.6867  152.6138 O   0  0  0  0  0  0  0  0  0  0  0  0
  146.0233  136.1659  151.7247 N   0  0  0  0  0  0  0  0  0  0  0  0
  145.1272  135.1700  151.2617 C   0  0  0  0  0  0  0  0  0  0  0  0
  145.3043  133.7567  151.1956 C   0  0  0  0  0  0  0  0  0  0  0  0
  144.2277  133.1612  150.7021 N   0  0  0  0  0  0  0  0  0  0  0  0
  143.3688  134.1756  150.4545 N   0  0  0  0  0  0  0  0  0  0  0  0
  143.8759  135.4142  150.7800 C   0  0  0  0  0  0  0  0  0  0  0  0
  149.9099  141.1249  155.6043 C   0  0  0  0  0  0  0  0  0  0  0  0
  151.0156  141.4652  156.6227 C   0  0  1  0  0  0  0  0  0  0  0  0
  150.5405  142.4664  157.6810 C   0  0  0  0  0  0  0  0  0  0  0  0
  151.4241  140.2727  157.2874 O   0  0  0  0  0  0  0  0  0  0  0  0
  142.4506  134.0079  150.0680 H   0  0  0  0  0  0  0  0  0  0  0  0
  152.7015  137.2526  156.5860 H   0  0  0  0  0  0  0  0  0  0  0  0
  151.4766  137.6477  157.7918 H   0  0  0  0  0  0  0  0  0  0  0  0
  153.1027  138.3108  157.9354 H   0  0  0  0  0  0  0  0  0  0  0  0
  152.7735  139.6479  155.8661 H   0  0  0  0  0  0  0  0  0  0  0  0
  151.1547  138.1758  154.6874 H   0  0  0  0  0  0  0  0  0  0  0  0
  149.9434  138.4796  155.9118 H   0  0  0  0  0  0  0  0  0  0  0  0
  149.1567  140.5795  152.9987 H   0  0  0  0  0  0  0  0  0  0  0  0
  149.6075  138.9004  153.0931 H   0  0  0  0  0  0  0  0  0  0  0  0
  147.9449  138.5209  154.8837 H   0  0  0  0  0  0  0  0  0  0  0  0
  147.6618  140.2404  155.0314 H   0  0  0  0  0  0  0  0  0  0  0  0
  145.8312  139.5523  153.6942 H   0  0  0  0  0  0  0  0  0  0  0  0
  146.9651  140.1049  152.4848 H   0  0  0  0  0  0  0  0  0  0  0  0
  147.7046  137.6617  152.3448 H   0  0  0  0  0  0  0  0  0  0  0  0
  147.0033  135.9868  151.5630 H   0  0  0  0  0  0  0  0  0  0  0  0
  146.1506  133.1492  151.4798 H   0  0  0  0  0  0  0  0  0  0  0  0
  143.3182  136.3292  150.6448 H   0  0  0  0  0  0  0  0  0  0  0  0
  149.6288  142.0378  155.0804 H   0  0  0  0  0  0  0  0  0  0  0  0
  149.0204  140.7815  156.1352 H   0  0  0  0  0  0  0  0  0  0  0  0
  151.8745  141.8896  156.0999 H   0  0  0  0  0  0  0  0  0  0  0  0
  150.2250  143.4033  157.2213 H   0  0  0  0  0  0  0  0  0  0  0  0
  151.3392  142.6953  158.3867 H   0  0  0  0  0  0  0  0  0  0  0  0
  149.6977  142.0709  158.2487 H   0  0  0  0  0  0  0  0  0  0  0  0
  1  2  1  0  0  0  0
  1 22  1  0  0  0  0
  1 23  1  0  0  0  0
  1 24  1  0  0  0  0
  2 20  1  0  0  0  0
  2  3  1  0  0  0  0
  2 25  1  0  0  0  0
  3  4  1  0  0  0  0
  3 26  1  0  0  0  0
  3 27  1  0  0  0  0
  4  5  1  0  0  0  0
  4 17  1  0  0  0  0
  5  6  1  0  0  0  0
  5 28  1  0  0  0  0
  5 29  1  0  0  0  0
  6  7  1  0  0  0  0
  6 30  1  0  0  0  0
  6 31  1  0  0  0  0
  7  8  1  0  0  0  0
  7 32  1  0  0  0  0
  7 33  1  0  0  0  0
  8  9  1  0  0  0  0
  8 34  1  0  0  0  0
  9 10  2  0  0  0  0
  9 11  1  0  0  0  0
 11 12  1  0  0  0  0
 11 35  1  0  0  0  0
 12 16  2  0  0  0  0
 12 13  1  0  0  0  0
 13 14  2  0  0  0  0
 13 36  1  0  0  0  0
 14 15  1  0  0  0  0
 15 21  1  0  0  0  0
 15 16  1  0  0  0  0
 16 37  1  0  0  0  0
 17 18  1  0  0  0  0
 17 38  1  0  0  0  0
 17 39  1  0  0  0  0
 18 19  1  0  0  0  0
 18 20  1  0  0  0  0
 18 40  1  0  0  0  0
 19 41  1  0  0  0  0
 19 42  1  0  0  0  0
 19 43  1  0  0  0  0
M  END
> <s_m_source_file>
AV-unprocessed.smi

> <i_m_source_file_index>
1900

> <i_lp_mmshare_version>
43012

> <i_f3d_flags>
0

> <s_epik_input>
W0NIM11bQ0BASF0xW0NIMl1OKFtDSDJdW0NASF0oTzEpW0NIM10pW0NIMl1bQ0gyXVtDSDJdW05IXUMoPU8pW05IXWMyW2NIXW5bbkhdW2NIXTI=

> <s_epik_cmdline>
J2VwaWtfcHl0aG9uJywgJy1waCcsICc3LjAnLCAnLXRuJywgJzgnLCAnLW1hJywgJzIwMCcsICctbWV0YWxfYmluZGluZycsICctaW1hZScsICc8aW5maWxlLm1hZT4nLCAnLW9tYWUnLCAnPG91dGZpbGUubWFlPic=

> <r_lp_tautomer_probability>
0.5

> <r_epik_Ionization_Penalty>
0.594715

> <r_epik_Ionization_Penalty_Charging>
0

> <r_epik_Ionization_Penalty_Neutral>
0.594715

> <r_epik_State_Penalty>
0.608529

> <r_epik_Charging_Adjusted_Penalty>
0.608529

> <i_epik_Tot_Q>
0

> <i_epik_Tot_abs_Q>
0

> <r_epik_Metal_State_Penalty>
0.608528

> <b_epik_Metal_Only>
0

> <s_lp_Force_Field>
OPLS_2005

> <r_lp_Energy>
22.5064

> <b_lp_Chiralities_Consistent>
1

> <s_lp_Variant>
AV-unprocessed.smi:1900-6

> <Gold.Version>
5.8.1

> <Gold.Id.Protein>
6NUR|6NUR_protein|mol2

> <Gold.PLP.Fitness>
45.3953

> <Gold.PLP.PLP>
-32.1145

> <Gold.PLP.part.hbond>
-4.0000

> <Gold.PLP.part.metal>
0.0000

> <Gold.PLP.part.buried>
-1.3152

> <Gold.PLP.part.nonpolar>
-28.5918

> <Gold.PLP.part.repulsive>
0.9951

> <Gold.PLP.ligand.clash>
0.0000

> <Gold.PLP.ligand.torsion>
0.5322

> <Gold.PLP.Chemscore.Hbond>
3.7680

> <Gold.PLP.Chemscore.CHOScore>
1.0000

> <Gold.PLP.Chemscore.Metal>
0.0000

> <Gold.Chemscore.Hbonds>
donor molecule, donor type, donor heavy atom, donor atom, acceptor molecule, acceptor atom, score
      L1  H     8    34       P1  7948  1.00
      L1  H    11    35       P1  7948  1.00
      L1  H    15    21       P1 10186  1.00
      P1  H  7989  7998       L1     4  1.00
      L1  C    16    37       P1 10171  1.00

> <Gold.PLP.Chemscore.Internal.Correction>
0.0413

> <Gold.Rescore>
     Score         DG    S(hbond)    S(metal)    S(lipo)     H(rot)  DE(clash)    DE(int)     intcor
     17.15     -19.60       3.02        0.00      75.68       1.88       1.76       0.69       ----

> <Gold.Chemscore.Fitness>
17.1501

> <Gold.Chemscore.DG>
-19.6025

> <Gold.Chemscore.ZeroCoef>
-5.4800

> <Gold.Chemscore.Hbond>
3.0180

> <Gold.Chemscore.Metal>
0.0000

> <Gold.Chemscore.Lipo>
75.6845

> <Gold.Chemscore.Internal_Hbond>
0.0000

> <Gold.Chemscore.DEClash>
1.7638

> <Gold.Chemscore.DEInternal>
0.6886

> <Gold.Chemscore.Rot>
1.8799

> <Gold.Chemscore.Internal.Correction>
   9.000000E+99

> <Gold.Chemscore.Hbonds>
donor molecule, donor type, donor heavy atom, donor atom, acceptor molecule, acceptor atom, score
      L1  H     8    34       P1  7948  0.98
      L1  H    11    35       P1  7948  0.98
      L1  H    15    21       P1 10186  0.95
      P1  H  7989  7998       L1     4  0.18

> <Gold.Chemscore.Hbond.Weighted>
-10.0800

> <Gold.Chemscore.Metal.Weighted>
-0.0000

> <Gold.Chemscore.Lipo.Weighted>
-8.8551

> <Gold.Chemscore.Internal_Hbond.Weighted>
0.0000

> <Gold.Chemscore.DEClash.Weighted>
1.7638

> <Gold.Chemscore.DEInternal.Weighted>
0.6886

> <Gold.Chemscore.Rot.Weighted>
4.8126

> <Gold.Chemscore.Internal.Correction.Weighted>
   9.000000E+99

> <Gold.Protein.RotatedTorsions>
[ 6907 6896 6895 6894 ] final  170.36 input  -60.11 | X-H torsion
[ 7974 7965 7964 7962 ] final -124.27 input  175.53 | X-H torsion
[ 8008 7997 7996 7995 ] final  -44.35 input   59.86 | X-H torsion
[ 10167 10162 10161 10158 ] final   25.02 input  -65.29 | X-H torsion
[ 10718 10713 10712 10709 ] final   72.05 input   66.30 | X-H torsion
[ 10763 10752 10751 10750 ] final  116.78 input  -60.55 | X-H torsion
[ 11005 11000 10999 10996 ] final   13.05 input  -57.11 | X-H torsion

> <Gold.Protein.ActiveResidues>
 VAL166  LYS551  ARG553  GLY616  TRP617  ASP618  TYR619  PRO620  LYS621  CYS622 
 ASP623  PHE694  ASN695  SER759  ASP760  ASP761  ALA762  ILE779  LEU786  VAL792 
 PHE793  MET794  SER795  GLU796  ALA797  LYS798  CYS799  TRP800  GLU811  SER814 

> <Gold.Protein.RotatedAtoms>
  151.8174  133.3390  159.3573 H   0  0  0  0  0  0  0  0  0  0  0  0  # atno 6907 bound_to 6896
  150.7306  134.5606  159.5850 H   0  0  0  0  0  0  0  0  0  0  0  0  # atno 6908 bound_to 6896
  152.3031  134.7588  160.0404 H   0  0  0  0  0  0  0  0  0  0  0  0  # atno 6909 bound_to 6896
  145.0098  140.7896  143.4445 H   0  0  0  0  0  0  0  0  0  0  0  0  # atno 7974 bound_to 7965
  154.3997  140.1424  156.3669 H   0  0  0  0  0  0  0  0  0  0  0  0  # atno 8008 bound_to 7997
  155.8129  140.3472  155.5447 H   0  0  0  0  0  0  0  0  0  0  0  0  # atno 8009 bound_to 7997
  155.8368  140.0920  157.1749 H   0  0  0  0  0  0  0  0  0  0  0  0  # atno 8010 bound_to 7997
  140.5140  144.0113  150.6385 H   0  0  0  0  0  0  0  0  0  0  0  0  # atno 10167 bound_to 10162
  157.6482  130.9559  150.0875 H   0  0  0  0  0  0  0  0  0  0  0  0  # atno 10718 bound_to 10713
  153.5425  135.3556  155.2724 H   0  0  0  0  0  0  0  0  0  0  0  0  # atno 10763 bound_to 10752
  154.8716  135.4094  154.3028 H   0  0  0  0  0  0  0  0  0  0  0  0  # atno 10764 bound_to 10752
  153.3738  135.7065  153.6685 H   0  0  0  0  0  0  0  0  0  0  0  0  # atno 10765 bound_to 10752
  140.4851  134.0896  155.7759 H   0  0  0  0  0  0  0  0  0  0  0  0  # atno 11005 bound_to 11000
  145.2038  139.2238  143.5179 LP  0  0  0  0  0  0  0  0  0  0  0  0  # atno 17320 bound_to 7965
  146.3468  140.1862  142.8589 LP  0  0  0  0  0  0  0  0  0  0  0  0  # atno 17321 bound_to 7965
  140.3444  143.3000  152.0554 LP  0  0  0  0  0  0  0  0  0  0  0  0  # atno 17342 bound_to 10162
  139.4904  144.6419  151.6858 LP  0  0  0  0  0  0  0  0  0  0  0  0  # atno 17343 bound_to 10162
  156.1834  130.3651  149.9005 LP  0  0  0  0  0  0  0  0  0  0  0  0  # atno 17370 bound_to 10713
  156.6952  130.8911  151.3593 LP  0  0  0  0  0  0  0  0  0  0  0  0  # atno 17371 bound_to 10713
  141.1512  133.8966  157.2093 LP  0  0  0  0  0  0  0  0  0  0  0  0  # atno 17394 bound_to 11000
  139.9803  135.0100  156.9732 LP  0  0  0  0  0  0  0  0  0  0  0  0  # atno 17395 bound_to 11000

$$$$
