AV-unprocessed.smi:1012|AV-procd|sdf|4423|dock2
  -GOLD-   22720 2373D 1   1.00000     0.00000
 Structure written by MMmdl.
 43 45  0  0  0  0  0  0  0  0  1 V2000
  143.6241  144.4744  157.6888 C   0  0  0  0  0  0  0  0  0  0  0  0
  144.4196  143.6165  156.8844 O   0  0  0  0  0  0  0  0  0  0  0  0
  144.6927  144.0012  155.5872 C   0  0  0  0  0  0  0  0  0  0  0  0
  144.1363  145.1547  154.9775 C   0  0  0  0  0  0  0  0  0  0  0  0
  144.4619  145.4915  153.6499 C   0  0  0  0  0  0  0  0  0  0  0  0
  145.3457  144.6831  152.9137 C   0  0  0  0  0  0  0  0  0  0  0  0
  145.9042  143.5367  153.5070 C   0  0  0  0  0  0  0  0  0  0  0  0
  145.5798  143.1925  154.8364 C   0  0  0  0  0  0  0  0  0  0  0  0
  146.2016  141.9570  155.4627 C   0  0  0  0  0  0  0  0  0  0  0  0
  147.6112  141.9463  155.3063 O   0  0  0  0  0  0  0  0  0  0  0  0
  148.1547  140.6370  155.2927 C   0  0  0  0  0  0  0  0  0  0  0  0
  149.6259  140.7132  154.8565 C   0  0  1  0  0  0  0  0  0  0  0  0
  149.6686  141.0656  153.4874 O   0  0  0  0  0  0  0  0  0  0  0  0
  150.4142  141.7575  155.6704 C   0  0  0  0  0  0  0  0  0  0  0  0
  151.2783  141.1494  156.6668 N   0  0  0  0  0  0  0  0  0  0  0  0
  151.8817  139.9481  156.5881 C   0  0  0  0  0  0  0  0  0  0  0  0
  152.6361  139.5759  157.6181 N   0  0  0  0  0  0  0  0  0  0  0  0
  152.5092  140.6640  158.4645 C   0  0  0  0  0  0  0  0  0  0  0  0
  153.0690  140.9034  159.7397 C   0  0  0  0  0  0  0  0  0  0  0  0
  152.7970  142.1054  160.4255 C   0  0  0  0  0  0  0  0  0  0  0  0
  153.3424  142.3194  161.6463 F   0  0  0  0  0  0  0  0  0  0  0  0
  151.9622  143.0847  159.8472 C   0  0  0  0  0  0  0  0  0  0  0  0
  151.7079  144.2369  160.5117 F   0  0  0  0  0  0  0  0  0  0  0  0
  151.3921  142.8678  158.5781 C   0  0  0  0  0  0  0  0  0  0  0  0
  151.6658  141.6669  157.8981 C   0  0  0  0  0  0  0  0  0  0  0  0
  143.4828  144.0180  158.6683 H   0  0  0  0  0  0  0  0  0  0  0  0
  142.6365  144.6280  157.2518 H   0  0  0  0  0  0  0  0  0  0  0  0
  144.1076  145.4401  157.8416 H   0  0  0  0  0  0  0  0  0  0  0  0
  143.4560  145.8025  155.5089 H   0  0  0  0  0  0  0  0  0  0  0  0
  144.0329  146.3730  153.1967 H   0  0  0  0  0  0  0  0  0  0  0  0
  145.5962  144.9425  151.8958 H   0  0  0  0  0  0  0  0  0  0  0  0
  146.5829  142.9213  152.9349 H   0  0  0  0  0  0  0  0  0  0  0  0
  145.9515  141.9077  156.5235 H   0  0  0  0  0  0  0  0  0  0  0  0
  145.7632  141.0769  154.9896 H   0  0  0  0  0  0  0  0  0  0  0  0
  148.0521  140.1503  156.2645 H   0  0  0  0  0  0  0  0  0  0  0  0
  147.5908  140.0418  154.5723 H   0  0  0  0  0  0  0  0  0  0  0  0
  150.0954  139.7367  154.9856 H   0  0  0  0  0  0  0  0  0  0  0  0
  149.3969  140.3166  152.9790 H   0  0  0  0  0  0  0  0  0  0  0  0
  151.0205  142.3806  155.0116 H   0  0  0  0  0  0  0  0  0  0  0  0
  149.7261  142.4289  156.1858 H   0  0  0  0  0  0  0  0  0  0  0  0
  151.7601  139.3109  155.7244 H   0  0  0  0  0  0  0  0  0  0  0  0
  153.7100  140.1614  160.1918 H   0  0  0  0  0  0  0  0  0  0  0  0
  150.7556  143.6168  158.1312 H   0  0  0  0  0  0  0  0  0  0  0  0
  1  2  1  0  0  0  0
  1 26  1  0  0  0  0
  1 27  1  0  0  0  0
  1 28  1  0  0  0  0
  2  3  1  0  0  0  0
  3  8  1  0  0  0  0
  3  4  2  0  0  0  0
  4  5  1  0  0  0  0
  4 29  1  0  0  0  0
  5  6  2  0  0  0  0
  5 30  1  0  0  0  0
  6  7  1  0  0  0  0
  6 31  1  0  0  0  0
  7  8  2  0  0  0  0
  7 32  1  0  0  0  0
  8  9  1  0  0  0  0
  9 10  1  0  0  0  0
  9 33  1  0  0  0  0
  9 34  1  0  0  0  0
 10 11  1  0  0  0  0
 11 12  1  0  0  0  0
 11 35  1  0  0  0  0
 11 36  1  0  0  0  0
 12 13  1  0  0  0  0
 12 14  1  0  0  0  0
 12 37  1  0  0  0  0
 13 38  1  0  0  0  0
 14 15  1  0  0  0  0
 14 39  1  0  0  0  0
 14 40  1  0  0  0  0
 15 25  1  0  0  0  0
 15 16  1  0  0  0  0
 16 17  2  0  0  0  0
 16 41  1  0  0  0  0
 17 18  1  0  0  0  0
 18 25  2  0  0  0  0
 18 19  1  0  0  0  0
 19 20  2  0  0  0  0
 19 42  1  0  0  0  0
 20 21  1  0  0  0  0
 20 22  1  0  0  0  0
 22 23  1  0  0  0  0
 22 24  2  0  0  0  0
 24 25  1  0  0  0  0
 24 43  1  0  0  0  0
M  END
> <s_m_source_file>
AV-unprocessed.smi

> <i_m_source_file_index>
1012

> <i_lp_mmshare_version>
43012

> <i_f3d_flags>
0

> <s_epik_input>
W0NIM11PYzFbY0hdW2NIXVtjSF1bY0hdYzFbQ0gyXU9bQ0gyXVtDQEhdKFtPSF0pW0NIMl1uKFtjSF1uMiljKGMyMylbY0hdYyhGKWMoRilbY0hdMw==

> <s_epik_cmdline>
J2VwaWtfcHl0aG9uJywgJy1waCcsICc3LjAnLCAnLXRuJywgJzgnLCAnLW1hJywgJzIwMCcsICctbWV0YWxfYmluZGluZycsICctaW1hZScsICc8aW5maWxlLm1hZT4nLCAnLW9tYWUnLCAnPG91dGZpbGUubWFlPic=

> <r_lp_tautomer_probability>
1

> <r_epik_Ionization_Penalty>
0.0160257

> <r_epik_Ionization_Penalty_Charging>
0

> <r_epik_Ionization_Penalty_Neutral>
0.0160257

> <r_epik_State_Penalty>
0.0126263

> <r_epik_Charging_Adjusted_Penalty>
0.0126263

> <i_epik_Tot_Q>
0

> <i_epik_Tot_abs_Q>
0

> <r_epik_Metal_State_Penalty>
1.27616e-05

> <b_epik_Metal_Only>
0

> <s_lp_Force_Field>
OPLS_2005

> <r_lp_Energy>
17.5925

> <b_lp_Chiralities_Consistent>
1

> <s_lp_Variant>
AV-unprocessed.smi:1012-2

> <Gold.Version>
5.8.1

> <Gold.Id.Protein>
6NUR|6NUR_protein|mol2

> <Gold.PLP.Fitness>
61.6565

> <Gold.PLP.PLP>
-56.2891

> <Gold.PLP.part.hbond>
-3.8137

> <Gold.PLP.part.metal>
0.0000

> <Gold.PLP.part.buried>
-6.1306

> <Gold.PLP.part.nonpolar>
-44.5464

> <Gold.PLP.part.repulsive>
0.5686

> <Gold.PLP.ligand.clash>
0.0000

> <Gold.PLP.ligand.torsion>
1.3394

> <Gold.PLP.Chemscore.Hbond>
2.6400

> <Gold.PLP.Chemscore.CHOScore>
0.0000

> <Gold.PLP.Chemscore.Metal>
0.0000

> <Gold.Chemscore.Hbonds>
donor molecule, donor type, donor heavy atom, donor atom, acceptor molecule, acceptor atom, score
      L1  H    13    38       P1  7957  0.54
      P1  H  7989  7998       L1    13  0.13
      P1  H  7997  8009       L1    17  0.83
      P1  H  8011  8017       L1    13  1.00

> <Gold.PLP.Chemscore.Internal.Correction>
0.1263

> <Gold.Rescore>
     Score         DG    S(hbond)    S(metal)    S(lipo)     H(rot)  DE(clash)    DE(int)     intcor
     15.31     -16.73       1.33        0.00     122.48       2.93       0.15       1.27       ----

> <Gold.Chemscore.Fitness>
15.3114

> <Gold.Chemscore.DG>
-16.7335

> <Gold.Chemscore.ZeroCoef>
-5.4800

> <Gold.Chemscore.Hbond>
1.3271

> <Gold.Chemscore.Metal>
0.0000

> <Gold.Chemscore.Lipo>
122.4838

> <Gold.Chemscore.Internal_Hbond>
0.0000

> <Gold.Chemscore.DEClash>
0.1532

> <Gold.Chemscore.DEInternal>
1.2689

> <Gold.Chemscore.Rot>
2.9335

> <Gold.Chemscore.Internal.Correction>
   9.000000E+99

> <Gold.Chemscore.Hbonds>
donor molecule, donor type, donor heavy atom, donor atom, acceptor molecule, acceptor atom, score
      L1  H    13    38       P1  7957  0.54
      P1  H  7997  8009       L1    17  0.03
      P1  H  8011  8017       L1    13  0.53

> <Gold.Chemscore.Hbond.Weighted>
-4.4326

> <Gold.Chemscore.Metal.Weighted>
-0.0000

> <Gold.Chemscore.Lipo.Weighted>
-14.3306

> <Gold.Chemscore.Internal_Hbond.Weighted>
0.0000

> <Gold.Chemscore.DEClash.Weighted>
0.1532

> <Gold.Chemscore.DEInternal.Weighted>
1.2689

> <Gold.Chemscore.Rot.Weighted>
7.5097

> <Gold.Chemscore.Internal.Correction.Weighted>
   9.000000E+99

> <Gold.Protein.RotatedTorsions>
[ 6907 6896 6895 6894 ] final  134.80 input  -60.11 | X-H torsion
[ 7974 7965 7964 7962 ] final   20.51 input  175.53 | X-H torsion
[ 8008 7997 7996 7995 ] final  164.80 input   59.86 | X-H torsion
[ 10167 10162 10161 10158 ] final   47.36 input  -65.29 | X-H torsion
[ 10718 10713 10712 10709 ] final  100.65 input   66.30 | X-H torsion
[ 10763 10752 10751 10750 ] final   19.21 input  -60.55 | X-H torsion
[ 11005 11000 10999 10996 ] final  -92.74 input  -57.11 | X-H torsion

> <Gold.Protein.ActiveResidues>
 VAL166  LYS551  ARG553  GLY616  TRP617  ASP618  TYR619  PRO620  LYS621  CYS622 
 ASP623  PHE694  ASN695  SER759  ASP760  ASP761  ALA762  ILE779  LEU786  VAL792 
 PHE793  MET794  SER795  GLU796  ALA797  LYS798  CYS799  TRP800  GLU811  SER814 

> <Gold.Protein.RotatedAtoms>
  152.3074  133.5717  159.5657 H   0  0  0  0  0  0  0  0  0  0  0  0  # atno 6907 bound_to 6896
  150.7306  134.0203  159.3708 H   0  0  0  0  0  0  0  0  0  0  0  0  # atno 6908 bound_to 6896
  151.8098  135.0684  160.0462 H   0  0  0  0  0  0  0  0  0  0  0  0  # atno 6909 bound_to 6896
  146.2108  139.8160  142.8690 H   0  0  0  0  0  0  0  0  0  0  0  0  # atno 7974 bound_to 7965
  156.1851  140.1687  156.8200 H   0  0  0  0  0  0  0  0  0  0  0  0  # atno 8008 bound_to 7997
  154.5405  140.0738  156.8534 H   0  0  0  0  0  0  0  0  0  0  0  0  # atno 8009 bound_to 7997
  155.3225  140.3374  155.4243 H   0  0  0  0  0  0  0  0  0  0  0  0  # atno 8010 bound_to 7997
  140.3044  144.2896  150.6212 H   0  0  0  0  0  0  0  0  0  0  0  0  # atno 10167 bound_to 10162
  157.6849  131.0704  150.5133 H   0  0  0  0  0  0  0  0  0  0  0  0  # atno 10718 bound_to 10713
  153.1182  135.6713  153.9382 H   0  0  0  0  0  0  0  0  0  0  0  0  # atno 10763 bound_to 10752
  153.8905  135.3047  155.3448 H   0  0  0  0  0  0  0  0  0  0  0  0  # atno 10764 bound_to 10752
  154.7596  135.4994  153.9518 H   0  0  0  0  0  0  0  0  0  0  0  0  # atno 10765 bound_to 10752
  141.1514  133.7841  157.0062 H   0  0  0  0  0  0  0  0  0  0  0  0  # atno 11005 bound_to 11000
  145.3146  141.0228  143.3535 LP  0  0  0  0  0  0  0  0  0  0  0  0  # atno 17320 bound_to 7965
  144.8911  139.4774  143.6677 LP  0  0  0  0  0  0  0  0  0  0  0  0  # atno 17321 bound_to 7965
  140.5623  143.2190  151.7744 LP  0  0  0  0  0  0  0  0  0  0  0  0  # atno 17342 bound_to 10162
  139.4908  144.4331  151.9849 LP  0  0  0  0  0  0  0  0  0  0  0  0  # atno 17343 bound_to 10162
  156.5450  130.4217  149.6135 LP  0  0  0  0  0  0  0  0  0  0  0  0  # atno 17370 bound_to 10713
  156.2952  130.7146  151.2005 LP  0  0  0  0  0  0  0  0  0  0  0  0  # atno 17371 bound_to 10713
  140.0908  134.9594  157.1772 LP  0  0  0  0  0  0  0  0  0  0  0  0  # atno 17394 bound_to 11000
  140.3449  134.2663  155.7206 LP  0  0  0  0  0  0  0  0  0  0  0  0  # atno 17395 bound_to 11000

$$$$
