AV-unprocessed.smi:3109|AV-procd|sdf|11827|dock2
  -GOLD-   2272017203D 1   1.00000     0.00000
 Structure written by MMmdl.
 37 38  0  0  0  0  0  0  0  0  2 V2000
  152.1172  138.3427  155.0232 C   0  0  0  0  0  0  0  0  0  0  0  0
  150.9491  137.9835  154.2949 C   0  0  0  0  0  0  0  0  0  0  0  0
  150.0318  138.9373  154.3020 N   0  0  0  0  0  0  0  0  0  0  0  0
  150.5765  139.9293  155.0401 N   0  0  0  0  0  0  0  0  0  0  0  0
  149.8468  141.1700  155.2454 C   0  0  0  0  0  0  0  0  0  0  0  0
  149.8418  141.6322  156.7133 C   0  0  0  0  0  0  0  0  0  0  0  0
  150.6200  142.8779  156.8888 N   0  3  0  0  0  0  0  0  0  0  0  0
  151.0441  143.1747  158.2762 C   0  0  0  0  0  0  0  0  0  0  0  0
  151.4428  144.6617  158.3834 C   0  0  0  0  0  0  0  0  0  0  0  0
  151.1956  145.2573  159.7818 C   0  0  0  0  0  0  0  0  0  0  0  0
  152.1905  144.8165  160.8648 C   0  0  0  0  0  0  0  0  0  0  0  0
  152.2893  143.2957  161.0663 C   0  0  0  0  0  0  0  0  0  0  0  0
  153.0271  142.5964  159.9147 C   0  0  0  0  0  0  0  0  0  0  0  0
  152.1521  142.1871  158.7164 C   0  0  0  0  0  0  0  0  0  0  0  0
  151.8432  139.6013  155.4765 C   0  0  0  0  0  0  0  0  0  0  0  0
  153.0184  137.7687  155.1812 H   0  0  0  0  0  0  0  0  0  0  0  0
  150.7431  137.0663  153.7631 H   0  0  0  0  0  0  0  0  0  0  0  0
  150.2839  141.9417  154.6101 H   0  0  0  0  0  0  0  0  0  0  0  0
  148.8235  141.0213  154.8988 H   0  0  0  0  0  0  0  0  0  0  0  0
  148.8145  141.8076  157.0338 H   0  0  0  0  0  0  0  0  0  0  0  0
  150.2393  140.8444  157.3531 H   0  0  0  0  0  0  0  0  0  0  0  0
  151.4415  142.8358  156.3025 H   0  0  0  0  0  0  0  0  0  0  0  0
  150.1691  143.0234  158.9104 H   0  0  0  0  0  0  0  0  0  0  0  0
  152.4750  144.8164  158.0658 H   0  0  0  0  0  0  0  0  0  0  0  0
  150.8324  145.2395  157.6876 H   0  0  0  0  0  0  0  0  0  0  0  0
  151.2417  146.3443  159.7072 H   0  0  0  0  0  0  0  0  0  0  0  0
  150.1786  145.0311  160.1043 H   0  0  0  0  0  0  0  0  0  0  0  0
  153.1778  145.2233  160.6427 H   0  0  0  0  0  0  0  0  0  0  0  0
  151.8910  145.2743  161.8083 H   0  0  0  0  0  0  0  0  0  0  0  0
  152.8545  143.1211  161.9827 H   0  0  0  0  0  0  0  0  0  0  0  0
  151.3069  142.8523  161.2330 H   0  0  0  0  0  0  0  0  0  0  0  0
  153.8466  143.2289  159.5711 H   0  0  0  0  0  0  0  0  0  0  0  0
  153.5068  141.6957  160.2996 H   0  0  0  0  0  0  0  0  0  0  0  0
  151.6852  141.2298  158.9502 H   0  0  0  0  0  0  0  0  0  0  0  0
  152.8196  141.9875  157.8765 H   0  0  0  0  0  0  0  0  0  0  0  0
  152.4387  140.2814  156.0680 H   0  0  0  0  0  0  0  0  0  0  0  0
  150.0409  143.6427  156.5730 H   0  0  0  0  0  0  0  0  0  0  0  0
  1 15  2  0  0  0  0
  1  2  1  0  0  0  0
  1 16  1  0  0  0  0
  2  3  2  0  0  0  0
  2 17  1  0  0  0  0
  3  4  1  0  0  0  0
  4  5  1  0  0  0  0
  4 15  1  0  0  0  0
  5  6  1  0  0  0  0
  5 18  1  0  0  0  0
  5 19  1  0  0  0  0
  6  7  1  0  0  0  0
  6 20  1  0  0  0  0
  6 21  1  0  0  0  0
  7  8  1  0  0  0  0
  7 22  1  0  0  0  0
  7 37  1  0  0  0  0
  8 14  1  0  0  0  0
  8  9  1  0  0  0  0
  8 23  1  0  0  0  0
  9 10  1  0  0  0  0
  9 24  1  0  0  0  0
  9 25  1  0  0  0  0
 10 11  1  0  0  0  0
 10 26  1  0  0  0  0
 10 27  1  0  0  0  0
 11 12  1  0  0  0  0
 11 28  1  0  0  0  0
 11 29  1  0  0  0  0
 12 13  1  0  0  0  0
 12 30  1  0  0  0  0
 12 31  1  0  0  0  0
 13 14  1  0  0  0  0
 13 32  1  0  0  0  0
 13 33  1  0  0  0  0
 14 34  1  0  0  0  0
 14 35  1  0  0  0  0
 15 36  1  0  0  0  0
M  CHG  1   7   1
M  END
> <s_m_source_file>
AV-unprocessed.smi

> <i_m_source_file_index>
3109

> <i_lp_mmshare_version>
43012

> <i_f3d_flags>
0

> <s_epik_input>
W2NIXTFbY0hdW2NIXW5uMVtDSDJdW0NIMl1bTkhdW0NIXTJbQ0gyXVtDSDJdW0NIMl1bQ0gyXVtDSDJdW0NIMl0y

> <s_epik_cmdline>
J2VwaWtfcHl0aG9uJywgJy1waCcsICc3LjAnLCAnLXRuJywgJzgnLCAnLW1hJywgJzIwMCcsICctbWV0YWxfYmluZGluZycsICctaW1hZScsICc8aW5maWxlLm1hZT4nLCAnLW9tYWUnLCAnPG91dGZpbGUubWFlPic=

> <r_lp_tautomer_probability>
1

> <r_epik_Ionization_Penalty>
0.00143219

> <r_epik_Ionization_Penalty_Charging>
0.00142912

> <r_epik_Ionization_Penalty_Neutral>
3.07097e-06

> <r_epik_State_Penalty>
-0

> <r_epik_Charging_Adjusted_Penalty>
0.00142912

> <i_epik_Tot_Q>
1

> <i_epik_Tot_abs_Q>
1

> <r_epik_Metal_State_Penalty>
-0

> <b_epik_Metal_Only>
0

> <s_lp_Force_Field>
OPLS_2005

> <r_lp_Energy>
18.9936

> <b_lp_Chiralities_Consistent>
1

> <s_lp_Variant>
AV-unprocessed.smi:3109-1

> <Gold.Version>
5.8.1

> <Gold.Id.Protein>
6NUR|6NUR_protein|mol2

> <Gold.PLP.Fitness>
49.4144

> <Gold.PLP.PLP>
-41.2292

> <Gold.PLP.part.hbond>
-1.0000

> <Gold.PLP.part.metal>
0.0000

> <Gold.PLP.part.buried>
-3.3159

> <Gold.PLP.part.nonpolar>
-36.4107

> <Gold.PLP.part.repulsive>
0.2321

> <Gold.PLP.ligand.clash>
0.0000

> <Gold.PLP.ligand.torsion>
0.6755

> <Gold.PLP.Chemscore.Hbond>
2.0000

> <Gold.PLP.Chemscore.CHOScore>
1.1709

> <Gold.PLP.Chemscore.Metal>
0.0000

> <Gold.Chemscore.Hbonds>
donor molecule, donor type, donor heavy atom, donor atom, acceptor molecule, acceptor atom, score
      L1  H     7    37       P1  8028  2.00
      L1  C     2    17       P1  7948  0.29
      L1  C     2    17       P1  7949  0.75

> <Gold.PLP.Chemscore.Internal.Correction>
0.0234

> <Gold.Rescore>
     Score         DG    S(hbond)    S(metal)    S(lipo)     H(rot)  DE(clash)    DE(int)     intcor
     17.78     -18.57       1.00        0.00     115.19       1.46       0.19       0.59       ----

> <Gold.Chemscore.Fitness>
17.7816

> <Gold.Chemscore.DG>
-18.5656

> <Gold.Chemscore.ZeroCoef>
-5.4800

> <Gold.Chemscore.Hbond>
0.9994

> <Gold.Chemscore.Metal>
0.0000

> <Gold.Chemscore.Lipo>
115.1860

> <Gold.Chemscore.Internal_Hbond>
0.0000

> <Gold.Chemscore.DEClash>
0.1901

> <Gold.Chemscore.DEInternal>
0.5940

> <Gold.Chemscore.Rot>
1.4568

> <Gold.Chemscore.Internal.Correction>
   9.000000E+99

> <Gold.Chemscore.Hbonds>
donor molecule, donor type, donor heavy atom, donor atom, acceptor molecule, acceptor atom, score
      L1  H     7    37       P1  8028  1.00

> <Gold.Chemscore.Hbond.Weighted>
-3.3381

> <Gold.Chemscore.Metal.Weighted>
-0.0000

> <Gold.Chemscore.Lipo.Weighted>
-13.4768

> <Gold.Chemscore.Internal_Hbond.Weighted>
0.0000

> <Gold.Chemscore.DEClash.Weighted>
0.1901

> <Gold.Chemscore.DEInternal.Weighted>
0.5940

> <Gold.Chemscore.Rot.Weighted>
3.7293

> <Gold.Chemscore.Internal.Correction.Weighted>
   9.000000E+99

> <Gold.Protein.RotatedTorsions>
[ 6907 6896 6895 6894 ] final  -37.10 input  -60.11 | X-H torsion
[ 7974 7965 7964 7962 ] final -133.39 input  175.53 | X-H torsion
[ 8008 7997 7996 7995 ] final  -67.91 input   59.86 | X-H torsion
[ 10167 10162 10161 10158 ] final  -85.81 input  -65.29 | X-H torsion
[ 10718 10713 10712 10709 ] final   30.84 input   66.30 | X-H torsion
[ 10763 10752 10751 10750 ] final   69.55 input  -60.55 | X-H torsion
[ 11005 11000 10999 10996 ] final  139.19 input  -57.11 | X-H torsion

> <Gold.Protein.ActiveResidues>
 VAL166  LYS551  ARG553  GLY616  TRP617  ASP618  TYR619  PRO620  LYS621  CYS622 
 ASP623  PHE694  ASN695  SER759  ASP760  ASP761  ALA762  ILE779  LEU786  VAL792 
 PHE793  MET794  SER795  GLU796  ALA797  LYS798  CYS799  TRP800  GLU811  SER814 

> <Gold.Protein.RotatedAtoms>
  151.0189  134.9454  159.8048 H   0  0  0  0  0  0  0  0  0  0  0  0  # atno 6907 bound_to 6896
  152.5320  134.2929  159.9060 H   0  0  0  0  0  0  0  0  0  0  0  0  # atno 6908 bound_to 6896
  151.2936  133.4112  159.2669 H   0  0  0  0  0  0  0  0  0  0  0  0  # atno 6909 bound_to 6896
  144.9198  140.6999  143.4972 H   0  0  0  0  0  0  0  0  0  0  0  0  # atno 7974 bound_to 7965
  154.4832  140.0883  156.7425 H   0  0  0  0  0  0  0  0  0  0  0  0  # atno 8008 bound_to 7997
  155.4418  140.3454  155.4272 H   0  0  0  0  0  0  0  0  0  0  0  0  # atno 8009 bound_to 7997
  156.1222  140.1477  156.9176 H   0  0  0  0  0  0  0  0  0  0  0  0  # atno 8010 bound_to 7997
  140.4001  143.2666  151.9153 H   0  0  0  0  0  0  0  0  0  0  0  0  # atno 10167 bound_to 10162
  157.2648  130.7179  149.6472 H   0  0  0  0  0  0  0  0  0  0  0  0  # atno 10718 bound_to 10713
  153.0293  135.5206  154.7305 H   0  0  0  0  0  0  0  0  0  0  0  0  # atno 10763 bound_to 10752
  154.6334  135.2903  155.0191 H   0  0  0  0  0  0  0  0  0  0  0  0  # atno 10764 bound_to 10752
  154.1135  135.6618  153.4942 H   0  0  0  0  0  0  0  0  0  0  0  0  # atno 10765 bound_to 10752
  140.0237  134.9385  157.0525 H   0  0  0  0  0  0  0  0  0  0  0  0  # atno 11005 bound_to 11000
  145.3315  139.1758  143.4534 LP  0  0  0  0  0  0  0  0  0  0  0  0  # atno 17320 bound_to 7965
  146.3199  140.3345  142.8643 LP  0  0  0  0  0  0  0  0  0  0  0  0  # atno 17321 bound_to 7965
  139.4785  144.5642  151.8192 LP  0  0  0  0  0  0  0  0  0  0  0  0  # atno 17342 bound_to 10162
  140.4748  144.1534  150.5923 LP  0  0  0  0  0  0  0  0  0  0  0  0  # atno 17343 bound_to 10162
  155.9663  130.4386  150.5224 LP  0  0  0  0  0  0  0  0  0  0  0  0  # atno 17370 bound_to 10713
  157.3136  131.0668  151.1983 LP  0  0  0  0  0  0  0  0  0  0  0  0  # atno 17371 bound_to 10713
  140.4343  134.1747  155.7170 LP  0  0  0  0  0  0  0  0  0  0  0  0  # atno 17394 bound_to 11000
  141.1790  133.8455  157.1325 LP  0  0  0  0  0  0  0  0  0  0  0  0  # atno 17395 bound_to 11000

$$$$
