AV-unprocessed.smi:2510|AV-procd|sdf|9874|dock8
  -GOLD-   2272013503D 1   1.00000     0.00000
 Structure written by MMmdl.
 48 49  0  0  0  0  0  0  0  0  1 V2000
  149.1827  141.0800  154.3483 C   0  0  0  0  0  0  0  0  0  0  0  0
  148.3970  139.7676  154.1908 C   0  0  0  0  0  0  0  0  0  0  0  0
  148.7172  138.6278  155.2000 C   0  0  0  0  0  0  0  0  0  0  0  0
  148.7286  139.2791  156.6048 C   0  0  0  0  0  0  0  0  0  0  0  0
  147.3964  139.9195  157.0338 C   0  0  0  0  0  0  0  0  0  0  0  0
  147.8798  137.3142  155.1340 C   0  0  1  0  0  0  0  0  0  0  0  0
  147.3225  137.0212  153.8126 N   0  0  0  0  0  0  0  0  0  0  0  0
  146.0141  137.0448  153.5151 C   0  0  0  0  0  0  0  0  0  0  0  0
  145.1387  137.3282  154.3327 O   0  0  0  0  0  0  0  0  0  0  0  0
  145.6323  136.6983  152.0755 C   0  0  0  0  0  0  0  0  0  0  0  0
  144.9126  135.3767  152.0307 C   0  0  0  0  0  0  0  0  0  0  0  0
  144.6418  134.5603  150.8924 C   0  0  0  0  0  0  0  0  0  0  0  0
  143.9827  133.4769  151.4012 C   0  0  0  0  0  0  0  0  0  0  0  0
  143.4374  132.2556  150.7430 C   0  0  0  0  0  0  0  0  0  0  0  0
  143.8874  133.6877  152.7572 N   0  0  0  0  0  0  0  0  0  0  0  0
  144.4489  134.8450  153.1536 N   0  0  0  0  0  0  0  0  0  0  0  0
  149.1538  136.4983  155.4194 C   0  0  1  0  0  0  0  0  0  0  0  0
  149.3533  135.1252  154.7815 C   0  0  0  0  0  0  0  0  0  0  0  0
  149.9373  137.7110  154.8966 C   0  0  2  0  0  0  0  0  0  0  0  0
  151.0869  138.0633  155.6528 O   0  0  0  0  0  0  0  0  0  0  0  0
  151.7398  139.2256  155.1724 C   0  0  0  0  0  0  0  0  0  0  0  0
  143.4471  133.0598  153.4148 H   0  0  0  0  0  0  0  0  0  0  0  0
  148.9216  141.7786  153.5532 H   0  0  0  0  0  0  0  0  0  0  0  0
  150.2588  140.9241  154.3016 H   0  0  0  0  0  0  0  0  0  0  0  0
  148.9517  141.5689  155.2949 H   0  0  0  0  0  0  0  0  0  0  0  0
  147.3423  140.0399  154.2423 H   0  0  0  0  0  0  0  0  0  0  0  0
  148.5399  139.4034  153.1732 H   0  0  0  0  0  0  0  0  0  0  0  0
  148.9963  138.5415  157.3613 H   0  0  0  0  0  0  0  0  0  0  0  0
  149.5149  140.0327  156.6632 H   0  0  0  0  0  0  0  0  0  0  0  0
  147.4762  140.3238  158.0430 H   0  0  0  0  0  0  0  0  0  0  0  0
  146.5808  139.1972  157.0371 H   0  0  0  0  0  0  0  0  0  0  0  0
  147.1104  140.7422  156.3789 H   0  0  0  0  0  0  0  0  0  0  0  0
  147.1541  137.2074  155.9412 H   0  0  0  0  0  0  0  0  0  0  0  0
  147.9749  136.7841  153.0791 H   0  0  0  0  0  0  0  0  0  0  0  0
  145.0154  137.4993  151.6653 H   0  0  0  0  0  0  0  0  0  0  0  0
  146.5333  136.6560  151.4624 H   0  0  0  0  0  0  0  0  0  0  0  0
  144.9024  134.7413  149.8599 H   0  0  0  0  0  0  0  0  0  0  0  0
  143.3939  132.3831  149.6612 H   0  0  0  0  0  0  0  0  0  0  0  0
  142.4294  132.0381  151.0973 H   0  0  0  0  0  0  0  0  0  0  0  0
  144.0659  131.3904  150.9549 H   0  0  0  0  0  0  0  0  0  0  0  0
  149.2790  136.4265  156.5010 H   0  0  0  0  0  0  0  0  0  0  0  0
  149.4184  135.1891  153.6950 H   0  0  0  0  0  0  0  0  0  0  0  0
  148.5274  134.4564  155.0244 H   0  0  0  0  0  0  0  0  0  0  0  0
  150.2696  134.6533  155.1350 H   0  0  0  0  0  0  0  0  0  0  0  0
  150.1577  137.6012  153.8345 H   0  0  0  0  0  0  0  0  0  0  0  0
  152.5768  139.4694  155.8266 H   0  0  0  0  0  0  0  0  0  0  0  0
  151.0644  140.0821  155.1574 H   0  0  0  0  0  0  0  0  0  0  0  0
  152.1365  139.0726  154.1690 H   0  0  0  0  0  0  0  0  0  0  0  0
  1  2  1  0  0  0  0
  1 23  1  0  0  0  0
  1 24  1  0  0  0  0
  1 25  1  0  0  0  0
  2  3  1  0  0  0  0
  2 26  1  0  0  0  0
  2 27  1  0  0  0  0
  3 19  1  0  0  0  0
  3  4  1  0  0  0  0
  3  6  1  0  0  0  0
  4  5  1  0  0  0  0
  4 28  1  0  0  0  0
  4 29  1  0  0  0  0
  5 30  1  0  0  0  0
  5 31  1  0  0  0  0
  5 32  1  0  0  0  0
  6  7  1  0  0  0  0
  6 17  1  0  0  0  0
  6 33  1  0  0  0  0
  7  8  1  0  0  0  0
  7 34  1  0  0  0  0
  8  9  2  0  0  0  0
  8 10  1  0  0  0  0
 10 11  1  0  0  0  0
 10 35  1  0  0  0  0
 10 36  1  0  0  0  0
 11 16  2  0  0  0  0
 11 12  1  0  0  0  0
 12 13  2  0  0  0  0
 12 37  1  0  0  0  0
 13 14  1  0  0  0  0
 13 15  1  0  0  0  0
 14 38  1  0  0  0  0
 14 39  1  0  0  0  0
 14 40  1  0  0  0  0
 15 22  1  0  0  0  0
 15 16  1  0  0  0  0
 17 18  1  0  0  0  0
 17 19  1  0  0  0  0
 17 41  1  0  0  0  0
 18 42  1  0  0  0  0
 18 43  1  0  0  0  0
 18 44  1  0  0  0  0
 19 20  1  0  0  0  0
 19 45  1  0  0  0  0
 20 21  1  0  0  0  0
 21 46  1  0  0  0  0
 21 47  1  0  0  0  0
 21 48  1  0  0  0  0
M  END
> <s_m_source_file>
AV-unprocessed.smi

> <i_m_source_file_index>
2510

> <i_lp_mmshare_version>
43012

> <i_f3d_flags>
0

> <s_epik_input>
W0NIM11PW0NAQEhdMVtDQEhdKFtDSDNdKVtDQEBIXShDMShbQ0gyXVtDSDNdKVtDSDJdW0NIM10pW05IXUMoPU8pW0NIMl1jMltjSF1jKFtDSDNdKVtuSF1uMg==

> <s_epik_cmdline>
J2VwaWtfcHl0aG9uJywgJy1waCcsICc3LjAnLCAnLXRuJywgJzgnLCAnLW1hJywgJzIwMCcsICctbWV0YWxfYmluZGluZycsICctaW1hZScsICc8aW5maWxlLm1hZT4nLCAnLW9tYWUnLCAnPG91dGZpbGUubWFlPic=

> <r_lp_tautomer_probability>
0.5

> <r_epik_Ionization_Penalty>
9.73156e-05

> <r_epik_Ionization_Penalty_Charging>
0

> <r_epik_Ionization_Penalty_Neutral>
9.73156e-05

> <r_epik_State_Penalty>
0.41068

> <r_epik_Charging_Adjusted_Penalty>
0.41068

> <i_epik_Tot_Q>
0

> <i_epik_Tot_abs_Q>
0

> <r_epik_Metal_State_Penalty>
0.410699

> <b_epik_Metal_Only>
0

> <s_lp_Force_Field>
OPLS_2005

> <r_lp_Energy>
25.9502

> <b_lp_Chiralities_Consistent>
1

> <s_lp_Variant>
AV-unprocessed.smi:2510-5

> <Gold.Version>
5.8.1

> <Gold.Id.Protein>
6NUR|6NUR_protein|mol2

> <Gold.PLP.Fitness>
32.5276

> <Gold.PLP.PLP>
-27.5441

> <Gold.PLP.part.hbond>
-1.9493

> <Gold.PLP.part.metal>
0.0000

> <Gold.PLP.part.buried>
-3.0660

> <Gold.PLP.part.nonpolar>
-23.7958

> <Gold.PLP.part.repulsive>
0.1653

> <Gold.PLP.ligand.clash>
0.0000

> <Gold.PLP.ligand.torsion>
0.7733

> <Gold.PLP.Chemscore.Hbond>
1.9913

> <Gold.PLP.Chemscore.CHOScore>
0.0000

> <Gold.PLP.Chemscore.Metal>
0.0000

> <Gold.Chemscore.Hbonds>
donor molecule, donor type, donor heavy atom, donor atom, acceptor molecule, acceptor atom, score
      L1  H     7    34       P1  7948  1.00
      L1  H    15    22       P1 10957  0.99

> <Gold.PLP.Chemscore.Internal.Correction>
0.5563

> <Gold.Rescore>
     Score         DG    S(hbond)    S(metal)    S(lipo)     H(rot)  DE(clash)    DE(int)     intcor
     13.65     -15.94       1.97        0.00      72.79       1.81       0.15       2.13       ----

> <Gold.Chemscore.Fitness>
13.6547

> <Gold.Chemscore.DG>
-15.9353

> <Gold.Chemscore.ZeroCoef>
-5.4800

> <Gold.Chemscore.Hbond>
1.9679

> <Gold.Chemscore.Metal>
0.0000

> <Gold.Chemscore.Lipo>
72.7914

> <Gold.Chemscore.Internal_Hbond>
0.0000

> <Gold.Chemscore.DEClash>
0.1529

> <Gold.Chemscore.DEInternal>
2.1277

> <Gold.Chemscore.Rot>
1.8102

> <Gold.Chemscore.Internal.Correction>
   9.000000E+99

> <Gold.Chemscore.Hbonds>
donor molecule, donor type, donor heavy atom, donor atom, acceptor molecule, acceptor atom, score
      L1  H     7    34       P1  7948  1.00
      L1  H    15    22       P1 10957  0.79

> <Gold.Chemscore.Hbond.Weighted>
-6.5728

> <Gold.Chemscore.Metal.Weighted>
-0.0000

> <Gold.Chemscore.Lipo.Weighted>
-8.5166

> <Gold.Chemscore.Internal_Hbond.Weighted>
0.0000

> <Gold.Chemscore.DEClash.Weighted>
0.1529

> <Gold.Chemscore.DEInternal.Weighted>
2.1277

> <Gold.Chemscore.Rot.Weighted>
4.6341

> <Gold.Chemscore.Internal.Correction.Weighted>
   9.000000E+99

> <Gold.Protein.RotatedTorsions>
[ 6907 6896 6895 6894 ] final  -95.76 input  -60.11 | X-H torsion
[ 7974 7965 7964 7962 ] final   47.86 input  175.53 | X-H torsion
[ 8008 7997 7996 7995 ] final   95.04 input   59.86 | X-H torsion
[ 10167 10162 10161 10158 ] final   63.04 input  -65.29 | X-H torsion
[ 10718 10713 10712 10709 ] final -171.73 input   66.30 | X-H torsion
[ 10763 10752 10751 10750 ] final   65.06 input  -60.55 | X-H torsion
[ 11005 11000 10999 10996 ] final   90.48 input  -57.11 | X-H torsion

> <Gold.Protein.ActiveResidues>
 VAL166  LYS551  ARG553  GLY616  TRP617  ASP618  TYR619  PRO620  LYS621  CYS622 
 ASP623  PHE694  ASN695  SER759  ASP760  ASP761  ALA762  ILE779  LEU786  VAL792 
 PHE793  MET794  SER795  GLU796  ALA797  LYS798  CYS799  TRP800  GLU811  SER814 

> <Gold.Protein.RotatedAtoms>
  150.6971  134.1608  159.4175 H   0  0  0  0  0  0  0  0  0  0  0  0  # atno 6907 bound_to 6896
  151.9589  135.0131  160.0556 H   0  0  0  0  0  0  0  0  0  0  0  0  # atno 6908 bound_to 6896
  152.1944  133.4761  159.5062 H   0  0  0  0  0  0  0  0  0  0  0  0  # atno 6909 bound_to 6896
  146.0258  139.4705  142.9868 H   0  0  0  0  0  0  0  0  0  0  0  0  # atno 7974 bound_to 7965
  156.0645  140.3292  155.7502 H   0  0  0  0  0  0  0  0  0  0  0  0  # atno 8008 bound_to 7997
  155.5402  140.0601  157.2889 H   0  0  0  0  0  0  0  0  0  0  0  0  # atno 8009 bound_to 7997
  154.4498  140.1912  156.0572 H   0  0  0  0  0  0  0  0  0  0  0  0  # atno 8010 bound_to 7997
  140.1373  144.4586  150.6830 H   0  0  0  0  0  0  0  0  0  0  0  0  # atno 10167 bound_to 10162
  156.7451  130.9357  151.3112 H   0  0  0  0  0  0  0  0  0  0  0  0  # atno 10718 bound_to 10713
  153.0081  135.5370  154.6607 H   0  0  0  0  0  0  0  0  0  0  0  0  # atno 10763 bound_to 10752
  154.5816  135.2850  155.0729 H   0  0  0  0  0  0  0  0  0  0  0  0  # atno 10764 bound_to 10752
  154.1855  135.6509  153.5098 H   0  0  0  0  0  0  0  0  0  0  0  0  # atno 10765 bound_to 10752
  139.8855  134.8616  156.3291 H   0  0  0  0  0  0  0  0  0  0  0  0  # atno 11005 bound_to 11000
  145.7120  141.0103  143.1448 LP  0  0  0  0  0  0  0  0  0  0  0  0  # atno 17320 bound_to 7965
  144.7009  139.8768  143.7444 LP  0  0  0  0  0  0  0  0  0  0  0  0  # atno 17321 bound_to 7965
  140.6781  143.2314  151.5454 LP  0  0  0  0  0  0  0  0  0  0  0  0  # atno 17342 bound_to 10162
  139.5489  144.2447  152.1494 LP  0  0  0  0  0  0  0  0  0  0  0  0  # atno 17343 bound_to 10162
  157.6801  130.9132  150.0247 LP  0  0  0  0  0  0  0  0  0  0  0  0  # atno 17370 bound_to 10713
  156.1438  130.3642  149.9541 LP  0  0  0  0  0  0  0  0  0  0  0  0  # atno 17371 bound_to 10713
  140.9735  133.7312  156.0568 LP  0  0  0  0  0  0  0  0  0  0  0  0  # atno 17394 bound_to 11000
  140.7841  134.3692  157.5480 LP  0  0  0  0  0  0  0  0  0  0  0  0  # atno 17395 bound_to 11000

$$$$
