AV-unprocessed.smi:2948|AV-procd|sdf|11283|dock2
  -GOLD-   2272016173D 1   1.00000     0.00000
 Structure written by MMmdl.
 32 33  0  0  0  0  0  0  0  0  1 V2000
  148.6296  139.1618  154.1010 C   0  0  0  0  0  0  0  0  0  0  0  0
  150.1033  139.0829  154.5050 C   0  0  0  0  0  0  0  0  0  0  0  0
  150.5883  140.3981  154.7078 O   0  0  0  0  0  0  0  0  0  0  0  0
  151.3733  140.5268  155.8816 C   0  0  0  0  0  0  0  0  0  0  0  0
  150.5037  141.0486  157.0350 C   0  0  0  0  0  0  0  0  0  0  0  0
  151.3039  141.4596  158.1807 N   0  0  0  0  0  0  0  0  0  0  0  0
  152.1487  140.7165  158.9439 C   0  0  0  0  0  0  0  0  0  0  0  0
  152.4003  139.2552  158.7002 C   0  0  0  0  0  0  0  0  0  0  0  0
  153.7241  138.9842  158.2892 O   0  0  0  0  0  0  0  0  0  0  0  0
  152.7433  141.3690  159.9450 N   0  0  0  0  0  0  0  0  0  0  0  0
  152.2559  142.6529  159.8091 C   0  0  0  0  0  0  0  0  0  0  0  0
  152.5155  143.8186  160.5650 C   0  0  0  0  0  0  0  0  0  0  0  0
  151.8918  145.0387  160.2318 C   0  0  0  0  0  0  0  0  0  0  0  0
  151.0015  145.1104  159.1409 C   0  0  0  0  0  0  0  0  0  0  0  0
  150.7289  143.9604  158.3752 C   0  0  0  0  0  0  0  0  0  0  0  0
  151.3536  142.7445  158.7127 C   0  0  0  0  0  0  0  0  0  0  0  0
  148.2161  138.1665  153.9376 H   0  0  0  0  0  0  0  0  0  0  0  0
  148.5062  139.7317  153.1798 H   0  0  0  0  0  0  0  0  0  0  0  0
  148.0375  139.6477  154.8771 H   0  0  0  0  0  0  0  0  0  0  0  0
  150.2074  138.4963  155.4190 H   0  0  0  0  0  0  0  0  0  0  0  0
  150.6794  138.5859  153.7233 H   0  0  0  0  0  0  0  0  0  0  0  0
  151.8014  139.5595  156.1499 H   0  0  0  0  0  0  0  0  0  0  0  0
  152.2029  141.2124  155.7042 H   0  0  0  0  0  0  0  0  0  0  0  0
  149.9192  141.9044  156.6961 H   0  0  0  0  0  0  0  0  0  0  0  0
  149.7762  140.2992  157.3444 H   0  0  0  0  0  0  0  0  0  0  0  0
  152.1950  138.7071  159.6199 H   0  0  0  0  0  0  0  0  0  0  0  0
  151.7355  138.8588  157.9357 H   0  0  0  0  0  0  0  0  0  0  0  0
  154.2651  138.8973  159.0588 H   0  0  0  0  0  0  0  0  0  0  0  0
  153.1968  143.7740  161.4016 H   0  0  0  0  0  0  0  0  0  0  0  0
  152.0984  145.9236  160.8156 H   0  0  0  0  0  0  0  0  0  0  0  0
  150.5287  146.0490  158.8918 H   0  0  0  0  0  0  0  0  0  0  0  0
  150.0489  144.0127  157.5382 H   0  0  0  0  0  0  0  0  0  0  0  0
  1  2  1  0  0  0  0
  1 17  1  0  0  0  0
  1 18  1  0  0  0  0
  1 19  1  0  0  0  0
  2  3  1  0  0  0  0
  2 20  1  0  0  0  0
  2 21  1  0  0  0  0
  3  4  1  0  0  0  0
  4  5  1  0  0  0  0
  4 22  1  0  0  0  0
  4 23  1  0  0  0  0
  5  6  1  0  0  0  0
  5 24  1  0  0  0  0
  5 25  1  0  0  0  0
  6 16  1  0  0  0  0
  6  7  1  0  0  0  0
  7  8  1  0  0  0  0
  7 10  2  0  0  0  0
  8  9  1  0  0  0  0
  8 26  1  0  0  0  0
  8 27  1  0  0  0  0
  9 28  1  0  0  0  0
 10 11  1  0  0  0  0
 11 16  2  0  0  0  0
 11 12  1  0  0  0  0
 12 13  2  0  0  0  0
 12 29  1  0  0  0  0
 13 14  1  0  0  0  0
 13 30  1  0  0  0  0
 14 15  2  0  0  0  0
 14 31  1  0  0  0  0
 15 16  1  0  0  0  0
 15 32  1  0  0  0  0
M  END
> <s_m_source_file>
AV-unprocessed.smi

> <i_m_source_file_index>
2948

> <i_lp_mmshare_version>
43012

> <i_f3d_flags>
0

> <s_epik_input>
W0NIM11bQ0gyXU9bQ0gyXVtDSDJdbihjKG4xKVtDSDJdW09IXSljKGMxMilbY0hdW2NIXVtjSF1bY0hdMg==

> <s_epik_cmdline>
J2VwaWtfcHl0aG9uJywgJy1waCcsICc3LjAnLCAnLXRuJywgJzgnLCAnLW1hJywgJzIwMCcsICctbWV0YWxfYmluZGluZycsICctaW1hZScsICc8aW5maWxlLm1hZT4nLCAnLW9tYWUnLCAnPG91dGZpbGUubWFlPic=

> <r_epik_Ionization_Penalty>
0.0599051

> <r_epik_Ionization_Penalty_Charging>
0

> <r_epik_Ionization_Penalty_Neutral>
0.0599051

> <r_epik_State_Penalty>
0.0518308

> <r_epik_Charging_Adjusted_Penalty>
0.0518308

> <i_epik_Tot_Q>
0

> <i_epik_Tot_abs_Q>
0

> <r_epik_Metal_State_Penalty>
5.4163e-05

> <b_epik_Metal_Only>
0

> <s_lp_Force_Field>
OPLS_2005

> <r_lp_Energy>
7.3767

> <b_lp_Chiralities_Consistent>
1

> <s_lp_Variant>
AV-unprocessed.smi:2948-1

> <Gold.Version>
5.8.1

> <Gold.Id.Protein>
6NUR|6NUR_protein|mol2

> <Gold.PLP.Fitness>
42.1236

> <Gold.PLP.PLP>
-37.3800

> <Gold.PLP.part.hbond>
-2.0000

> <Gold.PLP.part.metal>
0.0000

> <Gold.PLP.part.buried>
-5.3353

> <Gold.PLP.part.nonpolar>
-30.4056

> <Gold.PLP.part.repulsive>
0.0885

> <Gold.PLP.ligand.clash>
0.0000

> <Gold.PLP.ligand.torsion>
0.6426

> <Gold.PLP.Chemscore.Hbond>
2.0000

> <Gold.PLP.Chemscore.CHOScore>
0.0000

> <Gold.PLP.Chemscore.Metal>
0.0000

> <Gold.Chemscore.Hbonds>
donor molecule, donor type, donor heavy atom, donor atom, acceptor molecule, acceptor atom, score
      P1  H  7989  7998       L1     3  1.00
      P1  H  7997  8009       L1     9  1.00

> <Gold.PLP.Chemscore.Internal.Correction>
0.0287

> <Gold.Rescore>
     Score         DG    S(hbond)    S(metal)    S(lipo)     H(rot)  DE(clash)    DE(int)     intcor
     17.10     -17.76       1.90        0.00      99.35       2.22       0.04       0.62       ----

> <Gold.Chemscore.Fitness>
17.1005

> <Gold.Chemscore.DG>
-17.7615

> <Gold.Chemscore.ZeroCoef>
-5.4800

> <Gold.Chemscore.Hbond>
1.9001

> <Gold.Chemscore.Metal>
0.0000

> <Gold.Chemscore.Lipo>
99.3478

> <Gold.Chemscore.Internal_Hbond>
0.0000

> <Gold.Chemscore.DEClash>
0.0374

> <Gold.Chemscore.DEInternal>
0.6236

> <Gold.Chemscore.Rot>
2.2221

> <Gold.Chemscore.Internal.Correction>
   9.000000E+99

> <Gold.Chemscore.Hbonds>
donor molecule, donor type, donor heavy atom, donor atom, acceptor molecule, acceptor atom, score
      P1  H  7989  7998       L1     3  0.32
      P1  H  7997  8009       L1     9  0.65

> <Gold.Chemscore.Hbond.Weighted>
-6.3464

> <Gold.Chemscore.Metal.Weighted>
-0.0000

> <Gold.Chemscore.Lipo.Weighted>
-11.6237

> <Gold.Chemscore.Internal_Hbond.Weighted>
0.0000

> <Gold.Chemscore.DEClash.Weighted>
0.0374

> <Gold.Chemscore.DEInternal.Weighted>
0.6236

> <Gold.Chemscore.Rot.Weighted>
5.6886

> <Gold.Chemscore.Internal.Correction.Weighted>
   9.000000E+99

> <Gold.Protein.RotatedTorsions>
[ 6907 6896 6895 6894 ] final  -77.97 input  -60.11 | X-H torsion
[ 7974 7965 7964 7962 ] final   85.86 input  175.53 | X-H torsion
[ 8008 7997 7996 7995 ] final  151.05 input   59.86 | X-H torsion
[ 10167 10162 10161 10158 ] final  120.18 input  -65.29 | X-H torsion
[ 10718 10713 10712 10709 ] final -115.65 input   66.30 | X-H torsion
[ 10763 10752 10751 10750 ] final  -80.56 input  -60.55 | X-H torsion
[ 11005 11000 10999 10996 ] final  175.34 input  -57.11 | X-H torsion

> <Gold.Protein.ActiveResidues>
 VAL166  LYS551  ARG553  GLY616  TRP617  ASP618  TYR619  PRO620  LYS621  CYS622 
 ASP623  PHE694  ASN695  SER759  ASP760  ASP761  ALA762  ILE779  LEU786  VAL792 
 PHE793  MET794  SER795  GLU796  ALA797  LYS798  CYS799  TRP800  GLU811  SER814 

> <Gold.Protein.RotatedAtoms>
  150.6984  134.4342  159.5262 H   0  0  0  0  0  0  0  0  0  0  0  0  # atno 6907 bound_to 6896
  152.2063  134.8539  160.0511 H   0  0  0  0  0  0  0  0  0  0  0  0  # atno 6908 bound_to 6896
  151.9441  133.3611  159.4012 H   0  0  0  0  0  0  0  0  0  0  0  0  # atno 6909 bound_to 6896
  145.5799  139.2324  143.2359 H   0  0  0  0  0  0  0  0  0  0  0  0  # atno 7974 bound_to 7965
  156.2690  140.2058  156.6114 H   0  0  0  0  0  0  0  0  0  0  0  0  # atno 8008 bound_to 7997
  154.6829  140.0538  157.0308 H   0  0  0  0  0  0  0  0  0  0  0  0  # atno 8009 bound_to 7997
  155.0975  140.3202  155.4559 H   0  0  0  0  0  0  0  0  0  0  0  0  # atno 8010 bound_to 7997
  139.5998  144.7053  151.3089 H   0  0  0  0  0  0  0  0  0  0  0  0  # atno 10167 bound_to 10162
  156.0910  130.6092  150.8933 H   0  0  0  0  0  0  0  0  0  0  0  0  # atno 10718 bound_to 10713
  154.5527  135.5657  153.6936 H   0  0  0  0  0  0  0  0  0  0  0  0  # atno 10763 bound_to 10752
  152.9994  135.6254  154.2352 H   0  0  0  0  0  0  0  0  0  0  0  0  # atno 10764 bound_to 10752
  154.2288  135.2866  155.2877 H   0  0  0  0  0  0  0  0  0  0  0  0  # atno 10765 bound_to 10752
  140.3611  134.7112  157.4332 H   0  0  0  0  0  0  0  0  0  0  0  0  # atno 11005 bound_to 11000
  146.1724  140.6625  142.9227 LP  0  0  0  0  0  0  0  0  0  0  0  0  # atno 17320 bound_to 7965
  144.7399  140.4912  143.6877 LP  0  0  0  0  0  0  0  0  0  0  0  0  # atno 17321 bound_to 7965
  140.7241  143.7054  150.7812 LP  0  0  0  0  0  0  0  0  0  0  0  0  # atno 17342 bound_to 10162
  140.0628  143.5138  152.2619 LP  0  0  0  0  0  0  0  0  0  0  0  0  # atno 17343 bound_to 10162
  157.6059  131.0939  150.8880 LP  0  0  0  0  0  0  0  0  0  0  0  0  # atno 17370 bound_to 10713
  156.9029  130.5253  149.5282 LP  0  0  0  0  0  0  0  0  0  0  0  0  # atno 17371 bound_to 10713
  140.0626  134.5975  155.8732 LP  0  0  0  0  0  0  0  0  0  0  0  0  # atno 17394 bound_to 11000
  141.1984  133.6601  156.5788 LP  0  0  0  0  0  0  0  0  0  0  0  0  # atno 17395 bound_to 11000

$$$$
