AV-unprocessed.smi:160|AV-procd|sdf|1348|dock8
  -GOLD-   2262019 53D 1   1.00000     0.00000
 Structure written by MMmdl.
 29 30  0  0  0  0  0  0  0  0  1 V2000
  148.0583  130.8926  152.7457 N   0  0  0  0  0  0  0  0  0  0  0  0
  147.5796  132.0483  153.2178 C   0  0  0  0  0  0  0  0  0  0  0  0
  147.7695  132.4163  154.3761 O   0  0  0  0  0  0  0  0  0  0  0  0
  146.7974  132.8882  152.2463 C   0  0  0  0  0  0  0  0  0  0  0  0
  146.7240  132.5550  150.9235 N   0  0  0  0  0  0  0  0  0  0  0  0
  145.9573  133.5514  150.4999 C   0  0  0  0  0  0  0  0  0  0  0  0
  145.6001  134.4137  151.4571 N   0  0  0  0  0  0  0  0  0  0  0  0
  144.7523  135.6479  151.3664 C   0  0  1  0  0  0  0  0  0  0  0  0
  143.4470  135.3160  151.7355 O   0  0  0  0  0  0  0  0  0  0  0  0
  143.1943  135.7662  153.0624 C   0  0  2  0  0  0  0  0  0  0  0  0
  141.6847  135.8646  153.3430 C   0  0  0  0  0  0  0  0  0  0  0  0
  141.1692  134.5904  153.6652 O   0  0  0  0  0  0  0  0  0  0  0  0
  143.9696  137.0899  153.1158 C   0  0  2  0  0  0  0  0  0  0  0  0
  143.2298  138.1373  152.5139 O   0  0  0  0  0  0  0  0  0  0  0  0
  145.2232  136.7902  152.3003 C   0  0  1  0  0  0  0  0  0  0  0  0
  146.2939  136.4405  153.1608 O   0  0  0  0  0  0  0  0  0  0  0  0
  146.1495  133.9913  152.6240 N   0  0  0  0  0  0  0  0  0  0  0  0
  144.7798  135.9171  150.3099 H   0  0  0  0  0  0  0  0  0  0  0  0
  143.6563  135.0761  153.7707 H   0  0  0  0  0  0  0  0  0  0  0  0
  144.1960  137.3855  154.1414 H   0  0  0  0  0  0  0  0  0  0  0  0
  145.5355  137.6457  151.6996 H   0  0  0  0  0  0  0  0  0  0  0  0
  148.5944  130.2854  153.3480 H   0  0  0  0  0  0  0  0  0  0  0  0
  147.8814  130.6367  151.7849 H   0  0  0  0  0  0  0  0  0  0  0  0
  145.6516  133.6570  149.4693 H   0  0  0  0  0  0  0  0  0  0  0  0
  141.5039  136.5146  154.1997 H   0  0  0  0  0  0  0  0  0  0  0  0
  141.1466  136.2861  152.4934 H   0  0  0  0  0  0  0  0  0  0  0  0
  140.6498  134.6652  154.4511 H   0  0  0  0  0  0  0  0  0  0  0  0
  143.5374  138.9607  152.8608 H   0  0  0  0  0  0  0  0  0  0  0  0
  147.0168  136.1360  152.6340 H   0  0  0  0  0  0  0  0  0  0  0  0
  1  2  1  0  0  0  0
  1 22  1  0  0  0  0
  1 23  1  0  0  0  0
  2  3  2  0  0  0  0
  2  4  1  0  0  0  0
  4 17  2  0  0  0  0
  4  5  1  0  0  0  0
  5  6  2  0  0  0  0
  6  7  1  0  0  0  0
  6 24  1  0  0  0  0
  7  8  1  0  0  0  0
  7 17  1  0  0  0  0
  8 18  1  0  0  0  0
  8 15  1  0  0  0  0
  8  9  1  0  0  0  0
  9 10  1  0  0  0  0
 10 19  1  0  0  0  0
 10 11  1  0  0  0  0
 10 13  1  0  0  0  0
 11 12  1  0  0  0  0
 11 25  1  0  0  0  0
 11 26  1  0  0  0  0
 12 27  1  0  0  0  0
 13 20  1  0  0  0  0
 13 14  1  0  0  0  0
 13 15  1  0  0  0  0
 14 28  1  0  0  0  0
 15 21  1  0  0  0  0
 15 16  1  0  0  0  0
 16 29  1  0  0  0  0
M  END
> <s_m_source_file>
AV-unprocessed.smi

> <i_m_source_file_index>
160

> <i_lp_mmshare_version>
43012

> <i_f3d_flags>
0

> <s_epik_input>
W05IMl1DKD1PKWMxbltjSF1uKG4xKVtDQEBIXTJPW0NASF0oW0NIMl1bT0hdKVtDQEBIXShbT0hdKVtDQEhdMltPSF0=

> <s_epik_cmdline>
J2VwaWtfcHl0aG9uJywgJy1waCcsICc3LjAnLCAnLXRuJywgJzgnLCAnLW1hJywgJzIwMCcsICctbWV0YWxfYmluZGluZycsICctaW1hZScsICc8aW5maWxlLm1hZT4nLCAnLW9tYWUnLCAnPG91dGZpbGUubWFlPic=

> <r_lp_tautomer_probability>
1

> <r_epik_Ionization_Penalty>
1.06932e-05

> <r_epik_Ionization_Penalty_Charging>
0

> <r_epik_Ionization_Penalty_Neutral>
1.06932e-05

> <r_epik_State_Penalty>
-0

> <r_epik_Charging_Adjusted_Penalty>
0

> <i_epik_Tot_Q>
0

> <i_epik_Tot_abs_Q>
0

> <r_epik_Metal_State_Penalty>
0.0142097

> <b_epik_Metal_Only>
0

> <s_epik_Chemistry_Notes>
This compound contains an acetal/aminal-like group ( X-CH(R)-Y where X, Y are N, S, or O) that may be acid/base labile, releasing an aldehyde.

> <s_lp_Force_Field>
OPLS_2005

> <r_lp_Energy>
42.6819

> <b_lp_Chiralities_Consistent>
1

> <s_lp_Variant>
AV-unprocessed.smi:160-6

> <Gold.Version>
5.8.1

> <Gold.Id.Protein>
6NUR|6NUR_protein|mol2

> <Gold.PLP.Fitness>
39.5501

> <Gold.PLP.PLP>
-26.6093

> <Gold.PLP.part.hbond>
-5.5523

> <Gold.PLP.part.metal>
0.0000

> <Gold.PLP.part.buried>
-5.3236

> <Gold.PLP.part.nonpolar>
-17.1895

> <Gold.PLP.part.repulsive>
2.2444

> <Gold.PLP.ligand.clash>
0.0000

> <Gold.PLP.ligand.torsion>
0.8736

> <Gold.PLP.Chemscore.Hbond>
3.8945

> <Gold.PLP.Chemscore.CHOScore>
0.9995

> <Gold.PLP.Chemscore.Metal>
0.0000

> <Gold.Chemscore.Hbonds>
donor molecule, donor type, donor heavy atom, donor atom, acceptor molecule, acceptor atom, score
      L1  H     1    23       P1 10747  0.58
      L1  H    12    27       P1 11000  0.36
      L1  H    14    28       P1 10175  0.78
      L1  H    16    29       P1  7948  0.88
      L1  C     6    24       P1  7921  1.00

> <Gold.PLP.Chemscore.Internal.Correction>
0.0061

> <Gold.Rescore>
     Score         DG    S(hbond)    S(metal)    S(lipo)     H(rot)  DE(clash)    DE(int)     intcor
      4.93      -8.95       3.52        0.00      18.02       4.06       1.34       2.69       ----

> <Gold.Chemscore.Fitness>
4.9289

> <Gold.Chemscore.DG>
-8.9507

> <Gold.Chemscore.ZeroCoef>
-5.4800

> <Gold.Chemscore.Hbond>
3.5198

> <Gold.Chemscore.Metal>
0.0000

> <Gold.Chemscore.Lipo>
18.0181

> <Gold.Chemscore.Internal_Hbond>
0.0000

> <Gold.Chemscore.DEClash>
1.3358

> <Gold.Chemscore.DEInternal>
2.6859

> <Gold.Chemscore.Rot>
4.0600

> <Gold.Chemscore.Internal.Correction>
   9.000000E+99

> <Gold.Chemscore.Hbonds>
donor molecule, donor type, donor heavy atom, donor atom, acceptor molecule, acceptor atom, score
      L1  H     1    23       P1 10747  0.58
      L1  H    12    27       P1 11000  0.31
      L1  H    14    28       P1 10175  0.73
      L1  H    16    29       P1  7948  0.84

> <Gold.Chemscore.Hbond.Weighted>
-11.7562

> <Gold.Chemscore.Metal.Weighted>
-0.0000

> <Gold.Chemscore.Lipo.Weighted>
-2.1081

> <Gold.Chemscore.Internal_Hbond.Weighted>
0.0000

> <Gold.Chemscore.DEClash.Weighted>
1.3358

> <Gold.Chemscore.DEInternal.Weighted>
2.6859

> <Gold.Chemscore.Rot.Weighted>
10.3936

> <Gold.Chemscore.Internal.Correction.Weighted>
   9.000000E+99

> <Gold.Protein.RotatedTorsions>
[ 6907 6896 6895 6894 ] final   78.40 input  -60.11 | X-H torsion
[ 7974 7965 7964 7962 ] final  -11.27 input  175.53 | X-H torsion
[ 8008 7997 7996 7995 ] final  168.35 input   59.86 | X-H torsion
[ 10167 10162 10161 10158 ] final   29.08 input  -65.29 | X-H torsion
[ 10718 10713 10712 10709 ] final  137.47 input   66.30 | X-H torsion
[ 10763 10752 10751 10750 ] final  -46.64 input  -60.55 | X-H torsion
[ 11005 11000 10999 10996 ] final -108.46 input  -57.11 | X-H torsion

> <Gold.Protein.ActiveResidues>
 VAL166  LYS551  ARG553  GLY616  TRP617  ASP618  TYR619  PRO620  LYS621  CYS622 
 ASP623  PHE694  ASN695  SER759  ASP760  ASP761  ALA762  ILE779  LEU786  VAL792 
 PHE793  MET794  SER795  GLU796  ALA797  LYS798  CYS799  TRP800  GLU811  SER814 

> <Gold.Protein.RotatedAtoms>
  152.5158  134.3670  159.9304 H   0  0  0  0  0  0  0  0  0  0  0  0  # atno 6907 bound_to 6896
  151.3623  133.3878  159.2698 H   0  0  0  0  0  0  0  0  0  0  0  0  # atno 6908 bound_to 6896
  150.9642  134.9044  159.7807 H   0  0  0  0  0  0  0  0  0  0  0  0  # atno 6909 bound_to 6896
  146.2193  140.2887  142.8367 H   0  0  0  0  0  0  0  0  0  0  0  0  # atno 7974 bound_to 7965
  156.1554  140.1592  156.8701 H   0  0  0  0  0  0  0  0  0  0  0  0  # atno 8008 bound_to 7997
  154.5110  140.0801  156.8025 H   0  0  0  0  0  0  0  0  0  0  0  0  # atno 8009 bound_to 7997
  155.3813  140.3405  155.4249 H   0  0  0  0  0  0  0  0  0  0  0  0  # atno 8010 bound_to 7997
  140.4797  144.0635  150.6261 H   0  0  0  0  0  0  0  0  0  0  0  0  # atno 10167 bound_to 10162
  157.4357  131.1053  151.0200 H   0  0  0  0  0  0  0  0  0  0  0  0  # atno 10718 bound_to 10713
  154.0482  135.6634  153.4797 H   0  0  0  0  0  0  0  0  0  0  0  0  # atno 10763 bound_to 10752
  153.0474  135.5106  154.7776 H   0  0  0  0  0  0  0  0  0  0  0  0  # atno 10764 bound_to 10752
  154.6774  135.3039  154.9626 H   0  0  0  0  0  0  0  0  0  0  0  0  # atno 10765 bound_to 10752
  141.0900  133.9071  157.2097 H   0  0  0  0  0  0  0  0  0  0  0  0  # atno 11005 bound_to 11000
  144.9143  140.7794  143.5788 LP  0  0  0  0  0  0  0  0  0  0  0  0  # atno 17320 bound_to 7965
  145.2819  139.1915  143.4786 LP  0  0  0  0  0  0  0  0  0  0  0  0  # atno 17321 bound_to 7965
  140.3873  143.2771  152.0101 LP  0  0  0  0  0  0  0  0  0  0  0  0  # atno 17342 bound_to 10162
  139.4831  144.6106  151.7441 LP  0  0  0  0  0  0  0  0  0  0  0  0  # atno 17343 bound_to 10162
  157.1081  130.6010  149.5475 LP  0  0  0  0  0  0  0  0  0  0  0  0  # atno 17370 bound_to 10713
  155.9929  130.4989  150.7361 LP  0  0  0  0  0  0  0  0  0  0  0  0  # atno 17371 bound_to 10713
  139.9724  135.0124  156.9546 LP  0  0  0  0  0  0  0  0  0  0  0  0  # atno 17394 bound_to 11000
  140.5274  134.0847  155.7307 LP  0  0  0  0  0  0  0  0  0  0  0  0  # atno 17395 bound_to 11000

$$$$
