AV-unprocessed.smi:1019|AV-procd|sdf|4448|dock3
  -GOLD-   22720 2413D 1   1.00000     0.00000
 Structure written by MMmdl.
 45 47  0  0  0  0  0  0  0  0  3 V2000
  149.2938  138.6850  154.1595 C   0  0  0  0  0  0  0  0  0  0  0  0
  150.1228  137.4762  154.3733 N   0  3  2  0  0  0  0  0  0  0  0  0
  149.7472  136.7644  155.6205 C   0  0  0  0  0  0  0  0  0  0  0  0
  150.1267  135.2936  155.5753 C   0  0  0  0  0  0  0  0  0  0  0  0
  151.0560  134.7755  156.5022 C   0  0  0  0  0  0  0  0  0  0  0  0
  151.3994  133.4099  156.4720 C   0  0  0  0  0  0  0  0  0  0  0  0
  150.8184  132.5582  155.5130 C   0  0  0  0  0  0  0  0  0  0  0  0
  149.8950  133.0723  154.5826 C   0  0  0  0  0  0  0  0  0  0  0  0
  149.5503  134.4374  154.6125 C   0  0  0  0  0  0  0  0  0  0  0  0
  151.5802  137.7511  154.2565 C   0  0  0  0  0  0  0  0  0  0  0  0
  151.9467  139.1509  154.7853 C   0  0  2  0  0  0  0  0  0  0  0  0
  153.3520  139.3048  154.7227 O   0  0  0  0  0  0  0  0  0  0  0  0
  151.4677  139.3602  156.2354 C   0  0  0  0  0  0  0  0  0  0  0  0
  151.2637  140.7773  156.5694 N   0  0  0  0  0  0  0  0  0  0  0  0
  150.5178  141.7188  155.9292 C   0  0  0  0  0  0  0  0  0  0  0  0
  150.6433  142.8851  156.6204 N   0  3  0  0  0  0  0  0  0  0  0  0
  151.4807  142.6879  157.7198 C   0  0  0  0  0  0  0  0  0  0  0  0
  151.9056  143.5695  158.7090 C   0  0  0  0  0  0  0  0  0  0  0  0
  152.7664  143.0463  159.6958 C   0  0  0  0  0  0  0  0  0  0  0  0
  153.1721  141.6960  159.6749 C   0  0  0  0  0  0  0  0  0  0  0  0
  152.7345  140.8108  158.6675 C   0  0  0  0  0  0  0  0  0  0  0  0
  151.8832  141.3352  157.6950 C   0  0  0  0  0  0  0  0  0  0  0  0
  149.4546  139.4137  154.9549 H   0  0  0  0  0  0  0  0  0  0  0  0
  148.2345  138.4269  154.1444 H   0  0  0  0  0  0  0  0  0  0  0  0
  149.5249  139.1629  153.2081 H   0  0  0  0  0  0  0  0  0  0  0  0
  150.2045  137.2551  156.4814 H   0  0  0  0  0  0  0  0  0  0  0  0
  148.6673  136.8199  155.7665 H   0  0  0  0  0  0  0  0  0  0  0  0
  151.5038  135.4224  157.2424 H   0  0  0  0  0  0  0  0  0  0  0  0
  152.1086  133.0150  157.1846 H   0  0  0  0  0  0  0  0  0  0  0  0
  151.0826  131.5110  155.4898 H   0  0  0  0  0  0  0  0  0  0  0  0
  149.4510  132.4194  153.8457 H   0  0  0  0  0  0  0  0  0  0  0  0
  148.8393  134.8229  153.8963 H   0  0  0  0  0  0  0  0  0  0  0  0
  152.1361  136.9799  154.7919 H   0  0  0  0  0  0  0  0  0  0  0  0
  151.9091  137.6833  153.2197 H   0  0  0  0  0  0  0  0  0  0  0  0
  151.4952  139.9181  154.1562 H   0  0  0  0  0  0  0  0  0  0  0  0
  153.6794  138.8120  153.9856 H   0  0  0  0  0  0  0  0  0  0  0  0
  150.5101  138.8594  156.3836 H   0  0  0  0  0  0  0  0  0  0  0  0
  152.1575  138.9148  156.9528 H   0  0  0  0  0  0  0  0  0  0  0  0
  149.9313  141.5686  155.0342 H   0  0  0  0  0  0  0  0  0  0  0  0
  151.5968  144.6045  158.7272 H   0  0  0  0  0  0  0  0  0  0  0  0
  153.1228  143.6937  160.4839 H   0  0  0  0  0  0  0  0  0  0  0  0
  153.8332  141.3317  160.4477 H   0  0  0  0  0  0  0  0  0  0  0  0
  153.0554  139.7801  158.6630 H   0  0  0  0  0  0  0  0  0  0  0  0
  149.8982  136.8387  153.6223 H   0  0  0  0  0  0  0  0  0  0  0  0
  150.1891  143.7508  156.3590 H   0  0  0  0  0  0  0  0  0  0  0  0
  1  2  1  0  0  0  0
  1 23  1  0  0  0  0
  1 24  1  0  0  0  0
  1 25  1  0  0  0  0
  2  3  1  0  0  0  0
  2 10  1  0  0  0  0
  2 44  1  0  0  0  0
  3  4  1  0  0  0  0
  3 26  1  0  0  0  0
  3 27  1  0  0  0  0
  4  9  1  0  0  0  0
  4  5  2  0  0  0  0
  5  6  1  0  0  0  0
  5 28  1  0  0  0  0
  6  7  2  0  0  0  0
  6 29  1  0  0  0  0
  7  8  1  0  0  0  0
  7 30  1  0  0  0  0
  8  9  2  0  0  0  0
  8 31  1  0  0  0  0
  9 32  1  0  0  0  0
 10 11  1  0  0  0  0
 10 33  1  0  0  0  0
 10 34  1  0  0  0  0
 11 12  1  0  0  0  0
 11 13  1  0  0  0  0
 11 35  1  0  0  0  0
 12 36  1  0  0  0  0
 13 14  1  0  0  0  0
 13 37  1  0  0  0  0
 13 38  1  0  0  0  0
 14 22  1  0  0  0  0
 14 15  1  0  0  0  0
 15 16  2  0  0  0  0
 15 39  1  0  0  0  0
 16 17  1  0  0  0  0
 16 45  1  0  0  0  0
 17 22  2  0  0  0  0
 17 18  1  0  0  0  0
 18 19  2  0  0  0  0
 18 40  1  0  0  0  0
 19 20  1  0  0  0  0
 19 41  1  0  0  0  0
 20 21  2  0  0  0  0
 20 42  1  0  0  0  0
 21 22  1  0  0  0  0
 21 43  1  0  0  0  0
M  CHG  1   2   1
M  CHG  1  16   1
M  END
> <s_m_source_file>
AV-unprocessed.smi

> <i_m_source_file_index>
1019

> <i_lp_mmshare_version>
43012

> <i_f3d_flags>
0

> <s_epik_input>
W2NIXTFbY0hdW2NIXVtjSF1bY0hdYzFbQ0gyXU4oW0NIM10pW0NIMl1bQ0BIXShbT0hdKVtDSDJdbihbY0hdbjIpYyhjMjMpW2NIXVtjSF1bY0hdW2NIXTM=

> <s_epik_cmdline>
J2VwaWtfcHl0aG9uJywgJy1waCcsICc3LjAnLCAnLXRuJywgJzgnLCAnLW1hJywgJzIwMCcsICctbWV0YWxfYmluZGluZycsICctaW1hZScsICc8aW5maWxlLm1hZT4nLCAnLW9tYWUnLCAnPG91dGZpbGUubWFlPic=

> <r_epik_Ionization_Penalty>
1.5198

> <r_epik_Ionization_Penalty_Charging>
1.5198

> <r_epik_Ionization_Penalty_Neutral>
3.13312e-06

> <r_epik_State_Penalty>
1.624

> <r_epik_Charging_Adjusted_Penalty>
3.1438

> <i_epik_Tot_Q>
2

> <i_epik_Tot_abs_Q>
2

> <r_epik_Metal_State_Penalty>
5.67392

> <b_epik_Metal_Only>
0

> <s_lp_Force_Field>
OPLS_2005

> <r_lp_Energy>
24.0682

> <b_lp_Chiralities_Consistent>
1

> <s_lp_Variant>
AV-unprocessed.smi:1019-6

> <Gold.Version>
5.8.1

> <Gold.Id.Protein>
6NUR|6NUR_protein|mol2

> <Gold.PLP.Fitness>
62.1144

> <Gold.PLP.PLP>
-48.6672

> <Gold.PLP.part.hbond>
-3.4137

> <Gold.PLP.part.metal>
0.0000

> <Gold.PLP.part.buried>
-5.1250

> <Gold.PLP.part.nonpolar>
-39.2790

> <Gold.PLP.part.repulsive>
0.1038

> <Gold.PLP.ligand.clash>
0.0000

> <Gold.PLP.ligand.torsion>
0.8798

> <Gold.PLP.Chemscore.Hbond>
5.0000

> <Gold.PLP.Chemscore.CHOScore>
0.0000

> <Gold.PLP.Chemscore.Metal>
0.0000

> <Gold.Chemscore.Hbonds>
donor molecule, donor type, donor heavy atom, donor atom, acceptor molecule, acceptor atom, score
      L1  H     2    44       P1  7948  1.92
      L1  H    16    45       P1  8028  2.00
      P1  H  7997  8010       L1    12  1.00

> <Gold.PLP.Chemscore.Internal.Correction>
0.2067

> <Gold.Rescore>
     Score         DG    S(hbond)    S(metal)    S(lipo)     H(rot)  DE(clash)    DE(int)     intcor
     20.96     -21.80       2.58        0.00     119.49       2.46       0.01       0.84       ----

> <Gold.Chemscore.Fitness>
20.9595

> <Gold.Chemscore.DG>
-21.8037

> <Gold.Chemscore.ZeroCoef>
-5.4800

> <Gold.Chemscore.Hbond>
2.5834

> <Gold.Chemscore.Metal>
0.0000

> <Gold.Chemscore.Lipo>
119.4921

> <Gold.Chemscore.Internal_Hbond>
0.0000

> <Gold.Chemscore.DEClash>
0.0073

> <Gold.Chemscore.DEInternal>
0.8369

> <Gold.Chemscore.Rot>
2.4552

> <Gold.Chemscore.Internal.Correction>
   9.000000E+99

> <Gold.Chemscore.Hbonds>
donor molecule, donor type, donor heavy atom, donor atom, acceptor molecule, acceptor atom, score
      L1  H     2    44       P1  7948  0.35
      L1  H    16    45       P1  8028  0.99
      P1  H  7997  8010       L1    12  0.80

> <Gold.Chemscore.Hbond.Weighted>
-8.6286

> <Gold.Chemscore.Metal.Weighted>
-0.0000

> <Gold.Chemscore.Lipo.Weighted>
-13.9806

> <Gold.Chemscore.Internal_Hbond.Weighted>
0.0000

> <Gold.Chemscore.DEClash.Weighted>
0.0073

> <Gold.Chemscore.DEInternal.Weighted>
0.8369

> <Gold.Chemscore.Rot.Weighted>
6.2854

> <Gold.Chemscore.Internal.Correction.Weighted>
   9.000000E+99

> <Gold.Protein.RotatedTorsions>
[ 6907 6896 6895 6894 ] final   21.83 input  -60.11 | X-H torsion
[ 7974 7965 7964 7962 ] final  -60.07 input  175.53 | X-H torsion
[ 8008 7997 7996 7995 ] final  128.28 input   59.86 | X-H torsion
[ 10167 10162 10161 10158 ] final -163.08 input  -65.29 | X-H torsion
[ 10718 10713 10712 10709 ] final -120.06 input   66.30 | X-H torsion
[ 10763 10752 10751 10750 ] final  -37.85 input  -60.55 | X-H torsion
[ 11005 11000 10999 10996 ] final -100.15 input  -57.11 | X-H torsion

> <Gold.Protein.ActiveResidues>
 VAL166  LYS551  ARG553  GLY616  TRP617  ASP618  TYR619  PRO620  LYS621  CYS622 
 ASP623  PHE694  ASN695  SER759  ASP760  ASP761  ALA762  ILE779  LEU786  VAL792 
 PHE793  MET794  SER795  GLU796  ALA797  LYS798  CYS799  TRP800  GLU811  SER814 

> <Gold.Protein.RotatedAtoms>
  151.9179  135.0311  160.0519 H   0  0  0  0  0  0  0  0  0  0  0  0  # atno 6907 bound_to 6896
  152.2224  133.4989  159.5178 H   0  0  0  0  0  0  0  0  0  0  0  0  # atno 6908 bound_to 6896
  150.7003  134.1241  159.4088 H   0  0  0  0  0  0  0  0  0  0  0  0  # atno 6909 bound_to 6896
  145.8199  140.8547  143.0138 H   0  0  0  0  0  0  0  0  0  0  0  0  # atno 7974 bound_to 7965
  156.2911  140.2648  156.2410 H   0  0  0  0  0  0  0  0  0  0  0  0  # atno 8008 bound_to 7997
  154.9977  140.0388  157.2365 H   0  0  0  0  0  0  0  0  0  0  0  0  # atno 8009 bound_to 7997
  154.7629  140.2764  155.6204 H   0  0  0  0  0  0  0  0  0  0  0  0  # atno 8010 bound_to 7997
  139.6346  144.0375  152.2043 H   0  0  0  0  0  0  0  0  0  0  0  0  # atno 10167 bound_to 10162
  156.1229  130.6337  150.9494 H   0  0  0  0  0  0  0  0  0  0  0  0  # atno 10718 bound_to 10713
  153.9031  135.6800  153.4754 H   0  0  0  0  0  0  0  0  0  0  0  0  # atno 10763 bound_to 10752
  153.1118  135.4779  154.9046 H   0  0  0  0  0  0  0  0  0  0  0  0  # atno 10764 bound_to 10752
  154.7565  135.3199  154.8414 H   0  0  0  0  0  0  0  0  0  0  0  0  # atno 10765 bound_to 10752
  141.1282  133.8376  157.1065 H   0  0  0  0  0  0  0  0  0  0  0  0  # atno 11005 bound_to 11000
  144.6749  140.0518  143.7478 LP  0  0  0  0  0  0  0  0  0  0  0  0  # atno 17320 bound_to 7965
  145.9686  139.2853  143.1112 LP  0  0  0  0  0  0  0  0  0  0  0  0  # atno 17321 bound_to 7965
  140.0049  144.6266  150.7697 LP  0  0  0  0  0  0  0  0  0  0  0  0  # atno 17342 bound_to 10162
  140.7458  143.2881  151.3407 LP  0  0  0  0  0  0  0  0  0  0  0  0  # atno 17343 bound_to 10162
  157.6412  131.0910  150.8248 LP  0  0  0  0  0  0  0  0  0  0  0  0  # atno 17370 bound_to 10713
  156.8342  130.5026  149.5328 LP  0  0  0  0  0  0  0  0  0  0  0  0  # atno 17371 bound_to 10713
  140.0301  134.9905  157.0764 LP  0  0  0  0  0  0  0  0  0  0  0  0  # atno 17394 bound_to 11000
  140.4298  134.1792  155.7167 LP  0  0  0  0  0  0  0  0  0  0  0  0  # atno 17395 bound_to 11000

$$$$
