AV-unprocessed.smi:102|AV-procd|sdf|952|dock10
  -GOLD-   2262017483D 1   1.00000     0.00000
 Structure written by MMmdl.
 44 45  0  0  0  0  0  0  0  0  1 V2000
  151.9207  144.3445  160.7844 C   0  0  0  0  0  0  0  0  0  0  0  0
  152.2847  142.9185  161.1774 C   0  0  0  0  0  0  0  0  0  0  0  0
  151.7171  142.3493  162.1093 O   0  0  0  0  0  0  0  0  0  0  0  0
  153.2579  142.4033  160.4045 O   0  0  0  0  0  0  0  0  0  0  0  0
  153.5440  141.0109  160.4252 C   0  0  0  0  0  0  0  0  0  0  0  0
  152.5357  140.2343  159.5611 C   0  0  1  0  0  0  0  0  0  0  0  0
  152.6905  140.5437  158.1824 O   0  0  0  0  0  0  0  0  0  0  0  0
  152.1142  139.5330  157.4071 C   0  0  2  0  0  0  0  0  0  0  0  0
  150.8260  140.0312  156.7785 N   0  0  0  0  0  0  0  0  0  0  0  0
  149.7585  140.5056  157.5318 C   0  0  0  0  0  0  0  0  0  0  0  0
  148.6020  140.9392  156.9766 C   0  0  0  0  0  0  0  0  0  0  0  0
  147.6119  141.3838  157.7691 F   0  0  0  0  0  0  0  0  0  0  0  0
  148.4192  140.9288  155.5282 C   0  0  0  0  0  0  0  0  0  0  0  0
  147.4088  141.3000  154.9342 O   0  0  0  0  0  0  0  0  0  0  0  0
  149.5176  140.4453  154.8119 N   0  0  0  0  0  0  0  0  0  0  0  0
  150.7143  139.9949  155.3707 C   0  0  0  0  0  0  0  0  0  0  0  0
  151.6162  139.5783  154.6450 O   0  0  0  0  0  0  0  0  0  0  0  0
  151.9014  138.3044  158.3255 C   0  0  2  0  0  0  0  0  0  0  0  0
  150.5233  138.0685  158.6042 O   0  0  0  0  0  0  0  0  0  0  0  0
  150.0350  136.8181  158.6242 C   0  0  0  0  0  0  0  0  0  0  0  0
  148.5797  136.7753  159.0698 C   0  0  0  0  0  0  0  0  0  0  0  0
  150.6471  135.7933  158.3245 O   0  0  0  0  0  0  0  0  0  0  0  0
  152.6196  138.7080  159.6072 C   0  0  1  0  0  0  0  0  0  0  0  0
  153.9688  138.2562  159.5760 O   0  0  0  0  0  0  0  0  0  0  0  0
  154.2437  136.9421  159.4944 C   0  0  0  0  0  0  0  0  0  0  0  0
  155.7356  136.6553  159.5941 C   0  0  0  0  0  0  0  0  0  0  0  0
  153.4219  136.0362  159.3578 O   0  0  0  0  0  0  0  0  0  0  0  0
  149.4370  140.4173  153.8057 H   0  0  0  0  0  0  0  0  0  0  0  0
  150.9699  144.3566  160.2518 H   0  0  0  0  0  0  0  0  0  0  0  0
  152.6849  144.7782  160.1386 H   0  0  0  0  0  0  0  0  0  0  0  0
  151.8275  144.9689  161.6731 H   0  0  0  0  0  0  0  0  0  0  0  0
  154.5375  140.8911  159.9930 H   0  0  0  0  0  0  0  0  0  0  0  0
  153.6058  140.6102  161.4379 H   0  0  0  0  0  0  0  0  0  0  0  0
  151.5261  140.5345  159.8454 H   0  0  0  0  0  0  0  0  0  0  0  0
  152.7909  139.3338  156.5741 H   0  0  0  0  0  0  0  0  0  0  0  0
  149.8277  140.5414  158.6080 H   0  0  0  0  0  0  0  0  0  0  0  0
  152.3580  137.4333  157.8529 H   0  0  0  0  0  0  0  0  0  0  0  0
  147.9540  137.3258  158.3668 H   0  0  0  0  0  0  0  0  0  0  0  0
  148.4719  137.2254  160.0569 H   0  0  0  0  0  0  0  0  0  0  0  0
  148.2234  135.7462  159.1177 H   0  0  0  0  0  0  0  0  0  0  0  0
  152.1207  138.3266  160.4998 H   0  0  0  0  0  0  0  0  0  0  0  0
  156.1291  137.0280  160.5400 H   0  0  0  0  0  0  0  0  0  0  0  0
  156.2707  137.1420  158.7786 H   0  0  0  0  0  0  0  0  0  0  0  0
  155.9241  135.5829  159.5404 H   0  0  0  0  0  0  0  0  0  0  0  0
  1  2  1  0  0  0  0
  1 29  1  0  0  0  0
  1 30  1  0  0  0  0
  1 31  1  0  0  0  0
  2  3  2  0  0  0  0
  2  4  1  0  0  0  0
  4  5  1  0  0  0  0
  5  6  1  0  0  0  0
  5 32  1  0  0  0  0
  5 33  1  0  0  0  0
  6 23  1  0  0  0  0
  6  7  1  0  0  0  0
  6 34  1  0  0  0  0
  7  8  1  0  0  0  0
  8  9  1  0  0  0  0
  8 18  1  0  0  0  0
  8 35  1  0  0  0  0
  9 16  1  0  0  0  0
  9 10  1  0  0  0  0
 10 11  2  0  0  0  0
 10 36  1  0  0  0  0
 11 12  1  0  0  0  0
 11 13  1  0  0  0  0
 13 14  2  0  0  0  0
 13 15  1  0  0  0  0
 15 28  1  0  0  0  0
 15 16  1  0  0  0  0
 16 17  2  0  0  0  0
 18 19  1  0  0  0  0
 18 23  1  0  0  0  0
 18 37  1  0  0  0  0
 19 20  1  0  0  0  0
 20 21  1  0  0  0  0
 20 22  2  0  0  0  0
 21 38  1  0  0  0  0
 21 39  1  0  0  0  0
 21 40  1  0  0  0  0
 23 24  1  0  0  0  0
 23 41  1  0  0  0  0
 24 25  1  0  0  0  0
 25 26  1  0  0  0  0
 25 27  2  0  0  0  0
 26 42  1  0  0  0  0
 26 43  1  0  0  0  0
 26 44  1  0  0  0  0
M  END
> <s_m_source_file>
AV-unprocessed.smi

> <i_m_source_file_index>
102

> <i_lp_mmshare_version>
43012

> <i_f3d_flags>
0

> <s_epik_input>
W0NIM11DKD1PKU9bQ0gyXVtDQEBIXTFPW0NASF0oW0NAQEhdKE9DKD1PKVtDSDNdKVtDQEhdMU9DKD1PKVtDSDNdKW4yW2NIXWMoRiljKD1PKVtuSF1jMj1P

> <s_epik_cmdline>
J2VwaWtfcHl0aG9uJywgJy1waCcsICc3LjAnLCAnLXRuJywgJzgnLCAnLW1hJywgJzIwMCcsICctbWV0YWxfYmluZGluZycsICctaW1hZScsICc8aW5maWxlLm1hZT4nLCAnLW9tYWUnLCAnPG91dGZpbGUubWFlPic=

> <r_lp_tautomer_probability>
0.999537

> <r_epik_Ionization_Penalty>
0.058267

> <r_epik_Ionization_Penalty_Charging>
0.058267

> <r_epik_Ionization_Penalty_Neutral>
6.57791e-16

> <r_epik_State_Penalty>
0.0503774

> <r_epik_Charging_Adjusted_Penalty>
0.108644

> <i_epik_Tot_Q>
0

> <i_epik_Tot_abs_Q>
0

> <r_epik_Metal_State_Penalty>
2.6644

> <b_epik_Metal_Only>
0

> <s_epik_Chemistry_Notes>
This compound has an ester and may undergo hydrolysis at high or low pH. This compound contains an acetal/aminal-like group ( X-CH(R)-Y where X, Y are N, S, or O) that may be acid/base labile, releasing an aldehyde.

> <s_lp_Force_Field>
OPLS_2005

> <r_lp_Energy>
12.8015

> <b_lp_Chiralities_Consistent>
1

> <s_lp_Variant>
AV-unprocessed.smi:102-8

> <Gold.Version>
5.8.1

> <Gold.Id.Protein>
6NUR|6NUR_protein|mol2

> <Gold.PLP.Fitness>
45.6135

> <Gold.PLP.PLP>
-36.2971

> <Gold.PLP.part.hbond>
-4.9094

> <Gold.PLP.part.metal>
0.0000

> <Gold.PLP.part.buried>
-7.9215

> <Gold.PLP.part.nonpolar>
-25.1884

> <Gold.PLP.part.repulsive>
0.6610

> <Gold.PLP.ligand.clash>
0.0000

> <Gold.PLP.ligand.torsion>
0.9620

> <Gold.PLP.Chemscore.Hbond>
3.7217

> <Gold.PLP.Chemscore.CHOScore>
0.0000

> <Gold.PLP.Chemscore.Metal>
0.0000

> <Gold.Chemscore.Hbonds>
donor molecule, donor type, donor heavy atom, donor atom, acceptor molecule, acceptor atom, score
      P1  H  6896  6908       L1    22  0.59
      P1  H  6896  6909       L1    27  1.00
      P1  H  6933  6945       L1     3  0.96
      P1  H  7989  7998       L1    17  0.95
      P1  H  7997  8010       L1     7  0.08

> <Gold.PLP.Chemscore.Internal.Correction>
0.0756

> <Gold.Rescore>
     Score         DG    S(hbond)    S(metal)    S(lipo)     H(rot)  DE(clash)    DE(int)     intcor
      9.93     -12.36       3.47        0.00      48.42       4.05       0.01       2.42       ----

> <Gold.Chemscore.Fitness>
9.9331

> <Gold.Chemscore.DG>
-12.3600

> <Gold.Chemscore.ZeroCoef>
-5.4800

> <Gold.Chemscore.Hbond>
3.4696

> <Gold.Chemscore.Metal>
0.0000

> <Gold.Chemscore.Lipo>
48.4176

> <Gold.Chemscore.Internal_Hbond>
0.0000

> <Gold.Chemscore.DEClash>
0.0078

> <Gold.Chemscore.DEInternal>
2.4192

> <Gold.Chemscore.Rot>
4.0520

> <Gold.Chemscore.Internal.Correction>
   9.000000E+99

> <Gold.Chemscore.Hbonds>
donor molecule, donor type, donor heavy atom, donor atom, acceptor molecule, acceptor atom, score
      P1  H  6896  6908       L1    22  0.53
      P1  H  6896  6909       L1    27  0.97
      P1  H  6933  6945       L1     3  0.92
      P1  H  7989  7998       L1    17  0.21

> <Gold.Chemscore.Hbond.Weighted>
-11.5884

> <Gold.Chemscore.Metal.Weighted>
-0.0000

> <Gold.Chemscore.Lipo.Weighted>
-5.6649

> <Gold.Chemscore.Internal_Hbond.Weighted>
0.0000

> <Gold.Chemscore.DEClash.Weighted>
0.0078

> <Gold.Chemscore.DEInternal.Weighted>
2.4192

> <Gold.Chemscore.Rot.Weighted>
10.3732

> <Gold.Chemscore.Internal.Correction.Weighted>
   9.000000E+99

> <Gold.Protein.RotatedTorsions>
[ 6907 6896 6895 6894 ] final  171.17 input  -60.11 | X-H torsion
[ 7974 7965 7964 7962 ] final   34.11 input  175.53 | X-H torsion
[ 8008 7997 7996 7995 ] final   34.13 input   59.86 | X-H torsion
[ 10167 10162 10161 10158 ] final -121.48 input  -65.29 | X-H torsion
[ 10718 10713 10712 10709 ] final  147.47 input   66.30 | X-H torsion
[ 10763 10752 10751 10750 ] final  -50.68 input  -60.55 | X-H torsion
[ 11005 11000 10999 10996 ] final -102.64 input  -57.11 | X-H torsion

> <Gold.Protein.ActiveResidues>
 VAL166  LYS551  ARG553  GLY616  TRP617  ASP618  TYR619  PRO620  LYS621  CYS622 
 ASP623  PHE694  ASN695  SER759  ASP760  ASP761  ALA762  ILE779  LEU786  VAL792 
 PHE793  MET794  SER795  GLU796  ALA797  LYS798  CYS799  TRP800  GLU811  SER814 

> <Gold.Protein.RotatedAtoms>
  151.8045  133.3374  159.3536 H   0  0  0  0  0  0  0  0  0  0  0  0  # atno 6907 bound_to 6896
  150.7347  134.5722  159.5906 H   0  0  0  0  0  0  0  0  0  0  0  0  # atno 6908 bound_to 6896
  152.3119  134.7487  160.0385 H   0  0  0  0  0  0  0  0  0  0  0  0  # atno 6909 bound_to 6896
  146.1375  139.6310  142.9185 H   0  0  0  0  0  0  0  0  0  0  0  0  # atno 7974 bound_to 7965
  155.1498  140.3274  155.4434 H   0  0  0  0  0  0  0  0  0  0  0  0  # atno 8008 bound_to 7997
  156.2578  140.1979  156.6560 H   0  0  0  0  0  0  0  0  0  0  0  0  # atno 8009 bound_to 7997
  154.6481  140.0562  156.9911 H   0  0  0  0  0  0  0  0  0  0  0  0  # atno 8010 bound_to 7997
  140.0246  143.5310  152.2205 H   0  0  0  0  0  0  0  0  0  0  0  0  # atno 10167 bound_to 10162
  157.3206  131.0903  151.1243 H   0  0  0  0  0  0  0  0  0  0  0  0  # atno 10718 bound_to 10713
  154.1142  135.6544  153.4891 H   0  0  0  0  0  0  0  0  0  0  0  0  # atno 10763 bound_to 10752
  153.0246  135.5255  154.7161 H   0  0  0  0  0  0  0  0  0  0  0  0  # atno 10764 bound_to 10752
  154.6350  135.2981  155.0141 H   0  0  0  0  0  0  0  0  0  0  0  0  # atno 10765 bound_to 10752
  141.1180  133.8575  157.1386 H   0  0  0  0  0  0  0  0  0  0  0  0  # atno 11005 bound_to 11000
  145.5123  141.0435  143.2481 LP  0  0  0  0  0  0  0  0  0  0  0  0  # atno 17320 bound_to 7965
  144.7755  139.6638  143.7176 LP  0  0  0  0  0  0  0  0  0  0  0  0  # atno 17321 bound_to 7965
  139.6117  144.7610  151.2937 LP  0  0  0  0  0  0  0  0  0  0  0  0  # atno 17342 bound_to 10162
  140.7328  143.6812  150.7999 LP  0  0  0  0  0  0  0  0  0  0  0  0  # atno 17343 bound_to 10162
  157.2530  130.6623  149.5940 LP  0  0  0  0  0  0  0  0  0  0  0  0  # atno 17370 bound_to 10713
  155.9685  130.4532  150.5804 LP  0  0  0  0  0  0  0  0  0  0  0  0  # atno 17371 bound_to 10713
  140.0116  134.9985  157.0407 LP  0  0  0  0  0  0  0  0  0  0  0  0  # atno 17394 bound_to 11000
  140.4589  134.1504  155.7189 LP  0  0  0  0  0  0  0  0  0  0  0  0  # atno 17395 bound_to 11000

$$$$
