AV-unprocessed.smi:2037|AV-procd|sdf|8277|dock2
  -GOLD-   2272010543D 1   1.00000     0.00000
 Structure written by MMmdl.
 39 40  0  0  0  0  0  0  0  0  2 V2000
  149.6903  140.0679  156.8407 C   0  0  0  0  0  0  0  0  0  0  0  0
  150.2468  140.4765  155.4655 C   0  0  2  0  0  0  0  0  0  0  0  0
  149.4837  141.6584  154.8407 C   0  0  0  0  0  0  0  0  0  0  0  0
  148.0992  141.2434  154.3107 C   0  0  0  0  0  0  0  0  0  0  0  0
  148.2039  140.1212  153.3422 N   0  3  2  0  0  0  0  0  0  0  0  0
  146.8947  139.7930  152.7232 C   0  0  0  0  0  0  0  0  0  0  0  0
  146.2041  138.5953  153.4049 C   0  0  0  0  0  0  0  0  0  0  0  0
  146.5176  137.3390  152.7331 N   0  0  0  0  0  0  0  0  0  0  0  0
  145.6070  136.4787  152.2548 C   0  0  0  0  0  0  0  0  0  0  0  0
  144.3927  136.6615  152.3464 O   0  0  0  0  0  0  0  0  0  0  0  0
  146.1932  135.4163  151.6757 N   0  0  0  0  0  0  0  0  0  0  0  0
  145.5698  134.2874  151.0821 C   0  0  0  0  0  0  0  0  0  0  0  0
  144.2509  134.1692  150.8883 N   0  0  0  0  0  0  0  0  0  0  0  0
  143.9161  132.9520  150.2897 C   0  0  0  0  0  0  0  0  0  0  0  0
  145.0001  132.1497  150.0333 C   0  0  0  0  0  0  0  0  0  0  0  0
  146.4934  132.8940  150.5389 S   0  0  0  0  0  0  0  0  0  0  0  0
  148.8812  138.9416  153.9437 C   0  0  0  0  0  0  0  0  0  0  0  0
  150.2826  139.3075  154.4652 C   0  0  0  0  0  0  0  0  0  0  0  0
  148.6554  139.7318  156.7839 H   0  0  0  0  0  0  0  0  0  0  0  0
  149.7269  140.9038  157.5397 H   0  0  0  0  0  0  0  0  0  0  0  0
  150.2764  139.2565  157.2731 H   0  0  0  0  0  0  0  0  0  0  0  0
  151.2754  140.7990  155.6330 H   0  0  0  0  0  0  0  0  0  0  0  0
  149.3803  142.4672  155.5650 H   0  0  0  0  0  0  0  0  0  0  0  0
  150.0698  142.0659  154.0158 H   0  0  0  0  0  0  0  0  0  0  0  0
  147.4423  140.9577  155.1335 H   0  0  0  0  0  0  0  0  0  0  0  0
  147.6364  142.1040  153.8261 H   0  0  0  0  0  0  0  0  0  0  0  0
  146.2482  140.6721  152.7334 H   0  0  0  0  0  0  0  0  0  0  0  0
  147.0556  139.5444  151.6732 H   0  0  0  0  0  0  0  0  0  0  0  0
  146.4925  138.5348  154.4559 H   0  0  0  0  0  0  0  0  0  0  0  0
  145.1208  138.7079  153.3862 H   0  0  0  0  0  0  0  0  0  0  0  0
  147.4949  137.1146  152.6146 H   0  0  0  0  0  0  0  0  0  0  0  0
  147.2025  135.4111  151.6591 H   0  0  0  0  0  0  0  0  0  0  0  0
  142.8783  132.7380  150.0809 H   0  0  0  0  0  0  0  0  0  0  0  0
  145.0103  131.1697  149.5803 H   0  0  0  0  0  0  0  0  0  0  0  0
  148.2681  138.5378  154.7502 H   0  0  0  0  0  0  0  0  0  0  0  0
  148.9839  138.1479  153.2051 H   0  0  0  0  0  0  0  0  0  0  0  0
  150.9135  139.5815  153.6185 H   0  0  0  0  0  0  0  0  0  0  0  0
  150.7525  138.4350  154.9208 H   0  0  0  0  0  0  0  0  0  0  0  0
  148.7966  140.4535  152.5947 H   0  0  0  0  0  0  0  0  0  0  0  0
  1  2  1  0  0  0  0
  1 19  1  0  0  0  0
  1 20  1  0  0  0  0
  1 21  1  0  0  0  0
  2 18  1  0  0  0  0
  2  3  1  0  0  0  0
  2 22  1  0  0  0  0
  3  4  1  0  0  0  0
  3 23  1  0  0  0  0
  3 24  1  0  0  0  0
  4  5  1  0  0  0  0
  4 25  1  0  0  0  0
  4 26  1  0  0  0  0
  5  6  1  0  0  0  0
  5 17  1  0  0  0  0
  5 39  1  0  0  0  0
  6  7  1  0  0  0  0
  6 27  1  0  0  0  0
  6 28  1  0  0  0  0
  7  8  1  0  0  0  0
  7 29  1  0  0  0  0
  7 30  1  0  0  0  0
  8  9  1  0  0  0  0
  8 31  1  0  0  0  0
  9 10  2  0  0  0  0
  9 11  1  0  0  0  0
 11 12  1  0  0  0  0
 11 32  1  0  0  0  0
 12 16  1  0  0  0  0
 12 13  2  0  0  0  0
 13 14  1  0  0  0  0
 14 15  2  0  0  0  0
 14 33  1  0  0  0  0
 15 16  1  0  0  0  0
 15 34  1  0  0  0  0
 17 18  1  0  0  0  0
 17 35  1  0  0  0  0
 17 36  1  0  0  0  0
 18 37  1  0  0  0  0
 18 38  1  0  0  0  0
M  CHG  1   5   1
M  END
> <s_m_source_file>
AV-unprocessed.smi

> <i_m_source_file_index>
2037

> <i_lp_mmshare_version>
43012

> <i_f3d_flags>
0

> <s_epik_input>
W0NIM11bQ0hdMVtDSDJdW0NIMl1OKFtDSDJdW0NIMl0xKVtDSDJdW0NIMl1bTkhdQyg9TylbTkhdYzJuW2NIXVtjSF1zMg==

> <s_epik_cmdline>
J2VwaWtfcHl0aG9uJywgJy1waCcsICc3LjAnLCAnLXRuJywgJzgnLCAnLW1hJywgJzIwMCcsICctbWV0YWxfYmluZGluZycsICctaW1hZScsICc8aW5maWxlLm1hZT4nLCAnLW9tYWUnLCAnPG91dGZpbGUubWFlPic=

> <r_lp_tautomer_probability>
0.999

> <r_epik_Ionization_Penalty>
0.00182893

> <r_epik_Ionization_Penalty_Charging>
0.00168873

> <r_epik_Ionization_Penalty_Neutral>
0.000140204

> <r_epik_State_Penalty>
0.00114045

> <r_epik_Charging_Adjusted_Penalty>
0.00282917

> <i_epik_Tot_Q>
1

> <i_epik_Tot_abs_Q>
1

> <r_epik_Metal_State_Penalty>
0.0569426

> <b_epik_Metal_Only>
0

> <s_lp_Force_Field>
OPLS_2005

> <r_lp_Energy>
15.966

> <b_lp_Chiralities_Consistent>
1

> <s_lp_Variant>
AV-unprocessed.smi:2037-2

> <Gold.Version>
5.8.1

> <Gold.Id.Protein>
6NUR|6NUR_protein|mol2

> <Gold.PLP.Fitness>
42.9758

> <Gold.PLP.PLP>
-32.6485

> <Gold.PLP.part.hbond>
-3.0000

> <Gold.PLP.part.metal>
0.0000

> <Gold.PLP.part.buried>
-2.3232

> <Gold.PLP.part.nonpolar>
-28.6582

> <Gold.PLP.part.repulsive>
0.5572

> <Gold.PLP.ligand.clash>
0.0000

> <Gold.PLP.ligand.torsion>
0.7072

> <Gold.PLP.Chemscore.Hbond>
2.9280

> <Gold.PLP.Chemscore.CHOScore>
0.9803

> <Gold.PLP.Chemscore.Metal>
0.0000

> <Gold.Chemscore.Hbonds>
donor molecule, donor type, donor heavy atom, donor atom, acceptor molecule, acceptor atom, score
      L1  H     5    39       P1  7957  0.91
      L1  H     8    31       P1  7948  1.00
      L1  H    11    32       P1  7948  1.00
      L1  C    14    33       P1 10186  0.87

> <Gold.PLP.Chemscore.Internal.Correction>
0.0166

> <Gold.Rescore>
     Score         DG    S(hbond)    S(metal)    S(lipo)     H(rot)  DE(clash)    DE(int)     intcor
     18.42     -20.42       2.86        0.00      81.03       1.60       0.01       1.99       ----

> <Gold.Chemscore.Fitness>
18.4192

> <Gold.Chemscore.DG>
-20.4197

> <Gold.Chemscore.ZeroCoef>
-5.4800

> <Gold.Chemscore.Hbond>
2.8607

> <Gold.Chemscore.Metal>
0.0000

> <Gold.Chemscore.Lipo>
81.0347

> <Gold.Chemscore.Internal_Hbond>
0.0000

> <Gold.Chemscore.DEClash>
0.0117

> <Gold.Chemscore.DEInternal>
1.9888

> <Gold.Chemscore.Rot>
1.6001

> <Gold.Chemscore.Internal.Correction>
   9.000000E+99

> <Gold.Chemscore.Hbonds>
donor molecule, donor type, donor heavy atom, donor atom, acceptor molecule, acceptor atom, score
      L1  H     5    39       P1  7957  0.90
      L1  H     8    31       P1  7948  0.98
      L1  H    11    32       P1  7948  0.96

> <Gold.Chemscore.Hbond.Weighted>
-9.5549

> <Gold.Chemscore.Metal.Weighted>
-0.0000

> <Gold.Chemscore.Lipo.Weighted>
-9.4811

> <Gold.Chemscore.Internal_Hbond.Weighted>
0.0000

> <Gold.Chemscore.DEClash.Weighted>
0.0117

> <Gold.Chemscore.DEInternal.Weighted>
1.9888

> <Gold.Chemscore.Rot.Weighted>
4.0963

> <Gold.Chemscore.Internal.Correction.Weighted>
   9.000000E+99

> <Gold.Protein.RotatedTorsions>
[ 6907 6896 6895 6894 ] final    7.34 input  -60.11 | X-H torsion
[ 7974 7965 7964 7962 ] final  -87.12 input  175.53 | X-H torsion
[ 8008 7997 7996 7995 ] final  166.41 input   59.86 | X-H torsion
[ 10167 10162 10161 10158 ] final  106.21 input  -65.29 | X-H torsion
[ 10718 10713 10712 10709 ] final -170.08 input   66.30 | X-H torsion
[ 10763 10752 10751 10750 ] final -173.62 input  -60.55 | X-H torsion
[ 11005 11000 10999 10996 ] final -164.51 input  -57.11 | X-H torsion

> <Gold.Protein.ActiveResidues>
 VAL166  LYS551  ARG553  GLY616  TRP617  ASP618  TYR619  PRO620  LYS621  CYS622 
 ASP623  PHE694  ASN695  SER759  ASP760  ASP761  ALA762  ILE779  LEU786  VAL792 
 PHE793  MET794  SER795  GLU796  ALA797  LYS798  CYS799  TRP800  GLU811  SER814 

> <Gold.Protein.RotatedAtoms>
  151.6883  135.0950  160.0228 H   0  0  0  0  0  0  0  0  0  0  0  0  # atno 6907 bound_to 6896
  152.3794  133.6521  159.6157 H   0  0  0  0  0  0  0  0  0  0  0  0  # atno 6908 bound_to 6896
  150.7735  133.9056  159.3395 H   0  0  0  0  0  0  0  0  0  0  0  0  # atno 6909 bound_to 6896
  145.4708  140.9559  143.1918 H   0  0  0  0  0  0  0  0  0  0  0  0  # atno 7974 bound_to 7965
  156.1721  140.1644  156.8429 H   0  0  0  0  0  0  0  0  0  0  0  0  # atno 8008 bound_to 7997
  154.5267  140.0766  156.8306 H   0  0  0  0  0  0  0  0  0  0  0  0  # atno 8009 bound_to 7997
  155.3491  140.3389  155.4241 H   0  0  0  0  0  0  0  0  0  0  0  0  # atno 8010 bound_to 7997
  139.7028  144.7091  151.1156 H   0  0  0  0  0  0  0  0  0  0  0  0  # atno 10167 bound_to 10162
  156.7210  130.9270  151.3097 H   0  0  0  0  0  0  0  0  0  0  0  0  # atno 10718 bound_to 10713
  154.6057  135.2859  155.0487 H   0  0  0  0  0  0  0  0  0  0  0  0  # atno 10763 bound_to 10752
  154.1735  135.6468  153.5019 H   0  0  0  0  0  0  0  0  0  0  0  0  # atno 10764 bound_to 10752
  153.0174  135.5406  154.6793 H   0  0  0  0  0  0  0  0  0  0  0  0  # atno 10765 bound_to 10752
  140.5861  134.5092  157.5186 H   0  0  0  0  0  0  0  0  0  0  0  0  # atno 11005 bound_to 11000
  144.7946  139.6259  143.7098 LP  0  0  0  0  0  0  0  0  0  0  0  0  # atno 17320 bound_to 7965
  146.2398  139.5978  142.9499 LP  0  0  0  0  0  0  0  0  0  0  0  0  # atno 17321 bound_to 7965
  140.7714  143.5400  150.9324 LP  0  0  0  0  0  0  0  0  0  0  0  0  # atno 17342 bound_to 10162
  139.9082  143.6752  152.3120 LP  0  0  0  0  0  0  0  0  0  0  0  0  # atno 17343 bound_to 10162
  157.6898  130.9222  150.0483 LP  0  0  0  0  0  0  0  0  0  0  0  0  # atno 17370 bound_to 10713
  156.1595  130.3643  149.9321 LP  0  0  0  0  0  0  0  0  0  0  0  0  # atno 17371 bound_to 10713
  139.9295  134.7991  156.0971 LP  0  0  0  0  0  0  0  0  0  0  0  0  # atno 17394 bound_to 11000
  141.0965  133.6693  156.2657 LP  0  0  0  0  0  0  0  0  0  0  0  0  # atno 17395 bound_to 11000

$$$$
