AV-unprocessed.smi:3202|AV-procd|sdf|12247|dock2
  -GOLD-   2272018 83D 1   1.00000     0.00000
 Structure written by MMmdl.
 43 44  0  0  0  0  0  0  0  0  2 V2000
  143.7697  134.3734  152.3362 C   0  0  0  0  0  0  0  0  0  0  0  0
  144.3502  135.7566  152.3059 C   0  0  0  0  0  0  0  0  0  0  0  0
  145.6160  136.1702  151.7963 C   0  0  0  0  0  0  0  0  0  0  0  0
  145.6443  137.5187  152.0156 C   0  0  0  0  0  0  0  0  0  0  0  0
  146.6928  138.5421  151.7193 C   0  0  0  0  0  0  0  0  0  0  0  0
  147.3046  139.1972  152.9732 C   0  0  2  0  0  0  0  0  0  0  0  0
  147.0342  140.7084  153.0493 C   0  0  0  0  0  0  0  0  0  0  0  0
  148.7650  138.9572  153.0021 N   0  3  0  0  0  0  0  0  0  0  0  0
  149.3487  138.7301  154.3444 C   0  0  1  0  0  0  0  0  0  0  0  0
  150.8611  138.4680  154.3189 C   0  0  0  0  0  0  0  0  0  0  0  0
  151.3725  138.8986  155.7001 C   0  0  0  0  0  0  0  0  0  0  0  0
  150.1918  139.5848  156.4040 C   0  0  0  0  0  0  0  0  0  0  0  0
  149.1670  139.9236  155.3062 C   0  0  0  0  0  0  0  0  0  0  0  0
  149.5252  141.2802  154.6559 C   0  0  0  0  0  0  0  0  0  0  0  0
  147.7378  139.9877  155.8763 C   0  0  0  0  0  0  0  0  0  0  0  0
  144.4472  137.8346  152.6176 N   0  0  0  0  0  0  0  0  0  0  0  0
  143.6507  136.7660  152.8019 N   0  0  0  0  0  0  0  0  0  0  0  0
  144.1635  138.7605  152.9057 H   0  0  0  0  0  0  0  0  0  0  0  0
  144.3847  133.6755  151.7676 H   0  0  0  0  0  0  0  0  0  0  0  0
  142.7675  134.3568  151.9071 H   0  0  0  0  0  0  0  0  0  0  0  0
  143.7022  133.9996  153.3582 H   0  0  0  0  0  0  0  0  0  0  0  0
  146.3859  135.5657  151.3400 H   0  0  0  0  0  0  0  0  0  0  0  0
  146.2724  139.3138  151.0726 H   0  0  0  0  0  0  0  0  0  0  0  0
  147.4836  138.0682  151.1367 H   0  0  0  0  0  0  0  0  0  0  0  0
  146.8468  138.7393  153.8514 H   0  0  0  0  0  0  0  0  0  0  0  0
  145.9667  140.9218  153.1080 H   0  0  0  0  0  0  0  0  0  0  0  0
  147.4306  141.2286  152.1767 H   0  0  0  0  0  0  0  0  0  0  0  0
  147.4978  141.1438  153.9351 H   0  0  0  0  0  0  0  0  0  0  0  0
  148.9776  138.1611  152.4182 H   0  0  0  0  0  0  0  0  0  0  0  0
  148.8590  137.8594  154.7855 H   0  0  0  0  0  0  0  0  0  0  0  0
  151.0920  137.4240  154.1046 H   0  0  0  0  0  0  0  0  0  0  0  0
  151.3428  139.0723  153.5490 H   0  0  0  0  0  0  0  0  0  0  0  0
  151.7263  138.0454  156.2800 H   0  0  0  0  0  0  0  0  0  0  0  0
  152.2104  139.5881  155.5910 H   0  0  0  0  0  0  0  0  0  0  0  0
  149.7556  138.8801  157.1138 H   0  0  0  0  0  0  0  0  0  0  0  0
  150.5029  140.4579  156.9789 H   0  0  0  0  0  0  0  0  0  0  0  0
  149.4894  142.0863  155.3894 H   0  0  0  0  0  0  0  0  0  0  0  0
  148.8275  141.5426  153.8602 H   0  0  0  0  0  0  0  0  0  0  0  0
  150.5277  141.2796  154.2279 H   0  0  0  0  0  0  0  0  0  0  0  0
  147.6456  140.7809  156.6192 H   0  0  0  0  0  0  0  0  0  0  0  0
  147.4542  139.0523  156.3600 H   0  0  0  0  0  0  0  0  0  0  0  0
  147.0075  140.1856  155.0909 H   0  0  0  0  0  0  0  0  0  0  0  0
  149.2164  139.7695  152.6064 H   0  0  0  0  0  0  0  0  0  0  0  0
  1 19  1  0  0  0  0
  1 20  1  0  0  0  0
  1 21  1  0  0  0  0
  1  2  1  0  0  0  0
  2 17  2  0  0  0  0
  2  3  1  0  0  0  0
  3  4  2  0  0  0  0
  3 22  1  0  0  0  0
  4 16  1  0  0  0  0
  4  5  1  0  0  0  0
  5  6  1  0  0  0  0
  5 23  1  0  0  0  0
  5 24  1  0  0  0  0
  6  7  1  0  0  0  0
  6  8  1  0  0  0  0
  6 25  1  0  0  0  0
  7 26  1  0  0  0  0
  7 27  1  0  0  0  0
  7 28  1  0  0  0  0
  8  9  1  0  0  0  0
  8 29  1  0  0  0  0
  8 43  1  0  0  0  0
  9 13  1  0  0  0  0
  9 10  1  0  0  0  0
  9 30  1  0  0  0  0
 10 11  1  0  0  0  0
 10 31  1  0  0  0  0
 10 32  1  0  0  0  0
 11 12  1  0  0  0  0
 11 33  1  0  0  0  0
 11 34  1  0  0  0  0
 12 13  1  0  0  0  0
 12 35  1  0  0  0  0
 12 36  1  0  0  0  0
 13 14  1  0  0  0  0
 13 15  1  0  0  0  0
 14 37  1  0  0  0  0
 14 38  1  0  0  0  0
 14 39  1  0  0  0  0
 15 40  1  0  0  0  0
 15 41  1  0  0  0  0
 15 42  1  0  0  0  0
 16 17  1  0  0  0  0
 16 18  1  0  0  0  0
M  CHG  1   8   1
M  END
> <s_m_source_file>
AV-unprocessed.smi

> <i_m_source_file_index>
3202

> <i_lp_mmshare_version>
43012

> <i_f3d_flags>
0

> <s_epik_input>
W0NIM11jMVtjSF1jKG5bbkhdMSlbQ0gyXVtDQEhdKFtDSDNdKVtOSF1bQ0BASF0oQzIoW0NIM10pW0NIM10pW0NIMl1bQ0gyXVtDSDJdMg==

> <s_epik_cmdline>
J2VwaWtfcHl0aG9uJywgJy1waCcsICc3LjAnLCAnLXRuJywgJzgnLCAnLW1hJywgJzIwMCcsICctbWV0YWxfYmluZGluZycsICctaW1hZScsICc8aW5maWxlLm1hZT4nLCAnLW9tYWUnLCAnPG91dGZpbGUubWFlPic=

> <r_lp_tautomer_probability>
0.5

> <r_epik_Ionization_Penalty>
0.000449684

> <r_epik_Ionization_Penalty_Charging>
0.000404963

> <r_epik_Ionization_Penalty_Neutral>
4.47208e-05

> <r_epik_State_Penalty>
0.41068

> <r_epik_Charging_Adjusted_Penalty>
0.411085

> <i_epik_Tot_Q>
1

> <i_epik_Tot_abs_Q>
1

> <r_epik_Metal_State_Penalty>
0.410687

> <b_epik_Metal_Only>
0

> <s_lp_Force_Field>
OPLS_2005

> <r_lp_Energy>
32.0397

> <b_lp_Chiralities_Consistent>
1

> <s_lp_Variant>
AV-unprocessed.smi:3202-7

> <Gold.Version>
5.8.1

> <Gold.Id.Protein>
6NUR|6NUR_protein|mol2

> <Gold.PLP.Fitness>
39.3018

> <Gold.PLP.PLP>
-31.1375

> <Gold.PLP.part.hbond>
-3.1905

> <Gold.PLP.part.metal>
0.0000

> <Gold.PLP.part.buried>
0.0103

> <Gold.PLP.part.nonpolar>
-28.2644

> <Gold.PLP.part.repulsive>
0.2908

> <Gold.PLP.ligand.clash>
0.0000

> <Gold.PLP.ligand.torsion>
1.2313

> <Gold.PLP.Chemscore.Hbond>
3.5360

> <Gold.PLP.Chemscore.CHOScore>
0.0000

> <Gold.PLP.Chemscore.Metal>
0.0000

> <Gold.Chemscore.Hbonds>
donor molecule, donor type, donor heavy atom, donor atom, acceptor molecule, acceptor atom, score
      L1  H     8    29       P1  7948  2.00
      L1  H     8    43       P1  7957  0.56
      L1  H    16    18       P1 10175  0.98

> <Gold.PLP.Chemscore.Internal.Correction>
0.0190

> <Gold.Rescore>
     Score         DG    S(hbond)    S(metal)    S(lipo)     H(rot)  DE(clash)    DE(int)     intcor
     17.53     -19.76       2.52        0.00      81.96       1.46       0.09       2.14       ----

> <Gold.Chemscore.Fitness>
17.5340

> <Gold.Chemscore.DG>
-19.7616

> <Gold.Chemscore.ZeroCoef>
-5.4800

> <Gold.Chemscore.Hbond>
2.5235

> <Gold.Chemscore.Metal>
0.0000

> <Gold.Chemscore.Lipo>
81.9626

> <Gold.Chemscore.Internal_Hbond>
0.0000

> <Gold.Chemscore.DEClash>
0.0922

> <Gold.Chemscore.DEInternal>
2.1354

> <Gold.Chemscore.Rot>
1.4596

> <Gold.Chemscore.Internal.Correction>
   9.000000E+99

> <Gold.Chemscore.Hbonds>
donor molecule, donor type, donor heavy atom, donor atom, acceptor molecule, acceptor atom, score
      L1  H     8    29       P1  7948  0.96
      L1  H     8    43       P1  7957  0.54
      L1  H    16    18       P1 10175  0.93

> <Gold.Chemscore.Hbond.Weighted>
-8.4284

> <Gold.Chemscore.Metal.Weighted>
-0.0000

> <Gold.Chemscore.Lipo.Weighted>
-9.5896

> <Gold.Chemscore.Internal_Hbond.Weighted>
0.0000

> <Gold.Chemscore.DEClash.Weighted>
0.0922

> <Gold.Chemscore.DEInternal.Weighted>
2.1354

> <Gold.Chemscore.Rot.Weighted>
3.7365

> <Gold.Chemscore.Internal.Correction.Weighted>
   9.000000E+99

> <Gold.Protein.RotatedTorsions>
[ 6907 6896 6895 6894 ] final  -90.92 input  -60.11 | X-H torsion
[ 7974 7965 7964 7962 ] final  -95.87 input  175.53 | X-H torsion
[ 8008 7997 7996 7995 ] final   63.47 input   59.86 | X-H torsion
[ 10167 10162 10161 10158 ] final  -24.77 input  -65.29 | X-H torsion
[ 10718 10713 10712 10709 ] final   70.68 input   66.30 | X-H torsion
[ 10763 10752 10751 10750 ] final  -51.83 input  -60.55 | X-H torsion
[ 11005 11000 10999 10996 ] final   11.87 input  -57.11 | X-H torsion

> <Gold.Protein.ActiveResidues>
 VAL166  LYS551  ARG553  GLY616  TRP617  ASP618  TYR619  PRO620  LYS621  CYS622 
 ASP623  PHE694  ASN695  SER759  ASP760  ASP761  ALA762  ILE779  LEU786  VAL792 
 PHE793  MET794  SER795  GLU796  ALA797  LYS798  CYS799  TRP800  GLU811  SER814 

> <Gold.Protein.RotatedAtoms>
  150.6887  134.2357  159.4452 H   0  0  0  0  0  0  0  0  0  0  0  0  # atno 6907 bound_to 6896
  152.0305  134.9768  160.0581 H   0  0  0  0  0  0  0  0  0  0  0  0  # atno 6908 bound_to 6896
  152.1309  133.4372  159.4757 H   0  0  0  0  0  0  0  0  0  0  0  0  # atno 6909 bound_to 6896
  145.3544  140.9482  143.2536 H   0  0  0  0  0  0  0  0  0  0  0  0  # atno 7974 bound_to 7965
  155.6308  140.3496  155.4682 H   0  0  0  0  0  0  0  0  0  0  0  0  # atno 8008 bound_to 7997
  156.0004  140.1212  157.0576 H   0  0  0  0  0  0  0  0  0  0  0  0  # atno 8009 bound_to 7997
  154.4247  140.1101  156.5676 H   0  0  0  0  0  0  0  0  0  0  0  0  # atno 8010 bound_to 7997
  140.7288  143.4324  151.0782 H   0  0  0  0  0  0  0  0  0  0  0  0  # atno 10167 bound_to 10162
  157.6412  130.9489  150.0684 H   0  0  0  0  0  0  0  0  0  0  0  0  # atno 10718 bound_to 10713
  154.1330  135.6517  153.4926 H   0  0  0  0  0  0  0  0  0  0  0  0  # atno 10763 bound_to 10752
  153.0189  135.5297  154.6982 H   0  0  0  0  0  0  0  0  0  0  0  0  # atno 10764 bound_to 10752
  154.6222  135.2966  155.0283 H   0  0  0  0  0  0  0  0  0  0  0  0  # atno 10765 bound_to 10752
  140.4984  134.0770  155.7788 H   0  0  0  0  0  0  0  0  0  0  0  0  # atno 11005 bound_to 11000
  144.8693  139.5061  143.6775 LP  0  0  0  0  0  0  0  0  0  0  0  0  # atno 17320 bound_to 7965
  146.2954  139.7263  142.9130 LP  0  0  0  0  0  0  0  0  0  0  0  0  # atno 17321 bound_to 7965
  139.7982  143.8121  152.3160 LP  0  0  0  0  0  0  0  0  0  0  0  0  # atno 17342 bound_to 10162
  139.8129  144.7328  150.9674 LP  0  0  0  0  0  0  0  0  0  0  0  0  # atno 17343 bound_to 10162
  156.1695  130.3646  149.9185 LP  0  0  0  0  0  0  0  0  0  0  0  0  # atno 17370 bound_to 10713
  156.7163  130.8990  151.3614 LP  0  0  0  0  0  0  0  0  0  0  0  0  # atno 17371 bound_to 10713
  141.1448  133.9074  157.2241 LP  0  0  0  0  0  0  0  0  0  0  0  0  # atno 17394 bound_to 11000
  139.9728  135.0123  156.9554 LP  0  0  0  0  0  0  0  0  0  0  0  0  # atno 17395 bound_to 11000

$$$$
