AV-unprocessed.smi:763|AV-procd|sdf|3635|dock1
  -GOLD-   22720 1 33D 1   1.00000     0.00000
 Structure written by MMmdl.
 44 45  0  0  0  0  0  0  0  0  1 V2000
  152.7123  141.2572  159.6909 C   0  0  0  0  0  0  0  0  0  0  0  0
  152.0153  140.4949  158.7182 O   0  0  0  0  0  0  0  0  0  0  0  0
  150.6842  140.9348  158.4865 C   0  0  0  0  0  0  0  0  0  0  0  0
  149.7469  139.7710  158.1347 C   0  0  0  0  0  0  0  0  0  0  0  0
  148.4829  140.3189  157.7799 O   0  0  0  0  0  0  0  0  0  0  0  0
  148.2665  140.7348  156.4821 C   0  0  0  0  0  0  0  0  0  0  0  0
  148.9382  140.0930  155.4921 N   0  0  0  0  0  0  0  0  0  0  0  0
  148.7638  140.5023  154.2192 C   0  0  0  0  0  0  0  0  0  0  0  0
  147.9207  141.5703  153.8634 C   0  0  0  0  0  0  0  0  0  0  0  0
  147.2219  142.2358  154.8867 C   0  0  0  0  0  0  0  0  0  0  0  0
  147.3823  141.8146  156.2227 C   0  0  0  0  0  0  0  0  0  0  0  0
  146.6655  142.4923  157.2179 N   0  0  0  0  0  0  0  0  0  0  0  0
  146.6457  142.2339  158.9353 S   0  0  0  0  0  0  0  0  0  0  0  0
  146.0552  140.9001  159.1307 O   0  0  0  0  0  0  0  0  0  0  0  0
  148.0140  142.5269  159.3882 O   0  0  0  0  0  0  0  0  0  0  0  0
  145.4464  143.5468  159.5079 C   0  0  1  0  0  0  0  0  0  0  0  0
  144.1226  142.9118  159.9809 C   0  0  0  0  0  0  0  0  0  0  0  0
  144.2853  142.1757  161.3224 C   0  0  0  0  0  0  0  0  0  0  0  0
  144.8193  143.1226  162.4096 C   0  0  0  0  0  0  0  0  0  0  0  0
  146.1412  143.7827  161.9847 C   0  0  0  0  0  0  0  0  0  0  0  0
  146.0022  144.4780  160.6143 C   0  0  1  0  0  0  0  0  0  0  0  0
  147.2273  145.0609  160.2212 O   0  0  0  0  0  0  0  0  0  0  0  0
  153.7371  140.8948  159.7689 H   0  0  0  0  0  0  0  0  0  0  0  0
  152.2562  141.1715  160.6769 H   0  0  0  0  0  0  0  0  0  0  0  0
  152.7513  142.3112  159.4134 H   0  0  0  0  0  0  0  0  0  0  0  0
  150.3036  141.5039  159.3362 H   0  0  0  0  0  0  0  0  0  0  0  0
  150.7169  141.6258  157.6436 H   0  0  0  0  0  0  0  0  0  0  0  0
  150.1603  139.2067  157.2971 H   0  0  0  0  0  0  0  0  0  0  0  0
  149.6390  139.0951  158.9838 H   0  0  0  0  0  0  0  0  0  0  0  0
  149.3159  139.9650  153.4624 H   0  0  0  0  0  0  0  0  0  0  0  0
  147.8116  141.8699  152.8317 H   0  0  0  0  0  0  0  0  0  0  0  0
  146.5641  143.0578  154.6448 H   0  0  0  0  0  0  0  0  0  0  0  0
  145.9199  143.0762  156.8689 H   0  0  0  0  0  0  0  0  0  0  0  0
  145.2201  144.1477  158.6268 H   0  0  0  0  0  0  0  0  0  0  0  0
  143.3713  143.6940  160.0948 H   0  0  0  0  0  0  0  0  0  0  0  0
  143.7298  142.2335  159.2235 H   0  0  0  0  0  0  0  0  0  0  0  0
  143.3264  141.7606  161.6343 H   0  0  0  0  0  0  0  0  0  0  0  0
  144.9625  141.3290  161.2057 H   0  0  0  0  0  0  0  0  0  0  0  0
  144.0771  143.8954  162.6138 H   0  0  0  0  0  0  0  0  0  0  0  0
  144.9599  142.5765  163.3429 H   0  0  0  0  0  0  0  0  0  0  0  0
  146.4407  144.5106  162.7394 H   0  0  0  0  0  0  0  0  0  0  0  0
  146.9286  143.0313  161.9692 H   0  0  0  0  0  0  0  0  0  0  0  0
  145.2994  145.3033  160.7358 H   0  0  0  0  0  0  0  0  0  0  0  0
  147.2083  145.1998  159.2867 H   0  0  0  0  0  0  0  0  0  0  0  0
  1  2  1  0  0  0  0
  1 23  1  0  0  0  0
  1 24  1  0  0  0  0
  1 25  1  0  0  0  0
  2  3  1  0  0  0  0
  3  4  1  0  0  0  0
  3 26  1  0  0  0  0
  3 27  1  0  0  0  0
  4  5  1  0  0  0  0
  4 28  1  0  0  0  0
  4 29  1  0  0  0  0
  5  6  1  0  0  0  0
  6 11  1  0  0  0  0
  6  7  2  0  0  0  0
  7  8  1  0  0  0  0
  8  9  2  0  0  0  0
  8 30  1  0  0  0  0
  9 10  1  0  0  0  0
  9 31  1  0  0  0  0
 10 11  2  0  0  0  0
 10 32  1  0  0  0  0
 11 12  1  0  0  0  0
 12 13  1  0  0  0  0
 12 33  1  0  0  0  0
 13 14  2  0  0  0  0
 13 15  2  0  0  0  0
 13 16  1  0  0  0  0
 16 21  1  0  0  0  0
 16 17  1  0  0  0  0
 16 34  1  0  0  0  0
 17 18  1  0  0  0  0
 17 35  1  0  0  0  0
 17 36  1  0  0  0  0
 18 19  1  0  0  0  0
 18 37  1  0  0  0  0
 18 38  1  0  0  0  0
 19 20  1  0  0  0  0
 19 39  1  0  0  0  0
 19 40  1  0  0  0  0
 20 21  1  0  0  0  0
 20 41  1  0  0  0  0
 20 42  1  0  0  0  0
 21 22  1  0  0  0  0
 21 43  1  0  0  0  0
 22 44  1  0  0  0  0
M  END
> <s_m_source_file>
AV-unprocessed.smi

> <i_m_source_file_index>
763

> <i_lp_mmshare_version>
43012

> <i_f3d_flags>
0

> <s_epik_input>
W0NIM11PW0NIMl1bQ0gyXU9jMW5bY0hdW2NIXVtjSF1jMVtOSF1TKD1PKSg9TylbQ0BASF0yW0NIMl1bQ0gyXVtDSDJdW0NIMl1bQ0BIXTJbT0hd

> <s_epik_cmdline>
J2VwaWtfcHl0aG9uJywgJy1waCcsICc3LjAnLCAnLXRuJywgJzgnLCAnLW1hJywgJzIwMCcsICctbWV0YWxfYmluZGluZycsICctaW1hZScsICc8aW5maWxlLm1hZT4nLCAnLW9tYWUnLCAnPG91dGZpbGUubWFlPic=

> <r_epik_Ionization_Penalty>
0.124685

> <r_epik_Ionization_Penalty_Charging>
0

> <r_epik_Ionization_Penalty_Neutral>
0.124685

> <r_epik_State_Penalty>
0.114154

> <r_epik_Charging_Adjusted_Penalty>
0.114154

> <i_epik_Tot_Q>
0

> <i_epik_Tot_abs_Q>
0

> <r_epik_Metal_State_Penalty>
0.443785

> <b_epik_Metal_Only>
0

> <s_lp_Force_Field>
OPLS_2005

> <r_lp_Energy>
7.3887

> <b_lp_Chiralities_Consistent>
1

> <s_lp_Variant>
AV-unprocessed.smi:763-2

> <Gold.Version>
5.8.1

> <Gold.Id.Protein>
6NUR|6NUR_protein|mol2

> <Gold.PLP.Fitness>
38.9278

> <Gold.PLP.PLP>
-32.3261

> <Gold.PLP.part.hbond>
-2.8589

> <Gold.PLP.part.metal>
0.0000

> <Gold.PLP.part.buried>
-4.2677

> <Gold.PLP.part.nonpolar>
-25.6398

> <Gold.PLP.part.repulsive>
0.2123

> <Gold.PLP.ligand.clash>
0.0000

> <Gold.PLP.ligand.torsion>
1.6538

> <Gold.PLP.Chemscore.Hbond>
1.8323

> <Gold.PLP.Chemscore.CHOScore>
1.0000

> <Gold.PLP.Chemscore.Metal>
0.0000

> <Gold.Chemscore.Hbonds>
donor molecule, donor type, donor heavy atom, donor atom, acceptor molecule, acceptor atom, score
      L1  H    22    44       P1  8029  0.49
      P1  H  6933  6944       L1    15  0.35
      P1  H  6934  6946       L1    14  0.21
      L1  C     8    30       P1  7957  1.00

> <Gold.PLP.Chemscore.Internal.Correction>
1.4125

> <Gold.Rescore>
     Score         DG    S(hbond)    S(metal)    S(lipo)     H(rot)  DE(clash)    DE(int)     intcor
      7.83     -13.70       1.84        0.00      70.41       2.41       0.20       5.68       ----

> <Gold.Chemscore.Fitness>
7.8282

> <Gold.Chemscore.DG>
-13.7011

> <Gold.Chemscore.ZeroCoef>
-5.4800

> <Gold.Chemscore.Hbond>
1.8386

> <Gold.Chemscore.Metal>
0.0000

> <Gold.Chemscore.Lipo>
70.4064

> <Gold.Chemscore.Internal_Hbond>
0.0000

> <Gold.Chemscore.DEClash>
0.1976

> <Gold.Chemscore.DEInternal>
5.6752

> <Gold.Chemscore.Rot>
2.4052

> <Gold.Chemscore.Internal.Correction>
   9.000000E+99

> <Gold.Chemscore.Hbonds>
donor molecule, donor type, donor heavy atom, donor atom, acceptor molecule, acceptor atom, score
      L1  H    22    44       P1  8029  0.47
      P1  H  6933  6944       L1    15  0.34
      P1  H  6934  6946       L1    14  0.01

> <Gold.Chemscore.Hbond.Weighted>
-6.1410

> <Gold.Chemscore.Metal.Weighted>
-0.0000

> <Gold.Chemscore.Lipo.Weighted>
-8.2376

> <Gold.Chemscore.Internal_Hbond.Weighted>
0.0000

> <Gold.Chemscore.DEClash.Weighted>
0.1976

> <Gold.Chemscore.DEInternal.Weighted>
5.6752

> <Gold.Chemscore.Rot.Weighted>
6.1574

> <Gold.Chemscore.Internal.Correction.Weighted>
   9.000000E+99

> <Gold.Protein.RotatedTorsions>
[ 6907 6896 6895 6894 ] final    8.48 input  -60.11 | X-H torsion
[ 7974 7965 7964 7962 ] final   35.95 input  175.53 | X-H torsion
[ 8008 7997 7996 7995 ] final -143.27 input   59.86 | X-H torsion
[ 10167 10162 10161 10158 ] final   -2.47 input  -65.29 | X-H torsion
[ 10718 10713 10712 10709 ] final -106.17 input   66.30 | X-H torsion
[ 10763 10752 10751 10750 ] final  162.01 input  -60.55 | X-H torsion
[ 11005 11000 10999 10996 ] final  164.42 input  -57.11 | X-H torsion

> <Gold.Protein.ActiveResidues>
 VAL166  LYS551  ARG553  GLY616  TRP617  ASP618  TYR619  PRO620  LYS621  CYS622 
 ASP623  PHE694  ASN695  SER759  ASP760  ASP761  ALA762  ILE779  LEU786  VAL792 
 PHE793  MET794  SER795  GLU796  ALA797  LYS798  CYS799  TRP800  GLU811  SER814 

> <Gold.Protein.RotatedAtoms>
  151.7067  135.0920  160.0260 H   0  0  0  0  0  0  0  0  0  0  0  0  # atno 6907 bound_to 6896
  152.3687  133.6386  159.6079 H   0  0  0  0  0  0  0  0  0  0  0  0  # atno 6908 bound_to 6896
  150.7657  133.9222  159.3443 H   0  0  0  0  0  0  0  0  0  0  0  0  # atno 6909 bound_to 6896
  146.1246  139.6078  142.9267 H   0  0  0  0  0  0  0  0  0  0  0  0  # atno 7974 bound_to 7965
  155.5079  140.0581  157.2928 H   0  0  0  0  0  0  0  0  0  0  0  0  # atno 8008 bound_to 7997
  154.4563  140.1974  156.0320 H   0  0  0  0  0  0  0  0  0  0  0  0  # atno 8009 bound_to 7997
  156.0804  140.3248  155.7691 H   0  0  0  0  0  0  0  0  0  0  0  0  # atno 8010 bound_to 7997
  140.6852  143.6654  150.8231 H   0  0  0  0  0  0  0  0  0  0  0  0  # atno 10167 bound_to 10162
  156.0378  130.5600  150.7643 H   0  0  0  0  0  0  0  0  0  0  0  0  # atno 10718 bound_to 10713
  154.2718  135.2765  155.2735 H   0  0  0  0  0  0  0  0  0  0  0  0  # atno 10763 bound_to 10752
  154.5295  135.5734  153.6750 H   0  0  0  0  0  0  0  0  0  0  0  0  # atno 10764 bound_to 10752
  152.9944  135.6224  154.2873 H   0  0  0  0  0  0  0  0  0  0  0  0  # atno 10765 bound_to 10752
  140.2457  134.8016  157.3454 H   0  0  0  0  0  0  0  0  0  0  0  0  # atno 11005 bound_to 11000
  145.5392  141.0422  143.2340 LP  0  0  0  0  0  0  0  0  0  0  0  0  # atno 17320 bound_to 7965
  144.7630  139.6912  143.7226 LP  0  0  0  0  0  0  0  0  0  0  0  0  # atno 17321 bound_to 7965
  140.0359  143.5395  152.2739 LP  0  0  0  0  0  0  0  0  0  0  0  0  # atno 17342 bound_to 10162
  139.6205  144.7628  151.2751 LP  0  0  0  0  0  0  0  0  0  0  0  0  # atno 17343 bound_to 10162
  157.5154  131.0928  151.0146 LP  0  0  0  0  0  0  0  0  0  0  0  0  # atno 17370 bound_to 10713
  157.0490  130.5779  149.5367 LP  0  0  0  0  0  0  0  0  0  0  0  0  # atno 17371 bound_to 10713
  140.1608  134.4731  155.7896 LP  0  0  0  0  0  0  0  0  0  0  0  0  # atno 17394 bound_to 11000
  141.2206  133.6900  156.7541 LP  0  0  0  0  0  0  0  0  0  0  0  0  # atno 17395 bound_to 11000

$$$$
