AV-unprocessed.smi:1065|AV-procd|sdf|4667|dock7
  -GOLD-   22720 3183D 1   1.00000     0.00000
 Structure written by MMmdl.
 39 40  0  0  0  0  0  0  0  0  1 V2000
  153.9003  141.7031  161.7004 C   0  0  0  0  0  0  0  0  0  0  0  0
  153.2124  141.6222  160.3304 C   0  0  0  0  0  0  0  0  0  0  0  0
  152.6754  142.9726  159.8139 C   0  0  2  0  0  0  0  0  0  0  0  0
  152.1928  143.8522  160.9851 C   0  0  0  0  0  0  0  0  0  0  0  0
  151.6446  145.2068  160.5018 C   0  0  0  0  0  0  0  0  0  0  0  0
  150.5194  145.0511  159.4594 C   0  0  2  0  0  0  0  0  0  0  0  0
  149.1975  144.5714  160.0981 C   0  0  0  0  0  0  0  0  0  0  0  0
  148.2703  144.0825  159.0868 N   0  0  0  0  0  0  0  0  0  0  0  0
  147.2162  143.2896  159.3271 C   0  0  0  0  0  0  0  0  0  0  0  0
  146.8739  142.9365  160.4551 O   0  0  0  0  0  0  0  0  0  0  0  0
  146.4325  142.8123  158.1041 C   0  0  0  0  0  0  0  0  0  0  0  0
  147.1333  141.7359  157.4283 N   0  0  0  0  0  0  0  0  0  0  0  0
  147.6873  141.6754  156.2155 C   0  0  0  0  0  0  0  0  0  0  0  0
  148.2127  140.4834  155.9775 N   0  0  0  0  0  0  0  0  0  0  0  0
  147.9490  139.7842  157.1438 N   0  0  0  0  0  0  0  0  0  0  0  0
  147.3084  140.5220  158.0083 N   0  0  0  0  0  0  0  0  0  0  0  0
  151.0068  144.1611  158.2939 C   0  0  0  0  0  0  0  0  0  0  0  0
  151.5445  142.8030  158.7767 C   0  0  0  0  0  0  0  0  0  0  0  0
  154.1851  140.7094  162.0466 H   0  0  0  0  0  0  0  0  0  0  0  0
  153.2376  142.1369  162.4496 H   0  0  0  0  0  0  0  0  0  0  0  0
  154.8075  142.3056  161.6624 H   0  0  0  0  0  0  0  0  0  0  0  0
  153.8998  141.1918  159.6012 H   0  0  0  0  0  0  0  0  0  0  0  0
  152.3829  140.9189  160.4126 H   0  0  0  0  0  0  0  0  0  0  0  0
  153.5011  143.4967  159.3301 H   0  0  0  0  0  0  0  0  0  0  0  0
  151.4271  143.3239  161.5539 H   0  0  0  0  0  0  0  0  0  0  0  0
  153.0156  144.0275  161.6792 H   0  0  0  0  0  0  0  0  0  0  0  0
  151.2931  145.7914  161.3526 H   0  0  0  0  0  0  0  0  0  0  0  0
  152.4613  145.7797  160.0609 H   0  0  0  0  0  0  0  0  0  0  0  0
  150.3237  146.0431  159.0489 H   0  0  0  0  0  0  0  0  0  0  0  0
  149.3895  143.7872  160.8314 H   0  0  0  0  0  0  0  0  0  0  0  0
  148.7208  145.3927  160.6342 H   0  0  0  0  0  0  0  0  0  0  0  0
  148.4730  144.3254  158.1275 H   0  0  0  0  0  0  0  0  0  0  0  0
  145.4472  142.4537  158.4041 H   0  0  0  0  0  0  0  0  0  0  0  0
  146.2798  143.6416  157.4116 H   0  0  0  0  0  0  0  0  0  0  0  0
  147.6991  142.4951  155.5118 H   0  0  0  0  0  0  0  0  0  0  0  0
  150.2156  144.0075  157.5595 H   0  0  0  0  0  0  0  0  0  0  0  0
  151.8032  144.6823  157.7613 H   0  0  0  0  0  0  0  0  0  0  0  0
  151.9044  142.2453  157.9124 H   0  0  0  0  0  0  0  0  0  0  0  0
  150.7321  142.2131  159.2024 H   0  0  0  0  0  0  0  0  0  0  0  0
  1  2  1  0  0  0  0
  1 19  1  0  0  0  0
  1 20  1  0  0  0  0
  1 21  1  0  0  0  0
  2  3  1  0  0  0  0
  2 22  1  0  0  0  0
  2 23  1  0  0  0  0
  3 18  1  0  0  0  0
  3  4  1  0  0  0  0
  3 24  1  0  0  0  0
  4  5  1  0  0  0  0
  4 25  1  0  0  0  0
  4 26  1  0  0  0  0
  5  6  1  0  0  0  0
  5 27  1  0  0  0  0
  5 28  1  0  0  0  0
  6  7  1  0  0  0  0
  6 17  1  0  0  0  0
  6 29  1  0  0  0  0
  7  8  1  0  0  0  0
  7 30  1  0  0  0  0
  7 31  1  0  0  0  0
  8  9  1  0  0  0  0
  8 32  1  0  0  0  0
  9 10  2  0  0  0  0
  9 11  1  0  0  0  0
 11 12  1  0  0  0  0
 11 33  1  0  0  0  0
 11 34  1  0  0  0  0
 12 16  1  0  0  0  0
 12 13  1  0  0  0  0
 13 14  2  0  0  0  0
 13 35  1  0  0  0  0
 14 15  1  0  0  0  0
 15 16  2  0  0  0  0
 17 18  1  0  0  0  0
 17 36  1  0  0  0  0
 17 37  1  0  0  0  0
 18 38  1  0  0  0  0
 18 39  1  0  0  0  0
M  END
> <s_m_source_file>
AV-unprocessed.smi

> <i_m_source_file_index>
1065

> <i_lp_mmshare_version>
43012

> <i_f3d_flags>
0

> <s_epik_input>
W0NIM11bQ0gyXVtDQEBIXTFbQ0gyXVtDSDJdW0NASF0oW0NIMl1bQ0gyXTEpW0NIMl1bTkhdQyg9TylbQ0gyXW4yW2NIXW5ubjI=

> <s_epik_cmdline>
J2VwaWtfcHl0aG9uJywgJy1waCcsICc3LjAnLCAnLXRuJywgJzgnLCAnLW1hJywgJzIwMCcsICctbWV0YWxfYmluZGluZycsICctaW1hZScsICc8aW5maWxlLm1hZT4nLCAnLW9tYWUnLCAnPG91dGZpbGUubWFlPic=

> <r_lp_tautomer_probability>
1

> <r_epik_Ionization_Penalty>
4.54759e-07

> <r_epik_Ionization_Penalty_Charging>
0

> <r_epik_Ionization_Penalty_Neutral>
4.54759e-07

> <r_epik_State_Penalty>
-0

> <r_epik_Charging_Adjusted_Penalty>
0

> <i_epik_Tot_Q>
0

> <i_epik_Tot_abs_Q>
0

> <r_epik_Metal_State_Penalty>
-0

> <b_epik_Metal_Only>
0

> <s_lp_Force_Field>
OPLS_2005

> <r_lp_Energy>
15.297

> <b_lp_Chiralities_Consistent>
1

> <s_lp_Variant>
AV-unprocessed.smi:1065-2

> <Gold.Version>
5.8.1

> <Gold.Id.Protein>
6NUR|6NUR_protein|mol2

> <Gold.PLP.Fitness>
44.6154

> <Gold.PLP.PLP>
-36.5746

> <Gold.PLP.part.hbond>
-3.9528

> <Gold.PLP.part.metal>
0.0000

> <Gold.PLP.part.buried>
-4.8087

> <Gold.PLP.part.nonpolar>
-29.4417

> <Gold.PLP.part.repulsive>
0.1779

> <Gold.PLP.ligand.clash>
0.0000

> <Gold.PLP.ligand.torsion>
0.8338

> <Gold.PLP.Chemscore.Hbond>
2.2291

> <Gold.PLP.Chemscore.CHOScore>
1.0000

> <Gold.PLP.Chemscore.Metal>
0.0000

> <Gold.Chemscore.Hbonds>
donor molecule, donor type, donor heavy atom, donor atom, acceptor molecule, acceptor atom, score
      L1  H     8    32       P1  8029  0.50
      P1  H  6933  6944       L1    10  0.96
      P1  H  6934  6946       L1    10  0.76
      L1  C    13    35       P1  8028  1.00

> <Gold.PLP.Chemscore.Internal.Correction>
0.0210

> <Gold.Rescore>
     Score         DG    S(hbond)    S(metal)    S(lipo)     H(rot)  DE(clash)    DE(int)     intcor
     16.22     -17.01       2.10        0.00      92.12       2.45       0.14       0.66       ----

> <Gold.Chemscore.Fitness>
16.2161

> <Gold.Chemscore.DG>
-17.0112

> <Gold.Chemscore.ZeroCoef>
-5.4800

> <Gold.Chemscore.Hbond>
2.1041

> <Gold.Chemscore.Metal>
0.0000

> <Gold.Chemscore.Lipo>
92.1250

> <Gold.Chemscore.Internal_Hbond>
0.0000

> <Gold.Chemscore.DEClash>
0.1378

> <Gold.Chemscore.DEInternal>
0.6572

> <Gold.Chemscore.Rot>
2.4512

> <Gold.Chemscore.Internal.Correction>
   9.000000E+99

> <Gold.Chemscore.Hbonds>
donor molecule, donor type, donor heavy atom, donor atom, acceptor molecule, acceptor atom, score
      L1  H     8    32       P1  8029  0.13
      P1  H  6933  6944       L1    10  0.63
      P1  H  6934  6946       L1    10  0.62

> <Gold.Chemscore.Hbond.Weighted>
-7.0275

> <Gold.Chemscore.Metal.Weighted>
-0.0000

> <Gold.Chemscore.Lipo.Weighted>
-10.7786

> <Gold.Chemscore.Internal_Hbond.Weighted>
0.0000

> <Gold.Chemscore.DEClash.Weighted>
0.1378

> <Gold.Chemscore.DEInternal.Weighted>
0.6572

> <Gold.Chemscore.Rot.Weighted>
6.2750

> <Gold.Chemscore.Internal.Correction.Weighted>
   9.000000E+99

> <Gold.Protein.RotatedTorsions>
[ 6907 6896 6895 6894 ] final -139.75 input  -60.11 | X-H torsion
[ 7974 7965 7964 7962 ] final   24.36 input  175.53 | X-H torsion
[ 8008 7997 7996 7995 ] final  128.66 input   59.86 | X-H torsion
[ 10167 10162 10161 10158 ] final   73.44 input  -65.29 | X-H torsion
[ 10718 10713 10712 10709 ] final  157.95 input   66.30 | X-H torsion
[ 10763 10752 10751 10750 ] final  125.40 input  -60.55 | X-H torsion
[ 11005 11000 10999 10996 ] final -173.43 input  -57.11 | X-H torsion

> <Gold.Protein.ActiveResidues>
 VAL166  LYS551  ARG553  GLY616  TRP617  ASP618  TYR619  PRO620  LYS621  CYS622 
 ASP623  PHE694  ASN695  SER759  ASP760  ASP761  ALA762  ILE779  LEU786  VAL792 
 PHE793  MET794  SER795  GLU796  ALA797  LYS798  CYS799  TRP800  GLU811  SER814 

> <Gold.Protein.RotatedAtoms>
  151.0518  133.5618  159.2641 H   0  0  0  0  0  0  0  0  0  0  0  0  # atno 6907 bound_to 6896
  151.2626  135.0658  159.9114 H   0  0  0  0  0  0  0  0  0  0  0  0  # atno 6908 bound_to 6896
  152.5383  134.0261  159.8057 H   0  0  0  0  0  0  0  0  0  0  0  0  # atno 6909 bound_to 6896
  146.1941  139.7616  142.8810 H   0  0  0  0  0  0  0  0  0  0  0  0  # atno 7974 bound_to 7965
  156.2920  140.2639  156.2472 H   0  0  0  0  0  0  0  0  0  0  0  0  # atno 8008 bound_to 7997
  154.9918  140.0388  157.2341 H   0  0  0  0  0  0  0  0  0  0  0  0  # atno 8009 bound_to 7997
  154.7679  140.2772  155.6166 H   0  0  0  0  0  0  0  0  0  0  0  0  # atno 8010 bound_to 7997
  140.0245  144.5515  150.7556 H   0  0  0  0  0  0  0  0  0  0  0  0  # atno 10167 bound_to 10162
  157.1845  131.0640  151.2113 H   0  0  0  0  0  0  0  0  0  0  0  0  # atno 10718 bound_to 10713
  153.6767  135.3321  155.3167 H   0  0  0  0  0  0  0  0  0  0  0  0  # atno 10763 bound_to 10752
  154.8476  135.4399  154.1648 H   0  0  0  0  0  0  0  0  0  0  0  0  # atno 10764 bound_to 10752
  153.2654  135.6995  153.7612 H   0  0  0  0  0  0  0  0  0  0  0  0  # atno 10765 bound_to 10752
  140.4858  134.6032  157.4936 H   0  0  0  0  0  0  0  0  0  0  0  0  # atno 11005 bound_to 11000
  145.3699  141.0341  143.3237 LP  0  0  0  0  0  0  0  0  0  0  0  0  # atno 17320 bound_to 7965
  144.8545  139.5271  143.6841 LP  0  0  0  0  0  0  0  0  0  0  0  0  # atno 17321 bound_to 7965
  140.7328  143.2710  151.3888 LP  0  0  0  0  0  0  0  0  0  0  0  0  # atno 17342 bound_to 10162
  139.6118  144.1084  152.2306 LP  0  0  0  0  0  0  0  0  0  0  0  0  # atno 17343 bound_to 10162
  157.3920  130.7287  149.6704 LP  0  0  0  0  0  0  0  0  0  0  0  0  # atno 17370 bound_to 10713
  155.9720  130.4144  150.4129 LP  0  0  0  0  0  0  0  0  0  0  0  0  # atno 17371 bound_to 10713
  139.9799  134.7155  155.9880 LP  0  0  0  0  0  0  0  0  0  0  0  0  # atno 17394 bound_to 11000
  141.1509  133.6549  156.4009 LP  0  0  0  0  0  0  0  0  0  0  0  0  # atno 17395 bound_to 11000

$$$$
