AV-unprocessed.smi:2965|AV-procd|sdf|11322|dock1
  -GOLD-   2272016223D 1   1.00000     0.00000
 Structure written by MMmdl.
 36 37  0  0  0  0  0  0  0  0  1 V2000
  152.4795  140.1223  155.3988 O   0  0  0  0  0  0  0  0  0  0  0  0
  151.6386  140.0096  156.2922 C   0  0  0  0  0  0  0  0  0  0  0  0
  152.0115  139.4141  157.6576 C   0  0  0  0  0  0  0  0  0  0  0  0
  152.4229  140.4256  158.6457 N   0  0  0  0  0  0  0  0  0  0  0  0
  152.0442  141.7591  158.3941 C   0  0  0  0  0  0  0  0  0  0  0  0
  152.3659  142.7794  159.2125 C   0  0  0  0  0  0  0  0  0  0  0  0
  151.8924  144.2004  158.9486 C   0  0  0  0  0  0  0  0  0  0  0  0
  152.4265  144.6810  157.8258 F   0  0  0  0  0  0  0  0  0  0  0  0
  150.5667  144.2184  158.8175 F   0  0  0  0  0  0  0  0  0  0  0  0
  152.2219  145.0154  159.9517 F   0  0  0  0  0  0  0  0  0  0  0  0
  153.1084  142.4364  160.4094 C   0  0  0  0  0  0  0  0  0  0  0  0
  153.4672  141.1645  160.6718 C   0  0  0  0  0  0  0  0  0  0  0  0
  153.1259  140.0686  159.7621 C   0  0  0  0  0  0  0  0  0  0  0  0
  153.4508  138.9030  159.9896 O   0  0  0  0  0  0  0  0  0  0  0  0
  150.3559  140.3713  156.1418 N   0  0  0  0  0  0  0  0  0  0  0  0
  149.7812  140.9419  154.9291 C   0  0  0  0  0  0  0  0  0  0  0  0
  148.2453  140.9801  154.9925 C   0  0  2  0  0  0  0  0  0  0  0  0
  147.5997  141.6969  153.8085 C   0  0  0  0  0  0  0  0  0  0  0  0
  146.2682  142.1076  154.3940 C   0  0  0  0  0  0  0  0  0  0  0  0
  146.6572  142.4875  155.8201 C   0  0  0  0  0  0  0  0  0  0  0  0
  147.8059  141.7054  156.1386 O   0  0  0  0  0  0  0  0  0  0  0  0
  151.1683  138.8365  158.0414 H   0  0  0  0  0  0  0  0  0  0  0  0
  152.8083  138.6850  157.5033 H   0  0  0  0  0  0  0  0  0  0  0  0
  151.4639  141.8981  157.4935 H   0  0  0  0  0  0  0  0  0  0  0  0
  153.3848  143.2135  161.1069 H   0  0  0  0  0  0  0  0  0  0  0  0
  154.0215  140.9460  161.5730 H   0  0  0  0  0  0  0  0  0  0  0  0
  149.7288  140.2353  156.9216 H   0  0  0  0  0  0  0  0  0  0  0  0
  150.1760  141.9505  154.8040 H   0  0  0  0  0  0  0  0  0  0  0  0
  150.1096  140.3703  154.0595 H   0  0  0  0  0  0  0  0  0  0  0  0
  147.8381  139.9696  155.0563 H   0  0  0  0  0  0  0  0  0  0  0  0
  148.1742  142.5822  153.5323 H   0  0  0  0  0  0  0  0  0  0  0  0
  147.5030  141.0615  152.9277 H   0  0  0  0  0  0  0  0  0  0  0  0
  145.7912  142.9230  153.8497 H   0  0  0  0  0  0  0  0  0  0  0  0
  145.5860  141.2564  154.4041 H   0  0  0  0  0  0  0  0  0  0  0  0
  146.9332  143.5414  155.8725 H   0  0  0  0  0  0  0  0  0  0  0  0
  145.8481  142.3142  156.5297 H   0  0  0  0  0  0  0  0  0  0  0  0
  1  2  2  0  0  0  0
  2  3  1  0  0  0  0
  2 15  1  0  0  0  0
  3  4  1  0  0  0  0
  3 22  1  0  0  0  0
  3 23  1  0  0  0  0
  4 13  1  0  0  0  0
  4  5  1  0  0  0  0
  5  6  2  0  0  0  0
  5 24  1  0  0  0  0
  6  7  1  0  0  0  0
  6 11  1  0  0  0  0
  7  8  1  0  0  0  0
  7  9  1  0  0  0  0
  7 10  1  0  0  0  0
 11 12  2  0  0  0  0
 11 25  1  0  0  0  0
 12 13  1  0  0  0  0
 12 26  1  0  0  0  0
 13 14  2  0  0  0  0
 15 16  1  0  0  0  0
 15 27  1  0  0  0  0
 16 17  1  0  0  0  0
 16 28  1  0  0  0  0
 16 29  1  0  0  0  0
 17 21  1  0  0  0  0
 17 18  1  0  0  0  0
 17 30  1  0  0  0  0
 18 19  1  0  0  0  0
 18 31  1  0  0  0  0
 18 32  1  0  0  0  0
 19 20  1  0  0  0  0
 19 33  1  0  0  0  0
 19 34  1  0  0  0  0
 20 21  1  0  0  0  0
 20 35  1  0  0  0  0
 20 36  1  0  0  0  0
M  END
> <s_m_source_file>
AV-unprocessed.smi

> <i_m_source_file_index>
2965

> <i_lp_mmshare_version>
43012

> <i_f3d_flags>
0

> <s_epik_input>
TzFbQ0gyXVtDSDJdW0NIMl1bQ0BIXTFbQ0gyXVtOSF1DKD1PKVtDSDJdbjJbY0hdYyhDKEYpKEYpRilbY0hdW2NIXWMyPU8=

> <s_epik_cmdline>
J2VwaWtfcHl0aG9uJywgJy1waCcsICc3LjAnLCAnLXRuJywgJzgnLCAnLW1hJywgJzIwMCcsICctbWV0YWxfYmluZGluZycsICctaW1hZScsICc8aW5maWxlLm1hZT4nLCAnLW9tYWUnLCAnPG91dGZpbGUubWFlPic=

> <r_lp_tautomer_probability>
1

> <r_epik_Ionization_Penalty>
4.53327e-08

> <r_epik_Ionization_Penalty_Charging>
1.84737e-08

> <r_epik_Ionization_Penalty_Neutral>
2.6859e-08

> <r_epik_State_Penalty>
-0

> <r_epik_Charging_Adjusted_Penalty>
1.84737e-08

> <i_epik_Tot_Q>
0

> <i_epik_Tot_abs_Q>
0

> <r_epik_Metal_State_Penalty>
-0

> <b_epik_Metal_Only>
0

> <s_lp_Force_Field>
OPLS_2005

> <r_lp_Energy>
28.8202

> <b_lp_Chiralities_Consistent>
1

> <s_lp_Variant>
AV-unprocessed.smi:2965-1

> <Gold.Version>
5.8.1

> <Gold.Id.Protein>
6NUR|6NUR_protein|mol2

> <Gold.PLP.Fitness>
50.9675

> <Gold.PLP.PLP>
-48.2960

> <Gold.PLP.part.hbond>
-2.0000

> <Gold.PLP.part.metal>
0.0000

> <Gold.PLP.part.buried>
-3.4215

> <Gold.PLP.part.nonpolar>
-42.2215

> <Gold.PLP.part.repulsive>
0.1844

> <Gold.PLP.ligand.clash>
0.0000

> <Gold.PLP.ligand.torsion>
0.7501

> <Gold.PLP.Chemscore.Hbond>
1.3714

> <Gold.PLP.Chemscore.CHOScore>
0.0000

> <Gold.PLP.Chemscore.Metal>
0.0000

> <Gold.Chemscore.Hbonds>
donor molecule, donor type, donor heavy atom, donor atom, acceptor molecule, acceptor atom, score
      P1  H  7989  7998       L1     1  0.36
      P1  H  7997  8010       L1     1  0.96

> <Gold.PLP.Chemscore.Internal.Correction>
0.0574

> <Gold.Rescore>
     Score         DG    S(hbond)    S(metal)    S(lipo)     H(rot)  DE(clash)    DE(int)     intcor
     13.54     -14.28       1.00        0.00      87.70       1.87       0.10       0.65       ----

> <Gold.Chemscore.Fitness>
13.5354

> <Gold.Chemscore.DG>
-14.2847

> <Gold.Chemscore.ZeroCoef>
-5.4800

> <Gold.Chemscore.Hbond>
0.9957

> <Gold.Chemscore.Metal>
0.0000

> <Gold.Chemscore.Lipo>
87.7021

> <Gold.Chemscore.Internal_Hbond>
0.0000

> <Gold.Chemscore.DEClash>
0.1037

> <Gold.Chemscore.DEInternal>
0.6456

> <Gold.Chemscore.Rot>
1.8681

> <Gold.Chemscore.Internal.Correction>
   9.000000E+99

> <Gold.Chemscore.Hbonds>
donor molecule, donor type, donor heavy atom, donor atom, acceptor molecule, acceptor atom, score
      P1  H  7989  7998       L1     1  0.31
      P1  H  7997  8010       L1     1  0.62

> <Gold.Chemscore.Hbond.Weighted>
-3.3258

> <Gold.Chemscore.Metal.Weighted>
-0.0000

> <Gold.Chemscore.Lipo.Weighted>
-10.2611

> <Gold.Chemscore.Internal_Hbond.Weighted>
0.0000

> <Gold.Chemscore.DEClash.Weighted>
0.1037

> <Gold.Chemscore.DEInternal.Weighted>
0.6456

> <Gold.Chemscore.Rot.Weighted>
4.7822

> <Gold.Chemscore.Internal.Correction.Weighted>
   9.000000E+99

> <Gold.Protein.RotatedTorsions>
[ 6907 6896 6895 6894 ] final  -52.23 input  -60.11 | X-H torsion
[ 7974 7965 7964 7962 ] final  -45.09 input  175.53 | X-H torsion
[ 8008 7997 7996 7995 ] final   81.40 input   59.86 | X-H torsion
[ 10167 10162 10161 10158 ] final  113.36 input  -65.29 | X-H torsion
[ 10718 10713 10712 10709 ] final  141.89 input   66.30 | X-H torsion
[ 10763 10752 10751 10750 ] final  153.66 input  -60.55 | X-H torsion
[ 11005 11000 10999 10996 ] final -101.65 input  -57.11 | X-H torsion

> <Gold.Protein.ActiveResidues>
 VAL166  LYS551  ARG553  GLY616  TRP617  ASP618  TYR619  PRO620  LYS621  CYS622 
 ASP623  PHE694  ASN695  SER759  ASP760  ASP761  ALA762  ILE779  LEU786  VAL792 
 PHE793  MET794  SER795  GLU796  ALA797  LYS798  CYS799  TRP800  GLU811  SER814 

> <Gold.Protein.RotatedAtoms>
  150.8537  134.7869  159.7028 H   0  0  0  0  0  0  0  0  0  0  0  0  # atno 6907 bound_to 6896
  152.4595  134.5214  159.9793 H   0  0  0  0  0  0  0  0  0  0  0  0  # atno 6908 bound_to 6896
  151.5330  133.3407  159.2957 H   0  0  0  0  0  0  0  0  0  0  0  0  # atno 6909 bound_to 6896
  145.9856  140.7237  142.9342 H   0  0  0  0  0  0  0  0  0  0  0  0  # atno 7974 bound_to 7965
  155.8966  140.3436  155.5995 H   0  0  0  0  0  0  0  0  0  0  0  0  # atno 8008 bound_to 7997
  155.7549  140.0825  157.2202 H   0  0  0  0  0  0  0  0  0  0  0  0  # atno 8009 bound_to 7997
  154.4039  140.1546  156.2753 H   0  0  0  0  0  0  0  0  0  0  0  0  # atno 8010 bound_to 7997
  139.6467  144.7127  151.2129 H   0  0  0  0  0  0  0  0  0  0  0  0  # atno 10167 bound_to 10162
  157.3868  131.0999  151.0686 H   0  0  0  0  0  0  0  0  0  0  0  0  # atno 10718 bound_to 10713
  154.1397  135.2821  155.3164 H   0  0  0  0  0  0  0  0  0  0  0  0  # atno 10763 bound_to 10752
  154.6296  135.5440  153.7668 H   0  0  0  0  0  0  0  0  0  0  0  0  # atno 10764 bound_to 10752
  153.0254  135.6459  154.1545 H   0  0  0  0  0  0  0  0  0  0  0  0  # atno 10765 bound_to 10752
  141.1222  133.8495  157.1259 H   0  0  0  0  0  0  0  0  0  0  0  0  # atno 11005 bound_to 11000
  144.6874  140.2982  143.7267 LP  0  0  0  0  0  0  0  0  0  0  0  0  # atno 17320 bound_to 7965
  145.7706  139.1856  143.2214 LP  0  0  0  0  0  0  0  0  0  0  0  0  # atno 17321 bound_to 7965
  140.7518  143.6219  150.8505 LP  0  0  0  0  0  0  0  0  0  0  0  0  # atno 17342 bound_to 10162
  139.9862  143.5896  152.2926 LP  0  0  0  0  0  0  0  0  0  0  0  0  # atno 17343 bound_to 10162
  157.1734  130.6277  149.5648 LP  0  0  0  0  0  0  0  0  0  0  0  0  # atno 17370 bound_to 10713
  155.9788  130.4777  150.6680 LP  0  0  0  0  0  0  0  0  0  0  0  0  # atno 17371 bound_to 10713
  140.0189  134.9955  157.0550 LP  0  0  0  0  0  0  0  0  0  0  0  0  # atno 17394 bound_to 11000
  140.4473  134.1618  155.7178 LP  0  0  0  0  0  0  0  0  0  0  0  0  # atno 17395 bound_to 11000

$$$$
