AV-unprocessed.smi:83|AV-procd|sdf|803|dock5
  -GOLD-   2262017193D 1   1.00000     0.00000
 Structure written by MMmdl.
 56 59  0  0  0  0  0  0  0  0  1 V2000
  152.0778  144.4769  158.3260 C   0  0  0  0  0  0  0  0  0  0  0  0
  152.0255  143.1430  159.0717 C   0  0  0  0  0  0  0  0  0  0  0  0
  152.4995  143.0739  160.2058 O   0  0  0  0  0  0  0  0  0  0  0  0
  151.4664  142.0836  158.4527 N   0  0  0  0  0  0  0  0  0  0  0  0
  151.3928  140.7226  158.9792 C   0  0  0  0  0  0  0  0  0  0  0  0
  150.9487  139.8553  157.7997 C   0  0  0  0  0  0  0  0  0  0  0  0
  150.1566  140.8075  156.9092 C   0  0  2  0  0  0  0  0  0  0  0  0
  150.0543  140.3418  155.4382 C   0  0  0  0  0  0  0  0  0  0  0  0
  148.7075  140.4666  154.8765 N   0  0  0  0  0  0  0  0  0  0  0  0
  148.4079  141.6499  154.0807 C   0  0  0  0  0  0  0  0  0  0  0  0
  148.0604  139.3072  154.5919 C   0  0  0  0  0  0  0  0  0  0  0  0
  148.1063  138.3179  155.5226 N   0  0  0  0  0  0  0  0  0  0  0  0
  147.5724  137.1207  155.2670 C   0  0  0  0  0  0  0  0  0  0  0  0
  146.9684  136.6983  154.1559 N   0  0  0  0  0  0  0  0  0  0  0  0
  146.9075  137.6886  153.2212 C   0  0  0  0  0  0  0  0  0  0  0  0
  147.4014  139.0174  153.3596 C   0  0  0  0  0  0  0  0  0  0  0  0
  147.1561  139.7287  152.1889 N   0  0  0  0  0  0  0  0  0  0  0  0
  146.5677  138.8697  151.4035 C   0  0  0  0  0  0  0  0  0  0  0  0
  146.4098  137.6108  151.9341 N   0  0  0  0  0  0  0  0  0  0  0  0
  145.8703  136.4434  151.2642 C   0  0  0  0  0  0  0  0  0  0  0  0
  146.1535  135.1386  152.0413 C   0  0  1  0  0  0  0  0  0  0  0  0
  145.2266  135.0738  153.1063 O   0  0  0  0  0  0  0  0  0  0  0  0
  146.0329  133.8515  151.1932 C   0  0  2  0  0  0  0  0  0  0  0  0
  144.6704  133.6546  150.5221 C   0  0  0  0  0  0  0  0  0  0  0  0
  144.5665  132.1474  150.3323 C   0  0  0  0  0  0  0  0  0  0  0  0
  145.7109  131.5886  151.1791 C   0  0  0  0  0  0  0  0  0  0  0  0
  146.1108  132.6797  151.9921 O   0  0  0  0  0  0  0  0  0  0  0  0
  150.8761  142.1482  157.1203 C   0  0  0  0  0  0  0  0  0  0  0  0
  152.5587  144.3591  157.3548 H   0  0  0  0  0  0  0  0  0  0  0  0
  152.6471  145.2129  158.8945 H   0  0  0  0  0  0  0  0  0  0  0  0
  151.0730  144.8719  158.1746 H   0  0  0  0  0  0  0  0  0  0  0  0
  152.3470  140.3789  159.3808 H   0  0  0  0  0  0  0  0  0  0  0  0
  150.6517  140.6896  159.7791 H   0  0  0  0  0  0  0  0  0  0  0  0
  151.8276  139.4916  157.2653 H   0  0  0  0  0  0  0  0  0  0  0  0
  150.3668  138.9879  158.1125 H   0  0  0  0  0  0  0  0  0  0  0  0
  149.1543  140.8870  157.3334 H   0  0  0  0  0  0  0  0  0  0  0  0
  150.7816  140.8689  154.8198 H   0  0  0  0  0  0  0  0  0  0  0  0
  150.3359  139.2898  155.3822 H   0  0  0  0  0  0  0  0  0  0  0  0
  147.3375  141.7330  153.8893 H   0  0  0  0  0  0  0  0  0  0  0  0
  148.9344  141.6230  153.1264 H   0  0  0  0  0  0  0  0  0  0  0  0
  148.7192  142.5496  154.6119 H   0  0  0  0  0  0  0  0  0  0  0  0
  147.6575  136.3920  156.0593 H   0  0  0  0  0  0  0  0  0  0  0  0
  146.2686  139.1207  150.3962 H   0  0  0  0  0  0  0  0  0  0  0  0
  144.7961  136.5895  151.1436 H   0  0  0  0  0  0  0  0  0  0  0  0
  146.2950  136.3900  150.2608 H   0  0  0  0  0  0  0  0  0  0  0  0
  147.1516  135.1865  152.4789 H   0  0  0  0  0  0  0  0  0  0  0  0
  144.5499  135.7154  152.9531 H   0  0  0  0  0  0  0  0  0  0  0  0
  146.8241  133.8209  150.4413 H   0  0  0  0  0  0  0  0  0  0  0  0
  143.8722  133.9921  151.1849 H   0  0  0  0  0  0  0  0  0  0  0  0
  144.5829  134.2052  149.5849 H   0  0  0  0  0  0  0  0  0  0  0  0
  143.5989  131.7822  150.6773 H   0  0  0  0  0  0  0  0  0  0  0  0
  144.6818  131.8605  149.2868 H   0  0  0  0  0  0  0  0  0  0  0  0
  145.4146  130.7294  151.7806 H   0  0  0  0  0  0  0  0  0  0  0  0
  146.5472  131.2877  150.5466 H   0  0  0  0  0  0  0  0  0  0  0  0
  150.1871  142.9894  157.0322 H   0  0  0  0  0  0  0  0  0  0  0  0
  151.6768  142.2850  156.3922 H   0  0  0  0  0  0  0  0  0  0  0  0
  1  2  1  0  0  0  0
  1 29  1  0  0  0  0
  1 30  1  0  0  0  0
  1 31  1  0  0  0  0
  2  3  2  0  0  0  0
  2  4  1  0  0  0  0
  4 28  1  0  0  0  0
  4  5  1  0  0  0  0
  5  6  1  0  0  0  0
  5 32  1  0  0  0  0
  5 33  1  0  0  0  0
  6  7  1  0  0  0  0
  6 34  1  0  0  0  0
  6 35  1  0  0  0  0
  7  8  1  0  0  0  0
  7 28  1  0  0  0  0
  7 36  1  0  0  0  0
  8  9  1  0  0  0  0
  8 37  1  0  0  0  0
  8 38  1  0  0  0  0
  9 10  1  0  0  0  0
  9 11  1  0  0  0  0
 10 39  1  0  0  0  0
 10 40  1  0  0  0  0
 10 41  1  0  0  0  0
 11 16  1  0  0  0  0
 11 12  2  0  0  0  0
 12 13  1  0  0  0  0
 13 14  2  0  0  0  0
 13 42  1  0  0  0  0
 14 15  1  0  0  0  0
 15 19  1  0  0  0  0
 15 16  2  0  0  0  0
 16 17  1  0  0  0  0
 17 18  2  0  0  0  0
 18 19  1  0  0  0  0
 18 43  1  0  0  0  0
 19 20  1  0  0  0  0
 20 21  1  0  0  0  0
 20 44  1  0  0  0  0
 20 45  1  0  0  0  0
 21 22  1  0  0  0  0
 21 23  1  0  0  0  0
 21 46  1  0  0  0  0
 22 47  1  0  0  0  0
 23 27  1  0  0  0  0
 23 24  1  0  0  0  0
 23 48  1  0  0  0  0
 24 25  1  0  0  0  0
 24 49  1  0  0  0  0
 24 50  1  0  0  0  0
 25 26  1  0  0  0  0
 25 51  1  0  0  0  0
 25 52  1  0  0  0  0
 26 27  1  0  0  0  0
 26 53  1  0  0  0  0
 26 54  1  0  0  0  0
 28 55  1  0  0  0  0
 28 56  1  0  0  0  0
M  END
> <s_m_source_file>
AV-unprocessed.smi

> <i_m_source_file_index>
83

> <i_lp_mmshare_version>
43012

> <i_f3d_flags>
0

> <s_epik_input>
W0NIM11DKD1PKU4xW0NIMl1bQ0gyXVtDQEhdKFtDSDJdMSlbQ0gyXU4oW0NIM10pYyhuW2NIXW4yKWMoYzIzKW5bY0hdbjNbQ0gyXVtDQEhdKFtPSF0pW0NAQEhdNFtDSDJdW0NIMl1bQ0gyXU80

> <s_epik_cmdline>
J2VwaWtfcHl0aG9uJywgJy1waCcsICc3LjAnLCAnLXRuJywgJzgnLCAnLW1hJywgJzIwMCcsICctbWV0YWxfYmluZGluZycsICctaW1hZScsICc8aW5maWxlLm1hZT4nLCAnLW9tYWUnLCAnPG91dGZpbGUubWFlPic=

> <r_lp_tautomer_probability>
1

> <r_epik_Ionization_Penalty>
0.00109752

> <r_epik_Ionization_Penalty_Charging>
0

> <r_epik_Ionization_Penalty_Neutral>
0.00109752

> <r_epik_State_Penalty>
0.000634803

> <r_epik_Charging_Adjusted_Penalty>
0.000634803

> <i_epik_Tot_Q>
0

> <i_epik_Tot_abs_Q>
0

> <r_epik_Metal_State_Penalty>
-0

> <b_epik_Metal_Only>
0

> <s_lp_Force_Field>
OPLS_2005

> <r_lp_Energy>
52.1505

> <b_lp_Chiralities_Consistent>
1

> <s_lp_Variant>
AV-unprocessed.smi:83-4

> <Gold.Version>
5.8.1

> <Gold.Id.Protein>
6NUR|6NUR_protein|mol2

> <Gold.PLP.Fitness>
45.2505

> <Gold.PLP.PLP>
-45.0458

> <Gold.PLP.part.hbond>
0.0000

> <Gold.PLP.part.metal>
0.0000

> <Gold.PLP.part.buried>
-0.9418

> <Gold.PLP.part.nonpolar>
-46.0989

> <Gold.PLP.part.repulsive>
1.7559

> <Gold.PLP.ligand.clash>
0.0000

> <Gold.PLP.ligand.torsion>
1.6623

> <Gold.PLP.Chemscore.Hbond>
0.0000

> <Gold.PLP.Chemscore.CHOScore>
0.9559

> <Gold.PLP.Chemscore.Metal>
0.0000

> <Gold.Chemscore.Hbonds>
donor molecule, donor type, donor heavy atom, donor atom, acceptor molecule, acceptor atom, score
      L1  C    18    43       P1 10171  0.73

> <Gold.PLP.Chemscore.Internal.Correction>
0.6617

> <Gold.Rescore>
     Score         DG    S(hbond)    S(metal)    S(lipo)     H(rot)  DE(clash)    DE(int)     intcor
      4.82     -10.18       0.00        0.00      97.39       2.62       0.85       4.51       ----

> <Gold.Chemscore.Fitness>
4.8195

> <Gold.Chemscore.DG>
-10.1792

> <Gold.Chemscore.ZeroCoef>
-5.4800

> <Gold.Chemscore.Hbond>
0.0000

> <Gold.Chemscore.Metal>
0.0000

> <Gold.Chemscore.Lipo>
97.3851

> <Gold.Chemscore.Internal_Hbond>
0.0000

> <Gold.Chemscore.DEClash>
0.8498

> <Gold.Chemscore.DEInternal>
4.5098

> <Gold.Chemscore.Rot>
2.6152

> <Gold.Chemscore.Internal.Correction>
   9.000000E+99

> <Gold.Chemscore.Hbond.Weighted>
-0.0000

> <Gold.Chemscore.Metal.Weighted>
-0.0000

> <Gold.Chemscore.Lipo.Weighted>
-11.3941

> <Gold.Chemscore.Internal_Hbond.Weighted>
0.0000

> <Gold.Chemscore.DEClash.Weighted>
0.8498

> <Gold.Chemscore.DEInternal.Weighted>
4.5098

> <Gold.Chemscore.Rot.Weighted>
6.6949

> <Gold.Chemscore.Internal.Correction.Weighted>
   9.000000E+99

> <Gold.Protein.RotatedTorsions>
[ 6907 6896 6895 6894 ] final  153.05 input  -60.11 | X-H torsion
[ 7974 7965 7964 7962 ] final  -57.22 input  175.53 | X-H torsion
[ 8008 7997 7996 7995 ] final   61.76 input   59.86 | X-H torsion
[ 10167 10162 10161 10158 ] final  126.04 input  -65.29 | X-H torsion
[ 10718 10713 10712 10709 ] final  159.87 input   66.30 | X-H torsion
[ 10763 10752 10751 10750 ] final  -89.53 input  -60.55 | X-H torsion
[ 11005 11000 10999 10996 ] final -129.47 input  -57.11 | X-H torsion

> <Gold.Protein.ActiveResidues>
 VAL166  LYS551  ARG553  GLY616  TRP617  ASP618  TYR619  PRO620  LYS621  CYS622 
 ASP623  PHE694  ASN695  SER759  ASP760  ASP761  ALA762  ILE779  LEU786  VAL792 
 PHE793  MET794  SER795  GLU796  ALA797  LYS798  CYS799  TRP800  GLU811  SER814 

> <Gold.Protein.RotatedAtoms>
  152.0782  133.4139  159.4488 H   0  0  0  0  0  0  0  0  0  0  0  0  # atno 6907 bound_to 6896
  150.6862  134.3013  159.4717 H   0  0  0  0  0  0  0  0  0  0  0  0  # atno 6908 bound_to 6896
  152.0852  134.9444  160.0623 H   0  0  0  0  0  0  0  0  0  0  0  0  # atno 6909 bound_to 6896
  145.8536  140.8335  142.9973 H   0  0  0  0  0  0  0  0  0  0  0  0  # atno 7974 bound_to 7965
  155.6035  140.3494  155.4601 H   0  0  0  0  0  0  0  0  0  0  0  0  # atno 8008 bound_to 7997
  156.0209  140.1253  157.0382 H   0  0  0  0  0  0  0  0  0  0  0  0  # atno 8009 bound_to 7997
  154.4315  140.1062  156.5949 H   0  0  0  0  0  0  0  0  0  0  0  0  # atno 8010 bound_to 7997
  139.5652  144.6907  151.3929 H   0  0  0  0  0  0  0  0  0  0  0  0  # atno 10167 bound_to 10162
  157.1582  131.0581  151.2245 H   0  0  0  0  0  0  0  0  0  0  0  0  # atno 10718 bound_to 10713
  154.6562  135.5337  153.7962 H   0  0  0  0  0  0  0  0  0  0  0  0  # atno 10763 bound_to 10752
  153.0415  135.6494  154.0941 H   0  0  0  0  0  0  0  0  0  0  0  0  # atno 10764 bound_to 10752
  154.0854  135.2944  155.3262 H   0  0  0  0  0  0  0  0  0  0  0  0  # atno 10765 bound_to 10752
  140.9428  134.1170  157.4134 H   0  0  0  0  0  0  0  0  0  0  0  0  # atno 11005 bound_to 11000
  144.6728  140.0990  143.7461 LP  0  0  0  0  0  0  0  0  0  0  0  0  # atno 17320 bound_to 7965
  145.9329  139.2618  143.1314 LP  0  0  0  0  0  0  0  0  0  0  0  0  # atno 17321 bound_to 7965
  140.6935  143.7804  150.7291 LP  0  0  0  0  0  0  0  0  0  0  0  0  # atno 17342 bound_to 10162
  140.1293  143.4540  152.2264 LP  0  0  0  0  0  0  0  0  0  0  0  0  # atno 17343 bound_to 10162
  157.4157  130.7409  149.6873 LP  0  0  0  0  0  0  0  0  0  0  0  0  # atno 17370 bound_to 10713
  155.9758  130.4083  150.3822 LP  0  0  0  0  0  0  0  0  0  0  0  0  # atno 17371 bound_to 10713
  139.8825  135.0042  156.6234 LP  0  0  0  0  0  0  0  0  0  0  0  0  # atno 17394 bound_to 11000
  140.7710  133.8738  155.8492 LP  0  0  0  0  0  0  0  0  0  0  0  0  # atno 17395 bound_to 11000

$$$$
