AV-unprocessed.smi:101|AV-procd|sdf|940|dock3
  -GOLD-   2262017463D 1   1.00000     0.00000
 Structure written by MMmdl.
 43 45  0  0  0  0  0  0  0  0  2 V2000
  148.9433  133.6777  154.1975 C   0  0  0  0  0  0  0  0  0  0  0  0
  148.6775  134.8272  155.1540 C   0  0  0  0  0  0  0  0  0  0  0  0
  149.1356  136.0777  154.9238 C   0  0  0  0  0  0  0  0  0  0  0  0
  148.8904  137.1247  155.7972 N   0  0  0  0  0  0  0  0  0  0  0  0
  149.4077  138.5277  155.5344 C   0  0  1  0  0  0  0  0  0  0  0  0
  150.3803  138.8731  156.4745 O   0  0  0  0  0  0  0  0  0  0  0  0
  151.6922  138.6962  155.9470 C   0  0  2  0  0  0  0  0  0  0  0  0
  152.5515  139.9117  156.3237 C   0  0  0  0  0  0  0  0  0  0  0  0
  151.9921  140.6087  157.4274 O   0  0  0  0  0  0  0  0  0  0  0  0
  152.7175  140.7711  158.5525 C   0  0  0  0  0  0  0  0  0  0  0  0
  153.5736  139.9691  158.9319 O   0  0  0  0  0  0  0  0  0  0  0  0
  152.3794  142.0203  159.2943 C   0  0  0  0  0  0  0  0  0  0  0  0
  151.7851  143.0998  158.5996 C   0  0  0  0  0  0  0  0  0  0  0  0
  151.4547  144.2923  159.2727 C   0  0  0  0  0  0  0  0  0  0  0  0
  151.7151  144.4203  160.6494 C   0  0  0  0  0  0  0  0  0  0  0  0
  152.3073  143.3545  161.3517 C   0  0  0  0  0  0  0  0  0  0  0  0
  152.6385  142.1620  160.6793 C   0  0  0  0  0  0  0  0  0  0  0  0
  151.5515  138.4531  154.4353 C   0  0  1  0  0  0  0  0  0  0  0  0
  151.9480  137.1273  154.1397 O   0  0  0  0  0  0  0  0  0  0  0  0
  150.0631  138.6159  154.1460 C   0  0  2  0  0  0  0  0  0  0  0  0
  149.7885  139.8588  153.5358 O   0  0  0  0  0  0  0  0  0  0  0  0
  148.1587  136.8799  156.9899 C   0  0  0  0  0  0  0  0  0  0  0  0
  147.9761  137.8238  157.7595 O   0  0  0  0  0  0  0  0  0  0  0  0
  147.6900  135.6226  157.2289 N   0  5  0  0  0  0  0  0  0  0  0  0
  147.9012  134.5810  156.3747 C   0  0  0  0  0  0  0  0  0  0  0  0
  147.4646  133.4525  156.5984 O   0  0  0  0  0  0  0  0  0  0  0  0
  149.5441  133.9995  153.3465 H   0  0  0  0  0  0  0  0  0  0  0  0
  148.0045  133.2753  153.8160 H   0  0  0  0  0  0  0  0  0  0  0  0
  149.4803  132.8765  154.7059 H   0  0  0  0  0  0  0  0  0  0  0  0
  149.7129  136.2458  154.0293 H   0  0  0  0  0  0  0  0  0  0  0  0
  148.5356  139.1716  155.6615 H   0  0  0  0  0  0  0  0  0  0  0  0
  152.1321  137.8229  156.4301 H   0  0  0  0  0  0  0  0  0  0  0  0
  153.5625  139.5839  156.5697 H   0  0  0  0  0  0  0  0  0  0  0  0
  152.6287  140.5874  155.4708 H   0  0  0  0  0  0  0  0  0  0  0  0
  151.5753  143.0254  157.5422 H   0  0  0  0  0  0  0  0  0  0  0  0
  151.0011  145.1092  158.7312 H   0  0  0  0  0  0  0  0  0  0  0  0
  151.4615  145.3343  161.1657 H   0  0  0  0  0  0  0  0  0  0  0  0
  152.5089  143.4506  162.4083 H   0  0  0  0  0  0  0  0  0  0  0  0
  153.0941  141.3655  161.2468 H   0  0  0  0  0  0  0  0  0  0  0  0
  152.1653  139.1319  153.8411 H   0  0  0  0  0  0  0  0  0  0  0  0
  151.4869  136.8448  153.3645 H   0  0  0  0  0  0  0  0  0  0  0  0
  149.6835  137.8421  153.4770 H   0  0  0  0  0  0  0  0  0  0  0  0
  149.5981  139.7028  152.6231 H   0  0  0  0  0  0  0  0  0  0  0  0
  1  2  1  0  0  0  0
  1 27  1  0  0  0  0
  1 28  1  0  0  0  0
  1 29  1  0  0  0  0
  2 25  1  0  0  0  0
  2  3  2  0  0  0  0
  3  4  1  0  0  0  0
  3 30  1  0  0  0  0
  4  5  1  0  0  0  0
  4 22  1  0  0  0  0
  5 20  1  0  0  0  0
  5  6  1  0  0  0  0
  5 31  1  0  0  0  0
  6  7  1  0  0  0  0
  7  8  1  0  0  0  0
  7 18  1  0  0  0  0
  7 32  1  0  0  0  0
  8  9  1  0  0  0  0
  8 33  1  0  0  0  0
  8 34  1  0  0  0  0
  9 10  1  0  0  0  0
 10 11  2  0  0  0  0
 10 12  1  0  0  0  0
 12 17  1  0  0  0  0
 12 13  2  0  0  0  0
 13 14  1  0  0  0  0
 13 35  1  0  0  0  0
 14 15  2  0  0  0  0
 14 36  1  0  0  0  0
 15 16  1  0  0  0  0
 15 37  1  0  0  0  0
 16 17  2  0  0  0  0
 16 38  1  0  0  0  0
 17 39  1  0  0  0  0
 18 19  1  0  0  0  0
 18 20  1  0  0  0  0
 18 40  1  0  0  0  0
 19 41  1  0  0  0  0
 20 21  1  0  0  0  0
 20 42  1  0  0  0  0
 21 43  1  0  0  0  0
 22 23  2  0  0  0  0
 22 24  1  0  0  0  0
 24 25  1  0  0  0  0
 25 26  2  0  0  0  0
M  CHG  1  24  -1
M  END
> <s_m_source_file>
AV-unprocessed.smi

> <i_m_source_file_index>
101

> <i_lp_mmshare_version>
43012

> <i_f3d_flags>
0

> <s_epik_input>
Tz1jMVtuSF1jKD1PKW4oW2NIXWMxW0NIM10pW0NAQEhdMk9bQ0BIXShbQ0BASF0oW09IXSlbQ0BIXTJbT0hdKVtDSDJdT0MoPU8pYzNbY0hdW2NIXVtjSF1bY0hdW2NIXTM=

> <s_epik_cmdline>
J2VwaWtfcHl0aG9uJywgJy1waCcsICc3LjAnLCAnLXRuJywgJzgnLCAnLW1hJywgJzIwMCcsICctbWV0YWxfYmluZGluZycsICctaW1hZScsICc8aW5maWxlLm1hZT4nLCAnLW9tYWUnLCAnPG91dGZpbGUubWFlPic=

> <r_lp_tautomer_probability>
0.999537

> <r_epik_Ionization_Penalty>
3.21006

> <r_epik_Ionization_Penalty_Charging>
5.75142e-08

> <r_epik_Ionization_Penalty_Neutral>
3.21006

> <r_epik_State_Penalty>
3.20925

> <r_epik_Charging_Adjusted_Penalty>
3.20925

> <i_epik_Tot_Q>
-1

> <i_epik_Tot_abs_Q>
1

> <r_epik_Metal_State_Penalty>
0.119957

> <b_epik_Metal_Only>
1

> <s_epik_Chemistry_Notes>
This compound has an ester and may undergo hydrolysis at high or low pH. This compound contains an acetal/aminal-like group ( X-CH(R)-Y where X, Y are N, S, or O) that may be acid/base labile, releasing an aldehyde.

> <s_lp_Force_Field>
OPLS_2005

> <r_lp_Energy>
38.3221

> <b_lp_Chiralities_Consistent>
1

> <s_lp_Variant>
AV-unprocessed.smi:101-28

> <Gold.Version>
5.8.1

> <Gold.Id.Protein>
6NUR|6NUR_protein|mol2

> <Gold.PLP.Fitness>
52.7254

> <Gold.PLP.PLP>
-38.8955

> <Gold.PLP.part.hbond>
-5.1179

> <Gold.PLP.part.metal>
0.0000

> <Gold.PLP.part.buried>
-0.7904

> <Gold.PLP.part.nonpolar>
-31.5717

> <Gold.PLP.part.repulsive>
0.0000

> <Gold.PLP.ligand.clash>
0.0000

> <Gold.PLP.ligand.torsion>
1.6143

> <Gold.PLP.Chemscore.Hbond>
4.6487

> <Gold.PLP.Chemscore.CHOScore>
0.9853

> <Gold.PLP.Chemscore.Metal>
0.0000

> <Gold.Chemscore.Hbonds>
donor molecule, donor type, donor heavy atom, donor atom, acceptor molecule, acceptor atom, score
      L1  H    19    41       P1  7949  0.86
      L1  H    21    43       P1  7957  0.93
      P1  H  7989  7998       L1    21  0.60
      P1  H  7997  8008       L1    11  0.56
      P1  H 10752 10765       L1    19  0.80
      L1  C     3    30       P1  7948  0.97

> <Gold.PLP.Chemscore.Internal.Correction>
0.1565

> <Gold.Rescore>
     Score         DG    S(hbond)    S(metal)    S(lipo)     H(rot)  DE(clash)    DE(int)     intcor
     14.95     -19.47       3.03        0.00     104.47       3.27       1.44       3.09       ----

> <Gold.Chemscore.Fitness>
14.9509

> <Gold.Chemscore.DG>
-19.4746

> <Gold.Chemscore.ZeroCoef>
-5.4800

> <Gold.Chemscore.Hbond>
3.0334

> <Gold.Chemscore.Metal>
0.0000

> <Gold.Chemscore.Lipo>
104.4691

> <Gold.Chemscore.Internal_Hbond>
0.0000

> <Gold.Chemscore.DEClash>
1.4359

> <Gold.Chemscore.DEInternal>
3.0877

> <Gold.Chemscore.Rot>
3.2656

> <Gold.Chemscore.Internal.Correction>
   9.000000E+99

> <Gold.Chemscore.Hbonds>
donor molecule, donor type, donor heavy atom, donor atom, acceptor molecule, acceptor atom, score
      L1  H    19    41       P1  7949  0.74
      L1  H    21    43       P1  7957  0.87
      P1  H  7989  7998       L1    21  0.11
      P1  H  7997  8008       L1    11  0.19
      P1  H 10752 10765       L1    19  0.11

> <Gold.Chemscore.Hbond.Weighted>
-10.1315

> <Gold.Chemscore.Metal.Weighted>
-0.0000

> <Gold.Chemscore.Lipo.Weighted>
-12.2229

> <Gold.Chemscore.Internal_Hbond.Weighted>
0.0000

> <Gold.Chemscore.DEClash.Weighted>
1.4359

> <Gold.Chemscore.DEInternal.Weighted>
3.0877

> <Gold.Chemscore.Rot.Weighted>
8.3598

> <Gold.Chemscore.Internal.Correction.Weighted>
   9.000000E+99

> <Gold.Protein.RotatedTorsions>
[ 6907 6896 6895 6894 ] final   -5.57 input  -60.11 | X-H torsion
[ 7974 7965 7964 7962 ] final -106.67 input  175.53 | X-H torsion
[ 8008 7997 7996 7995 ] final -116.58 input   59.86 | X-H torsion
[ 10167 10162 10161 10158 ] final   54.39 input  -65.29 | X-H torsion
[ 10718 10713 10712 10709 ] final    1.98 input   66.30 | X-H torsion
[ 10763 10752 10751 10750 ] final  162.97 input  -60.55 | X-H torsion
[ 11005 11000 10999 10996 ] final   79.45 input  -57.11 | X-H torsion

> <Gold.Protein.ActiveResidues>
 VAL166  LYS551  ARG553  GLY616  TRP617  ASP618  TYR619  PRO620  LYS621  CYS622 
 ASP623  PHE694  ASN695  SER759  ASP760  ASP761  ALA762  ILE779  LEU786  VAL792 
 PHE793  MET794  SER795  GLU796  ALA797  LYS798  CYS799  TRP800  GLU811  SER814 

> <Gold.Protein.RotatedAtoms>
  151.4795  135.1051  159.9773 H   0  0  0  0  0  0  0  0  0  0  0  0  # atno 6907 bound_to 6896
  152.4785  133.8192  159.7055 H   0  0  0  0  0  0  0  0  0  0  0  0  # atno 6908 bound_to 6896
  150.8839  133.7272  159.2950 H   0  0  0  0  0  0  0  0  0  0  0  0  # atno 6909 bound_to 6896
  145.2149  140.9111  143.3293 H   0  0  0  0  0  0  0  0  0  0  0  0  # atno 7974 bound_to 7965
  155.0701  140.0393  157.2605 H   0  0  0  0  0  0  0  0  0  0  0  0  # atno 8008 bound_to 7997
  154.6990  140.2669  155.6714 H   0  0  0  0  0  0  0  0  0  0  0  0  # atno 8009 bound_to 7997
  156.2754  140.2744  156.1594 H   0  0  0  0  0  0  0  0  0  0  0  0  # atno 8010 bound_to 7997
  140.2307  144.3690  150.6415 H   0  0  0  0  0  0  0  0  0  0  0  0  # atno 10167 bound_to 10162
  156.8562  130.5571  149.5666 H   0  0  0  0  0  0  0  0  0  0  0  0  # atno 10718 bound_to 10713
  154.2866  135.2762  155.2673 H   0  0  0  0  0  0  0  0  0  0  0  0  # atno 10763 bound_to 10752
  154.5171  135.5766  153.6654 H   0  0  0  0  0  0  0  0  0  0  0  0  # atno 10764 bound_to 10752
  152.9920  135.6195  154.3028 H   0  0  0  0  0  0  0  0  0  0  0  0  # atno 10765 bound_to 10752
  139.9172  134.7843  156.1780 H   0  0  0  0  0  0  0  0  0  0  0  0  # atno 11005 bound_to 11000
  144.9820  139.3774  143.6257 LP  0  0  0  0  0  0  0  0  0  0  0  0  # atno 17320 bound_to 7965
  146.3389  139.8965  142.8801 LP  0  0  0  0  0  0  0  0  0  0  0  0  # atno 17321 bound_to 7965
  140.6187  143.2174  151.6738 LP  0  0  0  0  0  0  0  0  0  0  0  0  # atno 17342 bound_to 10162
  139.5111  144.3520  152.0643 LP  0  0  0  0  0  0  0  0  0  0  0  0  # atno 17343 bound_to 10162
  156.0801  130.5814  150.9547 LP  0  0  0  0  0  0  0  0  0  0  0  0  # atno 17370 bound_to 10713
  157.6276  131.0924  150.8504 LP  0  0  0  0  0  0  0  0  0  0  0  0  # atno 17371 bound_to 10713
  141.0660  133.6819  156.2045 LP  0  0  0  0  0  0  0  0  0  0  0  0  # atno 17394 bound_to 11000
  140.6585  134.4992  157.5582 LP  0  0  0  0  0  0  0  0  0  0  0  0  # atno 17395 bound_to 11000

$$$$
