AV-unprocessed.smi:1706|AV-procd|sdf|6886|dock3
  -GOLD-   22720 8 93D 1   1.00000     0.00000
 Structure written by MMmdl.
 35 36  0  0  0  0  0  0  0  0  1 V2000
  149.8246  128.8903  154.0551 C   0  0  0  0  0  0  0  0  0  0  0  0
  149.1962  130.1807  153.8703 N   0  0  0  0  0  0  0  0  0  0  0  0
  149.6653  131.4246  154.2327 C   0  0  0  0  0  0  0  0  0  0  0  0
  148.7195  132.3415  153.8689 C   0  0  0  0  0  0  0  0  0  0  0  0
  148.7323  133.8353  154.0612 C   0  0  0  0  0  0  0  0  0  0  0  0
  150.0139  134.3225  154.7576 C   0  0  0  0  0  0  0  0  0  0  0  0
  150.2602  135.7325  154.4738 N   0  0  0  0  0  0  0  0  0  0  0  0
  151.1833  136.5039  155.0704 C   0  0  0  0  0  0  0  0  0  0  0  0
  151.8997  136.0862  155.9810 O   0  0  0  0  0  0  0  0  0  0  0  0
  151.2885  137.7546  154.5563 N   0  0  0  0  0  0  0  0  0  0  0  0
  150.2236  138.5312  153.9035 C   0  0  0  0  0  0  0  0  0  0  0  0
  149.8630  139.7186  154.8143 C   0  0  0  0  0  0  0  0  0  0  0  0
  151.0239  140.5112  155.0519 O   0  0  0  0  0  0  0  0  0  0  0  0
  152.0870  139.7788  155.6568 C   0  0  0  0  0  0  0  0  0  0  0  0
  152.4745  138.5917  154.7571 C   0  0  0  0  0  0  0  0  0  0  0  0
  147.6978  131.5451  153.2771 C   0  0  0  0  0  0  0  0  0  0  0  0
  147.9854  130.2537  153.2805 N   0  0  0  0  0  0  0  0  0  0  0  0
  150.8740  129.0207  154.3208 H   0  0  0  0  0  0  0  0  0  0  0  0
  149.7625  128.3093  153.1344 H   0  0  0  0  0  0  0  0  0  0  0  0
  149.3201  128.3490  154.8559 H   0  0  0  0  0  0  0  0  0  0  0  0
  150.6190  131.5535  154.7234 H   0  0  0  0  0  0  0  0  0  0  0  0
  148.6367  134.3427  153.1007 H   0  0  0  0  0  0  0  0  0  0  0  0
  147.8689  134.1538  154.6459 H   0  0  0  0  0  0  0  0  0  0  0  0
  149.9334  134.1843  155.8362 H   0  0  0  0  0  0  0  0  0  0  0  0
  150.8550  133.7128  154.4223 H   0  0  0  0  0  0  0  0  0  0  0  0
  149.7168  136.1452  153.7301 H   0  0  0  0  0  0  0  0  0  0  0  0
  150.5856  138.8959  152.9410 H   0  0  0  0  0  0  0  0  0  0  0  0
  149.3235  137.9580  153.6819 H   0  0  0  0  0  0  0  0  0  0  0  0
  149.1024  140.3400  154.3414 H   0  0  0  0  0  0  0  0  0  0  0  0
  149.4483  139.3705  155.7616 H   0  0  0  0  0  0  0  0  0  0  0  0
  152.9401  140.4434  155.7935 H   0  0  0  0  0  0  0  0  0  0  0  0
  151.7867  139.4342  156.6476 H   0  0  0  0  0  0  0  0  0  0  0  0
  153.3090  138.0466  155.2003 H   0  0  0  0  0  0  0  0  0  0  0  0
  152.8311  138.9518  153.7910 H   0  0  0  0  0  0  0  0  0  0  0  0
  146.7569  131.8659  152.8547 H   0  0  0  0  0  0  0  0  0  0  0  0
  1  2  1  0  0  0  0
  1 18  1  0  0  0  0
  1 19  1  0  0  0  0
  1 20  1  0  0  0  0
  2 17  1  0  0  0  0
  2  3  1  0  0  0  0
  3  4  2  0  0  0  0
  3 21  1  0  0  0  0
  4  5  1  0  0  0  0
  4 16  1  0  0  0  0
  5  6  1  0  0  0  0
  5 22  1  0  0  0  0
  5 23  1  0  0  0  0
  6  7  1  0  0  0  0
  6 24  1  0  0  0  0
  6 25  1  0  0  0  0
  7  8  1  0  0  0  0
  7 26  1  0  0  0  0
  8  9  2  0  0  0  0
  8 10  1  0  0  0  0
 10 15  1  0  0  0  0
 10 11  1  0  0  0  0
 11 12  1  0  0  0  0
 11 27  1  0  0  0  0
 11 28  1  0  0  0  0
 12 13  1  0  0  0  0
 12 29  1  0  0  0  0
 12 30  1  0  0  0  0
 13 14  1  0  0  0  0
 14 15  1  0  0  0  0
 14 31  1  0  0  0  0
 14 32  1  0  0  0  0
 15 33  1  0  0  0  0
 15 34  1  0  0  0  0
 16 17  2  0  0  0  0
 16 35  1  0  0  0  0
M  END
> <s_m_source_file>
AV-unprocessed.smi

> <i_m_source_file_index>
1706

> <i_lp_mmshare_version>
43012

> <i_f3d_flags>
0

> <s_epik_input>
W0NIM11uMVtjSF1jKFtjSF1uMSlbQ0gyXVtDSDJdW05IXUMoPU8pTjJbQ0gyXVtDSDJdT1tDSDJdW0NIMl0y

> <s_epik_cmdline>
J2VwaWtfcHl0aG9uJywgJy1waCcsICc3LjAnLCAnLXRuJywgJzgnLCAnLW1hJywgJzIwMCcsICctbWV0YWxfYmluZGluZycsICctaW1hZScsICc8aW5maWxlLm1hZT4nLCAnLW9tYWUnLCAnPG91dGZpbGUubWFlPic=

> <r_lp_tautomer_probability>
1

> <r_epik_Ionization_Penalty>
0.000534981

> <r_epik_Ionization_Penalty_Charging>
0

> <r_epik_Ionization_Penalty_Neutral>
0.000534981

> <r_epik_State_Penalty>
-0

> <r_epik_Charging_Adjusted_Penalty>
0

> <i_epik_Tot_Q>
0

> <i_epik_Tot_abs_Q>
0

> <r_epik_Metal_State_Penalty>
-0

> <b_epik_Metal_Only>
0

> <s_lp_Force_Field>
OPLS_2005

> <r_lp_Energy>
25.9186

> <b_lp_Chiralities_Consistent>
1

> <s_lp_Variant>
AV-unprocessed.smi:1706-1

> <Gold.Version>
5.8.1

> <Gold.Id.Protein>
6NUR|6NUR_protein|mol2

> <Gold.PLP.Fitness>
42.5127

> <Gold.PLP.PLP>
-34.2656

> <Gold.PLP.part.hbond>
-3.7187

> <Gold.PLP.part.metal>
0.0000

> <Gold.PLP.part.buried>
-0.2111

> <Gold.PLP.part.nonpolar>
-29.9734

> <Gold.PLP.part.repulsive>
0.2492

> <Gold.PLP.ligand.clash>
0.0000

> <Gold.PLP.ligand.torsion>
0.3923

> <Gold.PLP.Chemscore.Hbond>
3.0000

> <Gold.PLP.Chemscore.CHOScore>
0.0000

> <Gold.PLP.Chemscore.Metal>
0.0000

> <Gold.Chemscore.Hbonds>
donor molecule, donor type, donor heavy atom, donor atom, acceptor molecule, acceptor atom, score
      L1  H     7    26       P1  7948  1.00
      P1  H  7989  7998       L1    13  1.00
      P1  H 10752 10763       L1     9  1.00

> <Gold.PLP.Chemscore.Internal.Correction>
0.0316

> <Gold.Rescore>
     Score         DG    S(hbond)    S(metal)    S(lipo)     H(rot)  DE(clash)    DE(int)     intcor
     13.78     -14.22       1.54        0.00      62.23       1.44       0.03       0.41       ----

> <Gold.Chemscore.Fitness>
13.7824

> <Gold.Chemscore.DG>
-14.2220

> <Gold.Chemscore.ZeroCoef>
-5.4800

> <Gold.Chemscore.Hbond>
1.5391

> <Gold.Chemscore.Metal>
0.0000

> <Gold.Chemscore.Lipo>
62.2264

> <Gold.Chemscore.Internal_Hbond>
0.0000

> <Gold.Chemscore.DEClash>
0.0266

> <Gold.Chemscore.DEInternal>
0.4129

> <Gold.Chemscore.Rot>
1.4371

> <Gold.Chemscore.Internal.Correction>
   9.000000E+99

> <Gold.Chemscore.Hbonds>
donor molecule, donor type, donor heavy atom, donor atom, acceptor molecule, acceptor atom, score
      L1  H     7    26       P1  7948  0.33
      P1  H  7989  7998       L1    13  0.19
      P1  H 10752 10763       L1     9  0.44

> <Gold.Chemscore.Hbond.Weighted>
-5.1406

> <Gold.Chemscore.Metal.Weighted>
-0.0000

> <Gold.Chemscore.Lipo.Weighted>
-7.2805

> <Gold.Chemscore.Internal_Hbond.Weighted>
0.0000

> <Gold.Chemscore.DEClash.Weighted>
0.0266

> <Gold.Chemscore.DEInternal.Weighted>
0.4129

> <Gold.Chemscore.Rot.Weighted>
3.6790

> <Gold.Chemscore.Internal.Correction.Weighted>
   9.000000E+99

> <Gold.Protein.RotatedTorsions>
[ 6907 6896 6895 6894 ] final -176.80 input  -60.11 | X-H torsion
[ 7974 7965 7964 7962 ] final  179.62 input  175.53 | X-H torsion
[ 8008 7997 7996 7995 ] final   35.16 input   59.86 | X-H torsion
[ 10167 10162 10161 10158 ] final -105.43 input  -65.29 | X-H torsion
[ 10718 10713 10712 10709 ] final  -51.98 input   66.30 | X-H torsion
[ 10763 10752 10751 10750 ] final  100.52 input  -60.55 | X-H torsion
[ 11005 11000 10999 10996 ] final    1.75 input  -57.11 | X-H torsion

> <Gold.Protein.ActiveResidues>
 VAL166  LYS551  ARG553  GLY616  TRP617  ASP618  TYR619  PRO620  LYS621  CYS622 
 ASP623  PHE694  ASN695  SER759  ASP760  ASP761  ALA762  ILE779  LEU786  VAL792 
 PHE793  MET794  SER795  GLU796  ALA797  LYS798  CYS799  TRP800  GLU811  SER814 

> <Gold.Protein.RotatedAtoms>
  151.6107  133.3347  159.3066 H   0  0  0  0  0  0  0  0  0  0  0  0  # atno 6907 bound_to 6896
  150.8158  134.7342  159.6740 H   0  0  0  0  0  0  0  0  0  0  0  0  # atno 6908 bound_to 6896
  152.4254  134.5884  160.0019 H   0  0  0  0  0  0  0  0  0  0  0  0  # atno 6909 bound_to 6896
  144.7144  140.0576  143.6433 H   0  0  0  0  0  0  0  0  0  0  0  0  # atno 7974 bound_to 7965
  155.1665  140.3288  155.4401 H   0  0  0  0  0  0  0  0  0  0  0  0  # atno 8008 bound_to 7997
  156.2525  140.1951  156.6721 H   0  0  0  0  0  0  0  0  0  0  0  0  # atno 8009 bound_to 7997
  154.6368  140.0575  156.9784 H   0  0  0  0  0  0  0  0  0  0  0  0  # atno 8010 bound_to 7997
  140.1986  143.3836  152.1148 H   0  0  0  0  0  0  0  0  0  0  0  0  # atno 10167 bound_to 10162
  156.1662  130.4149  149.9717 H   0  0  0  0  0  0  0  0  0  0  0  0  # atno 10718 bound_to 10713
  153.3150  135.4076  155.1368 H   0  0  0  0  0  0  0  0  0  0  0  0  # atno 10763 bound_to 10752
  154.8586  135.3573  154.5673 H   0  0  0  0  0  0  0  0  0  0  0  0  # atno 10764 bound_to 10752
  153.6104  135.7068  153.5408 H   0  0  0  0  0  0  0  0  0  0  0  0  # atno 10765 bound_to 10752
  140.6119  133.9740  155.8181 H   0  0  0  0  0  0  0  0  0  0  0  0  # atno 11005 bound_to 11000
  145.9891  139.3001  143.0996 LP  0  0  0  0  0  0  0  0  0  0  0  0  # atno 17320 bound_to 7965
  145.8923  140.9296  143.0545 LP  0  0  0  0  0  0  0  0  0  0  0  0  # atno 17321 bound_to 7965
  139.5226  144.7061  151.5349 LP  0  0  0  0  0  0  0  0  0  0  0  0  # atno 17342 bound_to 10162
  140.6406  143.8896  150.6688 LP  0  0  0  0  0  0  0  0  0  0  0  0  # atno 17343 bound_to 10162
  156.7532  130.9123  151.3638 LP  0  0  0  0  0  0  0  0  0  0  0  0  # atno 17370 bound_to 10713
  157.6769  130.9103  150.0172 LP  0  0  0  0  0  0  0  0  0  0  0  0  # atno 17371 bound_to 10713
  141.0802  134.0074  157.3397 LP  0  0  0  0  0  0  0  0  0  0  0  0  # atno 17394 bound_to 11000
  139.9188  135.0199  156.7987 LP  0  0  0  0  0  0  0  0  0  0  0  0  # atno 17395 bound_to 11000

$$$$
