AV-unprocessed.smi:2928|AV-procd|sdf|11237|dock6
  -GOLD-   2272016133D 1   1.00000     0.00000
 Structure written by MMmdl.
 56 59  0  0  0  0  0  0  0  0  3 V2000
  150.4007  141.5382  156.1917 C   0  0  0  0  0  0  0  0  0  0  0  0
  150.2203  140.1003  155.8788 N   0  3  2  0  0  0  0  0  0  0  0  0
  149.5555  139.3102  156.9435 C   0  0  2  0  0  0  0  0  0  0  0  0
  150.4786  139.1385  158.1772 C   0  0  0  0  0  0  0  0  0  0  0  0
  151.8849  138.6054  157.8419 C   0  0  0  0  0  0  0  0  0  0  0  0
  152.4698  139.2436  156.5677 C   0  0  0  0  0  0  0  0  0  0  0  0
  151.4452  139.4034  155.4162 C   0  0  1  0  0  0  0  0  0  0  0  0
  151.0392  138.0813  154.7233 C   0  0  0  0  0  0  0  0  0  0  0  0
  150.1053  137.1742  155.5654 C   0  0  2  0  0  0  0  0  0  0  0  0
  149.4385  136.1985  154.7055 N   0  0  0  0  0  0  0  0  0  0  0  0
  149.4518  134.8701  154.8890 C   0  0  0  0  0  0  0  0  0  0  0  0
  150.0543  134.3148  155.8075 O   0  0  0  0  0  0  0  0  0  0  0  0
  148.7465  134.2379  153.9362 N   0  0  0  0  0  0  0  0  0  0  0  0
  148.5535  132.8358  153.7806 C   0  0  0  0  0  0  0  0  0  0  0  0
  149.3036  131.9049  154.5446 C   0  0  0  0  0  0  0  0  0  0  0  0
  149.0413  130.5269  154.4283 C   0  0  0  0  0  0  0  0  0  0  0  0
  148.0209  130.0998  153.5617 C   0  0  0  0  0  0  0  0  0  0  0  0
  147.3175  131.0099  152.8572 N   0  3  0  0  0  0  0  0  0  0  0  0
  147.5327  132.3483  152.9134 C   0  0  0  0  0  0  0  0  0  0  0  0
  146.7263  133.1816  152.1049 N   0  0  0  0  0  0  0  0  0  0  0  0
  145.4194  133.6267  152.5753 C   0  0  0  0  0  0  0  0  0  0  0  0
  144.7164  134.1712  151.3350 C   0  0  0  0  0  0  0  0  0  0  0  0
  145.2290  133.2466  150.2349 C   0  0  0  0  0  0  0  0  0  0  0  0
  146.6626  132.9242  150.6694 C   0  0  0  0  0  0  0  0  0  0  0  0
  149.0358  137.9883  156.3320 C   0  0  0  0  0  0  0  0  0  0  0  0
  151.0674  141.6983  157.0383 H   0  0  0  0  0  0  0  0  0  0  0  0
  149.4406  141.9978  156.4275 H   0  0  0  0  0  0  0  0  0  0  0  0
  150.8147  142.0654  155.3317 H   0  0  0  0  0  0  0  0  0  0  0  0
  148.6759  139.8661  157.2718 H   0  0  0  0  0  0  0  0  0  0  0  0
  150.5868  140.1044  158.6713 H   0  0  0  0  0  0  0  0  0  0  0  0
  150.0044  138.4897  158.9143 H   0  0  0  0  0  0  0  0  0  0  0  0
  152.5538  138.7944  158.6821 H   0  0  0  0  0  0  0  0  0  0  0  0
  151.8689  137.5228  157.7495 H   0  0  0  0  0  0  0  0  0  0  0  0
  152.8654  140.2264  156.8254 H   0  0  0  0  0  0  0  0  0  0  0  0
  153.3305  138.6666  156.2276 H   0  0  0  0  0  0  0  0  0  0  0  0
  151.9128  140.0239  154.6501 H   0  0  0  0  0  0  0  0  0  0  0  0
  150.5255  138.3417  153.7962 H   0  0  0  0  0  0  0  0  0  0  0  0
  151.9287  137.5272  154.4210 H   0  0  0  0  0  0  0  0  0  0  0  0
  150.6952  136.6148  156.2873 H   0  0  0  0  0  0  0  0  0  0  0  0
  148.9185  136.5644  153.9212 H   0  0  0  0  0  0  0  0  0  0  0  0
  148.3904  134.8130  153.1865 H   0  0  0  0  0  0  0  0  0  0  0  0
  150.0638  132.2294  155.2390 H   0  0  0  0  0  0  0  0  0  0  0  0
  149.6064  129.8104  155.0063 H   0  0  0  0  0  0  0  0  0  0  0  0
  147.7442  129.0659  153.4137 H   0  0  0  0  0  0  0  0  0  0  0  0
  144.8517  132.7866  152.9776 H   0  0  0  0  0  0  0  0  0  0  0  0
  145.5121  134.3848  153.3536 H   0  0  0  0  0  0  0  0  0  0  0  0
  143.6298  134.1676  151.4256 H   0  0  0  0  0  0  0  0  0  0  0  0
  145.0383  135.1953  151.1408 H   0  0  0  0  0  0  0  0  0  0  0  0
  144.6350  132.3315  150.2196 H   0  0  0  0  0  0  0  0  0  0  0  0
  145.1785  133.6960  149.2427 H   0  0  0  0  0  0  0  0  0  0  0  0
  147.3626  133.5890  150.1628 H   0  0  0  0  0  0  0  0  0  0  0  0
  146.9298  131.8957  150.4222 H   0  0  0  0  0  0  0  0  0  0  0  0
  148.5769  137.3695  157.1041 H   0  0  0  0  0  0  0  0  0  0  0  0
  148.2306  138.2434  155.6407 H   0  0  0  0  0  0  0  0  0  0  0  0
  149.5858  140.0887  155.0931 H   0  0  0  0  0  0  0  0  0  0  0  0
  146.5830  130.6684  152.2370 H   0  0  0  0  0  0  0  0  0  0  0  0
  1  2  1  0  0  0  0
  1 26  1  0  0  0  0
  1 27  1  0  0  0  0
  1 28  1  0  0  0  0
  2  7  1  0  0  0  0
  2  3  1  0  0  0  0
  2 55  1  0  0  0  0
  3 25  1  0  0  0  0
  3  4  1  0  0  0  0
  3 29  1  0  0  0  0
  4  5  1  0  0  0  0
  4 30  1  0  0  0  0
  4 31  1  0  0  0  0
  5  6  1  0  0  0  0
  5 32  1  0  0  0  0
  5 33  1  0  0  0  0
  6  7  1  0  0  0  0
  6 34  1  0  0  0  0
  6 35  1  0  0  0  0
  7  8  1  0  0  0  0
  7 36  1  0  0  0  0
  8  9  1  0  0  0  0
  8 37  1  0  0  0  0
  8 38  1  0  0  0  0
  9 10  1  0  0  0  0
  9 25  1  0  0  0  0
  9 39  1  0  0  0  0
 10 11  1  0  0  0  0
 10 40  1  0  0  0  0
 11 12  2  0  0  0  0
 11 13  1  0  0  0  0
 13 14  1  0  0  0  0
 13 41  1  0  0  0  0
 14 19  1  0  0  0  0
 14 15  2  0  0  0  0
 15 16  1  0  0  0  0
 15 42  1  0  0  0  0
 16 17  2  0  0  0  0
 16 43  1  0  0  0  0
 17 18  1  0  0  0  0
 17 44  1  0  0  0  0
 18 19  2  0  0  0  0
 18 56  1  0  0  0  0
 19 20  1  0  0  0  0
 20 24  1  0  0  0  0
 20 21  1  0  0  0  0
 21 22  1  0  0  0  0
 21 45  1  0  0  0  0
 21 46  1  0  0  0  0
 22 23  1  0  0  0  0
 22 47  1  0  0  0  0
 22 48  1  0  0  0  0
 23 24  1  0  0  0  0
 23 49  1  0  0  0  0
 23 50  1  0  0  0  0
 24 51  1  0  0  0  0
 24 52  1  0  0  0  0
 25 53  1  0  0  0  0
 25 54  1  0  0  0  0
M  CHG  1   2   1
M  CHG  1  18   1
M  END
> <s_m_source_file>
AV-unprocessed.smi

> <i_m_source_file_index>
2928

> <i_lp_mmshare_version>
43012

> <i_f3d_flags>
0

> <s_epik_input>
W0NIMl0xW0NIMl1bQ0gyXVtDQEhdKE4oW0NIM10pW0NIXTEyKVtDSDJdW0NASF0oW0NIMl0yKVtOSF1DKD1PKVtOSF1jM1tjSF1bY0hdW2NIXW5jM040W0NIMl1bQ0gyXVtDSDJdW0NIMl00

> <s_epik_cmdline>
J2VwaWtfcHl0aG9uJywgJy1waCcsICc3LjAnLCAnLXRuJywgJzgnLCAnLW1hJywgJzIwMCcsICctbWV0YWxfYmluZGluZycsICctaW1hZScsICc8aW5maWxlLm1hZT4nLCAnLW9tYWUnLCAnPG91dGZpbGUubWFlPic=

> <r_lp_tautomer_probability>
0.999994

> <r_epik_Ionization_Penalty>
1.2404

> <r_epik_Ionization_Penalty_Charging>
1.24038

> <r_epik_Ionization_Penalty_Neutral>
1.86539e-05

> <r_epik_State_Penalty>
1.30821

> <r_epik_Charging_Adjusted_Penalty>
2.54859

> <i_epik_Tot_Q>
2

> <i_epik_Tot_abs_Q>
2

> <r_epik_Metal_State_Penalty>
1.3782

> <b_epik_Metal_Only>
0

> <s_lp_Force_Field>
OPLS_2005

> <r_lp_Energy>
72.5254

> <b_lp_Chiralities_Consistent>
1

> <s_lp_Variant>
AV-unprocessed.smi:2928-7

> <Gold.Version>
5.8.1

> <Gold.Id.Protein>
6NUR|6NUR_protein|mol2

> <Gold.PLP.Fitness>
42.1777

> <Gold.PLP.PLP>
-38.4292

> <Gold.PLP.part.hbond>
-3.0000

> <Gold.PLP.part.metal>
0.0000

> <Gold.PLP.part.buried>
-1.5716

> <Gold.PLP.part.nonpolar>
-33.9557

> <Gold.PLP.part.repulsive>
0.3137

> <Gold.PLP.ligand.clash>
0.0000

> <Gold.PLP.ligand.torsion>
0.4751

> <Gold.PLP.Chemscore.Hbond>
1.4400

> <Gold.PLP.Chemscore.CHOScore>
0.0000

> <Gold.PLP.Chemscore.Metal>
0.0000

> <Gold.Chemscore.Hbonds>
donor molecule, donor type, donor heavy atom, donor atom, acceptor molecule, acceptor atom, score
      L1  H    10    40       P1  7948  0.60
      L1  H    13    41       P1  7948  0.83

> <Gold.PLP.Chemscore.Internal.Correction>
0.3787

> <Gold.Rescore>
     Score         DG    S(hbond)    S(metal)    S(lipo)     H(rot)  DE(clash)    DE(int)     intcor
     14.52     -17.15       1.11        0.00      94.15       1.19       0.66       1.97       ----

> <Gold.Chemscore.Fitness>
14.5156

> <Gold.Chemscore.DG>
-17.1502

> <Gold.Chemscore.ZeroCoef>
-5.4800

> <Gold.Chemscore.Hbond>
1.1065

> <Gold.Chemscore.Metal>
0.0000

> <Gold.Chemscore.Lipo>
94.1499

> <Gold.Chemscore.Internal_Hbond>
0.0000

> <Gold.Chemscore.DEClash>
0.6647

> <Gold.Chemscore.DEInternal>
1.9698

> <Gold.Chemscore.Rot>
1.1879

> <Gold.Chemscore.Internal.Correction>
   9.000000E+99

> <Gold.Chemscore.Hbonds>
donor molecule, donor type, donor heavy atom, donor atom, acceptor molecule, acceptor atom, score
      L1  H    10    40       P1  7948  0.57
      L1  H    13    41       P1  7948  0.55

> <Gold.Chemscore.Hbond.Weighted>
-3.6957

> <Gold.Chemscore.Metal.Weighted>
-0.0000

> <Gold.Chemscore.Lipo.Weighted>
-11.0155

> <Gold.Chemscore.Internal_Hbond.Weighted>
0.0000

> <Gold.Chemscore.DEClash.Weighted>
0.6647

> <Gold.Chemscore.DEInternal.Weighted>
1.9698

> <Gold.Chemscore.Rot.Weighted>
3.0410

> <Gold.Chemscore.Internal.Correction.Weighted>
   9.000000E+99

> <Gold.Protein.RotatedTorsions>
[ 6907 6896 6895 6894 ] final  -90.97 input  -60.11 | X-H torsion
[ 7974 7965 7964 7962 ] final  169.64 input  175.53 | X-H torsion
[ 8008 7997 7996 7995 ] final  -16.35 input   59.86 | X-H torsion
[ 10167 10162 10161 10158 ] final  140.20 input  -65.29 | X-H torsion
[ 10718 10713 10712 10709 ] final  -38.82 input   66.30 | X-H torsion
[ 10763 10752 10751 10750 ] final  103.13 input  -60.55 | X-H torsion
[ 11005 11000 10999 10996 ] final  -60.52 input  -57.11 | X-H torsion

> <Gold.Protein.ActiveResidues>
 VAL166  LYS551  ARG553  GLY616  TRP617  ASP618  TYR619  PRO620  LYS621  CYS622 
 ASP623  PHE694  ASN695  SER759  ASP760  ASP761  ALA762  ILE779  LEU786  VAL792 
 PHE793  MET794  SER795  GLU796  ALA797  LYS798  CYS799  TRP800  GLU811  SER814 

> <Gold.Protein.RotatedAtoms>
  150.6887  134.2350  159.4449 H   0  0  0  0  0  0  0  0  0  0  0  0  # atno 6907 bound_to 6896
  152.0298  134.9772  160.0581 H   0  0  0  0  0  0  0  0  0  0  0  0  # atno 6908 bound_to 6896
  152.1316  133.4376  159.4760 H   0  0  0  0  0  0  0  0  0  0  0  0  # atno 6909 bound_to 6896
  144.7349  139.9083  143.6413 H   0  0  0  0  0  0  0  0  0  0  0  0  # atno 7974 bound_to 7965
  154.5060  140.2172  155.9251 H   0  0  0  0  0  0  0  0  0  0  0  0  # atno 8008 bound_to 7997
  156.1493  140.3164  155.8589 H   0  0  0  0  0  0  0  0  0  0  0  0  # atno 8009 bound_to 7997
  155.3969  140.0482  157.3029 H   0  0  0  0  0  0  0  0  0  0  0  0  # atno 8010 bound_to 7997
  139.5056  144.6248  151.5963 H   0  0  0  0  0  0  0  0  0  0  0  0  # atno 10167 bound_to 10162
  156.2994  130.4238  149.8158 H   0  0  0  0  0  0  0  0  0  0  0  0  # atno 10718 bound_to 10713
  153.3486  135.3987  155.1628 H   0  0  0  0  0  0  0  0  0  0  0  0  # atno 10763 bound_to 10752
  154.8658  135.3651  154.5251 H   0  0  0  0  0  0  0  0  0  0  0  0  # atno 10764 bound_to 10752
  153.5701  135.7079  153.5568 H   0  0  0  0  0  0  0  0  0  0  0  0  # atno 10765 bound_to 10752
  141.1290  133.6623  156.5235 H   0  0  0  0  0  0  0  0  0  0  0  0  # atno 11005 bound_to 11000
  146.1020  139.4016  143.0341 LP  0  0  0  0  0  0  0  0  0  0  0  0  # atno 17320 bound_to 7965
  145.7565  140.9952  143.1222 LP  0  0  0  0  0  0  0  0  0  0  0  0  # atno 17321 bound_to 7965
  140.5962  143.9692  150.6356 LP  0  0  0  0  0  0  0  0  0  0  0  0  # atno 17342 bound_to 10162
  140.2889  143.3338  152.1081 LP  0  0  0  0  0  0  0  0  0  0  0  0  # atno 17343 bound_to 10162
  156.5542  130.8355  151.3309 LP  0  0  0  0  0  0  0  0  0  0  0  0  # atno 17370 bound_to 10713
  157.7364  130.9778  150.2133 LP  0  0  0  0  0  0  0  0  0  0  0  0  # atno 17371 bound_to 10713
  140.4273  134.7134  157.4923 LP  0  0  0  0  0  0  0  0  0  0  0  0  # atno 17394 bound_to 11000
  140.0318  134.6395  155.9096 LP  0  0  0  0  0  0  0  0  0  0  0  0  # atno 17395 bound_to 11000

$$$$
