AV-unprocessed.smi:3308|AV-procd|sdf|12715|dock5
  -GOLD-   2272019 53D 1   1.00000     0.00000
 Structure written by MMmdl.
 40 41  0  0  0  0  0  0  0  0  1 V2000
  147.7510  142.1637  154.4865 C   0  0  0  0  0  0  0  0  0  0  0  0
  149.0704  141.4135  154.7389 C   0  0  1  0  0  0  0  0  0  0  0  0
  149.4812  141.7662  156.1003 N   0  0  0  0  0  0  0  0  0  0  0  0
  150.8843  142.1955  156.2304 C   0  0  0  0  0  0  0  0  0  0  0  0
  151.5429  141.7699  157.5565 C   0  0  0  0  0  0  0  0  0  0  0  0
  151.7300  140.5691  157.7577 O   0  0  0  0  0  0  0  0  0  0  0  0
  151.8899  142.7082  158.4641 N   0  0  0  0  0  0  0  0  0  0  0  0
  151.7092  144.1413  158.2375 C   0  0  0  0  0  0  0  0  0  0  0  0
  152.4788  144.8408  159.3575 C   0  0  0  0  0  0  0  0  0  0  0  0
  152.4929  143.8228  160.4882 C   0  0  0  0  0  0  0  0  0  0  0  0
  152.4953  142.4710  159.7743 C   0  0  0  0  0  0  0  0  0  0  0  0
  148.9316  139.8704  154.6105 C   0  0  1  0  0  0  0  0  0  0  0  0
  147.9459  139.4390  153.5062 C   0  0  0  0  0  0  0  0  0  0  0  0
  150.2256  139.2304  154.3977 N   0  0  0  0  0  0  0  0  0  0  0  0
  150.4789  137.9482  153.9555 C   0  0  0  0  0  0  0  0  0  0  0  0
  151.8338  137.7802  153.9394 C   0  0  0  0  0  0  0  0  0  0  0  0
  152.3347  139.0301  154.3980 C   0  0  0  0  0  0  0  0  0  0  0  0
  151.3719  139.8944  154.6733 N   0  0  0  0  0  0  0  0  0  0  0  0
  147.4152  142.0490  153.4562 H   0  0  0  0  0  0  0  0  0  0  0  0
  147.8684  143.2342  154.6601 H   0  0  0  0  0  0  0  0  0  0  0  0
  146.9549  141.8058  155.1406 H   0  0  0  0  0  0  0  0  0  0  0  0
  149.7926  141.7646  154.0007 H   0  0  0  0  0  0  0  0  0  0  0  0
  148.8555  142.4708  156.4642 H   0  0  0  0  0  0  0  0  0  0  0  0
  151.4555  141.7428  155.4200 H   0  0  0  0  0  0  0  0  0  0  0  0
  150.9368  143.2687  156.0648 H   0  0  0  0  0  0  0  0  0  0  0  0
  152.0715  144.4519  157.2563 H   0  0  0  0  0  0  0  0  0  0  0  0
  150.6458  144.3781  158.2972 H   0  0  0  0  0  0  0  0  0  0  0  0
  153.5010  145.0372  159.0314 H   0  0  0  0  0  0  0  0  0  0  0  0
  152.0318  145.7918  159.6481 H   0  0  0  0  0  0  0  0  0  0  0  0
  153.3428  143.9473  161.1598 H   0  0  0  0  0  0  0  0  0  0  0  0
  151.5819  143.9229  161.0797 H   0  0  0  0  0  0  0  0  0  0  0  0
  151.9495  141.7254  160.3541 H   0  0  0  0  0  0  0  0  0  0  0  0
  153.5180  142.1193  159.6343 H   0  0  0  0  0  0  0  0  0  0  0  0
  148.5397  139.4850  155.5534 H   0  0  0  0  0  0  0  0  0  0  0  0
  146.9250  139.7410  153.7383 H   0  0  0  0  0  0  0  0  0  0  0  0
  147.9370  138.3543  153.3934 H   0  0  0  0  0  0  0  0  0  0  0  0
  148.2106  139.8712  152.5406 H   0  0  0  0  0  0  0  0  0  0  0  0
  149.6814  137.2673  153.6965 H   0  0  0  0  0  0  0  0  0  0  0  0
  152.3833  136.8975  153.6478 H   0  0  0  0  0  0  0  0  0  0  0  0
  153.3615  139.3324  154.5413 H   0  0  0  0  0  0  0  0  0  0  0  0
  1  2  1  0  0  0  0
  1 19  1  0  0  0  0
  1 20  1  0  0  0  0
  1 21  1  0  0  0  0
  2  3  1  0  0  0  0
  2 12  1  0  0  0  0
  2 22  1  0  0  0  0
  3  4  1  0  0  0  0
  3 23  1  0  0  0  0
  4  5  1  0  0  0  0
  4 24  1  0  0  0  0
  4 25  1  0  0  0  0
  5  6  2  0  0  0  0
  5  7  1  0  0  0  0
  7 11  1  0  0  0  0
  7  8  1  0  0  0  0
  8  9  1  0  0  0  0
  8 26  1  0  0  0  0
  8 27  1  0  0  0  0
  9 10  1  0  0  0  0
  9 28  1  0  0  0  0
  9 29  1  0  0  0  0
 10 11  1  0  0  0  0
 10 30  1  0  0  0  0
 10 31  1  0  0  0  0
 11 32  1  0  0  0  0
 11 33  1  0  0  0  0
 12 13  1  0  0  0  0
 12 14  1  0  0  0  0
 12 34  1  0  0  0  0
 13 35  1  0  0  0  0
 13 36  1  0  0  0  0
 13 37  1  0  0  0  0
 14 18  1  0  0  0  0
 14 15  1  0  0  0  0
 15 16  2  0  0  0  0
 15 38  1  0  0  0  0
 16 17  1  0  0  0  0
 16 39  1  0  0  0  0
 17 18  2  0  0  0  0
 17 40  1  0  0  0  0
M  END
> <s_m_source_file>
AV-unprocessed.smi

> <i_m_source_file_index>
3308

> <i_lp_mmshare_version>
43012

> <i_f3d_flags>
0

> <s_epik_input>
bjFbY0hdW2NIXVtjSF1uMVtDQEBIXShbQ0gzXSlbQ0BIXShbQ0gzXSlbTkhdW0NIMl1DKD1PKU4yW0NIMl1bQ0gyXVtDSDJdW0NIMl0y

> <s_epik_cmdline>
J2VwaWtfcHl0aG9uJywgJy1waCcsICc3LjAnLCAnLXRuJywgJzgnLCAnLW1hJywgJzIwMCcsICctbWV0YWxfYmluZGluZycsICctaW1hZScsICc8aW5maWxlLm1hZT4nLCAnLW9tYWUnLCAnPG91dGZpbGUubWFlPic=

> <r_lp_tautomer_probability>
1

> <r_epik_Ionization_Penalty>
0.918676

> <r_epik_Ionization_Penalty_Charging>
0

> <r_epik_Ionization_Penalty_Neutral>
0.918676

> <r_epik_State_Penalty>
0.958258

> <r_epik_Charging_Adjusted_Penalty>
0.958258

> <i_epik_Tot_Q>
0

> <i_epik_Tot_abs_Q>
0

> <r_epik_Metal_State_Penalty>
0.956879

> <b_epik_Metal_Only>
0

> <s_lp_Force_Field>
OPLS_2005

> <r_lp_Energy>
35.595

> <b_lp_Chiralities_Consistent>
1

> <s_lp_Variant>
AV-unprocessed.smi:3308-8

> <Gold.Version>
5.8.1

> <Gold.Id.Protein>
6NUR|6NUR_protein|mol2

> <Gold.PLP.Fitness>
48.4282

> <Gold.PLP.PLP>
-45.2163

> <Gold.PLP.part.hbond>
-2.0000

> <Gold.PLP.part.metal>
0.0000

> <Gold.PLP.part.buried>
-1.2179

> <Gold.PLP.part.nonpolar>
-41.8657

> <Gold.PLP.part.repulsive>
0.0541

> <Gold.PLP.ligand.clash>
0.0000

> <Gold.PLP.ligand.torsion>
1.9613

> <Gold.PLP.Chemscore.Hbond>
1.3432

> <Gold.PLP.Chemscore.CHOScore>
1.0000

> <Gold.PLP.Chemscore.Metal>
0.0000

> <Gold.Chemscore.Hbonds>
donor molecule, donor type, donor heavy atom, donor atom, acceptor molecule, acceptor atom, score
      L1  H     3    23       P1  8028  0.05
      P1  H  7989  7998       L1    18  0.85
      L1  C    15    38       P1  7948  1.00

> <Gold.PLP.Chemscore.Internal.Correction>
0.1050

> <Gold.Rescore>
     Score         DG    S(hbond)    S(metal)    S(lipo)     H(rot)  DE(clash)    DE(int)     intcor
     15.51     -18.50       1.36        0.00     110.08       1.72       0.65       2.34       ----

> <Gold.Chemscore.Fitness>
15.5063

> <Gold.Chemscore.DG>
-18.5050

> <Gold.Chemscore.ZeroCoef>
-5.4800

> <Gold.Chemscore.Hbond>
1.3620

> <Gold.Chemscore.Metal>
0.0000

> <Gold.Chemscore.Lipo>
110.0765

> <Gold.Chemscore.Internal_Hbond>
0.0000

> <Gold.Chemscore.DEClash>
0.6548

> <Gold.Chemscore.DEInternal>
2.3438

> <Gold.Chemscore.Rot>
1.7200

> <Gold.Chemscore.Internal.Correction>
   9.000000E+99

> <Gold.Chemscore.Hbonds>
donor molecule, donor type, donor heavy atom, donor atom, acceptor molecule, acceptor atom, score
      L1  H     3    23       P1  8028  0.06
      P1  H  7989  7998       L1    18  0.09

> <Gold.Chemscore.Hbond.Weighted>
-4.5491

> <Gold.Chemscore.Metal.Weighted>
-0.0000

> <Gold.Chemscore.Lipo.Weighted>
-12.8790

> <Gold.Chemscore.Internal_Hbond.Weighted>
0.0000

> <Gold.Chemscore.DEClash.Weighted>
0.6548

> <Gold.Chemscore.DEInternal.Weighted>
2.3438

> <Gold.Chemscore.Rot.Weighted>
4.4031

> <Gold.Chemscore.Internal.Correction.Weighted>
   9.000000E+99

> <Gold.Protein.RotatedTorsions>
[ 6907 6896 6895 6894 ] final  -94.10 input  -60.11 | X-H torsion
[ 7974 7965 7964 7962 ] final  -75.54 input  175.53 | X-H torsion
[ 8008 7997 7996 7995 ] final  117.33 input   59.86 | X-H torsion
[ 10167 10162 10161 10158 ] final  -62.55 input  -65.29 | X-H torsion
[ 10718 10713 10712 10709 ] final -106.05 input   66.30 | X-H torsion
[ 10763 10752 10751 10750 ] final  142.13 input  -60.55 | X-H torsion
[ 11005 11000 10999 10996 ] final  -54.38 input  -57.11 | X-H torsion

> <Gold.Protein.ActiveResidues>
 VAL166  LYS551  ARG553  GLY616  TRP617  ASP618  TYR619  PRO620  LYS621  CYS622 
 ASP623  PHE694  ASN695  SER759  ASP760  ASP761  ALA762  ILE779  LEU786  VAL792 
 PHE793  MET794  SER795  GLU796  ALA797  LYS798  CYS799  TRP800  GLU811  SER814 

> <Gold.Protein.RotatedAtoms>
  150.6935  134.1865  159.4268 H   0  0  0  0  0  0  0  0  0  0  0  0  # atno 6907 bound_to 6896
  151.9838  135.0013  160.0568 H   0  0  0  0  0  0  0  0  0  0  0  0  # atno 6908 bound_to 6896
  152.1731  133.4622  159.4956 H   0  0  0  0  0  0  0  0  0  0  0  0  # atno 6909 bound_to 6896
  145.6247  140.9354  143.1119 H   0  0  0  0  0  0  0  0  0  0  0  0  # atno 7974 bound_to 7965
  156.2488  140.2898  156.0661 H   0  0  0  0  0  0  0  0  0  0  0  0  # atno 8008 bound_to 7997
  155.1722  140.0402  157.2882 H   0  0  0  0  0  0  0  0  0  0  0  0  # atno 8009 bound_to 7997
  154.6318  140.2501  155.7432 H   0  0  0  0  0  0  0  0  0  0  0  0  # atno 8010 bound_to 7997
  140.5932  143.2345  151.6094 H   0  0  0  0  0  0  0  0  0  0  0  0  # atno 10167 bound_to 10162
  156.0373  130.5594  150.7626 H   0  0  0  0  0  0  0  0  0  0  0  0  # atno 10718 bound_to 10713
  153.9508  135.2970  155.3438 H   0  0  0  0  0  0  0  0  0  0  0  0  # atno 10763 bound_to 10752
  154.7427  135.5017  153.9154 H   0  0  0  0  0  0  0  0  0  0  0  0  # atno 10764 bound_to 10752
  153.0995  135.6730  153.9808 H   0  0  0  0  0  0  0  0  0  0  0  0  # atno 10765 bound_to 10752
  141.1023  133.6617  156.4311 H   0  0  0  0  0  0  0  0  0  0  0  0  # atno 11005 bound_to 11000
  144.7217  139.8008  143.7379 LP  0  0  0  0  0  0  0  0  0  0  0  0  # atno 17320 bound_to 7965
  146.1404  139.4459  143.0112 LP  0  0  0  0  0  0  0  0  0  0  0  0  # atno 17321 bound_to 7965
  139.5241  144.3115  152.0989 LP  0  0  0  0  0  0  0  0  0  0  0  0  # atno 17342 bound_to 10162
  140.2282  144.4395  150.6311 LP  0  0  0  0  0  0  0  0  0  0  0  0  # atno 17343 bound_to 10162
  157.5141  131.0927  151.0161 LP  0  0  0  0  0  0  0  0  0  0  0  0  # atno 17370 bound_to 10713
  157.0508  130.5786  149.5370 LP  0  0  0  0  0  0  0  0  0  0  0  0  # atno 17371 bound_to 10713
  140.4992  134.6502  157.5241 LP  0  0  0  0  0  0  0  0  0  0  0  0  # atno 17394 bound_to 11000
  139.9879  134.7033  155.9742 LP  0  0  0  0  0  0  0  0  0  0  0  0  # atno 17395 bound_to 11000

$$$$
