AV-unprocessed.smi:1284|AV-procd|sdf|5364|dock5
  -GOLD-   22720 4503D 1   1.00000     0.00000
 Structure written by MMmdl.
 39 41  0  0  0  0  0  0  0  0  1 V2000
  153.9036  137.3785  160.3005 N   0  0  0  0  0  0  0  0  0  0  0  0
  153.6365  138.0749  159.1923 C   0  0  0  0  0  0  0  0  0  0  0  0
  154.5061  138.3521  158.3693 O   0  0  0  0  0  0  0  0  0  0  0  0
  152.1850  138.5187  158.9762 C   0  0  0  0  0  0  0  0  0  0  0  0
  152.1375  140.0230  158.9088 C   0  0  0  0  0  0  0  0  0  0  0  0
  152.8953  140.7827  159.7044 N   0  0  0  0  0  0  0  0  0  0  0  0
  152.5588  142.0649  159.3206 C   0  0  0  0  0  0  0  0  0  0  0  0
  153.0326  143.3144  159.7806 C   0  0  0  0  0  0  0  0  0  0  0  0
  152.5364  144.5132  159.2281 C   0  0  0  0  0  0  0  0  0  0  0  0
  151.5601  144.4794  158.2118 C   0  0  0  0  0  0  0  0  0  0  0  0
  151.0722  143.2449  157.7425 C   0  0  0  0  0  0  0  0  0  0  0  0
  151.5726  142.0501  158.2954 C   0  0  0  0  0  0  0  0  0  0  0  0
  151.3174  140.7010  158.0620 N   0  0  0  0  0  0  0  0  0  0  0  0
  150.3607  140.1729  157.0961 C   0  0  0  0  0  0  0  0  0  0  0  0
  150.5758  140.7337  155.6763 C   0  0  1  0  0  0  0  0  0  0  0  0
  151.7388  140.1385  155.1387 O   0  0  0  0  0  0  0  0  0  0  0  0
  149.3578  140.5315  154.7850 C   0  0  0  0  0  0  0  0  0  0  0  0
  148.6134  141.6487  154.3481 C   0  0  0  0  0  0  0  0  0  0  0  0
  147.4673  141.4706  153.5499 C   0  0  0  0  0  0  0  0  0  0  0  0
  147.0588  140.1743  153.1826 C   0  0  0  0  0  0  0  0  0  0  0  0
  147.7970  139.0558  153.6146 C   0  0  0  0  0  0  0  0  0  0  0  0
  148.9428  139.2332  154.4139 C   0  0  0  0  0  0  0  0  0  0  0  0
  154.8490  137.0764  160.4862 H   0  0  0  0  0  0  0  0  0  0  0  0
  153.1641  137.1654  160.9539 H   0  0  0  0  0  0  0  0  0  0  0  0
  151.8022  138.0580  158.0675 H   0  0  0  0  0  0  0  0  0  0  0  0
  151.5518  138.1777  159.7965 H   0  0  0  0  0  0  0  0  0  0  0  0
  153.7806  143.3503  160.5584 H   0  0  0  0  0  0  0  0  0  0  0  0
  152.9068  145.4628  159.5854 H   0  0  0  0  0  0  0  0  0  0  0  0
  151.1856  145.4016  157.7926 H   0  0  0  0  0  0  0  0  0  0  0  0
  150.3266  143.2182  156.9620 H   0  0  0  0  0  0  0  0  0  0  0  0
  150.4252  139.0849  157.0984 H   0  0  0  0  0  0  0  0  0  0  0  0
  149.3522  140.4042  157.4411 H   0  0  0  0  0  0  0  0  0  0  0  0
  150.7854  141.8004  155.7392 H   0  0  0  0  0  0  0  0  0  0  0  0
  151.9423  139.3692  155.6487 H   0  0  0  0  0  0  0  0  0  0  0  0
  148.9124  142.6466  154.6333 H   0  0  0  0  0  0  0  0  0  0  0  0
  146.8994  142.3290  153.2226 H   0  0  0  0  0  0  0  0  0  0  0  0
  146.1786  140.0381  152.5717 H   0  0  0  0  0  0  0  0  0  0  0  0
  147.4823  138.0609  153.3362 H   0  0  0  0  0  0  0  0  0  0  0  0
  149.4961  138.3685  154.7496 H   0  0  0  0  0  0  0  0  0  0  0  0
  1  2  1  0  0  0  0
  1 23  1  0  0  0  0
  1 24  1  0  0  0  0
  2  3  2  0  0  0  0
  2  4  1  0  0  0  0
  4  5  1  0  0  0  0
  4 25  1  0  0  0  0
  4 26  1  0  0  0  0
  5 13  1  0  0  0  0
  5  6  2  0  0  0  0
  6  7  1  0  0  0  0
  7 12  2  0  0  0  0
  7  8  1  0  0  0  0
  8  9  2  0  0  0  0
  8 27  1  0  0  0  0
  9 10  1  0  0  0  0
  9 28  1  0  0  0  0
 10 11  2  0  0  0  0
 10 29  1  0  0  0  0
 11 12  1  0  0  0  0
 11 30  1  0  0  0  0
 12 13  1  0  0  0  0
 13 14  1  0  0  0  0
 14 15  1  0  0  0  0
 14 31  1  0  0  0  0
 14 32  1  0  0  0  0
 15 16  1  0  0  0  0
 15 17  1  0  0  0  0
 15 33  1  0  0  0  0
 16 34  1  0  0  0  0
 17 22  1  0  0  0  0
 17 18  2  0  0  0  0
 18 19  1  0  0  0  0
 18 35  1  0  0  0  0
 19 20  2  0  0  0  0
 19 36  1  0  0  0  0
 20 21  1  0  0  0  0
 20 37  1  0  0  0  0
 21 22  2  0  0  0  0
 21 38  1  0  0  0  0
 22 39  1  0  0  0  0
M  END
> <s_m_source_file>
AV-unprocessed.smi

> <i_m_source_file_index>
1284

> <i_lp_mmshare_version>
43012

> <i_f3d_flags>
0

> <s_epik_input>
W2NIXTFbY0hdW2NIXVtjSF1jKGMxMiluKGMobjIpW0NIMl1DKD1PKVtOSDJdKVtDSDJdW0NASF0oW09IXSljM1tjSF1bY0hdW2NIXVtjSF1bY0hdMw==

> <s_epik_cmdline>
J2VwaWtfcHl0aG9uJywgJy1waCcsICc3LjAnLCAnLXRuJywgJzgnLCAnLW1hJywgJzIwMCcsICctbWV0YWxfYmluZGluZycsICctaW1hZScsICc8aW5maWxlLm1hZT4nLCAnLW9tYWUnLCAnPG91dGZpbGUubWFlPic=

> <r_epik_Ionization_Penalty>
0.0366899

> <r_epik_Ionization_Penalty_Charging>
0

> <r_epik_Ionization_Penalty_Neutral>
0.0366899

> <r_epik_State_Penalty>
0.0306642

> <r_epik_Charging_Adjusted_Penalty>
0.0306642

> <i_epik_Tot_Q>
0

> <i_epik_Tot_abs_Q>
0

> <r_epik_Metal_State_Penalty>
0.028853

> <b_epik_Metal_Only>
0

> <s_lp_Force_Field>
OPLS_2005

> <r_lp_Energy>
12.7879

> <b_lp_Chiralities_Consistent>
1

> <s_lp_Variant>
AV-unprocessed.smi:1284-2

> <Gold.Version>
5.8.1

> <Gold.Id.Protein>
6NUR|6NUR_protein|mol2

> <Gold.PLP.Fitness>
52.4166

> <Gold.PLP.PLP>
-47.7086

> <Gold.PLP.part.hbond>
-2.0000

> <Gold.PLP.part.metal>
0.0000

> <Gold.PLP.part.buried>
-5.0994

> <Gold.PLP.part.nonpolar>
-40.4743

> <Gold.PLP.part.repulsive>
0.0486

> <Gold.PLP.ligand.clash>
0.0000

> <Gold.PLP.ligand.torsion>
0.5268

> <Gold.PLP.Chemscore.Hbond>
1.9120

> <Gold.PLP.Chemscore.CHOScore>
0.0000

> <Gold.PLP.Chemscore.Metal>
0.0000

> <Gold.Chemscore.Hbonds>
donor molecule, donor type, donor heavy atom, donor atom, acceptor molecule, acceptor atom, score
      P1  H  7989  7998       L1    16  0.84
      P1  H  7997  8010       L1     3  0.98

> <Gold.PLP.Chemscore.Internal.Correction>
0.0256

> <Gold.Rescore>
     Score         DG    S(hbond)    S(metal)    S(lipo)     H(rot)  DE(clash)    DE(int)     intcor
     17.40     -18.02       1.85        0.00     117.04       2.86       0.01       0.62       ----

> <Gold.Chemscore.Fitness>
17.3994

> <Gold.Chemscore.DG>
-18.0208

> <Gold.Chemscore.ZeroCoef>
-5.4800

> <Gold.Chemscore.Hbond>
1.8474

> <Gold.Chemscore.Metal>
0.0000

> <Gold.Chemscore.Lipo>
117.0401

> <Gold.Chemscore.Internal_Hbond>
0.0000

> <Gold.Chemscore.DEClash>
0.0060

> <Gold.Chemscore.DEInternal>
0.6154

> <Gold.Chemscore.Rot>
2.8606

> <Gold.Chemscore.Internal.Correction>
   9.000000E+99

> <Gold.Chemscore.Hbonds>
donor molecule, donor type, donor heavy atom, donor atom, acceptor molecule, acceptor atom, score
      P1  H  7989  7998       L1    16  0.16
      P1  H  7997  8010       L1     3  0.88

> <Gold.Chemscore.Hbond.Weighted>
-6.1703

> <Gold.Chemscore.Metal.Weighted>
-0.0000

> <Gold.Chemscore.Lipo.Weighted>
-13.6937

> <Gold.Chemscore.Internal_Hbond.Weighted>
0.0000

> <Gold.Chemscore.DEClash.Weighted>
0.0060

> <Gold.Chemscore.DEInternal.Weighted>
0.6154

> <Gold.Chemscore.Rot.Weighted>
7.3231

> <Gold.Chemscore.Internal.Correction.Weighted>
   9.000000E+99

> <Gold.Protein.RotatedTorsions>
[ 6907 6896 6895 6894 ] final   60.06 input  -60.11 | X-H torsion
[ 7974 7965 7964 7962 ] final   64.24 input  175.53 | X-H torsion
[ 8008 7997 7996 7995 ] final   -1.94 input   59.86 | X-H torsion
[ 10167 10162 10161 10158 ] final  -34.49 input  -65.29 | X-H torsion
[ 10718 10713 10712 10709 ] final  113.47 input   66.30 | X-H torsion
[ 10763 10752 10751 10750 ] final  139.85 input  -60.55 | X-H torsion
[ 11005 11000 10999 10996 ] final   54.75 input  -57.11 | X-H torsion

> <Gold.Protein.ActiveResidues>
 VAL166  LYS551  ARG553  GLY616  TRP617  ASP618  TYR619  PRO620  LYS621  CYS622 
 ASP623  PHE694  ASN695  SER759  ASP760  ASP761  ALA762  ILE779  LEU786  VAL792 
 PHE793  MET794  SER795  GLU796  ALA797  LYS798  CYS799  TRP800  GLU811  SER814 

> <Gold.Protein.RotatedAtoms>
  152.3969  134.6350  160.0085 H   0  0  0  0  0  0  0  0  0  0  0  0  # atno 6907 bound_to 6896
  151.6567  133.3313  159.3172 H   0  0  0  0  0  0  0  0  0  0  0  0  # atno 6908 bound_to 6896
  150.7876  134.6916  159.6545 H   0  0  0  0  0  0  0  0  0  0  0  0  # atno 6909 bound_to 6896
  145.8525  139.3263  143.0866 H   0  0  0  0  0  0  0  0  0  0  0  0  # atno 7974 bound_to 7965
  154.6412  140.2547  155.7320 H   0  0  0  0  0  0  0  0  0  0  0  0  # atno 8008 bound_to 7997
  156.2530  140.2887  156.0727 H   0  0  0  0  0  0  0  0  0  0  0  0  # atno 8009 bound_to 7997
  155.1593  140.0384  157.2829 H   0  0  0  0  0  0  0  0  0  0  0  0  # atno 8010 bound_to 7997
  140.7184  143.3544  151.2088 H   0  0  0  0  0  0  0  0  0  0  0  0  # atno 10167 bound_to 10162
  157.6336  131.0984  150.7045 H   0  0  0  0  0  0  0  0  0  0  0  0  # atno 10718 bound_to 10713
  153.9130  135.3009  155.3448 H   0  0  0  0  0  0  0  0  0  0  0  0  # atno 10763 bound_to 10752
  154.7614  135.4932  153.9474 H   0  0  0  0  0  0  0  0  0  0  0  0  # atno 10764 bound_to 10752
  153.1183  135.6776  153.9482 H   0  0  0  0  0  0  0  0  0  0  0  0  # atno 10765 bound_to 10752
  140.0661  134.5534  155.9097 H   0  0  0  0  0  0  0  0  0  0  0  0  # atno 11005 bound_to 11000
  145.9341  140.9027  143.0341 LP  0  0  0  0  0  0  0  0  0  0  0  0  # atno 17320 bound_to 7965
  144.6728  140.1458  143.7433 LP  0  0  0  0  0  0  0  0  0  0  0  0  # atno 17321 bound_to 7965
  139.7083  143.9419  152.2936 LP  0  0  0  0  0  0  0  0  0  0  0  0  # atno 17342 bound_to 10162
  139.9135  144.6842  150.8536 LP  0  0  0  0  0  0  0  0  0  0  0  0  # atno 17343 bound_to 10162
  156.7380  130.4730  149.5484 LP  0  0  0  0  0  0  0  0  0  0  0  0  # atno 17370 bound_to 10713
  156.1558  130.6341  151.0655 LP  0  0  0  0  0  0  0  0  0  0  0  0  # atno 17371 bound_to 10713
  141.1993  133.6606  156.5838 LP  0  0  0  0  0  0  0  0  0  0  0  0  # atno 17394 bound_to 11000
  140.3697  134.7617  157.4590 LP  0  0  0  0  0  0  0  0  0  0  0  0  # atno 17395 bound_to 11000

$$$$
