AV-unprocessed.smi:109|AV-procd|sdf|1052|dock5
  -GOLD-   2262018103D 1   1.00000     0.00000
 Structure written by MMmdl.
 58 61  0  0  0  0  0  0  0  0  1 V2000
  146.7031  134.7841  155.1854 O   0  0  0  0  0  0  0  0  0  0  0  0
  147.2897  134.1395  156.2952 C   0  0  0  0  0  0  0  0  0  0  0  0
  148.6609  134.7641  156.5988 C   0  0  0  0  0  0  0  0  0  0  0  0
  149.6284  134.7031  155.3960 C   0  0  1  0  0  0  0  0  0  0  0  0
  150.8052  135.5301  155.6633 N   0  0  0  0  0  0  0  0  0  0  0  0
  150.8220  136.8534  155.3883 C   0  0  0  0  0  0  0  0  0  0  0  0
  150.4696  137.3270  154.1647 N   0  0  0  0  0  0  0  0  0  0  0  0
  150.4840  138.6417  153.9278 C   0  0  0  0  0  0  0  0  0  0  0  0
  150.8085  139.6350  154.7577 N   0  0  0  0  0  0  0  0  0  0  0  0
  151.1662  139.1670  155.9885 C   0  0  0  0  0  0  0  0  0  0  0  0
  151.2010  137.7982  156.3769 C   0  0  0  0  0  0  0  0  0  0  0  0
  151.6152  137.6936  157.6979 N   0  0  0  0  0  0  0  0  0  0  0  0
  151.8113  138.9311  158.0656 C   0  0  0  0  0  0  0  0  0  0  0  0
  151.5631  139.8833  157.1017 N   0  0  0  0  0  0  0  0  0  0  0  0
  151.6895  141.3706  157.2484 C   0  0  2  0  0  0  0  0  0  0  0  0
  152.1034  141.6751  158.5475 O   0  0  0  0  0  0  0  0  0  0  0  0
  151.1504  142.5186  159.1890 C   0  0  1  0  0  0  0  0  0  0  0  0
  151.8323  143.4245  160.2293 C   0  0  0  0  0  0  0  0  0  0  0  0
  151.6598  142.8992  161.5284 O   0  0  0  0  0  0  0  0  0  0  0  0
  150.4041  143.2121  158.0398 C   0  0  1  0  0  0  0  0  0  0  0  0
  151.1073  144.3500  157.5759 O   0  0  0  0  0  0  0  0  0  0  0  0
  150.3773  142.1326  156.9694 C   0  0  2  0  0  0  0  0  0  0  0  0
  149.2109  141.3377  157.0897 O   0  0  0  0  0  0  0  0  0  0  0  0
  150.0498  133.2641  154.9906 C   0  0  0  0  0  0  0  0  0  0  0  0
  148.8882  132.4514  154.3788 C   0  0  0  0  0  0  0  0  0  0  0  0
  149.3632  131.0725  153.8919 C   0  0  0  0  0  0  0  0  0  0  0  0
  150.0377  130.2839  155.0254 C   0  0  0  0  0  0  0  0  0  0  0  0
  151.1925  131.0840  155.6482 C   0  0  0  0  0  0  0  0  0  0  0  0
  150.7174  132.4639  156.1326 C   0  0  0  0  0  0  0  0  0  0  0  0
  152.4871  141.6476  156.5579 H   0  0  0  0  0  0  0  0  0  0  0  0
  150.4449  141.8668  159.7053 H   0  0  0  0  0  0  0  0  0  0  0  0
  149.4045  143.5321  158.3372 H   0  0  0  0  0  0  0  0  0  0  0  0
  150.3995  142.5436  155.9591 H   0  0  0  0  0  0  0  0  0  0  0  0
  146.3837  135.6288  155.4637 H   0  0  0  0  0  0  0  0  0  0  0  0
  146.6243  134.2364  157.1535 H   0  0  0  0  0  0  0  0  0  0  0  0
  147.3841  133.0761  156.0734 H   0  0  0  0  0  0  0  0  0  0  0  0
  148.5260  135.7975  156.9208 H   0  0  0  0  0  0  0  0  0  0  0  0
  149.0900  134.2341  157.4484 H   0  0  0  0  0  0  0  0  0  0  0  0
  149.0894  135.1339  154.5516 H   0  0  0  0  0  0  0  0  0  0  0  0
  151.6130  135.0368  156.0158 H   0  0  0  0  0  0  0  0  0  0  0  0
  150.1913  138.9417  152.9326 H   0  0  0  0  0  0  0  0  0  0  0  0
  152.1433  139.1862  159.0615 H   0  0  0  0  0  0  0  0  0  0  0  0
  152.9014  143.4821  160.0236 H   0  0  0  0  0  0  0  0  0  0  0  0
  151.4472  144.4435  160.1897 H   0  0  0  0  0  0  0  0  0  0  0  0
  152.3474  142.2720  161.6925 H   0  0  0  0  0  0  0  0  0  0  0  0
  150.6044  144.7464  156.8806 H   0  0  0  0  0  0  0  0  0  0  0  0
  148.4681  141.8537  156.8159 H   0  0  0  0  0  0  0  0  0  0  0  0
  150.7932  133.3646  154.1981 H   0  0  0  0  0  0  0  0  0  0  0  0
  148.0920  132.3105  155.1093 H   0  0  0  0  0  0  0  0  0  0  0  0
  148.4493  132.9996  153.5445 H   0  0  0  0  0  0  0  0  0  0  0  0
  148.5183  130.5068  153.4977 H   0  0  0  0  0  0  0  0  0  0  0  0
  150.0640  131.1976  153.0656 H   0  0  0  0  0  0  0  0  0  0  0  0
  149.3008  130.0479  155.7942 H   0  0  0  0  0  0  0  0  0  0  0  0
  150.4071  129.3304  154.6470 H   0  0  0  0  0  0  0  0  0  0  0  0
  151.6236  130.5267  156.4804 H   0  0  0  0  0  0  0  0  0  0  0  0
  151.9896  131.2084  154.9141 H   0  0  0  0  0  0  0  0  0  0  0  0
  151.5664  133.0161  156.5367 H   0  0  0  0  0  0  0  0  0  0  0  0
  150.0169  132.3269  156.9567 H   0  0  0  0  0  0  0  0  0  0  0  0
  1  2  1  0  0  0  0
  1 34  1  0  0  0  0
  2  3  1  0  0  0  0
  2 35  1  0  0  0  0
  2 36  1  0  0  0  0
  3  4  1  0  0  0  0
  3 37  1  0  0  0  0
  3 38  1  0  0  0  0
  4  5  1  0  0  0  0
  4 24  1  0  0  0  0
  4 39  1  0  0  0  0
  5  6  1  0  0  0  0
  5 40  1  0  0  0  0
  6 11  1  0  0  0  0
  6  7  2  0  0  0  0
  7  8  1  0  0  0  0
  8  9  2  0  0  0  0
  8 41  1  0  0  0  0
  9 10  1  0  0  0  0
 10 14  1  0  0  0  0
 10 11  2  0  0  0  0
 11 12  1  0  0  0  0
 12 13  2  0  0  0  0
 13 14  1  0  0  0  0
 13 42  1  0  0  0  0
 14 15  1  0  0  0  0
 15 30  1  0  0  0  0
 15 22  1  0  0  0  0
 15 16  1  0  0  0  0
 16 17  1  0  0  0  0
 17 31  1  0  0  0  0
 17 18  1  0  0  0  0
 17 20  1  0  0  0  0
 18 19  1  0  0  0  0
 18 43  1  0  0  0  0
 18 44  1  0  0  0  0
 19 45  1  0  0  0  0
 20 32  1  0  0  0  0
 20 21  1  0  0  0  0
 20 22  1  0  0  0  0
 21 46  1  0  0  0  0
 22 33  1  0  0  0  0
 22 23  1  0  0  0  0
 23 47  1  0  0  0  0
 24 29  1  0  0  0  0
 24 25  1  0  0  0  0
 24 48  1  0  0  0  0
 25 26  1  0  0  0  0
 25 49  1  0  0  0  0
 25 50  1  0  0  0  0
 26 27  1  0  0  0  0
 26 51  1  0  0  0  0
 26 52  1  0  0  0  0
 27 28  1  0  0  0  0
 27 53  1  0  0  0  0
 27 54  1  0  0  0  0
 28 29  1  0  0  0  0
 28 55  1  0  0  0  0
 28 56  1  0  0  0  0
 29 57  1  0  0  0  0
 29 58  1  0  0  0  0
M  END
> <s_m_source_file>
AV-unprocessed.smi

> <i_m_source_file_index>
109

> <i_lp_mmshare_version>
43012

> <i_f3d_flags>
0

> <s_epik_input>
W0NIMl0xW0NIMl1bQ0gyXVtDSDJdW0NIMl1bQ0hdMVtDQEhdKFtDSDJdW0NIMl1bT0hdKVtOSF1jKG5bY0hdbjIpYyhjMjMpbltjSF1uM1tDQEBIXTRPW0NASF0oW0NIMl1bT0hdKVtDQEBIXShbT0hdKVtDQEhdNFtPSF0=

> <s_epik_cmdline>
J2VwaWtfcHl0aG9uJywgJy1waCcsICc3LjAnLCAnLXRuJywgJzgnLCAnLW1hJywgJzIwMCcsICctbWV0YWxfYmluZGluZycsICctaW1hZScsICc8aW5maWxlLm1hZT4nLCAnLW9tYWUnLCAnPG91dGZpbGUubWFlPic=

> <r_lp_tautomer_probability>
1

> <r_epik_Ionization_Penalty>
0.000793976

> <r_epik_Ionization_Penalty_Charging>
0

> <r_epik_Ionization_Penalty_Neutral>
0.000793976

> <r_epik_State_Penalty>
-0

> <r_epik_Charging_Adjusted_Penalty>
0

> <i_epik_Tot_Q>
0

> <i_epik_Tot_abs_Q>
0

> <r_epik_Metal_State_Penalty>
-0

> <b_epik_Metal_Only>
0

> <s_epik_Chemistry_Notes>
This compound contains an acetal/aminal-like group ( X-CH(R)-Y where X, Y are N, S, or O) that may be acid/base labile, releasing an aldehyde.

> <s_lp_Force_Field>
OPLS_2005

> <r_lp_Energy>
55.7279

> <b_lp_Chiralities_Consistent>
1

> <s_lp_Variant>
AV-unprocessed.smi:109-22

> <Gold.Version>
5.8.1

> <Gold.Id.Protein>
6NUR|6NUR_protein|mol2

> <Gold.PLP.Fitness>
43.8945

> <Gold.PLP.PLP>
-36.4757

> <Gold.PLP.part.hbond>
-3.0143

> <Gold.PLP.part.metal>
0.0000

> <Gold.PLP.part.buried>
-7.5985

> <Gold.PLP.part.nonpolar>
-27.9525

> <Gold.PLP.part.repulsive>
2.0245

> <Gold.PLP.ligand.clash>
0.0000

> <Gold.PLP.ligand.torsion>
1.5104

> <Gold.PLP.Chemscore.Hbond>
2.3575

> <Gold.PLP.Chemscore.CHOScore>
1.0000

> <Gold.PLP.Chemscore.Metal>
0.0000

> <Gold.Chemscore.Hbonds>
donor molecule, donor type, donor heavy atom, donor atom, acceptor molecule, acceptor atom, score
      L1  H    21    46       P1  8028  0.91
      P1  H  6933  6945       L1    19  0.46
      P1  H  7989  7998       L1     9  1.00
      L1  C     8    41       P1  7957  1.00

> <Gold.PLP.Chemscore.Internal.Correction>
0.3671

> <Gold.Rescore>
     Score         DG    S(hbond)    S(metal)    S(lipo)     H(rot)  DE(clash)    DE(int)     intcor
      2.07      -4.36       1.19        0.00      76.07       5.47       0.14       2.14       ----

> <Gold.Chemscore.Fitness>
2.0727

> <Gold.Chemscore.DG>
-4.3613

> <Gold.Chemscore.ZeroCoef>
-5.4800

> <Gold.Chemscore.Hbond>
1.1900

> <Gold.Chemscore.Metal>
0.0000

> <Gold.Chemscore.Lipo>
76.0703

> <Gold.Chemscore.Internal_Hbond>
0.0000

> <Gold.Chemscore.DEClash>
0.1449

> <Gold.Chemscore.DEInternal>
2.1438

> <Gold.Chemscore.Rot>
5.4662

> <Gold.Chemscore.Internal.Correction>
   9.000000E+99

> <Gold.Chemscore.Hbonds>
donor molecule, donor type, donor heavy atom, donor atom, acceptor molecule, acceptor atom, score
      L1  H    21    46       P1  8028  0.65
      P1  H  6933  6945       L1    19  0.10
      P1  H  7989  7998       L1     9  0.25

> <Gold.Chemscore.Hbond.Weighted>
-3.9746

> <Gold.Chemscore.Metal.Weighted>
-0.0000

> <Gold.Chemscore.Lipo.Weighted>
-8.9002

> <Gold.Chemscore.Internal_Hbond.Weighted>
0.0000

> <Gold.Chemscore.DEClash.Weighted>
0.1449

> <Gold.Chemscore.DEInternal.Weighted>
2.1438

> <Gold.Chemscore.Rot.Weighted>
13.9935

> <Gold.Chemscore.Internal.Correction.Weighted>
   9.000000E+99

> <Gold.Protein.RotatedTorsions>
[ 6907 6896 6895 6894 ] final -111.74 input  -60.11 | X-H torsion
[ 7974 7965 7964 7962 ] final   91.22 input  175.53 | X-H torsion
[ 8008 7997 7996 7995 ] final  116.33 input   59.86 | X-H torsion
[ 10167 10162 10161 10158 ] final  -27.11 input  -65.29 | X-H torsion
[ 10718 10713 10712 10709 ] final  105.48 input   66.30 | X-H torsion
[ 10763 10752 10751 10750 ] final  -77.34 input  -60.55 | X-H torsion
[ 11005 11000 10999 10996 ] final   -4.66 input  -57.11 | X-H torsion

> <Gold.Protein.ActiveResidues>
 VAL166  LYS551  ARG553  GLY616  TRP617  ASP618  TYR619  PRO620  LYS621  CYS622 
 ASP623  PHE694  ASN695  SER759  ASP760  ASP761  ALA762  ILE779  LEU786  VAL792 
 PHE793  MET794  SER795  GLU796  ALA797  LYS798  CYS799  TRP800  GLU811  SER814 

> <Gold.Protein.RotatedAtoms>
  150.7710  133.9192  159.3392 H   0  0  0  0  0  0  0  0  0  0  0  0  # atno 6907 bound_to 6896
  151.7078  135.0916  160.0272 H   0  0  0  0  0  0  0  0  0  0  0  0  # atno 6908 bound_to 6896
  152.3728  133.6403  159.6136 H   0  0  0  0  0  0  0  0  0  0  0  0  # atno 6909 bound_to 6896
  145.5086  139.2276  143.2737 H   0  0  0  0  0  0  0  0  0  0  0  0  # atno 7974 bound_to 7965
  156.2433  140.2920  156.0507 H   0  0  0  0  0  0  0  0  0  0  0  0  # atno 8008 bound_to 7997
  155.1885  140.0406  157.2913 H   0  0  0  0  0  0  0  0  0  0  0  0  # atno 8009 bound_to 7997
  154.6211  140.2476  155.7555 H   0  0  0  0  0  0  0  0  0  0  0  0  # atno 8010 bound_to 7997
  140.7279  143.4120  151.1089 H   0  0  0  0  0  0  0  0  0  0  0  0  # atno 10167 bound_to 10162
  157.6704  131.0828  150.5863 H   0  0  0  0  0  0  0  0  0  0  0  0  # atno 10718 bound_to 10713
  154.5116  135.5767  153.6609 H   0  0  0  0  0  0  0  0  0  0  0  0  # atno 10763 bound_to 10752
  152.9898  135.6160  154.2871 H   0  0  0  0  0  0  0  0  0  0  0  0  # atno 10764 bound_to 10752
  154.2786  135.2851  155.2686 H   0  0  0  0  0  0  0  0  0  0  0  0  # atno 10765 bound_to 10752
  140.6827  133.9140  155.8565 H   0  0  0  0  0  0  0  0  0  0  0  0  # atno 11005 bound_to 11000
  146.2181  140.5891  142.9029 LP  0  0  0  0  0  0  0  0  0  0  0  0  # atno 17320 bound_to 7965
  144.7740  140.5699  143.6651 LP  0  0  0  0  0  0  0  0  0  0  0  0  # atno 17321 bound_to 7965
  139.7755  143.8431  152.3128 LP  0  0  0  0  0  0  0  0  0  0  0  0  # atno 17342 bound_to 10162
  139.8364  144.7230  150.9385 LP  0  0  0  0  0  0  0  0  0  0  0  0  # atno 17343 bound_to 10162
  156.6163  130.4393  149.5839 LP  0  0  0  0  0  0  0  0  0  0  0  0  # atno 17370 bound_to 10713
  156.2390  130.6840  151.1538 LP  0  0  0  0  0  0  0  0  0  0  0  0  # atno 17371 bound_to 10713
  141.0305  134.0763  157.4020 LP  0  0  0  0  0  0  0  0  0  0  0  0  # atno 17394 bound_to 11000
  139.8947  135.0137  156.6964 LP  0  0  0  0  0  0  0  0  0  0  0  0  # atno 17395 bound_to 11000

$$$$
