AV-unprocessed.smi:2204|AV-procd|sdf|8938|dock7
  -GOLD-   2272012153D 1   1.00000     0.00000
 Structure written by MMmdl.
 39 40  0  0  0  0  0  0  0  0  1 V2000
  151.7582  144.6156  158.0146 C   0  0  0  0  0  0  0  0  0  0  0  0
  152.2385  143.7402  159.1341 C   0  0  0  0  0  0  0  0  0  0  0  0
  152.3590  144.0612  160.5149 C   0  0  0  0  0  0  0  0  0  0  0  0
  152.8399  142.9173  161.0869 C   0  0  0  0  0  0  0  0  0  0  0  0
  153.1745  142.6231  162.5125 C   0  0  0  0  0  0  0  0  0  0  0  0
  152.9870  141.9905  160.0692 N   0  0  0  0  0  0  0  0  0  0  0  0
  153.4708  140.6179  160.1347 C   0  0  0  0  0  0  0  0  0  0  0  0
  153.2901  139.8718  158.8084 C   0  0  0  0  0  0  0  0  0  0  0  0
  154.2293  139.2322  158.3357 O   0  0  0  0  0  0  0  0  0  0  0  0
  152.0919  139.9778  158.2096 N   0  0  0  0  0  0  0  0  0  0  0  0
  151.7099  139.3653  156.9406 C   0  0  1  0  0  0  0  0  0  0  0  0
  150.8978  138.0958  157.2405 C   0  0  0  0  0  0  0  0  0  0  0  0
  150.9235  140.3814  156.0858 C   0  0  2  0  0  0  0  0  0  0  0  0
  149.6059  140.8502  156.7089 C   0  0  0  0  0  0  0  0  0  0  0  0
  148.7956  141.2213  155.4885 C   0  0  0  0  0  0  0  0  0  0  0  0
  149.1981  140.1197  154.5161 C   0  0  0  0  0  0  0  0  0  0  0  0
  150.5508  139.8061  154.8326 O   0  0  0  0  0  0  0  0  0  0  0  0
  152.6157  142.4996  158.8741 N   0  0  0  0  0  0  0  0  0  0  0  0
  151.3430  145.5493  158.3945 H   0  0  0  0  0  0  0  0  0  0  0  0
  150.9808  144.1204  157.4322 H   0  0  0  0  0  0  0  0  0  0  0  0
  152.5744  144.8673  157.3372 H   0  0  0  0  0  0  0  0  0  0  0  0
  152.1269  144.9920  161.0109 H   0  0  0  0  0  0  0  0  0  0  0  0
  153.0262  143.5040  163.1371 H   0  0  0  0  0  0  0  0  0  0  0  0
  154.2144  142.3131  162.6140 H   0  0  0  0  0  0  0  0  0  0  0  0
  152.5421  141.8260  162.9035 H   0  0  0  0  0  0  0  0  0  0  0  0
  154.5257  140.6164  160.4093 H   0  0  0  0  0  0  0  0  0  0  0  0
  152.9382  140.0942  160.9304 H   0  0  0  0  0  0  0  0  0  0  0  0
  151.3848  140.5276  158.6751 H   0  0  0  0  0  0  0  0  0  0  0  0
  152.6040  139.0637  156.3920 H   0  0  0  0  0  0  0  0  0  0  0  0
  150.6343  137.5651  156.3257 H   0  0  0  0  0  0  0  0  0  0  0  0
  149.9728  138.3304  157.7681 H   0  0  0  0  0  0  0  0  0  0  0  0
  151.4689  137.4049  157.8619 H   0  0  0  0  0  0  0  0  0  0  0  0
  151.5443  141.2531  155.8714 H   0  0  0  0  0  0  0  0  0  0  0  0
  149.1185  140.0319  157.2412 H   0  0  0  0  0  0  0  0  0  0  0  0
  149.7349  141.6811  157.4032 H   0  0  0  0  0  0  0  0  0  0  0  0
  147.7222  141.2539  155.6769 H   0  0  0  0  0  0  0  0  0  0  0  0
  149.1094  142.1947  155.1094 H   0  0  0  0  0  0  0  0  0  0  0  0
  148.5899  139.2290  154.6784 H   0  0  0  0  0  0  0  0  0  0  0  0
  149.0889  140.4198  153.4738 H   0  0  0  0  0  0  0  0  0  0  0  0
  1  2  1  0  0  0  0
  1 19  1  0  0  0  0
  1 20  1  0  0  0  0
  1 21  1  0  0  0  0
  2 18  2  0  0  0  0
  2  3  1  0  0  0  0
  3  4  2  0  0  0  0
  3 22  1  0  0  0  0
  4  5  1  0  0  0  0
  4  6  1  0  0  0  0
  5 23  1  0  0  0  0
  5 24  1  0  0  0  0
  5 25  1  0  0  0  0
  6  7  1  0  0  0  0
  6 18  1  0  0  0  0
  7  8  1  0  0  0  0
  7 26  1  0  0  0  0
  7 27  1  0  0  0  0
  8  9  2  0  0  0  0
  8 10  1  0  0  0  0
 10 11  1  0  0  0  0
 10 28  1  0  0  0  0
 11 12  1  0  0  0  0
 11 13  1  0  0  0  0
 11 29  1  0  0  0  0
 12 30  1  0  0  0  0
 12 31  1  0  0  0  0
 12 32  1  0  0  0  0
 13 17  1  0  0  0  0
 13 14  1  0  0  0  0
 13 33  1  0  0  0  0
 14 15  1  0  0  0  0
 14 34  1  0  0  0  0
 14 35  1  0  0  0  0
 15 16  1  0  0  0  0
 15 36  1  0  0  0  0
 15 37  1  0  0  0  0
 16 17  1  0  0  0  0
 16 38  1  0  0  0  0
 16 39  1  0  0  0  0
M  END
> <s_m_source_file>
AV-unprocessed.smi

> <i_m_source_file_index>
2204

> <i_lp_mmshare_version>
43012

> <i_f3d_flags>
0

> <s_epik_input>
W0NIM11jMVtjSF1jKFtDSDNdKW4objEpW0NIMl1DKD1PKVtOSF1bQ0BIXShbQ0gzXSlbQ0BASF0yW0NIMl1bQ0gyXVtDSDJdTzI=

> <s_epik_cmdline>
J2VwaWtfcHl0aG9uJywgJy1waCcsICc3LjAnLCAnLXRuJywgJzgnLCAnLW1hJywgJzIwMCcsICctbWV0YWxfYmluZGluZycsICctaW1hZScsICc8aW5maWxlLm1hZT4nLCAnLW9tYWUnLCAnPG91dGZpbGUubWFlPic=

> <r_lp_tautomer_probability>
1

> <r_epik_Ionization_Penalty>
0.000433354

> <r_epik_Ionization_Penalty_Charging>
0

> <r_epik_Ionization_Penalty_Neutral>
0.000433354

> <r_epik_State_Penalty>
-0

> <r_epik_Charging_Adjusted_Penalty>
0

> <i_epik_Tot_Q>
0

> <i_epik_Tot_abs_Q>
0

> <r_epik_Metal_State_Penalty>
-0

> <b_epik_Metal_Only>
0

> <s_lp_Force_Field>
OPLS_2005

> <r_lp_Energy>
17.6032

> <b_lp_Chiralities_Consistent>
1

> <s_lp_Variant>
AV-unprocessed.smi:2204-2

> <Gold.Version>
5.8.1

> <Gold.Id.Protein>
6NUR|6NUR_protein|mol2

> <Gold.PLP.Fitness>
48.1315

> <Gold.PLP.PLP>
-43.0273

> <Gold.PLP.part.hbond>
-2.0000

> <Gold.PLP.part.metal>
0.0000

> <Gold.PLP.part.buried>
-5.2040

> <Gold.PLP.part.nonpolar>
-35.1964

> <Gold.PLP.part.repulsive>
0.1574

> <Gold.PLP.ligand.clash>
0.0000

> <Gold.PLP.ligand.torsion>
0.4573

> <Gold.PLP.Chemscore.Hbond>
2.0000

> <Gold.PLP.Chemscore.CHOScore>
0.0000

> <Gold.PLP.Chemscore.Metal>
0.0000

> <Gold.Chemscore.Hbonds>
donor molecule, donor type, donor heavy atom, donor atom, acceptor molecule, acceptor atom, score
      P1  H  7989  7998       L1    17  1.00
      P1  H  7997  8008       L1     9  0.93

> <Gold.PLP.Chemscore.Internal.Correction>
0.0189

> <Gold.Rescore>
     Score         DG    S(hbond)    S(metal)    S(lipo)     H(rot)  DE(clash)    DE(int)     intcor
     17.99     -20.14       1.80        0.00     106.85       1.50       0.09       2.06       ----

> <Gold.Chemscore.Fitness>
17.9933

> <Gold.Chemscore.DG>
-20.1431

> <Gold.Chemscore.ZeroCoef>
-5.4800

> <Gold.Chemscore.Hbond>
1.7972

> <Gold.Chemscore.Metal>
0.0000

> <Gold.Chemscore.Lipo>
106.8520

> <Gold.Chemscore.Internal_Hbond>
0.0000

> <Gold.Chemscore.DEClash>
0.0905

> <Gold.Chemscore.DEInternal>
2.0593

> <Gold.Chemscore.Rot>
1.5005

> <Gold.Chemscore.Internal.Correction>
   9.000000E+99

> <Gold.Chemscore.Hbonds>
donor molecule, donor type, donor heavy atom, donor atom, acceptor molecule, acceptor atom, score
      P1  H  7989  7998       L1    17  0.17
      P1  H  7997  8008       L1     9  0.76

> <Gold.Chemscore.Hbond.Weighted>
-6.0026

> <Gold.Chemscore.Metal.Weighted>
-0.0000

> <Gold.Chemscore.Lipo.Weighted>
-12.5017

> <Gold.Chemscore.Internal_Hbond.Weighted>
0.0000

> <Gold.Chemscore.DEClash.Weighted>
0.0905

> <Gold.Chemscore.DEInternal.Weighted>
2.0593

> <Gold.Chemscore.Rot.Weighted>
3.8412

> <Gold.Chemscore.Internal.Correction.Weighted>
   9.000000E+99

> <Gold.Protein.RotatedTorsions>
[ 6907 6896 6895 6894 ] final  121.25 input  -60.11 | X-H torsion
[ 7974 7965 7964 7962 ] final   83.14 input  175.53 | X-H torsion
[ 8008 7997 7996 7995 ] final -113.95 input   59.86 | X-H torsion
[ 10167 10162 10161 10158 ] final  -21.08 input  -65.29 | X-H torsion
[ 10718 10713 10712 10709 ] final  138.03 input   66.30 | X-H torsion
[ 10763 10752 10751 10750 ] final   37.84 input  -60.55 | X-H torsion
[ 11005 11000 10999 10996 ] final  122.98 input  -57.11 | X-H torsion

> <Gold.Protein.ActiveResidues>
 VAL166  LYS551  ARG553  GLY616  TRP617  ASP618  TYR619  PRO620  LYS621  CYS622 
 ASP623  PHE694  ASN695  SER759  ASP760  ASP761  ALA762  ILE779  LEU786  VAL792 
 PHE793  MET794  SER795  GLU796  ALA797  LYS798  CYS799  TRP800  GLU811  SER814 

> <Gold.Protein.RotatedAtoms>
  152.4336  133.7321  159.6593 H   0  0  0  0  0  0  0  0  0  0  0  0  # atno 6907 bound_to 6896
  150.8218  133.8229  159.3142 H   0  0  0  0  0  0  0  0  0  0  0  0  # atno 6908 bound_to 6896
  151.5910  135.1055  160.0090 H   0  0  0  0  0  0  0  0  0  0  0  0  # atno 6909 bound_to 6896
  145.6159  139.2377  143.2166 H   0  0  0  0  0  0  0  0  0  0  0  0  # atno 7974 bound_to 7965
  155.0288  140.0393  157.2466 H   0  0  0  0  0  0  0  0  0  0  0  0  # atno 8008 bound_to 7997
  154.7315  140.2731  155.6429 H   0  0  0  0  0  0  0  0  0  0  0  0  # atno 8009 bound_to 7997
  156.2842  140.2683  156.2016 H   0  0  0  0  0  0  0  0  0  0  0  0  # atno 8010 bound_to 7997
  140.7280  143.4661  151.0311 H   0  0  0  0  0  0  0  0  0  0  0  0  # atno 10167 bound_to 10162
  157.4297  131.1047  151.0263 H   0  0  0  0  0  0  0  0  0  0  0  0  # atno 10718 bound_to 10713
  153.0023  135.6266  154.2209 H   0  0  0  0  0  0  0  0  0  0  0  0  # atno 10763 bound_to 10752
  154.1952  135.2807  155.3011 H   0  0  0  0  0  0  0  0  0  0  0  0  # atno 10764 bound_to 10752
  154.5728  135.5671  153.7170 H   0  0  0  0  0  0  0  0  0  0  0  0  # atno 10765 bound_to 10752
  139.9292  134.9641  156.8190 H   0  0  0  0  0  0  0  0  0  0  0  0  # atno 11005 bound_to 11000
  146.1469  140.6980  142.9340 LP  0  0  0  0  0  0  0  0  0  0  0  0  # atno 17320 bound_to 7965
  144.7251  140.4498  143.6979 LP  0  0  0  0  0  0  0  0  0  0  0  0  # atno 17321 bound_to 7965
  139.8350  143.7640  152.3180 LP  0  0  0  0  0  0  0  0  0  0  0  0  # atno 17342 bound_to 10162
  139.7769  144.7458  151.0144 LP  0  0  0  0  0  0  0  0  0  0  0  0  # atno 17343 bound_to 10162
  157.1164  130.6043  149.5494 LP  0  0  0  0  0  0  0  0  0  0  0  0  # atno 17370 bound_to 10713
  155.9909  130.4961  150.7276 LP  0  0  0  0  0  0  0  0  0  0  0  0  # atno 17371 bound_to 10713
  140.6250  133.9959  155.7635 LP  0  0  0  0  0  0  0  0  0  0  0  0  # atno 17394 bound_to 11000
  141.0870  133.9975  157.3298 LP  0  0  0  0  0  0  0  0  0  0  0  0  # atno 17395 bound_to 11000

$$$$
