AV-unprocessed.smi:2448|AV-procd|sdf|9656|dock3
  -GOLD-   2272013293D 1   1.00000     0.00000
 Structure written by MMmdl.
 38 39  0  0  0  0  0  0  0  0  2 V2000
  146.3295  135.8846  151.6277 O   0  0  0  0  0  0  0  0  0  0  0  0
  145.9859  134.9458  152.6324 C   0  0  2  0  0  0  0  0  0  0  0  0
  146.7015  135.3496  153.9364 C   0  0  0  0  0  0  0  0  0  0  0  0
  148.0575  134.7624  154.0239 N   0  3  0  0  0  0  0  0  0  0  0  0
  148.7785  135.0186  155.2934 C   0  0  2  0  0  0  0  0  0  0  0  0
  150.2440  135.4300  155.0242 C   0  0  0  0  0  0  0  0  0  0  0  0
  150.4398  136.9293  154.8923 C   0  0  0  0  0  0  0  0  0  0  0  0
  151.7329  137.4923  154.9123 C   0  0  0  0  0  0  0  0  0  0  0  0
  151.8602  138.8877  154.7601 C   0  0  0  0  0  0  0  0  0  0  0  0
  150.8054  139.7139  154.5946 N   0  0  0  0  0  0  0  0  0  0  0  0
  149.5699  139.1693  154.5846 C   0  0  0  0  0  0  0  0  0  0  0  0
  149.3331  137.7873  154.7277 C   0  0  0  0  0  0  0  0  0  0  0  0
  148.6965  133.7732  156.1970 C   0  0  0  0  0  0  0  0  0  0  0  0
  149.3797  132.7715  155.6428 F   0  0  0  0  0  0  0  0  0  0  0  0
  149.2100  134.0302  157.4003 F   0  0  0  0  0  0  0  0  0  0  0  0
  147.4285  133.3882  156.3383 F   0  0  0  0  0  0  0  0  0  0  0  0
  146.4157  133.5525  152.1445 C   0  0  0  0  0  0  0  0  0  0  0  0
  145.4339  133.1127  151.0535 C   0  0  0  0  0  0  0  0  0  0  0  0
  143.8092  133.7900  151.4751 S   0  0  0  0  0  0  0  0  0  0  0  0
  144.4546  134.8761  152.7739 C   0  0  0  0  0  0  0  0  0  0  0  0
  147.2695  135.9839  151.6129 H   0  0  0  0  0  0  0  0  0  0  0  0
  146.7705  136.4358  153.9923 H   0  0  0  0  0  0  0  0  0  0  0  0
  146.1181  135.0288  154.8009 H   0  0  0  0  0  0  0  0  0  0  0  0
  147.9566  133.7624  153.9193 H   0  0  0  0  0  0  0  0  0  0  0  0
  148.2796  135.8314  155.8244 H   0  0  0  0  0  0  0  0  0  0  0  0
  150.8821  135.0820  155.8372 H   0  0  0  0  0  0  0  0  0  0  0  0
  150.6123  134.9393  154.1224 H   0  0  0  0  0  0  0  0  0  0  0  0
  152.6106  136.8748  155.0354 H   0  0  0  0  0  0  0  0  0  0  0  0
  152.8358  139.3510  154.7654 H   0  0  0  0  0  0  0  0  0  0  0  0
  148.7452  139.8541  154.4539 H   0  0  0  0  0  0  0  0  0  0  0  0
  148.3250  137.3993  154.7072 H   0  0  0  0  0  0  0  0  0  0  0  0
  147.4473  133.5345  151.7905 H   0  0  0  0  0  0  0  0  0  0  0  0
  146.3548  132.8454  152.9733 H   0  0  0  0  0  0  0  0  0  0  0  0
  145.7336  133.5246  150.0896 H   0  0  0  0  0  0  0  0  0  0  0  0
  145.3919  132.0281  150.9512 H   0  0  0  0  0  0  0  0  0  0  0  0
  144.1882  134.4222  153.7286 H   0  0  0  0  0  0  0  0  0  0  0  0
  143.9799  135.8571  152.7362 H   0  0  0  0  0  0  0  0  0  0  0  0
  148.6200  135.1047  153.2582 H   0  0  0  0  0  0  0  0  0  0  0  0
  1  2  1  0  0  0  0
  1 21  1  0  0  0  0
  2 20  1  0  0  0  0
  2  3  1  0  0  0  0
  2 17  1  0  0  0  0
  3  4  1  0  0  0  0
  3 22  1  0  0  0  0
  3 23  1  0  0  0  0
  4  5  1  0  0  0  0
  4 24  1  0  0  0  0
  4 38  1  0  0  0  0
  5  6  1  0  0  0  0
  5 13  1  0  0  0  0
  5 25  1  0  0  0  0
  6  7  1  0  0  0  0
  6 26  1  0  0  0  0
  6 27  1  0  0  0  0
  7 12  1  0  0  0  0
  7  8  2  0  0  0  0
  8  9  1  0  0  0  0
  8 28  1  0  0  0  0
  9 10  2  0  0  0  0
  9 29  1  0  0  0  0
 10 11  1  0  0  0  0
 11 12  2  0  0  0  0
 11 30  1  0  0  0  0
 12 31  1  0  0  0  0
 13 14  1  0  0  0  0
 13 15  1  0  0  0  0
 13 16  1  0  0  0  0
 17 18  1  0  0  0  0
 17 32  1  0  0  0  0
 17 33  1  0  0  0  0
 18 19  1  0  0  0  0
 18 34  1  0  0  0  0
 18 35  1  0  0  0  0
 19 20  1  0  0  0  0
 20 36  1  0  0  0  0
 20 37  1  0  0  0  0
M  CHG  1   4   1
M  END
> <s_m_source_file>
AV-unprocessed.smi

> <i_m_source_file_index>
2448

> <i_lp_mmshare_version>
43012

> <i_f3d_flags>
0

> <s_epik_input>
W0NIMl0xU1tDSDJdW0NIMl1bQ0BAXTEoW09IXSlbQ0gyXVtOSF1bQ0BASF0oQyhGKShGKUYpW0NIMl1jMltjSF1bY0hdbltjSF1bY0hdMg==

> <s_epik_cmdline>
J2VwaWtfcHl0aG9uJywgJy1waCcsICc3LjAnLCAnLXRuJywgJzgnLCAnLW1hJywgJzIwMCcsICctbWV0YWxfYmluZGluZycsICctaW1hZScsICc8aW5maWxlLm1hZT4nLCAnLW9tYWUnLCAnPG91dGZpbGUubWFlPic=

> <r_epik_Ionization_Penalty>
1.19945

> <r_epik_Ionization_Penalty_Charging>
1.19892

> <r_epik_Ionization_Penalty_Neutral>
0.000532129

> <r_epik_State_Penalty>
0.752927

> <r_epik_Charging_Adjusted_Penalty>
1.95185

> <i_epik_Tot_Q>
1

> <i_epik_Tot_abs_Q>
1

> <r_epik_Metal_State_Penalty>
0.804507

> <b_epik_Metal_Only>
0

> <s_lp_Force_Field>
OPLS_2005

> <r_lp_Energy>
23.2993

> <b_lp_Chiralities_Consistent>
1

> <s_lp_Variant>
AV-unprocessed.smi:2448-6

> <Gold.Version>
5.8.1

> <Gold.Id.Protein>
6NUR|6NUR_protein|mol2

> <Gold.PLP.Fitness>
36.5836

> <Gold.PLP.PLP>
-27.2440

> <Gold.PLP.part.hbond>
-3.0000

> <Gold.PLP.part.metal>
0.0000

> <Gold.PLP.part.buried>
-2.5090

> <Gold.PLP.part.nonpolar>
-22.3855

> <Gold.PLP.part.repulsive>
0.0977

> <Gold.PLP.ligand.clash>
0.0000

> <Gold.PLP.ligand.torsion>
1.7553

> <Gold.PLP.Chemscore.Hbond>
4.0000

> <Gold.PLP.Chemscore.CHOScore>
0.0000

> <Gold.PLP.Chemscore.Metal>
0.0000

> <Gold.Chemscore.Hbonds>
donor molecule, donor type, donor heavy atom, donor atom, acceptor molecule, acceptor atom, score
      L1  H     1    21       P1  7948  1.00
      L1  H     4    38       P1  7948  2.00
      P1  H  7989  7998       L1    10  0.80

> <Gold.PLP.Chemscore.Internal.Correction>
0.8502

> <Gold.Rescore>
     Score         DG    S(hbond)    S(metal)    S(lipo)     H(rot)  DE(clash)    DE(int)     intcor
     13.78     -16.85       2.73        0.00      71.50       2.39       1.24       1.83       ----

> <Gold.Chemscore.Fitness>
13.7847

> <Gold.Chemscore.DG>
-16.8520

> <Gold.Chemscore.ZeroCoef>
-5.4800

> <Gold.Chemscore.Hbond>
2.7295

> <Gold.Chemscore.Metal>
0.0000

> <Gold.Chemscore.Lipo>
71.4962

> <Gold.Chemscore.Internal_Hbond>
0.0000

> <Gold.Chemscore.DEClash>
1.2415

> <Gold.Chemscore.DEInternal>
1.8257

> <Gold.Chemscore.Rot>
2.3866

> <Gold.Chemscore.Internal.Correction>
   9.000000E+99

> <Gold.Chemscore.Hbonds>
donor molecule, donor type, donor heavy atom, donor atom, acceptor molecule, acceptor atom, score
      L1  H     1    21       P1  7948  1.00
      L1  H     4    38       P1  7948  0.73
      P1  H  7989  7998       L1    10  0.12

> <Gold.Chemscore.Hbond.Weighted>
-9.1166

> <Gold.Chemscore.Metal.Weighted>
-0.0000

> <Gold.Chemscore.Lipo.Weighted>
-8.3651

> <Gold.Chemscore.Internal_Hbond.Weighted>
0.0000

> <Gold.Chemscore.DEClash.Weighted>
1.2415

> <Gold.Chemscore.DEInternal.Weighted>
1.8257

> <Gold.Chemscore.Rot.Weighted>
6.1096

> <Gold.Chemscore.Internal.Correction.Weighted>
   9.000000E+99

> <Gold.Protein.RotatedTorsions>
[ 6907 6896 6895 6894 ] final  124.38 input  -60.11 | X-H torsion
[ 7974 7965 7964 7962 ] final -154.40 input  175.53 | X-H torsion
[ 8008 7997 7996 7995 ] final -143.12 input   59.86 | X-H torsion
[ 10167 10162 10161 10158 ] final  164.77 input  -65.29 | X-H torsion
[ 10718 10713 10712 10709 ] final -179.77 input   66.30 | X-H torsion
[ 10763 10752 10751 10750 ] final   62.48 input  -60.55 | X-H torsion
[ 11005 11000 10999 10996 ] final -163.71 input  -57.11 | X-H torsion

> <Gold.Protein.ActiveResidues>
 VAL166  LYS551  ARG553  GLY616  TRP617  ASP618  TYR619  PRO620  LYS621  CYS622 
 ASP623  PHE694  ASN695  SER759  ASP760  ASP761  ALA762  ILE779  LEU786  VAL792 
 PHE793  MET794  SER795  GLU796  ALA797  LYS798  CYS799  TRP800  GLU811  SER814 

> <Gold.Protein.RotatedAtoms>
  152.4083  133.6923  159.6374 H   0  0  0  0  0  0  0  0  0  0  0  0  # atno 6907 bound_to 6896
  150.7965  133.8670  159.3256 H   0  0  0  0  0  0  0  0  0  0  0  0  # atno 6908 bound_to 6896
  151.6419  135.1013  160.0194 H   0  0  0  0  0  0  0  0  0  0  0  0  # atno 6909 bound_to 6896
  144.7691  140.4393  143.5920 H   0  0  0  0  0  0  0  0  0  0  0  0  # atno 7974 bound_to 7965
  155.5053  140.0579  157.2932 H   0  0  0  0  0  0  0  0  0  0  0  0  # atno 8008 bound_to 7997
  154.4572  140.1978  156.0296 H   0  0  0  0  0  0  0  0  0  0  0  0  # atno 8009 bound_to 7997
  156.0821  140.3245  155.7711 H   0  0  0  0  0  0  0  0  0  0  0  0  # atno 8010 bound_to 7997
  139.4894  144.4201  151.9196 H   0  0  0  0  0  0  0  0  0  0  0  0  # atno 10167 bound_to 10162
  156.8641  130.9761  151.3080 H   0  0  0  0  0  0  0  0  0  0  0  0  # atno 10718 bound_to 10713
  152.9984  135.5463  154.6200 H   0  0  0  0  0  0  0  0  0  0  0  0  # atno 10763 bound_to 10752
  154.5501  135.2826  155.1018 H   0  0  0  0  0  0  0  0  0  0  0  0  # atno 10764 bound_to 10752
  154.2261  135.6442  153.5213 H   0  0  0  0  0  0  0  0  0  0  0  0  # atno 10765 bound_to 10752
  140.5950  134.5006  157.5198 H   0  0  0  0  0  0  0  0  0  0  0  0  # atno 11005 bound_to 11000
  145.6378  139.1545  143.2933 LP  0  0  0  0  0  0  0  0  0  0  0  0  # atno 17320 bound_to 7965
  146.1824  140.6477  142.9183 LP  0  0  0  0  0  0  0  0  0  0  0  0  # atno 17321 bound_to 7965
  140.3645  144.2932  150.5928 LP  0  0  0  0  0  0  0  0  0  0  0  0  # atno 17342 bound_to 10162
  140.5373  143.2230  151.8141 LP  0  0  0  0  0  0  0  0  0  0  0  0  # atno 17343 bound_to 10162
  157.6233  130.8672  149.9146 LP  0  0  0  0  0  0  0  0  0  0  0  0  # atno 17370 bound_to 10713
  156.0761  130.3679  150.0675 LP  0  0  0  0  0  0  0  0  0  0  0  0  # atno 17371 bound_to 10713
  139.9257  134.8060  156.1076 LP  0  0  0  0  0  0  0  0  0  0  0  0  # atno 17394 bound_to 11000
  141.0910  133.6714  156.2540 LP  0  0  0  0  0  0  0  0  0  0  0  0  # atno 17395 bound_to 11000

$$$$
