AV-unprocessed.smi:1171|AV-procd|sdf|4942|dock10
  -GOLD-   22720 3523D 1   1.00000     0.00000
 Structure written by MMmdl.
 32 33  0  0  0  0  0  0  0  0  1 V2000
  147.1063  139.0167  153.0137 C   0  0  0  0  0  0  0  0  0  0  0  0
  148.1009  139.7682  153.8479 C   0  0  0  0  0  0  0  0  0  0  0  0
  147.9488  141.0491  154.4546 C   0  0  0  0  0  0  0  0  0  0  0  0
  149.1514  141.2295  155.0809 C   0  0  0  0  0  0  0  0  0  0  0  0
  149.5707  142.2753  155.8411 N   0  0  0  0  0  0  0  0  0  0  0  0
  150.2762  142.2589  156.9893 C   0  0  0  0  0  0  0  0  0  0  0  0
  150.6040  141.2403  157.5949 O   0  0  0  0  0  0  0  0  0  0  0  0
  150.5717  143.4788  157.4741 N   0  0  0  0  0  0  0  0  0  0  0  0
  151.3018  143.8044  158.6635 C   0  0  0  0  0  0  0  0  0  0  0  0
  152.4872  144.7333  158.5130 C   0  0  0  0  0  0  0  0  0  0  0  0
  152.7131  143.2738  158.7969 C   0  0  0  0  0  0  0  0  0  0  0  0
  149.9436  140.1265  154.8511 N   0  0  0  0  0  0  0  0  0  0  0  0
  151.2882  139.8401  155.3147 C   0  0  0  0  0  0  0  0  0  0  0  0
  151.8117  138.5279  154.7222 C   0  0  0  0  0  0  0  0  0  0  0  0
  153.2799  138.4779  154.6740 C   0  0  0  0  0  0  0  0  0  0  0  0
  154.4355  138.4382  154.6370 N   0  0  0  0  0  0  0  0  0  0  0  0
  149.2880  139.2237  154.0904 N   0  0  0  0  0  0  0  0  0  0  0  0
  146.1612  139.5559  152.9459 H   0  0  0  0  0  0  0  0  0  0  0  0
  146.8979  138.0350  153.4397 H   0  0  0  0  0  0  0  0  0  0  0  0
  147.4776  138.8695  151.9991 H   0  0  0  0  0  0  0  0  0  0  0  0
  147.0915  141.7048  154.4275 H   0  0  0  0  0  0  0  0  0  0  0  0
  149.3252  143.1888  155.4894 H   0  0  0  0  0  0  0  0  0  0  0  0
  150.1753  144.2641  156.9780 H   0  0  0  0  0  0  0  0  0  0  0  0
  150.7403  143.9286  159.5885 H   0  0  0  0  0  0  0  0  0  0  0  0
  152.7309  145.0938  157.5152 H   0  0  0  0  0  0  0  0  0  0  0  0
  152.6792  145.4364  159.3211 H   0  0  0  0  0  0  0  0  0  0  0  0
  153.0543  143.0026  159.7940 H   0  0  0  0  0  0  0  0  0  0  0  0
  153.1051  142.6595  157.9881 H   0  0  0  0  0  0  0  0  0  0  0  0
  151.9438  140.6683  155.0412 H   0  0  0  0  0  0  0  0  0  0  0  0
  151.2807  139.7913  156.4042 H   0  0  0  0  0  0  0  0  0  0  0  0
  151.4688  137.6778  155.3126 H   0  0  0  0  0  0  0  0  0  0  0  0
  151.4368  138.3912  153.7076 H   0  0  0  0  0  0  0  0  0  0  0  0
  1  2  1  0  0  0  0
  1 18  1  0  0  0  0
  1 19  1  0  0  0  0
  1 20  1  0  0  0  0
  2 17  2  0  0  0  0
  2  3  1  0  0  0  0
  3  4  2  0  0  0  0
  3 21  1  0  0  0  0
  4  5  1  0  0  0  0
  4 12  1  0  0  0  0
  5  6  1  0  0  0  0
  5 22  1  0  0  0  0
  6  7  2  0  0  0  0
  6  8  1  0  0  0  0
  8  9  1  0  0  0  0
  8 23  1  0  0  0  0
  9 11  1  0  0  0  0
  9 10  1  0  0  0  0
  9 24  1  0  0  0  0
 10 11  1  0  0  0  0
 10 25  1  0  0  0  0
 10 26  1  0  0  0  0
 11 27  1  0  0  0  0
 11 28  1  0  0  0  0
 12 13  1  0  0  0  0
 12 17  1  0  0  0  0
 13 14  1  0  0  0  0
 13 29  1  0  0  0  0
 13 30  1  0  0  0  0
 14 15  1  0  0  0  0
 14 31  1  0  0  0  0
 14 32  1  0  0  0  0
 15 16  3  0  0  0  0
M  END
> <s_m_source_file>
AV-unprocessed.smi

> <i_m_source_file_index>
1171

> <i_lp_mmshare_version>
43012

> <i_f3d_flags>
0

> <s_epik_input>
TiNDW0NIMl1bQ0gyXW4objEpYyhbY0hdYzFbQ0gzXSlbTkhdQyg9TylbTkhdW0NIXTJbQ0gyXVtDSDJdMg==

> <s_epik_cmdline>
J2VwaWtfcHl0aG9uJywgJy1waCcsICc3LjAnLCAnLXRuJywgJzgnLCAnLW1hJywgJzIwMCcsICctbWV0YWxfYmluZGluZycsICctaW1hZScsICc8aW5maWxlLm1hZT4nLCAnLW9tYWUnLCAnPG91dGZpbGUubWFlPic=

> <r_lp_tautomer_probability>
1

> <r_epik_Ionization_Penalty>
3.70036e-05

> <r_epik_Ionization_Penalty_Charging>
0

> <r_epik_Ionization_Penalty_Neutral>
3.70036e-05

> <r_epik_State_Penalty>
-0

> <r_epik_Charging_Adjusted_Penalty>
0

> <i_epik_Tot_Q>
0

> <i_epik_Tot_abs_Q>
0

> <r_epik_Metal_State_Penalty>
-0

> <b_epik_Metal_Only>
0

> <s_lp_Force_Field>
OPLS_2005

> <r_lp_Energy>
27.1595

> <b_lp_Chiralities_Consistent>
1

> <s_lp_Variant>
AV-unprocessed.smi:1171-1

> <Gold.Version>
5.8.1

> <Gold.Id.Protein>
6NUR|6NUR_protein|mol2

> <Gold.PLP.Fitness>
45.0766

> <Gold.PLP.PLP>
-38.3712

> <Gold.PLP.part.hbond>
-3.0158

> <Gold.PLP.part.metal>
0.0000

> <Gold.PLP.part.buried>
-2.1812

> <Gold.PLP.part.nonpolar>
-33.8655

> <Gold.PLP.part.repulsive>
0.8294

> <Gold.PLP.ligand.clash>
0.0000

> <Gold.PLP.ligand.torsion>
0.4984

> <Gold.PLP.Chemscore.Hbond>
2.5520

> <Gold.PLP.Chemscore.CHOScore>
0.0000

> <Gold.PLP.Chemscore.Metal>
0.0000

> <Gold.Chemscore.Hbonds>
donor molecule, donor type, donor heavy atom, donor atom, acceptor molecule, acceptor atom, score
      L1  H     5    22       P1  8028  1.00
      L1  H     8    23       P1  8028  0.88
      P1  H  7997  8009       L1    16  0.56

> <Gold.PLP.Chemscore.Internal.Correction>
0.0461

> <Gold.Rescore>
     Score         DG    S(hbond)    S(metal)    S(lipo)     H(rot)  DE(clash)    DE(int)     intcor
     14.99     -15.63       1.85        0.00      68.99       1.61       0.05       0.59       ----

> <Gold.Chemscore.Fitness>
14.9942

> <Gold.Chemscore.DG>
-15.6336

> <Gold.Chemscore.ZeroCoef>
-5.4800

> <Gold.Chemscore.Hbond>
1.8537

> <Gold.Chemscore.Metal>
0.0000

> <Gold.Chemscore.Lipo>
68.9944

> <Gold.Chemscore.Internal_Hbond>
0.0000

> <Gold.Chemscore.DEClash>
0.0541

> <Gold.Chemscore.DEInternal>
0.5853

> <Gold.Chemscore.Rot>
1.6056

> <Gold.Chemscore.Internal.Correction>
   9.000000E+99

> <Gold.Chemscore.Hbonds>
donor molecule, donor type, donor heavy atom, donor atom, acceptor molecule, acceptor atom, score
      L1  H     5    22       P1  8028  0.96
      L1  H     8    23       P1  8028  0.76
      P1  H  7997  8009       L1    16  0.18

> <Gold.Chemscore.Hbond.Weighted>
-6.1914

> <Gold.Chemscore.Metal.Weighted>
-0.0000

> <Gold.Chemscore.Lipo.Weighted>
-8.0723

> <Gold.Chemscore.Internal_Hbond.Weighted>
0.0000

> <Gold.Chemscore.DEClash.Weighted>
0.0541

> <Gold.Chemscore.DEInternal.Weighted>
0.5853

> <Gold.Chemscore.Rot.Weighted>
4.1102

> <Gold.Chemscore.Internal.Correction.Weighted>
   9.000000E+99

> <Gold.Protein.RotatedTorsions>
[ 6907 6896 6895 6894 ] final -118.44 input  -60.11 | X-H torsion
[ 7974 7965 7964 7962 ] final  108.01 input  175.53 | X-H torsion
[ 8008 7997 7996 7995 ] final  -97.10 input   59.86 | X-H torsion
[ 10167 10162 10161 10158 ] final -164.32 input  -65.29 | X-H torsion
[ 10718 10713 10712 10709 ] final -155.44 input   66.30 | X-H torsion
[ 10763 10752 10751 10750 ] final  166.75 input  -60.55 | X-H torsion
[ 11005 11000 10999 10996 ] final   59.30 input  -57.11 | X-H torsion

> <Gold.Protein.ActiveResidues>
 VAL166  LYS551  ARG553  GLY616  TRP617  ASP618  TYR619  PRO620  LYS621  CYS622 
 ASP623  PHE694  ASN695  SER759  ASP760  ASP761  ALA762  ILE779  LEU786  VAL792 
 PHE793  MET794  SER795  GLU796  ALA797  LYS798  CYS799  TRP800  GLU811  SER814 

> <Gold.Protein.RotatedAtoms>
  150.8220  133.8237  159.3134 H   0  0  0  0  0  0  0  0  0  0  0  0  # atno 6907 bound_to 6896
  151.5992  135.1047  160.0066 H   0  0  0  0  0  0  0  0  0  0  0  0  # atno 6908 bound_to 6896
  152.4308  133.7233  159.6602 H   0  0  0  0  0  0  0  0  0  0  0  0  # atno 6909 bound_to 6896
  145.2862  139.2615  143.3889 H   0  0  0  0  0  0  0  0  0  0  0  0  # atno 7974 bound_to 7965
  154.7833  140.0466  157.1144 H   0  0  0  0  0  0  0  0  0  0  0  0  # atno 8008 bound_to 7997
  154.9679  140.3086  155.4981 H   0  0  0  0  0  0  0  0  0  0  0  0  # atno 8009 bound_to 7997
  156.2939  140.2258  156.4769 H   0  0  0  0  0  0  0  0  0  0  0  0  # atno 8010 bound_to 7997
  139.6259  144.0534  152.1974 H   0  0  0  0  0  0  0  0  0  0  0  0  # atno 10167 bound_to 10162
  156.5128  130.8443  151.2653 H   0  0  0  0  0  0  0  0  0  0  0  0  # atno 10718 bound_to 10713
  154.3437  135.2753  155.2409 H   0  0  0  0  0  0  0  0  0  0  0  0  # atno 10763 bound_to 10752
  154.4669  135.5893  153.6297 H   0  0  0  0  0  0  0  0  0  0  0  0  # atno 10764 bound_to 10752
  152.9855  135.6078  154.3640 H   0  0  0  0  0  0  0  0  0  0  0  0  # atno 10765 bound_to 10752
  140.0314  134.6006  155.9502 H   0  0  0  0  0  0  0  0  0  0  0  0  # atno 11005 bound_to 11000
  146.3200  140.3342  142.8643 LP  0  0  0  0  0  0  0  0  0  0  0  0  # atno 17320 bound_to 7965
  144.9211  140.7869  143.5747 LP  0  0  0  0  0  0  0  0  0  0  0  0  # atno 17321 bound_to 7965
  140.0187  144.6169  150.7585 LP  0  0  0  0  0  0  0  0  0  0  0  0  # atno 17342 bound_to 10162
  140.7410  143.2812  151.3592 LP  0  0  0  0  0  0  0  0  0  0  0  0  # atno 17343 bound_to 10162
  157.7448  130.9943  150.2705 LP  0  0  0  0  0  0  0  0  0  0  0  0  # atno 17370 bound_to 10713
  156.3223  130.3788  149.7564 LP  0  0  0  0  0  0  0  0  0  0  0  0  # atno 17371 bound_to 10713
  141.1833  133.6550  156.5111 LP  0  0  0  0  0  0  0  0  0  0  0  0  # atno 17394 bound_to 11000
  140.4219  134.7179  157.4894 LP  0  0  0  0  0  0  0  0  0  0  0  0  # atno 17395 bound_to 11000

$$$$
