AV-unprocessed.smi:2568|AV-procd|sdf|10092|dock1
  -GOLD-   2272014113D 1   1.00000     0.00000
 Structure written by MMmdl.
 25 26  0  0  0  0  0  0  0  0  2 V2000
  152.7754  138.3655  154.5188 C   0  0  0  0  0  0  0  0  0  0  0  0
  152.3221  139.3081  155.5808 C   0  0  0  0  0  0  0  0  0  0  0  0
  152.7851  139.2233  156.8269 N   0  0  0  0  0  0  0  0  0  0  0  0
  152.1346  140.2358  157.4376 N   0  0  0  0  0  0  0  0  0  0  0  0
  151.3473  140.8531  156.5534 C   0  0  0  0  0  0  0  0  0  0  0  0
  150.4840  142.0157  156.9297 C   0  0  2  0  0  0  0  0  0  0  0  0
  151.3002  143.1996  157.4838 C   0  0  0  0  0  0  0  0  0  0  0  0
  150.3914  144.2736  157.9297 N   0  3  0  0  0  0  0  0  0  0  0  0
  149.3982  143.7727  158.9006 C   0  0  0  0  0  0  0  0  0  0  0  0
  148.6437  142.5668  158.3133 C   0  0  0  0  0  0  0  0  0  0  0  0
  149.5733  141.5596  157.9271 O   0  0  0  0  0  0  0  0  0  0  0  0
  151.4174  140.3049  155.3437 N   0  0  0  0  0  0  0  0  0  0  0  0
  152.2580  140.4583  158.4152 H   0  0  0  0  0  0  0  0  0  0  0  0
  153.3588  137.5488  154.9456 H   0  0  0  0  0  0  0  0  0  0  0  0
  153.3953  138.8897  153.7913 H   0  0  0  0  0  0  0  0  0  0  0  0
  151.9163  137.9396  153.9998 H   0  0  0  0  0  0  0  0  0  0  0  0
  149.9217  142.3288  156.0476 H   0  0  0  0  0  0  0  0  0  0  0  0
  151.9119  142.8799  158.3288 H   0  0  0  0  0  0  0  0  0  0  0  0
  151.9783  143.5903  156.7246 H   0  0  0  0  0  0  0  0  0  0  0  0
  150.9305  145.0157  158.3529 H   0  0  0  0  0  0  0  0  0  0  0  0
  149.9097  143.4850  159.8202 H   0  0  0  0  0  0  0  0  0  0  0  0
  148.7044  144.5739  159.1557 H   0  0  0  0  0  0  0  0  0  0  0  0
  147.9613  142.1526  159.0558 H   0  0  0  0  0  0  0  0  0  0  0  0
  148.0382  142.8660  157.4563 H   0  0  0  0  0  0  0  0  0  0  0  0
  149.9020  144.6396  157.1255 H   0  0  0  0  0  0  0  0  0  0  0  0
  1  2  1  0  0  0  0
  1 14  1  0  0  0  0
  1 15  1  0  0  0  0
  1 16  1  0  0  0  0
  2 12  1  0  0  0  0
  2  3  2  0  0  0  0
  3  4  1  0  0  0  0
  4 13  1  0  0  0  0
  4  5  1  0  0  0  0
  5  6  1  0  0  0  0
  5 12  2  0  0  0  0
  6 11  1  0  0  0  0
  6  7  1  0  0  0  0
  6 17  1  0  0  0  0
  7  8  1  0  0  0  0
  7 18  1  0  0  0  0
  7 19  1  0  0  0  0
  8  9  1  0  0  0  0
  8 20  1  0  0  0  0
  8 25  1  0  0  0  0
  9 10  1  0  0  0  0
  9 21  1  0  0  0  0
  9 22  1  0  0  0  0
 10 11  1  0  0  0  0
 10 23  1  0  0  0  0
 10 24  1  0  0  0  0
M  CHG  1   8   1
M  END
> <s_m_source_file>
AV-unprocessed.smi

> <i_m_source_file_index>
2568

> <i_lp_mmshare_version>
43012

> <i_f3d_flags>
0

> <s_epik_input>
W0NIM11jMW5bbkhdYyhuMSlbQ0BASF0yW0NIMl1bTkhdW0NIMl1bQ0gyXU8y

> <s_epik_cmdline>
J2VwaWtfcHl0aG9uJywgJy1waCcsICc3LjAnLCAnLXRuJywgJzgnLCAnLW1hJywgJzIwMCcsICctbWV0YWxfYmluZGluZycsICctaW1hZScsICc8aW5maWxlLm1hZT4nLCAnLW9tYWUnLCAnPG91dGZpbGUubWFlPic=

> <r_epik_Ionization_Penalty>
0.166663

> <r_epik_Ionization_Penalty_Charging>
0.125708

> <r_epik_Ionization_Penalty_Neutral>
0.0409555

> <r_epik_State_Penalty>
1.3004

> <r_epik_Charging_Adjusted_Penalty>
1.42611

> <i_epik_Tot_Q>
1

> <i_epik_Tot_abs_Q>
1

> <r_epik_Metal_State_Penalty>
1.60166

> <b_epik_Metal_Only>
0

> <s_lp_Force_Field>
OPLS_2005

> <r_lp_Energy>
12.4533

> <b_lp_Chiralities_Consistent>
1

> <s_lp_Variant>
AV-unprocessed.smi:2568-5

> <Gold.Version>
5.8.1

> <Gold.Id.Protein>
6NUR|6NUR_protein|mol2

> <Gold.PLP.Fitness>
32.2365

> <Gold.PLP.PLP>
-21.0645

> <Gold.PLP.part.hbond>
-3.8626

> <Gold.PLP.part.metal>
0.0000

> <Gold.PLP.part.buried>
-2.8092

> <Gold.PLP.part.nonpolar>
-14.5503

> <Gold.PLP.part.repulsive>
0.2613

> <Gold.PLP.ligand.clash>
0.0000

> <Gold.PLP.ligand.torsion>
0.0035

> <Gold.PLP.Chemscore.Hbond>
3.7260

> <Gold.PLP.Chemscore.CHOScore>
0.0000

> <Gold.PLP.Chemscore.Metal>
0.0000

> <Gold.Chemscore.Hbonds>
donor molecule, donor type, donor heavy atom, donor atom, acceptor molecule, acceptor atom, score
      L1  H     8    25       P1  8028  2.00
      P1  H  7989  7998       L1    12  0.96
      P1  H  7997  8010       L1     3  0.85

> <Gold.PLP.Chemscore.Internal.Correction>
0.0010

> <Gold.Rescore>
     Score         DG    S(hbond)    S(metal)    S(lipo)     H(rot)  DE(clash)    DE(int)     intcor
     12.32     -12.67       1.70        0.00      34.74       1.00       0.34       0.01       ----

> <Gold.Chemscore.Fitness>
12.3238

> <Gold.Chemscore.DG>
-12.6734

> <Gold.Chemscore.ZeroCoef>
-5.4800

> <Gold.Chemscore.Hbond>
1.7033

> <Gold.Chemscore.Metal>
0.0000

> <Gold.Chemscore.Lipo>
34.7397

> <Gold.Chemscore.Internal_Hbond>
0.0000

> <Gold.Chemscore.DEClash>
0.3362

> <Gold.Chemscore.DEInternal>
0.0134

> <Gold.Chemscore.Rot>
1.0000

> <Gold.Chemscore.Internal.Correction>
   9.000000E+99

> <Gold.Chemscore.Hbonds>
donor molecule, donor type, donor heavy atom, donor atom, acceptor molecule, acceptor atom, score
      L1  H     8    25       P1  8028  0.26
      P1  H  7989  7998       L1    12  0.55
      P1  H  7997  8010       L1     3  0.05

> <Gold.Chemscore.Hbond.Weighted>
-5.6889

> <Gold.Chemscore.Metal.Weighted>
-0.0000

> <Gold.Chemscore.Lipo.Weighted>
-4.0645

> <Gold.Chemscore.Internal_Hbond.Weighted>
0.0000

> <Gold.Chemscore.DEClash.Weighted>
0.3362

> <Gold.Chemscore.DEInternal.Weighted>
0.0134

> <Gold.Chemscore.Rot.Weighted>
2.5600

> <Gold.Chemscore.Internal.Correction.Weighted>
   9.000000E+99

> <Gold.Protein.RotatedTorsions>
[ 6907 6896 6895 6894 ] final  104.70 input  -60.11 | X-H torsion
[ 7974 7965 7964 7962 ] final  -64.53 input  175.53 | X-H torsion
[ 8008 7997 7996 7995 ] final   56.67 input   59.86 | X-H torsion
[ 10167 10162 10161 10158 ] final   23.49 input  -65.29 | X-H torsion
[ 10718 10713 10712 10709 ] final  116.12 input   66.30 | X-H torsion
[ 10763 10752 10751 10750 ] final  -84.78 input  -60.55 | X-H torsion
[ 11005 11000 10999 10996 ] final   58.85 input  -57.11 | X-H torsion

> <Gold.Protein.ActiveResidues>
 VAL166  LYS551  ARG553  GLY616  TRP617  ASP618  TYR619  PRO620  LYS621  CYS622 
 ASP623  PHE694  ASN695  SER759  ASP760  ASP761  ALA762  ILE779  LEU786  VAL792 
 PHE793  MET794  SER795  GLU796  ALA797  LYS798  CYS799  TRP800  GLU811  SER814 

> <Gold.Protein.RotatedAtoms>
  152.5256  133.9638  159.7729 H   0  0  0  0  0  0  0  0  0  0  0  0  # atno 6907 bound_to 6896
  150.9924  133.6128  159.2713 H   0  0  0  0  0  0  0  0  0  0  0  0  # atno 6908 bound_to 6896
  151.3267  135.0838  159.9377 H   0  0  0  0  0  0  0  0  0  0  0  0  # atno 6909 bound_to 6896
  145.7656  140.8839  143.0407 H   0  0  0  0  0  0  0  0  0  0  0  0  # atno 7974 bound_to 7965
  155.5213  140.3480  155.4407 H   0  0  0  0  0  0  0  0  0  0  0  0  # atno 8008 bound_to 7997
  156.0783  140.1380  156.9771 H   0  0  0  0  0  0  0  0  0  0  0  0  # atno 8009 bound_to 7997
  154.4565  140.0951  156.6748 H   0  0  0  0  0  0  0  0  0  0  0  0  # atno 8010 bound_to 7997
  140.5265  143.9914  150.6443 H   0  0  0  0  0  0  0  0  0  0  0  0  # atno 10167 bound_to 10162
  157.6180  131.1021  150.7427 H   0  0  0  0  0  0  0  0  0  0  0  0  # atno 10718 bound_to 10713
  154.6035  135.5508  153.7398 H   0  0  0  0  0  0  0  0  0  0  0  0  # atno 10763 bound_to 10752
  153.0164  135.6372  154.1681 H   0  0  0  0  0  0  0  0  0  0  0  0  # atno 10764 bound_to 10752
  154.1620  135.2896  155.3086 H   0  0  0  0  0  0  0  0  0  0  0  0  # atno 10765 bound_to 10752
  140.0347  134.5961  155.9460 H   0  0  0  0  0  0  0  0  0  0  0  0  # atno 11005 bound_to 11000
  144.6822  139.9783  143.7483 LP  0  0  0  0  0  0  0  0  0  0  0  0  # atno 17320 bound_to 7965
  146.0221  139.3260  143.0806 LP  0  0  0  0  0  0  0  0  0  0  0  0  # atno 17321 bound_to 7965
  140.3278  143.3097  152.0719 LP  0  0  0  0  0  0  0  0  0  0  0  0  # atno 17342 bound_to 10162
  139.4940  144.6530  151.6634 LP  0  0  0  0  0  0  0  0  0  0  0  0  # atno 17343 bound_to 10162
  156.7790  130.4853  149.5404 LP  0  0  0  0  0  0  0  0  0  0  0  0  # atno 17370 bound_to 10713
  156.1311  130.6179  151.0335 LP  0  0  0  0  0  0  0  0  0  0  0  0  # atno 17371 bound_to 10713
  141.1850  133.6554  156.5182 LP  0  0  0  0  0  0  0  0  0  0  0  0  # atno 17394 bound_to 11000
  140.4168  134.7223  157.4867 LP  0  0  0  0  0  0  0  0  0  0  0  0  # atno 17395 bound_to 11000

$$$$
