AV-unprocessed.smi:365|AV-procd|sdf|2428|dock7
  -GOLD-   2262022363D 1   1.00000     0.00000
 Structure written by MMmdl.
 53 54  0  0  0  0  0  0  0  0  1 V2000
  146.9224  139.1256  152.2311 C   0  0  0  0  0  0  0  0  0  0  0  0
  146.9981  138.2597  153.5048 C   0  0  1  0  0  0  0  0  0  0  0  0
  146.3296  136.9600  153.3792 N   0  0  0  0  0  0  0  0  0  0  0  0
  145.9843  136.2900  152.2628 C   0  0  0  0  0  0  0  0  0  0  0  0
  146.2367  136.6997  151.1293 O   0  0  0  0  0  0  0  0  0  0  0  0
  145.2593  134.9386  152.4691 C   0  0  0  0  0  0  0  0  0  0  0  0
  146.1291  134.0251  153.3577 C   0  0  0  0  0  0  0  0  0  0  0  0
  145.0275  134.2328  151.1137 C   0  0  0  0  0  0  0  0  0  0  0  0
  143.8869  135.1759  153.1360 C   0  0  0  0  0  0  0  0  0  0  0  0
  148.4100  138.1537  154.0984 C   0  0  0  0  0  0  0  0  0  0  0  0
  148.5894  137.6574  155.2110 O   0  0  0  0  0  0  0  0  0  0  0  0
  149.4114  138.6049  153.3275 N   0  0  0  0  0  0  0  0  0  0  0  0
  150.8271  138.5545  153.6779 C   0  0  0  0  0  0  0  0  0  0  0  0
  151.1766  139.3060  154.9543 C   0  0  0  0  0  0  0  0  0  0  0  0
  150.2743  140.2399  155.4982 C   0  0  0  0  0  0  0  0  0  0  0  0
  150.6277  140.9350  156.6708 C   0  0  0  0  0  0  0  0  0  0  0  0
  151.8866  140.6830  157.2746 C   0  0  0  0  0  0  0  0  0  0  0  0
  152.3030  141.3426  158.4553 N   0  0  0  0  0  0  0  0  0  0  0  0
  151.4823  142.4681  158.9050 C   0  0  0  0  0  0  0  0  0  0  0  0
  152.2238  143.2916  159.9715 C   0  0  0  0  0  0  0  0  0  0  0  0
  152.6412  142.4425  161.0341 O   0  0  0  0  0  0  0  0  0  0  0  0
  153.5526  141.4485  160.5813 C   0  0  0  0  0  0  0  0  0  0  0  0
  152.8654  140.5455  159.5430 C   0  0  0  0  0  0  0  0  0  0  0  0
  152.7503  139.7838  156.7427 N   0  0  0  0  0  0  0  0  0  0  0  0
  152.4066  139.1202  155.6196 C   0  0  0  0  0  0  0  0  0  0  0  0
  147.2516  140.1447  152.4364 H   0  0  0  0  0  0  0  0  0  0  0  0
  145.9013  139.1833  151.8530 H   0  0  0  0  0  0  0  0  0  0  0  0
  147.5573  138.7417  151.4327 H   0  0  0  0  0  0  0  0  0  0  0  0
  146.3977  138.7793  154.2531 H   0  0  0  0  0  0  0  0  0  0  0  0
  146.0892  136.5159  154.2534 H   0  0  0  0  0  0  0  0  0  0  0  0
  145.6655  133.0469  153.4893 H   0  0  0  0  0  0  0  0  0  0  0  0
  146.2781  134.4463  154.3527 H   0  0  0  0  0  0  0  0  0  0  0  0
  147.1147  133.8618  152.9189 H   0  0  0  0  0  0  0  0  0  0  0  0
  145.9683  134.0089  150.6084 H   0  0  0  0  0  0  0  0  0  0  0  0
  144.4253  134.8431  150.4388 H   0  0  0  0  0  0  0  0  0  0  0  0
  144.5023  133.2865  151.2469 H   0  0  0  0  0  0  0  0  0  0  0  0
  143.3334  134.2419  153.2382 H   0  0  0  0  0  0  0  0  0  0  0  0
  143.2698  135.8566  152.5481 H   0  0  0  0  0  0  0  0  0  0  0  0
  143.9848  135.5989  154.1366 H   0  0  0  0  0  0  0  0  0  0  0  0
  149.1777  138.9947  152.4259 H   0  0  0  0  0  0  0  0  0  0  0  0
  151.1038  137.5088  153.8133 H   0  0  0  0  0  0  0  0  0  0  0  0
  151.4322  138.9269  152.8492 H   0  0  0  0  0  0  0  0  0  0  0  0
  149.3217  140.4262  155.0243 H   0  0  0  0  0  0  0  0  0  0  0  0
  149.9280  141.6520  157.0717 H   0  0  0  0  0  0  0  0  0  0  0  0
  151.2180  143.1308  158.0809 H   0  0  0  0  0  0  0  0  0  0  0  0
  150.5490  142.0795  159.3144 H   0  0  0  0  0  0  0  0  0  0  0  0
  153.0855  143.8020  159.5382 H   0  0  0  0  0  0  0  0  0  0  0  0
  151.5666  144.0632  160.3725 H   0  0  0  0  0  0  0  0  0  0  0  0
  154.4421  141.9196  160.1594 H   0  0  0  0  0  0  0  0  0  0  0  0
  153.8825  140.8552  161.4340 H   0  0  0  0  0  0  0  0  0  0  0  0
  152.0693  139.9684  160.0150 H   0  0  0  0  0  0  0  0  0  0  0  0
  153.6023  139.8407  159.1574 H   0  0  0  0  0  0  0  0  0  0  0  0
  153.1441  138.4266  155.2429 H   0  0  0  0  0  0  0  0  0  0  0  0
  1  2  1  0  0  0  0
  1 26  1  0  0  0  0
  1 27  1  0  0  0  0
  1 28  1  0  0  0  0
  2  3  1  0  0  0  0
  2 10  1  0  0  0  0
  2 29  1  0  0  0  0
  3  4  1  0  0  0  0
  3 30  1  0  0  0  0
  4  5  2  0  0  0  0
  4  6  1  0  0  0  0
  6  7  1  0  0  0  0
  6  8  1  0  0  0  0
  6  9  1  0  0  0  0
  7 31  1  0  0  0  0
  7 32  1  0  0  0  0
  7 33  1  0  0  0  0
  8 34  1  0  0  0  0
  8 35  1  0  0  0  0
  8 36  1  0  0  0  0
  9 37  1  0  0  0  0
  9 38  1  0  0  0  0
  9 39  1  0  0  0  0
 10 11  2  0  0  0  0
 10 12  1  0  0  0  0
 12 13  1  0  0  0  0
 12 40  1  0  0  0  0
 13 14  1  0  0  0  0
 13 41  1  0  0  0  0
 13 42  1  0  0  0  0
 14 25  1  0  0  0  0
 14 15  2  0  0  0  0
 15 16  1  0  0  0  0
 15 43  1  0  0  0  0
 16 17  2  0  0  0  0
 16 44  1  0  0  0  0
 17 18  1  0  0  0  0
 17 24  1  0  0  0  0
 18 23  1  0  0  0  0
 18 19  1  0  0  0  0
 19 20  1  0  0  0  0
 19 45  1  0  0  0  0
 19 46  1  0  0  0  0
 20 21  1  0  0  0  0
 20 47  1  0  0  0  0
 20 48  1  0  0  0  0
 21 22  1  0  0  0  0
 22 23  1  0  0  0  0
 22 49  1  0  0  0  0
 22 50  1  0  0  0  0
 23 51  1  0  0  0  0
 23 52  1  0  0  0  0
 24 25  2  0  0  0  0
 25 53  1  0  0  0  0
M  END
> <s_m_source_file>
AV-unprocessed.smi

> <i_m_source_file_index>
365

> <i_lp_mmshare_version>
43012

> <i_f3d_flags>
0

> <s_epik_input>
W0NIM11DKFtDSDNdKShbQ0gzXSlDKD1PKVtOSF1bQ0BASF0oW0NIM10pQyg9TylbTkhdW0NIMl1jMVtjSF1bY0hdYyhuW2NIXTEpTjJbQ0gyXVtDSDJdT1tDSDJdW0NIMl0y

> <s_epik_cmdline>
J2VwaWtfcHl0aG9uJywgJy1waCcsICc3LjAnLCAnLXRuJywgJzgnLCAnLW1hJywgJzIwMCcsICctbWV0YWxfYmluZGluZycsICctaW1hZScsICc8aW5maWxlLm1hZT4nLCAnLW9tYWUnLCAnPG91dGZpbGUubWFlPic=

> <r_lp_tautomer_probability>
1

> <r_epik_Ionization_Penalty>
0.00484327

> <r_epik_Ionization_Penalty_Charging>
0

> <r_epik_Ionization_Penalty_Neutral>
0.00484327

> <r_epik_State_Penalty>
0.0035131

> <r_epik_Charging_Adjusted_Penalty>
0.0035131

> <i_epik_Tot_Q>
0

> <i_epik_Tot_abs_Q>
0

> <r_epik_Metal_State_Penalty>
-0

> <b_epik_Metal_Only>
0

> <s_lp_Force_Field>
OPLS_2005

> <r_lp_Energy>
26.0036

> <b_lp_Chiralities_Consistent>
1

> <s_lp_Variant>
AV-unprocessed.smi:365-2

> <Gold.Version>
5.8.1

> <Gold.Id.Protein>
6NUR|6NUR_protein|mol2

> <Gold.PLP.Fitness>
46.4835

> <Gold.PLP.PLP>
-41.3928

> <Gold.PLP.part.hbond>
-3.0000

> <Gold.PLP.part.metal>
0.0000

> <Gold.PLP.part.buried>
-5.4442

> <Gold.PLP.part.nonpolar>
-33.1015

> <Gold.PLP.part.repulsive>
0.7040

> <Gold.PLP.ligand.clash>
0.0000

> <Gold.PLP.ligand.torsion>
0.7548

> <Gold.PLP.Chemscore.Hbond>
1.9440

> <Gold.PLP.Chemscore.CHOScore>
0.0000

> <Gold.PLP.Chemscore.Metal>
0.0000

> <Gold.Chemscore.Hbonds>
donor molecule, donor type, donor heavy atom, donor atom, acceptor molecule, acceptor atom, score
      L1  H    12    40       P1  7957  0.96
      P1  H  7997  8008       L1    24  0.90

> <Gold.PLP.Chemscore.Internal.Correction>
0.7684

> <Gold.Rescore>
     Score         DG    S(hbond)    S(metal)    S(lipo)     H(rot)  DE(clash)    DE(int)     intcor
     14.37     -17.25       1.50        0.00     102.38       2.04       0.03       2.85       ----

> <Gold.Chemscore.Fitness>
14.3743

> <Gold.Chemscore.DG>
-17.2459

> <Gold.Chemscore.ZeroCoef>
-5.4800

> <Gold.Chemscore.Hbond>
1.4975

> <Gold.Chemscore.Metal>
0.0000

> <Gold.Chemscore.Lipo>
102.3790

> <Gold.Chemscore.Internal_Hbond>
0.0000

> <Gold.Chemscore.DEClash>
0.0264

> <Gold.Chemscore.DEInternal>
2.8453

> <Gold.Chemscore.Rot>
2.0367

> <Gold.Chemscore.Internal.Correction>
   9.000000E+99

> <Gold.Chemscore.Hbonds>
donor molecule, donor type, donor heavy atom, donor atom, acceptor molecule, acceptor atom, score
      L1  H    12    40       P1  7957  0.89
      P1  H  7997  8008       L1    24  0.18

> <Gold.Chemscore.Hbond.Weighted>
-5.0016

> <Gold.Chemscore.Metal.Weighted>
-0.0000

> <Gold.Chemscore.Lipo.Weighted>
-11.9783

> <Gold.Chemscore.Internal_Hbond.Weighted>
0.0000

> <Gold.Chemscore.DEClash.Weighted>
0.0264

> <Gold.Chemscore.DEInternal.Weighted>
2.8453

> <Gold.Chemscore.Rot.Weighted>
5.2140

> <Gold.Chemscore.Internal.Correction.Weighted>
   9.000000E+99

> <Gold.Protein.RotatedTorsions>
[ 6907 6896 6895 6894 ] final   56.67 input  -60.11 | X-H torsion
[ 7974 7965 7964 7962 ] final   92.71 input  175.53 | X-H torsion
[ 8008 7997 7996 7995 ] final  -40.99 input   59.86 | X-H torsion
[ 10167 10162 10161 10158 ] final  122.88 input  -65.29 | X-H torsion
[ 10718 10713 10712 10709 ] final   -6.31 input   66.30 | X-H torsion
[ 10763 10752 10751 10750 ] final   50.75 input  -60.55 | X-H torsion
[ 11005 11000 10999 10996 ] final  -56.58 input  -57.11 | X-H torsion

> <Gold.Protein.ActiveResidues>
 VAL166  LYS551  ARG553  GLY616  TRP617  ASP618  TYR619  PRO620  LYS621  CYS622 
 ASP623  PHE694  ASN695  SER759  ASP760  ASP761  ALA762  ILE779  LEU786  VAL792 
 PHE793  MET794  SER795  GLU796  ALA797  LYS798  CYS799  TRP800  GLU811  SER814 

> <Gold.Protein.RotatedAtoms>
  152.3658  134.6806  160.0192 H   0  0  0  0  0  0  0  0  0  0  0  0  # atno 6907 bound_to 6896
  151.7114  133.3307  159.3300 H   0  0  0  0  0  0  0  0  0  0  0  0  # atno 6908 bound_to 6896
  150.7637  134.6463  159.6309 H   0  0  0  0  0  0  0  0  0  0  0  0  # atno 6909 bound_to 6896
  145.4886  139.2277  143.2842 H   0  0  0  0  0  0  0  0  0  0  0  0  # atno 7974 bound_to 7965
  154.4007  140.1511  156.3117 H   0  0  0  0  0  0  0  0  0  0  0  0  # atno 8008 bound_to 7997
  155.8609  140.3453  155.5734 H   0  0  0  0  0  0  0  0  0  0  0  0  # atno 8009 bound_to 7997
  155.7881  140.0853  157.2014 H   0  0  0  0  0  0  0  0  0  0  0  0  # atno 8010 bound_to 7997
  139.5832  144.6995  151.3475 H   0  0  0  0  0  0  0  0  0  0  0  0  # atno 10167 bound_to 10162
  156.7337  130.5188  149.5839 H   0  0  0  0  0  0  0  0  0  0  0  0  # atno 10718 bound_to 10713
  152.9784  135.5868  154.4304 H   0  0  0  0  0  0  0  0  0  0  0  0  # atno 10763 bound_to 10752
  154.3918  135.2768  155.2152 H   0  0  0  0  0  0  0  0  0  0  0  0  # atno 10764 bound_to 10752
  154.4021  135.6101  153.5957 H   0  0  0  0  0  0  0  0  0  0  0  0  # atno 10765 bound_to 10752
  141.1126  133.6610  156.4640 H   0  0  0  0  0  0  0  0  0  0  0  0  # atno 11005 bound_to 11000
  146.2298  140.5678  142.8980 LP  0  0  0  0  0  0  0  0  0  0  0  0  # atno 17320 bound_to 7965
  144.7847  140.5912  143.6582 LP  0  0  0  0  0  0  0  0  0  0  0  0  # atno 17321 bound_to 7965
  140.7108  143.7396  150.7563 LP  0  0  0  0  0  0  0  0  0  0  0  0  # atno 17342 bound_to 10162
  140.0934  143.4856  152.2466 LP  0  0  0  0  0  0  0  0  0  0  0  0  # atno 17343 bound_to 10162
  156.1511  130.6311  151.0597 LP  0  0  0  0  0  0  0  0  0  0  0  0  # atno 17370 bound_to 10713
  157.6848  131.0828  150.7273 LP  0  0  0  0  0  0  0  0  0  0  0  0  # atno 17371 bound_to 10713
  140.4733  134.6733  157.5139 LP  0  0  0  0  0  0  0  0  0  0  0  0  # atno 17394 bound_to 11000
  140.0029  134.6808  155.9501 LP  0  0  0  0  0  0  0  0  0  0  0  0  # atno 17395 bound_to 11000

$$$$
