AV-unprocessed.smi:3141|AV-procd|sdf|11964|dock2
  -GOLD-   2272017363D 1   1.00000     0.00000
 Structure written by MMmdl.
 36 38  0  0  0  0  0  0  0  0  2 V2000
  147.3977  142.5686  159.9123 O   0  0  0  0  0  0  0  0  0  0  0  0
  147.5699  143.4179  159.0380 C   0  0  0  0  0  0  0  0  0  0  0  0
  146.5897  143.9427  158.2919 N   0  0  0  0  0  0  0  0  0  0  0  0
  145.2074  143.6014  158.3847 C   0  0  0  0  0  0  0  0  0  0  0  0
  144.5379  143.0481  157.1454 C   0  0  0  0  0  0  0  0  0  0  0  0
  144.2214  144.4443  157.6053 C   0  0  0  0  0  0  0  0  0  0  0  0
  148.7685  143.9176  158.7041 N   0  0  0  0  0  0  0  0  0  0  0  0
  150.0418  143.5780  159.3435 C   0  0  2  0  0  0  0  0  0  0  0  0
  150.7001  144.8603  159.8917 C   0  0  0  0  0  0  0  0  0  0  0  0
  151.9064  145.1729  158.9891 C   0  0  0  0  0  0  0  0  0  0  0  0
  151.7860  144.2405  157.7827 C   0  0  0  0  0  0  0  0  0  0  0  0
  151.0864  143.0065  158.3614 C   0  0  2  0  0  0  0  0  0  0  0  0
  150.5807  142.0221  157.3856 N   0  0  0  0  0  0  0  0  0  0  0  0
  150.5770  142.1733  156.0218 C   0  0  0  0  0  0  0  0  0  0  0  0
  150.0678  141.0149  155.4955 C   0  0  0  0  0  0  0  0  0  0  0  0
  149.7892  140.1985  156.5572 N   0  3  0  0  0  0  0  0  0  0  0  0
  150.1063  140.8076  157.7040 C   0  0  0  0  0  0  0  0  0  0  0  0
  146.8376  144.6375  157.6026 H   0  0  0  0  0  0  0  0  0  0  0  0
  144.8520  143.2071  159.3359 H   0  0  0  0  0  0  0  0  0  0  0  0
  145.1401  142.9409  156.2451 H   0  0  0  0  0  0  0  0  0  0  0  0
  143.7724  142.2876  157.2859 H   0  0  0  0  0  0  0  0  0  0  0  0
  143.2445  144.6159  158.0531 H   0  0  0  0  0  0  0  0  0  0  0  0
  144.6123  145.2695  157.0129 H   0  0  0  0  0  0  0  0  0  0  0  0
  148.8033  144.6098  157.9699 H   0  0  0  0  0  0  0  0  0  0  0  0
  149.8626  142.8748  160.1591 H   0  0  0  0  0  0  0  0  0  0  0  0
  150.0020  145.6986  159.9140 H   0  0  0  0  0  0  0  0  0  0  0  0
  151.0368  144.7082  160.9179 H   0  0  0  0  0  0  0  0  0  0  0  0
  151.9411  146.2218  158.6931 H   0  0  0  0  0  0  0  0  0  0  0  0
  152.8296  144.9558  159.5280 H   0  0  0  0  0  0  0  0  0  0  0  0
  151.1719  144.7266  157.0247 H   0  0  0  0  0  0  0  0  0  0  0  0
  152.7531  144.0078  157.3359 H   0  0  0  0  0  0  0  0  0  0  0  0
  151.8313  142.4739  158.9557 H   0  0  0  0  0  0  0  0  0  0  0  0
  150.9345  143.0709  155.5380 H   0  0  0  0  0  0  0  0  0  0  0  0
  149.8942  140.7163  154.4718 H   0  0  0  0  0  0  0  0  0  0  0  0
  150.0048  140.3868  158.6876 H   0  0  0  0  0  0  0  0  0  0  0  0
  149.4069  139.2638  156.4866 H   0  0  0  0  0  0  0  0  0  0  0  0
  1  2  2  0  0  0  0
  2  3  1  0  0  0  0
  2  7  1  0  0  0  0
  3  4  1  0  0  0  0
  3 18  1  0  0  0  0
  4  6  1  0  0  0  0
  4  5  1  0  0  0  0
  4 19  1  0  0  0  0
  5  6  1  0  0  0  0
  5 20  1  0  0  0  0
  5 21  1  0  0  0  0
  6 22  1  0  0  0  0
  6 23  1  0  0  0  0
  7  8  1  0  0  0  0
  7 24  1  0  0  0  0
  8 12  1  0  0  0  0
  8  9  1  0  0  0  0
  8 25  1  0  0  0  0
  9 10  1  0  0  0  0
  9 26  1  0  0  0  0
  9 27  1  0  0  0  0
 10 11  1  0  0  0  0
 10 28  1  0  0  0  0
 10 29  1  0  0  0  0
 11 12  1  0  0  0  0
 11 30  1  0  0  0  0
 11 31  1  0  0  0  0
 12 13  1  0  0  0  0
 12 32  1  0  0  0  0
 13 17  1  0  0  0  0
 13 14  1  0  0  0  0
 14 15  2  0  0  0  0
 14 33  1  0  0  0  0
 15 16  1  0  0  0  0
 15 34  1  0  0  0  0
 16 17  2  0  0  0  0
 16 36  1  0  0  0  0
 17 35  1  0  0  0  0
M  CHG  1  16   1
M  END
> <s_m_source_file>
AV-unprocessed.smi

> <i_m_source_file_index>
3141

> <i_lp_mmshare_version>
43012

> <i_f3d_flags>
0

> <s_epik_input>
W0NIMl0xW0NIMl1bQ0hdMVtOSF1DKD1PKVtOSF1bQ0BASF0yW0NIMl1bQ0gyXVtDSDJdW0NASF0ybjNbY0hdW2NIXW5bY0hdMw==

> <s_epik_cmdline>
J2VwaWtfcHl0aG9uJywgJy1waCcsICc3LjAnLCAnLXRuJywgJzgnLCAnLW1hJywgJzIwMCcsICctbWV0YWxfYmluZGluZycsICctaW1hZScsICc8aW5maWxlLm1hZT4nLCAnLW9tYWUnLCAnPG91dGZpbGUubWFlPic=

> <r_lp_tautomer_probability>
1

> <r_epik_Ionization_Penalty>
0.205063

> <r_epik_Ionization_Penalty_Charging>
0

> <r_epik_Ionization_Penalty_Neutral>
0.205063

> <r_epik_State_Penalty>
0.194948

> <r_epik_Charging_Adjusted_Penalty>
0.194948

> <i_epik_Tot_Q>
1

> <i_epik_Tot_abs_Q>
1

> <r_epik_Metal_State_Penalty>
0.500882

> <b_epik_Metal_Only>
0

> <s_lp_Force_Field>
OPLS_2005

> <r_lp_Energy>
37.736

> <b_lp_Chiralities_Consistent>
1

> <s_lp_Variant>
AV-unprocessed.smi:3141-3

> <Gold.Version>
5.8.1

> <Gold.Id.Protein>
6NUR|6NUR_protein|mol2

> <Gold.PLP.Fitness>
38.1640

> <Gold.PLP.PLP>
-26.8612

> <Gold.PLP.part.hbond>
-4.5151

> <Gold.PLP.part.metal>
0.0000

> <Gold.PLP.part.buried>
1.0942

> <Gold.PLP.part.nonpolar>
-24.9618

> <Gold.PLP.part.repulsive>
0.1629

> <Gold.PLP.ligand.clash>
0.0000

> <Gold.PLP.ligand.torsion>
0.1240

> <Gold.PLP.Chemscore.Hbond>
3.3061

> <Gold.PLP.Chemscore.CHOScore>
0.5209

> <Gold.PLP.Chemscore.Metal>
0.0000

> <Gold.Chemscore.Hbonds>
donor molecule, donor type, donor heavy atom, donor atom, acceptor molecule, acceptor atom, score
      L1  H     3    18       P1  8029  0.68
      L1  H     7    24       P1  8029  0.73
      P1  H  6933  6944       L1     1  0.66
      P1  H  6934  6946       L1     1  0.64
      L1  C    14    33       P1  8028  0.39

> <Gold.PLP.Chemscore.Internal.Correction>
0.0698

> <Gold.Rescore>
     Score         DG    S(hbond)    S(metal)    S(lipo)     H(rot)  DE(clash)    DE(int)     intcor
     19.51     -20.25       3.21        0.00      69.79       1.61       0.62       0.12       ----

> <Gold.Chemscore.Fitness>
19.5104

> <Gold.Chemscore.DG>
-20.2542

> <Gold.Chemscore.ZeroCoef>
-5.4800

> <Gold.Chemscore.Hbond>
3.2117

> <Gold.Chemscore.Metal>
0.0000

> <Gold.Chemscore.Lipo>
69.7913

> <Gold.Chemscore.Internal_Hbond>
0.0000

> <Gold.Chemscore.DEClash>
0.6211

> <Gold.Chemscore.DEInternal>
0.1227

> <Gold.Chemscore.Rot>
1.6088

> <Gold.Chemscore.Internal.Correction>
   9.000000E+99

> <Gold.Chemscore.Hbonds>
donor molecule, donor type, donor heavy atom, donor atom, acceptor molecule, acceptor atom, score
      L1  H     3    18       P1  8029  0.08
      L1  H     7    24       P1  8029  0.12
      P1  H  6933  6944       L1     1  0.66
      P1  H  6934  6946       L1     1  0.64

> <Gold.Chemscore.Hbond.Weighted>
-10.7272

> <Gold.Chemscore.Metal.Weighted>
-0.0000

> <Gold.Chemscore.Lipo.Weighted>
-8.1656

> <Gold.Chemscore.Internal_Hbond.Weighted>
0.0000

> <Gold.Chemscore.DEClash.Weighted>
0.6211

> <Gold.Chemscore.DEInternal.Weighted>
0.1227

> <Gold.Chemscore.Rot.Weighted>
4.1186

> <Gold.Chemscore.Internal.Correction.Weighted>
   9.000000E+99

> <Gold.Protein.RotatedTorsions>
[ 6907 6896 6895 6894 ] final  152.51 input  -60.11 | X-H torsion
[ 7974 7965 7964 7962 ] final   13.03 input  175.53 | X-H torsion
[ 8008 7997 7996 7995 ] final -170.26 input   59.86 | X-H torsion
[ 10167 10162 10161 10158 ] final -171.86 input  -65.29 | X-H torsion
[ 10718 10713 10712 10709 ] final   21.15 input   66.30 | X-H torsion
[ 10763 10752 10751 10750 ] final  -49.68 input  -60.55 | X-H torsion
[ 11005 11000 10999 10996 ] final -149.21 input  -57.11 | X-H torsion

> <Gold.Protein.ActiveResidues>
 VAL166  LYS551  ARG553  GLY616  TRP617  ASP618  TYR619  PRO620  LYS621  CYS622 
 ASP623  PHE694  ASN695  SER759  ASP760  ASP761  ALA762  ILE779  LEU786  VAL792 
 PHE793  MET794  SER795  GLU796  ALA797  LYS798  CYS799  TRP800  GLU811  SER814 

> <Gold.Protein.RotatedAtoms>
  152.0858  133.4175  159.4521 H   0  0  0  0  0  0  0  0  0  0  0  0  # atno 6907 bound_to 6896
  150.6862  134.2930  159.4683 H   0  0  0  0  0  0  0  0  0  0  0  0  # atno 6908 bound_to 6896
  152.0776  134.9492  160.0624 H   0  0  0  0  0  0  0  0  0  0  0  0  # atno 6909 bound_to 6896
  146.2338  139.9249  142.8504 H   0  0  0  0  0  0  0  0  0  0  0  0  # atno 7974 bound_to 7965
  155.9159  140.1065  157.1244 H   0  0  0  0  0  0  0  0  0  0  0  0  # atno 8008 bound_to 7997
  154.4046  140.1265  156.4682 H   0  0  0  0  0  0  0  0  0  0  0  0  # atno 8009 bound_to 7997
  155.7254  140.3469  155.5037 H   0  0  0  0  0  0  0  0  0  0  0  0  # atno 8010 bound_to 7997
  139.5777  144.1493  152.1473 H   0  0  0  0  0  0  0  0  0  0  0  0  # atno 10167 bound_to 10162
  157.1344  130.6605  149.5961 H   0  0  0  0  0  0  0  0  0  0  0  0  # atno 10718 bound_to 10713
  154.0980  135.6567  153.4863 H   0  0  0  0  0  0  0  0  0  0  0  0  # atno 10763 bound_to 10752
  153.0298  135.5218  154.7315 H   0  0  0  0  0  0  0  0  0  0  0  0  # atno 10764 bound_to 10752
  154.6458  135.2994  155.0016 H   0  0  0  0  0  0  0  0  0  0  0  0  # atno 10765 bound_to 10752
  140.7531  134.3383  157.5121 H   0  0  0  0  0  0  0  0  0  0  0  0  # atno 11005 bound_to 11000
  145.2100  140.9892  143.4106 LP  0  0  0  0  0  0  0  0  0  0  0  0  # atno 17320 bound_to 7965
  144.9699  139.3891  143.6314 LP  0  0  0  0  0  0  0  0  0  0  0  0  # atno 17321 bound_to 7965
  140.1040  144.5515  150.6970 LP  0  0  0  0  0  0  0  0  0  0  0  0  # atno 17342 bound_to 10162
  140.7059  143.2467  151.4728 LP  0  0  0  0  0  0  0  0  0  0  0  0  # atno 17343 bound_to 10162
  155.9801  130.4799  150.6754 LP  0  0  0  0  0  0  0  0  0  0  0  0  # atno 17370 bound_to 10713
  157.4363  131.0855  151.0988 LP  0  0  0  0  0  0  0  0  0  0  0  0  # atno 17371 bound_to 10713
  139.8784  134.9155  156.3132 LP  0  0  0  0  0  0  0  0  0  0  0  0  # atno 17394 bound_to 11000
  140.9732  133.7314  156.0565 LP  0  0  0  0  0  0  0  0  0  0  0  0  # atno 17395 bound_to 11000

$$$$
