AV-unprocessed.smi:2079|AV-procd|sdf|8478|dock4
  -GOLD-   2272011183D 1   1.00000     0.00000
 Structure written by MMmdl.
 42 43  0  0  0  0  0  0  0  0  2 V2000
  150.2094  142.2313  157.5913 C   0  0  0  0  0  0  0  0  0  0  0  0
  150.1435  141.3819  156.3687 C   0  0  0  0  0  0  0  0  0  0  0  0
  149.1132  140.9967  155.5575 C   0  0  0  0  0  0  0  0  0  0  0  0
  149.7577  140.1854  154.5861 C   0  0  0  0  0  0  0  0  0  0  0  0
  149.0190  139.5712  153.5425 N   0  0  0  0  0  0  0  0  0  0  0  0
  147.8080  138.9953  153.6299 C   0  0  0  0  0  0  0  0  0  0  0  0
  147.1456  138.8870  154.6624 O   0  0  0  0  0  0  0  0  0  0  0  0
  147.3927  138.5390  152.4389 N   0  0  0  0  0  0  0  0  0  0  0  0
  146.1070  137.8918  152.2026 C   0  0  0  0  0  0  0  0  0  0  0  0
  145.9251  136.6468  153.0971 C   0  0  0  0  0  0  0  0  0  0  0  0
  146.3642  135.3766  152.4486 N   0  3  1  0  0  0  0  0  0  0  0  0
  146.8076  134.3618  153.4490 C   0  0  0  0  0  0  0  0  0  0  0  0
  147.3782  133.1023  152.7823 C   0  0  0  0  0  0  0  0  0  0  0  0
  146.3507  132.4816  151.8372 C   0  0  0  0  0  0  0  0  0  0  0  0
  145.9106  133.5302  150.8136 C   0  0  0  0  0  0  0  0  0  0  0  0
  145.3589  134.8038  151.4919 C   0  0  2  0  0  0  0  0  0  0  0  0
  144.9224  135.7950  150.3924 C   0  0  0  0  0  0  0  0  0  0  0  0
  151.0634  140.0878  154.7837 N   0  0  0  0  0  0  0  0  0  0  0  0
  151.3173  140.8536  155.9275 O   0  0  0  0  0  0  0  0  0  0  0  0
  149.2724  142.7665  157.7453 H   0  0  0  0  0  0  0  0  0  0  0  0
  151.0096  142.9671  157.5096 H   0  0  0  0  0  0  0  0  0  0  0  0
  150.3996  141.6207  158.4741 H   0  0  0  0  0  0  0  0  0  0  0  0
  148.0681  141.2534  155.6498 H   0  0  0  0  0  0  0  0  0  0  0  0
  149.4525  139.5869  152.6314 H   0  0  0  0  0  0  0  0  0  0  0  0
  147.9966  138.6666  151.6397 H   0  0  0  0  0  0  0  0  0  0  0  0
  145.2962  138.6044  152.3651 H   0  0  0  0  0  0  0  0  0  0  0  0
  146.0866  137.6268  151.1466 H   0  0  0  0  0  0  0  0  0  0  0  0
  146.4527  136.7768  154.0431 H   0  0  0  0  0  0  0  0  0  0  0  0
  144.8671  136.5917  153.3397 H   0  0  0  0  0  0  0  0  0  0  0  0
  147.5846  134.7663  154.0947 H   0  0  0  0  0  0  0  0  0  0  0  0
  145.9684  134.0960  154.0939 H   0  0  0  0  0  0  0  0  0  0  0  0
  148.2849  133.3546  152.2307 H   0  0  0  0  0  0  0  0  0  0  0  0
  147.6694  132.3772  153.5428 H   0  0  0  0  0  0  0  0  0  0  0  0
  146.7761  131.6137  151.3325 H   0  0  0  0  0  0  0  0  0  0  0  0
  145.4879  132.1268  152.4028 H   0  0  0  0  0  0  0  0  0  0  0  0
  146.7555  133.7896  150.1738 H   0  0  0  0  0  0  0  0  0  0  0  0
  145.1538  133.0952  150.1596 H   0  0  0  0  0  0  0  0  0  0  0  0
  144.4725  134.5262  152.0651 H   0  0  0  0  0  0  0  0  0  0  0  0
  144.3300  135.2915  149.6280 H   0  0  0  0  0  0  0  0  0  0  0  0
  145.7829  136.2448  149.8958 H   0  0  0  0  0  0  0  0  0  0  0  0
  144.2911  136.5945  150.7785 H   0  0  0  0  0  0  0  0  0  0  0  0
  147.1755  135.6097  151.8937 H   0  0  0  0  0  0  0  0  0  0  0  0
  1  2  1  0  0  0  0
  1 20  1  0  0  0  0
  1 21  1  0  0  0  0
  1 22  1  0  0  0  0
  2 19  1  0  0  0  0
  2  3  2  0  0  0  0
  3  4  1  0  0  0  0
  3 23  1  0  0  0  0
  4  5  1  0  0  0  0
  4 18  2  0  0  0  0
  5  6  1  0  0  0  0
  5 24  1  0  0  0  0
  6  7  2  0  0  0  0
  6  8  1  0  0  0  0
  8  9  1  0  0  0  0
  8 25  1  0  0  0  0
  9 10  1  0  0  0  0
  9 26  1  0  0  0  0
  9 27  1  0  0  0  0
 10 11  1  0  0  0  0
 10 28  1  0  0  0  0
 10 29  1  0  0  0  0
 11 16  1  0  0  0  0
 11 12  1  0  0  0  0
 11 42  1  0  0  0  0
 12 13  1  0  0  0  0
 12 30  1  0  0  0  0
 12 31  1  0  0  0  0
 13 14  1  0  0  0  0
 13 32  1  0  0  0  0
 13 33  1  0  0  0  0
 14 15  1  0  0  0  0
 14 34  1  0  0  0  0
 14 35  1  0  0  0  0
 15 16  1  0  0  0  0
 15 36  1  0  0  0  0
 15 37  1  0  0  0  0
 16 17  1  0  0  0  0
 16 38  1  0  0  0  0
 17 39  1  0  0  0  0
 17 40  1  0  0  0  0
 17 41  1  0  0  0  0
 18 19  1  0  0  0  0
M  CHG  1  11   1
M  END
> <s_m_source_file>
AV-unprocessed.smi

> <i_m_source_file_index>
2079

> <i_lp_mmshare_version>
43012

> <i_f3d_flags>
0

> <s_epik_input>
W0NIM11jMVtjSF1jKG5vMSlbTkhdQyg9TylbTkhdW0NIMl1bQ0gyXU4yW0NIMl1bQ0gyXVtDSDJdW0NIMl1bQ0BIXTJbQ0gzXQ==

> <s_epik_cmdline>
J2VwaWtfcHl0aG9uJywgJy1waCcsICc3LjAnLCAnLXRuJywgJzgnLCAnLW1hJywgJzIwMCcsICctbWV0YWxfYmluZGluZycsICctaW1hZScsICc8aW5maWxlLm1hZT4nLCAnLW9tYWUnLCAnPG91dGZpbGUubWFlPic=

> <r_epik_Ionization_Penalty>
0.00265971

> <r_epik_Ionization_Penalty_Charging>
0.00262393

> <r_epik_Ionization_Penalty_Neutral>
3.57846e-05

> <r_epik_State_Penalty>
0.00182566

> <r_epik_Charging_Adjusted_Penalty>
0.00444959

> <i_epik_Tot_Q>
1

> <i_epik_Tot_abs_Q>
1

> <r_epik_Metal_State_Penalty>
0.0216344

> <b_epik_Metal_Only>
0

> <s_lp_Force_Field>
OPLS_2005

> <r_lp_Energy>
17.1718

> <b_lp_Chiralities_Consistent>
1

> <s_lp_Variant>
AV-unprocessed.smi:2079-4

> <Gold.Version>
5.8.1

> <Gold.Id.Protein>
6NUR|6NUR_protein|mol2

> <Gold.PLP.Fitness>
44.1396

> <Gold.PLP.PLP>
-31.7540

> <Gold.PLP.part.hbond>
-5.3399

> <Gold.PLP.part.metal>
0.0000

> <Gold.PLP.part.buried>
-0.4361

> <Gold.PLP.part.nonpolar>
-25.2038

> <Gold.PLP.part.repulsive>
0.3739

> <Gold.PLP.ligand.clash>
0.0000

> <Gold.PLP.ligand.torsion>
0.7933

> <Gold.PLP.Chemscore.Hbond>
4.6490

> <Gold.PLP.Chemscore.CHOScore>
0.0000

> <Gold.PLP.Chemscore.Metal>
0.0000

> <Gold.Chemscore.Hbonds>
donor molecule, donor type, donor heavy atom, donor atom, acceptor molecule, acceptor atom, score
      L1  H     5    24       P1  7957  1.00
      L1  H     8    25       P1  7957  0.54
      L1  H    11    42       P1  7948  1.95
      P1  H  7989  7998       L1    18  1.00

> <Gold.PLP.Chemscore.Internal.Correction>
0.0254

> <Gold.Rescore>
     Score         DG    S(hbond)    S(metal)    S(lipo)     H(rot)  DE(clash)    DE(int)     intcor
     14.35     -18.39       2.86        0.00      63.07       1.57       0.39       3.65       ----

> <Gold.Chemscore.Fitness>
14.3501

> <Gold.Chemscore.DG>
-18.3934

> <Gold.Chemscore.ZeroCoef>
-5.4800

> <Gold.Chemscore.Hbond>
2.8602

> <Gold.Chemscore.Metal>
0.0000

> <Gold.Chemscore.Lipo>
63.0677

> <Gold.Chemscore.Internal_Hbond>
0.0000

> <Gold.Chemscore.DEClash>
0.3885

> <Gold.Chemscore.DEInternal>
3.6549

> <Gold.Chemscore.Rot>
1.5697

> <Gold.Chemscore.Internal.Correction>
   9.000000E+99

> <Gold.Chemscore.Hbonds>
donor molecule, donor type, donor heavy atom, donor atom, acceptor molecule, acceptor atom, score
      L1  H     5    24       P1  7957  0.93
      L1  H     8    25       P1  7957  0.35
      L1  H    11    42       P1  7948  0.93
      P1  H  7989  7998       L1    18  0.21

> <Gold.Chemscore.Hbond.Weighted>
-9.5529

> <Gold.Chemscore.Metal.Weighted>
-0.0000

> <Gold.Chemscore.Lipo.Weighted>
-7.3789

> <Gold.Chemscore.Internal_Hbond.Weighted>
0.0000

> <Gold.Chemscore.DEClash.Weighted>
0.3885

> <Gold.Chemscore.DEInternal.Weighted>
3.6549

> <Gold.Chemscore.Rot.Weighted>
4.0185

> <Gold.Chemscore.Internal.Correction.Weighted>
   9.000000E+99

> <Gold.Protein.RotatedTorsions>
[ 6907 6896 6895 6894 ] final  -37.19 input  -60.11 | X-H torsion
[ 7974 7965 7964 7962 ] final  -14.51 input  175.53 | X-H torsion
[ 8008 7997 7996 7995 ] final   12.33 input   59.86 | X-H torsion
[ 10167 10162 10161 10158 ] final  -12.92 input  -65.29 | X-H torsion
[ 10718 10713 10712 10709 ] final  134.14 input   66.30 | X-H torsion
[ 10763 10752 10751 10750 ] final   79.55 input  -60.55 | X-H torsion
[ 11005 11000 10999 10996 ] final   77.83 input  -57.11 | X-H torsion

> <Gold.Protein.ActiveResidues>
 VAL166  LYS551  ARG553  GLY616  TRP617  ASP618  TYR619  PRO620  LYS621  CYS622 
 ASP623  PHE694  ASN695  SER759  ASP760  ASP761  ALA762  ILE779  LEU786  VAL792 
 PHE793  MET794  SER795  GLU796  ALA797  LYS798  CYS799  TRP800  GLU811  SER814 

> <Gold.Protein.RotatedAtoms>
  151.0178  134.9446  159.8042 H   0  0  0  0  0  0  0  0  0  0  0  0  # atno 6907 bound_to 6896
  152.5318  134.2943  159.9065 H   0  0  0  0  0  0  0  0  0  0  0  0  # atno 6908 bound_to 6896
  151.2950  133.4106  159.2670 H   0  0  0  0  0  0  0  0  0  0  0  0  # atno 6909 bound_to 6896
  146.2071  140.3359  142.8403 H   0  0  0  0  0  0  0  0  0  0  0  0  # atno 7974 bound_to 7965
  154.8192  140.2881  155.5799 H   0  0  0  0  0  0  0  0  0  0  0  0  # atno 8008 bound_to 7997
  156.2996  140.2553  156.3026 H   0  0  0  0  0  0  0  0  0  0  0  0  # atno 8009 bound_to 7997
  154.9358  140.0382  157.2061 H   0  0  0  0  0  0  0  0  0  0  0  0  # atno 8010 bound_to 7997
  140.7171  143.5481  150.9333 H   0  0  0  0  0  0  0  0  0  0  0  0  # atno 10167 bound_to 10162
  157.4702  131.1079  150.9812 H   0  0  0  0  0  0  0  0  0  0  0  0  # atno 10718 bound_to 10713
  153.0962  135.4835  154.8782 H   0  0  0  0  0  0  0  0  0  0  0  0  # atno 10763 bound_to 10752
  154.7327  135.3064  154.8867 H   0  0  0  0  0  0  0  0  0  0  0  0  # atno 10764 bound_to 10752
  153.9498  135.6824  153.4797 H   0  0  0  0  0  0  0  0  0  0  0  0  # atno 10765 bound_to 10752
  139.9238  134.7714  156.1572 H   0  0  0  0  0  0  0  0  0  0  0  0  # atno 11005 bound_to 11000
  144.8820  140.7412  143.5981 LP  0  0  0  0  0  0  0  0  0  0  0  0  # atno 17320 bound_to 7965
  145.3279  139.1768  143.4552 LP  0  0  0  0  0  0  0  0  0  0  0  0  # atno 17321 bound_to 7965
  139.9204  143.6612  152.3098 LP  0  0  0  0  0  0  0  0  0  0  0  0  # atno 17342 bound_to 10162
  139.7027  144.7632  151.1245 LP  0  0  0  0  0  0  0  0  0  0  0  0  # atno 17343 bound_to 10162
  157.0579  130.5813  149.5381 LP  0  0  0  0  0  0  0  0  0  0  0  0  # atno 17370 bound_to 10713
  156.0070  130.5157  150.7862 LP  0  0  0  0  0  0  0  0  0  0  0  0  # atno 17371 bound_to 10713
  141.0780  133.6767  156.2276 LP  0  0  0  0  0  0  0  0  0  0  0  0  # atno 17394 bound_to 11000
  140.6396  134.5180  157.5568 LP  0  0  0  0  0  0  0  0  0  0  0  0  # atno 17395 bound_to 11000

$$$$
