AV-unprocessed.smi:1490|AV-procd|sdf|6030|dock6
  -GOLD-   22720 6133D 1   1.00000     0.00000
 Structure written by MMmdl.
 38 39  0  0  0  0  0  0  0  0  2 V2000
  150.9342  137.0496  154.7703 C   0  0  0  0  0  0  0  0  0  0  0  0
  152.1584  137.5277  155.2981 O   0  0  0  0  0  0  0  0  0  0  0  0
  152.2189  138.9442  155.3401 C   0  0  0  0  0  0  0  0  0  0  0  0
  151.8532  139.4309  156.7494 C   0  0  0  0  0  0  0  0  0  0  0  0
  151.2824  140.7854  156.7386 N   0  0  0  0  0  0  0  0  0  0  0  0
  150.3836  141.3588  155.8904 C   0  0  0  0  0  0  0  0  0  0  0  0
  149.6236  140.5848  154.4989 S   0  0  0  0  0  0  0  0  0  0  0  0
  148.1220  141.5450  154.1564 C   0  0  0  0  0  0  0  0  0  0  0  0
  147.1054  141.4866  155.2947 C   0  0  0  0  0  0  0  0  0  0  0  0
  146.4094  140.4837  155.4471 O   0  0  0  0  0  0  0  0  0  0  0  0
  147.0335  142.5576  156.0983 N   0  0  0  0  0  0  0  0  0  0  0  0
  146.1373  142.6686  157.2399 C   0  0  0  0  0  0  0  0  0  0  0  0
  146.8561  142.6481  158.5237 C   0  0  0  0  0  0  0  0  0  0  0  0
  147.4205  142.6313  159.5335 N   0  0  0  0  0  0  0  0  0  0  0  0
  150.1709  142.6350  156.3159 N   0  3  0  0  0  0  0  0  0  0  0  0
  150.9393  142.8803  157.4557 C   0  0  0  0  0  0  0  0  0  0  0  0
  151.0598  144.0193  158.2457 C   0  0  0  0  0  0  0  0  0  0  0  0
  151.9327  143.9360  159.3508 C   0  0  0  0  0  0  0  0  0  0  0  0
  152.1323  145.3095  160.3754 Cl  0  0  0  0  0  0  0  0  0  0  0  0
  152.6436  142.7511  159.6343 C   0  0  0  0  0  0  0  0  0  0  0  0
  152.5147  141.6019  158.8266 C   0  0  0  0  0  0  0  0  0  0  0  0
  151.6522  141.6952  157.7350 C   0  0  0  0  0  0  0  0  0  0  0  0
  150.9437  135.9598  154.7539 H   0  0  0  0  0  0  0  0  0  0  0  0
  150.7807  137.4002  153.7489 H   0  0  0  0  0  0  0  0  0  0  0  0
  150.0897  137.3695  155.3821 H   0  0  0  0  0  0  0  0  0  0  0  0
  153.2223  139.2812  155.0753 H   0  0  0  0  0  0  0  0  0  0  0  0
  151.5281  139.3718  154.6117 H   0  0  0  0  0  0  0  0  0  0  0  0
  151.1503  138.7503  157.2305 H   0  0  0  0  0  0  0  0  0  0  0  0
  152.7425  139.4498  157.3797 H   0  0  0  0  0  0  0  0  0  0  0  0
  148.4031  142.5835  153.9770 H   0  0  0  0  0  0  0  0  0  0  0  0
  147.6590  141.1743  153.2414 H   0  0  0  0  0  0  0  0  0  0  0  0
  147.6390  143.3432  155.9089 H   0  0  0  0  0  0  0  0  0  0  0  0
  145.5894  143.6086  157.1734 H   0  0  0  0  0  0  0  0  0  0  0  0
  145.4023  141.8624  157.2359 H   0  0  0  0  0  0  0  0  0  0  0  0
  150.5140  144.9264  158.0306 H   0  0  0  0  0  0  0  0  0  0  0  0
  153.3024  142.7215  160.4902 H   0  0  0  0  0  0  0  0  0  0  0  0
  153.0629  140.7000  159.0555 H   0  0  0  0  0  0  0  0  0  0  0  0
  149.5426  143.2856  155.8622 H   0  0  0  0  0  0  0  0  0  0  0  0
  1  2  1  0  0  0  0
  1 23  1  0  0  0  0
  1 24  1  0  0  0  0
  1 25  1  0  0  0  0
  2  3  1  0  0  0  0
  3  4  1  0  0  0  0
  3 26  1  0  0  0  0
  3 27  1  0  0  0  0
  4  5  1  0  0  0  0
  4 28  1  0  0  0  0
  4 29  1  0  0  0  0
  5 22  1  0  0  0  0
  5  6  1  0  0  0  0
  6  7  1  0  0  0  0
  6 15  2  0  0  0  0
  7  8  1  0  0  0  0
  8  9  1  0  0  0  0
  8 30  1  0  0  0  0
  8 31  1  0  0  0  0
  9 10  2  0  0  0  0
  9 11  1  0  0  0  0
 11 12  1  0  0  0  0
 11 32  1  0  0  0  0
 12 13  1  0  0  0  0
 12 33  1  0  0  0  0
 12 34  1  0  0  0  0
 13 14  3  0  0  0  0
 15 16  1  0  0  0  0
 15 38  1  0  0  0  0
 16 22  2  0  0  0  0
 16 17  1  0  0  0  0
 17 18  2  0  0  0  0
 17 35  1  0  0  0  0
 18 19  1  0  0  0  0
 18 20  1  0  0  0  0
 20 21  2  0  0  0  0
 20 36  1  0  0  0  0
 21 22  1  0  0  0  0
 21 37  1  0  0  0  0
M  CHG  1  15   1
M  END
> <s_m_source_file>
AV-unprocessed.smi

> <i_m_source_file_index>
1490

> <i_lp_mmshare_version>
43012

> <i_f3d_flags>
0

> <s_epik_input>
W2NIXTFjKENsKVtjSF1bY0hdYyhjMTIpbihbQ0gyXVtDSDJdT1tDSDNdKWMobjIpU1tDSDJdQyg9TylbTkhdW0NIMl1DI04=

> <s_epik_cmdline>
J2VwaWtfcHl0aG9uJywgJy1waCcsICc3LjAnLCAnLXRuJywgJzgnLCAnLW1hJywgJzIwMCcsICctbWV0YWxfYmluZGluZycsICctaW1hZScsICc8aW5maWxlLm1hZT4nLCAnLW9tYWUnLCAnPG91dGZpbGUubWFlPic=

> <r_epik_Ionization_Penalty>
2.45232

> <r_epik_Ionization_Penalty_Charging>
2.45231

> <r_epik_Ionization_Penalty_Neutral>
6.97855e-06

> <r_epik_State_Penalty>
2.61389

> <r_epik_Charging_Adjusted_Penalty>
5.0662

> <i_epik_Tot_Q>
1

> <i_epik_Tot_abs_Q>
1

> <r_epik_Metal_State_Penalty>
2.62983

> <b_epik_Metal_Only>
0

> <s_lp_Force_Field>
OPLS_2005

> <r_lp_Energy>
5.53111

> <b_lp_Chiralities_Consistent>
1

> <s_lp_Variant>
AV-unprocessed.smi:1490-2

> <Gold.Version>
5.8.1

> <Gold.Id.Protein>
6NUR|6NUR_protein|mol2

> <Gold.PLP.Fitness>
54.8167

> <Gold.PLP.PLP>
-46.6483

> <Gold.PLP.part.hbond>
-5.0000

> <Gold.PLP.part.metal>
0.0000

> <Gold.PLP.part.buried>
-4.2876

> <Gold.PLP.part.nonpolar>
-38.6995

> <Gold.PLP.part.repulsive>
0.2899

> <Gold.PLP.ligand.clash>
0.0000

> <Gold.PLP.ligand.torsion>
1.2505

> <Gold.PLP.Chemscore.Hbond>
3.5363

> <Gold.PLP.Chemscore.CHOScore>
0.0000

> <Gold.PLP.Chemscore.Metal>
0.0000

> <Gold.Chemscore.Hbonds>
donor molecule, donor type, donor heavy atom, donor atom, acceptor molecule, acceptor atom, score
      L1  H    11    32       P1  8028  0.70
      L1  H    15    38       P1  8028  2.00
      P1  H  6933  6944       L1    14  0.38
      P1  H  6934  6946       L1    14  0.41

> <Gold.PLP.Chemscore.Internal.Correction>
0.0604

> <Gold.Rescore>
     Score         DG    S(hbond)    S(metal)    S(lipo)     H(rot)  DE(clash)    DE(int)     intcor
     16.54     -18.01       2.21        0.00     106.11       2.84       0.23       1.24       ----

> <Gold.Chemscore.Fitness>
16.5409

> <Gold.Chemscore.DG>
-18.0056

> <Gold.Chemscore.ZeroCoef>
-5.4800

> <Gold.Chemscore.Hbond>
2.2082

> <Gold.Chemscore.Metal>
0.0000

> <Gold.Chemscore.Lipo>
106.1124

> <Gold.Chemscore.Internal_Hbond>
0.0000

> <Gold.Chemscore.DEClash>
0.2274

> <Gold.Chemscore.DEInternal>
1.2373

> <Gold.Chemscore.Rot>
2.8378

> <Gold.Chemscore.Internal.Correction>
   9.000000E+99

> <Gold.Chemscore.Hbonds>
donor molecule, donor type, donor heavy atom, donor atom, acceptor molecule, acceptor atom, score
      L1  H    11    32       P1  8028  0.07
      L1  H    15    38       P1  8028  0.95
      P1  H  6933  6944       L1    14  0.36
      P1  H  6934  6946       L1    14  0.34

> <Gold.Chemscore.Hbond.Weighted>
-7.3753

> <Gold.Chemscore.Metal.Weighted>
-0.0000

> <Gold.Chemscore.Lipo.Weighted>
-12.4151

> <Gold.Chemscore.Internal_Hbond.Weighted>
0.0000

> <Gold.Chemscore.DEClash.Weighted>
0.2274

> <Gold.Chemscore.DEInternal.Weighted>
1.2373

> <Gold.Chemscore.Rot.Weighted>
7.2649

> <Gold.Chemscore.Internal.Correction.Weighted>
   9.000000E+99

> <Gold.Protein.RotatedTorsions>
[ 6907 6896 6895 6894 ] final -145.37 input  -60.11 | X-H torsion
[ 7974 7965 7964 7962 ] final   79.90 input  175.53 | X-H torsion
[ 8008 7997 7996 7995 ] final   38.49 input   59.86 | X-H torsion
[ 10167 10162 10161 10158 ] final  167.88 input  -65.29 | X-H torsion
[ 10718 10713 10712 10709 ] final   72.62 input   66.30 | X-H torsion
[ 10763 10752 10751 10750 ] final  139.83 input  -60.55 | X-H torsion
[ 11005 11000 10999 10996 ] final  -10.39 input  -57.11 | X-H torsion

> <Gold.Protein.ActiveResidues>
 VAL166  LYS551  ARG553  GLY616  TRP617  ASP618  TYR619  PRO620  LYS621  CYS622 
 ASP623  PHE694  ASN695  SER759  ASP760  ASP761  ALA762  ILE779  LEU786  VAL792 
 PHE793  MET794  SER795  GLU796  ALA797  LYS798  CYS799  TRP800  GLU811  SER814 

> <Gold.Protein.RotatedAtoms>
  151.1268  133.5065  159.2600 H   0  0  0  0  0  0  0  0  0  0  0  0  # atno 6907 bound_to 6896
  151.1801  135.0356  159.8798 H   0  0  0  0  0  0  0  0  0  0  0  0  # atno 6908 bound_to 6896
  152.5458  134.1121  159.8416 H   0  0  0  0  0  0  0  0  0  0  0  0  # atno 6909 bound_to 6896
  145.6582  139.2464  143.1938 H   0  0  0  0  0  0  0  0  0  0  0  0  # atno 7974 bound_to 7965
  155.2210  140.3331  155.4315 H   0  0  0  0  0  0  0  0  0  0  0  0  # atno 8008 bound_to 7997
  156.2333  140.1860  156.7233 H   0  0  0  0  0  0  0  0  0  0  0  0  # atno 8009 bound_to 7997
  154.6015  140.0622  156.9361 H   0  0  0  0  0  0  0  0  0  0  0  0  # atno 8010 bound_to 7997
  139.4955  144.3875  151.9554 H   0  0  0  0  0  0  0  0  0  0  0  0  # atno 10167 bound_to 10162
  157.6510  130.9588  150.0955 H   0  0  0  0  0  0  0  0  0  0  0  0  # atno 10718 bound_to 10713
  153.9126  135.3009  155.3448 H   0  0  0  0  0  0  0  0  0  0  0  0  # atno 10763 bound_to 10752
  154.7616  135.4931  153.9477 H   0  0  0  0  0  0  0  0  0  0  0  0  # atno 10764 bound_to 10752
  153.1185  135.6776  153.9479 H   0  0  0  0  0  0  0  0  0  0  0  0  # atno 10765 bound_to 10752
  140.7443  133.8644  155.8993 H   0  0  0  0  0  0  0  0  0  0  0  0  # atno 11005 bound_to 11000
  146.1147  140.7384  142.9486 LP  0  0  0  0  0  0  0  0  0  0  0  0  # atno 17320 bound_to 7965
  144.7098  140.3996  143.7089 LP  0  0  0  0  0  0  0  0  0  0  0  0  # atno 17321 bound_to 7965
  140.3312  144.3314  150.5987 LP  0  0  0  0  0  0  0  0  0  0  0  0  # atno 17342 bound_to 10162
  140.5644  143.2188  151.7710 LP  0  0  0  0  0  0  0  0  0  0  0  0  # atno 17343 bound_to 10162
  156.1892  130.3654  149.8932 LP  0  0  0  0  0  0  0  0  0  0  0  0  # atno 17370 bound_to 10713
  156.6865  130.8879  151.3583 LP  0  0  0  0  0  0  0  0  0  0  0  0  # atno 17371 bound_to 10713
  140.9809  134.1407  157.4495 LP  0  0  0  0  0  0  0  0  0  0  0  0  # atno 17394 bound_to 11000
  139.8800  135.0010  156.6042 LP  0  0  0  0  0  0  0  0  0  0  0  0  # atno 17395 bound_to 11000

$$$$
