AV-unprocessed.smi:828|AV-procd|sdf|3865|dock10
  -GOLD-   22720 1313D 1   1.00000     0.00000
 Structure written by MMmdl.
 34 35  0  0  0  0  0  0  0  0  3 V2000
  150.9576  142.2865  157.4316 C   0  0  0  0  0  0  0  0  0  0  0  0
  150.6680  141.1458  156.5175 C   0  0  0  0  0  0  0  0  0  0  0  0
  151.4913  140.1036  156.3812 N   0  0  0  0  0  0  0  0  0  0  0  0
  151.0088  139.1712  155.4744 N   0  0  0  0  0  0  0  0  0  0  0  0
  149.8353  139.5245  154.9313 C   0  0  0  0  0  0  0  0  0  0  0  0
  149.1982  138.7567  154.0318 N   0  5  0  0  0  0  0  0  0  0  0  0
  147.8949  138.9822  153.7542 C   0  0  0  0  0  0  0  0  0  0  0  0
  147.1203  139.6882  154.4037 O   0  0  0  0  0  0  0  0  0  0  0  0
  147.4612  138.3408  152.6598 N   0  0  0  0  0  0  0  0  0  0  0  0
  146.1050  138.3702  152.1213 C   0  0  0  0  0  0  0  0  0  0  0  0
  145.4738  136.9647  152.0826 C   0  0  1  0  0  0  0  0  0  0  0  0
  145.1673  136.4451  150.6735 C   0  0  0  0  0  0  0  0  0  0  0  0
  145.1333  134.9362  150.8657 C   0  0  0  0  0  0  0  0  0  0  0  0
  146.2224  134.6879  151.9111 C   0  0  0  0  0  0  0  0  0  0  0  0
  146.3713  135.9470  152.6800 N   0  3  2  0  0  0  0  0  0  0  0  0
  146.2102  135.7774  154.1408 C   0  0  0  0  0  0  0  0  0  0  0  0
  149.2185  141.0642  155.5305 S   0  0  0  0  0  0  0  0  0  0  0  0
  151.7665  142.8939  157.0255 H   0  0  0  0  0  0  0  0  0  0  0  0
  151.2539  141.9156  158.4130 H   0  0  0  0  0  0  0  0  0  0  0  0
  150.0733  142.9131  157.5484 H   0  0  0  0  0  0  0  0  0  0  0  0
  148.1366  137.7805  152.1607 H   0  0  0  0  0  0  0  0  0  0  0  0
  145.4738  139.0601  152.6843 H   0  0  0  0  0  0  0  0  0  0  0  0
  146.1679  138.7757  151.1116 H   0  0  0  0  0  0  0  0  0  0  0  0
  144.5375  136.9725  152.6445 H   0  0  0  0  0  0  0  0  0  0  0  0
  144.2357  136.8409  150.2674 H   0  0  0  0  0  0  0  0  0  0  0  0
  145.9727  136.7072  149.9858 H   0  0  0  0  0  0  0  0  0  0  0  0
  144.1619  134.6396  151.2636 H   0  0  0  0  0  0  0  0  0  0  0  0
  145.3003  134.3856  149.9395 H   0  0  0  0  0  0  0  0  0  0  0  0
  145.9812  133.8304  152.5411 H   0  0  0  0  0  0  0  0  0  0  0  0
  147.1740  134.4778  151.4219 H   0  0  0  0  0  0  0  0  0  0  0  0
  145.2116  135.4136  154.3864 H   0  0  0  0  0  0  0  0  0  0  0  0
  146.3674  136.7233  154.6593 H   0  0  0  0  0  0  0  0  0  0  0  0
  146.9390  135.0621  154.5232 H   0  0  0  0  0  0  0  0  0  0  0  0
  147.3157  136.2653  152.5158 H   0  0  0  0  0  0  0  0  0  0  0  0
  1  2  1  0  0  0  0
  1 18  1  0  0  0  0
  1 19  1  0  0  0  0
  1 20  1  0  0  0  0
  2 17  1  0  0  0  0
  2  3  2  0  0  0  0
  3  4  1  0  0  0  0
  4  5  2  0  0  0  0
  5  6  1  0  0  0  0
  5 17  1  0  0  0  0
  6  7  1  0  0  0  0
  7  8  2  0  0  0  0
  7  9  1  0  0  0  0
  9 10  1  0  0  0  0
  9 21  1  0  0  0  0
 10 11  1  0  0  0  0
 10 22  1  0  0  0  0
 10 23  1  0  0  0  0
 11 15  1  0  0  0  0
 11 12  1  0  0  0  0
 11 24  1  0  0  0  0
 12 13  1  0  0  0  0
 12 25  1  0  0  0  0
 12 26  1  0  0  0  0
 13 14  1  0  0  0  0
 13 27  1  0  0  0  0
 13 28  1  0  0  0  0
 14 15  1  0  0  0  0
 14 29  1  0  0  0  0
 14 30  1  0  0  0  0
 15 16  1  0  0  0  0
 15 34  1  0  0  0  0
 16 31  1  0  0  0  0
 16 32  1  0  0  0  0
 16 33  1  0  0  0  0
M  CHG  1   6  -1
M  CHG  1  15   1
M  END
> <s_m_source_file>
AV-unprocessed.smi

> <i_m_source_file_index>
828

> <i_lp_mmshare_version>
43012

> <i_f3d_flags>
0

> <s_epik_input>
W0NIM11jMW5uYyhzMSlbTkhdQyg9TylbTkhdW0NIMl1bQ0BASF0yW0NIMl1bQ0gyXVtDSDJdTjJbQ0gzXQ==

> <s_epik_cmdline>
J2VwaWtfcHl0aG9uJywgJy1waCcsICc3LjAnLCAnLXRuJywgJzgnLCAnLW1hJywgJzIwMCcsICctbWV0YWxfYmluZGluZycsICctaW1hZScsICc8aW5maWxlLm1hZT4nLCAnLW9tYWUnLCAnPG91dGZpbGUubWFlPic=

> <r_lp_tautomer_probability>
1

> <r_epik_Ionization_Penalty>
3.94379

> <r_epik_Ionization_Penalty_Charging>
3.83377

> <r_epik_Ionization_Penalty_Neutral>
0.110023

> <r_epik_State_Penalty>
3.83036

> <r_epik_Charging_Adjusted_Penalty>
7.66413

> <i_epik_Tot_Q>
0

> <i_epik_Tot_abs_Q>
2

> <r_epik_Metal_State_Penalty>
0.575095

> <b_epik_Metal_Only>
1

> <s_lp_Force_Field>
OPLS_2005

> <r_lp_Energy>
18.3481

> <b_lp_Chiralities_Consistent>
1

> <s_lp_Variant>
AV-unprocessed.smi:828-8

> <Gold.Version>
5.8.1

> <Gold.Id.Protein>
6NUR|6NUR_protein|mol2

> <Gold.PLP.Fitness>
34.5063

> <Gold.PLP.PLP>
-27.1694

> <Gold.PLP.part.hbond>
-2.9928

> <Gold.PLP.part.metal>
0.0000

> <Gold.PLP.part.buried>
0.1143

> <Gold.PLP.part.nonpolar>
-25.8596

> <Gold.PLP.part.repulsive>
0.4407

> <Gold.PLP.ligand.clash>
0.0000

> <Gold.PLP.ligand.torsion>
0.8332

> <Gold.PLP.Chemscore.Hbond>
3.0000

> <Gold.PLP.Chemscore.CHOScore>
0.0000

> <Gold.PLP.Chemscore.Metal>
0.0000

> <Gold.Chemscore.Hbonds>
donor molecule, donor type, donor heavy atom, donor atom, acceptor molecule, acceptor atom, score
      L1  H     9    21       P1  7948  1.00
      L1  H    15    34       P1  7948  2.00

> <Gold.PLP.Chemscore.Internal.Correction>
0.0033

> <Gold.Rescore>
     Score         DG    S(hbond)    S(metal)    S(lipo)     H(rot)  DE(clash)    DE(int)     intcor
     11.73     -15.38       1.97        0.00      57.11       1.31       1.41       2.24       ----

> <Gold.Chemscore.Fitness>
11.7340

> <Gold.Chemscore.DG>
-15.3821

> <Gold.Chemscore.ZeroCoef>
-5.4800

> <Gold.Chemscore.Hbond>
1.9720

> <Gold.Chemscore.Metal>
0.0000

> <Gold.Chemscore.Lipo>
57.1081

> <Gold.Chemscore.Internal_Hbond>
0.0000

> <Gold.Chemscore.DEClash>
1.4062

> <Gold.Chemscore.DEInternal>
2.2419

> <Gold.Chemscore.Rot>
1.3149

> <Gold.Chemscore.Internal.Correction>
   9.000000E+99

> <Gold.Chemscore.Hbonds>
donor molecule, donor type, donor heavy atom, donor atom, acceptor molecule, acceptor atom, score
      L1  H     9    21       P1  7948  0.97
      L1  H    15    34       P1  7948  0.99

> <Gold.Chemscore.Hbond.Weighted>
-6.5866

> <Gold.Chemscore.Metal.Weighted>
-0.0000

> <Gold.Chemscore.Lipo.Weighted>
-6.6817

> <Gold.Chemscore.Internal_Hbond.Weighted>
0.0000

> <Gold.Chemscore.DEClash.Weighted>
1.4062

> <Gold.Chemscore.DEInternal.Weighted>
2.2419

> <Gold.Chemscore.Rot.Weighted>
3.3662

> <Gold.Chemscore.Internal.Correction.Weighted>
   9.000000E+99

> <Gold.Protein.RotatedTorsions>
[ 6907 6896 6895 6894 ] final  -43.88 input  -60.11 | X-H torsion
[ 7974 7965 7964 7962 ] final  107.70 input  175.53 | X-H torsion
[ 8008 7997 7996 7995 ] final  164.77 input   59.86 | X-H torsion
[ 10167 10162 10161 10158 ] final   28.75 input  -65.29 | X-H torsion
[ 10718 10713 10712 10709 ] final  -88.59 input   66.30 | X-H torsion
[ 10763 10752 10751 10750 ] final  120.74 input  -60.55 | X-H torsion
[ 11005 11000 10999 10996 ] final   88.24 input  -57.11 | X-H torsion

> <Gold.Protein.ActiveResidues>
 VAL166  LYS551  ARG553  GLY616  TRP617  ASP618  TYR619  PRO620  LYS621  CYS622 
 ASP623  PHE694  ASN695  SER759  ASP760  ASP761  ALA762  ILE779  LEU786  VAL792 
 PHE793  MET794  SER795  GLU796  ALA797  LYS798  CYS799  TRP800  GLU811  SER814 

> <Gold.Protein.RotatedAtoms>
  150.9390  134.8801  159.7599 H   0  0  0  0  0  0  0  0  0  0  0  0  # atno 6907 bound_to 6896
  152.5072  134.3969  159.9413 H   0  0  0  0  0  0  0  0  0  0  0  0  # atno 6908 bound_to 6896
  151.3991  133.3723  159.2765 H   0  0  0  0  0  0  0  0  0  0  0  0  # atno 6909 bound_to 6896
  145.2902  139.2603  143.3869 H   0  0  0  0  0  0  0  0  0  0  0  0  # atno 7974 bound_to 7965
  156.1853  140.1688  156.8196 H   0  0  0  0  0  0  0  0  0  0  0  0  # atno 8008 bound_to 7997
  154.5407  140.0737  156.8538 H   0  0  0  0  0  0  0  0  0  0  0  0  # atno 8009 bound_to 7997
  155.3220  140.3374  155.4243 H   0  0  0  0  0  0  0  0  0  0  0  0  # atno 8010 bound_to 7997
  140.4825  144.0593  150.6270 H   0  0  0  0  0  0  0  0  0  0  0  0  # atno 10167 bound_to 10162
  155.9983  130.4841  150.5043 H   0  0  0  0  0  0  0  0  0  0  0  0  # atno 10718 bound_to 10713
  153.6032  135.3444  155.2952 H   0  0  0  0  0  0  0  0  0  0  0  0  # atno 10763 bound_to 10752
  154.8632  135.4232  154.2390 H   0  0  0  0  0  0  0  0  0  0  0  0  # atno 10764 bound_to 10752
  153.3223  135.7039  153.7091 H   0  0  0  0  0  0  0  0  0  0  0  0  # atno 10765 bound_to 10752
  139.8901  134.8474  156.2972 H   0  0  0  0  0  0  0  0  0  0  0  0  # atno 11005 bound_to 11000
  146.3187  140.3391  142.8646 LP  0  0  0  0  0  0  0  0  0  0  0  0  # atno 17320 bound_to 7965
  144.9179  140.7834  143.5766 LP  0  0  0  0  0  0  0  0  0  0  0  0  # atno 17321 bound_to 7965
  140.3839  143.2788  152.0138 LP  0  0  0  0  0  0  0  0  0  0  0  0  # atno 17342 bound_to 10162
  139.4836  144.6132  151.7394 LP  0  0  0  0  0  0  0  0  0  0  0  0  # atno 17343 bound_to 10162
  157.3023  131.0647  151.2059 LP  0  0  0  0  0  0  0  0  0  0  0  0  # atno 17370 bound_to 10713
  157.3034  130.6854  149.6176 LP  0  0  0  0  0  0  0  0  0  0  0  0  # atno 17371 bound_to 10713
  140.9937  133.7193  156.0853 LP  0  0  0  0  0  0  0  0  0  0  0  0  # atno 17394 bound_to 11000
  140.7591  134.3960  157.5529 LP  0  0  0  0  0  0  0  0  0  0  0  0  # atno 17395 bound_to 11000

$$$$
