AV-unprocessed.smi:1705|AV-procd|sdf|6882|dock2
  -GOLD-   22720 8 83D 1   1.00000     0.00000
 Structure written by MMmdl.
 38 39  0  0  0  0  0  0  0  0  1 V2000
  152.7162  138.9193  155.1009 C   0  0  0  0  0  0  0  0  0  0  0  0
  151.6613  139.1695  156.1897 C   0  0  2  0  0  0  0  0  0  0  0  0
  152.3195  139.4571  157.4555 N   0  0  0  0  0  0  0  0  0  0  0  0
  152.2700  140.6539  158.1634 C   0  0  0  0  0  0  0  0  0  0  0  0
  151.5633  141.7284  157.7120 C   0  0  0  0  0  0  0  0  0  0  0  0
  150.8552  141.7458  156.4709 C   0  0  0  0  0  0  0  0  0  0  0  0
  150.2623  141.7363  155.4760 N   0  0  0  0  0  0  0  0  0  0  0  0
  151.5001  142.9830  158.4587 C   0  0  0  0  0  0  0  0  0  0  0  0
  150.8669  143.9735  158.0854 O   0  0  0  0  0  0  0  0  0  0  0  0
  152.2229  142.9886  159.6686 N   0  0  0  0  0  0  0  0  0  0  0  0
  152.1696  144.2130  160.4433 C   0  0  0  0  0  0  0  0  0  0  0  0
  152.9589  141.8908  160.1608 C   0  0  0  0  0  0  0  0  0  0  0  0
  153.5577  141.9415  161.2394 O   0  0  0  0  0  0  0  0  0  0  0  0
  152.9799  140.7180  159.3663 N   0  0  0  0  0  0  0  0  0  0  0  0
  153.7457  139.6235  159.9288 C   0  0  0  0  0  0  0  0  0  0  0  0
  150.7107  137.9713  156.3673 C   0  0  2  0  0  0  0  0  0  0  0  0
  151.3922  136.6625  156.7637 C   0  0  0  0  0  0  0  0  0  0  0  0
  150.4084  135.6032  156.2970 C   0  0  0  0  0  0  0  0  0  0  0  0
  149.5574  136.3253  155.2481 C   0  0  0  0  0  0  0  0  0  0  0  0
  150.1293  137.6202  155.1203 O   0  0  0  0  0  0  0  0  0  0  0  0
  152.2540  138.7841  154.1231 H   0  0  0  0  0  0  0  0  0  0  0  0
  153.3044  138.0272  155.3183 H   0  0  0  0  0  0  0  0  0  0  0  0
  153.4083  139.7572  155.0186 H   0  0  0  0  0  0  0  0  0  0  0  0
  151.0583  140.0287  155.8976 H   0  0  0  0  0  0  0  0  0  0  0  0
  152.3718  138.6379  158.0437 H   0  0  0  0  0  0  0  0  0  0  0  0
  152.8310  144.1698  161.3076 H   0  0  0  0  0  0  0  0  0  0  0  0
  151.1352  144.3420  160.7664 H   0  0  0  0  0  0  0  0  0  0  0  0
  152.4878  145.0287  159.7915 H   0  0  0  0  0  0  0  0  0  0  0  0
  153.2313  139.3027  160.8362 H   0  0  0  0  0  0  0  0  0  0  0  0
  154.7520  139.9911  160.1391 H   0  0  0  0  0  0  0  0  0  0  0  0
  153.8120  138.7972  159.2247 H   0  0  0  0  0  0  0  0  0  0  0  0
  149.9163  138.2088  157.0779 H   0  0  0  0  0  0  0  0  0  0  0  0
  152.3338  136.5512  156.2240 H   0  0  0  0  0  0  0  0  0  0  0  0
  151.6045  136.6002  157.8313 H   0  0  0  0  0  0  0  0  0  0  0  0
  150.9229  134.7349  155.8842 H   0  0  0  0  0  0  0  0  0  0  0  0
  149.7821  135.2623  157.1222 H   0  0  0  0  0  0  0  0  0  0  0  0
  149.5556  135.8105  154.2871 H   0  0  0  0  0  0  0  0  0  0  0  0
  148.5247  136.4170  155.5873 H   0  0  0  0  0  0  0  0  0  0  0  0
  1  2  1  0  0  0  0
  1 21  1  0  0  0  0
  1 22  1  0  0  0  0
  1 23  1  0  0  0  0
  2  3  1  0  0  0  0
  2 16  1  0  0  0  0
  2 24  1  0  0  0  0
  3  4  1  0  0  0  0
  3 25  1  0  0  0  0
  4 14  1  0  0  0  0
  4  5  2  0  0  0  0
  5  6  1  0  0  0  0
  5  8  1  0  0  0  0
  6  7  3  0  0  0  0
  8  9  2  0  0  0  0
  8 10  1  0  0  0  0
 10 11  1  0  0  0  0
 10 12  1  0  0  0  0
 11 26  1  0  0  0  0
 11 27  1  0  0  0  0
 11 28  1  0  0  0  0
 12 13  2  0  0  0  0
 12 14  1  0  0  0  0
 14 15  1  0  0  0  0
 15 29  1  0  0  0  0
 15 30  1  0  0  0  0
 15 31  1  0  0  0  0
 16 20  1  0  0  0  0
 16 17  1  0  0  0  0
 16 32  1  0  0  0  0
 17 18  1  0  0  0  0
 17 33  1  0  0  0  0
 17 34  1  0  0  0  0
 18 19  1  0  0  0  0
 18 35  1  0  0  0  0
 18 36  1  0  0  0  0
 19 20  1  0  0  0  0
 19 37  1  0  0  0  0
 19 38  1  0  0  0  0
M  END
> <s_m_source_file>
AV-unprocessed.smi

> <i_m_source_file_index>
1705

> <i_lp_mmshare_version>
43012

> <i_f3d_flags>
0

> <s_epik_input>
TzFbQ0gyXVtDSDJdW0NIMl1bQ0BIXTFbQ0BIXShbQ0gzXSlbTkhdYzJjKEMjTiljKD1PKW4oW0NIM10pYyg9TyluMltDSDNd

> <s_epik_cmdline>
J2VwaWtfcHl0aG9uJywgJy1waCcsICc3LjAnLCAnLXRuJywgJzgnLCAnLW1hJywgJzIwMCcsICctbWV0YWxfYmluZGluZycsICctaW1hZScsICc8aW5maWxlLm1hZT4nLCAnLW9tYWUnLCAnPG91dGZpbGUubWFlPic=

> <r_epik_Ionization_Penalty>
0.000446268

> <r_epik_Ionization_Penalty_Charging>
9.41922e-10

> <r_epik_Ionization_Penalty_Neutral>
0.000446267

> <r_epik_State_Penalty>
0.000275531

> <r_epik_Charging_Adjusted_Penalty>
0.000275532

> <i_epik_Tot_Q>
0

> <i_epik_Tot_abs_Q>
0

> <r_epik_Metal_State_Penalty>
-0

> <b_epik_Metal_Only>
0

> <s_lp_Force_Field>
OPLS_2005

> <r_lp_Energy>
37.8394

> <b_lp_Chiralities_Consistent>
1

> <s_lp_Variant>
AV-unprocessed.smi:1705-1

> <Gold.Version>
5.8.1

> <Gold.Id.Protein>
6NUR|6NUR_protein|mol2

> <Gold.PLP.Fitness>
33.4893

> <Gold.PLP.PLP>
-33.5118

> <Gold.PLP.part.hbond>
-0.0966

> <Gold.PLP.part.metal>
0.0000

> <Gold.PLP.part.buried>
-5.7866

> <Gold.PLP.part.nonpolar>
-28.5976

> <Gold.PLP.part.repulsive>
0.4983

> <Gold.PLP.ligand.clash>
9.0766

> <Gold.PLP.ligand.torsion>
0.0259

> <Gold.PLP.Chemscore.Hbond>
0.0000

> <Gold.PLP.Chemscore.CHOScore>
0.0000

> <Gold.PLP.Chemscore.Metal>
0.0000

> <Gold.PLP.Chemscore.Internal.Correction>
9.1059

> <Gold.Rescore>
     Score         DG    S(hbond)    S(metal)    S(lipo)     H(rot)  DE(clash)    DE(int)     intcor
      6.42      -9.22       0.07        0.00      58.01       1.28       0.20       2.60       ----

> <Gold.Chemscore.Fitness>
6.4164

> <Gold.Chemscore.DG>
-9.2157

> <Gold.Chemscore.ZeroCoef>
-5.4800

> <Gold.Chemscore.Hbond>
0.0661

> <Gold.Chemscore.Metal>
0.0000

> <Gold.Chemscore.Lipo>
58.0067

> <Gold.Chemscore.Internal_Hbond>
0.0000

> <Gold.Chemscore.DEClash>
0.1955

> <Gold.Chemscore.DEInternal>
2.6039

> <Gold.Chemscore.Rot>
1.2780

> <Gold.Chemscore.Internal.Correction>
   9.000000E+99

> <Gold.Chemscore.Hbond.Weighted>
-0.2206

> <Gold.Chemscore.Metal.Weighted>
-0.0000

> <Gold.Chemscore.Lipo.Weighted>
-6.7868

> <Gold.Chemscore.Internal_Hbond.Weighted>
0.0000

> <Gold.Chemscore.DEClash.Weighted>
0.1955

> <Gold.Chemscore.DEInternal.Weighted>
2.6039

> <Gold.Chemscore.Rot.Weighted>
3.2717

> <Gold.Chemscore.Internal.Correction.Weighted>
   9.000000E+99

> <Gold.Protein.RotatedTorsions>
[ 6907 6896 6895 6894 ] final -170.06 input  -60.11 | X-H torsion
[ 7974 7965 7964 7962 ] final  156.73 input  175.53 | X-H torsion
[ 8008 7997 7996 7995 ] final  -39.49 input   59.86 | X-H torsion
[ 10167 10162 10161 10158 ] final  -66.11 input  -65.29 | X-H torsion
[ 10718 10713 10712 10709 ] final -157.43 input   66.30 | X-H torsion
[ 10763 10752 10751 10750 ] final   -2.35 input  -60.55 | X-H torsion
[ 11005 11000 10999 10996 ] final -136.87 input  -57.11 | X-H torsion

> <Gold.Protein.ActiveResidues>
 VAL166  LYS551  ARG553  GLY616  TRP617  ASP618  TYR619  PRO620  LYS621  CYS622 
 ASP623  PHE694  ASN695  SER759  ASP760  ASP761  ALA762  ILE779  LEU786  VAL792 
 PHE793  MET794  SER795  GLU796  ALA797  LYS798  CYS799  TRP800  GLU811  SER814 

> <Gold.Protein.RotatedAtoms>
  151.5016  133.3503  159.2869 H   0  0  0  0  0  0  0  0  0  0  0  0  # atno 6907 bound_to 6896
  150.8769  134.8156  159.7207 H   0  0  0  0  0  0  0  0  0  0  0  0  # atno 6908 bound_to 6896
  152.4737  134.4908  159.9746 H   0  0  0  0  0  0  0  0  0  0  0  0  # atno 6909 bound_to 6896
  144.7945  139.7244  143.6207 H   0  0  0  0  0  0  0  0  0  0  0  0  # atno 7974 bound_to 7965
  154.4022  140.1550  156.2872 H   0  0  0  0  0  0  0  0  0  0  0  0  # atno 8008 bound_to 7997
  155.8818  140.3443  155.5871 H   0  0  0  0  0  0  0  0  0  0  0  0  # atno 8009 bound_to 7997
  155.7659  140.0824  157.2123 H   0  0  0  0  0  0  0  0  0  0  0  0  # atno 8010 bound_to 7997
  140.5681  143.2316  151.6594 H   0  0  0  0  0  0  0  0  0  0  0  0  # atno 10167 bound_to 10162
  156.5402  130.8560  151.2746 H   0  0  0  0  0  0  0  0  0  0  0  0  # atno 10718 bound_to 10713
  153.3569  135.6988  153.6743 H   0  0  0  0  0  0  0  0  0  0  0  0  # atno 10763 bound_to 10752
  153.5448  135.3565  155.2734 H   0  0  0  0  0  0  0  0  0  0  0  0  # atno 10764 bound_to 10752
  154.8662  135.4212  154.2817 H   0  0  0  0  0  0  0  0  0  0  0  0  # atno 10765 bound_to 10752
  140.8764  134.1986  157.4619 H   0  0  0  0  0  0  0  0  0  0  0  0  # atno 11005 bound_to 11000
  146.2209  139.5634  142.9619 LP  0  0  0  0  0  0  0  0  0  0  0  0  # atno 17320 bound_to 7965
  145.5708  141.0394  143.2175 LP  0  0  0  0  0  0  0  0  0  0  0  0  # atno 17321 bound_to 7965
  139.5103  144.3547  152.0619 LP  0  0  0  0  0  0  0  0  0  0  0  0  # atno 17342 bound_to 10162
  140.2681  144.3994  150.6161 LP  0  0  0  0  0  0  0  0  0  0  0  0  # atno 17343 bound_to 10162
  157.7406  130.9854  150.2393 LP  0  0  0  0  0  0  0  0  0  0  0  0  # atno 17370 bound_to 10713
  156.2979  130.3754  149.7779 LP  0  0  0  0  0  0  0  0  0  0  0  0  # atno 17371 bound_to 10713
  139.8716  134.9798  156.5049 LP  0  0  0  0  0  0  0  0  0  0  0  0  # atno 17394 bound_to 11000
  140.8513  133.8130  155.9171 LP  0  0  0  0  0  0  0  0  0  0  0  0  # atno 17395 bound_to 11000

$$$$
