AV-unprocessed.smi:2079|AV-procd|sdf|8476|dock6
  -GOLD-   2272011183D 1   1.00000     0.00000
 Structure written by MMmdl.
 42 43  0  0  0  0  0  0  0  0  2 V2000
  151.6734  140.4790  158.3587 C   0  0  0  0  0  0  0  0  0  0  0  0
  151.3885  140.0991  156.9460 C   0  0  0  0  0  0  0  0  0  0  0  0
  150.2284  139.9347  156.2425 C   0  0  0  0  0  0  0  0  0  0  0  0
  150.6882  139.5662  154.9502 C   0  0  0  0  0  0  0  0  0  0  0  0
  149.7732  139.2968  153.9006 N   0  0  0  0  0  0  0  0  0  0  0  0
  148.4855  138.9289  154.0132 C   0  0  0  0  0  0  0  0  0  0  0  0
  147.8873  138.7496  155.0746 O   0  0  0  0  0  0  0  0  0  0  0  0
  147.9133  138.7711  152.8106 N   0  0  0  0  0  0  0  0  0  0  0  0
  146.5220  138.3888  152.5987 C   0  0  0  0  0  0  0  0  0  0  0  0
  146.1745  137.0864  153.3476 C   0  0  0  0  0  0  0  0  0  0  0  0
  146.2492  135.8721  152.4912 N   0  3  1  0  0  0  0  0  0  0  0  0
  146.2485  134.6233  153.3010 C   0  0  0  0  0  0  0  0  0  0  0  0
  146.5386  133.3886  152.4335 C   0  0  0  0  0  0  0  0  0  0  0  0
  145.5426  133.2852  151.2740 C   0  0  0  0  0  0  0  0  0  0  0  0
  145.5512  134.5883  150.4639 C   0  0  0  0  0  0  0  0  0  0  0  0
  145.2840  135.8266  151.3464 C   0  0  1  0  0  0  0  0  0  0  0  0
  143.8046  135.9275  151.7769 C   0  0  0  0  0  0  0  0  0  0  0  0
  152.0090  139.5118  154.8713 N   0  0  0  0  0  0  0  0  0  0  0  0
  152.4646  139.8522  156.1503 O   0  0  0  0  0  0  0  0  0  0  0  0
  150.8128  140.9731  158.8098 H   0  0  0  0  0  0  0  0  0  0  0  0
  152.5211  141.1623  158.4134 H   0  0  0  0  0  0  0  0  0  0  0  0
  151.9095  139.5975  158.9550 H   0  0  0  0  0  0  0  0  0  0  0  0
  149.2163  140.0575  156.5987 H   0  0  0  0  0  0  0  0  0  0  0  0
  150.1367  139.4035  152.9653 H   0  0  0  0  0  0  0  0  0  0  0  0
  148.4734  138.9391  151.9875 H   0  0  0  0  0  0  0  0  0  0  0  0
  145.8851  139.2161  152.9126 H   0  0  0  0  0  0  0  0  0  0  0  0
  146.3624  138.2581  151.5280 H   0  0  0  0  0  0  0  0  0  0  0  0
  146.8873  136.9738  154.1658 H   0  0  0  0  0  0  0  0  0  0  0  0
  145.1932  137.1518  153.8178 H   0  0  0  0  0  0  0  0  0  0  0  0
  147.0106  134.6911  154.0781 H   0  0  0  0  0  0  0  0  0  0  0  0
  145.2935  134.5108  153.8150 H   0  0  0  0  0  0  0  0  0  0  0  0
  147.5545  133.4472  152.0404 H   0  0  0  0  0  0  0  0  0  0  0  0
  146.4948  132.4860  153.0436 H   0  0  0  0  0  0  0  0  0  0  0  0
  145.7997  132.4419  150.6322 H   0  0  0  0  0  0  0  0  0  0  0  0
  144.5418  133.0874  151.6592 H   0  0  0  0  0  0  0  0  0  0  0  0
  146.5230  134.6973  149.9800 H   0  0  0  0  0  0  0  0  0  0  0  0
  144.8189  134.5317  149.6577 H   0  0  0  0  0  0  0  0  0  0  0  0
  145.4847  136.6855  150.7075 H   0  0  0  0  0  0  0  0  0  0  0  0
  143.1467  135.8595  150.9100 H   0  0  0  0  0  0  0  0  0  0  0  0
  143.5866  136.8804  152.2584 H   0  0  0  0  0  0  0  0  0  0  0  0
  143.5164  135.1328  152.4641 H   0  0  0  0  0  0  0  0  0  0  0  0
  147.1643  135.9053  152.0650 H   0  0  0  0  0  0  0  0  0  0  0  0
  1  2  1  0  0  0  0
  1 20  1  0  0  0  0
  1 21  1  0  0  0  0
  1 22  1  0  0  0  0
  2 19  1  0  0  0  0
  2  3  2  0  0  0  0
  3  4  1  0  0  0  0
  3 23  1  0  0  0  0
  4  5  1  0  0  0  0
  4 18  2  0  0  0  0
  5  6  1  0  0  0  0
  5 24  1  0  0  0  0
  6  7  2  0  0  0  0
  6  8  1  0  0  0  0
  8  9  1  0  0  0  0
  8 25  1  0  0  0  0
  9 10  1  0  0  0  0
  9 26  1  0  0  0  0
  9 27  1  0  0  0  0
 10 11  1  0  0  0  0
 10 28  1  0  0  0  0
 10 29  1  0  0  0  0
 11 16  1  0  0  0  0
 11 12  1  0  0  0  0
 11 42  1  0  0  0  0
 12 13  1  0  0  0  0
 12 30  1  0  0  0  0
 12 31  1  0  0  0  0
 13 14  1  0  0  0  0
 13 32  1  0  0  0  0
 13 33  1  0  0  0  0
 14 15  1  0  0  0  0
 14 34  1  0  0  0  0
 14 35  1  0  0  0  0
 15 16  1  0  0  0  0
 15 36  1  0  0  0  0
 15 37  1  0  0  0  0
 16 17  1  0  0  0  0
 16 38  1  0  0  0  0
 17 39  1  0  0  0  0
 17 40  1  0  0  0  0
 17 41  1  0  0  0  0
 18 19  1  0  0  0  0
M  CHG  1  11   1
M  END
> <s_m_source_file>
AV-unprocessed.smi

> <i_m_source_file_index>
2079

> <i_lp_mmshare_version>
43012

> <i_f3d_flags>
0

> <s_epik_input>
W0NIM11jMVtjSF1jKG5vMSlbTkhdQyg9TylbTkhdW0NIMl1bQ0gyXU4yW0NIMl1bQ0gyXVtDSDJdW0NIMl1bQ0BIXTJbQ0gzXQ==

> <s_epik_cmdline>
J2VwaWtfcHl0aG9uJywgJy1waCcsICc3LjAnLCAnLXRuJywgJzgnLCAnLW1hJywgJzIwMCcsICctbWV0YWxfYmluZGluZycsICctaW1hZScsICc8aW5maWxlLm1hZT4nLCAnLW9tYWUnLCAnPG91dGZpbGUubWFlPic=

> <r_epik_Ionization_Penalty>
0.00265971

> <r_epik_Ionization_Penalty_Charging>
0.00262393

> <r_epik_Ionization_Penalty_Neutral>
3.57846e-05

> <r_epik_State_Penalty>
0.00182566

> <r_epik_Charging_Adjusted_Penalty>
0.00444959

> <i_epik_Tot_Q>
1

> <i_epik_Tot_abs_Q>
1

> <r_epik_Metal_State_Penalty>
0.0216344

> <b_epik_Metal_Only>
0

> <s_lp_Force_Field>
OPLS_2005

> <r_lp_Energy>
16.3098

> <b_lp_Chiralities_Consistent>
1

> <s_lp_Variant>
AV-unprocessed.smi:2079-2

> <Gold.Version>
5.8.1

> <Gold.Id.Protein>
6NUR|6NUR_protein|mol2

> <Gold.PLP.Fitness>
45.3102

> <Gold.PLP.PLP>
-30.4635

> <Gold.PLP.part.hbond>
-6.0000

> <Gold.PLP.part.metal>
0.0000

> <Gold.PLP.part.buried>
-3.0560

> <Gold.PLP.part.nonpolar>
-21.6415

> <Gold.PLP.part.repulsive>
0.2887

> <Gold.PLP.ligand.clash>
0.0000

> <Gold.PLP.ligand.torsion>
0.4372

> <Gold.PLP.Chemscore.Hbond>
5.2280

> <Gold.PLP.Chemscore.CHOScore>
0.0000

> <Gold.PLP.Chemscore.Metal>
0.0000

> <Gold.Chemscore.Hbonds>
donor molecule, donor type, donor heavy atom, donor atom, acceptor molecule, acceptor atom, score
      L1  H     5    24       P1  7957  0.85
      L1  H     8    25       P1  7957  0.96
      L1  H    11    42       P1  7948  2.00
      P1  H  7989  7998       L1    18  0.05
      P1  H  7997  8008       L1    19  1.00

> <Gold.PLP.Chemscore.Internal.Correction>
0.0372

> <Gold.Rescore>
     Score         DG    S(hbond)    S(metal)    S(lipo)     H(rot)  DE(clash)    DE(int)     intcor
     17.96     -20.94       3.93        0.00      54.23       1.57       0.18       2.80       ----

> <Gold.Chemscore.Fitness>
17.9618

> <Gold.Chemscore.DG>
-20.9364

> <Gold.Chemscore.ZeroCoef>
-5.4800

> <Gold.Chemscore.Hbond>
3.9310

> <Gold.Chemscore.Metal>
0.0000

> <Gold.Chemscore.Lipo>
54.2328

> <Gold.Chemscore.Internal_Hbond>
0.0000

> <Gold.Chemscore.DEClash>
0.1789

> <Gold.Chemscore.DEInternal>
2.7956

> <Gold.Chemscore.Rot>
1.5697

> <Gold.Chemscore.Internal.Correction>
   9.000000E+99

> <Gold.Chemscore.Hbonds>
donor molecule, donor type, donor heavy atom, donor atom, acceptor molecule, acceptor atom, score
      L1  H     5    24       P1  7957  0.78
      L1  H     8    25       P1  7957  0.87
      L1  H    11    42       P1  7948  1.00
      P1  H  7997  8008       L1    19  0.88

> <Gold.Chemscore.Hbond.Weighted>
-13.1296

> <Gold.Chemscore.Metal.Weighted>
-0.0000

> <Gold.Chemscore.Lipo.Weighted>
-6.3452

> <Gold.Chemscore.Internal_Hbond.Weighted>
0.0000

> <Gold.Chemscore.DEClash.Weighted>
0.1789

> <Gold.Chemscore.DEInternal.Weighted>
2.7956

> <Gold.Chemscore.Rot.Weighted>
4.0185

> <Gold.Chemscore.Internal.Correction.Weighted>
   9.000000E+99

> <Gold.Protein.RotatedTorsions>
[ 6907 6896 6895 6894 ] final    9.17 input  -60.11 | X-H torsion
[ 7974 7965 7964 7962 ] final   25.46 input  175.53 | X-H torsion
[ 8008 7997 7996 7995 ] final  -36.60 input   59.86 | X-H torsion
[ 10167 10162 10161 10158 ] final  100.58 input  -65.29 | X-H torsion
[ 10718 10713 10712 10709 ] final   69.13 input   66.30 | X-H torsion
[ 10763 10752 10751 10750 ] final -135.12 input  -60.55 | X-H torsion
[ 11005 11000 10999 10996 ] final   70.40 input  -57.11 | X-H torsion

> <Gold.Protein.ActiveResidues>
 VAL166  LYS551  ARG553  GLY616  TRP617  ASP618  TYR619  PRO620  LYS621  CYS622 
 ASP623  PHE694  ASN695  SER759  ASP760  ASP761  ALA762  ILE779  LEU786  VAL792 
 PHE793  MET794  SER795  GLU796  ALA797  LYS798  CYS799  TRP800  GLU811  SER814 

> <Gold.Protein.RotatedAtoms>
  151.7178  135.0900  160.0278 H   0  0  0  0  0  0  0  0  0  0  0  0  # atno 6907 bound_to 6896
  152.3621  133.6306  159.6031 H   0  0  0  0  0  0  0  0  0  0  0  0  # atno 6908 bound_to 6896
  150.7612  133.9323  159.3472 H   0  0  0  0  0  0  0  0  0  0  0  0  # atno 6909 bound_to 6896
  146.1887  139.7462  142.8848 H   0  0  0  0  0  0  0  0  0  0  0  0  # atno 7974 bound_to 7965
  154.4070  140.1626  156.2401 H   0  0  0  0  0  0  0  0  0  0  0  0  # atno 8008 bound_to 7997
  155.9208  140.3421  155.6149 H   0  0  0  0  0  0  0  0  0  0  0  0  # atno 8009 bound_to 7997
  155.7224  140.0770  157.2315 H   0  0  0  0  0  0  0  0  0  0  0  0  # atno 8010 bound_to 7997
  139.7514  144.6983  151.0427 H   0  0  0  0  0  0  0  0  0  0  0  0  # atno 10167 bound_to 10162
  157.6328  130.9409  150.0471 H   0  0  0  0  0  0  0  0  0  0  0  0  # atno 10718 bound_to 10713
  154.8708  135.3713  154.4847 H   0  0  0  0  0  0  0  0  0  0  0  0  # atno 10763 bound_to 10752
  153.5498  135.7025  153.5602 H   0  0  0  0  0  0  0  0  0  0  0  0  # atno 10764 bound_to 10752
  153.3726  135.4017  155.1763 H   0  0  0  0  0  0  0  0  0  0  0  0  # atno 10765 bound_to 10752
  139.9600  134.7078  156.0667 H   0  0  0  0  0  0  0  0  0  0  0  0  # atno 11005 bound_to 11000
  145.3859  141.0365  143.3151 LP  0  0  0  0  0  0  0  0  0  0  0  0  # atno 17320 bound_to 7965
  144.8445  139.5418  143.6885 LP  0  0  0  0  0  0  0  0  0  0  0  0  # atno 17321 bound_to 7965
  140.7798  143.4804  151.0025 LP  0  0  0  0  0  0  0  0  0  0  0  0  # atno 17342 bound_to 10162
  139.8492  143.7461  152.3178 LP  0  0  0  0  0  0  0  0  0  0  0  0  # atno 17343 bound_to 10162
  156.1545  130.3643  149.9390 LP  0  0  0  0  0  0  0  0  0  0  0  0  # atno 17370 bound_to 10713
  156.7402  130.9076  151.3631 LP  0  0  0  0  0  0  0  0  0  0  0  0  # atno 17371 bound_to 10713
  141.1276  133.6595  156.3378 LP  0  0  0  0  0  0  0  0  0  0  0  0  # atno 17394 bound_to 11000
  140.5522  134.6016  157.5411 LP  0  0  0  0  0  0  0  0  0  0  0  0  # atno 17395 bound_to 11000

$$$$
