AV-unprocessed.smi:2568|AV-procd|sdf|10096|dock1
  -GOLD-   2272014113D 1   1.00000     0.00000
 Structure written by MMmdl.
 24 25  0  0  0  0  0  0  0  0  1 V2000
  154.9653  139.0082  160.4373 C   0  0  0  0  0  0  0  0  0  0  0  0
  153.9367  139.8807  159.8023 C   0  0  0  0  0  0  0  0  0  0  0  0
  153.3881  139.5643  158.6305 N   0  0  0  0  0  0  0  0  0  0  0  0
  152.5360  140.5924  158.4342 N   0  0  0  0  0  0  0  0  0  0  0  0
  152.6147  141.4371  159.4649 C   0  0  0  0  0  0  0  0  0  0  0  0
  151.7927  142.6856  159.5301 C   0  0  2  0  0  0  0  0  0  0  0  0
  151.0523  142.9719  158.2089 C   0  0  0  0  0  0  0  0  0  0  0  0
  150.3336  144.2418  158.2976 N   0  0  0  0  0  0  0  0  0  0  0  0
  151.2335  145.3323  158.6707 C   0  0  0  0  0  0  0  0  0  0  0  0
  151.9792  144.9901  159.9734 C   0  0  0  0  0  0  0  0  0  0  0  0
  152.6821  143.7623  159.8143 O   0  0  0  0  0  0  0  0  0  0  0  0
  153.4986  141.0411  160.3767 N   0  0  0  0  0  0  0  0  0  0  0  0
  151.9448  140.6718  157.6192 H   0  0  0  0  0  0  0  0  0  0  0  0
  155.3246  138.2550  159.7352 H   0  0  0  0  0  0  0  0  0  0  0  0
  154.5428  138.4995  161.3039 H   0  0  0  0  0  0  0  0  0  0  0  0
  155.8163  139.6050  160.7664 H   0  0  0  0  0  0  0  0  0  0  0  0
  151.0758  142.5839  160.3474 H   0  0  0  0  0  0  0  0  0  0  0  0
  151.7670  143.0098  157.3858 H   0  0  0  0  0  0  0  0  0  0  0  0
  150.3566  142.1630  157.9843 H   0  0  0  0  0  0  0  0  0  0  0  0
  149.8997  144.4502  157.4039 H   0  0  0  0  0  0  0  0  0  0  0  0
  151.9552  145.5074  157.8721 H   0  0  0  0  0  0  0  0  0  0  0  0
  150.6700  146.2576  158.7921 H   0  0  0  0  0  0  0  0  0  0  0  0
  152.6946  145.7769  160.2129 H   0  0  0  0  0  0  0  0  0  0  0  0
  151.2873  144.9229  160.8146 H   0  0  0  0  0  0  0  0  0  0  0  0
  1  2  1  0  0  0  0
  1 14  1  0  0  0  0
  1 15  1  0  0  0  0
  1 16  1  0  0  0  0
  2 12  1  0  0  0  0
  2  3  2  0  0  0  0
  3  4  1  0  0  0  0
  4 13  1  0  0  0  0
  4  5  1  0  0  0  0
  5  6  1  0  0  0  0
  5 12  2  0  0  0  0
  6 11  1  0  0  0  0
  6  7  1  0  0  0  0
  6 17  1  0  0  0  0
  7  8  1  0  0  0  0
  7 18  1  0  0  0  0
  7 19  1  0  0  0  0
  8  9  1  0  0  0  0
  8 20  1  0  0  0  0
  9 10  1  0  0  0  0
  9 21  1  0  0  0  0
  9 22  1  0  0  0  0
 10 11  1  0  0  0  0
 10 23  1  0  0  0  0
 10 24  1  0  0  0  0
M  END
> <s_m_source_file>
AV-unprocessed.smi

> <i_m_source_file_index>
2568

> <i_lp_mmshare_version>
43012

> <i_f3d_flags>
0

> <s_epik_input>
W0NIM11jMW5bbkhdYyhuMSlbQ0BASF0yW0NIMl1bTkhdW0NIMl1bQ0gyXU8y

> <s_epik_cmdline>
J2VwaWtfcHl0aG9uJywgJy1waCcsICc3LjAnLCAnLXRuJywgJzgnLCAnLW1hJywgJzIwMCcsICctbWV0YWxfYmluZGluZycsICctaW1hZScsICc8aW5maWxlLm1hZT4nLCAnLW9tYWUnLCAnPG91dGZpbGUubWFlPic=

> <r_lp_tautomer_probability>
0.948284

> <r_epik_Ionization_Penalty>
0.982563

> <r_epik_Ionization_Penalty_Charging>
0

> <r_epik_Ionization_Penalty_Neutral>
0.982563

> <r_epik_State_Penalty>
2.21233

> <r_epik_Charging_Adjusted_Penalty>
2.21233

> <i_epik_Tot_Q>
0

> <i_epik_Tot_abs_Q>
0

> <r_epik_Metal_State_Penalty>
2.51138

> <b_epik_Metal_Only>
0

> <s_lp_Force_Field>
OPLS_2005

> <r_lp_Energy>
12.795

> <b_lp_Chiralities_Consistent>
1

> <s_lp_Variant>
AV-unprocessed.smi:2568-9

> <Gold.Version>
5.8.1

> <Gold.Id.Protein>
6NUR|6NUR_protein|mol2

> <Gold.PLP.Fitness>
28.5752

> <Gold.PLP.PLP>
-22.9146

> <Gold.PLP.part.hbond>
-2.4450

> <Gold.PLP.part.metal>
0.0000

> <Gold.PLP.part.buried>
-4.0340

> <Gold.PLP.part.nonpolar>
-16.2124

> <Gold.PLP.part.repulsive>
0.1019

> <Gold.PLP.ligand.clash>
0.0000

> <Gold.PLP.ligand.torsion>
0.1701

> <Gold.PLP.Chemscore.Hbond>
2.0000

> <Gold.PLP.Chemscore.CHOScore>
0.0000

> <Gold.PLP.Chemscore.Metal>
0.0000

> <Gold.Chemscore.Hbonds>
donor molecule, donor type, donor heavy atom, donor atom, acceptor molecule, acceptor atom, score
      L1  H     8    20       P1  8028  1.00
      P1  H  7997  8010       L1     3  0.88

> <Gold.PLP.Chemscore.Internal.Correction>
0.0009

> <Gold.Rescore>
     Score         DG    S(hbond)    S(metal)    S(lipo)     H(rot)  DE(clash)    DE(int)     intcor
     11.75     -12.10       1.09        0.00      47.28       1.00       0.00       0.35       ----

> <Gold.Chemscore.Fitness>
11.7517

> <Gold.Chemscore.DG>
-12.0982

> <Gold.Chemscore.ZeroCoef>
-5.4800

> <Gold.Chemscore.Hbond>
1.0918

> <Gold.Chemscore.Metal>
0.0000

> <Gold.Chemscore.Lipo>
47.2784

> <Gold.Chemscore.Internal_Hbond>
0.0000

> <Gold.Chemscore.DEClash>
0.0000

> <Gold.Chemscore.DEInternal>
0.3466

> <Gold.Chemscore.Rot>
1.0000

> <Gold.Chemscore.Internal.Correction>
   9.000000E+99

> <Gold.Chemscore.Hbonds>
donor molecule, donor type, donor heavy atom, donor atom, acceptor molecule, acceptor atom, score
      L1  H     8    20       P1  8028  0.25
      P1  H  7997  8010       L1     3  0.11

> <Gold.Chemscore.Hbond.Weighted>
-3.6467

> <Gold.Chemscore.Metal.Weighted>
-0.0000

> <Gold.Chemscore.Lipo.Weighted>
-5.5316

> <Gold.Chemscore.Internal_Hbond.Weighted>
0.0000

> <Gold.Chemscore.DEClash.Weighted>
0.0000

> <Gold.Chemscore.DEInternal.Weighted>
0.3466

> <Gold.Chemscore.Rot.Weighted>
2.5600

> <Gold.Chemscore.Internal.Correction.Weighted>
   9.000000E+99

> <Gold.Protein.RotatedTorsions>
[ 6907 6896 6895 6894 ] final  143.13 input  -60.11 | X-H torsion
[ 7974 7965 7964 7962 ] final  -31.82 input  175.53 | X-H torsion
[ 8008 7997 7996 7995 ] final   13.12 input   59.86 | X-H torsion
[ 10167 10162 10161 10158 ] final -119.84 input  -65.29 | X-H torsion
[ 10718 10713 10712 10709 ] final   91.68 input   66.30 | X-H torsion
[ 10763 10752 10751 10750 ] final   99.63 input  -60.55 | X-H torsion
[ 11005 11000 10999 10996 ] final -131.66 input  -57.11 | X-H torsion

> <Gold.Protein.ActiveResidues>
 VAL166  LYS551  ARG553  GLY616  TRP617  ASP618  TYR619  PRO620  LYS621  CYS622 
 ASP623  PHE694  ASN695  SER759  ASP760  ASP761  ALA762  ILE779  LEU786  VAL792 
 PHE793  MET794  SER795  GLU796  ALA797  LYS798  CYS799  TRP800  GLU811  SER814 

> <Gold.Protein.RotatedAtoms>
  152.2102  133.4905  159.5105 H   0  0  0  0  0  0  0  0  0  0  0  0  # atno 6907 bound_to 6896
  150.6988  134.1477  159.4138 H   0  0  0  0  0  0  0  0  0  0  0  0  # atno 6908 bound_to 6896
  151.9397  135.0219  160.0585 H   0  0  0  0  0  0  0  0  0  0  0  0  # atno 6909 bound_to 6896
  146.1038  140.5715  142.8809 H   0  0  0  0  0  0  0  0  0  0  0  0  # atno 7974 bound_to 7965
  154.8300  140.2898  155.5728 H   0  0  0  0  0  0  0  0  0  0  0  0  # atno 8008 bound_to 7997
  156.3004  140.2534  156.3154 H   0  0  0  0  0  0  0  0  0  0  0  0  # atno 8009 bound_to 7997
  154.9242  140.0385  157.2003 H   0  0  0  0  0  0  0  0  0  0  0  0  # atno 8010 bound_to 7997
  140.0423  143.5141  152.2124 H   0  0  0  0  0  0  0  0  0  0  0  0  # atno 10167 bound_to 10162
  157.6960  131.0416  150.3766 H   0  0  0  0  0  0  0  0  0  0  0  0  # atno 10718 bound_to 10713
  153.3038  135.4107  155.1276 H   0  0  0  0  0  0  0  0  0  0  0  0  # atno 10763 bound_to 10752
  154.8557  135.3548  154.5815 H   0  0  0  0  0  0  0  0  0  0  0  0  # atno 10764 bound_to 10752
  153.6242  135.7063  153.5358 H   0  0  0  0  0  0  0  0  0  0  0  0  # atno 10765 bound_to 10752
  140.9239  134.1408  157.4291 H   0  0  0  0  0  0  0  0  0  0  0  0  # atno 11005 bound_to 11000
  144.7454  140.5054  143.6839 LP  0  0  0  0  0  0  0  0  0  0  0  0  # atno 17320 bound_to 7965
  145.5802  139.1488  143.3240 LP  0  0  0  0  0  0  0  0  0  0  0  0  # atno 17321 bound_to 7965
  139.6006  144.7581  151.3181 LP  0  0  0  0  0  0  0  0  0  0  0  0  # atno 17342 bound_to 10162
  140.7254  143.7017  150.7839 LP  0  0  0  0  0  0  0  0  0  0  0  0  # atno 17343 bound_to 10162
  156.4185  130.3948  149.6841 LP  0  0  0  0  0  0  0  0  0  0  0  0  # atno 17370 bound_to 10713
  156.4101  130.7717  151.2730 LP  0  0  0  0  0  0  0  0  0  0  0  0  # atno 17371 bound_to 10713
  139.8781  134.9981  156.5884 LP  0  0  0  0  0  0  0  0  0  0  0  0  # atno 17394 bound_to 11000
  140.7951  133.8550  155.8679 LP  0  0  0  0  0  0  0  0  0  0  0  0  # atno 17395 bound_to 11000

$$$$
