AV-unprocessed.smi:2834|AV-procd|sdf|10917|dock3
  -GOLD-   2272015363D 1   1.00000     0.00000
 Structure written by MMmdl.
 35 36  0  0  0  0  0  0  0  0  1 V2000
  149.7030  138.0210  156.7342 C   0  0  0  0  0  0  0  0  0  0  0  0
  150.3841  137.8342  155.3609 C   0  0  2  0  0  0  0  0  0  0  0  0
  149.8572  136.6421  154.6863 N   0  0  0  0  0  0  0  0  0  0  0  0
  149.9111  135.3720  155.1198 C   0  0  0  0  0  0  0  0  0  0  0  0
  150.4152  135.0328  156.1904 O   0  0  0  0  0  0  0  0  0  0  0  0
  149.3453  134.5338  154.2360 N   0  0  0  0  0  0  0  0  0  0  0  0
  149.2406  133.1233  154.3336 C   0  0  0  0  0  0  0  0  0  0  0  0
  149.7035  132.3510  155.4304 C   0  0  0  0  0  0  0  0  0  0  0  0
  149.4635  131.0619  155.2439 N   0  0  0  0  0  0  0  0  0  0  0  0
  148.8491  130.9894  154.0370 N   0  0  0  0  0  0  0  0  0  0  0  0
  148.4337  129.6989  153.5180 C   0  0  0  0  0  0  0  0  0  0  0  0
  148.7608  128.5470  154.4825 C   0  0  0  0  0  0  0  0  0  0  0  0
  148.3462  127.3985  153.9486 F   0  0  0  0  0  0  0  0  0  0  0  0
  150.0747  128.4689  154.6935 F   0  0  0  0  0  0  0  0  0  0  0  0
  148.1382  128.7240  155.6480 F   0  0  0  0  0  0  0  0  0  0  0  0
  148.6980  132.2312  153.4527 C   0  0  0  0  0  0  0  0  0  0  0  0
  151.9045  137.6929  155.5270 C   0  0  0  0  0  0  0  0  0  0  0  0
  152.4954  138.7773  154.6305 C   0  0  0  0  0  0  0  0  0  0  0  0
  151.4919  139.7747  154.6312 O   0  0  0  0  0  0  0  0  0  0  0  0
  150.2570  139.0957  154.4790 C   0  0  0  0  0  0  0  0  0  0  0  0
  150.1144  138.8809  157.2640 H   0  0  0  0  0  0  0  0  0  0  0  0
  149.8441  137.1444  157.3670 H   0  0  0  0  0  0  0  0  0  0  0  0
  148.6303  138.1890  156.6379 H   0  0  0  0  0  0  0  0  0  0  0  0
  149.4151  136.8039  153.7935 H   0  0  0  0  0  0  0  0  0  0  0  0
  148.9614  134.9462  153.3985 H   0  0  0  0  0  0  0  0  0  0  0  0
  150.1932  132.6748  156.3371 H   0  0  0  0  0  0  0  0  0  0  0  0
  147.3604  129.7363  153.3276 H   0  0  0  0  0  0  0  0  0  0  0  0
  148.9164  129.5340  152.5534 H   0  0  0  0  0  0  0  0  0  0  0  0
  148.2261  132.3573  152.4894 H   0  0  0  0  0  0  0  0  0  0  0  0
  152.2006  137.8837  156.5595 H   0  0  0  0  0  0  0  0  0  0  0  0
  152.2863  136.7049  155.2651 H   0  0  0  0  0  0  0  0  0  0  0  0
  153.4465  139.1599  155.0018 H   0  0  0  0  0  0  0  0  0  0  0  0
  152.6443  138.4065  153.6148 H   0  0  0  0  0  0  0  0  0  0  0  0
  150.1379  138.8416  153.4240 H   0  0  0  0  0  0  0  0  0  0  0  0
  149.4187  139.7334  154.7618 H   0  0  0  0  0  0  0  0  0  0  0  0
  1  2  1  0  0  0  0
  1 21  1  0  0  0  0
  1 22  1  0  0  0  0
  1 23  1  0  0  0  0
  2 20  1  0  0  0  0
  2  3  1  0  0  0  0
  2 17  1  0  0  0  0
  3  4  1  0  0  0  0
  3 24  1  0  0  0  0
  4  5  2  0  0  0  0
  4  6  1  0  0  0  0
  6  7  1  0  0  0  0
  6 25  1  0  0  0  0
  7 16  2  0  0  0  0
  7  8  1  0  0  0  0
  8  9  2  0  0  0  0
  8 26  1  0  0  0  0
  9 10  1  0  0  0  0
 10 11  1  0  0  0  0
 10 16  1  0  0  0  0
 11 12  1  0  0  0  0
 11 27  1  0  0  0  0
 11 28  1  0  0  0  0
 12 13  1  0  0  0  0
 12 14  1  0  0  0  0
 12 15  1  0  0  0  0
 16 29  1  0  0  0  0
 17 18  1  0  0  0  0
 17 30  1  0  0  0  0
 17 31  1  0  0  0  0
 18 19  1  0  0  0  0
 18 32  1  0  0  0  0
 18 33  1  0  0  0  0
 19 20  1  0  0  0  0
 20 34  1  0  0  0  0
 20 35  1  0  0  0  0
M  END
> <s_m_source_file>
AV-unprocessed.smi

> <i_m_source_file_index>
2834

> <i_lp_mmshare_version>
43012

> <i_f3d_flags>
0

> <s_epik_input>
W0NIMl0xT1tDSDJdW0NIMl1bQ0BAXTEoW0NIM10pW05IXUMoPU8pW05IXWMyW2NIXW5uKFtjSF0yKVtDSDJdQyhGKShGKUY=

> <s_epik_cmdline>
J2VwaWtfcHl0aG9uJywgJy1waCcsICc3LjAnLCAnLXRuJywgJzgnLCAnLW1hJywgJzIwMCcsICctbWV0YWxfYmluZGluZycsICctaW1hZScsICc8aW5maWxlLm1hZT4nLCAnLW9tYWUnLCAnPG91dGZpbGUubWFlPic=

> <r_lp_tautomer_probability>
1

> <r_epik_Ionization_Penalty>
3.3002e-05

> <r_epik_Ionization_Penalty_Charging>
0

> <r_epik_Ionization_Penalty_Neutral>
3.3002e-05

> <r_epik_State_Penalty>
-0

> <r_epik_Charging_Adjusted_Penalty>
0

> <i_epik_Tot_Q>
0

> <i_epik_Tot_abs_Q>
0

> <r_epik_Metal_State_Penalty>
-0

> <b_epik_Metal_Only>
0

> <s_lp_Force_Field>
OPLS_2005

> <r_lp_Energy>
22.3443

> <b_lp_Chiralities_Consistent>
1

> <s_lp_Variant>
AV-unprocessed.smi:2834-2

> <Gold.Version>
5.8.1

> <Gold.Id.Protein>
6NUR|6NUR_protein|mol2

> <Gold.PLP.Fitness>
42.1767

> <Gold.PLP.PLP>
-30.9397

> <Gold.PLP.part.hbond>
-3.0000

> <Gold.PLP.part.metal>
0.0000

> <Gold.PLP.part.buried>
-2.6724

> <Gold.PLP.part.nonpolar>
-23.4711

> <Gold.PLP.part.repulsive>
0.1712

> <Gold.PLP.ligand.clash>
0.0000

> <Gold.PLP.ligand.torsion>
0.0193

> <Gold.PLP.Chemscore.Hbond>
2.9000

> <Gold.PLP.Chemscore.CHOScore>
0.8473

> <Gold.PLP.Chemscore.Metal>
0.0000

> <Gold.Chemscore.Hbonds>
donor molecule, donor type, donor heavy atom, donor atom, acceptor molecule, acceptor atom, score
      L1  H     3    24       P1  7948  0.98
      L1  H     6    25       P1  7948  1.00
      P1  H  7989  7998       L1    19  1.00
      L1  C    16    29       P1 10747  0.34

> <Gold.PLP.Chemscore.Internal.Correction>
0.0337

> <Gold.Rescore>
     Score         DG    S(hbond)    S(metal)    S(lipo)     H(rot)  DE(clash)    DE(int)     intcor
     10.92     -15.26       2.05        0.00      54.48       1.34       0.02       4.31       ----

> <Gold.Chemscore.Fitness>
10.9235

> <Gold.Chemscore.DG>
-15.2585

> <Gold.Chemscore.ZeroCoef>
-5.4800

> <Gold.Chemscore.Hbond>
2.0475

> <Gold.Chemscore.Metal>
0.0000

> <Gold.Chemscore.Lipo>
54.4819

> <Gold.Chemscore.Internal_Hbond>
0.0000

> <Gold.Chemscore.DEClash>
0.0202

> <Gold.Chemscore.DEInternal>
4.3147

> <Gold.Chemscore.Rot>
1.3417

> <Gold.Chemscore.Internal.Correction>
   9.000000E+99

> <Gold.Chemscore.Hbonds>
donor molecule, donor type, donor heavy atom, donor atom, acceptor molecule, acceptor atom, score
      L1  H     3    24       P1  7948  0.81
      L1  H     6    25       P1  7948  0.29
      P1  H  7989  7998       L1    19  0.64

> <Gold.Chemscore.Hbond.Weighted>
-6.8388

> <Gold.Chemscore.Metal.Weighted>
-0.0000

> <Gold.Chemscore.Lipo.Weighted>
-6.3744

> <Gold.Chemscore.Internal_Hbond.Weighted>
0.0000

> <Gold.Chemscore.DEClash.Weighted>
0.0202

> <Gold.Chemscore.DEInternal.Weighted>
4.3147

> <Gold.Chemscore.Rot.Weighted>
3.4347

> <Gold.Chemscore.Internal.Correction.Weighted>
   9.000000E+99

> <Gold.Protein.RotatedTorsions>
[ 6907 6896 6895 6894 ] final  142.35 input  -60.11 | X-H torsion
[ 7974 7965 7964 7962 ] final  159.27 input  175.53 | X-H torsion
[ 8008 7997 7996 7995 ] final -179.12 input   59.86 | X-H torsion
[ 10167 10162 10161 10158 ] final  -56.72 input  -65.29 | X-H torsion
[ 10718 10713 10712 10709 ] final  124.68 input   66.30 | X-H torsion
[ 10763 10752 10751 10750 ] final  -23.93 input  -60.55 | X-H torsion
[ 11005 11000 10999 10996 ] final  -93.72 input  -57.11 | X-H torsion

> <Gold.Protein.ActiveResidues>
 VAL166  LYS551  ARG553  GLY616  TRP617  ASP618  TYR619  PRO620  LYS621  CYS622 
 ASP623  PHE694  ASN695  SER759  ASP760  ASP761  ALA762  ILE779  LEU786  VAL792 
 PHE793  MET794  SER795  GLU796  ALA797  LYS798  CYS799  TRP800  GLU811  SER814 

> <Gold.Protein.RotatedAtoms>
  152.2198  133.4974  159.5155 H   0  0  0  0  0  0  0  0  0  0  0  0  # atno 6907 bound_to 6896
  150.7010  134.1358  159.4095 H   0  0  0  0  0  0  0  0  0  0  0  0  # atno 6908 bound_to 6896
  151.9278  135.0270  160.0577 H   0  0  0  0  0  0  0  0  0  0  0  0  # atno 6909 bound_to 6896
  144.7800  139.7593  143.6263 H   0  0  0  0  0  0  0  0  0  0  0  0  # atno 7974 bound_to 7965
  156.0268  140.1273  157.0300 H   0  0  0  0  0  0  0  0  0  0  0  0  # atno 8008 bound_to 7997
  154.4333  140.1057  156.6113 H   0  0  0  0  0  0  0  0  0  0  0  0  # atno 8009 bound_to 7997
  155.5865  140.3469  155.4556 H   0  0  0  0  0  0  0  0  0  0  0  0  # atno 8010 bound_to 7997
  140.6301  143.2455  151.5264 H   0  0  0  0  0  0  0  0  0  0  0  0  # atno 10167 bound_to 10162
  157.5565  131.1092  150.8612 H   0  0  0  0  0  0  0  0  0  0  0  0  # atno 10718 bound_to 10713
  153.6757  135.6969  153.5133 H   0  0  0  0  0  0  0  0  0  0  0  0  # atno 10763 bound_to 10752
  153.2523  135.4271  155.0809 H   0  0  0  0  0  0  0  0  0  0  0  0  # atno 10764 bound_to 10752
  154.8414  135.3534  154.6301 H   0  0  0  0  0  0  0  0  0  0  0  0  # atno 10765 bound_to 10752
  141.1489  133.7907  157.0199 H   0  0  0  0  0  0  0  0  0  0  0  0  # atno 11005 bound_to 11000
  146.2002  139.5292  142.9748 LP  0  0  0  0  0  0  0  0  0  0  0  0  # atno 17320 bound_to 7965
  145.6078  141.0344  143.1983 LP  0  0  0  0  0  0  0  0  0  0  0  0  # atno 17321 bound_to 7965
  139.5516  144.2381  152.1540 LP  0  0  0  0  0  0  0  0  0  0  0  0  # atno 17342 bound_to 10162
  140.1623  144.5014  150.6626 LP  0  0  0  0  0  0  0  0  0  0  0  0  # atno 17343 bound_to 10162
  156.9122  130.5285  149.5280 LP  0  0  0  0  0  0  0  0  0  0  0  0  # atno 17370 bound_to 10713
  156.0623  130.5673  150.9218 LP  0  0  0  0  0  0  0  0  0  0  0  0  # atno 17371 bound_to 10713
  140.0822  134.9641  157.1643 LP  0  0  0  0  0  0  0  0  0  0  0  0  # atno 17394 bound_to 11000
  140.3560  134.2546  155.7192 LP  0  0  0  0  0  0  0  0  0  0  0  0  # atno 17395 bound_to 11000

$$$$
