AV-unprocessed.smi:1718|AV-procd|sdf|6924|dock8
  -GOLD-   22720 8133D 1   1.00000     0.00000
 Structure written by MMmdl.
 40 41  0  0  0  0  0  0  0  0  1 V2000
  150.3001  139.0869  154.0905 C   0  0  0  0  0  0  0  0  0  0  0  0
  151.2313  138.0778  154.7790 C   0  0  2  0  0  0  0  0  0  0  0  0
  150.4110  137.0905  155.3951 O   0  0  0  0  0  0  0  0  0  0  0  0
  151.1087  136.0454  156.0651 C   0  0  0  0  0  0  0  0  0  0  0  0
  150.1732  134.8414  156.2385 C   0  0  1  0  0  0  0  0  0  0  0  0
  149.9980  133.9865  154.9739 C   0  0  0  0  0  0  0  0  0  0  0  0
  150.6389  132.6641  155.3480 C   0  0  0  0  0  0  0  0  0  0  0  0
  150.4514  132.6317  156.8584 C   0  0  0  0  0  0  0  0  0  0  0  0
  150.6917  133.9755  157.2450 O   0  0  0  0  0  0  0  0  0  0  0  0
  152.1197  138.7599  155.8321 C   0  0  0  0  0  0  0  0  0  0  0  0
  153.3439  138.7026  155.7186 O   0  0  0  0  0  0  0  0  0  0  0  0
  151.4591  139.3847  156.8273 N   0  0  0  0  0  0  0  0  0  0  0  0
  151.9618  140.1200  157.9143 C   0  0  0  0  0  0  0  0  0  0  0  0
  151.6667  141.4197  158.1806 C   0  0  0  0  0  0  0  0  0  0  0  0
  152.2182  142.1166  159.3306 C   0  0  0  0  0  0  0  0  0  0  0  0
  151.9500  143.5948  159.5691 C   0  0  0  0  0  0  0  0  0  0  0  0
  152.6698  144.3567  158.7443 F   0  0  0  0  0  0  0  0  0  0  0  0
  150.6611  143.8821  159.3867 F   0  0  0  0  0  0  0  0  0  0  0  0
  152.2737  143.9172  160.8205 F   0  0  0  0  0  0  0  0  0  0  0  0
  153.0455  141.4085  160.1214 C   0  0  0  0  0  0  0  0  0  0  0  0
  153.3346  140.0657  159.8689 N   0  0  0  0  0  0  0  0  0  0  0  0
  152.8483  139.3681  158.8180 C   0  0  0  0  0  0  0  0  0  0  0  0
  153.1515  138.1855  158.6643 O   0  0  0  0  0  0  0  0  0  0  0  0
  153.9505  139.5988  160.5190 H   0  0  0  0  0  0  0  0  0  0  0  0
  150.8667  139.8836  153.6071 H   0  0  0  0  0  0  0  0  0  0  0  0
  149.6102  139.5474  154.7989 H   0  0  0  0  0  0  0  0  0  0  0  0
  149.7016  138.5963  153.3227 H   0  0  0  0  0  0  0  0  0  0  0  0
  151.8519  137.6089  154.0126 H   0  0  0  0  0  0  0  0  0  0  0  0
  151.9907  135.7541  155.4930 H   0  0  0  0  0  0  0  0  0  0  0  0
  151.4514  136.3745  157.0465 H   0  0  0  0  0  0  0  0  0  0  0  0
  149.1953  135.1929  156.5700 H   0  0  0  0  0  0  0  0  0  0  0  0
  148.9365  133.8411  154.7699 H   0  0  0  0  0  0  0  0  0  0  0  0
  150.4486  134.4283  154.0845 H   0  0  0  0  0  0  0  0  0  0  0  0
  150.1873  131.8105  154.8418 H   0  0  0  0  0  0  0  0  0  0  0  0
  151.7025  132.6836  155.1063 H   0  0  0  0  0  0  0  0  0  0  0  0
  149.4285  132.3547  157.1178 H   0  0  0  0  0  0  0  0  0  0  0  0
  151.1338  131.9413  157.3544 H   0  0  0  0  0  0  0  0  0  0  0  0
  150.4531  139.2946  156.8148 H   0  0  0  0  0  0  0  0  0  0  0  0
  150.9923  141.9783  157.5533 H   0  0  0  0  0  0  0  0  0  0  0  0
  153.5474  141.8085  160.9900 H   0  0  0  0  0  0  0  0  0  0  0  0
  1  2  1  0  0  0  0
  1 25  1  0  0  0  0
  1 26  1  0  0  0  0
  1 27  1  0  0  0  0
  2  3  1  0  0  0  0
  2 10  1  0  0  0  0
  2 28  1  0  0  0  0
  3  4  1  0  0  0  0
  4  5  1  0  0  0  0
  4 29  1  0  0  0  0
  4 30  1  0  0  0  0
  5  9  1  0  0  0  0
  5  6  1  0  0  0  0
  5 31  1  0  0  0  0
  6  7  1  0  0  0  0
  6 32  1  0  0  0  0
  6 33  1  0  0  0  0
  7  8  1  0  0  0  0
  7 34  1  0  0  0  0
  7 35  1  0  0  0  0
  8  9  1  0  0  0  0
  8 36  1  0  0  0  0
  8 37  1  0  0  0  0
 10 11  2  0  0  0  0
 10 12  1  0  0  0  0
 12 13  1  0  0  0  0
 12 38  1  0  0  0  0
 13 22  1  0  0  0  0
 13 14  2  0  0  0  0
 14 15  1  0  0  0  0
 14 39  1  0  0  0  0
 15 16  1  0  0  0  0
 15 20  2  0  0  0  0
 16 17  1  0  0  0  0
 16 18  1  0  0  0  0
 16 19  1  0  0  0  0
 20 21  1  0  0  0  0
 20 40  1  0  0  0  0
 21 24  1  0  0  0  0
 21 22  1  0  0  0  0
 22 23  2  0  0  0  0
M  END
> <s_m_source_file>
AV-unprocessed.smi

> <i_m_source_file_index>
1718

> <i_lp_mmshare_version>
43012

> <i_f3d_flags>
0

> <s_epik_input>
TzFbQ0gyXVtDSDJdW0NIMl1bQ0BIXTFbQ0gyXU9bQ0BASF0oW0NIM10pQyg9TylbTkhdYzJbY0hdYyhDKEYpKEYpRilbY0hdW25IXWMyPU8=

> <s_epik_cmdline>
J2VwaWtfcHl0aG9uJywgJy1waCcsICc3LjAnLCAnLXRuJywgJzgnLCAnLW1hJywgJzIwMCcsICctbWV0YWxfYmluZGluZycsICctaW1hZScsICc8aW5maWxlLm1hZT4nLCAnLW9tYWUnLCAnPG91dGZpbGUubWFlPic=

> <r_lp_tautomer_probability>
0.999

> <r_epik_Ionization_Penalty>
0.00894336

> <r_epik_Ionization_Penalty_Charging>
0.00894326

> <r_epik_Ionization_Penalty_Neutral>
1.00145e-07

> <r_epik_State_Penalty>
0.00676626

> <r_epik_Charging_Adjusted_Penalty>
0.0157095

> <i_epik_Tot_Q>
0

> <i_epik_Tot_abs_Q>
0

> <r_epik_Metal_State_Penalty>
0.321145

> <b_epik_Metal_Only>
0

> <s_lp_Force_Field>
OPLS_2005

> <r_lp_Energy>
34.3894

> <b_lp_Chiralities_Consistent>
1

> <s_lp_Variant>
AV-unprocessed.smi:1718-3

> <Gold.Version>
5.8.1

> <Gold.Id.Protein>
6NUR|6NUR_protein|mol2

> <Gold.PLP.Fitness>
44.0723

> <Gold.PLP.PLP>
-43.8097

> <Gold.PLP.part.hbond>
-2.0000

> <Gold.PLP.part.metal>
0.0000

> <Gold.PLP.part.buried>
-5.9542

> <Gold.PLP.part.nonpolar>
-37.0595

> <Gold.PLP.part.repulsive>
0.2624

> <Gold.PLP.ligand.clash>
1.2204

> <Gold.PLP.ligand.torsion>
1.4948

> <Gold.PLP.Chemscore.Hbond>
1.4720

> <Gold.PLP.Chemscore.CHOScore>
0.0000

> <Gold.PLP.Chemscore.Metal>
0.0000

> <Gold.Chemscore.Hbonds>
donor molecule, donor type, donor heavy atom, donor atom, acceptor molecule, acceptor atom, score
      P1  H  6896  6909       L1     9  0.64
      P1  H  7997  8010       L1    11  0.82

> <Gold.PLP.Chemscore.Internal.Correction>
0.0567

> <Gold.Rescore>
     Score         DG    S(hbond)    S(metal)    S(lipo)     H(rot)  DE(clash)    DE(int)     intcor
     13.81     -15.12       1.62        0.00      77.32       1.88       0.25       1.06       ----

> <Gold.Chemscore.Fitness>
13.8087

> <Gold.Chemscore.DG>
-15.1209

> <Gold.Chemscore.ZeroCoef>
-5.4800

> <Gold.Chemscore.Hbond>
1.6182

> <Gold.Chemscore.Metal>
0.0000

> <Gold.Chemscore.Lipo>
77.3175

> <Gold.Chemscore.Internal_Hbond>
0.0000

> <Gold.Chemscore.DEClash>
0.2535

> <Gold.Chemscore.DEInternal>
1.0587

> <Gold.Chemscore.Rot>
1.8790

> <Gold.Chemscore.Internal.Correction>
   9.000000E+99

> <Gold.Chemscore.Hbonds>
donor molecule, donor type, donor heavy atom, donor atom, acceptor molecule, acceptor atom, score
      P1  H  6896  6909       L1     9  0.18
      P1  H  7997  8010       L1    11  0.77

> <Gold.Chemscore.Hbond.Weighted>
-5.4049

> <Gold.Chemscore.Metal.Weighted>
-0.0000

> <Gold.Chemscore.Lipo.Weighted>
-9.0461

> <Gold.Chemscore.Internal_Hbond.Weighted>
0.0000

> <Gold.Chemscore.DEClash.Weighted>
0.2535

> <Gold.Chemscore.DEInternal.Weighted>
1.0587

> <Gold.Chemscore.Rot.Weighted>
4.8102

> <Gold.Chemscore.Internal.Correction.Weighted>
   9.000000E+99

> <Gold.Protein.RotatedTorsions>
[ 6907 6896 6895 6894 ] final   -3.27 input  -60.11 | X-H torsion
[ 7974 7965 7964 7962 ] final   48.60 input  175.53 | X-H torsion
[ 8008 7997 7996 7995 ] final   68.72 input   59.86 | X-H torsion
[ 10167 10162 10161 10158 ] final   14.51 input  -65.29 | X-H torsion
[ 10718 10713 10712 10709 ] final  -31.11 input   66.30 | X-H torsion
[ 10763 10752 10751 10750 ] final    7.77 input  -60.55 | X-H torsion
[ 11005 11000 10999 10996 ] final  101.77 input  -57.11 | X-H torsion

> <Gold.Protein.ActiveResidues>
 VAL166  LYS551  ARG553  GLY616  TRP617  ASP618  TYR619  PRO620  LYS621  CYS622 
 ASP623  PHE694  ASN695  SER759  ASP760  ASP761  ALA762  ILE779  LEU786  VAL792 
 PHE793  MET794  SER795  GLU796  ALA797  LYS798  CYS799  TRP800  GLU811  SER814 

> <Gold.Protein.RotatedAtoms>
  151.5164  135.1066  159.9866 H   0  0  0  0  0  0  0  0  0  0  0  0  # atno 6907 bound_to 6896
  152.4639  133.7878  159.6896 H   0  0  0  0  0  0  0  0  0  0  0  0  # atno 6908 bound_to 6896
  150.8614  133.7574  159.3016 H   0  0  0  0  0  0  0  0  0  0  0  0  # atno 6909 bound_to 6896
  146.0188  139.4627  142.9910 H   0  0  0  0  0  0  0  0  0  0  0  0  # atno 7974 bound_to 7965
  155.7127  140.3494  155.4981 H   0  0  0  0  0  0  0  0  0  0  0  0  # atno 8008 bound_to 7997
  155.9341  140.1089  157.1130 H   0  0  0  0  0  0  0  0  0  0  0  0  # atno 8009 bound_to 7997
  154.4090  140.1225  156.4828 H   0  0  0  0  0  0  0  0  0  0  0  0  # atno 8010 bound_to 7997
  140.5930  143.8757  150.6892 H   0  0  0  0  0  0  0  0  0  0  0  0  # atno 10167 bound_to 10162
  156.3914  130.4373  149.7392 H   0  0  0  0  0  0  0  0  0  0  0  0  # atno 10718 bound_to 10713
  153.2325  135.6894  153.7873 H   0  0  0  0  0  0  0  0  0  0  0  0  # atno 10763 bound_to 10752
  153.7032  135.3294  155.3230 H   0  0  0  0  0  0  0  0  0  0  0  0  # atno 10764 bound_to 10752
  154.8320  135.4573  154.1216 H   0  0  0  0  0  0  0  0  0  0  0  0  # atno 10765 bound_to 10752
  139.8774  134.9197  156.4957 H   0  0  0  0  0  0  0  0  0  0  0  0  # atno 11005 bound_to 11000
  145.7225  141.0070  143.1395 LP  0  0  0  0  0  0  0  0  0  0  0  0  # atno 17320 bound_to 7965
  144.6982  139.8888  143.7452 LP  0  0  0  0  0  0  0  0  0  0  0  0  # atno 17321 bound_to 7965
  140.2284  143.3754  152.1586 LP  0  0  0  0  0  0  0  0  0  0  0  0  # atno 17342 bound_to 10162
  139.5240  144.7078  151.5299 LP  0  0  0  0  0  0  0  0  0  0  0  0  # atno 17343 bound_to 10162
  156.4443  130.7876  151.2897 LP  0  0  0  0  0  0  0  0  0  0  0  0  # atno 17370 bound_to 10713
  157.7499  131.0115  150.3347 LP  0  0  0  0  0  0  0  0  0  0  0  0  # atno 17371 bound_to 10713
  140.8626  133.8048  155.9281 LP  0  0  0  0  0  0  0  0  0  0  0  0  # atno 17394 bound_to 11000
  140.9034  134.2351  157.5029 LP  0  0  0  0  0  0  0  0  0  0  0  0  # atno 17395 bound_to 11000

$$$$
