AV-unprocessed.smi:276|AV-procd|sdf|2085|dock7
  -GOLD-   2262021363D 1   1.00000     0.00000
 Structure written by MMmdl.
 57 61  0  0  0  0  0  0  0  0  1 V2000
  143.2366  132.7241  148.6955 C   0  0  0  0  0  0  0  0  0  0  0  0
  143.4525  133.4705  149.8798 O   0  0  0  0  0  0  0  0  0  0  0  0
  144.3707  132.8432  150.7609 C   0  0  1  0  0  0  0  0  0  0  0  0
  145.7315  132.5157  150.1345 C   0  0  0  0  0  0  0  0  0  0  0  0
  146.4007  132.9949  151.4379 C   0  0  2  0  0  0  0  0  0  0  0  0
  146.6337  131.8802  152.3671 N   0  0  0  0  0  0  0  0  0  0  0  0
  146.3890  130.5411  151.8400 C   0  0  0  0  0  0  0  0  0  0  0  0
  147.8042  131.9035  153.0432 C   0  0  0  0  0  0  0  0  0  0  0  0
  148.5932  130.8048  152.9419 N   0  0  0  0  0  0  0  0  0  0  0  0
  149.7599  130.7567  153.5918 C   0  0  0  0  0  0  0  0  0  0  0  0
  150.3178  131.6811  154.3764 N   0  0  0  0  0  0  0  0  0  0  0  0
  149.5332  132.7927  154.4669 C   0  0  0  0  0  0  0  0  0  0  0  0
  148.2737  132.9916  153.8345 C   0  0  0  0  0  0  0  0  0  0  0  0
  147.7798  134.2512  154.1545 N   0  0  0  0  0  0  0  0  0  0  0  0
  148.6900  134.7628  154.9376 C   0  0  0  0  0  0  0  0  0  0  0  0
  149.7764  133.9534  155.1780 N   0  0  0  0  0  0  0  0  0  0  0  0
  150.9305  134.2619  156.0028 C   0  0  0  0  0  0  0  0  0  0  0  0
  150.7180  135.5256  156.8579 C   0  0  1  0  0  0  0  0  0  0  0  0
  151.7449  135.6520  157.8234 O   0  0  0  0  0  0  0  0  0  0  0  0
  150.6112  136.8082  156.0088 C   0  0  1  0  0  0  0  0  0  0  0  0
  150.4006  138.1180  156.7724 C   0  0  0  0  0  0  0  0  0  0  0  0
  150.9016  139.1277  155.7641 C   0  0  0  0  0  0  0  0  0  0  0  0
  152.0907  138.3932  155.1487 C   0  0  0  0  0  0  0  0  0  0  0  0
  151.7635  137.0065  155.1932 O   0  0  0  0  0  0  0  0  0  0  0  0
  145.1108  133.8217  151.6908 C   0  0  0  0  0  0  0  0  0  0  0  0
  145.1069  135.3293  151.3776 C   0  0  0  0  0  0  0  0  0  0  0  0
  144.0185  135.4915  152.4421 C   0  0  0  0  0  0  0  0  0  0  0  0
  144.5338  134.1942  153.0702 C   0  0  0  0  0  0  0  0  0  0  0  0
  142.5220  133.2463  148.0594 H   0  0  0  0  0  0  0  0  0  0  0  0
  142.8290  131.7380  148.9213 H   0  0  0  0  0  0  0  0  0  0  0  0
  144.1609  132.5999  148.1301 H   0  0  0  0  0  0  0  0  0  0  0  0
  143.9433  132.0033  151.3130 H   0  0  0  0  0  0  0  0  0  0  0  0
  145.8626  131.4659  149.8740 H   0  0  0  0  0  0  0  0  0  0  0  0
  145.9678  133.1613  149.2870 H   0  0  0  0  0  0  0  0  0  0  0  0
  147.2821  133.6057  151.2431 H   0  0  0  0  0  0  0  0  0  0  0  0
  146.9059  129.7670  152.4104 H   0  0  0  0  0  0  0  0  0  0  0  0
  146.7179  130.4704  150.8026 H   0  0  0  0  0  0  0  0  0  0  0  0
  145.3246  130.3108  151.8762 H   0  0  0  0  0  0  0  0  0  0  0  0
  150.3271  129.8463  153.4662 H   0  0  0  0  0  0  0  0  0  0  0  0
  148.5954  135.7520  155.3611 H   0  0  0  0  0  0  0  0  0  0  0  0
  151.1477  133.3998  156.6349 H   0  0  0  0  0  0  0  0  0  0  0  0
  151.7916  134.3919  155.3461 H   0  0  0  0  0  0  0  0  0  0  0  0
  149.7846  135.4154  157.4114 H   0  0  0  0  0  0  0  0  0  0  0  0
  151.6575  134.9451  158.4447 H   0  0  0  0  0  0  0  0  0  0  0  0
  149.7745  136.6910  155.3178 H   0  0  0  0  0  0  0  0  0  0  0  0
  149.3616  138.2798  157.0605 H   0  0  0  0  0  0  0  0  0  0  0  0
  151.0153  138.1648  157.6717 H   0  0  0  0  0  0  0  0  0  0  0  0
  150.1387  139.3102  155.0060 H   0  0  0  0  0  0  0  0  0  0  0  0
  151.1752  140.0833  156.2119 H   0  0  0  0  0  0  0  0  0  0  0  0
  152.3012  138.7208  154.1305 H   0  0  0  0  0  0  0  0  0  0  0  0
  152.9876  138.5543  155.7481 H   0  0  0  0  0  0  0  0  0  0  0  0
  146.0414  135.8182  151.6586 H   0  0  0  0  0  0  0  0  0  0  0  0
  144.8054  135.6013  150.3659 H   0  0  0  0  0  0  0  0  0  0  0  0
  144.1199  136.3773  153.0698 H   0  0  0  0  0  0  0  0  0  0  0  0
  143.0105  135.3935  152.0354 H   0  0  0  0  0  0  0  0  0  0  0  0
  143.7576  133.5244  153.4412 H   0  0  0  0  0  0  0  0  0  0  0  0
  145.2875  134.3984  153.8302 H   0  0  0  0  0  0  0  0  0  0  0  0
  1  2  1  0  0  0  0
  1 29  1  0  0  0  0
  1 30  1  0  0  0  0
  1 31  1  0  0  0  0
  2  3  1  0  0  0  0
  3 25  1  0  0  0  0
  3  4  1  0  0  0  0
  3 32  1  0  0  0  0
  4  5  1  0  0  0  0
  4 33  1  0  0  0  0
  4 34  1  0  0  0  0
  5  6  1  0  0  0  0
  5 25  1  0  0  0  0
  5 35  1  0  0  0  0
  6  7  1  0  0  0  0
  6  8  1  0  0  0  0
  7 36  1  0  0  0  0
  7 37  1  0  0  0  0
  7 38  1  0  0  0  0
  8 13  1  0  0  0  0
  8  9  2  0  0  0  0
  9 10  1  0  0  0  0
 10 11  2  0  0  0  0
 10 39  1  0  0  0  0
 11 12  1  0  0  0  0
 12 16  1  0  0  0  0
 12 13  2  0  0  0  0
 13 14  1  0  0  0  0
 14 15  2  0  0  0  0
 15 16  1  0  0  0  0
 15 40  1  0  0  0  0
 16 17  1  0  0  0  0
 17 18  1  0  0  0  0
 17 41  1  0  0  0  0
 17 42  1  0  0  0  0
 18 19  1  0  0  0  0
 18 20  1  0  0  0  0
 18 43  1  0  0  0  0
 19 44  1  0  0  0  0
 20 24  1  0  0  0  0
 20 21  1  0  0  0  0
 20 45  1  0  0  0  0
 21 22  1  0  0  0  0
 21 46  1  0  0  0  0
 21 47  1  0  0  0  0
 22 23  1  0  0  0  0
 22 48  1  0  0  0  0
 22 49  1  0  0  0  0
 23 24  1  0  0  0  0
 23 50  1  0  0  0  0
 23 51  1  0  0  0  0
 25 28  1  0  0  0  0
 25 26  1  0  0  0  0
 26 27  1  0  0  0  0
 26 52  1  0  0  0  0
 26 53  1  0  0  0  0
 27 28  1  0  0  0  0
 27 54  1  0  0  0  0
 27 55  1  0  0  0  0
 28 56  1  0  0  0  0
 28 57  1  0  0  0  0
M  END
> <s_m_source_file>
AV-unprocessed.smi

> <i_m_source_file_index>
276

> <i_lp_mmshare_version>
43012

> <i_f3d_flags>
0

> <s_epik_input>
W0NIMl0xW0NIMl1bQ0gyXUMxMltDQEhdKE9bQ0gzXSlbQ0gyXVtDQEhdMk4oW0NIM10pYyhuW2NIXW4zKWMoYzM0KW5bY0hdbjRbQ0gyXVtDQEhdKFtPSF0pW0NAQEhdNVtDSDJdW0NIMl1bQ0gyXU81

> <s_epik_cmdline>
J2VwaWtfcHl0aG9uJywgJy1waCcsICc3LjAnLCAnLXRuJywgJzgnLCAnLW1hJywgJzIwMCcsICctbWV0YWxfYmluZGluZycsICctaW1hZScsICc8aW5maWxlLm1hZT4nLCAnLW9tYWUnLCAnPG91dGZpbGUubWFlPic=

> <r_lp_tautomer_probability>
1

> <r_epik_Ionization_Penalty>
0.00204117

> <r_epik_Ionization_Penalty_Charging>
0

> <r_epik_Ionization_Penalty_Neutral>
0.00204117

> <r_epik_State_Penalty>
0.00127401

> <r_epik_Charging_Adjusted_Penalty>
0.00127401

> <i_epik_Tot_Q>
0

> <i_epik_Tot_abs_Q>
0

> <r_epik_Metal_State_Penalty>
-0

> <b_epik_Metal_Only>
0

> <s_lp_Force_Field>
OPLS_2005

> <r_lp_Energy>
58.9981

> <b_lp_Chiralities_Consistent>
1

> <s_lp_Variant>
AV-unprocessed.smi:276-16

> <Gold.Version>
5.8.1

> <Gold.Id.Protein>
6NUR|6NUR_protein|mol2

> <Gold.PLP.Fitness>
44.3438

> <Gold.PLP.PLP>
-47.1008

> <Gold.PLP.part.hbond>
-2.0000

> <Gold.PLP.part.metal>
0.0000

> <Gold.PLP.part.buried>
-6.9163

> <Gold.PLP.part.nonpolar>
-42.4278

> <Gold.PLP.part.repulsive>
3.2688

> <Gold.PLP.ligand.clash>
2.9927

> <Gold.PLP.ligand.torsion>
1.7787

> <Gold.PLP.Chemscore.Hbond>
1.0000

> <Gold.PLP.Chemscore.CHOScore>
0.0000

> <Gold.PLP.Chemscore.Metal>
0.0000

> <Gold.Chemscore.Hbonds>
donor molecule, donor type, donor heavy atom, donor atom, acceptor molecule, acceptor atom, score
      P1  H 10752 10764       L1    24  1.00

> <Gold.PLP.Chemscore.Internal.Correction>
0.7931

> <Gold.Rescore>
     Score         DG    S(hbond)    S(metal)    S(lipo)     H(rot)  DE(clash)    DE(int)     intcor
     10.60     -12.73       0.84        0.00      97.33       2.72       0.17       1.96       ----

> <Gold.Chemscore.Fitness>
10.6043

> <Gold.Chemscore.DG>
-12.7284

> <Gold.Chemscore.ZeroCoef>
-5.4800

> <Gold.Chemscore.Hbond>
0.8434

> <Gold.Chemscore.Metal>
0.0000

> <Gold.Chemscore.Lipo>
97.3296

> <Gold.Chemscore.Internal_Hbond>
0.0000

> <Gold.Chemscore.DEClash>
0.1654

> <Gold.Chemscore.DEInternal>
1.9587

> <Gold.Chemscore.Rot>
2.7172

> <Gold.Chemscore.Internal.Correction>
   9.000000E+99

> <Gold.Chemscore.Hbonds>
donor molecule, donor type, donor heavy atom, donor atom, acceptor molecule, acceptor atom, score
      P1  H 10752 10764       L1    24  0.97

> <Gold.Chemscore.Hbond.Weighted>
-2.8168

> <Gold.Chemscore.Metal.Weighted>
-0.0000

> <Gold.Chemscore.Lipo.Weighted>
-11.3876

> <Gold.Chemscore.Internal_Hbond.Weighted>
0.0000

> <Gold.Chemscore.DEClash.Weighted>
0.1654

> <Gold.Chemscore.DEInternal.Weighted>
1.9587

> <Gold.Chemscore.Rot.Weighted>
6.9560

> <Gold.Chemscore.Internal.Correction.Weighted>
   9.000000E+99

> <Gold.Protein.RotatedTorsions>
[ 6907 6896 6895 6894 ] final  149.12 input  -60.11 | X-H torsion
[ 7974 7965 7964 7962 ] final  129.55 input  175.53 | X-H torsion
[ 8008 7997 7996 7995 ] final   92.77 input   59.86 | X-H torsion
[ 10167 10162 10161 10158 ] final  148.33 input  -65.29 | X-H torsion
[ 10718 10713 10712 10709 ] final -146.76 input   66.30 | X-H torsion
[ 10763 10752 10751 10750 ] final  -58.02 input  -60.55 | X-H torsion
[ 11005 11000 10999 10996 ] final -111.83 input  -57.11 | X-H torsion

> <Gold.Protein.ActiveResidues>
 VAL166  LYS551  ARG553  GLY616  TRP617  ASP618  TYR619  PRO620  LYS621  CYS622 
 ASP623  PHE694  ASN695  SER759  ASP760  ASP761  ALA762  ILE779  LEU786  VAL792 
 PHE793  MET794  SER795  GLU796  ALA797  LYS798  CYS799  TRP800  GLU811  SER814 

> <Gold.Protein.RotatedAtoms>
  152.1323  133.4415  159.4726 H   0  0  0  0  0  0  0  0  0  0  0  0  # atno 6907 bound_to 6896
  150.6879  134.2405  159.4480 H   0  0  0  0  0  0  0  0  0  0  0  0  # atno 6908 bound_to 6896
  152.0290  134.9778  160.0623 H   0  0  0  0  0  0  0  0  0  0  0  0  # atno 6909 bound_to 6896
  145.0275  139.4076  143.5167 H   0  0  0  0  0  0  0  0  0  0  0  0  # atno 7974 bound_to 7965
  156.0392  140.3321  155.7225 H   0  0  0  0  0  0  0  0  0  0  0  0  # atno 8008 bound_to 7997
  155.5770  140.0633  157.2810 H   0  0  0  0  0  0  0  0  0  0  0  0  # atno 8009 bound_to 7997
  154.4386  140.1850  156.0925 H   0  0  0  0  0  0  0  0  0  0  0  0  # atno 8010 bound_to 7997
  139.4876  144.5687  151.7095 H   0  0  0  0  0  0  0  0  0  0  0  0  # atno 10167 bound_to 10162
  156.3990  130.7924  151.2133 H   0  0  0  0  0  0  0  0  0  0  0  0  # atno 10718 bound_to 10713
  154.2316  135.6359  153.5177 H   0  0  0  0  0  0  0  0  0  0  0  0  # atno 10763 bound_to 10752
  152.9948  135.5521  154.6006 H   0  0  0  0  0  0  0  0  0  0  0  0  # atno 10764 bound_to 10752
  154.5490  135.2900  155.1000 H   0  0  0  0  0  0  0  0  0  0  0  0  # atno 10765 bound_to 10752
  141.0711  133.9377  157.2482 H   0  0  0  0  0  0  0  0  0  0  0  0  # atno 11005 bound_to 11000
  146.3494  139.9806  142.8696 LP  0  0  0  0  0  0  0  0  0  0  0  0  # atno 17320 bound_to 7965
  145.1815  140.9769  143.4264 LP  0  0  0  0  0  0  0  0  0  0  0  0  # atno 17321 bound_to 7965
  140.5271  144.0789  150.6041 LP  0  0  0  0  0  0  0  0  0  0  0  0  # atno 17342 bound_to 10162
  140.3767  143.2825  152.0217 LP  0  0  0  0  0  0  0  0  0  0  0  0  # atno 17343 bound_to 10162
  157.7503  131.0292  150.4084 LP  0  0  0  0  0  0  0  0  0  0  0  0  # atno 17370 bound_to 10713
  156.4360  130.3982  149.6728 LP  0  0  0  0  0  0  0  0  0  0  0  0  # atno 17371 bound_to 10713
  139.9525  135.0172  156.9034 LP  0  0  0  0  0  0  0  0  0  0  0  0  # atno 17394 bound_to 11000
  140.5671  134.0479  155.7418 LP  0  0  0  0  0  0  0  0  0  0  0  0  # atno 17395 bound_to 11000

$$$$
