AV-unprocessed.smi:3292|AV-procd|sdf|12626|dock3
  -GOLD-   2272018563D 1   1.00000     0.00000
 Structure written by MMmdl.
 38 39  0  0  0  0  0  0  0  0  1 V2000
  152.3886  144.8604  158.1483 C   0  0  0  0  0  0  0  0  0  0  0  0
  151.9987  143.3731  158.1235 C   0  0  1  0  0  0  0  0  0  0  0  0
  151.5565  142.8380  159.5034 C   0  0  0  0  0  0  0  0  0  0  0  0
  152.5524  141.9800  160.1170 N   0  0  0  0  0  0  0  0  0  0  0  0
  153.2020  142.1869  161.3267 C   0  0  0  0  0  0  0  0  0  0  0  0
  154.0574  141.1225  161.5006 C   0  0  0  0  0  0  0  0  0  0  0  0
  153.9553  140.2566  160.4143 N   0  0  0  0  0  0  0  0  0  0  0  0
  153.0481  140.8318  159.6353 C   0  0  0  0  0  0  0  0  0  0  0  0
  150.9376  143.1734  157.1403 N   0  0  0  0  0  0  0  0  0  0  0  0
  150.5090  141.9835  156.6960 C   0  0  0  0  0  0  0  0  0  0  0  0
  150.9563  140.9023  157.0792 O   0  0  0  0  0  0  0  0  0  0  0  0
  149.5376  142.1148  155.7816 N   0  0  0  0  0  0  0  0  0  0  0  0
  148.8666  141.0137  155.0976 C   0  0  0  0  0  0  0  0  0  0  0  0
  147.4426  141.3970  154.6528 C   0  0  2  0  0  0  0  0  0  0  0  0
  147.3945  142.5780  153.7052 C   0  0  0  0  0  0  0  0  0  0  0  0
  145.9350  143.0129  153.8083 C   0  0  0  0  0  0  0  0  0  0  0  0
  145.5105  142.6573  155.1214 O   0  0  0  0  0  0  0  0  0  0  0  0
  146.5200  141.8899  155.7689 C   0  0  0  0  0  0  0  0  0  0  0  0
  153.2428  145.0395  158.8015 H   0  0  0  0  0  0  0  0  0  0  0  0
  151.5639  145.4805  158.5010 H   0  0  0  0  0  0  0  0  0  0  0  0
  152.6660  145.2091  157.1530 H   0  0  0  0  0  0  0  0  0  0  0  0
  152.8780  142.8130  157.7992 H   0  0  0  0  0  0  0  0  0  0  0  0
  151.3463  143.6666  160.1813 H   0  0  0  0  0  0  0  0  0  0  0  0
  150.6321  142.2662  159.4143 H   0  0  0  0  0  0  0  0  0  0  0  0
  153.0052  143.0496  161.9463 H   0  0  0  0  0  0  0  0  0  0  0  0
  154.7342  140.9159  162.3164 H   0  0  0  0  0  0  0  0  0  0  0  0
  152.7340  140.4051  158.6940 H   0  0  0  0  0  0  0  0  0  0  0  0
  150.5062  144.0045  156.7632 H   0  0  0  0  0  0  0  0  0  0  0  0
  149.2415  143.0480  155.5353 H   0  0  0  0  0  0  0  0  0  0  0  0
  149.4564  140.6661  154.2476 H   0  0  0  0  0  0  0  0  0  0  0  0
  148.8153  140.1763  155.7938 H   0  0  0  0  0  0  0  0  0  0  0  0
  146.9736  140.5423  154.1620 H   0  0  0  0  0  0  0  0  0  0  0  0
  148.0471  143.3771  154.0600 H   0  0  0  0  0  0  0  0  0  0  0  0
  147.6895  142.3238  152.6870 H   0  0  0  0  0  0  0  0  0  0  0  0
  145.8065  144.0793  153.6228 H   0  0  0  0  0  0  0  0  0  0  0  0
  145.3233  142.4680  153.0885 H   0  0  0  0  0  0  0  0  0  0  0  0
  146.0877  141.0737  156.3481 H   0  0  0  0  0  0  0  0  0  0  0  0
  147.0598  142.5432  156.4557 H   0  0  0  0  0  0  0  0  0  0  0  0
  1  2  1  0  0  0  0
  1 19  1  0  0  0  0
  1 20  1  0  0  0  0
  1 21  1  0  0  0  0
  2  3  1  0  0  0  0
  2  9  1  0  0  0  0
  2 22  1  0  0  0  0
  3  4  1  0  0  0  0
  3 23  1  0  0  0  0
  3 24  1  0  0  0  0
  4  8  1  0  0  0  0
  4  5  1  0  0  0  0
  5  6  2  0  0  0  0
  5 25  1  0  0  0  0
  6  7  1  0  0  0  0
  6 26  1  0  0  0  0
  7  8  2  0  0  0  0
  8 27  1  0  0  0  0
  9 10  1  0  0  0  0
  9 28  1  0  0  0  0
 10 11  2  0  0  0  0
 10 12  1  0  0  0  0
 12 13  1  0  0  0  0
 12 29  1  0  0  0  0
 13 14  1  0  0  0  0
 13 30  1  0  0  0  0
 13 31  1  0  0  0  0
 14 18  1  0  0  0  0
 14 15  1  0  0  0  0
 14 32  1  0  0  0  0
 15 16  1  0  0  0  0
 15 33  1  0  0  0  0
 15 34  1  0  0  0  0
 16 17  1  0  0  0  0
 16 35  1  0  0  0  0
 16 36  1  0  0  0  0
 17 18  1  0  0  0  0
 18 37  1  0  0  0  0
 18 38  1  0  0  0  0
M  END
> <s_m_source_file>
AV-unprocessed.smi

> <i_m_source_file_index>
3292

> <i_lp_mmshare_version>
43012

> <i_f3d_flags>
0

> <s_epik_input>
W2NIXTFuW2NIXVtjSF1uMVtDSDJdW0NAQEhdKFtDSDNdKVtOSF1DKD1PKVtOSF1bQ0gyXVtDQEBIXTJbQ0gyXVtDSDJdT1tDSDJdMg==

> <s_epik_cmdline>
J2VwaWtfcHl0aG9uJywgJy1waCcsICc3LjAnLCAnLXRuJywgJzgnLCAnLW1hJywgJzIwMCcsICctbWV0YWxfYmluZGluZycsICctaW1hZScsICc8aW5maWxlLm1hZT4nLCAnLW9tYWUnLCAnPG91dGZpbGUubWFlPic=

> <r_lp_tautomer_probability>
1

> <r_epik_Ionization_Penalty>
0.621291

> <r_epik_Ionization_Penalty_Charging>
0.621234

> <r_epik_Ionization_Penalty_Neutral>
5.72199e-05

> <r_epik_State_Penalty>
0.637278

> <r_epik_Charging_Adjusted_Penalty>
1.25851

> <i_epik_Tot_Q>
0

> <i_epik_Tot_abs_Q>
0

> <r_epik_Metal_State_Penalty>
0.306757

> <b_epik_Metal_Only>
0

> <s_lp_Force_Field>
OPLS_2005

> <r_lp_Energy>
18.3972

> <b_lp_Chiralities_Consistent>
1

> <s_lp_Variant>
AV-unprocessed.smi:3292-6

> <Gold.Version>
5.8.1

> <Gold.Id.Protein>
6NUR|6NUR_protein|mol2

> <Gold.PLP.Fitness>
44.1021

> <Gold.PLP.PLP>
-40.1100

> <Gold.PLP.part.hbond>
-2.0000

> <Gold.PLP.part.metal>
0.0000

> <Gold.PLP.part.buried>
-5.3101

> <Gold.PLP.part.nonpolar>
-32.6625

> <Gold.PLP.part.repulsive>
0.3401

> <Gold.PLP.ligand.clash>
0.0000

> <Gold.PLP.ligand.torsion>
0.9443

> <Gold.PLP.Chemscore.Hbond>
1.9199

> <Gold.PLP.Chemscore.CHOScore>
0.0000

> <Gold.PLP.Chemscore.Metal>
0.0000

> <Gold.Chemscore.Hbonds>
donor molecule, donor type, donor heavy atom, donor atom, acceptor molecule, acceptor atom, score
      L1  H     9    28       P1  8028  0.83
      L1  H    12    29       P1  8028  1.00

> <Gold.PLP.Chemscore.Internal.Correction>
0.1211

> <Gold.Rescore>
     Score         DG    S(hbond)    S(metal)    S(lipo)     H(rot)  DE(clash)    DE(int)     intcor
     15.07     -16.16       1.89        0.00      84.41       2.16       0.11       0.98       ----

> <Gold.Chemscore.Fitness>
15.0699

> <Gold.Chemscore.DG>
-16.1573

> <Gold.Chemscore.ZeroCoef>
-5.4800

> <Gold.Chemscore.Hbond>
1.8937

> <Gold.Chemscore.Metal>
0.0000

> <Gold.Chemscore.Lipo>
84.4115

> <Gold.Chemscore.Internal_Hbond>
0.0000

> <Gold.Chemscore.DEClash>
0.1075

> <Gold.Chemscore.DEInternal>
0.9800

> <Gold.Chemscore.Rot>
2.1577

> <Gold.Chemscore.Internal.Correction>
   9.000000E+99

> <Gold.Chemscore.Hbonds>
donor molecule, donor type, donor heavy atom, donor atom, acceptor molecule, acceptor atom, score
      L1  H     9    28       P1  8028  0.78
      L1  H    12    29       P1  8028  1.00

> <Gold.Chemscore.Hbond.Weighted>
-6.3249

> <Gold.Chemscore.Metal.Weighted>
-0.0000

> <Gold.Chemscore.Lipo.Weighted>
-9.8762

> <Gold.Chemscore.Internal_Hbond.Weighted>
0.0000

> <Gold.Chemscore.DEClash.Weighted>
0.1075

> <Gold.Chemscore.DEInternal.Weighted>
0.9800

> <Gold.Chemscore.Rot.Weighted>
5.5237

> <Gold.Chemscore.Internal.Correction.Weighted>
   9.000000E+99

> <Gold.Protein.RotatedTorsions>
[ 6907 6896 6895 6894 ] final   39.58 input  -60.11 | X-H torsion
[ 7974 7965 7964 7962 ] final  134.33 input  175.53 | X-H torsion
[ 8008 7997 7996 7995 ] final   31.89 input   59.86 | X-H torsion
[ 10167 10162 10161 10158 ] final  -49.69 input  -65.29 | X-H torsion
[ 10718 10713 10712 10709 ] final   31.27 input   66.30 | X-H torsion
[ 10763 10752 10751 10750 ] final  -53.96 input  -60.55 | X-H torsion
[ 11005 11000 10999 10996 ] final -128.37 input  -57.11 | X-H torsion

> <Gold.Protein.ActiveResidues>
 VAL166  LYS551  ARG553  GLY616  TRP617  ASP618  TYR619  PRO620  LYS621  CYS622 
 ASP623  PHE694  ASN695  SER759  ASP760  ASP761  ALA762  ILE779  LEU786  VAL792 
 PHE793  MET794  SER795  GLU796  ALA797  LYS798  CYS799  TRP800  GLU811  SER814 

> <Gold.Protein.RotatedAtoms>
  152.1715  134.8830  160.0533 H   0  0  0  0  0  0  0  0  0  0  0  0  # atno 6907 bound_to 6896
  151.9789  133.3746  159.4108 H   0  0  0  0  0  0  0  0  0  0  0  0  # atno 6908 bound_to 6896
  150.6902  134.3983  159.5151 H   0  0  0  0  0  0  0  0  0  0  0  0  # atno 6909 bound_to 6896
  144.9774  139.4540  143.5403 H   0  0  0  0  0  0  0  0  0  0  0  0  # atno 7974 bound_to 7965
  155.1137  140.3241  155.4515 H   0  0  0  0  0  0  0  0  0  0  0  0  # atno 8008 bound_to 7997
  156.2683  140.2039  156.6208 H   0  0  0  0  0  0  0  0  0  0  0  0  # atno 8009 bound_to 7997
  154.6737  140.0534  157.0179 H   0  0  0  0  0  0  0  0  0  0  0  0  # atno 8010 bound_to 7997
  140.6673  143.2687  151.4252 H   0  0  0  0  0  0  0  0  0  0  0  0  # atno 10167 bound_to 10162
  157.2703  130.7205  149.6501 H   0  0  0  0  0  0  0  0  0  0  0  0  # atno 10718 bound_to 10713
  154.1671  135.6465  153.5000 H   0  0  0  0  0  0  0  0  0  0  0  0  # atno 10763 bound_to 10752
  153.0094  135.5374  154.6651 H   0  0  0  0  0  0  0  0  0  0  0  0  # atno 10764 bound_to 10752
  154.5980  135.2941  155.0538 H   0  0  0  0  0  0  0  0  0  0  0  0  # atno 10765 bound_to 10752
  140.9522  134.1050  157.4051 H   0  0  0  0  0  0  0  0  0  0  0  0  # atno 11005 bound_to 11000
  146.3399  139.9026  142.8792 LP  0  0  0  0  0  0  0  0  0  0  0  0  # atno 17320 bound_to 7965
  145.2470  141.0030  143.3903 LP  0  0  0  0  0  0  0  0  0  0  0  0  # atno 17321 bound_to 7965
  139.5927  144.1465  152.2107 LP  0  0  0  0  0  0  0  0  0  0  0  0  # atno 17342 bound_to 10162
  140.0824  144.5689  150.7113 LP  0  0  0  0  0  0  0  0  0  0  0  0  # atno 17343 bound_to 10162
  155.9663  130.4369  150.5155 LP  0  0  0  0  0  0  0  0  0  0  0  0  # atno 17370 bound_to 10713
  157.3078  131.0658  151.2022 LP  0  0  0  0  0  0  0  0  0  0  0  0  # atno 17371 bound_to 10713
  139.8851  135.0069  156.6411 LP  0  0  0  0  0  0  0  0  0  0  0  0  # atno 17394 bound_to 11000
  140.7587  133.8836  155.8401 LP  0  0  0  0  0  0  0  0  0  0  0  0  # atno 17395 bound_to 11000

$$$$
