AV-unprocessed.smi:704|AV-procd|sdf|3445|dock6
  -GOLD-   22720 0433D 1   1.00000     0.00000
 Structure written by MMmdl.
 38 39  0  0  0  0  0  0  0  0  1 V2000
  153.8514  139.6944  159.1508 C   0  0  0  0  0  0  0  0  0  0  0  0
  154.0267  140.4822  160.3234 O   0  0  0  0  0  0  0  0  0  0  0  0
  153.2328  141.6007  160.4927 C   0  0  0  0  0  0  0  0  0  0  0  0
  152.3622  141.9292  159.5055 N   0  0  0  0  0  0  0  0  0  0  0  0
  151.5825  143.0171  159.6718 C   0  0  0  0  0  0  0  0  0  0  0  0
  151.6235  143.8251  160.8228 C   0  0  0  0  0  0  0  0  0  0  0  0
  152.5258  143.4867  161.8481 C   0  0  0  0  0  0  0  0  0  0  0  0
  153.3618  142.3558  161.6819 C   0  0  0  0  0  0  0  0  0  0  0  0
  154.2963  141.9112  162.6576 N   0  0  0  0  0  0  0  0  0  0  0  0
  154.5412  142.4116  163.8801 C   0  0  0  0  0  0  0  0  0  0  0  0
  153.9706  143.3785  164.3839 O   0  0  0  0  0  0  0  0  0  0  0  0
  155.5200  141.7294  164.4908 N   0  0  0  0  0  0  0  0  0  0  0  0
  156.0478  142.0156  165.8235 C   0  0  1  0  0  0  0  0  0  0  0  0
  156.3299  143.5186  165.9803 C   0  0  0  0  0  0  0  0  0  0  0  0
  155.1802  144.0651  166.8214 C   0  0  0  0  0  0  0  0  0  0  0  0
  154.8410  142.9213  167.7726 C   0  0  0  0  0  0  0  0  0  0  0  0
  155.0340  141.6408  166.9396 C   0  0  2  0  0  0  0  0  0  0  0  0
  155.5014  140.4468  167.7867 C   0  0  0  0  0  0  0  0  0  0  0  0
  155.4718  140.5941  169.1135 N   0  0  0  0  0  0  0  0  0  0  0  0
  155.8817  139.4058  167.2541 O   0  0  0  0  0  0  0  0  0  0  0  0
  154.5490  138.8574  159.1722 H   0  0  0  0  0  0  0  0  0  0  0  0
  154.0547  140.2712  158.2473 H   0  0  0  0  0  0  0  0  0  0  0  0
  152.8427  139.2826  159.0948 H   0  0  0  0  0  0  0  0  0  0  0  0
  150.9009  143.2464  158.8663 H   0  0  0  0  0  0  0  0  0  0  0  0
  150.9740  144.6823  160.9198 H   0  0  0  0  0  0  0  0  0  0  0  0
  152.5462  144.0907  162.7414 H   0  0  0  0  0  0  0  0  0  0  0  0
  154.9021  141.1612  162.3582 H   0  0  0  0  0  0  0  0  0  0  0  0
  155.9366  140.9538  163.9970 H   0  0  0  0  0  0  0  0  0  0  0  0
  156.9930  141.4792  165.9328 H   0  0  0  0  0  0  0  0  0  0  0  0
  157.2643  143.6515  166.5273 H   0  0  0  0  0  0  0  0  0  0  0  0
  156.4370  144.0429  165.0298 H   0  0  0  0  0  0  0  0  0  0  0  0
  155.4418  144.9847  167.3457 H   0  0  0  0  0  0  0  0  0  0  0  0
  154.3240  144.2771  166.1796 H   0  0  0  0  0  0  0  0  0  0  0  0
  155.5207  142.9507  168.6258 H   0  0  0  0  0  0  0  0  0  0  0  0
  153.8260  143.0086  168.1616 H   0  0  0  0  0  0  0  0  0  0  0  0
  154.0706  141.3977  166.4865 H   0  0  0  0  0  0  0  0  0  0  0  0
  155.7818  139.8431  169.7125 H   0  0  0  0  0  0  0  0  0  0  0  0
  155.1511  141.4640  169.5129 H   0  0  0  0  0  0  0  0  0  0  0  0
  1  2  1  0  0  0  0
  1 21  1  0  0  0  0
  1 22  1  0  0  0  0
  1 23  1  0  0  0  0
  2  3  1  0  0  0  0
  3  8  1  0  0  0  0
  3  4  2  0  0  0  0
  4  5  1  0  0  0  0
  5  6  2  0  0  0  0
  5 24  1  0  0  0  0
  6  7  1  0  0  0  0
  6 25  1  0  0  0  0
  7  8  2  0  0  0  0
  7 26  1  0  0  0  0
  8  9  1  0  0  0  0
  9 10  1  0  0  0  0
  9 27  1  0  0  0  0
 10 11  2  0  0  0  0
 10 12  1  0  0  0  0
 12 13  1  0  0  0  0
 12 28  1  0  0  0  0
 13 17  1  0  0  0  0
 13 14  1  0  0  0  0
 13 29  1  0  0  0  0
 14 15  1  0  0  0  0
 14 30  1  0  0  0  0
 14 31  1  0  0  0  0
 15 16  1  0  0  0  0
 15 32  1  0  0  0  0
 15 33  1  0  0  0  0
 16 17  1  0  0  0  0
 16 34  1  0  0  0  0
 16 35  1  0  0  0  0
 17 18  1  0  0  0  0
 17 36  1  0  0  0  0
 18 19  1  0  0  0  0
 18 20  2  0  0  0  0
 19 37  1  0  0  0  0
 19 38  1  0  0  0  0
M  END
> <s_m_source_file>
AV-unprocessed.smi

> <i_m_source_file_index>
704

> <i_lp_mmshare_version>
43012

> <i_f3d_flags>
0

> <s_epik_input>
W0NIM11PYzFuW2NIXVtjSF1bY0hdYzFbTkhdQyg9TylbTkhdW0NAQEhdMltDSDJdW0NIMl1bQ0gyXVtDQEhdMkMoPU8pW05IMl0=

> <s_epik_cmdline>
J2VwaWtfcHl0aG9uJywgJy1waCcsICc3LjAnLCAnLXRuJywgJzgnLCAnLW1hJywgJzIwMCcsICctbWV0YWxfYmluZGluZycsICctaW1hZScsICc8aW5maWxlLm1hZT4nLCAnLW9tYWUnLCAnPG91dGZpbGUubWFlPic=

> <r_lp_tautomer_probability>
1

> <r_epik_Ionization_Penalty>
9.09123e-05

> <r_epik_Ionization_Penalty_Charging>
0

> <r_epik_Ionization_Penalty_Neutral>
9.09123e-05

> <r_epik_State_Penalty>
-0

> <r_epik_Charging_Adjusted_Penalty>
0

> <i_epik_Tot_Q>
0

> <i_epik_Tot_abs_Q>
0

> <r_epik_Metal_State_Penalty>
-0

> <b_epik_Metal_Only>
0

> <s_lp_Force_Field>
OPLS_2005

> <r_lp_Energy>
17.389

> <b_lp_Chiralities_Consistent>
1

> <s_lp_Variant>
AV-unprocessed.smi:704-4

> <Gold.Version>
5.8.1

> <Gold.Id.Protein>
6NUR|6NUR_protein|mol2

> <Gold.PLP.Fitness>
40.2663

> <Gold.PLP.PLP>
-40.9142

> <Gold.PLP.part.hbond>
-3.3635

> <Gold.PLP.part.metal>
0.0000

> <Gold.PLP.part.buried>
-4.0519

> <Gold.PLP.part.nonpolar>
-32.5733

> <Gold.PLP.part.repulsive>
0.3448

> <Gold.PLP.ligand.clash>
0.0000

> <Gold.PLP.ligand.torsion>
0.3290

> <Gold.PLP.Chemscore.Hbond>
0.0000

> <Gold.PLP.Chemscore.CHOScore>
0.0000

> <Gold.PLP.Chemscore.Metal>
0.0000

> <Gold.PLP.Chemscore.Internal.Correction>
0.0101

> <Gold.Rescore>
     Score         DG    S(hbond)    S(metal)    S(lipo)     H(rot)  DE(clash)    DE(int)     intcor
      5.73     -11.16       0.00        0.00      89.36       1.86       1.30       4.14       ----

> <Gold.Chemscore.Fitness>
5.7263

> <Gold.Chemscore.DG>
-11.1609

> <Gold.Chemscore.ZeroCoef>
-5.4800

> <Gold.Chemscore.Hbond>
0.0000

> <Gold.Chemscore.Metal>
0.0000

> <Gold.Chemscore.Lipo>
89.3578

> <Gold.Chemscore.Internal_Hbond>
0.0000

> <Gold.Chemscore.DEClash>
1.2983

> <Gold.Chemscore.DEInternal>
4.1363

> <Gold.Chemscore.Rot>
1.8648

> <Gold.Chemscore.Internal.Correction>
   9.000000E+99

> <Gold.Chemscore.Hbond.Weighted>
-0.0000

> <Gold.Chemscore.Metal.Weighted>
-0.0000

> <Gold.Chemscore.Lipo.Weighted>
-10.4549

> <Gold.Chemscore.Internal_Hbond.Weighted>
0.0000

> <Gold.Chemscore.DEClash.Weighted>
1.2983

> <Gold.Chemscore.DEInternal.Weighted>
4.1363

> <Gold.Chemscore.Rot.Weighted>
4.7739

> <Gold.Chemscore.Internal.Correction.Weighted>
   9.000000E+99

> <Gold.Protein.RotatedTorsions>
[ 6907 6896 6895 6894 ] final   21.20 input  -60.11 | X-H torsion
[ 7974 7965 7964 7962 ] final   19.38 input  175.53 | X-H torsion
[ 8008 7997 7996 7995 ] final  147.37 input   59.86 | X-H torsion
[ 10167 10162 10161 10158 ] final -148.52 input  -65.29 | X-H torsion
[ 10718 10713 10712 10709 ] final   25.00 input   66.30 | X-H torsion
[ 10763 10752 10751 10750 ] final -148.96 input  -60.55 | X-H torsion
[ 11005 11000 10999 10996 ] final -155.89 input  -57.11 | X-H torsion

> <Gold.Protein.ActiveResidues>
 VAL166  LYS551  ARG553  GLY616  TRP617  ASP618  TYR619  PRO620  LYS621  CYS622 
 ASP623  PHE694  ASN695  SER759  ASP760  ASP761  ALA762  ILE779  LEU786  VAL792 
 PHE793  MET794  SER795  GLU796  ALA797  LYS798  CYS799  TRP800  GLU811  SER814 

> <Gold.Protein.RotatedAtoms>
  151.9082  135.0350  160.0511 H   0  0  0  0  0  0  0  0  0  0  0  0  # atno 6907 bound_to 6896
  152.2301  133.5047  159.5219 H   0  0  0  0  0  0  0  0  0  0  0  0  # atno 6908 bound_to 6896
  150.7023  134.1144  159.4054 H   0  0  0  0  0  0  0  0  0  0  0  0  # atno 6909 bound_to 6896
  146.2151  139.8321  142.8658 H   0  0  0  0  0  0  0  0  0  0  0  0  # atno 7974 bound_to 7965
  156.2826  140.2157  156.5527 H   0  0  0  0  0  0  0  0  0  0  0  0  # atno 8008 bound_to 7997
  154.7277  140.0498  157.0721 H   0  0  0  0  0  0  0  0  0  0  0  0  # atno 8009 bound_to 7997
  155.0394  140.3144  155.4733 H   0  0  0  0  0  0  0  0  0  0  0  0  # atno 8010 bound_to 7997
  139.7524  143.8498  152.2589 H   0  0  0  0  0  0  0  0  0  0  0  0  # atno 10167 bound_to 10162
  157.1875  130.6830  149.6137 H   0  0  0  0  0  0  0  0  0  0  0  0  # atno 10718 bound_to 10713
  154.8204  135.3321  154.7055 H   0  0  0  0  0  0  0  0  0  0  0  0  # atno 10763 bound_to 10752
  153.7688  135.6927  153.4915 H   0  0  0  0  0  0  0  0  0  0  0  0  # atno 10764 bound_to 10752
  153.2059  135.4499  155.0270 H   0  0  0  0  0  0  0  0  0  0  0  0  # atno 10765 bound_to 10752
  140.6816  134.4138  157.5226 H   0  0  0  0  0  0  0  0  0  0  0  0  # atno 11005 bound_to 11000
  145.2987  141.0188  143.3621 LP  0  0  0  0  0  0  0  0  0  0  0  0  # atno 17320 bound_to 7965
  144.9023  139.4634  143.6627 LP  0  0  0  0  0  0  0  0  0  0  0  0  # atno 17321 bound_to 7965
  139.8480  144.7178  150.9248 LP  0  0  0  0  0  0  0  0  0  0  0  0  # atno 17342 bound_to 10162
  140.7799  143.3924  151.1288 LP  0  0  0  0  0  0  0  0  0  0  0  0  # atno 17343 bound_to 10162
  155.9716  130.4626  150.6151 LP  0  0  0  0  0  0  0  0  0  0  0  0  # atno 17370 bound_to 10713
  157.3893  131.0793  151.1408 LP  0  0  0  0  0  0  0  0  0  0  0  0  # atno 17371 bound_to 10713
  139.8950  134.8693  156.2151 LP  0  0  0  0  0  0  0  0  0  0  0  0  # atno 17394 bound_to 11000
  141.0313  133.6987  156.1435 LP  0  0  0  0  0  0  0  0  0  0  0  0  # atno 17395 bound_to 11000

$$$$
