AV-unprocessed.smi:1913|AV-procd|sdf|7754|dock2
  -GOLD-   22720 9493D 1   1.00000     0.00000
 Structure written by MMmdl.
 41 43  0  0  0  0  0  0  0  0  2 V2000
  146.3606  139.5751  154.6766 C   0  0  0  0  0  0  0  0  0  0  0  0
  147.1786  139.4304  155.8283 O   0  0  0  0  0  0  0  0  0  0  0  0
  148.5456  139.4132  155.6542 C   0  0  0  0  0  0  0  0  0  0  0  0
  149.1898  139.4902  154.3974 C   0  0  0  0  0  0  0  0  0  0  0  0
  150.5941  139.4765  154.3139 C   0  0  0  0  0  0  0  0  0  0  0  0
  151.3911  139.3848  155.4818 C   0  0  0  0  0  0  0  0  0  0  0  0
  152.7712  139.3922  155.4579 O   0  0  0  0  0  0  0  0  0  0  0  0
  153.4302  138.8829  154.3083 C   0  0  0  0  0  0  0  0  0  0  0  0
  150.7487  139.2985  156.7418 C   0  0  0  0  0  0  0  0  0  0  0  0
  151.5683  139.2329  158.0302 C   0  0  2  0  0  0  0  0  0  0  0  0
  150.7588  139.2356  159.1886 O   0  0  0  0  0  0  0  0  0  0  0  0
  152.5718  140.3991  158.1499 C   0  0  0  0  0  0  0  0  0  0  0  0
  151.9177  141.7141  158.0930 N   0  0  0  0  0  0  0  0  0  0  0  0
  151.1381  142.2508  157.1159 C   0  0  0  0  0  0  0  0  0  0  0  0
  150.7382  143.4821  157.5374 N   0  3  0  0  0  0  0  0  0  0  0  0
  151.2716  143.7381  158.8021 C   0  0  0  0  0  0  0  0  0  0  0  0
  151.1424  144.8430  159.6378 C   0  0  0  0  0  0  0  0  0  0  0  0
  151.8169  144.7837  160.8747 C   0  0  0  0  0  0  0  0  0  0  0  0
  152.5840  143.6583  161.2397 C   0  0  0  0  0  0  0  0  0  0  0  0
  152.7098  142.5448  160.3836 C   0  0  0  0  0  0  0  0  0  0  0  0
  152.0374  142.6092  159.1633 C   0  0  0  0  0  0  0  0  0  0  0  0
  149.3377  139.3167  156.8133 C   0  0  0  0  0  0  0  0  0  0  0  0
  145.3129  139.5743  154.9770 H   0  0  0  0  0  0  0  0  0  0  0  0
  146.5038  138.7491  153.9787 H   0  0  0  0  0  0  0  0  0  0  0  0
  146.5565  140.5187  154.1656 H   0  0  0  0  0  0  0  0  0  0  0  0
  148.6281  139.5636  153.4786 H   0  0  0  0  0  0  0  0  0  0  0  0
  151.0370  139.5413  153.3319 H   0  0  0  0  0  0  0  0  0  0  0  0
  154.5049  139.0252  154.4196 H   0  0  0  0  0  0  0  0  0  0  0  0
  153.1211  139.4117  153.4054 H   0  0  0  0  0  0  0  0  0  0  0  0
  153.2497  137.8143  154.1851 H   0  0  0  0  0  0  0  0  0  0  0  0
  152.1146  138.2902  158.0630 H   0  0  0  0  0  0  0  0  0  0  0  0
  150.5318  138.3421  159.3972 H   0  0  0  0  0  0  0  0  0  0  0  0
  153.1723  140.3241  159.0568 H   0  0  0  0  0  0  0  0  0  0  0  0
  153.2743  140.3687  157.3156 H   0  0  0  0  0  0  0  0  0  0  0  0
  150.8746  141.7794  156.1801 H   0  0  0  0  0  0  0  0  0  0  0  0
  150.5543  145.7058  159.3612 H   0  0  0  0  0  0  0  0  0  0  0  0
  151.7447  145.6178  161.5573 H   0  0  0  0  0  0  0  0  0  0  0  0
  153.0858  143.6475  162.1964 H   0  0  0  0  0  0  0  0  0  0  0  0
  153.2950  141.6864  160.6780 H   0  0  0  0  0  0  0  0  0  0  0  0
  148.8471  139.2691  157.7747 H   0  0  0  0  0  0  0  0  0  0  0  0
  150.1427  144.0988  156.9998 H   0  0  0  0  0  0  0  0  0  0  0  0
  1  2  1  0  0  0  0
  1 23  1  0  0  0  0
  1 24  1  0  0  0  0
  1 25  1  0  0  0  0
  2  3  1  0  0  0  0
  3 22  1  0  0  0  0
  3  4  2  0  0  0  0
  4  5  1  0  0  0  0
  4 26  1  0  0  0  0
  5  6  2  0  0  0  0
  5 27  1  0  0  0  0
  6  7  1  0  0  0  0
  6  9  1  0  0  0  0
  7  8  1  0  0  0  0
  8 28  1  0  0  0  0
  8 29  1  0  0  0  0
  8 30  1  0  0  0  0
  9 10  1  0  0  0  0
  9 22  2  0  0  0  0
 10 11  1  0  0  0  0
 10 12  1  0  0  0  0
 10 31  1  0  0  0  0
 11 32  1  0  0  0  0
 12 13  1  0  0  0  0
 12 33  1  0  0  0  0
 12 34  1  0  0  0  0
 13 21  1  0  0  0  0
 13 14  1  0  0  0  0
 14 15  2  0  0  0  0
 14 35  1  0  0  0  0
 15 16  1  0  0  0  0
 15 41  1  0  0  0  0
 16 21  2  0  0  0  0
 16 17  1  0  0  0  0
 17 18  2  0  0  0  0
 17 36  1  0  0  0  0
 18 19  1  0  0  0  0
 18 37  1  0  0  0  0
 19 20  2  0  0  0  0
 19 38  1  0  0  0  0
 20 21  1  0  0  0  0
 20 39  1  0  0  0  0
 22 40  1  0  0  0  0
M  CHG  1  15   1
M  END
> <s_m_source_file>
AV-unprocessed.smi

> <i_m_source_file_index>
1913

> <i_lp_mmshare_version>
43012

> <i_f3d_flags>
0

> <s_epik_input>
W0NIM11PYzFbY0hdW2NIXWMoT1tDSDNdKWMoW2NIXTEpW0NASF0oW09IXSlbQ0gyXW4oW2NIXW4yKWMoYzIzKVtjSF1bY0hdW2NIXVtjSF0z

> <s_epik_cmdline>
J2VwaWtfcHl0aG9uJywgJy1waCcsICc3LjAnLCAnLXRuJywgJzgnLCAnLW1hJywgJzIwMCcsICctbWV0YWxfYmluZGluZycsICctaW1hZScsICc8aW5maWxlLm1hZT4nLCAnLW9tYWUnLCAnPG91dGZpbGUubWFlPic=

> <r_lp_tautomer_probability>
1

> <r_epik_Ionization_Penalty>
1.3029

> <r_epik_Ionization_Penalty_Charging>
1.3029

> <r_epik_Ionization_Penalty_Neutral>
1.34362e-06

> <r_epik_State_Penalty>
1.377

> <r_epik_Charging_Adjusted_Penalty>
2.6799

> <i_epik_Tot_Q>
1

> <i_epik_Tot_abs_Q>
1

> <r_epik_Metal_State_Penalty>
5.40879

> <b_epik_Metal_Only>
0

> <s_lp_Force_Field>
OPLS_2005

> <r_lp_Energy>
23.3485

> <b_lp_Chiralities_Consistent>
1

> <s_lp_Variant>
AV-unprocessed.smi:1913-3

> <Gold.Version>
5.8.1

> <Gold.Id.Protein>
6NUR|6NUR_protein|mol2

> <Gold.PLP.Fitness>
48.7465

> <Gold.PLP.PLP>
-40.8068

> <Gold.PLP.part.hbond>
-3.0000

> <Gold.PLP.part.metal>
0.0000

> <Gold.PLP.part.buried>
-3.4085

> <Gold.PLP.part.nonpolar>
-33.9929

> <Gold.PLP.part.repulsive>
0.0043

> <Gold.PLP.ligand.clash>
0.0000

> <Gold.PLP.ligand.torsion>
0.4256

> <Gold.PLP.Chemscore.Hbond>
2.9000

> <Gold.PLP.Chemscore.CHOScore>
0.0000

> <Gold.PLP.Chemscore.Metal>
0.0000

> <Gold.Chemscore.Hbonds>
donor molecule, donor type, donor heavy atom, donor atom, acceptor molecule, acceptor atom, score
      L1  H    15    41       P1  8028  2.00
      P1  H  7997  8010       L1     7  0.90

> <Gold.PLP.Chemscore.Internal.Correction>
0.0909

> <Gold.Rescore>
     Score         DG    S(hbond)    S(metal)    S(lipo)     H(rot)  DE(clash)    DE(int)     intcor
     15.76     -18.00       1.32        0.00     122.19       2.41       0.08       2.16       ----

> <Gold.Chemscore.Fitness>
15.7644

> <Gold.Chemscore.DG>
-18.0009

> <Gold.Chemscore.ZeroCoef>
-5.4800

> <Gold.Chemscore.Hbond>
1.3163

> <Gold.Chemscore.Metal>
0.0000

> <Gold.Chemscore.Lipo>
122.1906

> <Gold.Chemscore.Internal_Hbond>
0.0000

> <Gold.Chemscore.DEClash>
0.0756

> <Gold.Chemscore.DEInternal>
2.1608

> <Gold.Chemscore.Rot>
2.4109

> <Gold.Chemscore.Internal.Correction>
   9.000000E+99

> <Gold.Chemscore.Hbonds>
donor molecule, donor type, donor heavy atom, donor atom, acceptor molecule, acceptor atom, score
      L1  H    15    41       P1  8028  0.92
      P1  H  7997  8010       L1     7  0.17

> <Gold.Chemscore.Hbond.Weighted>
-4.3966

> <Gold.Chemscore.Metal.Weighted>
-0.0000

> <Gold.Chemscore.Lipo.Weighted>
-14.2963

> <Gold.Chemscore.Internal_Hbond.Weighted>
0.0000

> <Gold.Chemscore.DEClash.Weighted>
0.0756

> <Gold.Chemscore.DEInternal.Weighted>
2.1608

> <Gold.Chemscore.Rot.Weighted>
6.1720

> <Gold.Chemscore.Internal.Correction.Weighted>
   9.000000E+99

> <Gold.Protein.RotatedTorsions>
[ 6907 6896 6895 6894 ] final  118.42 input  -60.11 | X-H torsion
[ 7974 7965 7964 7962 ] final  -48.39 input  175.53 | X-H torsion
[ 8008 7997 7996 7995 ] final   72.15 input   59.86 | X-H torsion
[ 10167 10162 10161 10158 ] final  -54.51 input  -65.29 | X-H torsion
[ 10718 10713 10712 10709 ] final  -45.84 input   66.30 | X-H torsion
[ 10763 10752 10751 10750 ] final   66.67 input  -60.55 | X-H torsion
[ 11005 11000 10999 10996 ] final  -64.60 input  -57.11 | X-H torsion

> <Gold.Protein.ActiveResidues>
 VAL166  LYS551  ARG553  GLY616  TRP617  ASP618  TYR619  PRO620  LYS621  CYS622 
 ASP623  PHE694  ASN695  SER759  ASP760  ASP761  ALA762  ILE779  LEU786  VAL792 
 PHE793  MET794  SER795  GLU796  ALA797  LYS798  CYS799  TRP800  GLU811  SER814 

> <Gold.Protein.RotatedAtoms>
  152.4544  133.7694  159.6790 H   0  0  0  0  0  0  0  0  0  0  0  0  # atno 6907 bound_to 6896
  150.8466  133.7842  159.3047 H   0  0  0  0  0  0  0  0  0  0  0  0  # atno 6908 bound_to 6896
  151.5450  135.1071  159.9987 H   0  0  0  0  0  0  0  0  0  0  0  0  # atno 6909 bound_to 6896
  145.9517  140.7566  142.9501 H   0  0  0  0  0  0  0  0  0  0  0  0  # atno 7974 bound_to 7965
  155.7646  140.3486  155.5215 H   0  0  0  0  0  0  0  0  0  0  0  0  # atno 8008 bound_to 7997
  155.8881  140.1013  157.1459 H   0  0  0  0  0  0  0  0  0  0  0  0  # atno 8009 bound_to 7997
  154.4031  140.1309  156.4268 H   0  0  0  0  0  0  0  0  0  0  0  0  # atno 8010 bound_to 7997
  140.6426  143.2516  151.4947 H   0  0  0  0  0  0  0  0  0  0  0  0  # atno 10167 bound_to 10162
  156.2243  130.4168  149.8953 H   0  0  0  0  0  0  0  0  0  0  0  0  # atno 10718 bound_to 10713
  153.0150  135.5312  154.6859 H   0  0  0  0  0  0  0  0  0  0  0  0  # atno 10763 bound_to 10752
  154.6007  135.2868  155.0541 H   0  0  0  0  0  0  0  0  0  0  0  0  # atno 10764 bound_to 10752
  154.1599  135.6549  153.5036 H   0  0  0  0  0  0  0  0  0  0  0  0  # atno 10765 bound_to 10752
  141.1429  133.6668  156.5857 H   0  0  0  0  0  0  0  0  0  0  0  0  # atno 11005 bound_to 11000
  144.6797  140.2445  143.7339 LP  0  0  0  0  0  0  0  0  0  0  0  0  # atno 17320 bound_to 7965
  145.8162  139.2024  143.1964 LP  0  0  0  0  0  0  0  0  0  0  0  0  # atno 17321 bound_to 7965
  139.5636  144.2097  152.1730 LP  0  0  0  0  0  0  0  0  0  0  0  0  # atno 17342 bound_to 10162
  140.1372  144.5235  150.6766 LP  0  0  0  0  0  0  0  0  0  0  0  0  # atno 17343 bound_to 10162
  156.6589  130.8774  151.3544 LP  0  0  0  0  0  0  0  0  0  0  0  0  # atno 17370 bound_to 10713
  157.7103  130.9432  150.1066 LP  0  0  0  0  0  0  0  0  0  0  0  0  # atno 17371 bound_to 10713
  140.3802  134.7529  157.4656 LP  0  0  0  0  0  0  0  0  0  0  0  0  # atno 17394 bound_to 11000
  140.0643  134.5951  155.8713 LP  0  0  0  0  0  0  0  0  0  0  0  0  # atno 17395 bound_to 11000

$$$$
