AV-unprocessed.smi:1508|AV-procd|sdf|6087|dock1
  -GOLD-   22720 6213D 1   1.00000     0.00000
 Structure written by MMmdl.
 38 39  0  0  0  0  0  0  0  0  2 V2000
  148.0569  133.2102  155.4323 C   0  0  0  0  0  0  0  0  0  0  0  0
  148.3236  132.1033  154.4010 C   0  0  0  0  0  0  0  0  0  0  0  0
  147.0484  131.5314  153.7236 C   0  0  1  0  0  0  0  0  0  0  0  0
  146.3115  132.5956  152.8614 C   0  0  0  0  0  0  0  0  0  0  0  0
  144.9766  132.9233  153.3616 N   0  0  0  0  0  0  0  0  0  0  0  0
  144.3945  134.1295  153.3023 C   0  0  0  0  0  0  0  0  0  0  0  0
  144.9293  135.1167  152.7999 O   0  0  0  0  0  0  0  0  0  0  0  0
  143.1702  134.1049  153.8528 N   0  0  0  0  0  0  0  0  0  0  0  0
  142.2430  135.1714  153.9637 C   0  0  0  0  0  0  0  0  0  0  0  0
  140.9484  134.8645  154.1040 N   0  0  0  0  0  0  0  0  0  0  0  0
  140.1522  135.9991  154.2005 N   0  0  0  0  0  0  0  0  0  0  0  0
  140.8789  137.1187  154.1296 C   0  0  0  0  0  0  0  0  0  0  0  0
  142.6089  136.8990  153.9349 S   0  0  0  0  0  0  0  0  0  0  0  0
  147.3533  130.3101  152.9166 N   0  3  0  0  0  0  0  0  0  0  0  0
  147.9401  129.1680  153.6517 C   0  0  0  0  0  0  0  0  0  0  0  0
  147.6968  127.9562  152.7600 C   0  0  0  0  0  0  0  0  0  0  0  0
  146.3224  128.2363  152.1645 C   0  0  0  0  0  0  0  0  0  0  0  0
  146.2087  129.7667  152.1401 C   0  0  0  0  0  0  0  0  0  0  0  0
  148.9788  133.4837  155.9458 H   0  0  0  0  0  0  0  0  0  0  0  0
  147.3442  132.8812  156.1889 H   0  0  0  0  0  0  0  0  0  0  0  0
  147.6675  134.1178  154.9737 H   0  0  0  0  0  0  0  0  0  0  0  0
  149.0256  132.4630  153.6486 H   0  0  0  0  0  0  0  0  0  0  0  0
  148.8463  131.3142  154.9400 H   0  0  0  0  0  0  0  0  0  0  0  0
  146.3713  131.2263  154.5233 H   0  0  0  0  0  0  0  0  0  0  0  0
  146.8805  133.5249  152.8616 H   0  0  0  0  0  0  0  0  0  0  0  0
  146.2731  132.3055  151.8116 H   0  0  0  0  0  0  0  0  0  0  0  0
  144.4644  132.1764  153.8080 H   0  0  0  0  0  0  0  0  0  0  0  0
  142.8603  133.2231  154.2337 H   0  0  0  0  0  0  0  0  0  0  0  0
  140.3924  138.0809  154.1920 H   0  0  0  0  0  0  0  0  0  0  0  0
  149.0023  129.3116  153.8523 H   0  0  0  0  0  0  0  0  0  0  0  0
  147.4236  129.0362  154.6042 H   0  0  0  0  0  0  0  0  0  0  0  0
  148.4449  127.9243  151.9669 H   0  0  0  0  0  0  0  0  0  0  0  0
  147.7407  127.0121  153.3038 H   0  0  0  0  0  0  0  0  0  0  0  0
  146.1994  127.7907  151.1768 H   0  0  0  0  0  0  0  0  0  0  0  0
  145.5493  127.8205  152.8124 H   0  0  0  0  0  0  0  0  0  0  0  0
  145.2514  130.0655  152.5699 H   0  0  0  0  0  0  0  0  0  0  0  0
  146.2491  130.1517  151.1208 H   0  0  0  0  0  0  0  0  0  0  0  0
  148.0487  130.5776  152.2348 H   0  0  0  0  0  0  0  0  0  0  0  0
  1  2  1  0  0  0  0
  1 19  1  0  0  0  0
  1 20  1  0  0  0  0
  1 21  1  0  0  0  0
  2  3  1  0  0  0  0
  2 22  1  0  0  0  0
  2 23  1  0  0  0  0
  3  4  1  0  0  0  0
  3 14  1  0  0  0  0
  3 24  1  0  0  0  0
  4  5  1  0  0  0  0
  4 25  1  0  0  0  0
  4 26  1  0  0  0  0
  5  6  1  0  0  0  0
  5 27  1  0  0  0  0
  6  7  2  0  0  0  0
  6  8  1  0  0  0  0
  8  9  1  0  0  0  0
  8 28  1  0  0  0  0
  9 13  1  0  0  0  0
  9 10  2  0  0  0  0
 10 11  1  0  0  0  0
 11 12  2  0  0  0  0
 12 13  1  0  0  0  0
 12 29  1  0  0  0  0
 14 18  1  0  0  0  0
 14 15  1  0  0  0  0
 14 38  1  0  0  0  0
 15 16  1  0  0  0  0
 15 30  1  0  0  0  0
 15 31  1  0  0  0  0
 16 17  1  0  0  0  0
 16 32  1  0  0  0  0
 16 33  1  0  0  0  0
 17 18  1  0  0  0  0
 17 34  1  0  0  0  0
 17 35  1  0  0  0  0
 18 36  1  0  0  0  0
 18 37  1  0  0  0  0
M  CHG  1  14   1
M  END
> <s_m_source_file>
AV-unprocessed.smi

> <i_m_source_file_index>
1508

> <i_lp_mmshare_version>
43012

> <i_f3d_flags>
0

> <s_epik_input>
W0NIMl0xW0NIMl1bQ0gyXVtDSDJdTjFbQ0BIXShbQ0gyXVtDSDNdKVtDSDJdW05IXUMoPU8pW05IXWMybm5bY0hdczI=

> <s_epik_cmdline>
J2VwaWtfcHl0aG9uJywgJy1waCcsICc3LjAnLCAnLXRuJywgJzgnLCAnLW1hJywgJzIwMCcsICctbWV0YWxfYmluZGluZycsICctaW1hZScsICc8aW5maWxlLm1hZT4nLCAnLW9tYWUnLCAnPG91dGZpbGUubWFlPic=

> <r_lp_tautomer_probability>
1

> <r_epik_Ionization_Penalty>
0.00193711

> <r_epik_Ionization_Penalty_Charging>
0.00115997

> <r_epik_Ionization_Penalty_Neutral>
0.000777142

> <r_epik_State_Penalty>
-0

> <r_epik_Charging_Adjusted_Penalty>
0.00115997

> <i_epik_Tot_Q>
1

> <i_epik_Tot_abs_Q>
1

> <r_epik_Metal_State_Penalty>
0.264283

> <b_epik_Metal_Only>
0

> <s_lp_Force_Field>
OPLS_2005

> <r_lp_Energy>
37.6611

> <b_lp_Chiralities_Consistent>
1

> <s_lp_Variant>
AV-unprocessed.smi:1508-2

> <Gold.Version>
5.8.1

> <Gold.Id.Protein>
6NUR|6NUR_protein|mol2

> <Gold.PLP.Fitness>
41.2283

> <Gold.PLP.PLP>
-33.8424

> <Gold.PLP.part.hbond>
-5.1376

> <Gold.PLP.part.metal>
0.0000

> <Gold.PLP.part.buried>
-6.6946

> <Gold.PLP.part.nonpolar>
-22.5366

> <Gold.PLP.part.repulsive>
0.4485

> <Gold.PLP.ligand.clash>
0.0000

> <Gold.PLP.ligand.torsion>
1.1097

> <Gold.PLP.Chemscore.Hbond>
3.1669

> <Gold.PLP.Chemscore.CHOScore>
0.0000

> <Gold.PLP.Chemscore.Metal>
0.0000

> <Gold.Chemscore.Hbonds>
donor molecule, donor type, donor heavy atom, donor atom, acceptor molecule, acceptor atom, score
      L1  H     5    27       P1 10957  0.63
      L1  H     8    28       P1 10957  1.00
      L1  H    14    38       P1 10747  0.65
      P1  H 11000 11005       L1    10  0.93

> <Gold.PLP.Chemscore.Internal.Correction>
0.1045

> <Gold.Rescore>
     Score         DG    S(hbond)    S(metal)    S(lipo)     H(rot)  DE(clash)    DE(int)     intcor
     16.46     -17.57       2.86        0.00      63.06       1.89       0.01       1.11       ----

> <Gold.Chemscore.Fitness>
16.4583

> <Gold.Chemscore.DG>
-17.5738

> <Gold.Chemscore.ZeroCoef>
-5.4800

> <Gold.Chemscore.Hbond>
2.8644

> <Gold.Chemscore.Metal>
0.0000

> <Gold.Chemscore.Lipo>
63.0591

> <Gold.Chemscore.Internal_Hbond>
0.0000

> <Gold.Chemscore.DEClash>
0.0067

> <Gold.Chemscore.DEInternal>
1.1089

> <Gold.Chemscore.Rot>
1.8950

> <Gold.Chemscore.Internal.Correction>
   9.000000E+99

> <Gold.Chemscore.Hbonds>
donor molecule, donor type, donor heavy atom, donor atom, acceptor molecule, acceptor atom, score
      L1  H     5    27       P1 10957  0.09
      L1  H     8    28       P1 10957  0.97
      L1  H    14    38       P1 10747  0.64
      P1  H 11000 11005       L1    10  0.22

> <Gold.Chemscore.Hbond.Weighted>
-9.5670

> <Gold.Chemscore.Metal.Weighted>
-0.0000

> <Gold.Chemscore.Lipo.Weighted>
-7.3779

> <Gold.Chemscore.Internal_Hbond.Weighted>
0.0000

> <Gold.Chemscore.DEClash.Weighted>
0.0067

> <Gold.Chemscore.DEInternal.Weighted>
1.1089

> <Gold.Chemscore.Rot.Weighted>
4.8511

> <Gold.Chemscore.Internal.Correction.Weighted>
   9.000000E+99

> <Gold.Protein.RotatedTorsions>
[ 6907 6896 6895 6894 ] final   60.03 input  -60.11 | X-H torsion
[ 7974 7965 7964 7962 ] final -132.58 input  175.53 | X-H torsion
[ 8008 7997 7996 7995 ] final -122.41 input   59.86 | X-H torsion
[ 10167 10162 10161 10158 ] final  -70.03 input  -65.29 | X-H torsion
[ 10718 10713 10712 10709 ] final   14.25 input   66.30 | X-H torsion
[ 10763 10752 10751 10750 ] final  -58.75 input  -60.55 | X-H torsion
[ 11005 11000 10999 10996 ] final    4.09 input  -57.11 | X-H torsion

> <Gold.Protein.ActiveResidues>
 VAL166  LYS551  ARG553  GLY616  TRP617  ASP618  TYR619  PRO620  LYS621  CYS622 
 ASP623  PHE694  ASN695  SER759  ASP760  ASP761  ALA762  ILE779  LEU786  VAL792 
 PHE793  MET794  SER795  GLU796  ALA797  LYS798  CYS799  TRP800  GLU811  SER814 

> <Gold.Protein.RotatedAtoms>
  152.3967  134.6353  160.0085 H   0  0  0  0  0  0  0  0  0  0  0  0  # atno 6907 bound_to 6896
  151.6571  133.3313  159.3173 H   0  0  0  0  0  0  0  0  0  0  0  0  # atno 6908 bound_to 6896
  150.7874  134.6913  159.6543 H   0  0  0  0  0  0  0  0  0  0  0  0  # atno 6909 bound_to 6896
  144.9272  140.7085  143.4928 H   0  0  0  0  0  0  0  0  0  0  0  0  # atno 7974 bound_to 7965
  155.1638  140.0406  157.2848 H   0  0  0  0  0  0  0  0  0  0  0  0  # atno 8008 bound_to 7997
  154.6317  140.2526  155.7398 H   0  0  0  0  0  0  0  0  0  0  0  0  # atno 8009 bound_to 7997
  156.2488  140.2874  156.0672 H   0  0  0  0  0  0  0  0  0  0  0  0  # atno 8010 bound_to 7997
  140.5384  143.2316  151.7134 H   0  0  0  0  0  0  0  0  0  0  0  0  # atno 10167 bound_to 10162
  157.0364  130.6213  149.5743 H   0  0  0  0  0  0  0  0  0  0  0  0  # atno 10718 bound_to 10713
  154.2431  135.6340  153.5214 H   0  0  0  0  0  0  0  0  0  0  0  0  # atno 10763 bound_to 10752
  152.9926  135.5547  154.5889 H   0  0  0  0  0  0  0  0  0  0  0  0  # atno 10764 bound_to 10752
  154.5399  135.2894  155.1079 H   0  0  0  0  0  0  0  0  0  0  0  0  # atno 10765 bound_to 10752
  140.5859  133.9970  155.8067 H   0  0  0  0  0  0  0  0  0  0  0  0  # atno 11005 bound_to 11000
  145.3200  139.1791  143.4593 LP  0  0  0  0  0  0  0  0  0  0  0  0  # atno 17320 bound_to 7965
  146.3231  140.3216  142.8634 LP  0  0  0  0  0  0  0  0  0  0  0  0  # atno 17321 bound_to 7965
  139.4979  144.4007  152.0184 LP  0  0  0  0  0  0  0  0  0  0  0  0  # atno 17342 bound_to 10162
  140.3114  144.3534  150.6033 LP  0  0  0  0  0  0  0  0  0  0  0  0  # atno 17343 bound_to 10162
  156.0052  130.5138  150.7806 LP  0  0  0  0  0  0  0  0  0  0  0  0  # atno 17370 bound_to 10713
  157.5138  131.0927  151.0165 LP  0  0  0  0  0  0  0  0  0  0  0  0  # atno 17371 bound_to 10713
  141.0967  133.9833  157.3149 LP  0  0  0  0  0  0  0  0  0  0  0  0  # atno 17394 bound_to 11000
  139.9296  135.0200  156.8355 LP  0  0  0  0  0  0  0  0  0  0  0  0  # atno 17395 bound_to 11000

$$$$
