AV-unprocessed.smi:44|AV-procd|sdf|403|dock2
  -GOLD-   2262016253D 1   1.00000     0.00000
 Structure written by MMmdl.
 28 30  0  0  0  0  0  0  0  0  2 V2000
  152.4722  140.0974  158.7761 O   0  0  0  0  0  0  0  0  0  0  0  0
  152.1730  139.9300  157.5955 C   0  0  0  0  0  0  0  0  0  0  0  0
  152.8410  139.1162  156.7171 N   0  5  0  0  0  0  0  0  0  0  0  0
  152.3999  139.0150  155.3991 C   0  0  0  0  0  0  0  0  0  0  0  0
  151.3928  139.6112  154.8573 N   0  0  0  0  0  0  0  0  0  0  0  0
  150.7015  140.4347  155.7215 C   0  0  0  0  0  0  0  0  0  0  0  0
  150.9943  140.6536  157.0405 C   0  0  0  0  0  0  0  0  0  0  0  0
  150.0950  141.5439  157.6138 N   0  0  0  0  0  0  0  0  0  0  0  0
  149.2871  141.8223  156.5906 C   0  0  0  0  0  0  0  0  0  0  0  0
  149.5762  141.1951  155.4303 N   0  0  0  0  0  0  0  0  0  0  0  0
  148.8709  141.2906  154.1121 C   0  0  1  0  0  0  0  0  0  0  0  0
  148.2272  139.9449  153.7756 C   0  0  0  0  0  0  0  0  0  0  0  0
  146.8838  140.0830  154.4556 C   0  0  0  0  0  0  0  0  0  0  0  0
  146.5595  141.5520  154.1843 C   0  0  1  0  0  0  0  0  0  0  0  0
  145.5783  142.1580  155.1991 C   0  0  0  0  0  0  0  0  0  0  0  0
  144.3460  141.4724  155.1498 O   0  0  0  0  0  0  0  0  0  0  0  0
  147.8260  142.2131  154.2387 O   0  0  0  0  0  0  0  0  0  0  0  0
  149.6381  141.6175  153.4094 H   0  0  0  0  0  0  0  0  0  0  0  0
  146.1673  141.6372  153.1691 H   0  0  0  0  0  0  0  0  0  0  0  0
  153.0242  138.3356  154.8135 H   0  0  0  0  0  0  0  0  0  0  0  0
  148.4592  142.5061  156.6949 H   0  0  0  0  0  0  0  0  0  0  0  0
  148.1081  139.8727  152.6938 H   0  0  0  0  0  0  0  0  0  0  0  0
  148.8207  139.0995  154.1256 H   0  0  0  0  0  0  0  0  0  0  0  0
  146.1317  139.4012  154.0581 H   0  0  0  0  0  0  0  0  0  0  0  0
  146.9822  139.8964  155.5263 H   0  0  0  0  0  0  0  0  0  0  0  0
  145.9719  142.0471  156.2100 H   0  0  0  0  0  0  0  0  0  0  0  0
  145.4277  143.2234  155.0271 H   0  0  0  0  0  0  0  0  0  0  0  0
  144.2180  141.1462  154.2722 H   0  0  0  0  0  0  0  0  0  0  0  0
  1  2  2  0  0  0  0
  2  7  1  0  0  0  0
  2  3  1  0  0  0  0
  3  4  1  0  0  0  0
  4  5  2  0  0  0  0
  4 20  1  0  0  0  0
  5  6  1  0  0  0  0
  6 10  1  0  0  0  0
  6  7  2  0  0  0  0
  7  8  1  0  0  0  0
  8  9  2  0  0  0  0
  9 10  1  0  0  0  0
  9 21  1  0  0  0  0
 10 11  1  0  0  0  0
 11 18  1  0  0  0  0
 11 17  1  0  0  0  0
 11 12  1  0  0  0  0
 12 13  1  0  0  0  0
 12 22  1  0  0  0  0
 12 23  1  0  0  0  0
 13 14  1  0  0  0  0
 13 24  1  0  0  0  0
 13 25  1  0  0  0  0
 14 19  1  0  0  0  0
 14 15  1  0  0  0  0
 14 17  1  0  0  0  0
 15 16  1  0  0  0  0
 15 26  1  0  0  0  0
 15 27  1  0  0  0  0
 16 28  1  0  0  0  0
M  CHG  1   3  -1
M  END
> <s_m_source_file>
AV-unprocessed.smi

> <i_m_source_file_index>
44

> <i_lp_mmshare_version>
43012

> <i_f3d_flags>
0

> <s_epik_input>
bjFbY0hdW25IXWMoPU8pYyhjMTIpbltjSF1uMltDQEhdM1tDSDJdW0NIMl1bQ0BIXShPMylbQ0gyXVtPSF0=

> <s_epik_cmdline>
J2VwaWtfcHl0aG9uJywgJy1waCcsICc3LjAnLCAnLXRuJywgJzgnLCAnLW1hJywgJzIwMCcsICctbWV0YWxfYmluZGluZycsICctaW1hZScsICc8aW5maWxlLm1hZT4nLCAnLW9tYWUnLCAnPG91dGZpbGUubWFlPic=

> <r_lp_tautomer_probability>
0.85571

> <r_epik_Ionization_Penalty>
2.55863

> <r_epik_Ionization_Penalty_Charging>
1.36424e-10

> <r_epik_Ionization_Penalty_Neutral>
2.55863

> <r_epik_State_Penalty>
2.63326

> <r_epik_Charging_Adjusted_Penalty>
2.63326

> <i_epik_Tot_Q>
-1

> <i_epik_Tot_abs_Q>
1

> <r_epik_Metal_State_Penalty>
0.475154

> <b_epik_Metal_Only>
1

> <s_epik_Chemistry_Notes>
This compound contains an acetal/aminal-like group ( X-CH(R)-Y where X, Y are N, S, or O) that may be acid/base labile, releasing an aldehyde.

> <s_lp_Force_Field>
OPLS_2005

> <r_lp_Energy>
44.8595

> <b_lp_Chiralities_Consistent>
1

> <s_lp_Variant>
AV-unprocessed.smi:44-9

> <Gold.Version>
5.8.1

> <Gold.Id.Protein>
6NUR|6NUR_protein|mol2

> <Gold.PLP.Fitness>
40.0216

> <Gold.PLP.PLP>
-26.1789

> <Gold.PLP.part.hbond>
-3.1890

> <Gold.PLP.part.metal>
0.0000

> <Gold.PLP.part.buried>
-0.4424

> <Gold.PLP.part.nonpolar>
-23.2952

> <Gold.PLP.part.repulsive>
1.1931

> <Gold.PLP.ligand.clash>
0.0000

> <Gold.PLP.ligand.torsion>
0.0494

> <Gold.PLP.Chemscore.Hbond>
4.0000

> <Gold.PLP.Chemscore.CHOScore>
0.6406

> <Gold.PLP.Chemscore.Metal>
0.0000

> <Gold.Chemscore.Hbonds>
donor molecule, donor type, donor heavy atom, donor atom, acceptor molecule, acceptor atom, score
      L1  H    16    28       P1 10175  1.00
      P1  H  7989  7998       L1     5  0.85
      P1  H  7997  8009       L1     3  1.90
      L1  C     9    21       P1  8028  0.68

> <Gold.PLP.Chemscore.Internal.Correction>
0.0199

> <Gold.Rescore>
     Score         DG    S(hbond)    S(metal)    S(lipo)     H(rot)  DE(clash)    DE(int)     intcor
      8.73      -9.53       2.13        0.00      23.23       2.26       0.78       0.02       ----

> <Gold.Chemscore.Fitness>
8.7346

> <Gold.Chemscore.DG>
-9.5314

> <Gold.Chemscore.ZeroCoef>
-5.4800

> <Gold.Chemscore.Hbond>
2.1307

> <Gold.Chemscore.Metal>
0.0000

> <Gold.Chemscore.Lipo>
23.2251

> <Gold.Chemscore.Internal_Hbond>
0.0000

> <Gold.Chemscore.DEClash>
0.7781

> <Gold.Chemscore.DEInternal>
0.0186

> <Gold.Chemscore.Rot>
2.2588

> <Gold.Chemscore.Internal.Correction>
   9.000000E+99

> <Gold.Chemscore.Hbonds>
donor molecule, donor type, donor heavy atom, donor atom, acceptor molecule, acceptor atom, score
      L1  H    16    28       P1 10175  0.73
      P1  H  7989  7998       L1     5  0.14
      P1  H  7997  8009       L1     3  0.06

> <Gold.Chemscore.Hbond.Weighted>
-7.1165

> <Gold.Chemscore.Metal.Weighted>
-0.0000

> <Gold.Chemscore.Lipo.Weighted>
-2.7173

> <Gold.Chemscore.Internal_Hbond.Weighted>
0.0000

> <Gold.Chemscore.DEClash.Weighted>
0.7781

> <Gold.Chemscore.DEInternal.Weighted>
0.0186

> <Gold.Chemscore.Rot.Weighted>
5.7825

> <Gold.Chemscore.Internal.Correction.Weighted>
   9.000000E+99

> <Gold.Protein.RotatedTorsions>
[ 6907 6896 6895 6894 ] final -167.27 input  -60.11 | X-H torsion
[ 7974 7965 7964 7962 ] final -116.12 input  175.53 | X-H torsion
[ 8008 7997 7996 7995 ] final -168.58 input   59.86 | X-H torsion
[ 10167 10162 10161 10158 ] final  170.50 input  -65.29 | X-H torsion
[ 10718 10713 10712 10709 ] final   35.16 input   66.30 | X-H torsion
[ 10763 10752 10751 10750 ] final    4.49 input  -60.55 | X-H torsion
[ 11005 11000 10999 10996 ] final  127.31 input  -57.11 | X-H torsion

> <Gold.Protein.ActiveResidues>
 VAL166  LYS551  ARG553  GLY616  TRP617  ASP618  TYR619  PRO620  LYS621  CYS622 
 ASP623  PHE694  ASN695  SER759  ASP760  ASP761  ALA762  ILE779  LEU786  VAL792 
 PHE793  MET794  SER795  GLU796  ALA797  LYS798  CYS799  TRP800  GLU811  SER814 

> <Gold.Protein.RotatedAtoms>
  151.4569  133.3603  159.2803 H   0  0  0  0  0  0  0  0  0  0  0  0  # atno 6907 bound_to 6896
  150.9052  134.8468  159.7398 H   0  0  0  0  0  0  0  0  0  0  0  0  # atno 6908 bound_to 6896
  152.4902  134.4493  159.9621 H   0  0  0  0  0  0  0  0  0  0  0  0  # atno 6909 bound_to 6896
  145.1004  140.8548  143.3929 H   0  0  0  0  0  0  0  0  0  0  0  0  # atno 7974 bound_to 7965
  155.8934  140.1028  157.1402 H   0  0  0  0  0  0  0  0  0  0  0  0  # atno 8008 bound_to 7997
  154.4017  140.1306  156.4408 H   0  0  0  0  0  0  0  0  0  0  0  0  # atno 8009 bound_to 7997
  155.7507  140.3465  155.5151 H   0  0  0  0  0  0  0  0  0  0  0  0  # atno 8010 bound_to 7997
  139.5020  144.3590  151.9844 H   0  0  0  0  0  0  0  0  0  0  0  0  # atno 10167 bound_to 10162
  157.3192  130.7439  149.6774 H   0  0  0  0  0  0  0  0  0  0  0  0  # atno 10718 bound_to 10713
  153.2707  135.6932  153.7484 H   0  0  0  0  0  0  0  0  0  0  0  0  # atno 10763 bound_to 10752
  153.6508  135.3377  155.3100 H   0  0  0  0  0  0  0  0  0  0  0  0  # atno 10764 bound_to 10752
  154.8463  135.4454  154.1728 H   0  0  0  0  0  0  0  0  0  0  0  0  # atno 10765 bound_to 10752
  139.9501  134.9623  156.8835 H   0  0  0  0  0  0  0  0  0  0  0  0  # atno 11005 bound_to 11000
  145.0962  139.2855  143.5710 LP  0  0  0  0  0  0  0  0  0  0  0  0  # atno 17320 bound_to 7965
  146.3530  140.0514  142.8635 LP  0  0  0  0  0  0  0  0  0  0  0  0  # atno 17321 bound_to 7965
  140.3026  144.3629  150.6056 LP  0  0  0  0  0  0  0  0  0  0  0  0  # atno 17342 bound_to 10162
  140.5861  143.2170  151.7339 LP  0  0  0  0  0  0  0  0  0  0  0  0  # atno 17343 bound_to 10162
  155.9684  130.4228  150.4533 LP  0  0  0  0  0  0  0  0  0  0  0  0  # atno 17370 bound_to 10713
  157.2545  131.0553  151.2358 LP  0  0  0  0  0  0  0  0  0  0  0  0  # atno 17371 bound_to 10713
  140.5741  134.0415  155.7440 LP  0  0  0  0  0  0  0  0  0  0  0  0  # atno 17394 bound_to 11000
  141.1161  133.9538  157.2819 LP  0  0  0  0  0  0  0  0  0  0  0  0  # atno 17395 bound_to 11000

$$$$
