AV-unprocessed.smi:636|AV-procd|sdf|3140|dock3
  -GOLD-   22720 0 63D 1   1.00000     0.00000
 Structure written by MMmdl.
 39 41  0  0  0  0  0  0  0  0  1 V2000
  150.4082  142.0275  155.8050 O   0  0  0  0  0  0  0  0  0  0  0  0
  150.8257  140.8864  155.9974 C   0  0  0  0  0  0  0  0  0  0  0  0
  152.2561  140.6971  156.5322 C   0  0  0  0  0  0  0  0  0  0  0  0
  152.4822  141.2129  157.8949 N   0  0  0  0  0  0  0  0  0  0  0  0
  151.6580  142.2729  158.3178 C   0  0  0  0  0  0  0  0  0  0  0  0
  151.7585  142.8370  159.5354 C   0  0  0  0  0  0  0  0  0  0  0  0
  150.9015  144.0262  159.9395 C   0  0  0  0  0  0  0  0  0  0  0  0
  149.6140  143.6859  159.9126 F   0  0  0  0  0  0  0  0  0  0  0  0
  151.1981  144.4335  161.1736 F   0  0  0  0  0  0  0  0  0  0  0  0
  151.0777  145.0522  159.1063 F   0  0  0  0  0  0  0  0  0  0  0  0
  152.7937  142.3139  160.4040 C   0  0  0  0  0  0  0  0  0  0  0  0
  153.6045  141.3090  160.0157 C   0  0  0  0  0  0  0  0  0  0  0  0
  154.8225  140.7248  161.0924 Cl  0  0  0  0  0  0  0  0  0  0  0  0
  153.4708  140.6988  158.6868 C   0  0  0  0  0  0  0  0  0  0  0  0
  154.2043  139.7877  158.3009 O   0  0  0  0  0  0  0  0  0  0  0  0
  150.0872  139.7889  155.7588 N   0  0  0  0  0  0  0  0  0  0  0  0
  148.7195  139.7655  155.2548 C   0  0  0  0  0  0  0  0  0  0  0  0
  148.4891  140.7851  154.1515 C   0  0  0  0  0  0  0  0  0  0  0  0
  147.2307  141.6197  154.1014 C   0  0  0  0  0  0  0  0  0  0  0  0
  147.4702  140.5496  153.0614 C   0  0  0  0  0  0  0  0  0  0  0  0
  147.7170  139.9669  156.3761 C   0  0  0  0  0  0  0  0  0  0  0  0
  147.3271  138.8269  157.2858 C   0  0  0  0  0  0  0  0  0  0  0  0
  146.3237  139.3888  156.3033 C   0  0  0  0  0  0  0  0  0  0  0  0
  152.4897  139.6321  156.4959 H   0  0  0  0  0  0  0  0  0  0  0  0
  152.9519  141.1574  155.8285 H   0  0  0  0  0  0  0  0  0  0  0  0
  150.9447  142.6082  157.5788 H   0  0  0  0  0  0  0  0  0  0  0  0
  152.9190  142.7362  161.3902 H   0  0  0  0  0  0  0  0  0  0  0  0
  150.5113  138.8914  155.9428 H   0  0  0  0  0  0  0  0  0  0  0  0
  148.5293  138.7757  154.8346 H   0  0  0  0  0  0  0  0  0  0  0  0
  149.3987  141.2970  153.8424 H   0  0  0  0  0  0  0  0  0  0  0  0
  146.4590  141.4278  154.8436 H   0  0  0  0  0  0  0  0  0  0  0  0
  147.3292  142.6571  153.7882 H   0  0  0  0  0  0  0  0  0  0  0  0
  147.7297  140.8721  152.0553 H   0  0  0  0  0  0  0  0  0  0  0  0
  146.8591  139.6512  153.1196 H   0  0  0  0  0  0  0  0  0  0  0  0
  147.7950  140.9418  156.8543 H   0  0  0  0  0  0  0  0  0  0  0  0
  147.7410  137.8433  157.0724 H   0  0  0  0  0  0  0  0  0  0  0  0
  147.1819  139.0533  158.3399 H   0  0  0  0  0  0  0  0  0  0  0  0
  145.5098  139.9904  156.7024 H   0  0  0  0  0  0  0  0  0  0  0  0
  146.0698  138.7724  155.4435 H   0  0  0  0  0  0  0  0  0  0  0  0
  1  2  2  0  0  0  0
  2  3  1  0  0  0  0
  2 16  1  0  0  0  0
  3  4  1  0  0  0  0
  3 24  1  0  0  0  0
  3 25  1  0  0  0  0
  4 14  1  0  0  0  0
  4  5  1  0  0  0  0
  5  6  2  0  0  0  0
  5 26  1  0  0  0  0
  6  7  1  0  0  0  0
  6 11  1  0  0  0  0
  7  8  1  0  0  0  0
  7  9  1  0  0  0  0
  7 10  1  0  0  0  0
 11 12  2  0  0  0  0
 11 27  1  0  0  0  0
 12 13  1  0  0  0  0
 12 14  1  0  0  0  0
 14 15  2  0  0  0  0
 16 17  1  0  0  0  0
 16 28  1  0  0  0  0
 17 18  1  0  0  0  0
 17 21  1  0  0  0  0
 17 29  1  0  0  0  0
 18 20  1  0  0  0  0
 18 19  1  0  0  0  0
 18 30  1  0  0  0  0
 19 20  1  0  0  0  0
 19 31  1  0  0  0  0
 19 32  1  0  0  0  0
 20 33  1  0  0  0  0
 20 34  1  0  0  0  0
 21 23  1  0  0  0  0
 21 22  1  0  0  0  0
 21 35  1  0  0  0  0
 22 23  1  0  0  0  0
 22 36  1  0  0  0  0
 22 37  1  0  0  0  0
 23 38  1  0  0  0  0
 23 39  1  0  0  0  0
M  END
> <s_m_source_file>
AV-unprocessed.smi

> <i_m_source_file_index>
636

> <i_lp_mmshare_version>
43012

> <i_f3d_flags>
0

> <s_epik_input>
W0NIMl0xW0NIMl1bQ0hdMVtDSF0oW0NIXTJbQ0gyXVtDSDJdMilbTkhdQyg9TylbQ0gyXW4zW2NIXWMoQyhGKShGKUYpW2NIXWMoQ2wpYzM9Tw==

> <s_epik_cmdline>
J2VwaWtfcHl0aG9uJywgJy1waCcsICc3LjAnLCAnLXRuJywgJzgnLCAnLW1hJywgJzIwMCcsICctbWV0YWxfYmluZGluZycsICctaW1hZScsICc8aW5maWxlLm1hZT4nLCAnLW9tYWUnLCAnPG91dGZpbGUubWFlPic=

> <r_lp_tautomer_probability>
1

> <r_epik_Ionization_Penalty>
2.07964e-08

> <r_epik_Ionization_Penalty_Charging>
3.83819e-10

> <r_epik_Ionization_Penalty_Neutral>
2.04126e-08

> <r_epik_State_Penalty>
-0

> <r_epik_Charging_Adjusted_Penalty>
3.83819e-10

> <i_epik_Tot_Q>
0

> <i_epik_Tot_abs_Q>
0

> <r_epik_Metal_State_Penalty>
-0

> <b_epik_Metal_Only>
0

> <s_lp_Force_Field>
OPLS_2005

> <r_lp_Energy>
34.6708

> <b_lp_Chiralities_Consistent>
1

> <s_lp_Variant>
AV-unprocessed.smi:636-1

> <Gold.Version>
5.8.1

> <Gold.Id.Protein>
6NUR|6NUR_protein|mol2

> <Gold.PLP.Fitness>
46.9322

> <Gold.PLP.PLP>
-46.6078

> <Gold.PLP.part.hbond>
-1.0000

> <Gold.PLP.part.metal>
0.0000

> <Gold.PLP.part.buried>
-5.5911

> <Gold.PLP.part.nonpolar>
-39.5426

> <Gold.PLP.part.repulsive>
0.3762

> <Gold.PLP.ligand.clash>
0.0000

> <Gold.PLP.ligand.torsion>
2.1759

> <Gold.PLP.Chemscore.Hbond>
0.8000

> <Gold.PLP.Chemscore.CHOScore>
0.0000

> <Gold.PLP.Chemscore.Metal>
0.0000

> <Gold.Chemscore.Hbonds>
donor molecule, donor type, donor heavy atom, donor atom, acceptor molecule, acceptor atom, score
      P1  H  7997  8010       L1    15  0.37

> <Gold.PLP.Chemscore.Internal.Correction>
2.2761

> <Gold.Rescore>
     Score         DG    S(hbond)    S(metal)    S(lipo)     H(rot)  DE(clash)    DE(int)     intcor
      8.89     -13.87       0.75        0.00      91.68       1.90       0.23       4.74       ----

> <Gold.Chemscore.Fitness>
8.8898

> <Gold.Chemscore.DG>
-13.8657

> <Gold.Chemscore.ZeroCoef>
-5.4800

> <Gold.Chemscore.Hbond>
0.7539

> <Gold.Chemscore.Metal>
0.0000

> <Gold.Chemscore.Lipo>
91.6785

> <Gold.Chemscore.Internal_Hbond>
0.0000

> <Gold.Chemscore.DEClash>
0.2335

> <Gold.Chemscore.DEInternal>
4.7425

> <Gold.Chemscore.Rot>
1.8979

> <Gold.Chemscore.Internal.Correction>
   9.000000E+99

> <Gold.Chemscore.Hbonds>
donor molecule, donor type, donor heavy atom, donor atom, acceptor molecule, acceptor atom, score
      P1  H  7997  8010       L1    15  0.35

> <Gold.Chemscore.Hbond.Weighted>
-2.5179

> <Gold.Chemscore.Metal.Weighted>
-0.0000

> <Gold.Chemscore.Lipo.Weighted>
-10.7264

> <Gold.Chemscore.Internal_Hbond.Weighted>
0.0000

> <Gold.Chemscore.DEClash.Weighted>
0.2335

> <Gold.Chemscore.DEInternal.Weighted>
4.7425

> <Gold.Chemscore.Rot.Weighted>
4.8586

> <Gold.Chemscore.Internal.Correction.Weighted>
   9.000000E+99

> <Gold.Protein.RotatedTorsions>
[ 6907 6896 6895 6894 ] final   90.56 input  -60.11 | X-H torsion
[ 7974 7965 7964 7962 ] final -100.25 input  175.53 | X-H torsion
[ 8008 7997 7996 7995 ] final    9.26 input   59.86 | X-H torsion
[ 10167 10162 10161 10158 ] final  -10.28 input  -65.29 | X-H torsion
[ 10718 10713 10712 10709 ] final  115.95 input   66.30 | X-H torsion
[ 10763 10752 10751 10750 ] final -155.76 input  -60.55 | X-H torsion
[ 11005 11000 10999 10996 ] final  -33.36 input  -57.11 | X-H torsion

> <Gold.Protein.ActiveResidues>
 VAL166  LYS551  ARG553  GLY616  TRP617  ASP618  TYR619  PRO620  LYS621  CYS622 
 ASP623  PHE694  ASN695  SER759  ASP760  ASP761  ALA762  ILE779  LEU786  VAL792 
 PHE793  MET794  SER795  GLU796  ALA797  LYS798  CYS799  TRP800  GLU811  SER814 

> <Gold.Protein.RotatedAtoms>
  152.5445  134.1792  159.8628 H   0  0  0  0  0  0  0  0  0  0  0  0  # atno 6907 bound_to 6896
  151.1796  133.4726  159.2601 H   0  0  0  0  0  0  0  0  0  0  0  0  # atno 6908 bound_to 6896
  151.1192  135.0081  159.8586 H   0  0  0  0  0  0  0  0  0  0  0  0  # atno 6909 bound_to 6896
  145.2970  140.9367  143.2845 H   0  0  0  0  0  0  0  0  0  0  0  0  # atno 7974 bound_to 7965
  154.7777  140.2813  155.6088 H   0  0  0  0  0  0  0  0  0  0  0  0  # atno 8008 bound_to 7997
  156.2944  140.2629  156.2522 H   0  0  0  0  0  0  0  0  0  0  0  0  # atno 8009 bound_to 7997
  154.9823  140.0374  157.2272 H   0  0  0  0  0  0  0  0  0  0  0  0  # atno 8010 bound_to 7997
  140.7110  143.5765  150.9037 H   0  0  0  0  0  0  0  0  0  0  0  0  # atno 10167 bound_to 10162
  157.6191  131.1019  150.7403 H   0  0  0  0  0  0  0  0  0  0  0  0  # atno 10718 bound_to 10713
  154.7763  135.3160  154.8084 H   0  0  0  0  0  0  0  0  0  0  0  0  # atno 10763 bound_to 10752
  153.8806  135.6835  153.4771 H   0  0  0  0  0  0  0  0  0  0  0  0  # atno 10764 bound_to 10752
  153.1388  135.4748  154.9400 H   0  0  0  0  0  0  0  0  0  0  0  0  # atno 10765 bound_to 10752
  140.9629  133.7154  156.1398 H   0  0  0  0  0  0  0  0  0  0  0  0  # atno 11005 bound_to 11000
  144.9125  139.4511  143.6580 LP  0  0  0  0  0  0  0  0  0  0  0  0  # atno 17320 bound_to 7965
  146.3165  139.7941  142.8979 LP  0  0  0  0  0  0  0  0  0  0  0  0  # atno 17321 bound_to 7965
  139.9491  143.6293  152.3034 LP  0  0  0  0  0  0  0  0  0  0  0  0  # atno 17342 bound_to 10162
  139.6805  144.7656  151.1617 LP  0  0  0  0  0  0  0  0  0  0  0  0  # atno 17343 bound_to 10162
  156.7764  130.4845  149.5409 LP  0  0  0  0  0  0  0  0  0  0  0  0  # atno 17370 bound_to 10713
  156.1327  130.6189  151.0356 LP  0  0  0  0  0  0  0  0  0  0  0  0  # atno 17371 bound_to 10713
  140.7442  134.4117  157.5550 LP  0  0  0  0  0  0  0  0  0  0  0  0  # atno 17394 bound_to 11000
  139.8884  134.8857  156.2475 LP  0  0  0  0  0  0  0  0  0  0  0  0  # atno 17395 bound_to 11000

$$$$
