AV-unprocessed.smi:1745|AV-procd|sdf|7031|dock8
  -GOLD-   22720 8253D 1   1.00000     0.00000
 Structure written by MMmdl.
 47 49  0  0  0  0  0  0  0  0  1 V2000
  146.3846  138.9368  150.7108 C   0  0  0  0  0  0  0  0  0  0  0  0
  146.2959  138.4578  152.1675 C   0  0  2  0  0  0  0  0  0  0  0  0
  147.6182  138.5778  152.7800 N   0  0  0  0  0  0  0  0  0  0  0  0
  147.9361  139.3639  153.8188 C   0  0  0  0  0  0  0  0  0  0  0  0
  147.1251  140.0794  154.4061 O   0  0  0  0  0  0  0  0  0  0  0  0
  149.2444  139.2705  154.1111 N   0  0  0  0  0  0  0  0  0  0  0  0
  149.9792  139.9723  155.1040 C   0  0  0  0  0  0  0  0  0  0  0  0
  151.2238  139.5489  155.6245 C   0  0  0  0  0  0  0  0  0  0  0  0
  151.8589  140.3401  156.6007 C   0  0  0  0  0  0  0  0  0  0  0  0
  151.2432  141.5395  157.0295 C   0  0  0  0  0  0  0  0  0  0  0  0
  151.8590  142.3415  158.0148 N   0  0  0  0  0  0  0  0  0  0  0  0
  151.4961  143.7564  158.0042 C   0  0  0  0  0  0  0  0  0  0  0  0
  152.4579  144.5619  158.8952 C   0  0  0  0  0  0  0  0  0  0  0  0
  152.4843  144.0049  160.2053 O   0  0  0  0  0  0  0  0  0  0  0  0
  152.9500  142.6596  160.1997 C   0  0  0  0  0  0  0  0  0  0  0  0
  152.0019  141.7875  159.3596 C   0  0  0  0  0  0  0  0  0  0  0  0
  150.0553  141.9472  156.5190 N   0  0  0  0  0  0  0  0  0  0  0  0
  149.4516  141.1879  155.5816 C   0  0  0  0  0  0  0  0  0  0  0  0
  145.7812  137.0066  152.2653 C   0  0  1  0  0  0  0  0  0  0  0  0
  144.2878  136.8666  152.5697 C   0  0  0  0  0  0  0  0  0  0  0  0
  143.9899  135.4915  152.0190 C   0  0  0  0  0  0  0  0  0  0  0  0
  144.8513  135.4682  150.7602 C   0  0  0  0  0  0  0  0  0  0  0  0
  145.9559  136.3307  151.0217 O   0  0  0  0  0  0  0  0  0  0  0  0
  145.4107  138.8976  150.2225 H   0  0  0  0  0  0  0  0  0  0  0  0
  147.0727  138.3208  150.1306 H   0  0  0  0  0  0  0  0  0  0  0  0
  146.7349  139.9682  150.6576 H   0  0  0  0  0  0  0  0  0  0  0  0
  145.5880  139.1092  152.6836 H   0  0  0  0  0  0  0  0  0  0  0  0
  148.3550  138.0269  152.3648 H   0  0  0  0  0  0  0  0  0  0  0  0
  149.7951  138.6901  153.4956 H   0  0  0  0  0  0  0  0  0  0  0  0
  151.7069  138.6434  155.2922 H   0  0  0  0  0  0  0  0  0  0  0  0
  152.7996  140.0113  157.0162 H   0  0  0  0  0  0  0  0  0  0  0  0
  151.5145  144.1715  156.9977 H   0  0  0  0  0  0  0  0  0  0  0  0
  150.4740  143.8591  158.3705 H   0  0  0  0  0  0  0  0  0  0  0  0
  153.4639  144.5707  158.4723 H   0  0  0  0  0  0  0  0  0  0  0  0
  152.1306  145.5999  158.9580 H   0  0  0  0  0  0  0  0  0  0  0  0
  153.9674  142.6173  159.8076 H   0  0  0  0  0  0  0  0  0  0  0  0
  152.9883  142.2914  161.2250 H   0  0  0  0  0  0  0  0  0  0  0  0
  151.0214  141.7360  159.8350 H   0  0  0  0  0  0  0  0  0  0  0  0
  152.3957  140.7714  159.3095 H   0  0  0  0  0  0  0  0  0  0  0  0
  148.5095  141.5617  155.2076 H   0  0  0  0  0  0  0  0  0  0  0  0
  146.3470  136.4580  153.0204 H   0  0  0  0  0  0  0  0  0  0  0  0
  144.0574  136.9598  153.6313 H   0  0  0  0  0  0  0  0  0  0  0  0
  143.7112  137.6167  152.0260 H   0  0  0  0  0  0  0  0  0  0  0  0
  144.3261  134.7268  152.7205 H   0  0  0  0  0  0  0  0  0  0  0  0
  142.9315  135.3287  151.8148 H   0  0  0  0  0  0  0  0  0  0  0  0
  145.1840  134.4620  150.5045 H   0  0  0  0  0  0  0  0  0  0  0  0
  144.2960  135.8670  149.9105 H   0  0  0  0  0  0  0  0  0  0  0  0
  1  2  1  0  0  0  0
  1 24  1  0  0  0  0
  1 25  1  0  0  0  0
  1 26  1  0  0  0  0
  2  3  1  0  0  0  0
  2 19  1  0  0  0  0
  2 27  1  0  0  0  0
  3  4  1  0  0  0  0
  3 28  1  0  0  0  0
  4  5  2  0  0  0  0
  4  6  1  0  0  0  0
  6  7  1  0  0  0  0
  6 29  1  0  0  0  0
  7 18  1  0  0  0  0
  7  8  2  0  0  0  0
  8  9  1  0  0  0  0
  8 30  1  0  0  0  0
  9 10  2  0  0  0  0
  9 31  1  0  0  0  0
 10 11  1  0  0  0  0
 10 17  1  0  0  0  0
 11 16  1  0  0  0  0
 11 12  1  0  0  0  0
 12 13  1  0  0  0  0
 12 32  1  0  0  0  0
 12 33  1  0  0  0  0
 13 14  1  0  0  0  0
 13 34  1  0  0  0  0
 13 35  1  0  0  0  0
 14 15  1  0  0  0  0
 15 16  1  0  0  0  0
 15 36  1  0  0  0  0
 15 37  1  0  0  0  0
 16 38  1  0  0  0  0
 16 39  1  0  0  0  0
 17 18  2  0  0  0  0
 18 40  1  0  0  0  0
 19 23  1  0  0  0  0
 19 20  1  0  0  0  0
 19 41  1  0  0  0  0
 20 21  1  0  0  0  0
 20 42  1  0  0  0  0
 20 43  1  0  0  0  0
 21 22  1  0  0  0  0
 21 44  1  0  0  0  0
 21 45  1  0  0  0  0
 22 23  1  0  0  0  0
 22 46  1  0  0  0  0
 22 47  1  0  0  0  0
M  END
> <s_m_source_file>
AV-unprocessed.smi

> <i_m_source_file_index>
1745

> <i_lp_mmshare_version>
43012

> <i_f3d_flags>
0

> <s_epik_input>
TzFbQ0gyXVtDSDJdW0NIMl1bQ0BIXTFbQ0BIXShbQ0gzXSlbTkhdQyg9TylbTkhdYzJbY0hdW2NIXWMobltjSF0yKU4zW0NIMl1bQ0gyXU9bQ0gyXVtDSDJdMw==

> <s_epik_cmdline>
J2VwaWtfcHl0aG9uJywgJy1waCcsICc3LjAnLCAnLXRuJywgJzgnLCAnLW1hJywgJzIwMCcsICctbWV0YWxfYmluZGluZycsICctaW1hZScsICc8aW5maWxlLm1hZT4nLCAnLW9tYWUnLCAnPG91dGZpbGUubWFlPic=

> <r_lp_tautomer_probability>
1

> <r_epik_Ionization_Penalty>
0.00206005

> <r_epik_Ionization_Penalty_Charging>
0

> <r_epik_Ionization_Penalty_Neutral>
0.00206005

> <r_epik_State_Penalty>
0.00138459

> <r_epik_Charging_Adjusted_Penalty>
0.00138459

> <i_epik_Tot_Q>
0

> <i_epik_Tot_abs_Q>
0

> <r_epik_Metal_State_Penalty>
-0

> <b_epik_Metal_Only>
0

> <s_lp_Force_Field>
OPLS_2005

> <r_lp_Energy>
34.4703

> <b_lp_Chiralities_Consistent>
1

> <s_lp_Variant>
AV-unprocessed.smi:1745-3

> <Gold.Version>
5.8.1

> <Gold.Id.Protein>
6NUR|6NUR_protein|mol2

> <Gold.PLP.Fitness>
42.4969

> <Gold.PLP.PLP>
-42.4229

> <Gold.PLP.part.hbond>
-2.9796

> <Gold.PLP.part.metal>
0.0000

> <Gold.PLP.part.buried>
-0.5674

> <Gold.PLP.part.nonpolar>
-41.1484

> <Gold.PLP.part.repulsive>
1.3525

> <Gold.PLP.ligand.clash>
0.0000

> <Gold.PLP.ligand.torsion>
1.5858

> <Gold.PLP.Chemscore.Hbond>
0.9600

> <Gold.PLP.Chemscore.CHOScore>
0.0000

> <Gold.PLP.Chemscore.Metal>
0.0000

> <Gold.Chemscore.Hbonds>
donor molecule, donor type, donor heavy atom, donor atom, acceptor molecule, acceptor atom, score
      L1  H     3    28       P1  7948  0.94

> <Gold.PLP.Chemscore.Internal.Correction>
0.3656

> <Gold.Rescore>
     Score         DG    S(hbond)    S(metal)    S(lipo)     H(rot)  DE(clash)    DE(int)     intcor
     14.01     -18.29       0.97        0.00     112.41       1.40       1.67       2.61       ----

> <Gold.Chemscore.Fitness>
14.0135

> <Gold.Chemscore.DG>
-18.2869

> <Gold.Chemscore.ZeroCoef>
-5.4800

> <Gold.Chemscore.Hbond>
0.9659

> <Gold.Chemscore.Metal>
0.0000

> <Gold.Chemscore.Lipo>
112.4088

> <Gold.Chemscore.Internal_Hbond>
0.0000

> <Gold.Chemscore.DEClash>
1.6665

> <Gold.Chemscore.DEInternal>
2.6069

> <Gold.Chemscore.Rot>
1.3950

> <Gold.Chemscore.Internal.Correction>
   9.000000E+99

> <Gold.Chemscore.Hbonds>
donor molecule, donor type, donor heavy atom, donor atom, acceptor molecule, acceptor atom, score
      L1  H     3    28       P1  7948  0.90

> <Gold.Chemscore.Hbond.Weighted>
-3.2262

> <Gold.Chemscore.Metal.Weighted>
-0.0000

> <Gold.Chemscore.Lipo.Weighted>
-13.1518

> <Gold.Chemscore.Internal_Hbond.Weighted>
0.0000

> <Gold.Chemscore.DEClash.Weighted>
1.6665

> <Gold.Chemscore.DEInternal.Weighted>
2.6069

> <Gold.Chemscore.Rot.Weighted>
3.5712

> <Gold.Chemscore.Internal.Correction.Weighted>
   9.000000E+99

> <Gold.Protein.RotatedTorsions>
[ 6907 6896 6895 6894 ] final   29.59 input  -60.11 | X-H torsion
[ 7974 7965 7964 7962 ] final  151.17 input  175.53 | X-H torsion
[ 8008 7997 7996 7995 ] final -149.22 input   59.86 | X-H torsion
[ 10167 10162 10161 10158 ] final  134.32 input  -65.29 | X-H torsion
[ 10718 10713 10712 10709 ] final   33.35 input   66.30 | X-H torsion
[ 10763 10752 10751 10750 ] final   76.94 input  -60.55 | X-H torsion
[ 11005 11000 10999 10996 ] final  -98.75 input  -57.11 | X-H torsion

> <Gold.Protein.ActiveResidues>
 VAL166  LYS551  ARG553  GLY616  TRP617  ASP618  TYR619  PRO620  LYS621  CYS622 
 ASP623  PHE694  ASN695  SER759  ASP760  ASP761  ALA762  ILE779  LEU786  VAL792 
 PHE793  MET794  SER795  GLU796  ALA797  LYS798  CYS799  TRP800  GLU811  SER814 

> <Gold.Protein.RotatedAtoms>
  152.0337  134.9753  160.0572 H   0  0  0  0  0  0  0  0  0  0  0  0  # atno 6907 bound_to 6896
  152.1219  133.4353  159.4688 H   0  0  0  0  0  0  0  0  0  0  0  0  # atno 6908 bound_to 6896
  150.6849  134.2443  159.4528 H   0  0  0  0  0  0  0  0  0  0  0  0  # atno 6909 bound_to 6896
  144.8311  139.6503  143.6058 H   0  0  0  0  0  0  0  0  0  0  0  0  # atno 7974 bound_to 7965
  155.6041  140.0665  157.2724 H   0  0  0  0  0  0  0  0  0  0  0  0  # atno 8008 bound_to 7997
  154.4271  140.1813  156.1251 H   0  0  0  0  0  0  0  0  0  0  0  0  # atno 8009 bound_to 7997
  156.0136  140.3324  155.6969 H   0  0  0  0  0  0  0  0  0  0  0  0  # atno 8010 bound_to 7997
  139.5261  144.6573  151.5123 H   0  0  0  0  0  0  0  0  0  0  0  0  # atno 10167 bound_to 10162
  157.2968  130.7330  149.6643 H   0  0  0  0  0  0  0  0  0  0  0  0  # atno 10718 bound_to 10713
  153.0762  135.4933  154.8408 H   0  0  0  0  0  0  0  0  0  0  0  0  # atno 10763 bound_to 10752
  154.7090  135.3016  154.9229 H   0  0  0  0  0  0  0  0  0  0  0  0  # atno 10764 bound_to 10752
  153.9928  135.6776  153.4808 H   0  0  0  0  0  0  0  0  0  0  0  0  # atno 10765 bound_to 10752
  141.1334  133.8269  157.0880 H   0  0  0  0  0  0  0  0  0  0  0  0  # atno 11005 bound_to 11000
  146.2614  139.6419  142.9359 LP  0  0  0  0  0  0  0  0  0  0  0  0  # atno 17320 bound_to 7965
  145.4893  141.0438  143.2602 LP  0  0  0  0  0  0  0  0  0  0  0  0  # atno 17321 bound_to 7965
  140.6404  143.8900  150.6686 LP  0  0  0  0  0  0  0  0  0  0  0  0  # atno 17342 bound_to 10162
  140.2232  143.3792  152.1625 LP  0  0  0  0  0  0  0  0  0  0  0  0  # atno 17343 bound_to 10162
  155.9669  130.4292  150.4822 LP  0  0  0  0  0  0  0  0  0  0  0  0  # atno 17370 bound_to 10713
  157.2796  131.0604  151.2207 LP  0  0  0  0  0  0  0  0  0  0  0  0  # atno 17371 bound_to 10713
  140.0410  134.9854  157.0961 LP  0  0  0  0  0  0  0  0  0  0  0  0  # atno 17394 bound_to 11000
  140.4136  134.1955  155.7163 LP  0  0  0  0  0  0  0  0  0  0  0  0  # atno 17395 bound_to 11000

$$$$
