AV-unprocessed.smi:270|AV-procd|sdf|2045|dock5
  -GOLD-   2262021273D 1   1.00000     0.00000
 Structure written by MMmdl.
 54 57  0  0  0  0  0  0  0  0  1 V2000
  152.6364  142.2892  159.7476 C   0  0  0  0  0  0  0  0  0  0  0  0
  151.6931  142.2836  158.5345 C   0  0  2  0  0  0  0  0  0  0  0  0
  150.4848  142.9307  158.9262 O   0  0  0  0  0  0  0  0  0  0  0  0
  149.4052  142.3635  158.2053 C   0  0  0  0  0  0  0  0  0  0  0  0
  149.7577  140.8842  158.1995 C   0  0  0  0  0  0  0  0  0  0  0  0
  151.2685  140.8925  157.9834 C   0  0  1  0  0  0  0  0  0  0  0  0
  151.5057  140.8953  156.5849 O   0  0  0  0  0  0  0  0  0  0  0  0
  151.9905  139.6593  158.5879 C   0  0  0  0  0  0  0  0  0  0  0  0
  151.4257  138.3892  158.1562 N   0  0  0  0  0  0  0  0  0  0  0  0
  150.8107  137.4480  158.9500 C   0  0  0  0  0  0  0  0  0  0  0  0
  150.3843  136.3855  158.3243 N   0  0  0  0  0  0  0  0  0  0  0  0
  150.7273  136.6084  156.9954 C   0  0  0  0  0  0  0  0  0  0  0  0
  150.5597  135.8578  155.7948 C   0  0  0  0  0  0  0  0  0  0  0  0
  149.9185  134.5872  155.7237 N   0  0  0  0  0  0  0  0  0  0  0  0
  150.6884  133.4464  156.1975 C   0  0  0  0  0  0  0  0  0  0  0  0
  150.1552  132.6823  154.9812 C   0  0  0  0  0  0  0  0  0  0  0  0
  149.0591  131.8290  155.2716 O   0  0  0  0  0  0  0  0  0  0  0  0
  148.2991  131.4964  154.1210 C   0  0  0  0  0  0  0  0  0  0  0  0
  148.7762  130.1396  153.5900 C   0  0  0  0  0  0  0  0  0  0  0  0
  149.8740  129.7224  153.9614 O   0  0  0  0  0  0  0  0  0  0  0  0
  147.9813  129.4442  152.7430 N   0  0  0  0  0  0  0  0  0  0  0  0
  146.6899  129.9438  152.2619 C   0  0  0  0  0  0  0  0  0  0  0  0
  148.3945  128.1345  152.2321 C   0  0  0  0  0  0  0  0  0  0  0  0
  149.6988  134.0206  154.3981 C   0  0  0  0  0  0  0  0  0  0  0  0
  151.0103  136.4436  154.6527 N   0  0  0  0  0  0  0  0  0  0  0  0
  151.6005  137.6418  154.6756 C   0  0  0  0  0  0  0  0  0  0  0  0
  151.8350  138.4345  155.7210 N   0  0  0  0  0  0  0  0  0  0  0  0
  151.3736  137.8723  156.8732 C   0  0  0  0  0  0  0  0  0  0  0  0
  153.5896  141.8144  159.5144 H   0  0  0  0  0  0  0  0  0  0  0  0
  152.1956  141.7721  160.6001 H   0  0  0  0  0  0  0  0  0  0  0  0
  152.8503  143.3109  160.0619 H   0  0  0  0  0  0  0  0  0  0  0  0
  152.1478  142.8837  157.7438 H   0  0  0  0  0  0  0  0  0  0  0  0
  148.4478  142.5686  158.6846 H   0  0  0  0  0  0  0  0  0  0  0  0
  149.3819  142.7686  157.1925 H   0  0  0  0  0  0  0  0  0  0  0  0
  149.5211  140.4667  159.1788 H   0  0  0  0  0  0  0  0  0  0  0  0
  149.2063  140.3121  157.4519 H   0  0  0  0  0  0  0  0  0  0  0  0
  151.3411  141.7655  156.2554 H   0  0  0  0  0  0  0  0  0  0  0  0
  153.0485  139.6677  158.3225 H   0  0  0  0  0  0  0  0  0  0  0  0
  151.9463  139.6863  159.6768 H   0  0  0  0  0  0  0  0  0  0  0  0
  150.6912  137.5736  160.0163 H   0  0  0  0  0  0  0  0  0  0  0  0
  151.7674  133.6043  156.1600 H   0  0  0  0  0  0  0  0  0  0  0  0
  150.3523  133.0683  157.1632 H   0  0  0  0  0  0  0  0  0  0  0  0
  150.9326  132.2067  154.3809 H   0  0  0  0  0  0  0  0  0  0  0  0
  147.2421  131.4322  154.3850 H   0  0  0  0  0  0  0  0  0  0  0  0
  148.3874  132.2586  153.3462 H   0  0  0  0  0  0  0  0  0  0  0  0
  145.9749  130.0134  153.0822 H   0  0  0  0  0  0  0  0  0  0  0  0
  146.2505  129.2968  151.5021 H   0  0  0  0  0  0  0  0  0  0  0  0
  146.7916  130.9305  151.8090 H   0  0  0  0  0  0  0  0  0  0  0  0
  149.1279  128.2573  151.4341 H   0  0  0  0  0  0  0  0  0  0  0  0
  147.5569  127.5623  151.8324 H   0  0  0  0  0  0  0  0  0  0  0  0
  148.8445  127.5227  153.0156 H   0  0  0  0  0  0  0  0  0  0  0  0
  148.6565  134.0449  154.0795 H   0  0  0  0  0  0  0  0  0  0  0  0
  150.3804  134.3970  153.6338 H   0  0  0  0  0  0  0  0  0  0  0  0
  151.9297  138.0194  153.7188 H   0  0  0  0  0  0  0  0  0  0  0  0
  1  2  1  0  0  0  0
  1 29  1  0  0  0  0
  1 30  1  0  0  0  0
  1 31  1  0  0  0  0
  2  6  1  0  0  0  0
  2  3  1  0  0  0  0
  2 32  1  0  0  0  0
  3  4  1  0  0  0  0
  4  5  1  0  0  0  0
  4 33  1  0  0  0  0
  4 34  1  0  0  0  0
  5  6  1  0  0  0  0
  5 35  1  0  0  0  0
  5 36  1  0  0  0  0
  6  7  1  0  0  0  0
  6  8  1  0  0  0  0
  7 37  1  0  0  0  0
  8  9  1  0  0  0  0
  8 38  1  0  0  0  0
  8 39  1  0  0  0  0
  9 28  1  0  0  0  0
  9 10  1  0  0  0  0
 10 11  2  0  0  0  0
 10 40  1  0  0  0  0
 11 12  1  0  0  0  0
 12 28  2  0  0  0  0
 12 13  1  0  0  0  0
 13 14  1  0  0  0  0
 13 25  2  0  0  0  0
 14 24  1  0  0  0  0
 14 15  1  0  0  0  0
 15 16  1  0  0  0  0
 15 41  1  0  0  0  0
 15 42  1  0  0  0  0
 16 17  1  0  0  0  0
 16 24  1  0  0  0  0
 16 43  1  0  0  0  0
 17 18  1  0  0  0  0
 18 19  1  0  0  0  0
 18 44  1  0  0  0  0
 18 45  1  0  0  0  0
 19 20  2  0  0  0  0
 19 21  1  0  0  0  0
 21 22  1  0  0  0  0
 21 23  1  0  0  0  0
 22 46  1  0  0  0  0
 22 47  1  0  0  0  0
 22 48  1  0  0  0  0
 23 49  1  0  0  0  0
 23 50  1  0  0  0  0
 23 51  1  0  0  0  0
 24 52  1  0  0  0  0
 24 53  1  0  0  0  0
 25 26  1  0  0  0  0
 26 27  2  0  0  0  0
 26 54  1  0  0  0  0
 27 28  1  0  0  0  0
M  END
> <s_m_source_file>
AV-unprocessed.smi

> <i_m_source_file_index>
270

> <i_lp_mmshare_version>
43012

> <i_f3d_flags>
0

> <s_epik_input>
W0NIMl0xW0NIMl1PW0NAQEhdKFtDSDNdKVtDQEBdMShbT0hdKVtDSDJdbihbY0hdbjIpYyhjMjMpbltjSF1uYzNONFtDSDJdW0NIXShbQ0gyXTQpT1tDSDJdQyg9TylOKFtDSDNdKVtDSDNd

> <s_epik_cmdline>
J2VwaWtfcHl0aG9uJywgJy1waCcsICc3LjAnLCAnLXRuJywgJzgnLCAnLW1hJywgJzIwMCcsICctbWV0YWxfYmluZGluZycsICctaW1hZScsICc8aW5maWxlLm1hZT4nLCAnLW9tYWUnLCAnPG91dGZpbGUubWFlPic=

> <r_lp_tautomer_probability>
1

> <r_epik_Ionization_Penalty>
0.00375854

> <r_epik_Ionization_Penalty_Charging>
0

> <r_epik_Ionization_Penalty_Neutral>
0.00375854

> <r_epik_State_Penalty>
-0

> <r_epik_Charging_Adjusted_Penalty>
0

> <i_epik_Tot_Q>
0

> <i_epik_Tot_abs_Q>
0

> <r_epik_Metal_State_Penalty>
-0

> <b_epik_Metal_Only>
0

> <s_lp_Force_Field>
OPLS_2005

> <r_lp_Energy>
54.2687

> <b_lp_Chiralities_Consistent>
1

> <s_lp_Variant>
AV-unprocessed.smi:270-1

> <Gold.Version>
5.8.1

> <Gold.Id.Protein>
6NUR|6NUR_protein|mol2

> <Gold.PLP.Fitness>
41.0647

> <Gold.PLP.PLP>
-38.7482

> <Gold.PLP.part.hbond>
-1.8447

> <Gold.PLP.part.metal>
0.0000

> <Gold.PLP.part.buried>
-7.2982

> <Gold.PLP.part.nonpolar>
-29.9869

> <Gold.PLP.part.repulsive>
0.4103

> <Gold.PLP.ligand.clash>
0.0000

> <Gold.PLP.ligand.torsion>
0.8631

> <Gold.PLP.Chemscore.Hbond>
1.2178

> <Gold.PLP.Chemscore.CHOScore>
0.0000

> <Gold.PLP.Chemscore.Metal>
0.0000

> <Gold.Chemscore.Hbonds>
donor molecule, donor type, donor heavy atom, donor atom, acceptor molecule, acceptor atom, score
      P1  H  6896  6908       L1    11  0.66
      P1  H 10752 10765       L1    25  0.20

> <Gold.PLP.Chemscore.Internal.Correction>
0.3896

> <Gold.Rescore>
     Score         DG    S(hbond)    S(metal)    S(lipo)     H(rot)  DE(clash)    DE(int)     intcor
      6.73      -9.05       0.91        0.00      72.94       3.12       0.05       2.27       ----

> <Gold.Chemscore.Fitness>
6.7303

> <Gold.Chemscore.DG>
-9.0502

> <Gold.Chemscore.ZeroCoef>
-5.4800

> <Gold.Chemscore.Hbond>
0.9079

> <Gold.Chemscore.Metal>
0.0000

> <Gold.Chemscore.Lipo>
72.9374

> <Gold.Chemscore.Internal_Hbond>
0.0000

> <Gold.Chemscore.DEClash>
0.0528

> <Gold.Chemscore.DEInternal>
2.2671

> <Gold.Chemscore.Rot>
3.1234

> <Gold.Chemscore.Internal.Correction>
   9.000000E+99

> <Gold.Chemscore.Hbonds>
donor molecule, donor type, donor heavy atom, donor atom, acceptor molecule, acceptor atom, score
      P1  H  6896  6908       L1    11  0.11

> <Gold.Chemscore.Hbond.Weighted>
-3.0324

> <Gold.Chemscore.Metal.Weighted>
-0.0000

> <Gold.Chemscore.Lipo.Weighted>
-8.5337

> <Gold.Chemscore.Internal_Hbond.Weighted>
0.0000

> <Gold.Chemscore.DEClash.Weighted>
0.0528

> <Gold.Chemscore.DEInternal.Weighted>
2.2671

> <Gold.Chemscore.Rot.Weighted>
7.9959

> <Gold.Chemscore.Internal.Correction.Weighted>
   9.000000E+99

> <Gold.Protein.RotatedTorsions>
[ 6907 6896 6895 6894 ] final -158.02 input  -60.11 | X-H torsion
[ 7974 7965 7964 7962 ] final  160.12 input  175.53 | X-H torsion
[ 8008 7997 7996 7995 ] final  151.15 input   59.86 | X-H torsion
[ 10167 10162 10161 10158 ] final   59.57 input  -65.29 | X-H torsion
[ 10718 10713 10712 10709 ] final   32.99 input   66.30 | X-H torsion
[ 10763 10752 10751 10750 ] final  152.94 input  -60.55 | X-H torsion
[ 11005 11000 10999 10996 ] final  -70.87 input  -57.11 | X-H torsion

> <Gold.Protein.ActiveResidues>
 VAL166  LYS551  ARG553  GLY616  TRP617  ASP618  TYR619  PRO620  LYS621  CYS622 
 ASP623  PHE694  ASN695  SER759  ASP760  ASP761  ALA762  ILE779  LEU786  VAL792 
 PHE793  MET794  SER795  GLU796  ALA797  LYS798  CYS799  TRP800  GLU811  SER814 

> <Gold.Protein.RotatedAtoms>
  151.3118  133.4077  159.2647 H   0  0  0  0  0  0  0  0  0  0  0  0  # atno 6907 bound_to 6896
  151.0108  134.9396  159.8016 H   0  0  0  0  0  0  0  0  0  0  0  0  # atno 6908 bound_to 6896
  152.5300  134.3082  159.9156 H   0  0  0  0  0  0  0  0  0  0  0  0  # atno 6909 bound_to 6896
  144.7754  139.7713  143.6281 H   0  0  0  0  0  0  0  0  0  0  0  0  # atno 7974 bound_to 7965
  156.2686  140.2055  156.6131 H   0  0  0  0  0  0  0  0  0  0  0  0  # atno 8008 bound_to 7997
  154.6816  140.0539  157.0295 H   0  0  0  0  0  0  0  0  0  0  0  0  # atno 8009 bound_to 7997
  155.0993  140.3204  155.4554 H   0  0  0  0  0  0  0  0  0  0  0  0  # atno 8010 bound_to 7997
  140.1750  144.4239  150.6643 H   0  0  0  0  0  0  0  0  0  0  0  0  # atno 10167 bound_to 10162
  157.2922  130.7308  149.6617 H   0  0  0  0  0  0  0  0  0  0  0  0  # atno 10718 bound_to 10713
  154.1282  135.2828  155.3192 H   0  0  0  0  0  0  0  0  0  0  0  0  # atno 10763 bound_to 10752
  154.6374  135.5414  153.7753 H   0  0  0  0  0  0  0  0  0  0  0  0  # atno 10764 bound_to 10752
  153.0290  135.6478  154.1433 H   0  0  0  0  0  0  0  0  0  0  0  0  # atno 10765 bound_to 10752
  141.1582  133.6802  156.6819 H   0  0  0  0  0  0  0  0  0  0  0  0  # atno 11005 bound_to 11000
  146.1929  139.5179  142.9793 LP  0  0  0  0  0  0  0  0  0  0  0  0  # atno 17320 bound_to 7965
  145.6203  141.0324  143.1919 LP  0  0  0  0  0  0  0  0  0  0  0  0  # atno 17321 bound_to 7965
  140.6557  143.2237  151.5974 LP  0  0  0  0  0  0  0  0  0  0  0  0  # atno 17342 bound_to 10162
  139.5321  144.2886  152.1171 LP  0  0  0  0  0  0  0  0  0  0  0  0  # atno 17343 bound_to 10162
  155.9667  130.4305  150.4880 LP  0  0  0  0  0  0  0  0  0  0  0  0  # atno 17370 bound_to 10713
  157.2845  131.0613  151.2175 LP  0  0  0  0  0  0  0  0  0  0  0  0  # atno 17371 bound_to 10713
  140.3096  134.8097  157.4165 LP  0  0  0  0  0  0  0  0  0  0  0  0  # atno 17394 bound_to 11000
  140.1190  134.5244  155.8200 LP  0  0  0  0  0  0  0  0  0  0  0  0  # atno 17395 bound_to 11000

$$$$
