AV-unprocessed.smi:3228|AV-procd|sdf|12325|dock3
  -GOLD-   2272018173D 1   1.00000     0.00000
 Structure written by MMmdl.
 30 31  0  0  0  0  0  0  0  0  2 V2000
  152.5146  139.4576  155.1684 O   0  0  0  0  0  0  0  0  0  0  0  0
  151.8050  139.4006  156.1756 C   0  0  0  0  0  0  0  0  0  0  0  0
  150.5282  139.0047  156.0725 N   0  0  0  0  0  0  0  0  0  0  0  0
  149.8449  138.6329  154.8374 C   0  0  0  0  0  0  0  0  0  0  0  0
  148.4993  139.3727  154.6778 C   0  0  2  0  0  0  0  0  0  0  0  0
  147.6404  138.9164  153.4924 C   0  0  0  0  0  0  0  0  0  0  0  0
  146.6640  140.0714  153.2261 C   0  0  0  0  0  0  0  0  0  0  0  0
  147.2020  141.2877  153.9985 C   0  0  0  0  0  0  0  0  0  0  0  0
  148.5969  140.8946  154.4999 C   0  0  2  0  0  0  0  0  0  0  0  0
  149.5541  141.2433  153.5164 O   0  0  0  0  0  0  0  0  0  0  0  0
  152.1787  139.7115  157.4378 N   0  5  0  0  0  0  0  0  0  0  0  0
  151.8449  140.9017  157.9628 C   0  0  0  0  0  0  0  0  0  0  0  0
  151.1347  141.8201  157.2976 N   0  0  0  0  0  0  0  0  0  0  0  0
  150.9079  142.9855  158.0321 C   0  0  0  0  0  0  0  0  0  0  0  0
  151.4670  142.9578  159.2823 C   0  0  0  0  0  0  0  0  0  0  0  0
  152.2993  141.4577  159.5764 S   0  0  0  0  0  0  0  0  0  0  0  0
  149.9843  138.9724  156.9223 H   0  0  0  0  0  0  0  0  0  0  0  0
  150.4910  138.8314  153.9809 H   0  0  0  0  0  0  0  0  0  0  0  0
  149.6878  137.5547  154.8614 H   0  0  0  0  0  0  0  0  0  0  0  0
  147.9132  139.2032  155.5829 H   0  0  0  0  0  0  0  0  0  0  0  0
  148.2704  138.7633  152.6150 H   0  0  0  0  0  0  0  0  0  0  0  0
  147.1256  137.9763  153.6935 H   0  0  0  0  0  0  0  0  0  0  0  0
  146.5990  140.2783  152.1574 H   0  0  0  0  0  0  0  0  0  0  0  0
  145.6603  139.8194  153.5703 H   0  0  0  0  0  0  0  0  0  0  0  0
  147.2066  142.1979  153.3971 H   0  0  0  0  0  0  0  0  0  0  0  0
  146.5547  141.4758  154.8562 H   0  0  0  0  0  0  0  0  0  0  0  0
  148.8511  141.3985  155.4331 H   0  0  0  0  0  0  0  0  0  0  0  0
  149.8794  140.4487  153.1215 H   0  0  0  0  0  0  0  0  0  0  0  0
  150.3388  143.7868  157.5849 H   0  0  0  0  0  0  0  0  0  0  0  0
  151.4422  143.7232  160.0432 H   0  0  0  0  0  0  0  0  0  0  0  0
  1  2  2  0  0  0  0
  2  3  1  0  0  0  0
  2 11  1  0  0  0  0
  3  4  1  0  0  0  0
  3 17  1  0  0  0  0
  4  5  1  0  0  0  0
  4 18  1  0  0  0  0
  4 19  1  0  0  0  0
  5  9  1  0  0  0  0
  5  6  1  0  0  0  0
  5 20  1  0  0  0  0
  6  7  1  0  0  0  0
  6 21  1  0  0  0  0
  6 22  1  0  0  0  0
  7  8  1  0  0  0  0
  7 23  1  0  0  0  0
  7 24  1  0  0  0  0
  8  9  1  0  0  0  0
  8 25  1  0  0  0  0
  8 26  1  0  0  0  0
  9 10  1  0  0  0  0
  9 27  1  0  0  0  0
 10 28  1  0  0  0  0
 11 12  1  0  0  0  0
 12 16  1  0  0  0  0
 12 13  2  0  0  0  0
 13 14  1  0  0  0  0
 14 15  2  0  0  0  0
 14 29  1  0  0  0  0
 15 16  1  0  0  0  0
 15 30  1  0  0  0  0
M  CHG  1  11  -1
M  END
> <s_m_source_file>
AV-unprocessed.smi

> <i_m_source_file_index>
3228

> <i_lp_mmshare_version>
43012

> <i_f3d_flags>
0

> <s_epik_input>
czFbY0hdW2NIXW5jMVtOSF1DKD1PKVtOSF1bQ0gyXVtDQEBIXTJbQ0gyXVtDSDJdW0NIMl1bQ0BIXTJbT0hd

> <s_epik_cmdline>
J2VwaWtfcHl0aG9uJywgJy1waCcsICc3LjAnLCAnLXRuJywgJzgnLCAnLW1hJywgJzIwMCcsICctbWV0YWxfYmluZGluZycsICctaW1hZScsICc8aW5maWxlLm1hZT4nLCAnLW9tYWUnLCAnPG91dGZpbGUubWFlPic=

> <r_lp_tautomer_probability>
0.999

> <r_epik_Ionization_Penalty>
8.49756

> <r_epik_Ionization_Penalty_Charging>
6.79645

> <r_epik_Ionization_Penalty_Neutral>
1.70111

> <r_epik_State_Penalty>
6.79662

> <r_epik_Charging_Adjusted_Penalty>
13.5931

> <i_epik_Tot_Q>
-1

> <i_epik_Tot_abs_Q>
1

> <r_epik_Metal_State_Penalty>
2.71629

> <b_epik_Metal_Only>
1

> <s_lp_Force_Field>
OPLS_2005

> <r_lp_Energy>
19.9343

> <b_lp_Chiralities_Consistent>
1

> <s_lp_Variant>
AV-unprocessed.smi:3228-7

> <Gold.Version>
5.8.1

> <Gold.Id.Protein>
6NUR|6NUR_protein|mol2

> <Gold.PLP.Fitness>
42.1002

> <Gold.PLP.PLP>
-28.3444

> <Gold.PLP.part.hbond>
-5.3310

> <Gold.PLP.part.metal>
0.0000

> <Gold.PLP.part.buried>
-0.3836

> <Gold.PLP.part.nonpolar>
-22.1451

> <Gold.PLP.part.repulsive>
0.1452

> <Gold.PLP.ligand.clash>
0.0000

> <Gold.PLP.ligand.torsion>
0.7874

> <Gold.PLP.Chemscore.Hbond>
4.0960

> <Gold.PLP.Chemscore.CHOScore>
1.0000

> <Gold.PLP.Chemscore.Metal>
0.0000

> <Gold.Chemscore.Hbonds>
donor molecule, donor type, donor heavy atom, donor atom, acceptor molecule, acceptor atom, score
      L1  H    10    28       P1  7957  0.43
      P1  H  7989  7998       L1     1  0.17
      P1  H  7997  8008       L1    11  0.18
      P1  H  8011  8017       L1    10  0.98
      L1  C    14    29       P1  8028  0.91

> <Gold.PLP.Chemscore.Internal.Correction>
0.0427

> <Gold.Rescore>
     Score         DG    S(hbond)    S(metal)    S(lipo)     H(rot)  DE(clash)    DE(int)     intcor
     14.90     -16.15       2.49        0.00      60.43       1.85       0.44       0.81       ----

> <Gold.Chemscore.Fitness>
14.9047

> <Gold.Chemscore.DG>
-16.1519

> <Gold.Chemscore.ZeroCoef>
-5.4800

> <Gold.Chemscore.Hbond>
2.4949

> <Gold.Chemscore.Metal>
0.0000

> <Gold.Chemscore.Lipo>
60.4290

> <Gold.Chemscore.Internal_Hbond>
0.0000

> <Gold.Chemscore.DEClash>
0.4403

> <Gold.Chemscore.DEInternal>
0.8069

> <Gold.Chemscore.Rot>
1.8481

> <Gold.Chemscore.Internal.Correction>
   9.000000E+99

> <Gold.Chemscore.Hbonds>
donor molecule, donor type, donor heavy atom, donor atom, acceptor molecule, acceptor atom, score
      L1  H    10    28       P1  7957  0.42
      P1  H  7989  7998       L1     1  0.15
      P1  H  8011  8017       L1    10  0.42

> <Gold.Chemscore.Hbond.Weighted>
-8.3330

> <Gold.Chemscore.Metal.Weighted>
-0.0000

> <Gold.Chemscore.Lipo.Weighted>
-7.0702

> <Gold.Chemscore.Internal_Hbond.Weighted>
0.0000

> <Gold.Chemscore.DEClash.Weighted>
0.4403

> <Gold.Chemscore.DEInternal.Weighted>
0.8069

> <Gold.Chemscore.Rot.Weighted>
4.7313

> <Gold.Chemscore.Internal.Correction.Weighted>
   9.000000E+99

> <Gold.Protein.RotatedTorsions>
[ 6907 6896 6895 6894 ] final   -3.46 input  -60.11 | X-H torsion
[ 7974 7965 7964 7962 ] final   60.98 input  175.53 | X-H torsion
[ 8008 7997 7996 7995 ] final  -69.67 input   59.86 | X-H torsion
[ 10167 10162 10161 10158 ] final   35.54 input  -65.29 | X-H torsion
[ 10718 10713 10712 10709 ] final -116.36 input   66.30 | X-H torsion
[ 10763 10752 10751 10750 ] final   14.07 input  -60.55 | X-H torsion
[ 11005 11000 10999 10996 ] final   -8.50 input  -57.11 | X-H torsion

> <Gold.Protein.ActiveResidues>
 VAL166  LYS551  ARG553  GLY616  TRP617  ASP618  TYR619  PRO620  LYS621  CYS622 
 ASP623  PHE694  ASN695  SER759  ASP760  ASP761  ALA762  ILE779  LEU786  VAL792 
 PHE793  MET794  SER795  GLU796  ALA797  LYS798  CYS799  TRP800  GLU811  SER814 

> <Gold.Protein.RotatedAtoms>
  151.5135  135.1065  159.9859 H   0  0  0  0  0  0  0  0  0  0  0  0  # atno 6907 bound_to 6896
  152.4651  133.7902  159.6908 H   0  0  0  0  0  0  0  0  0  0  0  0  # atno 6908 bound_to 6896
  150.8631  133.7550  159.3011 H   0  0  0  0  0  0  0  0  0  0  0  0  # atno 6909 bound_to 6896
  145.8899  139.3503  143.0656 H   0  0  0  0  0  0  0  0  0  0  0  0  # atno 7974 bound_to 7965
  154.4956  140.0849  156.7688 H   0  0  0  0  0  0  0  0  0  0  0  0  # atno 8008 bound_to 7997
  155.4126  140.3442  155.4246 H   0  0  0  0  0  0  0  0  0  0  0  0  # atno 8009 bound_to 7997
  156.1389  140.1523  156.8940 H   0  0  0  0  0  0  0  0  0  0  0  0  # atno 8010 bound_to 7997
  140.4213  144.1456  150.6148 H   0  0  0  0  0  0  0  0  0  0  0  0  # atno 10167 bound_to 10162
  156.0958  130.6131  150.9026 H   0  0  0  0  0  0  0  0  0  0  0  0  # atno 10718 bound_to 10713
  153.1658  135.6804  153.8678 H   0  0  0  0  0  0  0  0  0  0  0  0  # atno 10763 bound_to 10752
  153.8058  135.3149  155.3396 H   0  0  0  0  0  0  0  0  0  0  0  0  # atno 10764 bound_to 10752
  154.7964  135.4804  154.0262 H   0  0  0  0  0  0  0  0  0  0  0  0  # atno 10765 bound_to 10752
  140.7242  133.8803  155.8843 H   0  0  0  0  0  0  0  0  0  0  0  0  # atno 11005 bound_to 11000
  145.8921  140.9297  143.0546 LP  0  0  0  0  0  0  0  0  0  0  0  0  # atno 17320 bound_to 7965
  144.6730  140.0920  143.7464 LP  0  0  0  0  0  0  0  0  0  0  0  0  # atno 17321 bound_to 7965
  140.4531  143.2479  151.9321 LP  0  0  0  0  0  0  0  0  0  0  0  0  # atno 17342 bound_to 10162
  139.4782  144.5542  151.8338 LP  0  0  0  0  0  0  0  0  0  0  0  0  # atno 17343 bound_to 10162
  157.6119  131.0936  150.8780 LP  0  0  0  0  0  0  0  0  0  0  0  0  # atno 17370 bound_to 10713
  156.8918  130.5215  149.5286 LP  0  0  0  0  0  0  0  0  0  0  0  0  # atno 17371 bound_to 10713
  140.9977  134.1192  157.4347 LP  0  0  0  0  0  0  0  0  0  0  0  0  # atno 17394 bound_to 11000
  139.8841  135.0059  156.6346 LP  0  0  0  0  0  0  0  0  0  0  0  0  # atno 17395 bound_to 11000

$$$$
