AV-unprocessed.smi:229|AV-procd|sdf|1755|dock5
  -GOLD-   2262020283D 1   1.00000     0.00000
 Structure written by MMmdl.
 58 62  0  0  0  0  0  0  0  0  1 V2000
  146.6964  133.9809  162.5274 C   0  0  0  0  0  0  0  0  0  0  0  0
  147.0911  135.2703  161.7949 C   0  0  0  0  0  0  0  0  0  0  0  0
  148.0463  135.0422  160.6119 C   0  0  2  0  0  0  0  0  0  0  0  0
  148.7545  136.3300  160.1544 C   0  0  0  0  0  0  0  0  0  0  0  0
  149.5501  136.0634  158.9631 N   0  0  0  0  0  0  0  0  0  0  0  0
  150.4742  137.0104  158.6605 C   0  0  0  0  0  0  0  0  0  0  0  0
  151.7969  136.7531  158.8477 N   0  0  0  0  0  0  0  0  0  0  0  0
  152.7149  137.6763  158.5462 C   0  0  0  0  0  0  0  0  0  0  0  0
  152.5342  138.9046  158.0574 N   0  0  0  0  0  0  0  0  0  0  0  0
  151.2096  139.1724  157.8764 C   0  0  0  0  0  0  0  0  0  0  0  0
  150.1242  138.2924  158.1487 C   0  0  0  0  0  0  0  0  0  0  0  0
  148.9209  138.9224  157.8502 N   0  0  0  0  0  0  0  0  0  0  0  0
  149.2753  140.1021  157.4182 C   0  0  0  0  0  0  0  0  0  0  0  0
  150.6313  140.3359  157.4034 N   0  0  0  0  0  0  0  0  0  0  0  0
  151.3043  141.5518  156.9822 C   0  0  0  0  0  0  0  0  0  0  0  0
  150.7655  142.8027  157.7087 C   0  0  2  0  0  0  0  0  0  0  0  0
  151.2923  143.9456  157.0625 O   0  0  0  0  0  0  0  0  0  0  0  0
  151.1820  142.8674  159.1912 C   0  0  2  0  0  0  0  0  0  0  0  0
  151.0897  144.2590  159.8214 C   0  0  0  0  0  0  0  0  0  0  0  0
  152.0877  144.2032  160.9660 C   0  0  0  0  0  0  0  0  0  0  0  0
  152.9769  143.0071  160.6188 C   0  0  0  0  0  0  0  0  0  0  0  0
  152.5732  142.6103  159.3156 O   0  0  0  0  0  0  0  0  0  0  0  0
  148.7689  135.4868  157.8729 C   0  0  0  0  0  0  0  0  0  0  0  0
  148.0121  134.2245  158.3436 C   0  0  2  0  0  0  0  0  0  0  0  0
  148.9184  133.0047  158.5494 C   0  0  0  0  0  0  0  0  0  0  0  0
  148.6437  132.1344  157.3309 C   0  0  0  0  0  0  0  0  0  0  0  0
  147.2606  132.3440  157.1179 O   0  0  0  0  0  0  0  0  0  0  0  0
  147.0242  133.7366  157.2667 C   0  0  0  0  0  0  0  0  0  0  0  0
  147.2692  134.5302  159.5279 O   0  0  0  0  0  0  0  0  0  0  0  0
  145.9717  134.1916  163.3139 H   0  0  0  0  0  0  0  0  0  0  0  0
  147.5580  133.5050  162.9955 H   0  0  0  0  0  0  0  0  0  0  0  0
  146.2444  133.2621  161.8437 H   0  0  0  0  0  0  0  0  0  0  0  0
  146.1824  135.7465  161.4252 H   0  0  0  0  0  0  0  0  0  0  0  0
  147.5357  135.9729  162.5005 H   0  0  0  0  0  0  0  0  0  0  0  0
  148.7916  134.3024  160.9068 H   0  0  0  0  0  0  0  0  0  0  0  0
  148.0196  137.1020  159.9221 H   0  0  0  0  0  0  0  0  0  0  0  0
  149.3729  136.7173  160.9622 H   0  0  0  0  0  0  0  0  0  0  0  0
  153.7410  137.3900  158.7233 H   0  0  0  0  0  0  0  0  0  0  0  0
  148.5528  140.8410  157.1031 H   0  0  0  0  0  0  0  0  0  0  0  0
  152.3697  141.4222  157.1736 H   0  0  0  0  0  0  0  0  0  0  0  0
  151.1926  141.6587  155.9022 H   0  0  0  0  0  0  0  0  0  0  0  0
  149.6774  142.8257  157.6330 H   0  0  0  0  0  0  0  0  0  0  0  0
  150.5987  144.3494  156.5630 H   0  0  0  0  0  0  0  0  0  0  0  0
  150.6169  142.1514  159.7918 H   0  0  0  0  0  0  0  0  0  0  0  0
  151.4037  145.0176  159.1027 H   0  0  0  0  0  0  0  0  0  0  0  0
  150.0814  144.5075  160.1542 H   0  0  0  0  0  0  0  0  0  0  0  0
  152.6582  145.1299  161.0365 H   0  0  0  0  0  0  0  0  0  0  0  0
  151.5866  144.0415  161.9211 H   0  0  0  0  0  0  0  0  0  0  0  0
  154.0385  143.2547  160.6388 H   0  0  0  0  0  0  0  0  0  0  0  0
  152.8050  142.1856  161.3157 H   0  0  0  0  0  0  0  0  0  0  0  0
  148.0559  136.2343  157.5211 H   0  0  0  0  0  0  0  0  0  0  0  0
  149.4175  135.2388  157.0313 H   0  0  0  0  0  0  0  0  0  0  0  0
  149.9743  133.2553  158.6564 H   0  0  0  0  0  0  0  0  0  0  0  0
  148.6157  132.4560  159.4421 H   0  0  0  0  0  0  0  0  0  0  0  0
  149.2104  132.4783  156.4642 H   0  0  0  0  0  0  0  0  0  0  0  0
  148.8724  131.0826  157.5027 H   0  0  0  0  0  0  0  0  0  0  0  0
  145.9829  133.9284  157.5272 H   0  0  0  0  0  0  0  0  0  0  0  0
  147.2165  134.2188  156.3070 H   0  0  0  0  0  0  0  0  0  0  0  0
  1  2  1  0  0  0  0
  1 30  1  0  0  0  0
  1 31  1  0  0  0  0
  1 32  1  0  0  0  0
  2  3  1  0  0  0  0
  2 33  1  0  0  0  0
  2 34  1  0  0  0  0
  3 29  1  0  0  0  0
  3  4  1  0  0  0  0
  3 35  1  0  0  0  0
  4  5  1  0  0  0  0
  4 36  1  0  0  0  0
  4 37  1  0  0  0  0
  5  6  1  0  0  0  0
  5 23  1  0  0  0  0
  6 11  1  0  0  0  0
  6  7  2  0  0  0  0
  7  8  1  0  0  0  0
  8  9  2  0  0  0  0
  8 38  1  0  0  0  0
  9 10  1  0  0  0  0
 10 14  1  0  0  0  0
 10 11  2  0  0  0  0
 11 12  1  0  0  0  0
 12 13  2  0  0  0  0
 13 14  1  0  0  0  0
 13 39  1  0  0  0  0
 14 15  1  0  0  0  0
 15 16  1  0  0  0  0
 15 40  1  0  0  0  0
 15 41  1  0  0  0  0
 16 17  1  0  0  0  0
 16 18  1  0  0  0  0
 16 42  1  0  0  0  0
 17 43  1  0  0  0  0
 18 22  1  0  0  0  0
 18 19  1  0  0  0  0
 18 44  1  0  0  0  0
 19 20  1  0  0  0  0
 19 45  1  0  0  0  0
 19 46  1  0  0  0  0
 20 21  1  0  0  0  0
 20 47  1  0  0  0  0
 20 48  1  0  0  0  0
 21 22  1  0  0  0  0
 21 49  1  0  0  0  0
 21 50  1  0  0  0  0
 23 24  1  0  0  0  0
 23 51  1  0  0  0  0
 23 52  1  0  0  0  0
 24 28  1  0  0  0  0
 24 25  1  0  0  0  0
 24 29  1  0  0  0  0
 25 26  1  0  0  0  0
 25 53  1  0  0  0  0
 25 54  1  0  0  0  0
 26 27  1  0  0  0  0
 26 55  1  0  0  0  0
 26 56  1  0  0  0  0
 27 28  1  0  0  0  0
 28 57  1  0  0  0  0
 28 58  1  0  0  0  0
M  END
> <s_m_source_file>
AV-unprocessed.smi

> <i_m_source_file_index>
229

> <i_lp_mmshare_version>
43012

> <i_f3d_flags>
0

> <s_epik_input>
W0NIMl0xT1tDSDJdW0NIMl1bQ0BdMTJbQ0gyXU4oW0NIMl1bQ0BIXShPMilbQ0gyXVtDSDNdKWMobltjSF1uMyljKGMzNCluW2NIXW40W0NIMl1bQ0BIXShbT0hdKVtDQEBIXTVbQ0gyXVtDSDJdW0NIMl1PNQ==

> <s_epik_cmdline>
J2VwaWtfcHl0aG9uJywgJy1waCcsICc3LjAnLCAnLXRuJywgJzgnLCAnLW1hJywgJzIwMCcsICctbWV0YWxfYmluZGluZycsICctaW1hZScsICc8aW5maWxlLm1hZT4nLCAnLW9tYWUnLCAnPG91dGZpbGUubWFlPic=

> <r_lp_tautomer_probability>
1

> <r_epik_Ionization_Penalty>
0.00318402

> <r_epik_Ionization_Penalty_Charging>
0

> <r_epik_Ionization_Penalty_Neutral>
0.00318402

> <r_epik_State_Penalty>
0.00215642

> <r_epik_Charging_Adjusted_Penalty>
0.00215642

> <i_epik_Tot_Q>
0

> <i_epik_Tot_abs_Q>
0

> <r_epik_Metal_State_Penalty>
-0

> <b_epik_Metal_Only>
0

> <s_lp_Force_Field>
OPLS_2005

> <r_lp_Energy>
54.5162

> <b_lp_Chiralities_Consistent>
1

> <s_lp_Variant>
AV-unprocessed.smi:229-9

> <Gold.Version>
5.8.1

> <Gold.Id.Protein>
6NUR|6NUR_protein|mol2

> <Gold.PLP.Fitness>
46.7202

> <Gold.PLP.PLP>
-41.2379

> <Gold.PLP.part.hbond>
-3.0000

> <Gold.PLP.part.metal>
0.0000

> <Gold.PLP.part.buried>
-7.9779

> <Gold.PLP.part.nonpolar>
-31.0454

> <Gold.PLP.part.repulsive>
0.0000

> <Gold.PLP.ligand.clash>
0.0000

> <Gold.PLP.ligand.torsion>
0.6545

> <Gold.PLP.Chemscore.Hbond>
2.1223

> <Gold.PLP.Chemscore.CHOScore>
0.0000

> <Gold.PLP.Chemscore.Metal>
0.0000

> <Gold.Chemscore.Hbonds>
donor molecule, donor type, donor heavy atom, donor atom, acceptor molecule, acceptor atom, score
      L1  H    17    43       P1  8028  1.00
      P1  H  6896  6908       L1     5  0.99
      P1  H  6896  6909       L1     7  0.16

> <Gold.PLP.Chemscore.Internal.Correction>
0.4243

> <Gold.Rescore>
     Score         DG    S(hbond)    S(metal)    S(lipo)     H(rot)  DE(clash)    DE(int)     intcor
     15.51     -16.00       1.50        0.00     101.04       2.46       0.08       0.42       ----

> <Gold.Chemscore.Fitness>
15.5107

> <Gold.Chemscore.DG>
-16.0029

> <Gold.Chemscore.ZeroCoef>
-5.4800

> <Gold.Chemscore.Hbond>
1.4960

> <Gold.Chemscore.Metal>
0.0000

> <Gold.Chemscore.Lipo>
101.0384

> <Gold.Chemscore.Internal_Hbond>
0.0000

> <Gold.Chemscore.DEClash>
0.0765

> <Gold.Chemscore.DEInternal>
0.4157

> <Gold.Chemscore.Rot>
2.4591

> <Gold.Chemscore.Internal.Correction>
   9.000000E+99

> <Gold.Chemscore.Hbonds>
donor molecule, donor type, donor heavy atom, donor atom, acceptor molecule, acceptor atom, score
      L1  H    17    43       P1  8028  0.99
      P1  H  6896  6908       L1     5  0.05
      P1  H  6896  6909       L1     7  0.14

> <Gold.Chemscore.Hbond.Weighted>
-4.9968

> <Gold.Chemscore.Metal.Weighted>
-0.0000

> <Gold.Chemscore.Lipo.Weighted>
-11.8215

> <Gold.Chemscore.Internal_Hbond.Weighted>
0.0000

> <Gold.Chemscore.DEClash.Weighted>
0.0765

> <Gold.Chemscore.DEInternal.Weighted>
0.4157

> <Gold.Chemscore.Rot.Weighted>
6.2953

> <Gold.Chemscore.Internal.Correction.Weighted>
   9.000000E+99

> <Gold.Protein.RotatedTorsions>
[ 6907 6896 6895 6894 ] final  163.29 input  -60.11 | X-H torsion
[ 7974 7965 7964 7962 ] final  176.86 input  175.53 | X-H torsion
[ 8008 7997 7996 7995 ] final   32.16 input   59.86 | X-H torsion
[ 10167 10162 10161 10158 ] final  -83.26 input  -65.29 | X-H torsion
[ 10718 10713 10712 10709 ] final  -64.64 input   66.30 | X-H torsion
[ 10763 10752 10751 10750 ] final   83.50 input  -60.55 | X-H torsion
[ 11005 11000 10999 10996 ] final   83.29 input  -57.11 | X-H torsion

> <Gold.Protein.ActiveResidues>
 VAL166  LYS551  ARG553  GLY616  TRP617  ASP618  TYR619  PRO620  LYS621  CYS622 
 ASP623  PHE694  ASN695  SER759  ASP760  ASP761  ALA762  ILE779  LEU786  VAL792 
 PHE793  MET794  SER795  GLU796  ALA797  LYS798  CYS799  TRP800  GLU811  SER814 

> <Gold.Protein.RotatedAtoms>
  151.9275  133.3602  159.3918 H   0  0  0  0  0  0  0  0  0  0  0  0  # atno 6907 bound_to 6896
  150.7024  134.4572  159.5373 H   0  0  0  0  0  0  0  0  0  0  0  0  # atno 6908 bound_to 6896
  152.2206  134.8416  160.0537 H   0  0  0  0  0  0  0  0  0  0  0  0  # atno 6909 bound_to 6896
  144.7177  140.0161  143.6440 H   0  0  0  0  0  0  0  0  0  0  0  0  # atno 7974 bound_to 7965
  155.1179  140.3245  155.4504 H   0  0  0  0  0  0  0  0  0  0  0  0  # atno 8008 bound_to 7997
  156.2671  140.2032  156.6250 H   0  0  0  0  0  0  0  0  0  0  0  0  # atno 8009 bound_to 7997
  154.6706  140.0537  157.0148 H   0  0  0  0  0  0  0  0  0  0  0  0  # atno 8010 bound_to 7997
  140.4243  143.2572  151.8847 H   0  0  0  0  0  0  0  0  0  0  0  0  # atno 10167 bound_to 10162
  156.0717  130.4236  150.1449 H   0  0  0  0  0  0  0  0  0  0  0  0  # atno 10718 bound_to 10713
  153.1297  135.4689  154.9328 H   0  0  0  0  0  0  0  0  0  0  0  0  # atno 10763 bound_to 10752
  154.7652  135.3143  154.8302 H   0  0  0  0  0  0  0  0  0  0  0  0  # atno 10764 bound_to 10752
  153.8847  135.6891  153.4818 H   0  0  0  0  0  0  0  0  0  0  0  0  # atno 10765 bound_to 10752
  139.9036  134.8134  156.2289 H   0  0  0  0  0  0  0  0  0  0  0  0  # atno 11005 bound_to 11000
  146.0219  139.3258  143.0808 LP  0  0  0  0  0  0  0  0  0  0  0  0  # atno 17320 bound_to 7965
  145.8558  140.9503  143.0726 LP  0  0  0  0  0  0  0  0  0  0  0  0  # atno 17321 bound_to 7965
  139.4783  144.5404  151.8537 LP  0  0  0  0  0  0  0  0  0  0  0  0  # atno 17342 bound_to 10162
  140.4499  144.1870  150.5896 LP  0  0  0  0  0  0  0  0  0  0  0  0  # atno 17343 bound_to 10162
  156.9498  130.9771  151.3500 LP  0  0  0  0  0  0  0  0  0  0  0  0  # atno 17370 bound_to 10713
  157.5791  130.8364  149.8497 LP  0  0  0  0  0  0  0  0  0  0  0  0  # atno 17371 bound_to 10713
  141.0358  133.6964  156.1509 LP  0  0  0  0  0  0  0  0  0  0  0  0  # atno 17394 bound_to 11000
  140.7029  134.4544  157.5585 LP  0  0  0  0  0  0  0  0  0  0  0  0  # atno 17395 bound_to 11000

$$$$
