AV-unprocessed.smi:2812|AV-procd|sdf|10833|dock6
  -GOLD-   2272015273D 1   1.00000     0.00000
 Structure written by MMmdl.
 55 56  0  0  0  0  0  0  0  0  2 V2000
  153.6124  139.8376  160.4253 C   0  0  0  0  0  0  0  0  0  0  0  0
  153.0048  141.1927  160.0985 C   0  0  0  0  0  0  0  0  0  0  0  0
  153.0553  142.2458  161.0915 C   0  0  0  0  0  0  0  0  0  0  0  0
  152.5107  143.4382  160.8162 C   0  0  0  0  0  0  0  0  0  0  0  0
  151.9017  143.7024  159.5811 N   0  0  0  0  0  0  0  0  0  0  0  0
  151.3447  145.0415  159.3717 C   0  0  0  0  0  0  0  0  0  0  0  0
  151.8417  142.7734  158.5840 C   0  0  0  0  0  0  0  0  0  0  0  0
  151.3646  143.0590  157.4833 O   0  0  0  0  0  0  0  0  0  0  0  0
  152.3964  141.4361  158.9078 C   0  0  0  0  0  0  0  0  0  0  0  0
  152.3673  140.4186  157.9409 N   0  0  0  0  0  0  0  0  0  0  0  0
  151.5316  139.3655  157.9218 C   0  0  0  0  0  0  0  0  0  0  0  0
  150.6501  139.1492  158.7546 O   0  0  0  0  0  0  0  0  0  0  0  0
  151.7934  138.5490  156.8915 N   0  0  0  0  0  0  0  0  0  0  0  0
  151.0707  137.3134  156.6081 C   0  0  0  0  0  0  0  0  0  0  0  0
  150.8586  137.0790  155.0868 C   0  0  2  0  0  0  0  0  0  0  0  0
  151.1885  138.3169  154.2190 C   0  0  0  0  0  0  0  0  0  0  0  0
  150.1268  139.4159  154.3512 C   0  0  0  0  0  0  0  0  0  0  0  0
  148.7463  138.8417  154.0173 C   0  0  0  0  0  0  0  0  0  0  0  0
  148.4348  137.6092  154.8811 C   0  0  0  0  0  0  0  0  0  0  0  0
  149.4910  136.5688  154.7519 N   0  3  2  0  0  0  0  0  0  0  0  0
  149.0903  135.2911  155.4068 C   0  0  0  0  0  0  0  0  0  0  0  0
  149.8419  134.0393  154.8988 C   0  0  0  0  0  0  0  0  0  0  0  0
  149.0932  133.3377  153.7532 C   0  0  0  0  0  0  0  0  0  0  0  0
  150.0895  133.0591  156.0547 C   0  0  0  0  0  0  0  0  0  0  0  0
  154.0326  139.8256  161.4314 H   0  0  0  0  0  0  0  0  0  0  0  0
  154.4131  139.5973  159.7251 H   0  0  0  0  0  0  0  0  0  0  0  0
  152.8552  139.0547  160.3691 H   0  0  0  0  0  0  0  0  0  0  0  0
  153.5210  142.0750  162.0510 H   0  0  0  0  0  0  0  0  0  0  0  0
  152.5156  144.2600  161.5173 H   0  0  0  0  0  0  0  0  0  0  0  0
  150.2893  144.9797  159.1015 H   0  0  0  0  0  0  0  0  0  0  0  0
  151.8724  145.5542  158.5661 H   0  0  0  0  0  0  0  0  0  0  0  0
  151.4132  145.6702  160.2601 H   0  0  0  0  0  0  0  0  0  0  0  0
  153.1260  140.4237  157.2750 H   0  0  0  0  0  0  0  0  0  0  0  0
  152.5383  138.8007  156.2583 H   0  0  0  0  0  0  0  0  0  0  0  0
  151.6241  136.4902  157.0604 H   0  0  0  0  0  0  0  0  0  0  0  0
  150.1168  137.3623  157.1319 H   0  0  0  0  0  0  0  0  0  0  0  0
  151.5680  136.3164  154.7698 H   0  0  0  0  0  0  0  0  0  0  0  0
  152.1732  138.7170  154.4610 H   0  0  0  0  0  0  0  0  0  0  0  0
  151.2468  138.0100  153.1737 H   0  0  0  0  0  0  0  0  0  0  0  0
  150.1290  139.8242  155.3623 H   0  0  0  0  0  0  0  0  0  0  0  0
  150.3597  140.2445  153.6817 H   0  0  0  0  0  0  0  0  0  0  0  0
  147.9802  139.6035  154.1640 H   0  0  0  0  0  0  0  0  0  0  0  0
  148.7103  138.5673  152.9621 H   0  0  0  0  0  0  0  0  0  0  0  0
  148.3198  137.8974  155.9266 H   0  0  0  0  0  0  0  0  0  0  0  0
  147.4753  137.1958  154.5677 H   0  0  0  0  0  0  0  0  0  0  0  0
  149.1991  135.3841  156.4876 H   0  0  0  0  0  0  0  0  0  0  0  0
  148.0239  135.1398  155.2330 H   0  0  0  0  0  0  0  0  0  0  0  0
  150.8268  134.3321  154.5356 H   0  0  0  0  0  0  0  0  0  0  0  0
  148.0989  133.0181  154.0665 H   0  0  0  0  0  0  0  0  0  0  0  0
  149.6344  132.4528  153.4170 H   0  0  0  0  0  0  0  0  0  0  0  0
  148.9770  133.9919  152.8891 H   0  0  0  0  0  0  0  0  0  0  0  0
  149.1518  132.6981  156.4788 H   0  0  0  0  0  0  0  0  0  0  0  0
  150.6578  133.5314  156.8565 H   0  0  0  0  0  0  0  0  0  0  0  0
  150.6579  132.1911  155.7191 H   0  0  0  0  0  0  0  0  0  0  0  0
  149.5281  136.3545  153.7656 H   0  0  0  0  0  0  0  0  0  0  0  0
  1  2  1  0  0  0  0
  1 25  1  0  0  0  0
  1 26  1  0  0  0  0
  1 27  1  0  0  0  0
  2  9  2  0  0  0  0
  2  3  1  0  0  0  0
  3  4  2  0  0  0  0
  3 28  1  0  0  0  0
  4  5  1  0  0  0  0
  4 29  1  0  0  0  0
  5  6  1  0  0  0  0
  5  7  1  0  0  0  0
  6 30  1  0  0  0  0
  6 31  1  0  0  0  0
  6 32  1  0  0  0  0
  7  8  2  0  0  0  0
  7  9  1  0  0  0  0
  9 10  1  0  0  0  0
 10 11  1  0  0  0  0
 10 33  1  0  0  0  0
 11 12  2  0  0  0  0
 11 13  1  0  0  0  0
 13 14  1  0  0  0  0
 13 34  1  0  0  0  0
 14 15  1  0  0  0  0
 14 35  1  0  0  0  0
 14 36  1  0  0  0  0
 15 20  1  0  0  0  0
 15 16  1  0  0  0  0
 15 37  1  0  0  0  0
 16 17  1  0  0  0  0
 16 38  1  0  0  0  0
 16 39  1  0  0  0  0
 17 18  1  0  0  0  0
 17 40  1  0  0  0  0
 17 41  1  0  0  0  0
 18 19  1  0  0  0  0
 18 42  1  0  0  0  0
 18 43  1  0  0  0  0
 19 20  1  0  0  0  0
 19 44  1  0  0  0  0
 19 45  1  0  0  0  0
 20 21  1  0  0  0  0
 20 55  1  0  0  0  0
 21 22  1  0  0  0  0
 21 46  1  0  0  0  0
 21 47  1  0  0  0  0
 22 23  1  0  0  0  0
 22 24  1  0  0  0  0
 22 48  1  0  0  0  0
 23 49  1  0  0  0  0
 23 50  1  0  0  0  0
 23 51  1  0  0  0  0
 24 52  1  0  0  0  0
 24 53  1  0  0  0  0
 24 54  1  0  0  0  0
M  CHG  1  20   1
M  END
> <s_m_source_file>
AV-unprocessed.smi

> <i_m_source_file_index>
2812

> <i_lp_mmshare_version>
43012

> <i_f3d_flags>
0

> <s_epik_input>
W0NIM11jMVtjSF1bY0hdbihbQ0gzXSljKD1PKWMxW05IXUMoPU8pW05IXVtDSDJdW0NAQEhdMltDSDJdW0NIMl1bQ0gyXVtDSDJdTjJbQ0gyXVtDSF0oW0NIM10pW0NIM10=

> <s_epik_cmdline>
J2VwaWtfcHl0aG9uJywgJy1waCcsICc3LjAnLCAnLXRuJywgJzgnLCAnLW1hJywgJzIwMCcsICctbWV0YWxfYmluZGluZycsICctaW1hZScsICc8aW5maWxlLm1hZT4nLCAnLW9tYWUnLCAnPG91dGZpbGUubWFlPic=

> <r_lp_tautomer_probability>
1

> <r_epik_Ionization_Penalty>
0.0010902

> <r_epik_Ionization_Penalty_Charging>
0.00107091

> <r_epik_Ionization_Penalty_Neutral>
1.92854e-05

> <r_epik_State_Penalty>
0.000697184

> <r_epik_Charging_Adjusted_Penalty>
0.0017681

> <i_epik_Tot_Q>
1

> <i_epik_Tot_abs_Q>
1

> <r_epik_Metal_State_Penalty>
-0

> <b_epik_Metal_Only>
0

> <s_lp_Force_Field>
OPLS_2005

> <r_lp_Energy>
39.0226

> <b_lp_Chiralities_Consistent>
1

> <s_lp_Variant>
AV-unprocessed.smi:2812-1

> <Gold.Version>
5.8.1

> <Gold.Id.Protein>
6NUR|6NUR_protein|mol2

> <Gold.PLP.Fitness>
49.4709

> <Gold.PLP.PLP>
-47.0051

> <Gold.PLP.part.hbond>
-1.0000

> <Gold.PLP.part.metal>
0.0000

> <Gold.PLP.part.buried>
-6.2974

> <Gold.PLP.part.nonpolar>
-40.4224

> <Gold.PLP.part.repulsive>
0.3022

> <Gold.PLP.ligand.clash>
0.0038

> <Gold.PLP.ligand.torsion>
2.0968

> <Gold.PLP.Chemscore.Hbond>
2.0000

> <Gold.PLP.Chemscore.CHOScore>
0.0000

> <Gold.PLP.Chemscore.Metal>
0.0000

> <Gold.Chemscore.Hbonds>
donor molecule, donor type, donor heavy atom, donor atom, acceptor molecule, acceptor atom, score
      L1  H    20    55       P1  7948  2.00

> <Gold.PLP.Chemscore.Internal.Correction>
0.6631

> <Gold.Rescore>
     Score         DG    S(hbond)    S(metal)    S(lipo)     H(rot)  DE(clash)    DE(int)     intcor
     15.83     -17.88       0.98        0.00     111.23       1.52       0.04       2.01       ----

> <Gold.Chemscore.Fitness>
15.8302

> <Gold.Chemscore.DG>
-17.8780

> <Gold.Chemscore.ZeroCoef>
-5.4800

> <Gold.Chemscore.Hbond>
0.9774

> <Gold.Chemscore.Metal>
0.0000

> <Gold.Chemscore.Lipo>
111.2278

> <Gold.Chemscore.Internal_Hbond>
0.0000

> <Gold.Chemscore.DEClash>
0.0380

> <Gold.Chemscore.DEInternal>
2.0098

> <Gold.Chemscore.Rot>
1.5157

> <Gold.Chemscore.Internal.Correction>
   9.000000E+99

> <Gold.Chemscore.Hbonds>
donor molecule, donor type, donor heavy atom, donor atom, acceptor molecule, acceptor atom, score
      L1  H    20    55       P1  7948  0.69

> <Gold.Chemscore.Hbond.Weighted>
-3.2646

> <Gold.Chemscore.Metal.Weighted>
-0.0000

> <Gold.Chemscore.Lipo.Weighted>
-13.0136

> <Gold.Chemscore.Internal_Hbond.Weighted>
0.0000

> <Gold.Chemscore.DEClash.Weighted>
0.0380

> <Gold.Chemscore.DEInternal.Weighted>
2.0098

> <Gold.Chemscore.Rot.Weighted>
3.8803

> <Gold.Chemscore.Internal.Correction.Weighted>
   9.000000E+99

> <Gold.Protein.RotatedTorsions>
[ 6907 6896 6895 6894 ] final  172.23 input  -60.11 | X-H torsion
[ 7974 7965 7964 7962 ] final  155.70 input  175.53 | X-H torsion
[ 8008 7997 7996 7995 ] final   11.90 input   59.86 | X-H torsion
[ 10167 10162 10161 10158 ] final  -33.26 input  -65.29 | X-H torsion
[ 10718 10713 10712 10709 ] final -152.21 input   66.30 | X-H torsion
[ 10763 10752 10751 10750 ] final   88.90 input  -60.55 | X-H torsion
[ 11005 11000 10999 10996 ] final -103.89 input  -57.11 | X-H torsion

> <Gold.Protein.ActiveResidues>
 VAL166  LYS551  ARG553  GLY616  TRP617  ASP618  TYR619  PRO620  LYS621  CYS622 
 ASP623  PHE694  ASN695  SER759  ASP760  ASP761  ALA762  ILE779  LEU786  VAL792 
 PHE793  MET794  SER795  GLU796  ALA797  LYS798  CYS799  TRP800  GLU811  SER814 

> <Gold.Protein.RotatedAtoms>
  151.7876  133.3356  159.3489 H   0  0  0  0  0  0  0  0  0  0  0  0  # atno 6907 bound_to 6896
  150.7403  134.5872  159.5978 H   0  0  0  0  0  0  0  0  0  0  0  0  # atno 6908 bound_to 6896
  152.3232  134.7355  160.0360 H   0  0  0  0  0  0  0  0  0  0  0  0  # atno 6909 bound_to 6896
  144.8008  139.7104  143.6182 H   0  0  0  0  0  0  0  0  0  0  0  0  # atno 7974 bound_to 7965
  154.8132  140.2871  155.5838 H   0  0  0  0  0  0  0  0  0  0  0  0  # atno 8008 bound_to 7997
  156.2990  140.2564  156.2955 H   0  0  0  0  0  0  0  0  0  0  0  0  # atno 8009 bound_to 7997
  154.9423  140.0381  157.2092 H   0  0  0  0  0  0  0  0  0  0  0  0  # atno 8010 bound_to 7997
  140.7207  143.3633  151.1920 H   0  0  0  0  0  0  0  0  0  0  0  0  # atno 10167 bound_to 10162
  156.4695  130.8251  151.2481 H   0  0  0  0  0  0  0  0  0  0  0  0  # atno 10718 bound_to 10713
  153.1815  135.4490  155.0034 H   0  0  0  0  0  0  0  0  0  0  0  0  # atno 10763 bound_to 10752
  154.8033  135.3264  154.7497 H   0  0  0  0  0  0  0  0  0  0  0  0  # atno 10764 bound_to 10752
  153.7961  135.6966  153.4918 H   0  0  0  0  0  0  0  0  0  0  0  0  # atno 10765 bound_to 10752
  141.1125  133.8677  157.1542 H   0  0  0  0  0  0  0  0  0  0  0  0  # atno 11005 bound_to 11000
  146.2289  139.5775  142.9568 LP  0  0  0  0  0  0  0  0  0  0  0  0  # atno 17320 bound_to 7965
  145.5558  141.0409  143.2253 LP  0  0  0  0  0  0  0  0  0  0  0  0  # atno 17321 bound_to 7965
  139.7190  143.9254  152.2978 LP  0  0  0  0  0  0  0  0  0  0  0  0  # atno 17342 bound_to 10162
  139.9005  144.6914  150.8671 LP  0  0  0  0  0  0  0  0  0  0  0  0  # atno 17343 bound_to 10162
  157.7492  131.0081  150.3215 LP  0  0  0  0  0  0  0  0  0  0  0  0  # atno 17370 bound_to 10713
  156.3633  130.3851  149.7234 LP  0  0  0  0  0  0  0  0  0  0  0  0  # atno 17371 bound_to 10713
  140.0028  135.0021  157.0227 LP  0  0  0  0  0  0  0  0  0  0  0  0  # atno 17394 bound_to 11000
  140.4735  134.1362  155.7206 LP  0  0  0  0  0  0  0  0  0  0  0  0  # atno 17395 bound_to 11000

$$$$
