AV-unprocessed.smi:2329|AV-procd|sdf|9302|dock10
  -GOLD-   2272012523D 1   1.00000     0.00000
 Structure written by MMmdl.
 45 48  0  0  0  0  0  0  0  0  1 V2000
  152.6708  144.5642  157.6310 C   0  0  0  0  0  0  0  0  0  0  0  0
  152.5198  144.0723  159.0549 C   0  0  0  0  0  0  0  0  0  0  0  0
  151.6407  144.7087  159.9533 C   0  0  0  0  0  0  0  0  0  0  0  0
  151.5483  144.2016  161.2618 C   0  0  0  0  0  0  0  0  0  0  0  0
  152.3330  143.0873  161.6157 C   0  0  0  0  0  0  0  0  0  0  0  0
  153.1907  142.5083  160.6537 C   0  0  0  0  0  0  0  0  0  0  0  0
  153.9323  141.3877  161.1090 N   0  0  0  0  0  0  0  0  0  0  0  0
  154.4581  140.3805  160.3850 C   0  0  0  0  0  0  0  0  0  0  0  0
  154.4586  140.3239  159.1567 O   0  0  0  0  0  0  0  0  0  0  0  0
  155.0087  139.4046  161.1277 N   0  0  0  0  0  0  0  0  0  0  0  0
  155.6595  138.1806  160.6580 C   0  0  2  0  0  0  0  0  0  0  0  0
  154.8727  137.5141  159.5290 C   0  0  1  0  0  0  0  0  0  0  0  0
  155.1142  137.3020  158.0771 C   0  0  0  0  0  0  0  0  0  0  0  0
  154.7251  135.8012  158.0116 C   0  0  0  0  0  0  0  0  0  0  0  0
  154.5948  135.3646  159.3862 O   0  0  0  0  0  0  0  0  0  0  0  0
  155.4475  136.2355  160.1015 C   0  0  2  0  0  0  0  0  0  0  0  0
  155.3053  136.8868  161.4915 C   0  0  0  0  0  0  0  0  0  0  0  0
  156.3143  136.4401  162.5565 C   0  0  0  0  0  0  0  0  0  0  0  0
  155.6276  136.4380  163.9281 C   0  0  0  0  0  0  0  0  0  0  0  0
  154.2316  137.0097  163.7029 C   0  0  0  0  0  0  0  0  0  0  0  0
  153.9545  136.7801  162.2201 C   0  0  0  0  0  0  0  0  0  0  0  0
  153.2730  143.0043  159.3942 N   0  0  0  0  0  0  0  0  0  0  0  0
  151.9640  145.3648  157.4114 H   0  0  0  0  0  0  0  0  0  0  0  0
  152.4926  143.7512  156.9267 H   0  0  0  0  0  0  0  0  0  0  0  0
  153.6794  144.9452  157.4685 H   0  0  0  0  0  0  0  0  0  0  0  0
  151.0519  145.5621  159.6508 H   0  0  0  0  0  0  0  0  0  0  0  0
  150.8864  144.6587  161.9824 H   0  0  0  0  0  0  0  0  0  0  0  0
  152.2726  142.6840  162.6160 H   0  0  0  0  0  0  0  0  0  0  0  0
  154.0322  141.3121  162.1104 H   0  0  0  0  0  0  0  0  0  0  0  0
  154.9828  139.5321  162.1293 H   0  0  0  0  0  0  0  0  0  0  0  0
  156.7225  138.2967  160.4271 H   0  0  0  0  0  0  0  0  0  0  0  0
  153.7973  137.6058  159.7085 H   0  0  0  0  0  0  0  0  0  0  0  0
  154.4820  137.9274  157.4463 H   0  0  0  0  0  0  0  0  0  0  0  0
  156.1592  137.4658  157.8099 H   0  0  0  0  0  0  0  0  0  0  0  0
  153.7805  135.6471  157.4893 H   0  0  0  0  0  0  0  0  0  0  0  0
  155.4942  135.2223  157.4988 H   0  0  0  0  0  0  0  0  0  0  0  0
  156.4957  136.0589  159.8340 H   0  0  0  0  0  0  0  0  0  0  0  0
  156.6904  135.4401  162.3371 H   0  0  0  0  0  0  0  0  0  0  0  0
  157.1866  137.0929  162.5711 H   0  0  0  0  0  0  0  0  0  0  0  0
  155.5543  135.4154  164.2996 H   0  0  0  0  0  0  0  0  0  0  0  0
  156.1840  137.0158  164.6666 H   0  0  0  0  0  0  0  0  0  0  0  0
  153.4805  136.5508  164.3463 H   0  0  0  0  0  0  0  0  0  0  0  0
  154.2366  138.0794  163.9142 H   0  0  0  0  0  0  0  0  0  0  0  0
  153.2039  137.4830  161.8594 H   0  0  0  0  0  0  0  0  0  0  0  0
  153.5392  135.7811  162.0814 H   0  0  0  0  0  0  0  0  0  0  0  0
  1  2  1  0  0  0  0
  1 23  1  0  0  0  0
  1 24  1  0  0  0  0
  1 25  1  0  0  0  0
  2 22  1  0  0  0  0
  2  3  2  0  0  0  0
  3  4  1  0  0  0  0
  3 26  1  0  0  0  0
  4  5  2  0  0  0  0
  4 27  1  0  0  0  0
  5  6  1  0  0  0  0
  5 28  1  0  0  0  0
  6  7  1  0  0  0  0
  6 22  2  0  0  0  0
  7  8  1  0  0  0  0
  7 29  1  0  0  0  0
  8  9  2  0  0  0  0
  8 10  1  0  0  0  0
 10 11  1  0  0  0  0
 10 30  1  0  0  0  0
 11 17  1  0  0  0  0
 11 12  1  0  0  0  0
 11 31  1  0  0  0  0
 12 16  1  0  0  0  0
 12 13  1  0  0  0  0
 12 32  1  0  0  0  0
 13 14  1  0  0  0  0
 13 33  1  0  0  0  0
 13 34  1  0  0  0  0
 14 15  1  0  0  0  0
 14 35  1  0  0  0  0
 14 36  1  0  0  0  0
 15 16  1  0  0  0  0
 16 17  1  0  0  0  0
 16 37  1  0  0  0  0
 17 21  1  0  0  0  0
 17 18  1  0  0  0  0
 18 19  1  0  0  0  0
 18 38  1  0  0  0  0
 18 39  1  0  0  0  0
 19 20  1  0  0  0  0
 19 40  1  0  0  0  0
 19 41  1  0  0  0  0
 20 21  1  0  0  0  0
 20 42  1  0  0  0  0
 20 43  1  0  0  0  0
 21 44  1  0  0  0  0
 21 45  1  0  0  0  0
M  END
> <s_m_source_file>
AV-unprocessed.smi

> <i_m_source_file_index>
2329

> <i_lp_mmshare_version>
43012

> <i_f3d_flags>
0

> <s_epik_input>
W0NIM11jMVtjSF1bY0hdW2NIXWMobjEpW05IXUMoPU8pW05IXVtDQEBIXTJbQ0BASF0oW0NIMl1bQ0gyXU8zKVtDQEhdM0MyNFtDSDJdW0NIMl1bQ0gyXVtDSDJdNA==

> <s_epik_cmdline>
J2VwaWtfcHl0aG9uJywgJy1waCcsICc3LjAnLCAnLXRuJywgJzgnLCAnLW1hJywgJzIwMCcsICctbWV0YWxfYmluZGluZycsICctaW1hZScsICc8aW5maWxlLm1hZT4nLCAnLW9tYWUnLCAnPG91dGZpbGUubWFlPic=

> <r_lp_tautomer_probability>
1

> <r_epik_Ionization_Penalty>
8.97002e-05

> <r_epik_Ionization_Penalty_Charging>
0

> <r_epik_Ionization_Penalty_Neutral>
8.97002e-05

> <r_epik_State_Penalty>
-0

> <r_epik_Charging_Adjusted_Penalty>
0

> <i_epik_Tot_Q>
0

> <i_epik_Tot_abs_Q>
0

> <r_epik_Metal_State_Penalty>
-0

> <b_epik_Metal_Only>
0

> <s_lp_Force_Field>
OPLS_2005

> <r_lp_Energy>
86.3971

> <b_lp_Chiralities_Consistent>
1

> <s_lp_Variant>
AV-unprocessed.smi:2329-1

> <Gold.Version>
5.8.1

> <Gold.Id.Protein>
6NUR|6NUR_protein|mol2

> <Gold.PLP.Fitness>
46.1960

> <Gold.PLP.PLP>
-41.1951

> <Gold.PLP.part.hbond>
-2.0000

> <Gold.PLP.part.metal>
0.0000

> <Gold.PLP.part.buried>
-5.0111

> <Gold.PLP.part.nonpolar>
-33.2377

> <Gold.PLP.part.repulsive>
0.0113

> <Gold.PLP.ligand.clash>
0.0000

> <Gold.PLP.ligand.torsion>
0.3609

> <Gold.PLP.Chemscore.Hbond>
1.8143

> <Gold.PLP.Chemscore.CHOScore>
0.0000

> <Gold.PLP.Chemscore.Metal>
0.0000

> <Gold.Chemscore.Hbonds>
donor molecule, donor type, donor heavy atom, donor atom, acceptor molecule, acceptor atom, score
      P1  H  6896  6908       L1    15  0.32
      P1  H  7997  8008       L1     9  0.75

> <Gold.PLP.Chemscore.Internal.Correction>
0.2796

> <Gold.Rescore>
     Score         DG    S(hbond)    S(metal)    S(lipo)     H(rot)  DE(clash)    DE(int)     intcor
     18.94     -21.88       1.90        0.00     107.80       1.00       0.03       2.91       ----

> <Gold.Chemscore.Fitness>
18.9373

> <Gold.Chemscore.DG>
-21.8784

> <Gold.Chemscore.ZeroCoef>
-5.4800

> <Gold.Chemscore.Hbond>
1.8998

> <Gold.Chemscore.Metal>
0.0000

> <Gold.Chemscore.Lipo>
107.8039

> <Gold.Chemscore.Internal_Hbond>
0.0000

> <Gold.Chemscore.DEClash>
0.0284

> <Gold.Chemscore.DEInternal>
2.9127

> <Gold.Chemscore.Rot>
1.0000

> <Gold.Chemscore.Internal.Correction>
   9.000000E+99

> <Gold.Chemscore.Hbonds>
donor molecule, donor type, donor heavy atom, donor atom, acceptor molecule, acceptor atom, score
      P1  H  6896  6908       L1    15  0.30
      P1  H  7997  8008       L1     9  0.74

> <Gold.Chemscore.Hbond.Weighted>
-6.3453

> <Gold.Chemscore.Metal.Weighted>
-0.0000

> <Gold.Chemscore.Lipo.Weighted>
-12.6131

> <Gold.Chemscore.Internal_Hbond.Weighted>
0.0000

> <Gold.Chemscore.DEClash.Weighted>
0.0284

> <Gold.Chemscore.DEInternal.Weighted>
2.9127

> <Gold.Chemscore.Rot.Weighted>
2.5600

> <Gold.Chemscore.Internal.Correction.Weighted>
   9.000000E+99

> <Gold.Protein.RotatedTorsions>
[ 6907 6896 6895 6894 ] final  -50.91 input  -60.11 | X-H torsion
[ 7974 7965 7964 7962 ] final  137.36 input  175.53 | X-H torsion
[ 8008 7997 7996 7995 ] final -101.85 input   59.86 | X-H torsion
[ 10167 10162 10161 10158 ] final   76.99 input  -65.29 | X-H torsion
[ 10718 10713 10712 10709 ] final   65.11 input   66.30 | X-H torsion
[ 10763 10752 10751 10750 ] final -125.21 input  -60.55 | X-H torsion
[ 11005 11000 10999 10996 ] final  -35.90 input  -57.11 | X-H torsion

> <Gold.Protein.ActiveResidues>
 VAL166  LYS551  ARG553  GLY616  TRP617  ASP618  TYR619  PRO620  LYS621  CYS622 
 ASP623  PHE694  ASN695  SER759  ASP760  ASP761  ALA762  ILE779  LEU786  VAL792 
 PHE793  MET794  SER795  GLU796  ALA797  LYS798  CYS799  TRP800  GLU811  SER814 

> <Gold.Protein.RotatedAtoms>
  150.8662  134.8025  159.7119 H   0  0  0  0  0  0  0  0  0  0  0  0  # atno 6907 bound_to 6896
  152.4682  134.5020  159.9737 H   0  0  0  0  0  0  0  0  0  0  0  0  # atno 6908 bound_to 6896
  151.5116  133.3445  159.2921 H   0  0  0  0  0  0  0  0  0  0  0  0  # atno 6909 bound_to 6896
  144.9475  139.4857  143.5542 H   0  0  0  0  0  0  0  0  0  0  0  0  # atno 7974 bound_to 7965
  154.8483  140.0432  157.1587 H   0  0  0  0  0  0  0  0  0  0  0  0  # atno 8008 bound_to 7997
  154.8970  140.2995  155.5318 H   0  0  0  0  0  0  0  0  0  0  0  0  # atno 8009 bound_to 7997
  156.2995  140.2383  156.3993 H   0  0  0  0  0  0  0  0  0  0  0  0  # atno 8010 bound_to 7997
  139.9863  144.5789  150.7856 H   0  0  0  0  0  0  0  0  0  0  0  0  # atno 10167 bound_to 10162
  157.6084  130.9196  149.9933 H   0  0  0  0  0  0  0  0  0  0  0  0  # atno 10718 bound_to 10713
  154.8733  135.4037  154.3231 H   0  0  0  0  0  0  0  0  0  0  0  0  # atno 10763 bound_to 10752
  153.4056  135.7019  153.6401 H   0  0  0  0  0  0  0  0  0  0  0  0  # atno 10764 bound_to 10752
  153.5125  135.3704  155.2564 H   0  0  0  0  0  0  0  0  0  0  0  0  # atno 10765 bound_to 10752
  140.9832  133.7045  156.1720 H   0  0  0  0  0  0  0  0  0  0  0  0  # atno 11005 bound_to 11000
  146.3309  139.8538  142.8868 LP  0  0  0  0  0  0  0  0  0  0  0  0  # atno 17320 bound_to 7965
  145.2895  141.0163  143.3671 LP  0  0  0  0  0  0  0  0  0  0  0  0  # atno 17321 bound_to 7965
  140.7471  143.2901  151.3355 LP  0  0  0  0  0  0  0  0  0  0  0  0  # atno 17342 bound_to 10162
  139.6372  144.0607  152.2525 LP  0  0  0  0  0  0  0  0  0  0  0  0  # atno 17343 bound_to 10162
  156.1178  130.3647  149.9939 LP  0  0  0  0  0  0  0  0  0  0  0  0  # atno 17370 bound_to 10713
  156.8025  130.9295  151.3645 LP  0  0  0  0  0  0  0  0  0  0  0  0  # atno 17371 bound_to 10713
  140.7154  134.4416  157.5579 LP  0  0  0  0  0  0  0  0  0  0  0  0  # atno 17394 bound_to 11000
  139.8959  134.8672  156.2110 LP  0  0  0  0  0  0  0  0  0  0  0  0  # atno 17395 bound_to 11000

$$$$
