AV-unprocessed.smi:3054|AV-procd|sdf|11640|dock1
  -GOLD-   2272017 33D 1   1.00000     0.00000
 Structure written by MMmdl.
 40 41  0  0  0  0  0  0  0  0  2 V2000
  145.2104  137.2088  155.0823 C   0  0  0  0  0  0  0  0  0  0  0  0
  146.0097  138.4794  154.7608 C   0  0  0  0  0  0  0  0  0  0  0  0
  146.9049  138.3477  153.5012 C   0  0  1  0  0  0  0  0  0  0  0  0
  146.0882  137.9935  152.2364 C   0  0  0  0  0  0  0  0  0  0  0  0
  146.2362  136.5919  151.8488 N   0  0  0  0  0  0  0  0  0  0  0  0
  145.2323  135.7490  151.5680 C   0  0  0  0  0  0  0  0  0  0  0  0
  144.0468  136.0782  151.5778 O   0  0  0  0  0  0  0  0  0  0  0  0
  145.6916  134.5235  151.2685 N   0  0  0  0  0  0  0  0  0  0  0  0
  144.9249  133.3832  150.9217 C   0  0  0  0  0  0  0  0  0  0  0  0
  145.3585  132.0513  150.6542 C   0  0  0  0  0  0  0  0  0  0  0  0
  144.3338  131.2634  150.3616 N   0  0  0  0  0  0  0  0  0  0  0  0
  143.2555  132.0753  150.4365 N   0  0  0  0  0  0  0  0  0  0  0  0
  143.5700  133.3731  150.7743 C   0  0  0  0  0  0  0  0  0  0  0  0
  147.7694  139.5415  153.2673 N   0  3  0  0  0  0  0  0  0  0  0  0
  147.0848  140.8184  152.9407 C   0  0  0  0  0  0  0  0  0  0  0  0
  147.5475  141.8340  153.9866 C   0  0  0  0  0  0  0  0  0  0  0  0
  148.9321  141.3302  154.3740 C   0  0  0  0  0  0  0  0  0  0  0  0
  148.7682  139.8117  154.3293 C   0  0  0  0  0  0  0  0  0  0  0  0
  142.3226  131.7326  150.2553 H   0  0  0  0  0  0  0  0  0  0  0  0
  144.6530  137.3295  156.0113 H   0  0  0  0  0  0  0  0  0  0  0  0
  145.8685  136.3480  155.2026 H   0  0  0  0  0  0  0  0  0  0  0  0
  144.4891  136.9749  154.2997 H   0  0  0  0  0  0  0  0  0  0  0  0
  145.3123  139.3098  154.6507 H   0  0  0  0  0  0  0  0  0  0  0  0
  146.6178  138.7157  155.6336 H   0  0  0  0  0  0  0  0  0  0  0  0
  147.5909  137.5158  153.6712 H   0  0  0  0  0  0  0  0  0  0  0  0
  145.0267  138.1578  152.4168 H   0  0  0  0  0  0  0  0  0  0  0  0
  146.3554  138.6551  151.4106 H   0  0  0  0  0  0  0  0  0  0  0  0
  147.1782  136.2295  151.8165 H   0  0  0  0  0  0  0  0  0  0  0  0
  146.6920  134.3900  151.2929 H   0  0  0  0  0  0  0  0  0  0  0  0
  146.3532  131.6312  150.6592 H   0  0  0  0  0  0  0  0  0  0  0  0
  142.8248  134.1486  150.8761 H   0  0  0  0  0  0  0  0  0  0  0  0
  147.4311  141.1335  151.9563 H   0  0  0  0  0  0  0  0  0  0  0  0
  145.9996  140.7476  152.8829 H   0  0  0  0  0  0  0  0  0  0  0  0
  147.5573  142.8568  153.6086 H   0  0  0  0  0  0  0  0  0  0  0  0
  146.8862  141.8015  154.8538 H   0  0  0  0  0  0  0  0  0  0  0  0
  149.6635  141.6494  153.6301 H   0  0  0  0  0  0  0  0  0  0  0  0
  149.2602  141.6934  155.3485 H   0  0  0  0  0  0  0  0  0  0  0  0
  148.4111  139.4595  155.2973 H   0  0  0  0  0  0  0  0  0  0  0  0
  149.7086  139.3001  154.1224 H   0  0  0  0  0  0  0  0  0  0  0  0
  148.3125  139.3202  152.4446 H   0  0  0  0  0  0  0  0  0  0  0  0
  1  2  1  0  0  0  0
  1 20  1  0  0  0  0
  1 21  1  0  0  0  0
  1 22  1  0  0  0  0
  2  3  1  0  0  0  0
  2 23  1  0  0  0  0
  2 24  1  0  0  0  0
  3  4  1  0  0  0  0
  3 14  1  0  0  0  0
  3 25  1  0  0  0  0
  4  5  1  0  0  0  0
  4 26  1  0  0  0  0
  4 27  1  0  0  0  0
  5  6  1  0  0  0  0
  5 28  1  0  0  0  0
  6  7  2  0  0  0  0
  6  8  1  0  0  0  0
  8  9  1  0  0  0  0
  8 29  1  0  0  0  0
  9 13  2  0  0  0  0
  9 10  1  0  0  0  0
 10 11  2  0  0  0  0
 10 30  1  0  0  0  0
 11 12  1  0  0  0  0
 12 19  1  0  0  0  0
 12 13  1  0  0  0  0
 13 31  1  0  0  0  0
 14 18  1  0  0  0  0
 14 15  1  0  0  0  0
 14 40  1  0  0  0  0
 15 16  1  0  0  0  0
 15 32  1  0  0  0  0
 15 33  1  0  0  0  0
 16 17  1  0  0  0  0
 16 34  1  0  0  0  0
 16 35  1  0  0  0  0
 17 18  1  0  0  0  0
 17 36  1  0  0  0  0
 17 37  1  0  0  0  0
 18 38  1  0  0  0  0
 18 39  1  0  0  0  0
M  CHG  1  14   1
M  END
> <s_m_source_file>
AV-unprocessed.smi

> <i_m_source_file_index>
3054

> <i_lp_mmshare_version>
43012

> <i_f3d_flags>
0

> <s_epik_input>
W0NIMl0xW0NIMl1bQ0gyXVtDSDJdTjFbQ0BIXShbQ0gyXVtDSDNdKVtDSDJdW05IXUMoPU8pW05IXWMyW2NIXW5bbkhdW2NIXTI=

> <s_epik_cmdline>
J2VwaWtfcHl0aG9uJywgJy1waCcsICc3LjAnLCAnLXRuJywgJzgnLCAnLW1hJywgJzIwMCcsICctbWV0YWxfYmluZGluZycsICctaW1hZScsICc8aW5maWxlLm1hZT4nLCAnLW9tYWUnLCAnPG91dGZpbGUubWFlPic=

> <r_lp_tautomer_probability>
0.5

> <r_epik_Ionization_Penalty>
0.00108132

> <r_epik_Ionization_Penalty_Charging>
0.00104139

> <r_epik_Ionization_Penalty_Neutral>
3.99244e-05

> <r_epik_State_Penalty>
0.00068071

> <r_epik_Charging_Adjusted_Penalty>
0.0017221

> <i_epik_Tot_Q>
1

> <i_epik_Tot_abs_Q>
1

> <r_epik_Metal_State_Penalty>
-0

> <b_epik_Metal_Only>
0

> <s_lp_Force_Field>
OPLS_2005

> <r_lp_Energy>
40.663

> <b_lp_Chiralities_Consistent>
1

> <s_lp_Variant>
AV-unprocessed.smi:3054-2

> <Gold.Version>
5.8.1

> <Gold.Id.Protein>
6NUR|6NUR_protein|mol2

> <Gold.PLP.Fitness>
41.1960

> <Gold.PLP.PLP>
-29.2686

> <Gold.PLP.part.hbond>
-3.3356

> <Gold.PLP.part.metal>
0.0000

> <Gold.PLP.part.buried>
-3.3879

> <Gold.PLP.part.nonpolar>
-23.3816

> <Gold.PLP.part.repulsive>
0.5779

> <Gold.PLP.ligand.clash>
0.0000

> <Gold.PLP.ligand.torsion>
0.7754

> <Gold.PLP.Chemscore.Hbond>
2.4565

> <Gold.PLP.Chemscore.CHOScore>
1.9697

> <Gold.PLP.Chemscore.Metal>
0.0000

> <Gold.Chemscore.Hbonds>
donor molecule, donor type, donor heavy atom, donor atom, acceptor molecule, acceptor atom, score
      L1  H     5    28       P1  7948  1.00
      L1  H    12    19       P1 10952  0.70
      L1  H    14    40       P1  7957  0.90
      P1  H 10785 10796       L1    11  0.07
      L1  C    10    30       P1 10747  0.43
      L1  C    13    31       P1 10186  0.93

> <Gold.PLP.Chemscore.Internal.Correction>
0.1996

> <Gold.Rescore>
     Score         DG    S(hbond)    S(metal)    S(lipo)     H(rot)  DE(clash)    DE(int)     intcor
     14.94     -17.79       2.70        0.00      67.76       1.81       0.69       2.16       ----

> <Gold.Chemscore.Fitness>
14.9434

> <Gold.Chemscore.DG>
-17.7903

> <Gold.Chemscore.ZeroCoef>
-5.4800

> <Gold.Chemscore.Hbond>
2.6990

> <Gold.Chemscore.Metal>
0.0000

> <Gold.Chemscore.Lipo>
67.7600

> <Gold.Chemscore.Internal_Hbond>
0.0000

> <Gold.Chemscore.DEClash>
0.6875

> <Gold.Chemscore.DEInternal>
2.1594

> <Gold.Chemscore.Rot>
1.8094

> <Gold.Chemscore.Internal.Correction>
   9.000000E+99

> <Gold.Chemscore.Hbonds>
donor molecule, donor type, donor heavy atom, donor atom, acceptor molecule, acceptor atom, score
      L1  H     5    28       P1  7948  0.99
      L1  H    12    19       P1 10952  0.52
      L1  H    14    40       P1  7957  0.87

> <Gold.Chemscore.Hbond.Weighted>
-9.0145

> <Gold.Chemscore.Metal.Weighted>
-0.0000

> <Gold.Chemscore.Lipo.Weighted>
-7.9279

> <Gold.Chemscore.Internal_Hbond.Weighted>
0.0000

> <Gold.Chemscore.DEClash.Weighted>
0.6875

> <Gold.Chemscore.DEInternal.Weighted>
2.1594

> <Gold.Chemscore.Rot.Weighted>
4.6322

> <Gold.Chemscore.Internal.Correction.Weighted>
   9.000000E+99

> <Gold.Protein.RotatedTorsions>
[ 6907 6896 6895 6894 ] final  -58.13 input  -60.11 | X-H torsion
[ 7974 7965 7964 7962 ] final   70.61 input  175.53 | X-H torsion
[ 8008 7997 7996 7995 ] final -145.03 input   59.86 | X-H torsion
[ 10167 10162 10161 10158 ] final  131.00 input  -65.29 | X-H torsion
[ 10718 10713 10712 10709 ] final  -17.54 input   66.30 | X-H torsion
[ 10763 10752 10751 10750 ] final  -93.70 input  -60.55 | X-H torsion
[ 11005 11000 10999 10996 ] final  -36.70 input  -57.11 | X-H torsion

> <Gold.Protein.ActiveResidues>
 VAL166  LYS551  ARG553  GLY616  TRP617  ASP618  TYR619  PRO620  LYS621  CYS622 
 ASP623  PHE694  ASN695  SER759  ASP760  ASP761  ALA762  ILE779  LEU786  VAL792 
 PHE793  MET794  SER795  GLU796  ALA797  LYS798  CYS799  TRP800  GLU811  SER814 

> <Gold.Protein.RotatedAtoms>
  150.8031  134.7138  159.6618 H   0  0  0  0  0  0  0  0  0  0  0  0  # atno 6907 bound_to 6896
  152.4149  134.6056  160.0021 H   0  0  0  0  0  0  0  0  0  0  0  0  # atno 6908 bound_to 6896
  151.6288  133.3296  159.3140 H   0  0  0  0  0  0  0  0  0  0  0  0  # atno 6909 bound_to 6896
  145.7761  139.2865  143.1293 H   0  0  0  0  0  0  0  0  0  0  0  0  # atno 7974 bound_to 7965
  155.5365  140.0604  157.2878 H   0  0  0  0  0  0  0  0  0  0  0  0  # atno 8008 bound_to 7997
  154.4466  140.1926  156.0591 H   0  0  0  0  0  0  0  0  0  0  0  0  # atno 8009 bound_to 7997
  156.0615  140.3272  155.7471 H   0  0  0  0  0  0  0  0  0  0  0  0  # atno 8010 bound_to 7997
  139.5404  144.6724  151.4645 H   0  0  0  0  0  0  0  0  0  0  0  0  # atno 10167 bound_to 10162
  156.5721  130.4752  149.6358 H   0  0  0  0  0  0  0  0  0  0  0  0  # atno 10718 bound_to 10713
  154.6985  135.5184  153.8492 H   0  0  0  0  0  0  0  0  0  0  0  0  # atno 10763 bound_to 10752
  153.0685  135.6593  154.0309 H   0  0  0  0  0  0  0  0  0  0  0  0  # atno 10764 bound_to 10752
  154.0172  135.2997  155.3365 H   0  0  0  0  0  0  0  0  0  0  0  0  # atno 10765 bound_to 10752
  140.9895  133.7013  156.1824 H   0  0  0  0  0  0  0  0  0  0  0  0  # atno 11005 bound_to 11000
  146.0121  140.8425  142.9965 LP  0  0  0  0  0  0  0  0  0  0  0  0  # atno 17320 bound_to 7965
  144.6804  140.2506  143.7332 LP  0  0  0  0  0  0  0  0  0  0  0  0  # atno 17321 bound_to 7965
  140.6631  143.8456  150.6910 LP  0  0  0  0  0  0  0  0  0  0  0  0  # atno 17342 bound_to 10162
  140.1857  143.4078  152.1900 LP  0  0  0  0  0  0  0  0  0  0  0  0  # atno 17343 bound_to 10162
  156.2706  130.7014  151.1811 LP  0  0  0  0  0  0  0  0  0  0  0  0  # atno 17370 bound_to 10713
  157.7346  131.0580  150.5516 LP  0  0  0  0  0  0  0  0  0  0  0  0  # atno 17371 bound_to 10713
  140.7063  134.4510  157.5584 LP  0  0  0  0  0  0  0  0  0  0  0  0  # atno 17394 bound_to 11000
  139.8985  134.8611  156.1997 LP  0  0  0  0  0  0  0  0  0  0  0  0  # atno 17395 bound_to 11000

$$$$
