AV-unprocessed.smi:157|AV-procd|sdf|1318|dock8
  -GOLD-   2262019 13D 1   1.00000     0.00000
 Structure written by MMmdl.
 36 38  0  0  0  0  0  0  0  0  2 V2000
  150.3383  136.2825  158.6127 O   0  0  0  0  0  0  0  0  0  0  0  0
  150.0057  136.4328  157.2489 C   0  0  0  0  0  0  0  0  0  0  0  0
  151.1161  137.1967  156.5119 C   0  0  2  0  0  0  0  0  0  0  0  0
  151.3104  138.4516  157.1612 O   0  0  0  0  0  0  0  0  0  0  0  0
  151.6594  139.3797  156.1915 C   0  0  2  0  0  0  0  0  0  0  0  0
  151.3727  140.7519  156.7042 N   0  0  0  0  0  0  0  0  0  0  0  0
  150.5671  141.6709  156.1315 C   0  0  0  0  0  0  0  0  0  0  0  0
  150.4940  142.8160  156.7891 N   0  3  0  0  0  0  0  0  0  0  0  0
  151.3089  142.6852  157.8939 C   0  0  0  0  0  0  0  0  0  0  0  0
  151.8549  141.4013  157.8166 C   0  0  0  0  0  0  0  0  0  0  0  0
  152.7611  140.7558  158.6717 N   0  0  0  0  0  0  0  0  0  0  0  0
  153.4718  141.3875  159.5483 C   0  0  0  0  0  0  0  0  0  0  0  0
  153.4427  142.7283  159.8940 N   0  0  0  0  0  0  0  0  0  0  0  0
  152.2108  143.4551  160.1449 C   0  0  0  0  0  0  0  0  0  0  0  0
  151.4353  143.8131  158.8700 C   0  0  1  0  0  0  0  0  0  0  0  0
  152.0185  144.9646  158.2956 O   0  0  0  0  0  0  0  0  0  0  0  0
  150.7794  139.0521  154.9964 C   0  0  0  0  0  0  0  0  0  0  0  0
  150.7810  137.5327  155.0401 C   0  0  1  0  0  0  0  0  0  0  0  0
  151.7842  137.0274  154.1816 O   0  0  0  0  0  0  0  0  0  0  0  0
  152.0546  136.6429  156.5808 H   0  0  0  0  0  0  0  0  0  0  0  0
  152.7294  139.3455  155.9796 H   0  0  0  0  0  0  0  0  0  0  0  0
  150.4279  144.1050  159.1685 H   0  0  0  0  0  0  0  0  0  0  0  0
  149.8166  137.1321  154.7256 H   0  0  0  0  0  0  0  0  0  0  0  0
  150.2065  137.1111  159.0482 H   0  0  0  0  0  0  0  0  0  0  0  0
  149.8395  135.4533  156.7994 H   0  0  0  0  0  0  0  0  0  0  0  0
  149.0661  136.9823  157.1848 H   0  0  0  0  0  0  0  0  0  0  0  0
  150.0309  141.4827  155.2184 H   0  0  0  0  0  0  0  0  0  0  0  0
  154.2086  140.8313  160.1300 H   0  0  0  0  0  0  0  0  0  0  0  0
  154.2099  143.1044  160.4328 H   0  0  0  0  0  0  0  0  0  0  0  0
  151.5827  142.8227  160.7744 H   0  0  0  0  0  0  0  0  0  0  0  0
  152.4245  144.3486  160.7324 H   0  0  0  0  0  0  0  0  0  0  0  0
  152.4102  145.4821  158.9822 H   0  0  0  0  0  0  0  0  0  0  0  0
  149.7726  139.4333  155.1743 H   0  0  0  0  0  0  0  0  0  0  0  0
  151.1712  139.4877  154.0760 H   0  0  0  0  0  0  0  0  0  0  0  0
  151.4147  136.9232  153.3177 H   0  0  0  0  0  0  0  0  0  0  0  0
  149.9426  143.6241  156.5299 H   0  0  0  0  0  0  0  0  0  0  0  0
  1  2  1  0  0  0  0
  1 24  1  0  0  0  0
  2  3  1  0  0  0  0
  2 25  1  0  0  0  0
  2 26  1  0  0  0  0
  3 20  1  0  0  0  0
  3 18  1  0  0  0  0
  3  4  1  0  0  0  0
  4  5  1  0  0  0  0
  5 21  1  0  0  0  0
  5  6  1  0  0  0  0
  5 17  1  0  0  0  0
  6 10  1  0  0  0  0
  6  7  1  0  0  0  0
  7  8  2  0  0  0  0
  7 27  1  0  0  0  0
  8  9  1  0  0  0  0
  8 36  1  0  0  0  0
  9 15  1  0  0  0  0
  9 10  2  0  0  0  0
 10 11  1  0  0  0  0
 11 12  2  0  0  0  0
 12 13  1  0  0  0  0
 12 28  1  0  0  0  0
 13 14  1  0  0  0  0
 13 29  1  0  0  0  0
 14 15  1  0  0  0  0
 14 30  1  0  0  0  0
 14 31  1  0  0  0  0
 15 22  1  0  0  0  0
 15 16  1  0  0  0  0
 16 32  1  0  0  0  0
 17 18  1  0  0  0  0
 17 33  1  0  0  0  0
 17 34  1  0  0  0  0
 18 23  1  0  0  0  0
 18 19  1  0  0  0  0
 19 35  1  0  0  0  0
M  CHG  1   8   1
M  END
> <s_m_source_file>
AV-unprocessed.smi

> <i_m_source_file_index>
157

> <i_lp_mmshare_version>
43012

> <i_f3d_flags>
0

> <s_epik_input>
W09IXVtDSDJdW0NASF0xT1tDQEhdKFtDSDJdW0NAQEhdMVtPSF0pbihbY0hdbjIpYyhjMjMpTj1bQ0hdW05IXVtDSDJdW0NASF0zW09IXQ==

> <s_epik_cmdline>
J2VwaWtfcHl0aG9uJywgJy1waCcsICc3LjAnLCAnLXRuJywgJzgnLCAnLW1hJywgJzIwMCcsICctbWV0YWxfYmluZGluZycsICctaW1hZScsICc8aW5maWxlLm1hZT4nLCAnLW9tYWUnLCAnPG91dGZpbGUubWFlPic=

> <r_epik_Ionization_Penalty>
1.68594

> <r_epik_Ionization_Penalty_Charging>
0

> <r_epik_Ionization_Penalty_Neutral>
1.68594

> <r_epik_State_Penalty>
1.79006

> <r_epik_Charging_Adjusted_Penalty>
1.79006

> <i_epik_Tot_Q>
1

> <i_epik_Tot_abs_Q>
1

> <r_epik_Metal_State_Penalty>
5.85324

> <b_epik_Metal_Only>
0

> <s_epik_Chemistry_Notes>
This compound has an imine and may undergo hydrolysis. This compound contains an acetal/aminal-like group ( X-CH(R)-Y where X, Y are N, S, or O) that may be acid/base labile, releasing an aldehyde.

> <s_lp_Force_Field>
OPLS_2005

> <r_lp_Energy>
52.5204

> <b_lp_Chiralities_Consistent>
1

> <s_lp_Variant>
AV-unprocessed.smi:157-28

> <Gold.Version>
5.8.1

> <Gold.Id.Protein>
6NUR|6NUR_protein|mol2

> <Gold.PLP.Fitness>
49.5905

> <Gold.PLP.PLP>
-35.1594

> <Gold.PLP.part.hbond>
-4.1330

> <Gold.PLP.part.metal>
0.0000

> <Gold.PLP.part.buried>
-6.7279

> <Gold.PLP.part.nonpolar>
-23.9684

> <Gold.PLP.part.repulsive>
0.0877

> <Gold.PLP.ligand.clash>
0.0000

> <Gold.PLP.ligand.torsion>
0.0579

> <Gold.PLP.Chemscore.Hbond>
4.8400

> <Gold.PLP.Chemscore.CHOScore>
0.0000

> <Gold.PLP.Chemscore.Metal>
0.0000

> <Gold.Chemscore.Hbonds>
donor molecule, donor type, donor heavy atom, donor atom, acceptor molecule, acceptor atom, score
      L1  H     8    36       P1  8028  2.00
      L1  H    19    35       P1  7949  0.91
      P1  H  6896  6908       L1     1  1.00
      P1  H 10752 10764       L1    19  0.74

> <Gold.PLP.Chemscore.Internal.Correction>
0.0270

> <Gold.Rescore>
     Score         DG    S(hbond)    S(metal)    S(lipo)     H(rot)  DE(clash)    DE(int)     intcor
     11.80     -11.93       2.89        0.00      52.79       3.67       0.01       0.12       ----

> <Gold.Chemscore.Fitness>
11.8024

> <Gold.Chemscore.DG>
-11.9310

> <Gold.Chemscore.ZeroCoef>
-5.4800

> <Gold.Chemscore.Hbond>
2.8919

> <Gold.Chemscore.Metal>
0.0000

> <Gold.Chemscore.Lipo>
52.7936

> <Gold.Chemscore.Internal_Hbond>
0.0000

> <Gold.Chemscore.DEClash>
0.0108

> <Gold.Chemscore.DEInternal>
0.1178

> <Gold.Chemscore.Rot>
3.6659

> <Gold.Chemscore.Internal.Correction>
   9.000000E+99

> <Gold.Chemscore.Hbonds>
donor molecule, donor type, donor heavy atom, donor atom, acceptor molecule, acceptor atom, score
      L1  H     8    36       P1  8028  1.00
      L1  H    19    35       P1  7949  0.70
      P1  H  6896  6908       L1     1  0.86
      P1  H 10752 10764       L1    19  0.09

> <Gold.Chemscore.Hbond.Weighted>
-9.6590

> <Gold.Chemscore.Metal.Weighted>
-0.0000

> <Gold.Chemscore.Lipo.Weighted>
-6.1769

> <Gold.Chemscore.Internal_Hbond.Weighted>
0.0000

> <Gold.Chemscore.DEClash.Weighted>
0.0108

> <Gold.Chemscore.DEInternal.Weighted>
0.1178

> <Gold.Chemscore.Rot.Weighted>
9.3848

> <Gold.Chemscore.Internal.Correction.Weighted>
   9.000000E+99

> <Gold.Protein.RotatedTorsions>
[ 6907 6896 6895 6894 ] final -166.35 input  -60.11 | X-H torsion
[ 7974 7965 7964 7962 ] final  -67.56 input  175.53 | X-H torsion
[ 8008 7997 7996 7995 ] final   87.59 input   59.86 | X-H torsion
[ 10167 10162 10161 10158 ] final  -57.81 input  -65.29 | X-H torsion
[ 10718 10713 10712 10709 ] final  159.34 input   66.30 | X-H torsion
[ 10763 10752 10751 10750 ] final  -96.90 input  -60.55 | X-H torsion
[ 11005 11000 10999 10996 ] final  -89.61 input  -57.11 | X-H torsion

> <Gold.Protein.ActiveResidues>
 VAL166  LYS551  ARG553  GLY616  TRP617  ASP618  TYR619  PRO620  LYS621  CYS622 
 ASP623  PHE694  ASN695  SER759  ASP760  ASP761  ALA762  ILE779  LEU786  VAL792 
 PHE793  MET794  SER795  GLU796  ALA797  LYS798  CYS799  TRP800  GLU811  SER814 

> <Gold.Protein.RotatedAtoms>
  151.4422  133.3640  159.2783 H   0  0  0  0  0  0  0  0  0  0  0  0  # atno 6907 bound_to 6896
  150.9149  134.8568  159.7461 H   0  0  0  0  0  0  0  0  0  0  0  0  # atno 6908 bound_to 6896
  152.4952  134.4355  159.9578 H   0  0  0  0  0  0  0  0  0  0  0  0  # atno 6909 bound_to 6896
  145.7276  140.9011  143.0597 H   0  0  0  0  0  0  0  0  0  0  0  0  # atno 7974 bound_to 7965
  155.9772  140.3380  155.6630 H   0  0  0  0  0  0  0  0  0  0  0  0  # atno 8008 bound_to 7997
  155.6596  140.0714  157.2577 H   0  0  0  0  0  0  0  0  0  0  0  0  # atno 8009 bound_to 7997
  154.4182  140.1711  156.1750 H   0  0  0  0  0  0  0  0  0  0  0  0  # atno 8010 bound_to 7997
  140.6236  143.2429  151.5420 H   0  0  0  0  0  0  0  0  0  0  0  0  # atno 10167 bound_to 10162
  157.1655  131.0597  151.2210 H   0  0  0  0  0  0  0  0  0  0  0  0  # atno 10718 bound_to 10713
  154.7280  135.5066  153.8918 H   0  0  0  0  0  0  0  0  0  0  0  0  # atno 10763 bound_to 10752
  153.0923  135.6662  153.9839 H   0  0  0  0  0  0  0  0  0  0  0  0  # atno 10764 bound_to 10752
  153.9646  135.3044  155.3410 H   0  0  0  0  0  0  0  0  0  0  0  0  # atno 10765 bound_to 10752
  141.1581  133.7640  156.9619 H   0  0  0  0  0  0  0  0  0  0  0  0  # atno 11005 bound_to 11000
  144.6901  139.9287  143.7471 LP  0  0  0  0  0  0  0  0  0  0  0  0  # atno 17320 bound_to 7965
  146.0567  139.3564  143.0606 LP  0  0  0  0  0  0  0  0  0  0  0  0  # atno 17321 bound_to 7965
  139.5460  144.2521  152.1442 LP  0  0  0  0  0  0  0  0  0  0  0  0  # atno 17342 bound_to 10162
  140.1747  144.4902  150.6560 LP  0  0  0  0  0  0  0  0  0  0  0  0  # atno 17343 bound_to 10162
  157.4092  130.7376  149.6826 LP  0  0  0  0  0  0  0  0  0  0  0  0  # atno 17370 bound_to 10713
  155.9746  130.4100  150.3907 LP  0  0  0  0  0  0  0  0  0  0  0  0  # atno 17371 bound_to 10713
  140.1187  134.9430  157.2172 LP  0  0  0  0  0  0  0  0  0  0  0  0  # atno 17394 bound_to 11000
  140.3099  134.3035  155.7269 LP  0  0  0  0  0  0  0  0  0  0  0  0  # atno 17395 bound_to 11000

$$$$
