AV-unprocessed.smi:2870|AV-procd|sdf|11029|dock6
  -GOLD-   2272015493D 1   1.00000     0.00000
 Structure written by MMmdl.
 40 42  0  0  0  0  0  0  0  0  1 V2000
  153.9686  143.0111  164.3719 N   0  0  0  0  0  0  0  0  0  0  0  0
  153.7804  142.5815  163.3138 C   0  0  0  0  0  0  0  0  0  0  0  0
  153.5790  142.0440  162.0089 C   0  0  0  0  0  0  0  0  0  0  0  0
  152.9780  142.7546  161.0327 C   0  0  0  0  0  0  0  0  0  0  0  0
  152.7881  142.2558  159.7626 N   0  0  0  0  0  0  0  0  0  0  0  0
  152.0235  142.9756  158.7832 C   0  0  0  0  0  0  0  0  0  0  0  0
  152.5463  144.2749  158.2014 C   0  0  0  0  0  0  0  0  0  0  0  0
  151.3917  144.2942  159.1727 C   0  0  0  0  0  0  0  0  0  0  0  0
  153.1498  140.9246  159.4612 C   0  0  0  0  0  0  0  0  0  0  0  0
  152.9135  140.4337  158.3544 O   0  0  0  0  0  0  0  0  0  0  0  0
  153.7912  140.1672  160.4714 N   0  0  0  0  0  0  0  0  0  0  0  0
  154.2341  138.7924  160.1500 C   0  0  0  0  0  0  0  0  0  0  0  0
  153.4896  137.7082  160.9445 C   0  0  0  0  0  0  0  0  0  0  0  0
  152.7179  136.9266  160.3865 O   0  0  0  0  0  0  0  0  0  0  0  0
  153.7456  137.6697  162.2594 N   0  0  0  0  0  0  0  0  0  0  0  0
  153.1641  136.7104  163.1877 C   0  0  0  0  0  0  0  0  0  0  0  0
  154.1759  135.6242  163.5321 C   0  0  0  0  0  0  0  0  0  0  0  0
  154.5576  134.5699  162.4815 C   0  0  0  0  0  0  0  0  0  0  0  0
  154.6753  133.5487  163.6159 C   0  0  0  0  0  0  0  0  0  0  0  0
  153.7577  134.4573  164.4389 C   0  0  0  0  0  0  0  0  0  0  0  0
  154.0487  140.6815  161.7681 C   0  0  0  0  0  0  0  0  0  0  0  0
  154.6315  140.0038  162.6162 O   0  0  0  0  0  0  0  0  0  0  0  0
  152.6394  143.7577  161.2494 H   0  0  0  0  0  0  0  0  0  0  0  0
  151.4414  142.3548  158.1043 H   0  0  0  0  0  0  0  0  0  0  0  0
  153.5013  144.6544  158.5597 H   0  0  0  0  0  0  0  0  0  0  0  0
  152.3281  144.4783  157.1551 H   0  0  0  0  0  0  0  0  0  0  0  0
  150.4032  144.5132  158.7744 H   0  0  0  0  0  0  0  0  0  0  0  0
  151.5882  144.6828  160.1702 H   0  0  0  0  0  0  0  0  0  0  0  0
  154.1154  138.5772  159.0871 H   0  0  0  0  0  0  0  0  0  0  0  0
  155.3059  138.6803  160.3218 H   0  0  0  0  0  0  0  0  0  0  0  0
  154.3933  138.3437  162.6411 H   0  0  0  0  0  0  0  0  0  0  0  0
  152.8407  137.2236  164.0947 H   0  0  0  0  0  0  0  0  0  0  0  0
  152.2721  136.2755  162.7345 H   0  0  0  0  0  0  0  0  0  0  0  0
  155.0917  136.0636  163.9340 H   0  0  0  0  0  0  0  0  0  0  0  0
  153.7422  134.3425  161.7925 H   0  0  0  0  0  0  0  0  0  0  0  0
  155.4877  134.7734  161.9500 H   0  0  0  0  0  0  0  0  0  0  0  0
  154.2634  132.5647  163.3902 H   0  0  0  0  0  0  0  0  0  0  0  0
  155.6849  133.4839  164.0247 H   0  0  0  0  0  0  0  0  0  0  0  0
  154.0427  134.5682  165.4856 H   0  0  0  0  0  0  0  0  0  0  0  0
  152.7034  134.1946  164.3348 H   0  0  0  0  0  0  0  0  0  0  0  0
  1  2  3  0  0  0  0
  2  3  1  0  0  0  0
  3 21  1  0  0  0  0
  3  4  2  0  0  0  0
  4  5  1  0  0  0  0
  4 23  1  0  0  0  0
  5  6  1  0  0  0  0
  5  9  1  0  0  0  0
  6  8  1  0  0  0  0
  6  7  1  0  0  0  0
  6 24  1  0  0  0  0
  7  8  1  0  0  0  0
  7 25  1  0  0  0  0
  7 26  1  0  0  0  0
  8 27  1  0  0  0  0
  8 28  1  0  0  0  0
  9 10  2  0  0  0  0
  9 11  1  0  0  0  0
 11 12  1  0  0  0  0
 11 21  1  0  0  0  0
 12 13  1  0  0  0  0
 12 29  1  0  0  0  0
 12 30  1  0  0  0  0
 13 14  2  0  0  0  0
 13 15  1  0  0  0  0
 15 16  1  0  0  0  0
 15 31  1  0  0  0  0
 16 17  1  0  0  0  0
 16 32  1  0  0  0  0
 16 33  1  0  0  0  0
 17 20  1  0  0  0  0
 17 18  1  0  0  0  0
 17 34  1  0  0  0  0
 18 19  1  0  0  0  0
 18 35  1  0  0  0  0
 18 36  1  0  0  0  0
 19 20  1  0  0  0  0
 19 37  1  0  0  0  0
 19 38  1  0  0  0  0
 20 39  1  0  0  0  0
 20 40  1  0  0  0  0
 21 22  2  0  0  0  0
M  END
> <s_m_source_file>
AV-unprocessed.smi

> <i_m_source_file_index>
2870

> <i_lp_mmshare_version>
43012

> <i_f3d_flags>
0

> <s_epik_input>
TiNDYzFbY0hdbihbQ0hdMltDSDJdW0NIMl0yKWMoPU8pbihjMT1PKVtDSDJdQyg9TylbTkhdW0NIMl1bQ0hdM1tDSDJdW0NIMl1bQ0gyXTM=

> <s_epik_cmdline>
J2VwaWtfcHl0aG9uJywgJy1waCcsICc3LjAnLCAnLXRuJywgJzgnLCAnLW1hJywgJzIwMCcsICctbWV0YWxfYmluZGluZycsICctaW1hZScsICc8aW5maWxlLm1hZT4nLCAnLW9tYWUnLCAnPG91dGZpbGUubWFlPic=

> <r_lp_tautomer_probability>
1

> <r_epik_Ionization_Penalty>
1.93838e-08

> <r_epik_Ionization_Penalty_Charging>
8.20545e-11

> <r_epik_Ionization_Penalty_Neutral>
1.93017e-08

> <r_epik_State_Penalty>
-0

> <r_epik_Charging_Adjusted_Penalty>
8.20545e-11

> <i_epik_Tot_Q>
0

> <i_epik_Tot_abs_Q>
0

> <r_epik_Metal_State_Penalty>
-0

> <b_epik_Metal_Only>
0

> <s_lp_Force_Field>
OPLS_2005

> <r_lp_Energy>
38.3845

> <b_lp_Chiralities_Consistent>
1

> <s_lp_Variant>
AV-unprocessed.smi:2870-1

> <Gold.Version>
5.8.1

> <Gold.Id.Protein>
6NUR|6NUR_protein|mol2

> <Gold.PLP.Fitness>
55.0682

> <Gold.PLP.PLP>
-50.8743

> <Gold.PLP.part.hbond>
-2.0554

> <Gold.PLP.part.metal>
0.0000

> <Gold.PLP.part.buried>
-4.6234

> <Gold.PLP.part.nonpolar>
-43.5245

> <Gold.PLP.part.repulsive>
0.0612

> <Gold.PLP.ligand.clash>
0.0000

> <Gold.PLP.ligand.torsion>
0.3538

> <Gold.PLP.Chemscore.Hbond>
1.5389

> <Gold.PLP.Chemscore.CHOScore>
0.0000

> <Gold.PLP.Chemscore.Metal>
0.0000

> <Gold.Chemscore.Hbonds>
donor molecule, donor type, donor heavy atom, donor atom, acceptor molecule, acceptor atom, score
      P1  H  6896  6907       L1    14  1.00
      P1  H  7997  8009       L1    10  0.56

> <Gold.PLP.Chemscore.Internal.Correction>
0.2846

> <Gold.Rescore>
     Score         DG    S(hbond)    S(metal)    S(lipo)     H(rot)  DE(clash)    DE(int)     intcor
     15.82     -18.16       1.82        0.00      99.86       1.98       0.28       2.06       ----

> <Gold.Chemscore.Fitness>
15.8179

> <Gold.Chemscore.DG>
-18.1645

> <Gold.Chemscore.ZeroCoef>
-5.4800

> <Gold.Chemscore.Hbond>
1.8167

> <Gold.Chemscore.Metal>
0.0000

> <Gold.Chemscore.Lipo>
99.8551

> <Gold.Chemscore.Internal_Hbond>
0.0000

> <Gold.Chemscore.DEClash>
0.2831

> <Gold.Chemscore.DEInternal>
2.0635

> <Gold.Chemscore.Rot>
1.9791

> <Gold.Chemscore.Internal.Correction>
   9.000000E+99

> <Gold.Chemscore.Hbonds>
donor molecule, donor type, donor heavy atom, donor atom, acceptor molecule, acceptor atom, score
      P1  H  6896  6907       L1    14  0.94
      P1  H  7997  8009       L1    10  0.54

> <Gold.Chemscore.Hbond.Weighted>
-6.0679

> <Gold.Chemscore.Metal.Weighted>
-0.0000

> <Gold.Chemscore.Lipo.Weighted>
-11.6830

> <Gold.Chemscore.Internal_Hbond.Weighted>
0.0000

> <Gold.Chemscore.DEClash.Weighted>
0.2831

> <Gold.Chemscore.DEInternal.Weighted>
2.0635

> <Gold.Chemscore.Rot.Weighted>
5.0665

> <Gold.Chemscore.Internal.Correction.Weighted>
   9.000000E+99

> <Gold.Protein.RotatedTorsions>
[ 6907 6896 6895 6894 ] final   28.32 input  -60.11 | X-H torsion
[ 7974 7965 7964 7962 ] final   77.38 input  175.53 | X-H torsion
[ 8008 7997 7996 7995 ] final  154.42 input   59.86 | X-H torsion
[ 10167 10162 10161 10158 ] final  -55.61 input  -65.29 | X-H torsion
[ 10718 10713 10712 10709 ] final   -2.03 input   66.30 | X-H torsion
[ 10763 10752 10751 10750 ] final  154.66 input  -60.55 | X-H torsion
[ 11005 11000 10999 10996 ] final    9.48 input  -57.11 | X-H torsion

> <Gold.Protein.ActiveResidues>
 VAL166  LYS551  ARG553  GLY616  TRP617  ASP618  TYR619  PRO620  LYS621  CYS622 
 ASP623  PHE694  ASN695  SER759  ASP760  ASP761  ALA762  ILE779  LEU786  VAL792 
 PHE793  MET794  SER795  GLU796  ALA797  LYS798  CYS799  TRP800  GLU811  SER814 

> <Gold.Protein.RotatedAtoms>
  152.0153  134.9853  160.0568 H   0  0  0  0  0  0  0  0  0  0  0  0  # atno 6907 bound_to 6896
  152.1390  133.4448  159.4766 H   0  0  0  0  0  0  0  0  0  0  0  0  # atno 6908 bound_to 6896
  150.6863  134.2247  159.4454 H   0  0  0  0  0  0  0  0  0  0  0  0  # atno 6909 bound_to 6896
  145.6908  139.2552  143.1761 H   0  0  0  0  0  0  0  0  0  0  0  0  # atno 7974 bound_to 7965
  156.2532  140.1967  156.6644 H   0  0  0  0  0  0  0  0  0  0  0  0  # atno 8008 bound_to 7997
  154.6440  140.0580  156.9904 H   0  0  0  0  0  0  0  0  0  0  0  0  # atno 8009 bound_to 7997
  155.1519  140.3252  155.4432 H   0  0  0  0  0  0  0  0  0  0  0  0  # atno 8010 bound_to 7997
  140.6365  143.2485  151.5105 H   0  0  0  0  0  0  0  0  0  0  0  0  # atno 10167 bound_to 10162
  156.7968  130.5380  149.5727 H   0  0  0  0  0  0  0  0  0  0  0  0  # atno 10718 bound_to 10713
  154.1558  135.2812  155.3122 H   0  0  0  0  0  0  0  0  0  0  0  0  # atno 10763 bound_to 10752
  154.6183  135.5476  153.7551 H   0  0  0  0  0  0  0  0  0  0  0  0  # atno 10764 bound_to 10752
  153.0207  135.6432  154.1701 H   0  0  0  0  0  0  0  0  0  0  0  0  # atno 10765 bound_to 10752
  140.5252  134.0520  155.7856 H   0  0  0  0  0  0  0  0  0  0  0  0  # atno 11005 bound_to 11000
  146.0884  140.7684  142.9607 LP  0  0  0  0  0  0  0  0  0  0  0  0  # atno 17320 bound_to 7965
  144.6997  140.3598  143.7166 LP  0  0  0  0  0  0  0  0  0  0  0  0  # atno 17321 bound_to 7965
  139.5575  144.2239  152.1636 LP  0  0  0  0  0  0  0  0  0  0  0  0  # atno 17342 bound_to 10162
  140.1497  144.5126  150.6695 LP  0  0  0  0  0  0  0  0  0  0  0  0  # atno 17343 bound_to 10162
  156.1125  130.6051  151.0069 LP  0  0  0  0  0  0  0  0  0  0  0  0  # atno 17370 bound_to 10713
  157.6573  131.0887  150.7918 LP  0  0  0  0  0  0  0  0  0  0  0  0  # atno 17371 bound_to 10713
  141.1312  133.9299  157.2531 LP  0  0  0  0  0  0  0  0  0  0  0  0  # atno 17394 bound_to 11000
  139.9584  135.0160  156.9192 LP  0  0  0  0  0  0  0  0  0  0  0  0  # atno 17395 bound_to 11000

$$$$
