AV-unprocessed.smi:2124|AV-procd|sdf|8650|dock10
  -GOLD-   2272011393D 1   1.00000     0.00000
 Structure written by MMmdl.
 47 49  0  0  0  0  0  0  0  0  1 V2000
  151.3559  142.6209  156.3877 C   0  0  0  0  0  0  0  0  0  0  0  0
  150.5575  141.7408  155.4494 C   0  0  0  0  0  0  0  0  0  0  0  0
  150.9051  140.5415  155.1163 N   0  0  0  0  0  0  0  0  0  0  0  0
  150.0825  139.8204  154.2397 C   0  0  0  0  0  0  0  0  0  0  0  0
  150.5585  138.4185  153.9000 C   0  0  0  0  0  0  0  0  0  0  0  0
  148.9319  140.3547  153.7344 C   0  0  0  0  0  0  0  0  0  0  0  0
  148.0135  139.5929  152.7804 C   0  0  0  0  0  0  0  0  0  0  0  0
  146.8977  138.7869  153.4482 C   0  0  0  0  0  0  0  0  0  0  0  0
  146.1358  139.3340  154.2448 O   0  0  0  0  0  0  0  0  0  0  0  0
  146.8112  137.4912  153.1090 N   0  0  0  0  0  0  0  0  0  0  0  0
  145.8178  136.5413  153.6051 C   0  0  2  0  0  0  0  0  0  0  0  0
  146.5341  135.3123  154.1893 C   0  0  0  0  0  0  0  0  0  0  0  0
  144.8493  136.1730  152.4563 C   0  0  2  0  0  0  0  0  0  0  0  0
  143.8697  135.0212  152.7804 C   0  0  0  0  0  0  0  0  0  0  0  0
  144.0047  134.0950  151.5576 C   0  0  2  0  0  0  0  0  0  0  0  0
  145.3464  133.3451  151.6432 C   0  0  0  0  0  0  0  0  0  0  0  0
  146.3701  134.4488  151.3210 C   0  0  0  0  0  0  0  0  0  0  0  0
  145.4818  135.6951  151.1251 C   0  0  1  0  0  0  0  0  0  0  0  0
  144.2694  135.0845  150.4287 C   0  0  0  0  0  0  0  0  0  0  0  0
  148.5463  141.7265  154.1200 C   0  0  0  0  0  0  0  0  0  0  0  0
  147.5374  142.3062  153.7212 O   0  0  0  0  0  0  0  0  0  0  0  0
  149.3968  142.3448  154.9696 N   0  0  0  0  0  0  0  0  0  0  0  0
  149.1767  143.2853  155.2630 H   0  0  0  0  0  0  0  0  0  0  0  0
  152.3504  142.8002  155.9789 H   0  0  0  0  0  0  0  0  0  0  0  0
  151.4663  142.1328  157.3564 H   0  0  0  0  0  0  0  0  0  0  0  0
  150.8718  143.5859  156.5453 H   0  0  0  0  0  0  0  0  0  0  0  0
  149.8330  137.6749  154.2294 H   0  0  0  0  0  0  0  0  0  0  0  0
  151.5095  138.1947  154.3851 H   0  0  0  0  0  0  0  0  0  0  0  0
  150.7025  138.3127  152.8256 H   0  0  0  0  0  0  0  0  0  0  0  0
  147.5755  140.3038  152.0789 H   0  0  0  0  0  0  0  0  0  0  0  0
  148.5914  138.9130  152.1535 H   0  0  0  0  0  0  0  0  0  0  0  0
  147.4836  137.1344  152.4457 H   0  0  0  0  0  0  0  0  0  0  0  0
  145.2495  137.0217  154.4021 H   0  0  0  0  0  0  0  0  0  0  0  0
  145.8240  134.6029  154.6139 H   0  0  0  0  0  0  0  0  0  0  0  0
  147.2193  135.5990  154.9878 H   0  0  0  0  0  0  0  0  0  0  0  0
  147.1120  134.7896  153.4266 H   0  0  0  0  0  0  0  0  0  0  0  0
  144.2567  137.0617  152.2296 H   0  0  0  0  0  0  0  0  0  0  0  0
  144.1176  134.4989  153.7054 H   0  0  0  0  0  0  0  0  0  0  0  0
  142.8517  135.4003  152.8780 H   0  0  0  0  0  0  0  0  0  0  0  0
  143.1462  133.4397  151.4076 H   0  0  0  0  0  0  0  0  0  0  0  0
  145.5100  132.8989  152.6248 H   0  0  0  0  0  0  0  0  0  0  0  0
  145.3962  132.5479  150.9005 H   0  0  0  0  0  0  0  0  0  0  0  0
  147.1233  134.5684  152.0983 H   0  0  0  0  0  0  0  0  0  0  0  0
  146.8978  134.2120  150.3964 H   0  0  0  0  0  0  0  0  0  0  0  0
  145.9675  136.4921  150.5612 H   0  0  0  0  0  0  0  0  0  0  0  0
  144.5103  134.6032  149.4791 H   0  0  0  0  0  0  0  0  0  0  0  0
  143.4530  135.7922  150.2733 H   0  0  0  0  0  0  0  0  0  0  0  0
  1  2  1  0  0  0  0
  1 24  1  0  0  0  0
  1 25  1  0  0  0  0
  1 26  1  0  0  0  0
  2 22  1  0  0  0  0
  2  3  2  0  0  0  0
  3  4  1  0  0  0  0
  4  5  1  0  0  0  0
  4  6  2  0  0  0  0
  5 27  1  0  0  0  0
  5 28  1  0  0  0  0
  5 29  1  0  0  0  0
  6  7  1  0  0  0  0
  6 20  1  0  0  0  0
  7  8  1  0  0  0  0
  7 30  1  0  0  0  0
  7 31  1  0  0  0  0
  8  9  2  0  0  0  0
  8 10  1  0  0  0  0
 10 11  1  0  0  0  0
 10 32  1  0  0  0  0
 11 12  1  0  0  0  0
 11 13  1  0  0  0  0
 11 33  1  0  0  0  0
 12 34  1  0  0  0  0
 12 35  1  0  0  0  0
 12 36  1  0  0  0  0
 13 18  1  0  0  0  0
 13 14  1  0  0  0  0
 13 37  1  0  0  0  0
 14 15  1  0  0  0  0
 14 38  1  0  0  0  0
 14 39  1  0  0  0  0
 15 19  1  0  0  0  0
 15 16  1  0  0  0  0
 15 40  1  0  0  0  0
 16 17  1  0  0  0  0
 16 41  1  0  0  0  0
 16 42  1  0  0  0  0
 17 18  1  0  0  0  0
 17 43  1  0  0  0  0
 17 44  1  0  0  0  0
 18 19  1  0  0  0  0
 18 45  1  0  0  0  0
 19 46  1  0  0  0  0
 19 47  1  0  0  0  0
 20 21  2  0  0  0  0
 20 22  1  0  0  0  0
 22 23  1  0  0  0  0
M  END
> <s_m_source_file>
AV-unprocessed.smi

> <i_m_source_file_index>
2124

> <i_lp_mmshare_version>
43012

> <i_f3d_flags>
0

> <s_epik_input>
W0NIM11jMW5jKFtDSDNdKWMoYyg9TylbbkhdMSlbQ0gyXUMoPU8pW05IXVtDQEhdKFtDSDNdKVtDQEhdKFtDSDJdW0NASF0yMylbQ0BIXShbQ0gyXTMpW0NIMl1bQ0gyXTI=

> <s_epik_cmdline>
J2VwaWtfcHl0aG9uJywgJy1waCcsICc3LjAnLCAnLXRuJywgJzgnLCAnLW1hJywgJzIwMCcsICctbWV0YWxfYmluZGluZycsICctaW1hZScsICc8aW5maWxlLm1hZT4nLCAnLW9tYWUnLCAnPG91dGZpbGUubWFlPic=

> <r_lp_tautomer_probability>
0.839158

> <r_epik_Ionization_Penalty>
0.000383628

> <r_epik_Ionization_Penalty_Charging>
0.00035045

> <r_epik_Ionization_Penalty_Neutral>
3.31781e-05

> <r_epik_State_Penalty>
0.09125

> <r_epik_Charging_Adjusted_Penalty>
0.0916005

> <i_epik_Tot_Q>
0

> <i_epik_Tot_abs_Q>
0

> <r_epik_Metal_State_Penalty>
0.255229

> <b_epik_Metal_Only>
0

> <s_lp_Force_Field>
OPLS_2005

> <r_lp_Energy>
53.1602

> <b_lp_Chiralities_Consistent>
1

> <s_lp_Variant>
AV-unprocessed.smi:2124-1

> <Gold.Version>
5.8.1

> <Gold.Id.Protein>
6NUR|6NUR_protein|mol2

> <Gold.PLP.Fitness>
41.0544

> <Gold.PLP.PLP>
-36.1806

> <Gold.PLP.part.hbond>
-2.4904

> <Gold.PLP.part.metal>
0.0000

> <Gold.PLP.part.buried>
-2.3432

> <Gold.PLP.part.nonpolar>
-33.0967

> <Gold.PLP.part.repulsive>
0.4884

> <Gold.PLP.ligand.clash>
0.0001

> <Gold.PLP.ligand.torsion>
0.5686

> <Gold.PLP.Chemscore.Hbond>
2.0000

> <Gold.PLP.Chemscore.CHOScore>
0.0000

> <Gold.PLP.Chemscore.Metal>
0.0000

> <Gold.Chemscore.Hbonds>
donor molecule, donor type, donor heavy atom, donor atom, acceptor molecule, acceptor atom, score
      L1  H    10    32       P1  7948  1.00
      L1  H    22    23       P1  8028  0.94

> <Gold.PLP.Chemscore.Internal.Correction>
0.0112

> <Gold.Rescore>
     Score         DG    S(hbond)    S(metal)    S(lipo)     H(rot)  DE(clash)    DE(int)     intcor
     13.91     -16.71       1.99        0.00      75.34       1.65       1.38       1.43       ----

> <Gold.Chemscore.Fitness>
13.9052

> <Gold.Chemscore.DG>
-16.7110

> <Gold.Chemscore.ZeroCoef>
-5.4800

> <Gold.Chemscore.Hbond>
1.9907

> <Gold.Chemscore.Metal>
0.0000

> <Gold.Chemscore.Lipo>
75.3389

> <Gold.Chemscore.Internal_Hbond>
0.0000

> <Gold.Chemscore.DEClash>
1.3754

> <Gold.Chemscore.DEInternal>
1.4304

> <Gold.Chemscore.Rot>
1.6534

> <Gold.Chemscore.Internal.Correction>
   9.000000E+99

> <Gold.Chemscore.Hbonds>
donor molecule, donor type, donor heavy atom, donor atom, acceptor molecule, acceptor atom, score
      L1  H    10    32       P1  7948  0.99
      L1  H    22    23       P1  8028  0.90

> <Gold.Chemscore.Hbond.Weighted>
-6.6489

> <Gold.Chemscore.Metal.Weighted>
-0.0000

> <Gold.Chemscore.Lipo.Weighted>
-8.8146

> <Gold.Chemscore.Internal_Hbond.Weighted>
0.0000

> <Gold.Chemscore.DEClash.Weighted>
1.3754

> <Gold.Chemscore.DEInternal.Weighted>
1.4304

> <Gold.Chemscore.Rot.Weighted>
4.2326

> <Gold.Chemscore.Internal.Correction.Weighted>
   9.000000E+99

> <Gold.Protein.RotatedTorsions>
[ 6907 6896 6895 6894 ] final   -6.27 input  -60.11 | X-H torsion
[ 7974 7965 7964 7962 ] final  -80.25 input  175.53 | X-H torsion
[ 8008 7997 7996 7995 ] final -130.81 input   59.86 | X-H torsion
[ 10167 10162 10161 10158 ] final   19.72 input  -65.29 | X-H torsion
[ 10718 10713 10712 10709 ] final   56.25 input   66.30 | X-H torsion
[ 10763 10752 10751 10750 ] final -148.06 input  -60.55 | X-H torsion
[ 11005 11000 10999 10996 ] final  176.63 input  -57.11 | X-H torsion

> <Gold.Protein.ActiveResidues>
 VAL166  LYS551  ARG553  GLY616  TRP617  ASP618  TYR619  PRO620  LYS621  CYS622 
 ASP623  PHE694  ASN695  SER759  ASP760  ASP761  ALA762  ILE779  LEU786  VAL792 
 PHE793  MET794  SER795  GLU796  ALA797  LYS798  CYS799  TRP800  GLU811  SER814 

> <Gold.Protein.RotatedAtoms>
  151.4682  135.1044  159.9743 H   0  0  0  0  0  0  0  0  0  0  0  0  # atno 6907 bound_to 6896
  152.4827  133.8289  159.7103 H   0  0  0  0  0  0  0  0  0  0  0  0  # atno 6908 bound_to 6896
  150.8910  133.7182  159.2931 H   0  0  0  0  0  0  0  0  0  0  0  0  # atno 6909 bound_to 6896
  145.5625  140.9480  143.1440 H   0  0  0  0  0  0  0  0  0  0  0  0  # atno 7974 bound_to 7965
  155.3019  140.0453  157.3030 H   0  0  0  0  0  0  0  0  0  0  0  0  # atno 8008 bound_to 7997
  154.5482  140.2309  155.8495 H   0  0  0  0  0  0  0  0  0  0  0  0  # atno 8009 bound_to 7997
  156.1943  140.3042  155.9402 H   0  0  0  0  0  0  0  0  0  0  0  0  # atno 8010 bound_to 7997
  140.5558  143.9427  150.6608 H   0  0  0  0  0  0  0  0  0  0  0  0  # atno 10167 bound_to 10162
  157.5415  130.8700  149.8829 H   0  0  0  0  0  0  0  0  0  0  0  0  # atno 10718 bound_to 10713
  154.8253  135.3344  154.6915 H   0  0  0  0  0  0  0  0  0  0  0  0  # atno 10763 bound_to 10752
  153.7542  135.6937  153.4943 H   0  0  0  0  0  0  0  0  0  0  0  0  # atno 10764 bound_to 10752
  153.2155  135.4467  155.0379 H   0  0  0  0  0  0  0  0  0  0  0  0  # atno 10765 bound_to 10752
  140.3753  134.6994  157.4417 H   0  0  0  0  0  0  0  0  0  0  0  0  # atno 11005 bound_to 11000
  144.7476  139.7278  143.7286 LP  0  0  0  0  0  0  0  0  0  0  0  0  # atno 17320 bound_to 7965
  146.1841  139.5048  142.9847 LP  0  0  0  0  0  0  0  0  0  0  0  0  # atno 17321 bound_to 7965
  140.2865  143.3353  152.1102 LP  0  0  0  0  0  0  0  0  0  0  0  0  # atno 17342 bound_to 10162
  139.5047  144.6781  151.6078 LP  0  0  0  0  0  0  0  0  0  0  0  0  # atno 17343 bound_to 10162
  156.0500  130.3719  150.1223 LP  0  0  0  0  0  0  0  0  0  0  0  0  # atno 17370 bound_to 10713
  156.9402  130.9742  151.3517 LP  0  0  0  0  0  0  0  0  0  0  0  0  # atno 17371 bound_to 10713
  140.0520  134.6117  155.8850 LP  0  0  0  0  0  0  0  0  0  0  0  0  # atno 17394 bound_to 11000
  141.1941  133.6581  156.5581 LP  0  0  0  0  0  0  0  0  0  0  0  0  # atno 17395 bound_to 11000

$$$$
