AV-unprocessed.smi:348|AV-procd|sdf|2395|dock6
  -GOLD-   2262022323D 1   1.00000     0.00000
 Structure written by MMmdl.
 39 40  0  0  0  0  0  0  0  0  1 V2000
  144.8898  146.2625  153.3718 C   0  0  0  0  0  0  0  0  0  0  0  0
  144.8398  144.9019  153.7705 O   0  0  0  0  0  0  0  0  0  0  0  0
  146.1120  144.2764  153.8579 C   0  0  0  0  0  0  0  0  0  0  0  0
  145.9850  142.7671  154.1367 C   0  0  0  0  0  0  0  0  0  0  0  0
  147.2705  142.1340  154.3559 N   0  0  0  0  0  0  0  0  0  0  0  0
  148.0205  142.2874  155.5254 C   0  0  0  0  0  0  0  0  0  0  0  0
  147.4911  143.0745  156.5381 N   0  0  0  0  0  0  0  0  0  0  0  0
  149.2316  141.6812  155.7017 C   0  0  0  0  0  0  0  0  0  0  0  0
  149.9486  141.8598  156.8858 N   0  0  0  0  0  0  0  0  0  0  0  0
  151.2375  141.3306  157.3066 C   0  0  0  0  0  0  0  0  0  0  0  0
  151.7755  141.9975  158.5585 C   0  0  0  0  0  0  0  0  0  0  0  0
  151.8630  143.4043  158.6313 C   0  0  0  0  0  0  0  0  0  0  0  0
  152.3607  144.0243  159.7941 C   0  0  0  0  0  0  0  0  0  0  0  0
  152.7713  143.2408  160.8898 C   0  0  0  0  0  0  0  0  0  0  0  0
  152.6828  141.8369  160.8226 C   0  0  0  0  0  0  0  0  0  0  0  0
  152.1848  141.2164  159.6602 C   0  0  0  0  0  0  0  0  0  0  0  0
  149.7833  140.8234  154.6372 C   0  0  0  0  0  0  0  0  0  0  0  0
  150.8591  140.2275  154.6552 O   0  0  0  0  0  0  0  0  0  0  0  0
  148.9747  140.6888  153.5112 N   0  0  0  0  0  0  0  0  0  0  0  0
  147.7377  141.2908  153.3217 C   0  0  0  0  0  0  0  0  0  0  0  0
  147.1106  141.0707  152.2849 O   0  0  0  0  0  0  0  0  0  0  0  0
  149.3156  140.0958  152.7687 H   0  0  0  0  0  0  0  0  0  0  0  0
  143.8811  146.6754  153.3686 H   0  0  0  0  0  0  0  0  0  0  0  0
  145.2963  146.3783  152.3674 H   0  0  0  0  0  0  0  0  0  0  0  0
  145.4904  146.8543  154.0635 H   0  0  0  0  0  0  0  0  0  0  0  0
  146.6995  144.4651  152.9579 H   0  0  0  0  0  0  0  0  0  0  0  0
  146.6476  144.7514  154.6801 H   0  0  0  0  0  0  0  0  0  0  0  0
  145.3531  142.5662  155.0034 H   0  0  0  0  0  0  0  0  0  0  0  0
  145.5105  142.2334  153.3144 H   0  0  0  0  0  0  0  0  0  0  0  0
  146.5937  143.5282  156.4471 H   0  0  0  0  0  0  0  0  0  0  0  0
  147.9718  143.2070  157.4163 H   0  0  0  0  0  0  0  0  0  0  0  0
  149.5302  142.4841  157.5594 H   0  0  0  0  0  0  0  0  0  0  0  0
  151.1421  140.2628  157.5065 H   0  0  0  0  0  0  0  0  0  0  0  0
  151.9540  141.4472  156.4923 H   0  0  0  0  0  0  0  0  0  0  0  0
  151.5471  144.0115  157.7954 H   0  0  0  0  0  0  0  0  0  0  0  0
  152.4267  145.1010  159.8453 H   0  0  0  0  0  0  0  0  0  0  0  0
  153.1525  143.7163  161.7814 H   0  0  0  0  0  0  0  0  0  0  0  0
  152.9970  141.2357  161.6629 H   0  0  0  0  0  0  0  0  0  0  0  0
  152.1208  140.1388  159.6185 H   0  0  0  0  0  0  0  0  0  0  0  0
  1  2  1  0  0  0  0
  1 23  1  0  0  0  0
  1 24  1  0  0  0  0
  1 25  1  0  0  0  0
  2  3  1  0  0  0  0
  3  4  1  0  0  0  0
  3 26  1  0  0  0  0
  3 27  1  0  0  0  0
  4  5  1  0  0  0  0
  4 28  1  0  0  0  0
  4 29  1  0  0  0  0
  5 20  1  0  0  0  0
  5  6  1  0  0  0  0
  6  7  1  0  0  0  0
  6  8  2  0  0  0  0
  7 30  1  0  0  0  0
  7 31  1  0  0  0  0
  8  9  1  0  0  0  0
  8 17  1  0  0  0  0
  9 10  1  0  0  0  0
  9 32  1  0  0  0  0
 10 11  1  0  0  0  0
 10 33  1  0  0  0  0
 10 34  1  0  0  0  0
 11 16  1  0  0  0  0
 11 12  2  0  0  0  0
 12 13  1  0  0  0  0
 12 35  1  0  0  0  0
 13 14  2  0  0  0  0
 13 36  1  0  0  0  0
 14 15  1  0  0  0  0
 14 37  1  0  0  0  0
 15 16  2  0  0  0  0
 15 38  1  0  0  0  0
 16 39  1  0  0  0  0
 17 18  2  0  0  0  0
 17 19  1  0  0  0  0
 19 22  1  0  0  0  0
 19 20  1  0  0  0  0
 20 21  2  0  0  0  0
M  END
> <s_m_source_file>
AV-unprocessed.smi

> <i_m_source_file_index>
348

> <i_lp_mmshare_version>
43012

> <i_f3d_flags>
0

> <s_epik_input>
W0NIM11PW0NIMl1bQ0gyXW4xYyhbTkgyXSljKGMoPU8pW25IXWMxPU8pW05IXVtDSDJdYzJbY0hdW2NIXVtjSF1bY0hdW2NIXTI=

> <s_epik_cmdline>
J2VwaWtfcHl0aG9uJywgJy1waCcsICc3LjAnLCAnLXRuJywgJzgnLCAnLW1hJywgJzIwMCcsICctbWV0YWxfYmluZGluZycsICctaW1hZScsICc8aW5maWxlLm1hZT4nLCAnLW9tYWUnLCAnPG91dGZpbGUubWFlPic=

> <r_lp_tautomer_probability>
1

> <r_epik_Ionization_Penalty>
5.85579e-06

> <r_epik_Ionization_Penalty_Charging>
2.30036e-06

> <r_epik_Ionization_Penalty_Neutral>
3.55543e-06

> <r_epik_State_Penalty>
-0

> <r_epik_Charging_Adjusted_Penalty>
2.30036e-06

> <i_epik_Tot_Q>
0

> <i_epik_Tot_abs_Q>
0

> <r_epik_Metal_State_Penalty>
-0

> <b_epik_Metal_Only>
0

> <s_epik_Chemistry_Notes>
This compound has an imine and may undergo hydrolysis.

> <s_lp_Force_Field>
OPLS_2005

> <r_lp_Energy>
18.6076

> <b_lp_Chiralities_Consistent>
1

> <s_lp_Variant>
AV-unprocessed.smi:348-1

> <Gold.Version>
5.8.1

> <Gold.Id.Protein>
6NUR|6NUR_protein|mol2

> <Gold.PLP.Fitness>
45.9438

> <Gold.PLP.PLP>
-40.9052

> <Gold.PLP.part.hbond>
-2.9595

> <Gold.PLP.part.metal>
0.0000

> <Gold.PLP.part.buried>
-4.3759

> <Gold.PLP.part.nonpolar>
-35.4855

> <Gold.PLP.part.repulsive>
0.9068

> <Gold.PLP.ligand.clash>
0.0000

> <Gold.PLP.ligand.torsion>
0.2886

> <Gold.PLP.Chemscore.Hbond>
1.8640

> <Gold.PLP.Chemscore.CHOScore>
0.0000

> <Gold.PLP.Chemscore.Metal>
0.0000

> <Gold.Chemscore.Hbonds>
donor molecule, donor type, donor heavy atom, donor atom, acceptor molecule, acceptor atom, score
      L1  H    19    22       P1  7957  0.86
      P1  H  7989  7998       L1    18  1.00

> <Gold.PLP.Chemscore.Internal.Correction>
0.0238

> <Gold.Rescore>
     Score         DG    S(hbond)    S(metal)    S(lipo)     H(rot)  DE(clash)    DE(int)     intcor
     14.51     -17.53       1.82        0.00      96.89       2.10       1.55       1.47       ----

> <Gold.Chemscore.Fitness>
14.5114

> <Gold.Chemscore.DG>
-17.5298

> <Gold.Chemscore.ZeroCoef>
-5.4800

> <Gold.Chemscore.Hbond>
1.8208

> <Gold.Chemscore.Metal>
0.0000

> <Gold.Chemscore.Lipo>
96.8907

> <Gold.Chemscore.Internal_Hbond>
0.0000

> <Gold.Chemscore.DEClash>
1.5462

> <Gold.Chemscore.DEInternal>
1.4722

> <Gold.Chemscore.Rot>
2.0968

> <Gold.Chemscore.Internal.Correction>
   9.000000E+99

> <Gold.Chemscore.Hbonds>
donor molecule, donor type, donor heavy atom, donor atom, acceptor molecule, acceptor atom, score
      L1  H    19    22       P1  7957  0.84
      P1  H  7989  7998       L1    18  0.37

> <Gold.Chemscore.Hbond.Weighted>
-6.0813

> <Gold.Chemscore.Metal.Weighted>
-0.0000

> <Gold.Chemscore.Lipo.Weighted>
-11.3362

> <Gold.Chemscore.Internal_Hbond.Weighted>
0.0000

> <Gold.Chemscore.DEClash.Weighted>
1.5462

> <Gold.Chemscore.DEInternal.Weighted>
1.4722

> <Gold.Chemscore.Rot.Weighted>
5.3677

> <Gold.Chemscore.Internal.Correction.Weighted>
   9.000000E+99

> <Gold.Protein.RotatedTorsions>
[ 6907 6896 6895 6894 ] final   81.42 input  -60.11 | X-H torsion
[ 7974 7965 7964 7962 ] final  -24.25 input  175.53 | X-H torsion
[ 8008 7997 7996 7995 ] final -132.40 input   59.86 | X-H torsion
[ 10167 10162 10161 10158 ] final -131.17 input  -65.29 | X-H torsion
[ 10718 10713 10712 10709 ] final  -56.91 input   66.30 | X-H torsion
[ 10763 10752 10751 10750 ] final  113.97 input  -60.55 | X-H torsion
[ 11005 11000 10999 10996 ] final  124.76 input  -57.11 | X-H torsion

> <Gold.Protein.ActiveResidues>
 VAL166  LYS551  ARG553  GLY616  TRP617  ASP618  TYR619  PRO620  LYS621  CYS622 
 ASP623  PHE694  ASN695  SER759  ASP760  ASP761  ALA762  ILE779  LEU786  VAL792 
 PHE793  MET794  SER795  GLU796  ALA797  LYS798  CYS799  TRP800  GLU811  SER814 

> <Gold.Protein.RotatedAtoms>
  152.5267  134.3207  159.9147 H   0  0  0  0  0  0  0  0  0  0  0  0  # atno 6907 bound_to 6896
  151.3156  133.4055  159.2658 H   0  0  0  0  0  0  0  0  0  0  0  0  # atno 6908 bound_to 6896
  151.0001  134.9332  159.8006 H   0  0  0  0  0  0  0  0  0  0  0  0  # atno 6909 bound_to 6896
  146.1566  140.4726  142.8589 H   0  0  0  0  0  0  0  0  0  0  0  0  # atno 7974 bound_to 7965
  155.3282  140.0465  157.3042 H   0  0  0  0  0  0  0  0  0  0  0  0  # atno 8008 bound_to 7997
  154.5342  140.2267  155.8716 H   0  0  0  0  0  0  0  0  0  0  0  0  # atno 8009 bound_to 7997
  156.1819  140.3072  155.9171 H   0  0  0  0  0  0  0  0  0  0  0  0  # atno 8010 bound_to 7997
  139.9217  143.6374  152.2552 H   0  0  0  0  0  0  0  0  0  0  0  0  # atno 10167 bound_to 10162
  156.1251  130.4163  150.0370 H   0  0  0  0  0  0  0  0  0  0  0  0  # atno 10718 bound_to 10713
  153.5004  135.3639  155.2537 H   0  0  0  0  0  0  0  0  0  0  0  0  # atno 10763 bound_to 10752
  154.8748  135.3998  154.3485 H   0  0  0  0  0  0  0  0  0  0  0  0  # atno 10764 bound_to 10752
  153.4120  135.7078  153.6418 H   0  0  0  0  0  0  0  0  0  0  0  0  # atno 10765 bound_to 10752
  139.9374  134.9638  156.8458 H   0  0  0  0  0  0  0  0  0  0  0  0  # atno 11005 bound_to 11000
  144.7972  140.6145  143.6502 LP  0  0  0  0  0  0  0  0  0  0  0  0  # atno 17320 bound_to 7965
  145.4692  139.1505  143.3823 LP  0  0  0  0  0  0  0  0  0  0  0  0  # atno 17321 bound_to 7965
  139.6856  144.7652  151.1530 LP  0  0  0  0  0  0  0  0  0  0  0  0  # atno 17342 bound_to 10162
  140.7660  143.5662  150.9045 LP  0  0  0  0  0  0  0  0  0  0  0  0  # atno 17343 bound_to 10162
  156.8297  130.9388  151.3637 LP  0  0  0  0  0  0  0  0  0  0  0  0  # atno 17370 bound_to 10713
  157.6433  130.8823  149.9490 LP  0  0  0  0  0  0  0  0  0  0  0  0  # atno 17371 bound_to 10713
  140.6040  134.0145  155.7549 LP  0  0  0  0  0  0  0  0  0  0  0  0  # atno 17394 bound_to 11000
  141.0994  133.9792  157.3105 LP  0  0  0  0  0  0  0  0  0  0  0  0  # atno 17395 bound_to 11000

$$$$
