AV-unprocessed.smi:227|AV-procd|sdf|1740|dock8
  -GOLD-   2262020243D 1   1.00000     0.00000
 Structure written by MMmdl.
 54 58  0  0  0  0  0  0  0  0  1 V2000
  148.5101  131.6892  159.3854 O   0  0  0  0  0  0  0  0  0  0  0  0
  147.7411  131.9178  160.5480 C   0  0  0  0  0  0  0  0  0  0  0  0
  147.7330  133.4208  160.9269 C   0  0  1  0  0  0  0  0  0  0  0  0
  147.2280  134.2855  159.7340 C   0  0  0  0  0  0  0  0  0  0  0  0
  147.9989  135.4993  159.5023 N   0  0  0  0  0  0  0  0  0  0  0  0
  148.1421  136.5651  160.3617 C   0  0  0  0  0  0  0  0  0  0  0  0
  148.8842  137.5417  159.9193 N   0  0  0  0  0  0  0  0  0  0  0  0
  149.2999  137.1168  158.6632 C   0  0  0  0  0  0  0  0  0  0  0  0
  150.1100  137.6833  157.6362 C   0  0  0  0  0  0  0  0  0  0  0  0
  150.6754  138.9184  157.7136 N   0  0  0  0  0  0  0  0  0  0  0  0
  152.1045  139.1086  157.5180 C   0  0  2  0  0  0  0  0  0  0  0  0
  152.2946  140.5791  157.9286 C   0  0  0  0  0  0  0  0  0  0  0  0
  150.9759  141.2007  157.4391 C   0  0  0  0  0  0  0  0  0  0  0  0
  150.2849  139.9826  156.7995 C   0  0  1  0  0  0  0  0  0  0  0  0
  151.0037  139.6554  155.4661 C   0  0  2  0  0  0  0  0  0  0  0  0
  150.1806  138.7788  154.5018 C   0  0  0  0  0  0  0  0  0  0  0  0
  149.2351  139.5692  153.8134 O   0  0  0  0  0  0  0  0  0  0  0  0
  152.2878  138.9814  155.9913 C   0  0  0  0  0  0  0  0  0  0  0  0
  150.3300  136.9258  156.5290 N   0  0  0  0  0  0  0  0  0  0  0  0
  149.7767  135.7158  156.4141 C   0  0  0  0  0  0  0  0  0  0  0  0
  148.9837  135.0777  157.2751 N   0  0  0  0  0  0  0  0  0  0  0  0
  148.7693  135.8219  158.3971 C   0  0  0  0  0  0  0  0  0  0  0  0
  146.9419  133.6695  162.2498 C   0  0  1  0  0  0  0  0  0  0  0  0
  146.9026  135.1260  162.7070 C   0  0  0  0  0  0  0  0  0  0  0  0
  145.7268  135.7222  161.9337 C   0  0  0  0  0  0  0  0  0  0  0  0
  144.8930  134.6237  161.5848 O   0  0  0  0  0  0  0  0  0  0  0  0
  145.4281  133.4318  162.1422 C   0  0  0  0  0  0  0  0  0  0  0  0
  148.6232  132.5116  158.9335 H   0  0  0  0  0  0  0  0  0  0  0  0
  146.7290  131.5429  160.3960 H   0  0  0  0  0  0  0  0  0  0  0  0
  148.1830  131.3018  161.3272 H   0  0  0  0  0  0  0  0  0  0  0  0
  148.7688  133.7123  161.1072 H   0  0  0  0  0  0  0  0  0  0  0  0
  147.2152  133.7089  158.8104 H   0  0  0  0  0  0  0  0  0  0  0  0
  146.1871  134.5707  159.8885 H   0  0  0  0  0  0  0  0  0  0  0  0
  147.6730  136.6032  161.3333 H   0  0  0  0  0  0  0  0  0  0  0  0
  152.7412  138.4315  158.0887 H   0  0  0  0  0  0  0  0  0  0  0  0
  152.3850  140.6747  159.0113 H   0  0  0  0  0  0  0  0  0  0  0  0
  153.1749  141.0323  157.4714 H   0  0  0  0  0  0  0  0  0  0  0  0
  150.3946  141.5746  158.2831 H   0  0  0  0  0  0  0  0  0  0  0  0
  151.1251  142.0255  156.7414 H   0  0  0  0  0  0  0  0  0  0  0  0
  149.2145  140.1444  156.6857 H   0  0  0  0  0  0  0  0  0  0  0  0
  151.2466  140.5848  154.9484 H   0  0  0  0  0  0  0  0  0  0  0  0
  150.8121  138.2750  153.7710 H   0  0  0  0  0  0  0  0  0  0  0  0
  149.6480  138.0048  155.0550 H   0  0  0  0  0  0  0  0  0  0  0  0
  149.4667  139.5860  152.8972 H   0  0  0  0  0  0  0  0  0  0  0  0
  153.1951  139.4698  155.6343 H   0  0  0  0  0  0  0  0  0  0  0  0
  152.3378  137.9331  155.6942 H   0  0  0  0  0  0  0  0  0  0  0  0
  149.9976  135.1853  155.4997 H   0  0  0  0  0  0  0  0  0  0  0  0
  147.3671  133.0449  163.0360 H   0  0  0  0  0  0  0  0  0  0  0  0
  146.6777  135.1561  163.7743 H   0  0  0  0  0  0  0  0  0  0  0  0
  147.8201  135.6929  162.5672 H   0  0  0  0  0  0  0  0  0  0  0  0
  145.1820  136.4576  162.5263 H   0  0  0  0  0  0  0  0  0  0  0  0
  146.0667  136.2078  161.0185 H   0  0  0  0  0  0  0  0  0  0  0  0
  145.1345  132.5613  161.5602 H   0  0  0  0  0  0  0  0  0  0  0  0
  145.0041  133.3022  163.1394 H   0  0  0  0  0  0  0  0  0  0  0  0
  1  2  1  0  0  0  0
  1 28  1  0  0  0  0
  2  3  1  0  0  0  0
  2 29  1  0  0  0  0
  2 30  1  0  0  0  0
  3  4  1  0  0  0  0
  3 23  1  0  0  0  0
  3 31  1  0  0  0  0
  4  5  1  0  0  0  0
  4 32  1  0  0  0  0
  4 33  1  0  0  0  0
  5 22  1  0  0  0  0
  5  6  1  0  0  0  0
  6  7  2  0  0  0  0
  6 34  1  0  0  0  0
  7  8  1  0  0  0  0
  8 22  2  0  0  0  0
  8  9  1  0  0  0  0
  9 10  1  0  0  0  0
  9 19  2  0  0  0  0
 10 14  1  0  0  0  0
 10 11  1  0  0  0  0
 11 18  1  0  0  0  0
 11 12  1  0  0  0  0
 11 35  1  0  0  0  0
 12 13  1  0  0  0  0
 12 36  1  0  0  0  0
 12 37  1  0  0  0  0
 13 14  1  0  0  0  0
 13 38  1  0  0  0  0
 13 39  1  0  0  0  0
 14 15  1  0  0  0  0
 14 40  1  0  0  0  0
 15 16  1  0  0  0  0
 15 18  1  0  0  0  0
 15 41  1  0  0  0  0
 16 17  1  0  0  0  0
 16 42  1  0  0  0  0
 16 43  1  0  0  0  0
 17 44  1  0  0  0  0
 18 45  1  0  0  0  0
 18 46  1  0  0  0  0
 19 20  1  0  0  0  0
 20 21  2  0  0  0  0
 20 47  1  0  0  0  0
 21 22  1  0  0  0  0
 23 27  1  0  0  0  0
 23 24  1  0  0  0  0
 23 48  1  0  0  0  0
 24 25  1  0  0  0  0
 24 49  1  0  0  0  0
 24 50  1  0  0  0  0
 25 26  1  0  0  0  0
 25 51  1  0  0  0  0
 25 52  1  0  0  0  0
 26 27  1  0  0  0  0
 27 53  1  0  0  0  0
 27 54  1  0  0  0  0
M  END
> <s_m_source_file>
AV-unprocessed.smi

> <i_m_source_file_index>
227

> <i_lp_mmshare_version>
43012

> <i_f3d_flags>
0

> <s_epik_input>
W0NIMl0xT1tDSDJdW0NIMl1bQ0BIXTFbQ0BIXShbQ0gyXVtPSF0pW0NIMl1uKFtjSF1uMiljKGMyMyluW2NIXW5jM04oW0NASF00NSlbQ0BASF0oW0NIMl1bQ0gyXTQpW0NASF0oW0NIMl01KVtDSDJdW09IXQ==

> <s_epik_cmdline>
J2VwaWtfcHl0aG9uJywgJy1waCcsICc3LjAnLCAnLXRuJywgJzgnLCAnLW1hJywgJzIwMCcsICctbWV0YWxfYmluZGluZycsICctaW1hZScsICc8aW5maWxlLm1hZT4nLCAnLW9tYWUnLCAnPG91dGZpbGUubWFlPic=

> <r_lp_tautomer_probability>
1

> <r_epik_Ionization_Penalty>
0.0055791

> <r_epik_Ionization_Penalty_Charging>
0

> <r_epik_Ionization_Penalty_Neutral>
0.0055791

> <r_epik_State_Penalty>
0.00401299

> <r_epik_Charging_Adjusted_Penalty>
0.00401299

> <i_epik_Tot_Q>
0

> <i_epik_Tot_abs_Q>
0

> <r_epik_Metal_State_Penalty>
-0

> <b_epik_Metal_Only>
0

> <s_lp_Force_Field>
OPLS_2005

> <r_lp_Energy>
90.2099

> <b_lp_Chiralities_Consistent>
1

> <s_lp_Variant>
AV-unprocessed.smi:227-14

> <Gold.Version>
5.8.1

> <Gold.Id.Protein>
6NUR|6NUR_protein|mol2

> <Gold.PLP.Fitness>
42.3820

> <Gold.PLP.PLP>
-40.4993

> <Gold.PLP.part.hbond>
-2.8559

> <Gold.PLP.part.metal>
0.0000

> <Gold.PLP.part.buried>
-5.3155

> <Gold.PLP.part.nonpolar>
-33.0747

> <Gold.PLP.part.repulsive>
0.0083

> <Gold.PLP.ligand.clash>
0.0000

> <Gold.PLP.ligand.torsion>
0.8272

> <Gold.PLP.Chemscore.Hbond>
1.1450

> <Gold.PLP.Chemscore.CHOScore>
0.0000

> <Gold.PLP.Chemscore.Metal>
0.0000

> <Gold.Chemscore.Hbonds>
donor molecule, donor type, donor heavy atom, donor atom, acceptor molecule, acceptor atom, score
      L1  H    17    44       P1  7957  1.00
      P1  H  6931  6943       L1     7  0.14

> <Gold.PLP.Chemscore.Internal.Correction>
0.1023

> <Gold.Rescore>
     Score         DG    S(hbond)    S(metal)    S(lipo)     H(rot)  DE(clash)    DE(int)     intcor
      3.99     -10.65       1.00        0.00      94.54       3.61       0.02       6.63       ----

> <Gold.Chemscore.Fitness>
3.9929

> <Gold.Chemscore.DG>
-10.6512

> <Gold.Chemscore.ZeroCoef>
-5.4800

> <Gold.Chemscore.Hbond>
1.0011

> <Gold.Chemscore.Metal>
0.0000

> <Gold.Chemscore.Lipo>
94.5449

> <Gold.Chemscore.Internal_Hbond>
0.0000

> <Gold.Chemscore.DEClash>
0.0234

> <Gold.Chemscore.DEInternal>
6.6349

> <Gold.Chemscore.Rot>
3.6071

> <Gold.Chemscore.Internal.Correction>
   9.000000E+99

> <Gold.Chemscore.Hbonds>
donor molecule, donor type, donor heavy atom, donor atom, acceptor molecule, acceptor atom, score
      L1  H    17    44       P1  7957  1.00
      P1  H  6931  6943       L1     7  0.01

> <Gold.Chemscore.Hbond.Weighted>
-3.3436

> <Gold.Chemscore.Metal.Weighted>
-0.0000

> <Gold.Chemscore.Lipo.Weighted>
-11.0617

> <Gold.Chemscore.Internal_Hbond.Weighted>
0.0000

> <Gold.Chemscore.DEClash.Weighted>
0.0234

> <Gold.Chemscore.DEInternal.Weighted>
6.6349

> <Gold.Chemscore.Rot.Weighted>
9.2342

> <Gold.Chemscore.Internal.Correction.Weighted>
   9.000000E+99

> <Gold.Protein.RotatedTorsions>
[ 6907 6896 6895 6894 ] final  148.96 input  -60.11 | X-H torsion
[ 7974 7965 7964 7962 ] final  -22.04 input  175.53 | X-H torsion
[ 8008 7997 7996 7995 ] final -151.38 input   59.86 | X-H torsion
[ 10167 10162 10161 10158 ] final   19.25 input  -65.29 | X-H torsion
[ 10718 10713 10712 10709 ] final  -74.14 input   66.30 | X-H torsion
[ 10763 10752 10751 10750 ] final    1.19 input  -60.55 | X-H torsion
[ 11005 11000 10999 10996 ] final -144.55 input  -57.11 | X-H torsion

> <Gold.Protein.ActiveResidues>
 VAL166  LYS551  ARG553  GLY616  TRP617  ASP618  TYR619  PRO620  LYS621  CYS622 
 ASP623  PHE694  ASN695  SER759  ASP760  ASP761  ALA762  ILE779  LEU786  VAL792 
 PHE793  MET794  SER795  GLU796  ALA797  LYS798  CYS799  TRP800  GLU811  SER814 

> <Gold.Protein.RotatedAtoms>
  152.1344  133.4426  159.4736 H   0  0  0  0  0  0  0  0  0  0  0  0  # atno 6907 bound_to 6896
  150.6881  134.2381  159.4470 H   0  0  0  0  0  0  0  0  0  0  0  0  # atno 6908 bound_to 6896
  152.0268  134.9791  160.0622 H   0  0  0  0  0  0  0  0  0  0  0  0  # atno 6909 bound_to 6896
  146.1699  140.4424  142.8537 H   0  0  0  0  0  0  0  0  0  0  0  0  # atno 7974 bound_to 7965
  155.6385  140.0699  157.2626 H   0  0  0  0  0  0  0  0  0  0  0  0  # atno 8008 bound_to 7997
  154.4189  140.1755  156.1597 H   0  0  0  0  0  0  0  0  0  0  0  0  # atno 8009 bound_to 7997
  155.9875  140.3348  155.6724 H   0  0  0  0  0  0  0  0  0  0  0  0  # atno 8010 bound_to 7997
  140.5593  143.9367  150.6631 H   0  0  0  0  0  0  0  0  0  0  0  0  # atno 10167 bound_to 10162
  156.0253  130.4410  150.2848 H   0  0  0  0  0  0  0  0  0  0  0  0  # atno 10718 bound_to 10713
  153.3111  135.6963  153.7114 H   0  0  0  0  0  0  0  0  0  0  0  0  # atno 10763 bound_to 10752
  153.5991  135.3465  155.2939 H   0  0  0  0  0  0  0  0  0  0  0  0  # atno 10764 bound_to 10752
  154.8575  135.4336  154.2250 H   0  0  0  0  0  0  0  0  0  0  0  0  # atno 10765 bound_to 10752
  140.8013  134.2854  157.4977 H   0  0  0  0  0  0  0  0  0  0  0  0  # atno 11005 bound_to 11000
  144.8147  140.6447  143.6392 LP  0  0  0  0  0  0  0  0  0  0  0  0  # atno 17320 bound_to 7965
  145.4369  139.1541  143.3992 LP  0  0  0  0  0  0  0  0  0  0  0  0  # atno 17321 bound_to 7965
  140.2813  143.3387  152.1148 LP  0  0  0  0  0  0  0  0  0  0  0  0  # atno 17342 bound_to 10162
  139.5062  144.6810  151.6008 LP  0  0  0  0  0  0  0  0  0  0  0  0  # atno 17343 bound_to 10162
  157.0952  131.0180  151.3107 LP  0  0  0  0  0  0  0  0  0  0  0  0  # atno 17370 bound_to 10713
  157.4823  130.7772  149.7426 LP  0  0  0  0  0  0  0  0  0  0  0  0  # atno 17371 bound_to 10713
  139.8721  134.9431  156.3843 LP  0  0  0  0  0  0  0  0  0  0  0  0  # atno 17394 bound_to 11000
  140.9292  133.7591  156.0003 LP  0  0  0  0  0  0  0  0  0  0  0  0  # atno 17395 bound_to 11000

$$$$
