AV-unprocessed.smi:2132|AV-procd|sdf|8691|dock1
  -GOLD-   2272011443D 1   1.00000     0.00000
 Structure written by MMmdl.
 38 39  0  0  0  0  0  0  0  0  1 V2000
  154.7998  136.2701  161.4963 C   0  0  0  0  0  0  0  0  0  0  0  0
  153.5481  136.3193  160.8351 O   0  0  0  0  0  0  0  0  0  0  0  0
  153.0881  137.6466  160.6400 C   0  0  0  0  0  0  0  0  0  0  0  0
  154.1357  138.4311  159.8384 C   0  0  0  0  0  0  0  0  0  0  0  0
  153.6637  139.7711  159.5124 N   0  0  0  0  0  0  0  0  0  0  0  0
  152.5177  140.0565  158.8736 C   0  0  0  0  0  0  0  0  0  0  0  0
  151.7366  139.1963  158.4666 O   0  0  0  0  0  0  0  0  0  0  0  0
  152.2599  141.5156  158.5983 C   0  0  0  0  0  0  0  0  0  0  0  0
  152.7998  142.4719  159.4879 C   0  0  0  0  0  0  0  0  0  0  0  0
  152.5681  143.8403  159.2644 C   0  0  0  0  0  0  0  0  0  0  0  0
  151.8037  144.2102  158.1452 C   0  0  0  0  0  0  0  0  0  0  0  0
  151.2962  143.3167  157.2729 N   0  0  0  0  0  0  0  0  0  0  0  0
  151.5186  141.9941  157.4747 C   0  0  0  0  0  0  0  0  0  0  0  0
  151.0134  141.1206  156.4907 N   0  0  0  0  0  0  0  0  0  0  0  0
  152.0132  140.2261  155.9210 C   0  0  0  0  0  0  0  0  0  0  0  0
  151.3205  139.1295  155.0940 C   0  0  0  0  0  0  0  0  0  0  0  0
  150.4864  139.7274  154.1047 O   0  0  0  0  0  0  0  0  0  0  0  0
  149.4673  140.5404  154.6806 C   0  0  0  0  0  0  0  0  0  0  0  0
  150.1120  141.6791  155.4889 C   0  0  0  0  0  0  0  0  0  0  0  0
  155.1093  135.2320  161.6171 H   0  0  0  0  0  0  0  0  0  0  0  0
  154.7397  136.7204  162.4878 H   0  0  0  0  0  0  0  0  0  0  0  0
  155.5702  136.7867  160.9226 H   0  0  0  0  0  0  0  0  0  0  0  0
  152.1283  137.6476  160.1203 H   0  0  0  0  0  0  0  0  0  0  0  0
  152.9343  138.1260  161.6079 H   0  0  0  0  0  0  0  0  0  0  0  0
  155.0703  138.4905  160.3983 H   0  0  0  0  0  0  0  0  0  0  0  0
  154.3654  137.9078  158.9101 H   0  0  0  0  0  0  0  0  0  0  0  0
  154.2562  140.5413  159.7869 H   0  0  0  0  0  0  0  0  0  0  0  0
  153.3792  142.1634  160.3462 H   0  0  0  0  0  0  0  0  0  0  0  0
  152.9642  144.5872  159.9363 H   0  0  0  0  0  0  0  0  0  0  0  0
  151.6003  145.2507  157.9401 H   0  0  0  0  0  0  0  0  0  0  0  0
  152.6884  140.8029  155.2878 H   0  0  0  0  0  0  0  0  0  0  0  0
  152.6201  139.7728  156.7050 H   0  0  0  0  0  0  0  0  0  0  0  0
  152.0646  138.5037  154.6012 H   0  0  0  0  0  0  0  0  0  0  0  0
  150.7284  138.4758  155.7365 H   0  0  0  0  0  0  0  0  0  0  0  0
  148.8452  140.9492  153.8844 H   0  0  0  0  0  0  0  0  0  0  0  0
  148.8182  139.9333  155.3141 H   0  0  0  0  0  0  0  0  0  0  0  0
  149.3410  142.2779  155.9751 H   0  0  0  0  0  0  0  0  0  0  0  0
  150.6662  142.3389  154.8201 H   0  0  0  0  0  0  0  0  0  0  0  0
  1  2  1  0  0  0  0
  1 20  1  0  0  0  0
  1 21  1  0  0  0  0
  1 22  1  0  0  0  0
  2  3  1  0  0  0  0
  3  4  1  0  0  0  0
  3 23  1  0  0  0  0
  3 24  1  0  0  0  0
  4  5  1  0  0  0  0
  4 25  1  0  0  0  0
  4 26  1  0  0  0  0
  5  6  1  0  0  0  0
  5 27  1  0  0  0  0
  6  7  2  0  0  0  0
  6  8  1  0  0  0  0
  8 13  1  0  0  0  0
  8  9  2  0  0  0  0
  9 10  1  0  0  0  0
  9 28  1  0  0  0  0
 10 11  2  0  0  0  0
 10 29  1  0  0  0  0
 11 12  1  0  0  0  0
 11 30  1  0  0  0  0
 12 13  2  0  0  0  0
 13 14  1  0  0  0  0
 14 19  1  0  0  0  0
 14 15  1  0  0  0  0
 15 16  1  0  0  0  0
 15 31  1  0  0  0  0
 15 32  1  0  0  0  0
 16 17  1  0  0  0  0
 16 33  1  0  0  0  0
 16 34  1  0  0  0  0
 17 18  1  0  0  0  0
 18 19  1  0  0  0  0
 18 35  1  0  0  0  0
 18 36  1  0  0  0  0
 19 37  1  0  0  0  0
 19 38  1  0  0  0  0
M  END
> <s_m_source_file>
AV-unprocessed.smi

> <i_m_source_file_index>
2132

> <i_lp_mmshare_version>
43012

> <i_f3d_flags>
0

> <s_epik_input>
W0NIM11PW0NIMl1bQ0gyXVtOSF1DKD1PKWMxW2NIXVtjSF1bY0hdbmMxTjJbQ0gyXVtDSDJdT1tDSDJdW0NIMl0y

> <s_epik_cmdline>
J2VwaWtfcHl0aG9uJywgJy1waCcsICc3LjAnLCAnLXRuJywgJzgnLCAnLW1hJywgJzIwMCcsICctbWV0YWxfYmluZGluZycsICctaW1hZScsICc8aW5maWxlLm1hZT4nLCAnLW9tYWUnLCAnPG91dGZpbGUubWFlPic=

> <r_lp_tautomer_probability>
1

> <r_epik_Ionization_Penalty>
1.38099e-05

> <r_epik_Ionization_Penalty_Charging>
0

> <r_epik_Ionization_Penalty_Neutral>
1.38099e-05

> <r_epik_State_Penalty>
-0

> <r_epik_Charging_Adjusted_Penalty>
0

> <i_epik_Tot_Q>
0

> <i_epik_Tot_abs_Q>
0

> <r_epik_Metal_State_Penalty>
-0

> <b_epik_Metal_Only>
0

> <s_lp_Force_Field>
OPLS_2005

> <r_lp_Energy>
24.8445

> <b_lp_Chiralities_Consistent>
1

> <s_lp_Variant>
AV-unprocessed.smi:2132-1

> <Gold.Version>
5.8.1

> <Gold.Id.Protein>
6NUR|6NUR_protein|mol2

> <Gold.PLP.Fitness>
40.1262

> <Gold.PLP.PLP>
-34.9608

> <Gold.PLP.part.hbond>
-2.0000

> <Gold.PLP.part.metal>
0.0000

> <Gold.PLP.part.buried>
-4.7307

> <Gold.PLP.part.nonpolar>
-28.3736

> <Gold.PLP.part.repulsive>
0.4990

> <Gold.PLP.ligand.clash>
0.0000

> <Gold.PLP.ligand.torsion>
0.4795

> <Gold.PLP.Chemscore.Hbond>
1.9500

> <Gold.PLP.Chemscore.CHOScore>
0.0000

> <Gold.PLP.Chemscore.Metal>
0.0000

> <Gold.Chemscore.Hbonds>
donor molecule, donor type, donor heavy atom, donor atom, acceptor molecule, acceptor atom, score
      P1  H  6896  6907       L1     2  0.89
      P1  H  7989  7998       L1    17  0.90

> <Gold.PLP.Chemscore.Internal.Correction>
0.2745

> <Gold.Rescore>
     Score         DG    S(hbond)    S(metal)    S(lipo)     H(rot)  DE(clash)    DE(int)     intcor
     11.69     -15.79       1.29        0.00      86.86       1.62       0.31       3.78       ----

> <Gold.Chemscore.Fitness>
11.6853

> <Gold.Chemscore.DG>
-15.7850

> <Gold.Chemscore.ZeroCoef>
-5.4800

> <Gold.Chemscore.Hbond>
1.2850

> <Gold.Chemscore.Metal>
0.0000

> <Gold.Chemscore.Lipo>
86.8600

> <Gold.Chemscore.Internal_Hbond>
0.0000

> <Gold.Chemscore.DEClash>
0.3150

> <Gold.Chemscore.DEInternal>
3.7848

> <Gold.Chemscore.Rot>
1.6209

> <Gold.Chemscore.Internal.Correction>
   9.000000E+99

> <Gold.Chemscore.Hbonds>
donor molecule, donor type, donor heavy atom, donor atom, acceptor molecule, acceptor atom, score
      P1  H  6896  6907       L1     2  0.79
      P1  H  7989  7998       L1    17  0.08

> <Gold.Chemscore.Hbond.Weighted>
-4.2920

> <Gold.Chemscore.Metal.Weighted>
-0.0000

> <Gold.Chemscore.Lipo.Weighted>
-10.1626

> <Gold.Chemscore.Internal_Hbond.Weighted>
0.0000

> <Gold.Chemscore.DEClash.Weighted>
0.3150

> <Gold.Chemscore.DEInternal.Weighted>
3.7848

> <Gold.Chemscore.Rot.Weighted>
4.1496

> <Gold.Chemscore.Internal.Correction.Weighted>
   9.000000E+99

> <Gold.Protein.RotatedTorsions>
[ 6907 6896 6895 6894 ] final   47.73 input  -60.11 | X-H torsion
[ 7974 7965 7964 7962 ] final  -64.99 input  175.53 | X-H torsion
[ 8008 7997 7996 7995 ] final -121.80 input   59.86 | X-H torsion
[ 10167 10162 10161 10158 ] final -133.21 input  -65.29 | X-H torsion
[ 10718 10713 10712 10709 ] final  172.98 input   66.30 | X-H torsion
[ 10763 10752 10751 10750 ] final   35.64 input  -60.55 | X-H torsion
[ 11005 11000 10999 10996 ] final   50.08 input  -57.11 | X-H torsion

> <Gold.Protein.ActiveResidues>
 VAL166  LYS551  ARG553  GLY616  TRP617  ASP618  TYR619  PRO620  LYS621  CYS622 
 ASP623  PHE694  ASN695  SER759  ASP760  ASP761  ALA762  ILE779  LEU786  VAL792 
 PHE793  MET794  SER795  GLU796  ALA797  LYS798  CYS799  TRP800  GLU811  SER814 

> <Gold.Protein.RotatedAtoms>
  152.2714  134.7928  160.0413 H   0  0  0  0  0  0  0  0  0  0  0  0  # atno 6907 bound_to 6896
  151.8539  133.3439  159.3690 H   0  0  0  0  0  0  0  0  0  0  0  0  # atno 6908 bound_to 6896
  150.7153  134.5200  159.5693 H   0  0  0  0  0  0  0  0  0  0  0  0  # atno 6909 bound_to 6896
  145.7599  140.8867  143.0435 H   0  0  0  0  0  0  0  0  0  0  0  0  # atno 7974 bound_to 7965
  155.1538  140.0404  157.2827 H   0  0  0  0  0  0  0  0  0  0  0  0  # atno 8008 bound_to 7997
  154.6385  140.2541  155.7323 H   0  0  0  0  0  0  0  0  0  0  0  0  # atno 8009 bound_to 7997
  156.2520  140.2860  156.0768 H   0  0  0  0  0  0  0  0  0  0  0  0  # atno 8010 bound_to 7997
  139.9006  143.6612  152.2595 H   0  0  0  0  0  0  0  0  0  0  0  0  # atno 10167 bound_to 10162
  156.9709  131.0090  151.2905 H   0  0  0  0  0  0  0  0  0  0  0  0  # atno 10718 bound_to 10713
  153.0110  135.6328  154.1859 H   0  0  0  0  0  0  0  0  0  0  0  0  # atno 10763 bound_to 10752
  154.1601  135.2824  155.3113 H   0  0  0  0  0  0  0  0  0  0  0  0  # atno 10764 bound_to 10752
  154.5988  135.5594  153.7413 H   0  0  0  0  0  0  0  0  0  0  0  0  # atno 10765 bound_to 10752
  140.1048  134.5033  155.8730 H   0  0  0  0  0  0  0  0  0  0  0  0  # atno 11005 bound_to 11000
  144.6832  139.9708  143.7482 LP  0  0  0  0  0  0  0  0  0  0  0  0  # atno 17320 bound_to 7965
  146.0274  139.3305  143.0776 LP  0  0  0  0  0  0  0  0  0  0  0  0  # atno 17321 bound_to 7965
  139.7029  144.7632  151.1243 LP  0  0  0  0  0  0  0  0  0  0  0  0  # atno 17342 bound_to 10162
  140.7707  143.5434  150.9287 LP  0  0  0  0  0  0  0  0  0  0  0  0  # atno 17343 bound_to 10162
  157.5593  130.8235  149.8245 LP  0  0  0  0  0  0  0  0  0  0  0  0  # atno 17370 bound_to 10713
  156.0283  130.3772  150.1760 LP  0  0  0  0  0  0  0  0  0  0  0  0  # atno 17371 bound_to 10713
  141.2115  133.6707  156.6588 LP  0  0  0  0  0  0  0  0  0  0  0  0  # atno 17394 bound_to 11000
  140.3171  134.8038  157.4223 LP  0  0  0  0  0  0  0  0  0  0  0  0  # atno 17395 bound_to 11000

$$$$
