AV-unprocessed.smi:1075|AV-procd|sdf|4693|dock6
  -GOLD-   22720 3213D 1   1.00000     0.00000
 Structure written by MMmdl.
 50 51  0  0  0  0  0  0  0  0  1 V2000
  149.7352  136.6488  158.2895 C   0  0  0  0  0  0  0  0  0  0  0  0
  149.0337  135.3887  157.8694 C   0  0  0  0  0  0  0  0  0  0  0  0
  149.7495  134.3585  157.4530 N   0  0  0  0  0  0  0  0  0  0  0  0
  148.8420  133.4109  157.1472 N   0  0  0  0  0  0  0  0  0  0  0  0
  149.2971  132.1277  156.6478 C   0  0  0  0  0  0  0  0  0  0  0  0
  147.5486  133.8438  157.3668 C   0  0  0  0  0  0  0  0  0  0  0  0
  146.3681  132.9686  157.0850 C   0  0  0  0  0  0  0  0  0  0  0  0
  147.6313  135.1282  157.8443 C   0  0  0  0  0  0  0  0  0  0  0  0
  146.5284  136.0899  158.2464 C   0  0  2  0  0  0  0  0  0  0  0  0
  146.4139  137.2615  157.2527 C   0  0  0  0  0  0  0  0  0  0  0  0
  146.7122  136.5499  159.7053 C   0  0  0  0  0  0  0  0  0  0  0  0
  147.2424  137.6322  159.9566 O   0  0  0  0  0  0  0  0  0  0  0  0
  146.2517  135.7128  160.6534 N   0  0  0  0  0  0  0  0  0  0  0  0
  146.2838  135.8591  162.1143 C   0  0  1  0  0  0  0  0  0  0  0  0
  147.7158  136.2025  162.5791 C   0  0  0  0  0  0  0  0  0  0  0  0
  145.2799  136.9385  162.5956 C   0  0  0  0  0  0  0  0  0  0  0  0
  143.8172  136.5727  162.2829 C   0  0  0  0  0  0  0  0  0  0  0  0
  143.4338  135.2101  162.8887 C   0  0  1  0  0  0  0  0  0  0  0  0
  141.9803  134.8391  162.5634 C   0  0  0  0  0  0  0  0  0  0  0  0
  144.4127  134.1181  162.4201 C   0  0  0  0  0  0  0  0  0  0  0  0
  145.8742  134.4977  162.7252 C   0  0  0  0  0  0  0  0  0  0  0  0
  149.4053  137.4953  157.6868 H   0  0  0  0  0  0  0  0  0  0  0  0
  150.8173  136.5669  158.1802 H   0  0  0  0  0  0  0  0  0  0  0  0
  149.5247  136.8811  159.3337 H   0  0  0  0  0  0  0  0  0  0  0  0
  148.8540  131.3261  157.2388 H   0  0  0  0  0  0  0  0  0  0  0  0
  150.3834  132.0514  156.7126 H   0  0  0  0  0  0  0  0  0  0  0  0
  148.9951  132.0126  155.6067 H   0  0  0  0  0  0  0  0  0  0  0  0
  145.4414  133.5406  157.0637 H   0  0  0  0  0  0  0  0  0  0  0  0
  146.2695  132.1975  157.8491 H   0  0  0  0  0  0  0  0  0  0  0  0
  146.4684  132.4768  156.1173 H   0  0  0  0  0  0  0  0  0  0  0  0
  145.5680  135.5736  158.2286 H   0  0  0  0  0  0  0  0  0  0  0  0
  147.3217  137.8642  157.2245 H   0  0  0  0  0  0  0  0  0  0  0  0
  145.5849  137.9222  157.5086 H   0  0  0  0  0  0  0  0  0  0  0  0
  146.2319  136.8936  156.2425 H   0  0  0  0  0  0  0  0  0  0  0  0
  145.8336  134.8563  160.3194 H   0  0  0  0  0  0  0  0  0  0  0  0
  147.7858  136.2066  163.6672 H   0  0  0  0  0  0  0  0  0  0  0  0
  148.0339  137.1873  162.2378 H   0  0  0  0  0  0  0  0  0  0  0  0
  148.4384  135.4749  162.2077 H   0  0  0  0  0  0  0  0  0  0  0  0
  145.3828  137.0689  163.6739 H   0  0  0  0  0  0  0  0  0  0  0  0
  145.5137  137.9106  162.1617 H   0  0  0  0  0  0  0  0  0  0  0  0
  143.1588  137.3495  162.6733 H   0  0  0  0  0  0  0  0  0  0  0  0
  143.6619  136.5574  161.2034 H   0  0  0  0  0  0  0  0  0  0  0  0
  143.5172  135.2909  163.9736 H   0  0  0  0  0  0  0  0  0  0  0  0
  141.8276  134.7390  161.4882 H   0  0  0  0  0  0  0  0  0  0  0  0
  141.2901  135.6001  162.9283 H   0  0  0  0  0  0  0  0  0  0  0  0
  141.7032  133.8928  163.0289 H   0  0  0  0  0  0  0  0  0  0  0  0
  144.1750  133.1732  162.9099 H   0  0  0  0  0  0  0  0  0  0  0  0
  144.2898  133.9434  161.3503 H   0  0  0  0  0  0  0  0  0  0  0  0
  146.5368  133.7093  162.3650 H   0  0  0  0  0  0  0  0  0  0  0  0
  146.0069  134.5283  163.8077 H   0  0  0  0  0  0  0  0  0  0  0  0
  1  2  1  0  0  0  0
  1 22  1  0  0  0  0
  1 23  1  0  0  0  0
  1 24  1  0  0  0  0
  2  8  1  0  0  0  0
  2  3  2  0  0  0  0
  3  4  1  0  0  0  0
  4  5  1  0  0  0  0
  4  6  1  0  0  0  0
  5 25  1  0  0  0  0
  5 26  1  0  0  0  0
  5 27  1  0  0  0  0
  6  7  1  0  0  0  0
  6  8  2  0  0  0  0
  7 28  1  0  0  0  0
  7 29  1  0  0  0  0
  7 30  1  0  0  0  0
  8  9  1  0  0  0  0
  9 10  1  0  0  0  0
  9 11  1  0  0  0  0
  9 31  1  0  0  0  0
 10 32  1  0  0  0  0
 10 33  1  0  0  0  0
 10 34  1  0  0  0  0
 11 12  2  0  0  0  0
 11 13  1  0  0  0  0
 13 14  1  0  0  0  0
 13 35  1  0  0  0  0
 14 21  1  0  0  0  0
 14 15  1  0  0  0  0
 14 16  1  0  0  0  0
 15 36  1  0  0  0  0
 15 37  1  0  0  0  0
 15 38  1  0  0  0  0
 16 17  1  0  0  0  0
 16 39  1  0  0  0  0
 16 40  1  0  0  0  0
 17 18  1  0  0  0  0
 17 41  1  0  0  0  0
 17 42  1  0  0  0  0
 18 19  1  0  0  0  0
 18 20  1  0  0  0  0
 18 43  1  0  0  0  0
 19 44  1  0  0  0  0
 19 45  1  0  0  0  0
 19 46  1  0  0  0  0
 20 21  1  0  0  0  0
 20 47  1  0  0  0  0
 20 48  1  0  0  0  0
 21 49  1  0  0  0  0
 21 50  1  0  0  0  0
M  END
> <s_m_source_file>
AV-unprocessed.smi

> <i_m_source_file_index>
1075

> <i_lp_mmshare_version>
43012

> <i_f3d_flags>
0

> <s_epik_input>
W0NIM11jMW5uKFtDSDNdKWMoW0NIM10pYzFbQ0BIXShbQ0gzXSlDKD1PKVtOSF1bQ0BAXTIoW0NIM10pW0NIMl1bQ0gyXVtDQEBIXShbQ0gzXSlbQ0gyXVtDSDJdMg==

> <s_epik_cmdline>
J2VwaWtfcHl0aG9uJywgJy1waCcsICc3LjAnLCAnLXRuJywgJzgnLCAnLW1hJywgJzIwMCcsICctbWV0YWxfYmluZGluZycsICctaW1hZScsICc8aW5maWxlLm1hZT4nLCAnLW9tYWUnLCAnPG91dGZpbGUubWFlPic=

> <r_lp_tautomer_probability>
1

> <r_epik_Ionization_Penalty>
0.00502928

> <r_epik_Ionization_Penalty_Charging>
0

> <r_epik_Ionization_Penalty_Neutral>
0.00502928

> <r_epik_State_Penalty>
0.0036576

> <r_epik_Charging_Adjusted_Penalty>
0.0036576

> <i_epik_Tot_Q>
0

> <i_epik_Tot_abs_Q>
0

> <r_epik_Metal_State_Penalty>
-0

> <b_epik_Metal_Only>
0

> <s_lp_Force_Field>
OPLS_2005

> <r_lp_Energy>
4.57547

> <b_lp_Chiralities_Consistent>
1

> <s_lp_Variant>
AV-unprocessed.smi:1075-1

> <Gold.Version>
5.8.1

> <Gold.Id.Protein>
6NUR|6NUR_protein|mol2

> <Gold.PLP.Fitness>
31.2052

> <Gold.PLP.PLP>
-27.4173

> <Gold.PLP.part.hbond>
-2.0000

> <Gold.PLP.part.metal>
0.0000

> <Gold.PLP.part.buried>
-4.2292

> <Gold.PLP.part.nonpolar>
-21.9078

> <Gold.PLP.part.repulsive>
0.0258

> <Gold.PLP.ligand.clash>
0.0000

> <Gold.PLP.ligand.torsion>
0.9227

> <Gold.PLP.Chemscore.Hbond>
1.8480

> <Gold.PLP.Chemscore.CHOScore>
0.0000

> <Gold.PLP.Chemscore.Metal>
0.0000

> <Gold.Chemscore.Hbonds>
donor molecule, donor type, donor heavy atom, donor atom, acceptor molecule, acceptor atom, score
      P1  H  6896  6907       L1     3  0.60
      P1  H  6934  6947       L1    12  0.94

> <Gold.PLP.Chemscore.Internal.Correction>
0.0893

> <Gold.Rescore>
     Score         DG    S(hbond)    S(metal)    S(lipo)     H(rot)  DE(clash)    DE(int)     intcor
     14.98     -17.26       1.73        0.00      78.30       1.23       1.51       0.77       ----

> <Gold.Chemscore.Fitness>
14.9826

> <Gold.Chemscore.DG>
-17.2625

> <Gold.Chemscore.ZeroCoef>
-5.4800

> <Gold.Chemscore.Hbond>
1.7292

> <Gold.Chemscore.Metal>
0.0000

> <Gold.Chemscore.Lipo>
78.2994

> <Gold.Chemscore.Internal_Hbond>
0.0000

> <Gold.Chemscore.DEClash>
1.5114

> <Gold.Chemscore.DEInternal>
0.7685

> <Gold.Chemscore.Rot>
1.2321

> <Gold.Chemscore.Internal.Correction>
   9.000000E+99

> <Gold.Chemscore.Hbonds>
donor molecule, donor type, donor heavy atom, donor atom, acceptor molecule, acceptor atom, score
      P1  H  6896  6907       L1     3  0.06
      P1  H  6934  6947       L1    12  0.91

> <Gold.Chemscore.Hbond.Weighted>
-5.7755

> <Gold.Chemscore.Metal.Weighted>
-0.0000

> <Gold.Chemscore.Lipo.Weighted>
-9.1610

> <Gold.Chemscore.Internal_Hbond.Weighted>
0.0000

> <Gold.Chemscore.DEClash.Weighted>
1.5114

> <Gold.Chemscore.DEInternal.Weighted>
0.7685

> <Gold.Chemscore.Rot.Weighted>
3.1541

> <Gold.Chemscore.Internal.Correction.Weighted>
   9.000000E+99

> <Gold.Protein.RotatedTorsions>
[ 6907 6896 6895 6894 ] final -103.85 input  -60.11 | X-H torsion
[ 7974 7965 7964 7962 ] final   23.15 input  175.53 | X-H torsion
[ 8008 7997 7996 7995 ] final -134.42 input   59.86 | X-H torsion
[ 10167 10162 10161 10158 ] final  114.30 input  -65.29 | X-H torsion
[ 10718 10713 10712 10709 ] final   99.75 input   66.30 | X-H torsion
[ 10763 10752 10751 10750 ] final -179.30 input  -60.55 | X-H torsion
[ 11005 11000 10999 10996 ] final -126.04 input  -57.11 | X-H torsion

> <Gold.Protein.ActiveResidues>
 VAL166  LYS551  ARG553  GLY616  TRP617  ASP618  TYR619  PRO620  LYS621  CYS622 
 ASP623  PHE694  ASN695  SER759  ASP760  ASP761  ALA762  ILE779  LEU786  VAL792 
 PHE793  MET794  SER795  GLU796  ALA797  LYS798  CYS799  TRP800  GLU811  SER814 

> <Gold.Protein.RotatedAtoms>
  150.7259  134.0367  159.3751 H   0  0  0  0  0  0  0  0  0  0  0  0  # atno 6907 bound_to 6896
  151.8339  135.0610  160.0449 H   0  0  0  0  0  0  0  0  0  0  0  0  # atno 6908 bound_to 6896
  152.2913  133.5528  159.5596 H   0  0  0  0  0  0  0  0  0  0  0  0  # atno 6909 bound_to 6896
  146.1997  139.7784  142.8771 H   0  0  0  0  0  0  0  0  0  0  0  0  # atno 7974 bound_to 7965
  155.3618  140.0483  157.3046 H   0  0  0  0  0  0  0  0  0  0  0  0  # atno 8008 bound_to 7997
  154.5174  140.2213  155.9003 H   0  0  0  0  0  0  0  0  0  0  0  0  # atno 8009 bound_to 7997
  156.1652  140.3108  155.8882 H   0  0  0  0  0  0  0  0  0  0  0  0  # atno 8010 bound_to 7997
  139.6398  144.7123  151.2259 H   0  0  0  0  0  0  0  0  0  0  0  0  # atno 10167 bound_to 10162
  157.6869  131.0678  150.4996 H   0  0  0  0  0  0  0  0  0  0  0  0  # atno 10718 bound_to 10713
  154.5369  135.2803  155.1131 H   0  0  0  0  0  0  0  0  0  0  0  0  # atno 10763 bound_to 10752
  154.2629  135.6318  153.5285 H   0  0  0  0  0  0  0  0  0  0  0  0  # atno 10764 bound_to 10752
  152.9969  135.5610  154.5897 H   0  0  0  0  0  0  0  0  0  0  0  0  # atno 10765 bound_to 10752
  140.9714  134.0801  157.3866 H   0  0  0  0  0  0  0  0  0  0  0  0  # atno 11005 bound_to 11000
  145.3525  141.0310  143.3330 LP  0  0  0  0  0  0  0  0  0  0  0  0  # atno 17320 bound_to 7965
  144.8656  139.5112  143.6792 LP  0  0  0  0  0  0  0  0  0  0  0  0  # atno 17321 bound_to 7965
  140.7485  143.6331  150.8404 LP  0  0  0  0  0  0  0  0  0  0  0  0  # atno 17342 bound_to 10162
  139.9967  143.5788  152.2890 LP  0  0  0  0  0  0  0  0  0  0  0  0  # atno 17343 bound_to 10162
  156.5318  130.4186  149.6198 LP  0  0  0  0  0  0  0  0  0  0  0  0  # atno 17370 bound_to 10713
  156.3063  130.7204  151.2087 LP  0  0  0  0  0  0  0  0  0  0  0  0  # atno 17371 bound_to 10713
  139.8913  135.0118  156.6786 LP  0  0  0  0  0  0  0  0  0  0  0  0  # atno 17394 bound_to 11000
  140.7324  133.9048  155.8220 LP  0  0  0  0  0  0  0  0  0  0  0  0  # atno 17395 bound_to 11000

$$$$
