AV-unprocessed.smi:2902|AV-procd|sdf|11157|dock8
  -GOLD-   2272016 43D 1   1.00000     0.00000
 Structure written by MMmdl.
 47 48  0  0  0  0  0  0  0  0  1 V2000
  141.0324  136.0543  153.4612 C   0  0  0  0  0  0  0  0  0  0  0  0
  142.1305  135.0073  153.2364 C   0  0  0  0  0  0  0  0  0  0  0  0
  143.4431  135.6242  152.7177 C   0  0  2  0  0  0  0  0  0  0  0  0
  144.4052  134.5745  152.6018 O   0  0  0  0  0  0  0  0  0  0  0  0
  144.5370  133.9509  151.3255 C   0  0  0  0  0  0  0  0  0  0  0  0
  143.6288  132.7317  151.1390 C   0  0  0  0  0  0  0  0  0  0  0  0
  144.3218  131.8839  150.0659 C   0  0  0  0  0  0  0  0  0  0  0  0
  145.7988  132.3090  150.0673 C   0  0  0  0  0  0  0  0  0  0  0  0
  145.9379  133.3623  151.1712 C   0  0  0  0  0  0  0  0  0  0  0  0
  143.9590  136.7212  153.6632 C   0  0  0  0  0  0  0  0  0  0  0  0
  143.3225  137.0255  154.6721 O   0  0  0  0  0  0  0  0  0  0  0  0
  145.1276  137.2893  153.3276 N   0  0  0  0  0  0  0  0  0  0  0  0
  145.8214  138.3265  154.0872 C   0  0  1  0  0  0  0  0  0  0  0  0
  146.1833  137.7796  155.4821 C   0  0  0  0  0  0  0  0  0  0  0  0
  147.0486  138.8317  153.2866 C   0  0  1  0  0  0  0  0  0  0  0  0
  146.8220  138.8146  151.7635 C   0  0  0  0  0  0  0  0  0  0  0  0
  147.4601  140.1628  153.7105 N   0  0  0  0  0  0  0  0  0  0  0  0
  146.7849  141.3143  153.7485 C   0  0  0  0  0  0  0  0  0  0  0  0
  147.4974  142.3399  154.1926 N   0  0  0  0  0  0  0  0  0  0  0  0
  148.6865  141.7082  154.4230 C   0  0  0  0  0  0  0  0  0  0  0  0
  148.7187  140.4043  154.1479 N   0  0  0  0  0  0  0  0  0  0  0  0
  140.1223  135.5875  153.8383 H   0  0  0  0  0  0  0  0  0  0  0  0
  140.7815  136.5691  152.5335 H   0  0  0  0  0  0  0  0  0  0  0  0
  141.3465  136.8050  154.1868 H   0  0  0  0  0  0  0  0  0  0  0  0
  142.3141  134.4879  154.1782 H   0  0  0  0  0  0  0  0  0  0  0  0
  141.7694  134.2530  152.5360 H   0  0  0  0  0  0  0  0  0  0  0  0
  143.2477  136.0604  151.7366 H   0  0  0  0  0  0  0  0  0  0  0  0
  144.3744  134.6612  150.5137 H   0  0  0  0  0  0  0  0  0  0  0  0
  143.5785  132.1668  152.0711 H   0  0  0  0  0  0  0  0  0  0  0  0
  142.6102  133.0029  150.8598 H   0  0  0  0  0  0  0  0  0  0  0  0
  144.2047  130.8186  150.2669 H   0  0  0  0  0  0  0  0  0  0  0  0
  143.8823  132.0811  149.0874 H   0  0  0  0  0  0  0  0  0  0  0  0
  146.4687  131.4648  150.2337 H   0  0  0  0  0  0  0  0  0  0  0  0
  146.0562  132.7435  149.1005 H   0  0  0  0  0  0  0  0  0  0  0  0
  146.6887  134.1186  150.9404 H   0  0  0  0  0  0  0  0  0  0  0  0
  146.2348  132.8748  152.1011 H   0  0  0  0  0  0  0  0  0  0  0  0
  145.5794  136.9687  152.4834 H   0  0  0  0  0  0  0  0  0  0  0  0
  145.1446  139.1721  154.2257 H   0  0  0  0  0  0  0  0  0  0  0  0
  146.6272  138.5475  156.1154 H   0  0  0  0  0  0  0  0  0  0  0  0
  146.8936  136.9553  155.4107 H   0  0  0  0  0  0  0  0  0  0  0  0
  145.2988  137.4106  156.0027 H   0  0  0  0  0  0  0  0  0  0  0  0
  147.8797  138.1551  153.4966 H   0  0  0  0  0  0  0  0  0  0  0  0
  146.6276  137.8068  151.3964 H   0  0  0  0  0  0  0  0  0  0  0  0
  147.7000  139.1869  151.2346 H   0  0  0  0  0  0  0  0  0  0  0  0
  145.9744  139.4397  151.4812 H   0  0  0  0  0  0  0  0  0  0  0  0
  145.7514  141.4032  153.4466 H   0  0  0  0  0  0  0  0  0  0  0  0
  149.5552  142.2252  154.8033 H   0  0  0  0  0  0  0  0  0  0  0  0
  1  2  1  0  0  0  0
  1 22  1  0  0  0  0
  1 23  1  0  0  0  0
  1 24  1  0  0  0  0
  2  3  1  0  0  0  0
  2 25  1  0  0  0  0
  2 26  1  0  0  0  0
  3  4  1  0  0  0  0
  3 10  1  0  0  0  0
  3 27  1  0  0  0  0
  4  5  1  0  0  0  0
  5  9  1  0  0  0  0
  5  6  1  0  0  0  0
  5 28  1  0  0  0  0
  6  7  1  0  0  0  0
  6 29  1  0  0  0  0
  6 30  1  0  0  0  0
  7  8  1  0  0  0  0
  7 31  1  0  0  0  0
  7 32  1  0  0  0  0
  8  9  1  0  0  0  0
  8 33  1  0  0  0  0
  8 34  1  0  0  0  0
  9 35  1  0  0  0  0
  9 36  1  0  0  0  0
 10 11  2  0  0  0  0
 10 12  1  0  0  0  0
 12 13  1  0  0  0  0
 12 37  1  0  0  0  0
 13 14  1  0  0  0  0
 13 15  1  0  0  0  0
 13 38  1  0  0  0  0
 14 39  1  0  0  0  0
 14 40  1  0  0  0  0
 14 41  1  0  0  0  0
 15 16  1  0  0  0  0
 15 17  1  0  0  0  0
 15 42  1  0  0  0  0
 16 43  1  0  0  0  0
 16 44  1  0  0  0  0
 16 45  1  0  0  0  0
 17 21  1  0  0  0  0
 17 18  1  0  0  0  0
 18 19  2  0  0  0  0
 18 46  1  0  0  0  0
 19 20  1  0  0  0  0
 20 21  2  0  0  0  0
 20 47  1  0  0  0  0
M  END
> <s_m_source_file>
AV-unprocessed.smi

> <i_m_source_file_index>
2902

> <i_lp_mmshare_version>
43012

> <i_f3d_flags>
0

> <s_epik_input>
W0NIMl0xW0NIMl1bQ0gyXVtDSDJdW0NIXTFPW0NAQEhdKFtDSDJdW0NIM10pQyg9TylbTkhdW0NASF0oW0NIM10pW0NASF0oW0NIM10pbjJbY0hdbltjSF1uMg==

> <s_epik_cmdline>
J2VwaWtfcHl0aG9uJywgJy1waCcsICc3LjAnLCAnLXRuJywgJzgnLCAnLW1hJywgJzIwMCcsICctbWV0YWxfYmluZGluZycsICctaW1hZScsICc8aW5maWxlLm1hZT4nLCAnLW9tYWUnLCAnPG91dGZpbGUubWFlPic=

> <r_lp_tautomer_probability>
1

> <r_epik_Ionization_Penalty>
6.95617e-05

> <r_epik_Ionization_Penalty_Charging>
0

> <r_epik_Ionization_Penalty_Neutral>
6.95617e-05

> <r_epik_State_Penalty>
-0

> <r_epik_Charging_Adjusted_Penalty>
0

> <i_epik_Tot_Q>
0

> <i_epik_Tot_abs_Q>
0

> <r_epik_Metal_State_Penalty>
-0

> <b_epik_Metal_Only>
0

> <s_lp_Force_Field>
OPLS_2005

> <r_lp_Energy>
29.96

> <b_lp_Chiralities_Consistent>
1

> <s_lp_Variant>
AV-unprocessed.smi:2902-7

> <Gold.Version>
5.8.1

> <Gold.Id.Protein>
6NUR|6NUR_protein|mol2

> <Gold.PLP.Fitness>
38.2365

> <Gold.PLP.PLP>
-37.2226

> <Gold.PLP.part.hbond>
0.0000

> <Gold.PLP.part.metal>
0.0000

> <Gold.PLP.part.buried>
-5.2663

> <Gold.PLP.part.nonpolar>
-33.4378

> <Gold.PLP.part.repulsive>
0.8205

> <Gold.PLP.ligand.clash>
0.0000

> <Gold.PLP.ligand.torsion>
1.4365

> <Gold.PLP.Chemscore.Hbond>
0.0000

> <Gold.PLP.Chemscore.CHOScore>
1.2479

> <Gold.PLP.Chemscore.Metal>
0.0000

> <Gold.Chemscore.Hbonds>
donor molecule, donor type, donor heavy atom, donor atom, acceptor molecule, acceptor atom, score
      L1  C    18    46       P1 10175  0.94
      L1  C    20    47       P1  8028  0.33

> <Gold.PLP.Chemscore.Internal.Correction>
0.1433

> <Gold.Rescore>
     Score         DG    S(hbond)    S(metal)    S(lipo)     H(rot)  DE(clash)    DE(int)     intcor
      4.89      -7.66       0.00        0.00      77.60       2.69       0.03       2.75       ----

> <Gold.Chemscore.Fitness>
4.8884

> <Gold.Chemscore.DG>
-7.6639

> <Gold.Chemscore.ZeroCoef>
-5.4800

> <Gold.Chemscore.Hbond>
0.0000

> <Gold.Chemscore.Metal>
0.0000

> <Gold.Chemscore.Lipo>
77.6002

> <Gold.Chemscore.Internal_Hbond>
0.0000

> <Gold.Chemscore.DEClash>
0.0269

> <Gold.Chemscore.DEInternal>
2.7485

> <Gold.Chemscore.Rot>
2.6935

> <Gold.Chemscore.Internal.Correction>
   9.000000E+99

> <Gold.Chemscore.Hbond.Weighted>
-0.0000

> <Gold.Chemscore.Metal.Weighted>
-0.0000

> <Gold.Chemscore.Lipo.Weighted>
-9.0792

> <Gold.Chemscore.Internal_Hbond.Weighted>
0.0000

> <Gold.Chemscore.DEClash.Weighted>
0.0269

> <Gold.Chemscore.DEInternal.Weighted>
2.7485

> <Gold.Chemscore.Rot.Weighted>
6.8954

> <Gold.Chemscore.Internal.Correction.Weighted>
   9.000000E+99

> <Gold.Protein.RotatedTorsions>
[ 6907 6896 6895 6894 ] final  105.16 input  -60.11 | X-H torsion
[ 7974 7965 7964 7962 ] final -174.42 input  175.53 | X-H torsion
[ 8008 7997 7996 7995 ] final    9.43 input   59.86 | X-H torsion
[ 10167 10162 10161 10158 ] final -164.91 input  -65.29 | X-H torsion
[ 10718 10713 10712 10709 ] final  -43.06 input   66.30 | X-H torsion
[ 10763 10752 10751 10750 ] final  161.08 input  -60.55 | X-H torsion
[ 11005 11000 10999 10996 ] final   89.12 input  -57.11 | X-H torsion

> <Gold.Protein.ActiveResidues>
 VAL166  LYS551  ARG553  GLY616  TRP617  ASP618  TYR619  PRO620  LYS621  CYS622 
 ASP623  PHE694  ASN695  SER759  ASP760  ASP761  ALA762  ILE779  LEU786  VAL792 
 PHE793  MET794  SER795  GLU796  ALA797  LYS798  CYS799  TRP800  GLU811  SER814 

> <Gold.Protein.RotatedAtoms>
  152.5240  133.9570  159.7698 H   0  0  0  0  0  0  0  0  0  0  0  0  # atno 6907 bound_to 6896
  150.9868  133.6181  159.2721 H   0  0  0  0  0  0  0  0  0  0  0  0  # atno 6908 bound_to 6896
  151.3339  135.0854  159.9401 H   0  0  0  0  0  0  0  0  0  0  0  0  # atno 6909 bound_to 6896
  144.7132  140.1474  143.6387 H   0  0  0  0  0  0  0  0  0  0  0  0  # atno 7974 bound_to 7965
  154.7799  140.2817  155.6071 H   0  0  0  0  0  0  0  0  0  0  0  0  # atno 8008 bound_to 7997
  156.2948  140.2625  156.2550 H   0  0  0  0  0  0  0  0  0  0  0  0  # atno 8009 bound_to 7997
  154.9796  140.0375  157.2261 H   0  0  0  0  0  0  0  0  0  0  0  0  # atno 8010 bound_to 7997
  139.6218  144.0610  152.1939 H   0  0  0  0  0  0  0  0  0  0  0  0  # atno 10167 bound_to 10162
  156.2530  130.4190  149.8628 H   0  0  0  0  0  0  0  0  0  0  0  0  # atno 10718 bound_to 10713
  154.2573  135.2769  155.2792 H   0  0  0  0  0  0  0  0  0  0  0  0  # atno 10763 bound_to 10752
  154.5414  135.5701  153.6846 H   0  0  0  0  0  0  0  0  0  0  0  0  # atno 10764 bound_to 10752
  152.9969  135.6252  154.2723 H   0  0  0  0  0  0  0  0  0  0  0  0  # atno 10765 bound_to 10752
  139.8882  134.8531  156.3097 H   0  0  0  0  0  0  0  0  0  0  0  0  # atno 11005 bound_to 11000
  145.9147  139.2508  143.1417 LP  0  0  0  0  0  0  0  0  0  0  0  0  # atno 17320 bound_to 7965
  145.9681  140.8782  143.0176 LP  0  0  0  0  0  0  0  0  0  0  0  0  # atno 17321 bound_to 7965
  140.0253  144.6122  150.7532 LP  0  0  0  0  0  0  0  0  0  0  0  0  # atno 17342 bound_to 10162
  140.7386  143.2781  151.3681 LP  0  0  0  0  0  0  0  0  0  0  0  0  # atno 17343 bound_to 10162
  156.6170  130.8610  151.3467 LP  0  0  0  0  0  0  0  0  0  0  0  0  # atno 17370 bound_to 10713
  157.7222  130.9573  150.1484 LP  0  0  0  0  0  0  0  0  0  0  0  0  # atno 17371 bound_to 10713
  140.9858  133.7239  156.0740 LP  0  0  0  0  0  0  0  0  0  0  0  0  # atno 17394 bound_to 11000
  140.7690  134.3854  157.5511 LP  0  0  0  0  0  0  0  0  0  0  0  0  # atno 17395 bound_to 11000

$$$$
