AV-unprocessed.smi:1381|AV-procd|sdf|5615|dock3
  -GOLD-   22720 5223D 1   1.00000     0.00000
 Structure written by MMmdl.
 42 43  0  0  0  0  0  0  0  0  3 V2000
  149.1550  140.8287  154.3645 C   0  0  0  0  0  0  0  0  0  0  0  0
  150.0601  139.6509  154.4870 C   0  0  0  0  0  0  0  0  0  0  0  0
  149.8386  138.3033  154.4554 C   0  0  0  0  0  0  0  0  0  0  0  0
  151.1384  137.7562  154.6371 C   0  0  0  0  0  0  0  0  0  0  0  0
  151.4474  136.4506  154.6685 N   0  5  0  0  0  0  0  0  0  0  0  0
  150.5941  135.5627  155.2272 C   0  0  0  0  0  0  0  0  0  0  0  0
  150.5519  135.2350  156.4154 O   0  0  0  0  0  0  0  0  0  0  0  0
  149.7278  135.0255  154.3562 N   0  0  0  0  0  0  0  0  0  0  0  0
  148.6844  134.0599  154.6806 C   0  0  0  0  0  0  0  0  0  0  0  0
  147.3139  134.5195  154.1494 C   0  0  0  0  0  0  0  0  0  0  0  0
  147.1384  134.2160  152.7049 N   0  3  1  0  0  0  0  0  0  0  0  0
  147.4288  132.8041  152.3560 C   0  0  0  0  0  0  0  0  0  0  0  0
  146.2657  131.8774  152.7636 C   0  0  2  0  0  0  0  0  0  0  0  0
  146.5100  130.4248  152.3404 C   0  0  0  0  0  0  0  0  0  0  0  0
  145.0748  132.3294  152.1275 O   0  0  0  0  0  0  0  0  0  0  0  0
  144.7036  133.6472  152.5185 C   0  0  2  0  0  0  0  0  0  0  0  0
  143.3810  133.9911  151.8247 C   0  0  0  0  0  0  0  0  0  0  0  0
  145.8310  134.6307  152.1350 C   0  0  0  0  0  0  0  0  0  0  0  0
  152.0683  138.6894  154.7522 N   0  0  0  0  0  0  0  0  0  0  0  0
  151.3843  139.9076  154.6625 O   0  0  0  0  0  0  0  0  0  0  0  0
  148.9120  141.0198  153.3193 H   0  0  0  0  0  0  0  0  0  0  0  0
  149.6206  141.7255  154.7736 H   0  0  0  0  0  0  0  0  0  0  0  0
  148.2229  140.6577  154.9033 H   0  0  0  0  0  0  0  0  0  0  0  0
  148.8976  137.7902  154.3262 H   0  0  0  0  0  0  0  0  0  0  0  0
  149.8004  135.3174  153.3925 H   0  0  0  0  0  0  0  0  0  0  0  0
  148.9757  133.1095  154.2356 H   0  0  0  0  0  0  0  0  0  0  0  0
  148.6455  133.8994  155.7593 H   0  0  0  0  0  0  0  0  0  0  0  0
  146.5378  133.9984  154.7114 H   0  0  0  0  0  0  0  0  0  0  0  0
  147.1651  135.5813  154.3446 H   0  0  0  0  0  0  0  0  0  0  0  0
  147.5818  132.7440  151.2775 H   0  0  0  0  0  0  0  0  0  0  0  0
  148.3647  132.4815  152.8142 H   0  0  0  0  0  0  0  0  0  0  0  0
  146.1285  131.9005  153.8461 H   0  0  0  0  0  0  0  0  0  0  0  0
  147.4129  130.0273  152.8052 H   0  0  0  0  0  0  0  0  0  0  0  0
  146.6245  130.3409  151.2592 H   0  0  0  0  0  0  0  0  0  0  0  0
  145.6765  129.7875  152.6369 H   0  0  0  0  0  0  0  0  0  0  0  0
  144.5352  133.6659  153.5959 H   0  0  0  0  0  0  0  0  0  0  0  0
  143.0413  134.9896  152.1008 H   0  0  0  0  0  0  0  0  0  0  0  0
  142.5990  133.2853  152.1058 H   0  0  0  0  0  0  0  0  0  0  0  0
  143.4833  133.9597  150.7396 H   0  0  0  0  0  0  0  0  0  0  0  0
  145.5761  135.6458  152.4366 H   0  0  0  0  0  0  0  0  0  0  0  0
  145.9336  134.6561  151.0491 H   0  0  0  0  0  0  0  0  0  0  0  0
  147.8459  134.7649  152.2373 H   0  0  0  0  0  0  0  0  0  0  0  0
  1  2  1  0  0  0  0
  1 21  1  0  0  0  0
  1 22  1  0  0  0  0
  1 23  1  0  0  0  0
  2 20  1  0  0  0  0
  2  3  2  0  0  0  0
  3  4  1  0  0  0  0
  3 24  1  0  0  0  0
  4  5  1  0  0  0  0
  4 19  2  0  0  0  0
  5  6  1  0  0  0  0
  6  7  2  0  0  0  0
  6  8  1  0  0  0  0
  8  9  1  0  0  0  0
  8 25  1  0  0  0  0
  9 10  1  0  0  0  0
  9 26  1  0  0  0  0
  9 27  1  0  0  0  0
 10 11  1  0  0  0  0
 10 28  1  0  0  0  0
 10 29  1  0  0  0  0
 11 18  1  0  0  0  0
 11 12  1  0  0  0  0
 11 42  1  0  0  0  0
 12 13  1  0  0  0  0
 12 30  1  0  0  0  0
 12 31  1  0  0  0  0
 13 14  1  0  0  0  0
 13 15  1  0  0  0  0
 13 32  1  0  0  0  0
 14 33  1  0  0  0  0
 14 34  1  0  0  0  0
 14 35  1  0  0  0  0
 15 16  1  0  0  0  0
 16 17  1  0  0  0  0
 16 18  1  0  0  0  0
 16 36  1  0  0  0  0
 17 37  1  0  0  0  0
 17 38  1  0  0  0  0
 17 39  1  0  0  0  0
 18 40  1  0  0  0  0
 18 41  1  0  0  0  0
 19 20  1  0  0  0  0
M  CHG  1   5  -1
M  CHG  1  11   1
M  END
> <s_m_source_file>
AV-unprocessed.smi

> <i_m_source_file_index>
1381

> <i_lp_mmshare_version>
43012

> <i_f3d_flags>
0

> <s_epik_input>
W0NIM11jMVtjSF1jKG5vMSlbTkhdQyg9TylbTkhdW0NIMl1bQ0gyXU4yW0NIMl1bQ0BASF0oW0NIM10pT1tDQEBIXShbQ0gzXSlbQ0gyXTI=

> <s_epik_cmdline>
J2VwaWtfcHl0aG9uJywgJy1waCcsICc3LjAnLCAnLXRuJywgJzgnLCAnLW1hJywgJzIwMCcsICctbWV0YWxfYmluZGluZycsICctaW1hZScsICc8aW5maWxlLm1hZT4nLCAnLW9tYWUnLCAnPG91dGZpbGUubWFlPic=

> <r_epik_Ionization_Penalty>
6.73511

> <r_epik_Ionization_Penalty_Charging>
6.73502

> <r_epik_Ionization_Penalty_Neutral>
9.26583e-05

> <r_epik_State_Penalty>
6.93549

> <r_epik_Charging_Adjusted_Penalty>
13.6705

> <i_epik_Tot_Q>
0

> <i_epik_Tot_abs_Q>
2

> <r_epik_Metal_State_Penalty>
2.87211

> <b_epik_Metal_Only>
1

> <s_lp_Force_Field>
OPLS_2005

> <r_lp_Energy>
4.17006

> <b_lp_Chiralities_Consistent>
1

> <s_lp_Variant>
AV-unprocessed.smi:1381-14

> <Gold.Version>
5.8.1

> <Gold.Id.Protein>
6NUR|6NUR_protein|mol2

> <Gold.PLP.Fitness>
46.0830

> <Gold.PLP.PLP>
-32.1585

> <Gold.PLP.part.hbond>
-4.0000

> <Gold.PLP.part.metal>
0.0000

> <Gold.PLP.part.buried>
-4.6338

> <Gold.PLP.part.nonpolar>
-24.0192

> <Gold.PLP.part.repulsive>
0.4703

> <Gold.PLP.ligand.clash>
0.0000

> <Gold.PLP.ligand.torsion>
1.1513

> <Gold.PLP.Chemscore.Hbond>
5.3472

> <Gold.PLP.Chemscore.CHOScore>
0.0000

> <Gold.PLP.Chemscore.Metal>
0.0000

> <Gold.Chemscore.Hbonds>
donor molecule, donor type, donor heavy atom, donor atom, acceptor molecule, acceptor atom, score
      L1  H     8    25       P1  7948  0.30
      L1  H    11    42       P1  7948  2.00
      P1  H  7989  7998       L1    20  0.99
      P1  H 10752 10764       L1     5  2.00

> <Gold.PLP.Chemscore.Internal.Correction>
0.1854

> <Gold.Rescore>
     Score         DG    S(hbond)    S(metal)    S(lipo)     H(rot)  DE(clash)    DE(int)     intcor
     16.34     -17.37       2.67        0.00      59.96       1.58       0.08       0.95       ----

> <Gold.Chemscore.Fitness>
16.3354

> <Gold.Chemscore.DG>
-17.3706

> <Gold.Chemscore.ZeroCoef>
-5.4800

> <Gold.Chemscore.Hbond>
2.6700

> <Gold.Chemscore.Metal>
0.0000

> <Gold.Chemscore.Lipo>
59.9629

> <Gold.Chemscore.Internal_Hbond>
0.0000

> <Gold.Chemscore.DEClash>
0.0811

> <Gold.Chemscore.DEInternal>
0.9542

> <Gold.Chemscore.Rot>
1.5792

> <Gold.Chemscore.Internal.Correction>
   9.000000E+99

> <Gold.Chemscore.Hbonds>
donor molecule, donor type, donor heavy atom, donor atom, acceptor molecule, acceptor atom, score
      L1  H    11    42       P1  7948  0.65
      P1  H  7989  7998       L1    20  0.27
      P1  H 10752 10764       L1     5  0.29

> <Gold.Chemscore.Hbond.Weighted>
-8.9178

> <Gold.Chemscore.Metal.Weighted>
-0.0000

> <Gold.Chemscore.Lipo.Weighted>
-7.0157

> <Gold.Chemscore.Internal_Hbond.Weighted>
0.0000

> <Gold.Chemscore.DEClash.Weighted>
0.0811

> <Gold.Chemscore.DEInternal.Weighted>
0.9542

> <Gold.Chemscore.Rot.Weighted>
4.0428

> <Gold.Chemscore.Internal.Correction.Weighted>
   9.000000E+99

> <Gold.Protein.RotatedTorsions>
[ 6907 6896 6895 6894 ] final -147.65 input  -60.11 | X-H torsion
[ 7974 7965 7964 7962 ] final   51.19 input  175.53 | X-H torsion
[ 8008 7997 7996 7995 ] final -119.86 input   59.86 | X-H torsion
[ 10167 10162 10161 10158 ] final  100.94 input  -65.29 | X-H torsion
[ 10718 10713 10712 10709 ] final  164.41 input   66.30 | X-H torsion
[ 10763 10752 10751 10750 ] final  -48.99 input  -60.55 | X-H torsion
[ 11005 11000 10999 10996 ] final   19.04 input  -57.11 | X-H torsion

> <Gold.Protein.ActiveResidues>
 VAL166  LYS551  ARG553  GLY616  TRP617  ASP618  TYR619  PRO620  LYS621  CYS622 
 ASP623  PHE694  ASN695  SER759  ASP760  ASP761  ALA762  ILE779  LEU786  VAL792 
 PHE793  MET794  SER795  GLU796  ALA797  LYS798  CYS799  TRP800  GLU811  SER814 

> <Gold.Protein.RotatedAtoms>
  151.1587  133.4859  159.2594 H   0  0  0  0  0  0  0  0  0  0  0  0  # atno 6907 bound_to 6896
  151.1477  135.0211  159.8664 H   0  0  0  0  0  0  0  0  0  0  0  0  # atno 6908 bound_to 6896
  152.5463  134.1474  159.8557 H   0  0  0  0  0  0  0  0  0  0  0  0  # atno 6909 bound_to 6896
  145.9938  139.4366  143.0057 H   0  0  0  0  0  0  0  0  0  0  0  0  # atno 7974 bound_to 7965
  155.1225  140.0399  157.2754 H   0  0  0  0  0  0  0  0  0  0  0  0  # atno 8008 bound_to 7997
  154.6603  140.2589  155.7091 H   0  0  0  0  0  0  0  0  0  0  0  0  # atno 8009 bound_to 7997
  156.2616  140.2818  156.1072 H   0  0  0  0  0  0  0  0  0  0  0  0  # atno 8010 bound_to 7997
  139.7482  144.6992  151.0472 H   0  0  0  0  0  0  0  0  0  0  0  0  # atno 10167 bound_to 10162
  157.0948  131.0427  151.2522 H   0  0  0  0  0  0  0  0  0  0  0  0  # atno 10718 bound_to 10713
  154.0868  135.6583  153.4846 H   0  0  0  0  0  0  0  0  0  0  0  0  # atno 10763 bound_to 10752
  153.0336  135.5193  154.7419 H   0  0  0  0  0  0  0  0  0  0  0  0  # atno 10764 bound_to 10752
  154.6531  135.3004  154.9930 H   0  0  0  0  0  0  0  0  0  0  0  0  # atno 10765 bound_to 10752
  140.4181  134.1548  155.7671 H   0  0  0  0  0  0  0  0  0  0  0  0  # atno 11005 bound_to 11000
  145.7591  140.9942  143.1209 LP  0  0  0  0  0  0  0  0  0  0  0  0  # atno 17320 bound_to 7965
  144.6897  139.9308  143.7471 LP  0  0  0  0  0  0  0  0  0  0  0  0  # atno 17321 bound_to 7965
  140.7794  143.4841  150.9979 LP  0  0  0  0  0  0  0  0  0  0  0  0  # atno 17342 bound_to 10162
  139.8529  143.7414  152.3177 LP  0  0  0  0  0  0  0  0  0  0  0  0  # atno 17343 bound_to 10162
  157.4691  130.7698  149.7306 LP  0  0  0  0  0  0  0  0  0  0  0  0  # atno 17370 bound_to 10713
  155.9889  130.3956  150.3099 LP  0  0  0  0  0  0  0  0  0  0  0  0  # atno 17371 bound_to 10713
  141.1795  133.8444  157.1307 LP  0  0  0  0  0  0  0  0  0  0  0  0  # atno 17394 bound_to 11000
  140.0220  134.9941  157.0610 LP  0  0  0  0  0  0  0  0  0  0  0  0  # atno 17395 bound_to 11000

$$$$
