AV-unprocessed.smi:527|AV-procd|sdf|2817|dock6
  -GOLD-   2262023293D 1   1.00000     0.00000
 Structure written by MMmdl.
 42 43  0  0  0  0  0  0  0  0  1 V2000
  144.6855  131.2728  150.8827 C   0  0  0  0  0  0  0  0  0  0  0  0
  144.6293  132.7084  151.4373 C   0  0  2  0  0  0  0  0  0  0  0  0
  144.2861  133.6870  150.2967 C   0  0  0  0  0  0  0  0  0  0  0  0
  144.1762  135.1299  150.7998 C   0  0  0  0  0  0  0  0  0  0  0  0
  145.4796  135.5632  151.4761 C   0  0  0  0  0  0  0  0  0  0  0  0
  145.8569  134.6151  152.6301 C   0  0  2  0  0  0  0  0  0  0  0  0
  147.1345  135.0460  153.1965 N   0  0  0  0  0  0  0  0  0  0  0  0
  147.3779  135.2635  154.4976 C   0  0  0  0  0  0  0  0  0  0  0  0
  146.5274  135.1238  155.3794 O   0  0  0  0  0  0  0  0  0  0  0  0
  148.6534  135.6515  154.6908 N   0  0  0  0  0  0  0  0  0  0  0  0
  149.3306  135.7003  155.8561 C   0  0  0  0  0  0  0  0  0  0  0  0
  148.8731  135.3652  156.9521 O   0  0  0  0  0  0  0  0  0  0  0  0
  150.7713  136.2155  155.7393 C   0  0  0  0  0  0  0  0  0  0  0  0
  150.8447  137.6459  155.4944 N   0  0  0  0  0  0  0  0  0  0  0  0
  151.2711  138.6281  156.3796 C   0  0  0  0  0  0  0  0  0  0  0  0
  151.1724  139.8282  155.7125 C   0  0  0  0  0  0  0  0  0  0  0  0
  150.6908  139.6102  154.4238 N   0  0  0  0  0  0  0  0  0  0  0  0
  150.5223  138.2952  154.3668 C   0  0  0  0  0  0  0  0  0  0  0  0
  145.9354  133.1346  152.1669 C   0  0  1  0  0  0  0  0  0  0  0  0
  146.2645  132.2020  153.3533 C   0  0  0  0  0  0  0  0  0  0  0  0
  145.5391  131.1372  150.2177 H   0  0  0  0  0  0  0  0  0  0  0  0
  143.7843  131.0381  150.3153 H   0  0  0  0  0  0  0  0  0  0  0  0
  144.7549  130.5309  151.6774 H   0  0  0  0  0  0  0  0  0  0  0  0
  143.8118  132.7474  152.1590 H   0  0  0  0  0  0  0  0  0  0  0  0
  145.0498  133.6304  149.5197 H   0  0  0  0  0  0  0  0  0  0  0  0
  143.3458  133.3983  149.8258 H   0  0  0  0  0  0  0  0  0  0  0  0
  143.9483  135.7982  149.9688 H   0  0  0  0  0  0  0  0  0  0  0  0
  143.3476  135.2149  151.5042 H   0  0  0  0  0  0  0  0  0  0  0  0
  146.2809  135.5849  150.7358 H   0  0  0  0  0  0  0  0  0  0  0  0
  145.3745  136.5834  151.8476 H   0  0  0  0  0  0  0  0  0  0  0  0
  145.0791  134.6815  153.3938 H   0  0  0  0  0  0  0  0  0  0  0  0
  147.8889  135.1931  152.5419 H   0  0  0  0  0  0  0  0  0  0  0  0
  149.1609  135.9438  153.8690 H   0  0  0  0  0  0  0  0  0  0  0  0
  151.3137  135.9873  156.6578 H   0  0  0  0  0  0  0  0  0  0  0  0
  151.2811  135.6982  154.9252 H   0  0  0  0  0  0  0  0  0  0  0  0
  151.6027  138.3976  157.3814 H   0  0  0  0  0  0  0  0  0  0  0  0
  151.4099  140.8235  156.0581 H   0  0  0  0  0  0  0  0  0  0  0  0
  150.1561  137.7921  153.4840 H   0  0  0  0  0  0  0  0  0  0  0  0
  146.7549  133.0543  151.4508 H   0  0  0  0  0  0  0  0  0  0  0  0
  145.4558  132.1944  154.0847 H   0  0  0  0  0  0  0  0  0  0  0  0
  147.1732  132.5071  153.8719 H   0  0  0  0  0  0  0  0  0  0  0  0
  146.4311  131.1758  153.0287 H   0  0  0  0  0  0  0  0  0  0  0  0
  1  2  1  0  0  0  0
  1 21  1  0  0  0  0
  1 22  1  0  0  0  0
  1 23  1  0  0  0  0
  2 19  1  0  0  0  0
  2  3  1  0  0  0  0
  2 24  1  0  0  0  0
  3  4  1  0  0  0  0
  3 25  1  0  0  0  0
  3 26  1  0  0  0  0
  4  5  1  0  0  0  0
  4 27  1  0  0  0  0
  4 28  1  0  0  0  0
  5  6  1  0  0  0  0
  5 29  1  0  0  0  0
  5 30  1  0  0  0  0
  6  7  1  0  0  0  0
  6 19  1  0  0  0  0
  6 31  1  0  0  0  0
  7  8  1  0  0  0  0
  7 32  1  0  0  0  0
  8  9  2  0  0  0  0
  8 10  1  0  0  0  0
 10 11  1  0  0  0  0
 10 33  1  0  0  0  0
 11 12  2  0  0  0  0
 11 13  1  0  0  0  0
 13 14  1  0  0  0  0
 13 34  1  0  0  0  0
 13 35  1  0  0  0  0
 14 18  1  0  0  0  0
 14 15  1  0  0  0  0
 15 16  2  0  0  0  0
 15 36  1  0  0  0  0
 16 17  1  0  0  0  0
 16 37  1  0  0  0  0
 17 18  2  0  0  0  0
 18 38  1  0  0  0  0
 19 20  1  0  0  0  0
 19 39  1  0  0  0  0
 20 40  1  0  0  0  0
 20 41  1  0  0  0  0
 20 42  1  0  0  0  0
M  END
> <s_m_source_file>
AV-unprocessed.smi

> <i_m_source_file_index>
527

> <i_lp_mmshare_version>
43012

> <i_f3d_flags>
0

> <s_epik_input>
W0NIM11bQ0BASF0xW0NIMl1bQ0gyXVtDSDJdW0NASF0oW0NASF0xW0NIM10pW05IXUMoPU8pW05IXUMoPU8pW0NIMl1uMltjSF1bY0hdbltjSF0y

> <s_epik_cmdline>
J2VwaWtfcHl0aG9uJywgJy1waCcsICc3LjAnLCAnLXRuJywgJzgnLCAnLW1hJywgJzIwMCcsICctbWV0YWxfYmluZGluZycsICctaW1hZScsICc8aW5maWxlLm1hZT4nLCAnLW9tYWUnLCAnPG91dGZpbGUubWFlPic=

> <r_lp_tautomer_probability>
1

> <r_epik_Ionization_Penalty>
0.172132

> <r_epik_Ionization_Penalty_Charging>
0.172105

> <r_epik_Ionization_Penalty_Neutral>
2.71747e-05

> <r_epik_State_Penalty>
0.161503

> <r_epik_Charging_Adjusted_Penalty>
0.333607

> <i_epik_Tot_Q>
0

> <i_epik_Tot_abs_Q>
0

> <r_epik_Metal_State_Penalty>
0.124763

> <b_epik_Metal_Only>
0

> <s_lp_Force_Field>
OPLS_2005

> <r_lp_Energy>
15.8984

> <b_lp_Chiralities_Consistent>
1

> <s_lp_Variant>
AV-unprocessed.smi:527-3

> <Gold.Version>
5.8.1

> <Gold.Id.Protein>
6NUR|6NUR_protein|mol2

> <Gold.PLP.Fitness>
41.8091

> <Gold.PLP.PLP>
-30.7301

> <Gold.PLP.part.hbond>
-2.7835

> <Gold.PLP.part.metal>
0.0000

> <Gold.PLP.part.buried>
-5.3739

> <Gold.PLP.part.nonpolar>
-24.0444

> <Gold.PLP.part.repulsive>
0.1708

> <Gold.PLP.ligand.clash>
0.0000

> <Gold.PLP.ligand.torsion>
0.4072

> <Gold.PLP.Chemscore.Hbond>
2.8400

> <Gold.PLP.Chemscore.CHOScore>
1.1164

> <Gold.PLP.Chemscore.Metal>
0.0000

> <Gold.Chemscore.Hbonds>
donor molecule, donor type, donor heavy atom, donor atom, acceptor molecule, acceptor atom, score
      L1  H     7    32       P1  7948  1.00
      L1  H    10    33       P1  7948  0.86
      P1  H  7989  7998       L1    17  1.00
      L1  C    18    38       P1  7948  1.00
      L1  C    18    38       P1  7949  0.04

> <Gold.PLP.Chemscore.Internal.Correction>
0.0241

> <Gold.Rescore>
     Score         DG    S(hbond)    S(metal)    S(lipo)     H(rot)  DE(clash)    DE(int)     intcor
     15.09     -16.94       2.62        0.00      59.55       1.66       0.07       1.79       ----

> <Gold.Chemscore.Fitness>
15.0913

> <Gold.Chemscore.DG>
-16.9419

> <Gold.Chemscore.ZeroCoef>
-5.4800

> <Gold.Chemscore.Hbond>
2.6204

> <Gold.Chemscore.Metal>
0.0000

> <Gold.Chemscore.Lipo>
59.5454

> <Gold.Chemscore.Internal_Hbond>
0.0000

> <Gold.Chemscore.DEClash>
0.0650

> <Gold.Chemscore.DEInternal>
1.7856

> <Gold.Chemscore.Rot>
1.6629

> <Gold.Chemscore.Internal.Correction>
   9.000000E+99

> <Gold.Chemscore.Hbonds>
donor molecule, donor type, donor heavy atom, donor atom, acceptor molecule, acceptor atom, score
      L1  H     7    32       P1  7948  0.92
      L1  H    10    33       P1  7948  0.71
      P1  H  7989  7998       L1    17  0.30

> <Gold.Chemscore.Hbond.Weighted>
-8.7520

> <Gold.Chemscore.Metal.Weighted>
-0.0000

> <Gold.Chemscore.Lipo.Weighted>
-6.9668

> <Gold.Chemscore.Internal_Hbond.Weighted>
0.0000

> <Gold.Chemscore.DEClash.Weighted>
0.0650

> <Gold.Chemscore.DEInternal.Weighted>
1.7856

> <Gold.Chemscore.Rot.Weighted>
4.2569

> <Gold.Chemscore.Internal.Correction.Weighted>
   9.000000E+99

> <Gold.Protein.RotatedTorsions>
[ 6907 6896 6895 6894 ] final  178.49 input  -60.11 | X-H torsion
[ 7974 7965 7964 7962 ] final   23.67 input  175.53 | X-H torsion
[ 8008 7997 7996 7995 ] final   19.36 input   59.86 | X-H torsion
[ 10167 10162 10161 10158 ] final   53.65 input  -65.29 | X-H torsion
[ 10718 10713 10712 10709 ] final -164.96 input   66.30 | X-H torsion
[ 10763 10752 10751 10750 ] final  -28.32 input  -60.55 | X-H torsion
[ 11005 11000 10999 10996 ] final -109.16 input  -57.11 | X-H torsion

> <Gold.Protein.ActiveResidues>
 VAL166  LYS551  ARG553  GLY616  TRP617  ASP618  TYR619  PRO620  LYS621  CYS622 
 ASP623  PHE694  ASN695  SER759  ASP760  ASP761  ALA762  ILE779  LEU786  VAL792 
 PHE793  MET794  SER795  GLU796  ALA797  LYS798  CYS799  TRP800  GLU811  SER814 

> <Gold.Protein.RotatedAtoms>
  151.6870  133.3311  159.3233 H   0  0  0  0  0  0  0  0  0  0  0  0  # atno 6907 bound_to 6896
  150.7796  134.6732  159.6412 H   0  0  0  0  0  0  0  0  0  0  0  0  # atno 6908 bound_to 6896
  152.3850  134.6535  160.0181 H   0  0  0  0  0  0  0  0  0  0  0  0  # atno 6909 bound_to 6896
  146.1974  139.7712  142.8787 H   0  0  0  0  0  0  0  0  0  0  0  0  # atno 7974 bound_to 7965
  154.9196  140.3025  155.5223 H   0  0  0  0  0  0  0  0  0  0  0  0  # atno 8008 bound_to 7997
  156.3010  140.2374  156.4181 H   0  0  0  0  0  0  0  0  0  0  0  0  # atno 8009 bound_to 7997
  154.8344  140.0417  157.1487 H   0  0  0  0  0  0  0  0  0  0  0  0  # atno 8010 bound_to 7997
  140.2385  144.3610  150.6389 H   0  0  0  0  0  0  0  0  0  0  0  0  # atno 10167 bound_to 10162
  156.6466  130.8990  151.3005 H   0  0  0  0  0  0  0  0  0  0  0  0  # atno 10718 bound_to 10713
  153.7464  135.6929  153.4955 H   0  0  0  0  0  0  0  0  0  0  0  0  # atno 10763 bound_to 10752
  153.2033  135.4428  155.0292 H   0  0  0  0  0  0  0  0  0  0  0  0  # atno 10764 bound_to 10752
  154.8203  135.3418  154.6987 H   0  0  0  0  0  0  0  0  0  0  0  0  # atno 10765 bound_to 10752
  141.0862  133.9134  157.2179 H   0  0  0  0  0  0  0  0  0  0  0  0  # atno 11005 bound_to 11000
  145.3599  141.0324  143.3290 LP  0  0  0  0  0  0  0  0  0  0  0  0  # atno 17320 bound_to 7965
  144.8609  139.5179  143.6813 LP  0  0  0  0  0  0  0  0  0  0  0  0  # atno 17321 bound_to 7965
  140.6132  143.2170  151.6845 LP  0  0  0  0  0  0  0  0  0  0  0  0  # atno 17342 bound_to 10162
  139.5085  144.3607  152.0564 LP  0  0  0  0  0  0  0  0  0  0  0  0  # atno 17343 bound_to 10162
  157.7154  130.9491  150.1238 LP  0  0  0  0  0  0  0  0  0  0  0  0  # atno 17370 bound_to 10713
  156.2117  130.3667  149.8662 LP  0  0  0  0  0  0  0  0  0  0  0  0  # atno 17371 bound_to 10713
  139.9681  135.0136  156.9441 LP  0  0  0  0  0  0  0  0  0  0  0  0  # atno 17394 bound_to 11000
  140.5356  134.0770  155.7327 LP  0  0  0  0  0  0  0  0  0  0  0  0  # atno 17395 bound_to 11000

$$$$
