AV-unprocessed.smi:171|AV-procd|sdf|1418|dock10
  -GOLD-   2262019183D 1   1.00000     0.00000
 Structure written by MMmdl.
 56 59  0  0  0  0  0  0  0  0  1 V2000
  151.5639  137.4720  154.5596 C   0  0  0  0  0  0  0  0  0  0  0  0
  150.9037  137.7286  155.9246 C   0  0  0  0  0  0  0  0  0  0  0  0
  151.0517  136.4916  156.8246 C   0  0  0  0  0  0  0  0  0  0  0  0
  149.4132  138.1456  155.8026 C   0  0  0  0  0  0  0  0  0  0  0  0
  149.0529  139.1056  154.6310 C   0  0  2  0  0  0  0  0  0  0  0  0
  149.8072  140.4531  154.7026 C   0  0  0  0  0  0  0  0  0  0  0  0
  151.0160  140.4659  154.9276 O   0  0  0  0  0  0  0  0  0  0  0  0
  149.1306  141.5942  154.4866 N   0  0  0  0  0  0  0  0  0  0  0  0
  147.6988  141.6921  154.2173 C   0  0  0  0  0  0  0  0  0  0  0  0
  147.1138  140.3751  153.6891 C   0  0  0  0  0  0  0  0  0  0  0  0
  147.5948  139.2624  154.4966 N   0  0  0  0  0  0  0  0  0  0  0  0
  146.8764  138.1329  154.3086 C   0  0  0  0  0  0  0  0  0  0  0  0
  146.5813  137.3279  155.3621 N   0  0  0  0  0  0  0  0  0  0  0  0
  145.8501  136.2253  155.1707 C   0  0  0  0  0  0  0  0  0  0  0  0
  145.3247  135.7574  154.0356 N   0  0  0  0  0  0  0  0  0  0  0  0
  145.6255  136.5662  152.9788 C   0  0  0  0  0  0  0  0  0  0  0  0
  146.4002  137.7573  153.0266 C   0  0  0  0  0  0  0  0  0  0  0  0
  146.5054  138.3138  151.7590 N   0  0  0  0  0  0  0  0  0  0  0  0
  145.8193  137.5017  151.0024 C   0  0  0  0  0  0  0  0  0  0  0  0
  145.2469  136.4324  151.6545 N   0  0  0  0  0  0  0  0  0  0  0  0
  144.4213  135.3938  151.0609 C   0  0  0  0  0  0  0  0  0  0  0  0
  145.0938  134.0003  151.0704 C   0  0  1  0  0  0  0  0  0  0  0  0
  146.2479  134.0499  150.2471 O   0  0  0  0  0  0  0  0  0  0  0  0
  145.5091  133.5171  152.4521 C   0  0  0  0  0  0  0  0  0  0  0  0
  145.5595  132.0045  152.2731 C   0  0  0  0  0  0  0  0  0  0  0  0
  144.5076  131.7056  151.3638 O   0  0  0  0  0  0  0  0  0  0  0  0
  144.1470  132.8682  150.6188 C   0  0  2  0  0  0  0  0  0  0  0  0
  144.1033  132.5682  149.1122 C   0  0  0  0  0  0  0  0  0  0  0  0
  151.0350  136.6995  154.0006 H   0  0  0  0  0  0  0  0  0  0  0  0
  152.5964  137.1434  154.6807 H   0  0  0  0  0  0  0  0  0  0  0  0
  151.5882  138.3715  153.9464 H   0  0  0  0  0  0  0  0  0  0  0  0
  151.4636  138.5276  156.4094 H   0  0  0  0  0  0  0  0  0  0  0  0
  150.5166  135.6352  156.4131 H   0  0  0  0  0  0  0  0  0  0  0  0
  150.6598  136.6830  157.8244 H   0  0  0  0  0  0  0  0  0  0  0  0
  152.0989  136.2091  156.9363 H   0  0  0  0  0  0  0  0  0  0  0  0
  148.7870  137.2532  155.7646 H   0  0  0  0  0  0  0  0  0  0  0  0
  149.1093  138.6338  156.7294 H   0  0  0  0  0  0  0  0  0  0  0  0
  149.4178  138.6458  153.7111 H   0  0  0  0  0  0  0  0  0  0  0  0
  149.6466  142.4613  154.5270 H   0  0  0  0  0  0  0  0  0  0  0  0
  147.2039  141.9660  155.1498 H   0  0  0  0  0  0  0  0  0  0  0  0
  147.5145  142.5018  153.5111 H   0  0  0  0  0  0  0  0  0  0  0  0
  146.0234  140.4251  153.6996 H   0  0  0  0  0  0  0  0  0  0  0  0
  147.4173  140.2203  152.6522 H   0  0  0  0  0  0  0  0  0  0  0  0
  145.6529  135.6363  156.0543 H   0  0  0  0  0  0  0  0  0  0  0  0
  145.7021  137.6677  149.9413 H   0  0  0  0  0  0  0  0  0  0  0  0
  143.4796  135.3625  151.6103 H   0  0  0  0  0  0  0  0  0  0  0  0
  144.1695  135.6881  150.0411 H   0  0  0  0  0  0  0  0  0  0  0  0
  146.0141  134.4621  149.4294 H   0  0  0  0  0  0  0  0  0  0  0  0
  146.4525  133.9391  152.8022 H   0  0  0  0  0  0  0  0  0  0  0  0
  144.7388  133.7654  153.1834 H   0  0  0  0  0  0  0  0  0  0  0  0
  146.5079  131.7032  151.8265 H   0  0  0  0  0  0  0  0  0  0  0  0
  145.4412  131.4655  153.2134 H   0  0  0  0  0  0  0  0  0  0  0  0
  143.1353  133.1140  150.9441 H   0  0  0  0  0  0  0  0  0  0  0  0
  143.8340  133.4585  148.5435 H   0  0  0  0  0  0  0  0  0  0  0  0
  143.3618  131.7993  148.8945 H   0  0  0  0  0  0  0  0  0  0  0  0
  145.0642  132.2091  148.7433 H   0  0  0  0  0  0  0  0  0  0  0  0
  1  2  1  0  0  0  0
  1 29  1  0  0  0  0
  1 30  1  0  0  0  0
  1 31  1  0  0  0  0
  2  3  1  0  0  0  0
  2  4  1  0  0  0  0
  2 32  1  0  0  0  0
  3 33  1  0  0  0  0
  3 34  1  0  0  0  0
  3 35  1  0  0  0  0
  4  5  1  0  0  0  0
  4 36  1  0  0  0  0
  4 37  1  0  0  0  0
  5 11  1  0  0  0  0
  5  6  1  0  0  0  0
  5 38  1  0  0  0  0
  6  7  2  0  0  0  0
  6  8  1  0  0  0  0
  8  9  1  0  0  0  0
  8 39  1  0  0  0  0
  9 10  1  0  0  0  0
  9 40  1  0  0  0  0
  9 41  1  0  0  0  0
 10 11  1  0  0  0  0
 10 42  1  0  0  0  0
 10 43  1  0  0  0  0
 11 12  1  0  0  0  0
 12 17  1  0  0  0  0
 12 13  2  0  0  0  0
 13 14  1  0  0  0  0
 14 15  2  0  0  0  0
 14 44  1  0  0  0  0
 15 16  1  0  0  0  0
 16 20  1  0  0  0  0
 16 17  2  0  0  0  0
 17 18  1  0  0  0  0
 18 19  2  0  0  0  0
 19 20  1  0  0  0  0
 19 45  1  0  0  0  0
 20 21  1  0  0  0  0
 21 22  1  0  0  0  0
 21 46  1  0  0  0  0
 21 47  1  0  0  0  0
 22 27  1  0  0  0  0
 22 23  1  0  0  0  0
 22 24  1  0  0  0  0
 23 48  1  0  0  0  0
 24 25  1  0  0  0  0
 24 49  1  0  0  0  0
 24 50  1  0  0  0  0
 25 26  1  0  0  0  0
 25 51  1  0  0  0  0
 25 52  1  0  0  0  0
 26 27  1  0  0  0  0
 27 28  1  0  0  0  0
 27 53  1  0  0  0  0
 28 54  1  0  0  0  0
 28 55  1  0  0  0  0
 28 56  1  0  0  0  0
M  END
> <s_m_source_file>
AV-unprocessed.smi

> <i_m_source_file_index>
171

> <i_lp_mmshare_version>
43012

> <i_f3d_flags>
0

> <s_epik_input>
W0NIM11bQ0hdKFtDSDNdKVtDSDJdW0NAQEhdMUMoPU8pW05IXVtDSDJdW0NIMl1OMWMobltjSF1uMiljKGMyMyluW2NIXW4zW0NIMl1bQ0BAXTQoW09IXSlbQ0gyXVtDSDJdT1tDQEhdNFtDSDNd

> <s_epik_cmdline>
J2VwaWtfcHl0aG9uJywgJy1waCcsICc3LjAnLCAnLXRuJywgJzgnLCAnLW1hJywgJzIwMCcsICctbWV0YWxfYmluZGluZycsICctaW1hZScsICc8aW5maWxlLm1hZT4nLCAnLW9tYWUnLCAnPG91dGZpbGUubWFlPic=

> <r_lp_tautomer_probability>
1

> <r_epik_Ionization_Penalty>
0.000670584

> <r_epik_Ionization_Penalty_Charging>
0

> <r_epik_Ionization_Penalty_Neutral>
0.000670584

> <r_epik_State_Penalty>
0.000304767

> <r_epik_Charging_Adjusted_Penalty>
0.000304767

> <i_epik_Tot_Q>
0

> <i_epik_Tot_abs_Q>
0

> <r_epik_Metal_State_Penalty>
-0

> <b_epik_Metal_Only>
0

> <s_lp_Force_Field>
OPLS_2005

> <r_lp_Energy>
41.3949

> <b_lp_Chiralities_Consistent>
1

> <s_lp_Variant>
AV-unprocessed.smi:171-5

> <Gold.Version>
5.8.1

> <Gold.Id.Protein>
6NUR|6NUR_protein|mol2

> <Gold.PLP.Fitness>
40.9046

> <Gold.PLP.PLP>
-34.6316

> <Gold.PLP.part.hbond>
-2.5769

> <Gold.PLP.part.metal>
0.0000

> <Gold.PLP.part.buried>
1.4533

> <Gold.PLP.part.nonpolar>
-34.1581

> <Gold.PLP.part.repulsive>
1.1230

> <Gold.PLP.ligand.clash>
0.0121

> <Gold.PLP.ligand.torsion>
0.8209

> <Gold.PLP.Chemscore.Hbond>
2.0000

> <Gold.PLP.Chemscore.CHOScore>
0.4973

> <Gold.PLP.Chemscore.Metal>
0.0000

> <Gold.Chemscore.Hbonds>
donor molecule, donor type, donor heavy atom, donor atom, acceptor molecule, acceptor atom, score
      L1  H    23    48       P1  7921  1.00
      P1  H  7989  7998       L1     7  1.00
      L1  C    19    45       P1 10171  0.49

> <Gold.PLP.Chemscore.Internal.Correction>
0.4351

> <Gold.Rescore>
     Score         DG    S(hbond)    S(metal)    S(lipo)     H(rot)  DE(clash)    DE(int)     intcor
      5.76     -12.63       1.49        0.00      75.55       2.61       2.15       4.72       ----

> <Gold.Chemscore.Fitness>
5.7608

> <Gold.Chemscore.DG>
-12.6309

> <Gold.Chemscore.ZeroCoef>
-5.4800

> <Gold.Chemscore.Hbond>
1.4928

> <Gold.Chemscore.Metal>
0.0000

> <Gold.Chemscore.Lipo>
75.5545

> <Gold.Chemscore.Internal_Hbond>
0.0000

> <Gold.Chemscore.DEClash>
2.1505

> <Gold.Chemscore.DEInternal>
4.7195

> <Gold.Chemscore.Rot>
2.6074

> <Gold.Chemscore.Internal.Correction>
   9.000000E+99

> <Gold.Chemscore.Hbonds>
donor molecule, donor type, donor heavy atom, donor atom, acceptor molecule, acceptor atom, score
      L1  H    23    48       P1  7921  0.44
      P1  H  7989  7998       L1     7  0.38

> <Gold.Chemscore.Hbond.Weighted>
-4.9858

> <Gold.Chemscore.Metal.Weighted>
-0.0000

> <Gold.Chemscore.Lipo.Weighted>
-8.8399

> <Gold.Chemscore.Internal_Hbond.Weighted>
0.0000

> <Gold.Chemscore.DEClash.Weighted>
2.1505

> <Gold.Chemscore.DEInternal.Weighted>
4.7195

> <Gold.Chemscore.Rot.Weighted>
6.6748

> <Gold.Chemscore.Internal.Correction.Weighted>
   9.000000E+99

> <Gold.Protein.RotatedTorsions>
[ 6907 6896 6895 6894 ] final    7.51 input  -60.11 | X-H torsion
[ 7974 7965 7964 7962 ] final  151.26 input  175.53 | X-H torsion
[ 8008 7997 7996 7995 ] final   72.62 input   59.86 | X-H torsion
[ 10167 10162 10161 10158 ] final   56.28 input  -65.29 | X-H torsion
[ 10718 10713 10712 10709 ] final   22.44 input   66.30 | X-H torsion
[ 10763 10752 10751 10750 ] final   51.67 input  -60.55 | X-H torsion
[ 11005 11000 10999 10996 ] final -143.55 input  -57.11 | X-H torsion

> <Gold.Protein.ActiveResidues>
 VAL166  LYS551  ARG553  GLY616  TRP617  ASP618  TYR619  PRO620  LYS621  CYS622 
 ASP623  PHE694  ASN695  SER759  ASP760  ASP761  ALA762  ILE779  LEU786  VAL792 
 PHE793  MET794  SER795  GLU796  ALA797  LYS798  CYS799  TRP800  GLU811  SER814 

> <Gold.Protein.RotatedAtoms>
  151.6910  135.0946  160.0233 H   0  0  0  0  0  0  0  0  0  0  0  0  # atno 6907 bound_to 6896
  152.3778  133.6501  159.6146 H   0  0  0  0  0  0  0  0  0  0  0  0  # atno 6908 bound_to 6896
  150.7723  133.9080  159.3402 H   0  0  0  0  0  0  0  0  0  0  0  0  # atno 6909 bound_to 6896
  144.8305  139.6515  143.6061 H   0  0  0  0  0  0  0  0  0  0  0  0  # atno 7974 bound_to 7965
  155.7716  140.3484  155.5250 H   0  0  0  0  0  0  0  0  0  0  0  0  # atno 8008 bound_to 7997
  155.8816  140.1003  157.1502 H   0  0  0  0  0  0  0  0  0  0  0  0  # atno 8009 bound_to 7997
  154.4025  140.1321  156.4191 H   0  0  0  0  0  0  0  0  0  0  0  0  # atno 8010 bound_to 7997
  140.2104  144.3894  150.6491 H   0  0  0  0  0  0  0  0  0  0  0  0  # atno 10167 bound_to 10162
  157.1524  130.6680  149.6016 H   0  0  0  0  0  0  0  0  0  0  0  0  # atno 10718 bound_to 10713
  152.9786  135.5838  154.4453 H   0  0  0  0  0  0  0  0  0  0  0  0  # atno 10763 bound_to 10752
  154.4049  135.2769  155.2075 H   0  0  0  0  0  0  0  0  0  0  0  0  # atno 10764 bound_to 10752
  154.3890  135.6129  153.5887 H   0  0  0  0  0  0  0  0  0  0  0  0  # atno 10765 bound_to 10752
  140.8114  134.2740  157.4939 H   0  0  0  0  0  0  0  0  0  0  0  0  # atno 11005 bound_to 11000
  146.2608  139.6406  142.9363 LP  0  0  0  0  0  0  0  0  0  0  0  0  # atno 17320 bound_to 7965
  145.4906  141.0438  143.2595 LP  0  0  0  0  0  0  0  0  0  0  0  0  # atno 17321 bound_to 7965
  140.6327  143.2190  151.6461 LP  0  0  0  0  0  0  0  0  0  0  0  0  # atno 17342 bound_to 10162
  139.5182  144.3292  152.0842 LP  0  0  0  0  0  0  0  0  0  0  0  0  # atno 17343 bound_to 10162
  155.9768  130.4740  150.6553 LP  0  0  0  0  0  0  0  0  0  0  0  0  # atno 17370 bound_to 10713
  157.4208  131.0836  151.1132 LP  0  0  0  0  0  0  0  0  0  0  0  0  # atno 17371 bound_to 10713
  139.8714  134.9485  156.3998 LP  0  0  0  0  0  0  0  0  0  0  0  0  # atno 17394 bound_to 11000
  140.9194  133.7656  155.9888 LP  0  0  0  0  0  0  0  0  0  0  0  0  # atno 17395 bound_to 11000

$$$$
