AV-unprocessed.smi:1692|AV-procd|sdf|6780|dock8
  -GOLD-   22720 7543D 1   1.00000     0.00000
 Structure written by MMmdl.
 46 47  0  0  0  0  0  0  0  0  2 V2000
  145.9469  137.1679  156.7849 C   0  0  0  0  0  0  0  0  0  0  0  0
  146.2772  137.4434  155.3139 C   0  0  2  0  0  0  0  0  0  0  0  0
  145.5327  138.6817  154.7741 C   0  0  0  0  0  0  0  0  0  0  0  0
  145.8011  138.8837  153.3294 N   0  3  1  0  0  0  0  0  0  0  0  0
  147.1332  139.4838  153.0507 C   0  0  0  0  0  0  0  0  0  0  0  0
  147.5243  140.5526  154.0850 C   0  0  0  0  0  0  0  0  0  0  0  0
  149.0072  140.9461  153.9819 C   0  0  0  0  0  0  0  0  0  0  0  0
  149.3748  141.9316  154.9922 N   0  0  0  0  0  0  0  0  0  0  0  0
  150.3081  141.7500  155.9380 C   0  0  0  0  0  0  0  0  0  0  0  0
  150.9684  140.7161  156.0468 O   0  0  0  0  0  0  0  0  0  0  0  0
  150.4180  142.8318  156.7289 N   0  0  0  0  0  0  0  0  0  0  0  0
  151.2921  143.0288  157.8312 C   0  0  0  0  0  0  0  0  0  0  0  0
  151.3935  144.3641  158.2825 C   0  0  0  0  0  0  0  0  0  0  0  0
  152.2346  144.6659  159.3711 C   0  0  0  0  0  0  0  0  0  0  0  0
  152.9540  143.6230  159.9810 C   0  0  0  0  0  0  0  0  0  0  0  0
  152.7969  142.3215  159.4696 C   0  0  0  0  0  0  0  0  0  0  0  0
  151.9914  142.0301  158.4262 N   0  0  0  0  0  0  0  0  0  0  0  0
  145.5043  137.6409  152.5714 C   0  0  0  0  0  0  0  0  0  0  0  0
  146.2291  136.4181  153.1746 C   0  0  2  0  0  0  0  0  0  0  0  0
  145.8295  135.1128  152.4782 C   0  0  0  0  0  0  0  0  0  0  0  0
  145.8887  136.3050  154.5526 O   0  0  0  0  0  0  0  0  0  0  0  0
  146.2359  138.0086  157.4164 H   0  0  0  0  0  0  0  0  0  0  0  0
  146.4772  136.2856  157.1444 H   0  0  0  0  0  0  0  0  0  0  0  0
  144.8796  136.9945  156.9252 H   0  0  0  0  0  0  0  0  0  0  0  0
  147.3555  137.5851  155.2261 H   0  0  0  0  0  0  0  0  0  0  0  0
  144.4580  138.5451  154.9044 H   0  0  0  0  0  0  0  0  0  0  0  0
  145.7967  139.5752  155.3413 H   0  0  0  0  0  0  0  0  0  0  0  0
  147.8878  138.6969  153.0844 H   0  0  0  0  0  0  0  0  0  0  0  0
  147.1702  139.8965  152.0426 H   0  0  0  0  0  0  0  0  0  0  0  0
  146.9107  141.4433  153.9539 H   0  0  0  0  0  0  0  0  0  0  0  0
  147.3173  140.1801  155.0892 H   0  0  0  0  0  0  0  0  0  0  0  0
  149.6366  140.0669  154.1225 H   0  0  0  0  0  0  0  0  0  0  0  0
  149.2323  141.3328  152.9865 H   0  0  0  0  0  0  0  0  0  0  0  0
  148.8779  142.8103  154.9749 H   0  0  0  0  0  0  0  0  0  0  0  0
  149.8040  143.6051  156.5200 H   0  0  0  0  0  0  0  0  0  0  0  0
  150.8334  145.1536  157.8031 H   0  0  0  0  0  0  0  0  0  0  0  0
  152.3252  145.6800  159.7309 H   0  0  0  0  0  0  0  0  0  0  0  0
  153.6087  143.8149  160.8181 H   0  0  0  0  0  0  0  0  0  0  0  0
  153.3315  141.4926  159.9090 H   0  0  0  0  0  0  0  0  0  0  0  0
  144.4266  137.4757  152.6115 H   0  0  0  0  0  0  0  0  0  0  0  0
  145.7507  137.7533  151.5167 H   0  0  0  0  0  0  0  0  0  0  0  0
  147.3096  136.5333  153.0811 H   0  0  0  0  0  0  0  0  0  0  0  0
  146.0797  135.1417  151.4173 H   0  0  0  0  0  0  0  0  0  0  0  0
  144.7580  134.9299  152.5652 H   0  0  0  0  0  0  0  0  0  0  0  0
  146.3491  134.2612  152.9181 H   0  0  0  0  0  0  0  0  0  0  0  0
  145.1329  139.5753  153.0204 H   0  0  0  0  0  0  0  0  0  0  0  0
  1  2  1  0  0  0  0
  1 22  1  0  0  0  0
  1 23  1  0  0  0  0
  1 24  1  0  0  0  0
  2 21  1  0  0  0  0
  2  3  1  0  0  0  0
  2 25  1  0  0  0  0
  3  4  1  0  0  0  0
  3 26  1  0  0  0  0
  3 27  1  0  0  0  0
  4  5  1  0  0  0  0
  4 18  1  0  0  0  0
  4 46  1  0  0  0  0
  5  6  1  0  0  0  0
  5 28  1  0  0  0  0
  5 29  1  0  0  0  0
  6  7  1  0  0  0  0
  6 30  1  0  0  0  0
  6 31  1  0  0  0  0
  7  8  1  0  0  0  0
  7 32  1  0  0  0  0
  7 33  1  0  0  0  0
  8  9  1  0  0  0  0
  8 34  1  0  0  0  0
  9 10  2  0  0  0  0
  9 11  1  0  0  0  0
 11 12  1  0  0  0  0
 11 35  1  0  0  0  0
 12 17  1  0  0  0  0
 12 13  2  0  0  0  0
 13 14  1  0  0  0  0
 13 36  1  0  0  0  0
 14 15  2  0  0  0  0
 14 37  1  0  0  0  0
 15 16  1  0  0  0  0
 15 38  1  0  0  0  0
 16 17  2  0  0  0  0
 16 39  1  0  0  0  0
 18 19  1  0  0  0  0
 18 40  1  0  0  0  0
 18 41  1  0  0  0  0
 19 20  1  0  0  0  0
 19 21  1  0  0  0  0
 19 42  1  0  0  0  0
 20 43  1  0  0  0  0
 20 44  1  0  0  0  0
 20 45  1  0  0  0  0
M  CHG  1   4   1
M  END
> <s_m_source_file>
AV-unprocessed.smi

> <i_m_source_file_index>
1692

> <i_lp_mmshare_version>
43012

> <i_f3d_flags>
0

> <s_epik_input>
W0NIM11bQ0BASF0xW0NIMl1OKFtDSDJdW0NASF0oTzEpW0NIM10pW0NIMl1bQ0gyXVtDSDJdW05IXUMoPU8pW05IXWMyW2NIXVtjSF1bY0hdW2NIXW4y

> <s_epik_cmdline>
J2VwaWtfcHl0aG9uJywgJy1waCcsICc3LjAnLCAnLXRuJywgJzgnLCAnLW1hJywgJzIwMCcsICctbWV0YWxfYmluZGluZycsICctaW1hZScsICc8aW5maWxlLm1hZT4nLCAnLW9tYWUnLCAnPG91dGZpbGUubWFlPic=

> <r_epik_Ionization_Penalty>
0.270538

> <r_epik_Ionization_Penalty_Charging>
0.270496

> <r_epik_Ionization_Penalty_Neutral>
4.22978e-05

> <r_epik_State_Penalty>
0.262618

> <r_epik_Charging_Adjusted_Penalty>
0.533114

> <i_epik_Tot_Q>
1

> <i_epik_Tot_abs_Q>
1

> <r_epik_Metal_State_Penalty>
0.262618

> <b_epik_Metal_Only>
0

> <s_lp_Force_Field>
OPLS_2005

> <r_lp_Energy>
18.3

> <b_lp_Chiralities_Consistent>
1

> <s_lp_Variant>
AV-unprocessed.smi:1692-3

> <Gold.Version>
5.8.1

> <Gold.Id.Protein>
6NUR|6NUR_protein|mol2

> <Gold.PLP.Fitness>
46.5089

> <Gold.PLP.PLP>
-35.0977

> <Gold.PLP.part.hbond>
-3.0000

> <Gold.PLP.part.metal>
0.0000

> <Gold.PLP.part.buried>
-3.0622

> <Gold.PLP.part.nonpolar>
-29.9594

> <Gold.PLP.part.repulsive>
0.3042

> <Gold.PLP.ligand.clash>
0.0000

> <Gold.PLP.ligand.torsion>
0.2380

> <Gold.PLP.Chemscore.Hbond>
3.9440

> <Gold.PLP.Chemscore.CHOScore>
0.0000

> <Gold.PLP.Chemscore.Metal>
0.0000

> <Gold.Chemscore.Hbonds>
donor molecule, donor type, donor heavy atom, donor atom, acceptor molecule, acceptor atom, score
      L1  H     4    46       P1 10175  2.00
      L1  H     8    34       P1  8028  0.91
      L1  H    11    35       P1  8028  1.00

> <Gold.PLP.Chemscore.Internal.Correction>
0.0551

> <Gold.Rescore>
     Score         DG    S(hbond)    S(metal)    S(lipo)     H(rot)  DE(clash)    DE(int)     intcor
     18.97     -20.55       2.92        0.00      84.29       1.78       0.06       1.52       ----

> <Gold.Chemscore.Fitness>
18.9693

> <Gold.Chemscore.DG>
-20.5473

> <Gold.Chemscore.ZeroCoef>
-5.4800

> <Gold.Chemscore.Hbond>
2.9237

> <Gold.Chemscore.Metal>
0.0000

> <Gold.Chemscore.Lipo>
84.2932

> <Gold.Chemscore.Internal_Hbond>
0.0000

> <Gold.Chemscore.DEClash>
0.0552

> <Gold.Chemscore.DEInternal>
1.5228

> <Gold.Chemscore.Rot>
1.7814

> <Gold.Chemscore.Internal.Correction>
   9.000000E+99

> <Gold.Chemscore.Hbonds>
donor molecule, donor type, donor heavy atom, donor atom, acceptor molecule, acceptor atom, score
      L1  H     4    46       P1 10175  1.00
      L1  H     8    34       P1  8028  0.84
      L1  H    11    35       P1  8028  1.00

> <Gold.Chemscore.Hbond.Weighted>
-9.7653

> <Gold.Chemscore.Metal.Weighted>
-0.0000

> <Gold.Chemscore.Lipo.Weighted>
-9.8623

> <Gold.Chemscore.Internal_Hbond.Weighted>
0.0000

> <Gold.Chemscore.DEClash.Weighted>
0.0552

> <Gold.Chemscore.DEInternal.Weighted>
1.5228

> <Gold.Chemscore.Rot.Weighted>
4.5603

> <Gold.Chemscore.Internal.Correction.Weighted>
   9.000000E+99

> <Gold.Protein.RotatedTorsions>
[ 6907 6896 6895 6894 ] final  -50.67 input  -60.11 | X-H torsion
[ 7974 7965 7964 7962 ] final   99.64 input  175.53 | X-H torsion
[ 8008 7997 7996 7995 ] final   43.11 input   59.86 | X-H torsion
[ 10167 10162 10161 10158 ] final   -8.87 input  -65.29 | X-H torsion
[ 10718 10713 10712 10709 ] final  -98.04 input   66.30 | X-H torsion
[ 10763 10752 10751 10750 ] final    5.75 input  -60.55 | X-H torsion
[ 11005 11000 10999 10996 ] final -166.68 input  -57.11 | X-H torsion

> <Gold.Protein.ActiveResidues>
 VAL166  LYS551  ARG553  GLY616  TRP617  ASP618  TYR619  PRO620  LYS621  CYS622 
 ASP623  PHE694  ASN695  SER759  ASP760  ASP761  ALA762  ILE779  LEU786  VAL792 
 PHE793  MET794  SER795  GLU796  ALA797  LYS798  CYS799  TRP800  GLU811  SER814 

> <Gold.Protein.RotatedAtoms>
  150.8685  134.8054  159.7136 H   0  0  0  0  0  0  0  0  0  0  0  0  # atno 6907 bound_to 6896
  152.4698  134.4985  159.9727 H   0  0  0  0  0  0  0  0  0  0  0  0  # atno 6908 bound_to 6896
  151.5077  133.3453  159.2915 H   0  0  0  0  0  0  0  0  0  0  0  0  # atno 6909 bound_to 6896
  145.3961  139.2355  143.3325 H   0  0  0  0  0  0  0  0  0  0  0  0  # atno 7974 bound_to 7965
  155.2972  140.3382  155.4249 H   0  0  0  0  0  0  0  0  0  0  0  0  # atno 8008 bound_to 7997
  156.2018  140.1736  156.7923 H   0  0  0  0  0  0  0  0  0  0  0  0  # atno 8009 bound_to 7997
  154.5569  140.0695  156.8741 H   0  0  0  0  0  0  0  0  0  0  0  0  # atno 8010 bound_to 7997
  140.7071  143.5920  150.8884 H   0  0  0  0  0  0  0  0  0  0  0  0  # atno 10167 bound_to 10162
  156.0098  130.5220  150.6464 H   0  0  0  0  0  0  0  0  0  0  0  0  # atno 10718 bound_to 10713
  153.2557  135.6918  153.7631 H   0  0  0  0  0  0  0  0  0  0  0  0  # atno 10763 bound_to 10752
  153.6709  135.3344  155.3154 H   0  0  0  0  0  0  0  0  0  0  0  0  # atno 10764 bound_to 10752
  154.8411  135.4499  154.1530 H   0  0  0  0  0  0  0  0  0  0  0  0  # atno 10765 bound_to 10752
  140.5617  134.5326  157.5144 H   0  0  0  0  0  0  0  0  0  0  0  0  # atno 11005 bound_to 11000
  146.2774  140.4652  142.8790 LP  0  0  0  0  0  0  0  0  0  0  0  0  # atno 17320 bound_to 7965
  144.8406  140.6851  143.6232 LP  0  0  0  0  0  0  0  0  0  0  0  0  # atno 17321 bound_to 7965
  139.9646  143.6125  152.2992 LP  0  0  0  0  0  0  0  0  0  0  0  0  # atno 17342 bound_to 10162
  139.6690  144.7661  151.1818 LP  0  0  0  0  0  0  0  0  0  0  0  0  # atno 17343 bound_to 10162
  157.4234  131.0840  151.1109 LP  0  0  0  0  0  0  0  0  0  0  0  0  # atno 17370 bound_to 10713
  157.1704  130.6265  149.5639 LP  0  0  0  0  0  0  0  0  0  0  0  0  # atno 17371 bound_to 10713
  139.9404  134.7797  156.0692 LP  0  0  0  0  0  0  0  0  0  0  0  0  # atno 17394 bound_to 11000
  141.1110  133.6643  156.2979 LP  0  0  0  0  0  0  0  0  0  0  0  0  # atno 17395 bound_to 11000

$$$$
