AV-unprocessed.smi:2228|AV-procd|sdf|9026|dock3
  -GOLD-   2272012233D 1   1.00000     0.00000
 Structure written by MMmdl.
 40 41  0  0  0  0  0  0  0  0  1 V2000
  146.7888  139.8541  152.8460 C   0  0  0  0  0  0  0  0  0  0  0  0
  146.7194  140.3643  154.1686 O   0  0  0  0  0  0  0  0  0  0  0  0
  147.8705  140.0780  154.9511 C   0  0  1  0  0  0  0  0  0  0  0  0
  148.1044  138.5653  154.9854 C   0  0  0  0  0  0  0  0  0  0  0  0
  149.6067  138.4211  155.2016 C   0  0  0  0  0  0  0  0  0  0  0  0
  150.2088  139.5467  154.3603 C   0  0  0  0  0  0  0  0  0  0  0  0
  149.1671  140.6822  154.3650 C   0  0  2  0  0  0  0  0  0  0  0  0
  149.6237  141.8029  155.1833 N   0  0  0  0  0  0  0  0  0  0  0  0
  150.2859  141.6954  156.3438 C   0  0  0  0  0  0  0  0  0  0  0  0
  150.5637  140.6179  156.8710 O   0  0  0  0  0  0  0  0  0  0  0  0
  150.5994  142.9069  156.8357 N   0  0  0  0  0  0  0  0  0  0  0  0
  151.3234  143.2137  158.0182 C   0  0  0  0  0  0  0  0  0  0  0  0
  152.1278  142.1644  158.5166 C   0  0  0  0  0  0  0  0  0  0  0  0
  152.8844  142.3656  159.6885 C   0  0  0  0  0  0  0  0  0  0  0  0
  153.7524  141.2540  160.2400 C   0  0  0  0  0  0  0  0  0  0  0  0
  152.8166  143.6168  160.3306 C   0  0  0  0  0  0  0  0  0  0  0  0
  151.9913  144.6095  159.7671 C   0  0  0  0  0  0  0  0  0  0  0  0
  151.8743  145.9789  160.4027 C   0  0  0  0  0  0  0  0  0  0  0  0
  151.2664  144.4150  158.6449 N   0  0  0  0  0  0  0  0  0  0  0  0
  145.8914  140.1412  152.2981 H   0  0  0  0  0  0  0  0  0  0  0  0
  146.8493  138.7653  152.8356 H   0  0  0  0  0  0  0  0  0  0  0  0
  147.6507  140.2559  152.3122 H   0  0  0  0  0  0  0  0  0  0  0  0
  147.7173  140.4138  155.9792 H   0  0  0  0  0  0  0  0  0  0  0  0
  147.5158  138.0662  155.7557 H   0  0  0  0  0  0  0  0  0  0  0  0
  147.8360  138.1242  154.0241 H   0  0  0  0  0  0  0  0  0  0  0  0
  149.8438  138.5782  156.2546 H   0  0  0  0  0  0  0  0  0  0  0  0
  149.9806  137.4373  154.9170 H   0  0  0  0  0  0  0  0  0  0  0  0
  151.1890  139.8538  154.7282 H   0  0  0  0  0  0  0  0  0  0  0  0
  150.3485  139.1945  153.3373 H   0  0  0  0  0  0  0  0  0  0  0  0
  148.9925  141.0031  153.3362 H   0  0  0  0  0  0  0  0  0  0  0  0
  149.4341  142.7285  154.8279 H   0  0  0  0  0  0  0  0  0  0  0  0
  150.3003  143.7025  156.2919 H   0  0  0  0  0  0  0  0  0  0  0  0
  152.1651  141.2118  158.0077 H   0  0  0  0  0  0  0  0  0  0  0  0
  154.2168  141.5437  161.1830 H   0  0  0  0  0  0  0  0  0  0  0  0
  154.5435  141.0066  159.5320 H   0  0  0  0  0  0  0  0  0  0  0  0
  153.1554  140.3588  160.4154 H   0  0  0  0  0  0  0  0  0  0  0  0
  153.3825  143.8107  161.2302 H   0  0  0  0  0  0  0  0  0  0  0  0
  152.3923  146.0149  161.3614 H   0  0  0  0  0  0  0  0  0  0  0  0
  150.8276  146.2326  160.5733 H   0  0  0  0  0  0  0  0  0  0  0  0
  152.3101  146.7361  159.7503 H   0  0  0  0  0  0  0  0  0  0  0  0
  1  2  1  0  0  0  0
  1 20  1  0  0  0  0
  1 21  1  0  0  0  0
  1 22  1  0  0  0  0
  2  3  1  0  0  0  0
  3  7  1  0  0  0  0
  3  4  1  0  0  0  0
  3 23  1  0  0  0  0
  4  5  1  0  0  0  0
  4 24  1  0  0  0  0
  4 25  1  0  0  0  0
  5  6  1  0  0  0  0
  5 26  1  0  0  0  0
  5 27  1  0  0  0  0
  6  7  1  0  0  0  0
  6 28  1  0  0  0  0
  6 29  1  0  0  0  0
  7  8  1  0  0  0  0
  7 30  1  0  0  0  0
  8  9  1  0  0  0  0
  8 31  1  0  0  0  0
  9 10  2  0  0  0  0
  9 11  1  0  0  0  0
 11 12  1  0  0  0  0
 11 32  1  0  0  0  0
 12 19  1  0  0  0  0
 12 13  2  0  0  0  0
 13 14  1  0  0  0  0
 13 33  1  0  0  0  0
 14 15  1  0  0  0  0
 14 16  2  0  0  0  0
 15 34  1  0  0  0  0
 15 35  1  0  0  0  0
 15 36  1  0  0  0  0
 16 17  1  0  0  0  0
 16 37  1  0  0  0  0
 17 18  1  0  0  0  0
 17 19  2  0  0  0  0
 18 38  1  0  0  0  0
 18 39  1  0  0  0  0
 18 40  1  0  0  0  0
M  END
> <s_m_source_file>
AV-unprocessed.smi

> <i_m_source_file_index>
2228

> <i_lp_mmshare_version>
43012

> <i_f3d_flags>
0

> <s_epik_input>
W0NIM11PW0NAQEhdMVtDSDJdW0NIMl1bQ0gyXVtDQEhdMVtOSF1DKD1PKVtOSF1jMltjSF1jKFtDSDNdKVtjSF1jKG4yKVtDSDNd

> <s_epik_cmdline>
J2VwaWtfcHl0aG9uJywgJy1waCcsICc3LjAnLCAnLXRuJywgJzgnLCAnLW1hJywgJzIwMCcsICctbWV0YWxfYmluZGluZycsICctaW1hZScsICc8aW5maWxlLm1hZT4nLCAnLW9tYWUnLCAnPG91dGZpbGUubWFlPic=

> <r_lp_tautomer_probability>
1

> <r_epik_Ionization_Penalty>
0.000275391

> <r_epik_Ionization_Penalty_Charging>
0

> <r_epik_Ionization_Penalty_Neutral>
0.000275391

> <r_epik_State_Penalty>
-0

> <r_epik_Charging_Adjusted_Penalty>
0

> <i_epik_Tot_Q>
0

> <i_epik_Tot_abs_Q>
0

> <r_epik_Metal_State_Penalty>
-0

> <b_epik_Metal_Only>
0

> <s_lp_Force_Field>
OPLS_2005

> <r_lp_Energy>
19.8708

> <b_lp_Chiralities_Consistent>
1

> <s_lp_Variant>
AV-unprocessed.smi:2228-4

> <Gold.Version>
5.8.1

> <Gold.Id.Protein>
6NUR|6NUR_protein|mol2

> <Gold.PLP.Fitness>
40.2963

> <Gold.PLP.PLP>
-37.1552

> <Gold.PLP.part.hbond>
-1.9819

> <Gold.PLP.part.metal>
0.0000

> <Gold.PLP.part.buried>
-3.1822

> <Gold.PLP.part.nonpolar>
-33.5889

> <Gold.PLP.part.repulsive>
0.4943

> <Gold.PLP.ligand.clash>
0.1102

> <Gold.PLP.ligand.torsion>
0.3742

> <Gold.PLP.Chemscore.Hbond>
1.3313

> <Gold.PLP.Chemscore.CHOScore>
0.0000

> <Gold.PLP.Chemscore.Metal>
0.0000

> <Gold.Chemscore.Hbonds>
donor molecule, donor type, donor heavy atom, donor atom, acceptor molecule, acceptor atom, score
      L1  H     8    31       P1  8028  0.41
      L1  H    11    32       P1  8028  0.96

> <Gold.PLP.Chemscore.Internal.Correction>
0.0060

> <Gold.Rescore>
     Score         DG    S(hbond)    S(metal)    S(lipo)     H(rot)  DE(clash)    DE(int)     intcor
     14.85     -19.66       1.69        0.00      99.54       1.21       0.32       4.49       ----

> <Gold.Chemscore.Fitness>
14.8536

> <Gold.Chemscore.DG>
-19.6557

> <Gold.Chemscore.ZeroCoef>
-5.4800

> <Gold.Chemscore.Hbond>
1.6863

> <Gold.Chemscore.Metal>
0.0000

> <Gold.Chemscore.Lipo>
99.5397

> <Gold.Chemscore.Internal_Hbond>
0.0000

> <Gold.Chemscore.DEClash>
0.3152

> <Gold.Chemscore.DEInternal>
4.4869

> <Gold.Chemscore.Rot>
1.2119

> <Gold.Chemscore.Internal.Correction>
   9.000000E+99

> <Gold.Chemscore.Hbonds>
donor molecule, donor type, donor heavy atom, donor atom, acceptor molecule, acceptor atom, score
      L1  H     8    31       P1  8028  0.41
      L1  H    11    32       P1  8028  0.92

> <Gold.Chemscore.Hbond.Weighted>
-5.6322

> <Gold.Chemscore.Metal.Weighted>
-0.0000

> <Gold.Chemscore.Lipo.Weighted>
-11.6461

> <Gold.Chemscore.Internal_Hbond.Weighted>
0.0000

> <Gold.Chemscore.DEClash.Weighted>
0.3152

> <Gold.Chemscore.DEInternal.Weighted>
4.4869

> <Gold.Chemscore.Rot.Weighted>
3.1026

> <Gold.Chemscore.Internal.Correction.Weighted>
   9.000000E+99

> <Gold.Protein.RotatedTorsions>
[ 6907 6896 6895 6894 ] final  -41.44 input  -60.11 | X-H torsion
[ 7974 7965 7964 7962 ] final  -63.43 input  175.53 | X-H torsion
[ 8008 7997 7996 7995 ] final  -25.90 input   59.86 | X-H torsion
[ 10167 10162 10161 10158 ] final -119.54 input  -65.29 | X-H torsion
[ 10718 10713 10712 10709 ] final -108.64 input   66.30 | X-H torsion
[ 10763 10752 10751 10750 ] final  -66.51 input  -60.55 | X-H torsion
[ 11005 11000 10999 10996 ] final   -5.45 input  -57.11 | X-H torsion

> <Gold.Protein.ActiveResidues>
 VAL166  LYS551  ARG553  GLY616  TRP617  ASP618  TYR619  PRO620  LYS621  CYS622 
 ASP623  PHE694  ASN695  SER759  ASP760  ASP761  ALA762  ILE779  LEU786  VAL792 
 PHE793  MET794  SER795  GLU796  ALA797  LYS798  CYS799  TRP800  GLU811  SER814 

> <Gold.Protein.RotatedAtoms>
  150.9668  134.9047  159.7763 H   0  0  0  0  0  0  0  0  0  0  0  0  # atno 6907 bound_to 6896
  152.5176  134.3597  159.9290 H   0  0  0  0  0  0  0  0  0  0  0  0  # atno 6908 bound_to 6896
  151.3607  133.3850  159.2724 H   0  0  0  0  0  0  0  0  0  0  0  0  # atno 6909 bound_to 6896
  145.7791  140.8772  143.0340 H   0  0  0  0  0  0  0  0  0  0  0  0  # atno 7974 bound_to 7965
  154.4452  140.1914  156.0691 H   0  0  0  0  0  0  0  0  0  0  0  0  # atno 8008 bound_to 7997
  156.0524  140.3307  155.7340 H   0  0  0  0  0  0  0  0  0  0  0  0  # atno 8009 bound_to 7997
  155.5536  140.0597  157.2835 H   0  0  0  0  0  0  0  0  0  0  0  0  # atno 8010 bound_to 7997
  140.0455  143.5111  152.2108 H   0  0  0  0  0  0  0  0  0  0  0  0  # atno 10167 bound_to 10162
  156.0496  130.5723  150.7989 H   0  0  0  0  0  0  0  0  0  0  0  0  # atno 10718 bound_to 10713
  154.3609  135.6116  153.5690 H   0  0  0  0  0  0  0  0  0  0  0  0  # atno 10763 bound_to 10752
  152.9793  135.5815  154.4634 H   0  0  0  0  0  0  0  0  0  0  0  0  # atno 10764 bound_to 10752
  154.4372  135.2849  155.1850 H   0  0  0  0  0  0  0  0  0  0  0  0  # atno 10765 bound_to 10752
  140.6913  133.9069  155.8620 H   0  0  0  0  0  0  0  0  0  0  0  0  # atno 11005 bound_to 11000
  144.6799  139.9963  143.7484 LP  0  0  0  0  0  0  0  0  0  0  0  0  # atno 17320 bound_to 7965
  146.0092  139.3156  143.0880 LP  0  0  0  0  0  0  0  0  0  0  0  0  # atno 17321 bound_to 7965
  139.5986  144.7575  151.3226 LP  0  0  0  0  0  0  0  0  0  0  0  0  # atno 17342 bound_to 10162
  140.7240  143.7055  150.7811 LP  0  0  0  0  0  0  0  0  0  0  0  0  # atno 17343 bound_to 10162
  157.5408  131.0940  150.9830 LP  0  0  0  0  0  0  0  0  0  0  0  0  # atno 17370 bound_to 10713
  157.0113  130.5638  149.5321 LP  0  0  0  0  0  0  0  0  0  0  0  0  # atno 17371 bound_to 10713
  141.0239  134.0850  157.4090 LP  0  0  0  0  0  0  0  0  0  0  0  0  # atno 17394 bound_to 11000
  139.8923  135.0123  156.6837 LP  0  0  0  0  0  0  0  0  0  0  0  0  # atno 17395 bound_to 11000

$$$$
