AV-unprocessed.smi:1600|AV-procd|sdf|6429|dock8
  -GOLD-   22720 7 73D 1   1.00000     0.00000
 Structure written by MMmdl.
 46 47  0  0  0  0  0  0  0  0  2 V2000
  149.9805  141.7378  156.0903 C   0  0  0  0  0  0  0  0  0  0  0  0
  150.2639  140.3701  155.5424 C   0  0  0  0  0  0  0  0  0  0  0  0
  149.3298  139.3420  155.2233 C   0  0  0  0  0  0  0  0  0  0  0  0
  150.1355  138.3334  154.7698 C   0  0  0  0  0  0  0  0  0  0  0  0
  149.7884  137.0953  154.3272 N   0  0  0  0  0  0  0  0  0  0  0  0
  149.7996  135.9303  154.9983 C   0  0  0  0  0  0  0  0  0  0  0  0
  150.1476  135.7828  156.1700 O   0  0  0  0  0  0  0  0  0  0  0  0
  149.3760  134.9203  154.2247 N   0  0  0  0  0  0  0  0  0  0  0  0
  149.2460  133.5329  154.6583 C   0  0  0  0  0  0  0  0  0  0  0  0
  148.7211  132.6167  153.5360 C   0  0  2  0  0  0  0  0  0  0  0  0
  147.2651  132.8557  153.1388 C   0  0  0  0  0  0  0  0  0  0  0  0
  146.7936  131.5145  152.5597 C   0  0  0  0  0  0  0  0  0  0  0  0
  147.8168  130.4985  152.9157 N   0  3  2  0  0  0  0  0  0  0  0  0
  147.2786  129.1637  153.3028 C   0  0  0  0  0  0  0  0  0  0  0  0
  148.4042  128.1322  153.5114 C   0  0  0  0  0  0  0  0  0  0  0  0
  146.2887  128.6372  152.2461 C   0  0  0  0  0  0  0  0  0  0  0  0
  148.7200  131.1340  153.8997 C   0  0  0  0  0  0  0  0  0  0  0  0
  151.4466  138.7518  154.8260 N   0  0  0  0  0  0  0  0  0  0  0  0
  152.6576  138.0436  154.4596 C   0  0  0  0  0  0  0  0  0  0  0  0
  151.5210  140.0123  155.3053 N   0  0  0  0  0  0  0  0  0  0  0  0
  148.9088  141.9023  156.2043 H   0  0  0  0  0  0  0  0  0  0  0  0
  150.3663  142.5139  155.4288 H   0  0  0  0  0  0  0  0  0  0  0  0
  150.4423  141.8720  157.0689 H   0  0  0  0  0  0  0  0  0  0  0  0
  148.2549  139.3631  155.3200 H   0  0  0  0  0  0  0  0  0  0  0  0
  149.4654  137.0566  153.3718 H   0  0  0  0  0  0  0  0  0  0  0  0
  149.1083  135.1283  153.2736 H   0  0  0  0  0  0  0  0  0  0  0  0
  150.2083  133.1696  155.0227 H   0  0  0  0  0  0  0  0  0  0  0  0
  148.5670  133.5090  155.5111 H   0  0  0  0  0  0  0  0  0  0  0  0
  149.3426  132.7412  152.6474 H   0  0  0  0  0  0  0  0  0  0  0  0
  146.6712  133.0993  154.0211 H   0  0  0  0  0  0  0  0  0  0  0  0
  147.1563  133.6778  152.4305 H   0  0  0  0  0  0  0  0  0  0  0  0
  145.8122  131.2646  152.9655 H   0  0  0  0  0  0  0  0  0  0  0  0
  146.7023  131.5619  151.4742 H   0  0  0  0  0  0  0  0  0  0  0  0
  146.7446  129.2748  154.2481 H   0  0  0  0  0  0  0  0  0  0  0  0
  147.9936  127.1496  153.7463 H   0  0  0  0  0  0  0  0  0  0  0  0
  149.0603  128.4030  154.3388 H   0  0  0  0  0  0  0  0  0  0  0  0
  149.0180  128.0271  152.6159 H   0  0  0  0  0  0  0  0  0  0  0  0
  145.9100  127.6527  152.5227 H   0  0  0  0  0  0  0  0  0  0  0  0
  146.7651  128.5436  151.2695 H   0  0  0  0  0  0  0  0  0  0  0  0
  145.4221  129.2881  152.1322 H   0  0  0  0  0  0  0  0  0  0  0  0
  149.7223  130.7056  153.8660 H   0  0  0  0  0  0  0  0  0  0  0  0
  148.3222  130.9943  154.9067 H   0  0  0  0  0  0  0  0  0  0  0  0
  152.5380  137.5959  153.4726 H   0  0  0  0  0  0  0  0  0  0  0  0
  152.8557  137.2570  155.1884 H   0  0  0  0  0  0  0  0  0  0  0  0
  153.5082  138.7265  154.4334 H   0  0  0  0  0  0  0  0  0  0  0  0
  148.3732  130.3624  152.0836 H   0  0  0  0  0  0  0  0  0  0  0  0
  1  2  1  0  0  0  0
  1 21  1  0  0  0  0
  1 22  1  0  0  0  0
  1 23  1  0  0  0  0
  2 20  2  0  0  0  0
  2  3  1  0  0  0  0
  3  4  2  0  0  0  0
  3 24  1  0  0  0  0
  4  5  1  0  0  0  0
  4 18  1  0  0  0  0
  5  6  1  0  0  0  0
  5 25  1  0  0  0  0
  6  7  2  0  0  0  0
  6  8  1  0  0  0  0
  8  9  1  0  0  0  0
  8 26  1  0  0  0  0
  9 10  1  0  0  0  0
  9 27  1  0  0  0  0
  9 28  1  0  0  0  0
 10 17  1  0  0  0  0
 10 11  1  0  0  0  0
 10 29  1  0  0  0  0
 11 12  1  0  0  0  0
 11 30  1  0  0  0  0
 11 31  1  0  0  0  0
 12 13  1  0  0  0  0
 12 32  1  0  0  0  0
 12 33  1  0  0  0  0
 13 14  1  0  0  0  0
 13 17  1  0  0  0  0
 13 46  1  0  0  0  0
 14 15  1  0  0  0  0
 14 16  1  0  0  0  0
 14 34  1  0  0  0  0
 15 35  1  0  0  0  0
 15 36  1  0  0  0  0
 15 37  1  0  0  0  0
 16 38  1  0  0  0  0
 16 39  1  0  0  0  0
 16 40  1  0  0  0  0
 17 41  1  0  0  0  0
 17 42  1  0  0  0  0
 18 19  1  0  0  0  0
 18 20  1  0  0  0  0
 19 43  1  0  0  0  0
 19 44  1  0  0  0  0
 19 45  1  0  0  0  0
M  CHG  1  13   1
M  END
> <s_m_source_file>
AV-unprocessed.smi

> <i_m_source_file_index>
1600

> <i_lp_mmshare_version>
43012

> <i_f3d_flags>
0

> <s_epik_input>
W0NIM11jMVtjSF1jKG4objEpW0NIM10pW05IXUMoPU8pW05IXVtDSDJdW0NAQEhdMltDSDJdW0NIMl1OKFtDSDJdMilbQ0hdKFtDSDNdKVtDSDNd

> <s_epik_cmdline>
J2VwaWtfcHl0aG9uJywgJy1waCcsICc3LjAnLCAnLXRuJywgJzgnLCAnLW1hJywgJzIwMCcsICctbWV0YWxfYmluZGluZycsICctaW1hZScsICc8aW5maWxlLm1hZT4nLCAnLW9tYWUnLCAnPG91dGZpbGUubWFlPic=

> <r_lp_tautomer_probability>
1

> <r_epik_Ionization_Penalty>
0.000297652

> <r_epik_Ionization_Penalty_Charging>
0.000213653

> <r_epik_Ionization_Penalty_Neutral>
8.3999e-05

> <r_epik_State_Penalty>
-0

> <r_epik_Charging_Adjusted_Penalty>
0.000213653

> <i_epik_Tot_Q>
1

> <i_epik_Tot_abs_Q>
1

> <r_epik_Metal_State_Penalty>
-0

> <b_epik_Metal_Only>
0

> <s_lp_Force_Field>
OPLS_2005

> <r_lp_Energy>
32.0246

> <b_lp_Chiralities_Consistent>
1

> <s_lp_Variant>
AV-unprocessed.smi:1600-3

> <Gold.Version>
5.8.1

> <Gold.Id.Protein>
6NUR|6NUR_protein|mol2

> <Gold.PLP.Fitness>
44.8362

> <Gold.PLP.PLP>
-35.6651

> <Gold.PLP.part.hbond>
-4.1867

> <Gold.PLP.part.metal>
0.0000

> <Gold.PLP.part.buried>
-2.7662

> <Gold.PLP.part.nonpolar>
-29.7572

> <Gold.PLP.part.repulsive>
0.1313

> <Gold.PLP.ligand.clash>
0.0000

> <Gold.PLP.ligand.torsion>
0.7982

> <Gold.PLP.Chemscore.Hbond>
3.5800

> <Gold.PLP.Chemscore.CHOScore>
0.0000

> <Gold.PLP.Chemscore.Metal>
0.0000

> <Gold.Chemscore.Hbonds>
donor molecule, donor type, donor heavy atom, donor atom, acceptor molecule, acceptor atom, score
      L1  H     5    25       P1  7948  1.00
      L1  H     8    26       P1  7948  0.95
      L1  H    13    46       P1 10747  1.00
      P1  H  7989  7998       L1    20  0.60

> <Gold.PLP.Chemscore.Internal.Correction>
0.0274

> <Gold.Rescore>
     Score         DG    S(hbond)    S(metal)    S(lipo)     H(rot)  DE(clash)    DE(int)     intcor
     18.29     -19.11       2.49        0.00      76.95       1.44       0.04       0.78       ----

> <Gold.Chemscore.Fitness>
18.2857

> <Gold.Chemscore.DG>
-19.1094

> <Gold.Chemscore.ZeroCoef>
-5.4800

> <Gold.Chemscore.Hbond>
2.4865

> <Gold.Chemscore.Metal>
0.0000

> <Gold.Chemscore.Lipo>
76.9493

> <Gold.Chemscore.Internal_Hbond>
0.0000

> <Gold.Chemscore.DEClash>
0.0410

> <Gold.Chemscore.DEInternal>
0.7827

> <Gold.Chemscore.Rot>
1.4369

> <Gold.Chemscore.Internal.Correction>
   9.000000E+99

> <Gold.Chemscore.Hbonds>
donor molecule, donor type, donor heavy atom, donor atom, acceptor molecule, acceptor atom, score
      L1  H     5    25       P1  7948  0.86
      L1  H     8    26       P1  7948  0.21
      L1  H    13    46       P1 10747  0.83
      P1  H  7989  7998       L1    20  0.01

> <Gold.Chemscore.Hbond.Weighted>
-8.3048

> <Gold.Chemscore.Metal.Weighted>
-0.0000

> <Gold.Chemscore.Lipo.Weighted>
-9.0031

> <Gold.Chemscore.Internal_Hbond.Weighted>
0.0000

> <Gold.Chemscore.DEClash.Weighted>
0.0410

> <Gold.Chemscore.DEInternal.Weighted>
0.7827

> <Gold.Chemscore.Rot.Weighted>
3.6785

> <Gold.Chemscore.Internal.Correction.Weighted>
   9.000000E+99

> <Gold.Protein.RotatedTorsions>
[ 6907 6896 6895 6894 ] final  123.64 input  -60.11 | X-H torsion
[ 7974 7965 7964 7962 ] final   82.19 input  175.53 | X-H torsion
[ 8008 7997 7996 7995 ] final   62.03 input   59.86 | X-H torsion
[ 10167 10162 10161 10158 ] final  130.65 input  -65.29 | X-H torsion
[ 10718 10713 10712 10709 ] final  -46.27 input   66.30 | X-H torsion
[ 10763 10752 10751 10750 ] final   65.09 input  -60.55 | X-H torsion
[ 11005 11000 10999 10996 ] final   67.44 input  -57.11 | X-H torsion

> <Gold.Protein.ActiveResidues>
 VAL166  LYS551  ARG553  GLY616  TRP617  ASP618  TYR619  PRO620  LYS621  CYS622 
 ASP623  PHE694  ASN695  SER759  ASP760  ASP761  ALA762  ILE779  LEU786  VAL792 
 PHE793  MET794  SER795  GLU796  ALA797  LYS798  CYS799  TRP800  GLU811  SER814 

> <Gold.Protein.RotatedAtoms>
  152.4145  133.7016  159.6426 H   0  0  0  0  0  0  0  0  0  0  0  0  # atno 6907 bound_to 6896
  150.8023  133.8565  159.3228 H   0  0  0  0  0  0  0  0  0  0  0  0  # atno 6908 bound_to 6896
  151.6299  135.1026  160.0171 H   0  0  0  0  0  0  0  0  0  0  0  0  # atno 6909 bound_to 6896
  145.6283  139.2399  143.2099 H   0  0  0  0  0  0  0  0  0  0  0  0  # atno 7974 bound_to 7965
  155.6078  140.3494  155.4613 H   0  0  0  0  0  0  0  0  0  0  0  0  # atno 8008 bound_to 7997
  156.0178  140.1247  157.0413 H   0  0  0  0  0  0  0  0  0  0  0  0  # atno 8009 bound_to 7997
  154.4304  140.1068  156.5906 H   0  0  0  0  0  0  0  0  0  0  0  0  # atno 8010 bound_to 7997
  139.5420  144.6739  151.4593 H   0  0  0  0  0  0  0  0  0  0  0  0  # atno 10167 bound_to 10162
  156.2199  130.4165  149.9006 H   0  0  0  0  0  0  0  0  0  0  0  0  # atno 10718 bound_to 10713
  153.0082  135.5369  154.6613 H   0  0  0  0  0  0  0  0  0  0  0  0  # atno 10763 bound_to 10752
  154.5821  135.2851  155.0724 H   0  0  0  0  0  0  0  0  0  0  0  0  # atno 10764 bound_to 10752
  154.1850  135.6510  153.5097 H   0  0  0  0  0  0  0  0  0  0  0  0  # atno 10765 bound_to 10752
  139.9770  134.6805  156.0334 H   0  0  0  0  0  0  0  0  0  0  0  0  # atno 11005 bound_to 11000
  146.1376  140.7101  142.9382 LP  0  0  0  0  0  0  0  0  0  0  0  0  # atno 17320 bound_to 7965
  144.7203  140.4352  143.7013 LP  0  0  0  0  0  0  0  0  0  0  0  0  # atno 17321 bound_to 7965
  140.6654  143.8409  150.6936 LP  0  0  0  0  0  0  0  0  0  0  0  0  # atno 17342 bound_to 10162
  140.1817  143.4109  152.1928 LP  0  0  0  0  0  0  0  0  0  0  0  0  # atno 17343 bound_to 10162
  156.6655  130.8799  151.3554 LP  0  0  0  0  0  0  0  0  0  0  0  0  # atno 17370 bound_to 10713
  157.7082  130.9410  150.1001 LP  0  0  0  0  0  0  0  0  0  0  0  0  # atno 17371 bound_to 10713
  141.1446  133.6558  156.3831 LP  0  0  0  0  0  0  0  0  0  0  0  0  # atno 17394 bound_to 11000
  140.5174  134.6337  157.5306 LP  0  0  0  0  0  0  0  0  0  0  0  0  # atno 17395 bound_to 11000

$$$$
