AV-unprocessed.smi:1855|AV-procd|sdf|7531|dock8
  -GOLD-   22720 9243D 1   1.00000     0.00000
 Structure written by MMmdl.
 43 45  0  0  0  0  0  0  0  0  1 V2000
  154.6137  140.7095  160.9728 C   0  0  0  0  0  0  0  0  0  0  0  0
  153.5729  140.9327  160.0338 O   0  0  0  0  0  0  0  0  0  0  0  0
  152.8051  142.0720  160.1632 C   0  0  0  0  0  0  0  0  0  0  0  0
  152.9630  143.0138  161.2113 C   0  0  0  0  0  0  0  0  0  0  0  0
  152.1398  144.1529  161.2766 C   0  0  0  0  0  0  0  0  0  0  0  0
  151.1522  144.3637  160.2990 C   0  0  0  0  0  0  0  0  0  0  0  0
  150.9866  143.4354  159.2553 C   0  0  0  0  0  0  0  0  0  0  0  0
  151.8109  142.2849  159.1811 C   0  0  0  0  0  0  0  0  0  0  0  0
  151.7095  141.3339  158.1895 O   0  0  0  0  0  0  0  0  0  0  0  0
  150.6866  141.4634  157.2128 C   0  0  0  0  0  0  0  0  0  0  0  0
  151.2664  141.0867  155.8420 C   0  0  0  0  0  0  0  0  0  0  0  0
  150.2893  140.4017  155.0060 N   0  0  0  0  0  0  0  0  0  0  0  0
  150.4145  139.2085  154.3716 C   0  0  0  0  0  0  0  0  0  0  0  0
  151.6614  138.3776  154.4628 C   0  0  0  0  0  0  0  0  0  0  0  0
  151.8592  137.9551  155.8459 N   0  0  0  0  0  0  0  0  0  0  0  0
  152.8459  138.3783  156.6490 C   0  0  0  0  0  0  0  0  0  0  0  0
  153.7111  139.1891  156.3227 O   0  0  0  0  0  0  0  0  0  0  0  0
  149.3594  138.8190  153.6552 N   0  0  0  0  0  0  0  0  0  0  0  0
  148.4659  139.8555  153.8407 C   0  0  0  0  0  0  0  0  0  0  0  0
  147.1591  140.0420  153.3360 C   0  0  0  0  0  0  0  0  0  0  0  0
  146.4286  141.2046  153.6583 C   0  0  0  0  0  0  0  0  0  0  0  0
  146.9922  142.1940  154.4894 C   0  0  0  0  0  0  0  0  0  0  0  0
  148.2904  142.0247  155.0076 C   0  0  0  0  0  0  0  0  0  0  0  0
  149.0167  140.8635  154.6813 C   0  0  0  0  0  0  0  0  0  0  0  0
  155.1135  139.7705  160.7358 H   0  0  0  0  0  0  0  0  0  0  0  0
  154.2244  140.6281  161.9883 H   0  0  0  0  0  0  0  0  0  0  0  0
  155.3629  141.5013  160.9334 H   0  0  0  0  0  0  0  0  0  0  0  0
  153.7107  142.8851  161.9789 H   0  0  0  0  0  0  0  0  0  0  0  0
  152.2672  144.8661  162.0776 H   0  0  0  0  0  0  0  0  0  0  0  0
  150.5209  145.2387  160.3485 H   0  0  0  0  0  0  0  0  0  0  0  0
  150.2203  143.6295  158.5205 H   0  0  0  0  0  0  0  0  0  0  0  0
  149.8474  140.8079  157.4506 H   0  0  0  0  0  0  0  0  0  0  0  0
  150.3187  142.4899  157.1863 H   0  0  0  0  0  0  0  0  0  0  0  0
  151.6331  141.9742  155.3275 H   0  0  0  0  0  0  0  0  0  0  0  0
  152.1292  140.4324  155.9702 H   0  0  0  0  0  0  0  0  0  0  0  0
  151.5839  137.5155  153.7979 H   0  0  0  0  0  0  0  0  0  0  0  0
  152.5220  138.9567  154.1284 H   0  0  0  0  0  0  0  0  0  0  0  0
  151.2012  137.2850  156.2162 H   0  0  0  0  0  0  0  0  0  0  0  0
  152.7762  137.9019  157.6391 H   0  0  0  0  0  0  0  0  0  0  0  0
  146.7199  139.2906  152.6965 H   0  0  0  0  0  0  0  0  0  0  0  0
  145.4319  141.3385  153.2643 H   0  0  0  0  0  0  0  0  0  0  0  0
  146.4286  143.0839  154.7281 H   0  0  0  0  0  0  0  0  0  0  0  0
  148.7267  142.7834  155.6401 H   0  0  0  0  0  0  0  0  0  0  0  0
  1  2  1  0  0  0  0
  1 25  1  0  0  0  0
  1 26  1  0  0  0  0
  1 27  1  0  0  0  0
  2  3  1  0  0  0  0
  3  8  1  0  0  0  0
  3  4  2  0  0  0  0
  4  5  1  0  0  0  0
  4 28  1  0  0  0  0
  5  6  2  0  0  0  0
  5 29  1  0  0  0  0
  6  7  1  0  0  0  0
  6 30  1  0  0  0  0
  7  8  2  0  0  0  0
  7 31  1  0  0  0  0
  8  9  1  0  0  0  0
  9 10  1  0  0  0  0
 10 11  1  0  0  0  0
 10 32  1  0  0  0  0
 10 33  1  0  0  0  0
 11 12  1  0  0  0  0
 11 34  1  0  0  0  0
 11 35  1  0  0  0  0
 12 24  1  0  0  0  0
 12 13  1  0  0  0  0
 13 14  1  0  0  0  0
 13 18  2  0  0  0  0
 14 15  1  0  0  0  0
 14 36  1  0  0  0  0
 14 37  1  0  0  0  0
 15 16  1  0  0  0  0
 15 38  1  0  0  0  0
 16 17  2  0  0  0  0
 16 39  1  0  0  0  0
 18 19  1  0  0  0  0
 19 24  2  0  0  0  0
 19 20  1  0  0  0  0
 20 21  2  0  0  0  0
 20 40  1  0  0  0  0
 21 22  1  0  0  0  0
 21 41  1  0  0  0  0
 22 23  2  0  0  0  0
 22 42  1  0  0  0  0
 23 24  1  0  0  0  0
 23 43  1  0  0  0  0
M  END
> <s_m_source_file>
AV-unprocessed.smi

> <i_m_source_file_index>
1855

> <i_lp_mmshare_version>
43012

> <i_f3d_flags>
0

> <s_epik_input>
W0NIM11PYzFbY0hdW2NIXVtjSF1bY0hdYzFPW0NIMl1bQ0gyXW4oYyhuMilbQ0gyXVtOSF1bQ0hdPU8pYyhjMjMpW2NIXVtjSF1bY0hdW2NIXTM=

> <s_epik_cmdline>
J2VwaWtfcHl0aG9uJywgJy1waCcsICc3LjAnLCAnLXRuJywgJzgnLCAnLW1hJywgJzIwMCcsICctbWV0YWxfYmluZGluZycsICctaW1hZScsICc8aW5maWxlLm1hZT4nLCAnLW9tYWUnLCAnPG91dGZpbGUubWFlPic=

> <r_lp_tautomer_probability>
1

> <r_epik_Ionization_Penalty>
0.0587233

> <r_epik_Ionization_Penalty_Charging>
0

> <r_epik_Ionization_Penalty_Neutral>
0.0587233

> <r_epik_State_Penalty>
0.0508012

> <r_epik_Charging_Adjusted_Penalty>
0.0508012

> <i_epik_Tot_Q>
0

> <i_epik_Tot_abs_Q>
0

> <r_epik_Metal_State_Penalty>
0.0461886

> <b_epik_Metal_Only>
0

> <s_lp_Force_Field>
OPLS_2005

> <r_lp_Energy>
14.9723

> <b_lp_Chiralities_Consistent>
1

> <s_lp_Variant>
AV-unprocessed.smi:1855-1

> <Gold.Version>
5.8.1

> <Gold.Id.Protein>
6NUR|6NUR_protein|mol2

> <Gold.PLP.Fitness>
50.0007

> <Gold.PLP.PLP>
-48.1861

> <Gold.PLP.part.hbond>
-0.8694

> <Gold.PLP.part.metal>
0.0000

> <Gold.PLP.part.buried>
-0.6426

> <Gold.PLP.part.nonpolar>
-47.2584

> <Gold.PLP.part.repulsive>
1.3679

> <Gold.PLP.ligand.clash>
0.0000

> <Gold.PLP.ligand.torsion>
0.6295

> <Gold.PLP.Chemscore.Hbond>
1.0000

> <Gold.PLP.Chemscore.CHOScore>
0.0000

> <Gold.PLP.Chemscore.Metal>
0.0000

> <Gold.Chemscore.Hbonds>
donor molecule, donor type, donor heavy atom, donor atom, acceptor molecule, acceptor atom, score
      P1  H  7997  8010       L1    17  0.01

> <Gold.PLP.Chemscore.Internal.Correction>
0.0735

> <Gold.Rescore>
     Score         DG    S(hbond)    S(metal)    S(lipo)     H(rot)  DE(clash)    DE(int)     intcor
     15.72     -17.23       0.97        0.00     132.55       2.74       0.81       0.70       ----

> <Gold.Chemscore.Fitness>
15.7229

> <Gold.Chemscore.DG>
-17.2305

> <Gold.Chemscore.ZeroCoef>
-5.4800

> <Gold.Chemscore.Hbond>
0.9738

> <Gold.Chemscore.Metal>
0.0000

> <Gold.Chemscore.Lipo>
132.5484

> <Gold.Chemscore.Internal_Hbond>
0.0000

> <Gold.Chemscore.DEClash>
0.8096

> <Gold.Chemscore.DEInternal>
0.6980

> <Gold.Chemscore.Rot>
2.7383

> <Gold.Chemscore.Internal.Correction>
   9.000000E+99

> <Gold.Chemscore.Hbonds>
donor molecule, donor type, donor heavy atom, donor atom, acceptor molecule, acceptor atom, score
      P1  H  7997  8010       L1    17  0.06

> <Gold.Chemscore.Hbond.Weighted>
-3.2525

> <Gold.Chemscore.Metal.Weighted>
-0.0000

> <Gold.Chemscore.Lipo.Weighted>
-15.5082

> <Gold.Chemscore.Internal_Hbond.Weighted>
0.0000

> <Gold.Chemscore.DEClash.Weighted>
0.8096

> <Gold.Chemscore.DEInternal.Weighted>
0.6980

> <Gold.Chemscore.Rot.Weighted>
7.0102

> <Gold.Chemscore.Internal.Correction.Weighted>
   9.000000E+99

> <Gold.Protein.RotatedTorsions>
[ 6907 6896 6895 6894 ] final -140.35 input  -60.11 | X-H torsion
[ 7974 7965 7964 7962 ] final  -67.12 input  175.53 | X-H torsion
[ 8008 7997 7996 7995 ] final   59.92 input   59.86 | X-H torsion
[ 10167 10162 10161 10158 ] final   25.37 input  -65.29 | X-H torsion
[ 10718 10713 10712 10709 ] final -156.75 input   66.30 | X-H torsion
[ 10763 10752 10751 10750 ] final  -28.90 input  -60.55 | X-H torsion
[ 11005 11000 10999 10996 ] final -168.89 input  -57.11 | X-H torsion

> <Gold.Protein.ActiveResidues>
 VAL166  LYS551  ARG553  GLY616  TRP617  ASP618  TYR619  PRO620  LYS621  CYS622 
 ASP623  PHE694  ASN695  SER759  ASP760  ASP761  ALA762  ILE779  LEU786  VAL792 
 PHE793  MET794  SER795  GLU796  ALA797  LYS798  CYS799  TRP800  GLU811  SER814 

> <Gold.Protein.RotatedAtoms>
  151.0595  133.5556  159.2635 H   0  0  0  0  0  0  0  0  0  0  0  0  # atno 6907 bound_to 6896
  151.2536  135.0630  159.9081 H   0  0  0  0  0  0  0  0  0  0  0  0  # atno 6908 bound_to 6896
  152.5395  134.0352  159.8096 H   0  0  0  0  0  0  0  0  0  0  0  0  # atno 6909 bound_to 6896
  145.7332  140.8987  143.0569 H   0  0  0  0  0  0  0  0  0  0  0  0  # atno 7974 bound_to 7965
  155.5740  140.3490  155.4522 H   0  0  0  0  0  0  0  0  0  0  0  0  # atno 8008 bound_to 7997
  156.0423  140.1299  157.0167 H   0  0  0  0  0  0  0  0  0  0  0  0  # atno 8009 bound_to 7997
  154.4397  140.1021  156.6241 H   0  0  0  0  0  0  0  0  0  0  0  0  # atno 8010 bound_to 7997
  140.5111  144.0158  150.6373 H   0  0  0  0  0  0  0  0  0  0  0  0  # atno 10167 bound_to 10162
  156.5309  130.8520  151.2715 H   0  0  0  0  0  0  0  0  0  0  0  0  # atno 10718 bound_to 10713
  153.7559  135.6923  153.4936 H   0  0  0  0  0  0  0  0  0  0  0  0  # atno 10763 bound_to 10752
  153.1972  135.4450  155.0220 H   0  0  0  0  0  0  0  0  0  0  0  0  # atno 10764 bound_to 10752
  154.8171  135.3404  154.7077 H   0  0  0  0  0  0  0  0  0  0  0  0  # atno 10765 bound_to 10752
  140.5369  134.5560  157.5090 H   0  0  0  0  0  0  0  0  0  0  0  0  # atno 11005 bound_to 11000
  144.6888  139.9359  143.7473 LP  0  0  0  0  0  0  0  0  0  0  0  0  # atno 17320 bound_to 7965
  146.0518  139.3518  143.0635 LP  0  0  0  0  0  0  0  0  0  0  0  0  # atno 17321 bound_to 7965
  140.3481  143.2979  152.0516 LP  0  0  0  0  0  0  0  0  0  0  0  0  # atno 17342 bound_to 10162
  139.4896  144.6394  151.6909 LP  0  0  0  0  0  0  0  0  0  0  0  0  # atno 17343 bound_to 10162
  157.7422  130.9885  150.2498 LP  0  0  0  0  0  0  0  0  0  0  0  0  # atno 17370 bound_to 10713
  156.3061  130.3765  149.7705 LP  0  0  0  0  0  0  0  0  0  0  0  0  # atno 17371 bound_to 10713
  139.9524  134.7593  156.0418 LP  0  0  0  0  0  0  0  0  0  0  0  0  # atno 17394 bound_to 11000
  141.1249  133.6602  156.3311 LP  0  0  0  0  0  0  0  0  0  0  0  0  # atno 17395 bound_to 11000

$$$$
