AV-unprocessed.smi:2182|AV-procd|sdf|8864|dock10
  -GOLD-   2272012 63D 1   1.00000     0.00000
 Structure written by MMmdl.
 41 43  0  0  0  0  0  0  0  0  1 V2000
  148.3952  141.9714  154.0193 N   0  0  0  0  0  0  0  0  0  0  0  0
  149.2089  141.6496  154.7769 C   0  0  0  0  0  0  0  0  0  0  0  0
  150.1967  141.2257  155.7133 C   0  0  0  0  0  0  0  0  0  0  0  0
  150.4916  141.9503  156.8124 C   0  0  0  0  0  0  0  0  0  0  0  0
  151.4366  141.5506  157.7322 N   0  0  0  0  0  0  0  0  0  0  0  0
  151.8460  142.4092  158.8074 C   0  0  0  0  0  0  0  0  0  0  0  0
  152.3163  143.8215  158.5185 C   0  0  0  0  0  0  0  0  0  0  0  0
  153.3097  142.7685  158.9446 C   0  0  0  0  0  0  0  0  0  0  0  0
  152.1974  140.3830  157.5063 C   0  0  0  0  0  0  0  0  0  0  0  0
  153.1141  140.0611  158.2666 O   0  0  0  0  0  0  0  0  0  0  0  0
  151.8843  139.5974  156.3704 N   0  0  0  0  0  0  0  0  0  0  0  0
  152.6635  138.3630  156.1283 C   0  0  0  0  0  0  0  0  0  0  0  0
  151.8031  137.0901  156.0941 C   0  0  0  0  0  0  0  0  0  0  0  0
  151.9229  136.2650  155.1872 O   0  0  0  0  0  0  0  0  0  0  0  0
  150.9316  136.9472  157.1035 N   0  0  0  0  0  0  0  0  0  0  0  0
  150.0307  135.8130  157.2776 C   0  0  0  0  0  0  0  0  0  0  0  0
  148.9211  136.1073  158.3023 C   0  0  1  0  0  0  0  0  0  0  0  0
  147.8156  135.0537  158.3688 C   0  0  0  0  0  0  0  0  0  0  0  0
  147.2720  135.2772  159.7614 C   0  0  0  0  0  0  0  0  0  0  0  0
  148.5423  135.5852  160.5504 C   0  0  0  0  0  0  0  0  0  0  0  0
  149.4628  136.1497  159.6190 O   0  0  0  0  0  0  0  0  0  0  0  0
  150.8880  139.9697  155.4320 C   0  0  0  0  0  0  0  0  0  0  0  0
  150.6505  139.2695  154.4464 O   0  0  0  0  0  0  0  0  0  0  0  0
  149.9640  142.8777  156.9834 H   0  0  0  0  0  0  0  0  0  0  0  0
  151.3026  142.2739  159.7410 H   0  0  0  0  0  0  0  0  0  0  0  0
  152.3546  144.1494  157.4814 H   0  0  0  0  0  0  0  0  0  0  0  0
  152.0574  144.5925  159.2412 H   0  0  0  0  0  0  0  0  0  0  0  0
  153.7163  142.8390  159.9514 H   0  0  0  0  0  0  0  0  0  0  0  0
  154.0010  142.4013  158.1886 H   0  0  0  0  0  0  0  0  0  0  0  0
  153.2165  138.4343  155.1900 H   0  0  0  0  0  0  0  0  0  0  0  0
  153.4408  138.2330  156.8828 H   0  0  0  0  0  0  0  0  0  0  0  0
  150.8943  137.6711  157.8063 H   0  0  0  0  0  0  0  0  0  0  0  0
  149.5889  135.5801  156.3083 H   0  0  0  0  0  0  0  0  0  0  0  0
  150.5966  134.9293  157.5774 H   0  0  0  0  0  0  0  0  0  0  0  0
  148.4729  137.0821  158.1035 H   0  0  0  0  0  0  0  0  0  0  0  0
  147.0620  135.1770  157.5903 H   0  0  0  0  0  0  0  0  0  0  0  0
  148.2334  134.0491  158.2874 H   0  0  0  0  0  0  0  0  0  0  0  0
  146.6066  136.1418  159.7675 H   0  0  0  0  0  0  0  0  0  0  0  0
  146.7236  134.4199  160.1527 H   0  0  0  0  0  0  0  0  0  0  0  0
  148.3560  136.2622  161.3843 H   0  0  0  0  0  0  0  0  0  0  0  0
  148.9757  134.6678  160.9501 H   0  0  0  0  0  0  0  0  0  0  0  0
  1  2  3  0  0  0  0
  2  3  1  0  0  0  0
  3 22  1  0  0  0  0
  3  4  2  0  0  0  0
  4  5  1  0  0  0  0
  4 24  1  0  0  0  0
  5  6  1  0  0  0  0
  5  9  1  0  0  0  0
  6  8  1  0  0  0  0
  6  7  1  0  0  0  0
  6 25  1  0  0  0  0
  7  8  1  0  0  0  0
  7 26  1  0  0  0  0
  7 27  1  0  0  0  0
  8 28  1  0  0  0  0
  8 29  1  0  0  0  0
  9 10  2  0  0  0  0
  9 11  1  0  0  0  0
 11 12  1  0  0  0  0
 11 22  1  0  0  0  0
 12 13  1  0  0  0  0
 12 30  1  0  0  0  0
 12 31  1  0  0  0  0
 13 14  2  0  0  0  0
 13 15  1  0  0  0  0
 15 16  1  0  0  0  0
 15 32  1  0  0  0  0
 16 17  1  0  0  0  0
 16 33  1  0  0  0  0
 16 34  1  0  0  0  0
 17 21  1  0  0  0  0
 17 18  1  0  0  0  0
 17 35  1  0  0  0  0
 18 19  1  0  0  0  0
 18 36  1  0  0  0  0
 18 37  1  0  0  0  0
 19 20  1  0  0  0  0
 19 38  1  0  0  0  0
 19 39  1  0  0  0  0
 20 21  1  0  0  0  0
 20 40  1  0  0  0  0
 20 41  1  0  0  0  0
 22 23  2  0  0  0  0
M  END
> <s_m_source_file>
AV-unprocessed.smi

> <i_m_source_file_index>
2182

> <i_lp_mmshare_version>
43012

> <i_f3d_flags>
0

> <s_epik_input>
TiNDYzFbY0hdbihbQ0hdMltDSDJdW0NIMl0yKWMoPU8pbihjMT1PKVtDSDJdQyg9TylbTkhdW0NIMl1bQ0BASF0zW0NIMl1bQ0gyXVtDSDJdTzM=

> <s_epik_cmdline>
J2VwaWtfcHl0aG9uJywgJy1waCcsICc3LjAnLCAnLXRuJywgJzgnLCAnLW1hJywgJzIwMCcsICctbWV0YWxfYmluZGluZycsICctaW1hZScsICc8aW5maWxlLm1hZT4nLCAnLW9tYWUnLCAnPG91dGZpbGUubWFlPic=

> <r_lp_tautomer_probability>
1

> <r_epik_Ionization_Penalty>
2.69429e-08

> <r_epik_Ionization_Penalty_Charging>
8.38654e-11

> <r_epik_Ionization_Penalty_Neutral>
2.6859e-08

> <r_epik_State_Penalty>
-0

> <r_epik_Charging_Adjusted_Penalty>
8.38654e-11

> <i_epik_Tot_Q>
0

> <i_epik_Tot_abs_Q>
0

> <r_epik_Metal_State_Penalty>
-0

> <b_epik_Metal_Only>
0

> <s_lp_Force_Field>
OPLS_2005

> <r_lp_Energy>
43.7942

> <b_lp_Chiralities_Consistent>
1

> <s_lp_Variant>
AV-unprocessed.smi:2182-2

> <Gold.Version>
5.8.1

> <Gold.Id.Protein>
6NUR|6NUR_protein|mol2

> <Gold.PLP.Fitness>
47.3998

> <Gold.PLP.PLP>
-35.4392

> <Gold.PLP.part.hbond>
-4.3586

> <Gold.PLP.part.metal>
0.0000

> <Gold.PLP.part.buried>
-1.4516

> <Gold.PLP.part.nonpolar>
-29.6952

> <Gold.PLP.part.repulsive>
0.5301

> <Gold.PLP.ligand.clash>
0.0000

> <Gold.PLP.ligand.torsion>
0.3890

> <Gold.PLP.Chemscore.Hbond>
3.1701

> <Gold.PLP.Chemscore.CHOScore>
1.0000

> <Gold.PLP.Chemscore.Metal>
0.0000

> <Gold.Chemscore.Hbonds>
donor molecule, donor type, donor heavy atom, donor atom, acceptor molecule, acceptor atom, score
      P1  H  6896  6907       L1    21  1.00
      P1  H  7989  7998       L1    23  0.04
      P1  H  7997  8010       L1    10  1.00
      P1  H  8011  8017       L1     1  0.18
      P1  H 10752 10763       L1    14  0.70
      L1  C     4    24       P1  8028  1.00

> <Gold.PLP.Chemscore.Internal.Correction>
0.2282

> <Gold.Rescore>
     Score         DG    S(hbond)    S(metal)    S(lipo)     H(rot)  DE(clash)    DE(int)     intcor
     12.88     -16.17       2.44        0.00      67.13       2.08       0.03       3.26       ----

> <Gold.Chemscore.Fitness>
12.8790

> <Gold.Chemscore.DG>
-16.1723

> <Gold.Chemscore.ZeroCoef>
-5.4800

> <Gold.Chemscore.Hbond>
2.4423

> <Gold.Chemscore.Metal>
0.0000

> <Gold.Chemscore.Lipo>
67.1295

> <Gold.Chemscore.Internal_Hbond>
0.0000

> <Gold.Chemscore.DEClash>
0.0350

> <Gold.Chemscore.DEInternal>
3.2582

> <Gold.Chemscore.Rot>
2.0778

> <Gold.Chemscore.Internal.Correction>
   9.000000E+99

> <Gold.Chemscore.Hbonds>
donor molecule, donor type, donor heavy atom, donor atom, acceptor molecule, acceptor atom, score
      P1  H  6896  6907       L1    21  0.18
      P1  H  7997  8010       L1    10  0.29
      P1  H  8011  8017       L1     1  0.03
      P1  H 10752 10763       L1    14  0.65

> <Gold.Chemscore.Hbond.Weighted>
-8.1572

> <Gold.Chemscore.Metal.Weighted>
-0.0000

> <Gold.Chemscore.Lipo.Weighted>
-7.8541

> <Gold.Chemscore.Internal_Hbond.Weighted>
0.0000

> <Gold.Chemscore.DEClash.Weighted>
0.0350

> <Gold.Chemscore.DEInternal.Weighted>
3.2582

> <Gold.Chemscore.Rot.Weighted>
5.3191

> <Gold.Chemscore.Internal.Correction.Weighted>
   9.000000E+99

> <Gold.Protein.RotatedTorsions>
[ 6907 6896 6895 6894 ] final  -46.94 input  -60.11 | X-H torsion
[ 7974 7965 7964 7962 ] final  -77.71 input  175.53 | X-H torsion
[ 8008 7997 7996 7995 ] final   32.37 input   59.86 | X-H torsion
[ 10167 10162 10161 10158 ] final  -82.23 input  -65.29 | X-H torsion
[ 10718 10713 10712 10709 ] final  -34.55 input   66.30 | X-H torsion
[ 10763 10752 10751 10750 ] final   86.22 input  -60.55 | X-H torsion
[ 11005 11000 10999 10996 ] final   66.72 input  -57.11 | X-H torsion

> <Gold.Protein.ActiveResidues>
 VAL166  LYS551  ARG553  GLY616  TRP617  ASP618  TYR619  PRO620  LYS621  CYS622 
 ASP623  PHE694  ASN695  SER759  ASP760  ASP761  ALA762  ILE779  LEU786  VAL792 
 PHE793  MET794  SER795  GLU796  ALA797  LYS798  CYS799  TRP800  GLU811  SER814 

> <Gold.Protein.RotatedAtoms>
  150.9060  134.8475  159.7392 H   0  0  0  0  0  0  0  0  0  0  0  0  # atno 6907 bound_to 6896
  152.4919  134.4430  159.9559 H   0  0  0  0  0  0  0  0  0  0  0  0  # atno 6908 bound_to 6896
  151.4477  133.3586  159.2826 H   0  0  0  0  0  0  0  0  0  0  0  0  # atno 6909 bound_to 6896
  145.5961  140.9419  143.1266 H   0  0  0  0  0  0  0  0  0  0  0  0  # atno 7974 bound_to 7965
  155.1213  140.3248  155.4496 H   0  0  0  0  0  0  0  0  0  0  0  0  # atno 8008 bound_to 7997
  156.2662  140.2026  156.6283 H   0  0  0  0  0  0  0  0  0  0  0  0  # atno 8009 bound_to 7997
  154.6681  140.0539  157.0123 H   0  0  0  0  0  0  0  0  0  0  0  0  # atno 8010 bound_to 7997
  140.4339  143.2538  151.8721 H   0  0  0  0  0  0  0  0  0  0  0  0  # atno 10167 bound_to 10162
  156.3492  130.4305  149.7719 H   0  0  0  0  0  0  0  0  0  0  0  0  # atno 10718 bound_to 10713
  153.1549  135.4588  154.9690 H   0  0  0  0  0  0  0  0  0  0  0  0  # atno 10763 bound_to 10752
  154.7854  135.3202  154.7901 H   0  0  0  0  0  0  0  0  0  0  0  0  # atno 10764 bound_to 10752
  153.8400  135.6931  153.4858 H   0  0  0  0  0  0  0  0  0  0  0  0  # atno 10765 bound_to 10752
  139.9814  134.6737  156.0255 H   0  0  0  0  0  0  0  0  0  0  0  0  # atno 11005 bound_to 11000
  144.7330  139.7669  143.7340 LP  0  0  0  0  0  0  0  0  0  0  0  0  # atno 17320 bound_to 7965
  146.1611  139.4726  142.9988 LP  0  0  0  0  0  0  0  0  0  0  0  0  # atno 17321 bound_to 7965
  139.4786  144.5304  151.8674 LP  0  0  0  0  0  0  0  0  0  0  0  0  # atno 17342 bound_to 10162
  140.4396  144.2005  150.5891 LP  0  0  0  0  0  0  0  0  0  0  0  0  # atno 17343 bound_to 10162
  156.4926  130.8092  151.3101 LP  0  0  0  0  0  0  0  0  0  0  0  0  # atno 17370 bound_to 10713
  157.7458  130.9970  150.2802 LP  0  0  0  0  0  0  0  0  0  0  0  0  # atno 17371 bound_to 10713
  141.1486  133.6552  156.3942 LP  0  0  0  0  0  0  0  0  0  0  0  0  # atno 17394 bound_to 11000
  140.5088  134.6415  157.5276 LP  0  0  0  0  0  0  0  0  0  0  0  0  # atno 17395 bound_to 11000

$$$$
