AV-unprocessed.smi:732|AV-procd|sdf|3527|dock2
  -GOLD-   22720 0523D 1   1.00000     0.00000
 Structure written by MMmdl.
 34 36  0  0  0  0  0  0  0  0  1 V2000
  147.0469  139.5072  152.0096 C   0  0  0  0  0  0  0  0  0  0  0  0
  147.9375  140.0193  153.0896 C   0  0  0  0  0  0  0  0  0  0  0  0
  148.0112  141.2180  153.7418 C   0  0  0  0  0  0  0  0  0  0  0  0
  149.0897  141.0247  154.6455 C   0  0  0  0  0  0  0  0  0  0  0  0
  149.4984  142.0613  155.5225 N   0  0  0  0  0  0  0  0  0  0  0  0
  150.5014  142.0308  156.4166 C   0  0  0  0  0  0  0  0  0  0  0  0
  151.2340  141.0636  156.6269 O   0  0  0  0  0  0  0  0  0  0  0  0
  150.6140  143.2019  157.0581 N   0  0  0  0  0  0  0  0  0  0  0  0
  151.5900  143.5107  158.0520 C   0  0  2  0  0  0  0  0  0  0  0  0
  151.7536  142.5294  159.1945 C   0  0  1  0  0  0  0  0  0  0  0  0
  153.0737  142.3346  159.9173 C   0  0  0  0  0  0  0  0  0  0  0  0
  152.9584  142.7319  161.4022 C   0  0  0  0  0  0  0  0  0  0  0  0
  152.2689  144.0993  161.6428 C   0  0  0  0  0  0  0  0  0  0  0  0
  151.8115  144.8112  160.3549 C   0  0  0  0  0  0  0  0  0  0  0  0
  151.0761  143.8561  159.4334 C   0  0  1  0  0  0  0  0  0  0  0  0
  149.6247  139.8166  154.5549 N   0  0  0  0  0  0  0  0  0  0  0  0
  148.8893  139.1663  153.5570 O   0  0  0  0  0  0  0  0  0  0  0  0
  146.0301  139.8791  152.1370 H   0  0  0  0  0  0  0  0  0  0  0  0
  147.0099  138.4175  152.0157 H   0  0  0  0  0  0  0  0  0  0  0  0
  147.4047  139.8277  151.0311 H   0  0  0  0  0  0  0  0  0  0  0  0
  147.3933  142.0909  153.5925 H   0  0  0  0  0  0  0  0  0  0  0  0
  148.9792  142.9238  155.4526 H   0  0  0  0  0  0  0  0  0  0  0  0
  149.9654  143.9374  156.8196 H   0  0  0  0  0  0  0  0  0  0  0  0
  152.4902  144.0283  157.7233 H   0  0  0  0  0  0  0  0  0  0  0  0
  151.0969  141.6613  159.2163 H   0  0  0  0  0  0  0  0  0  0  0  0
  153.3946  141.2976  159.8159 H   0  0  0  0  0  0  0  0  0  0  0  0
  153.8378  142.9453  159.4346 H   0  0  0  0  0  0  0  0  0  0  0  0
  152.3936  141.9604  161.9271 H   0  0  0  0  0  0  0  0  0  0  0  0
  153.9499  142.7319  161.8559 H   0  0  0  0  0  0  0  0  0  0  0  0
  151.4003  143.9432  162.2837 H   0  0  0  0  0  0  0  0  0  0  0  0
  152.9345  144.7565  162.2031 H   0  0  0  0  0  0  0  0  0  0  0  0
  151.1692  145.6612  160.5863 H   0  0  0  0  0  0  0  0  0  0  0  0
  152.6809  145.2117  159.8319 H   0  0  0  0  0  0  0  0  0  0  0  0
  150.0023  143.8036  159.6048 H   0  0  0  0  0  0  0  0  0  0  0  0
  1  2  1  0  0  0  0
  1 18  1  0  0  0  0
  1 19  1  0  0  0  0
  1 20  1  0  0  0  0
  2 17  1  0  0  0  0
  2  3  2  0  0  0  0
  3  4  1  0  0  0  0
  3 21  1  0  0  0  0
  4  5  1  0  0  0  0
  4 16  2  0  0  0  0
  5  6  1  0  0  0  0
  5 22  1  0  0  0  0
  6  7  2  0  0  0  0
  6  8  1  0  0  0  0
  8  9  1  0  0  0  0
  8 23  1  0  0  0  0
  9 15  1  0  0  0  0
  9 10  1  0  0  0  0
  9 24  1  0  0  0  0
 10 15  1  0  0  0  0
 10 11  1  0  0  0  0
 10 25  1  0  0  0  0
 11 12  1  0  0  0  0
 11 26  1  0  0  0  0
 11 27  1  0  0  0  0
 12 13  1  0  0  0  0
 12 28  1  0  0  0  0
 12 29  1  0  0  0  0
 13 14  1  0  0  0  0
 13 30  1  0  0  0  0
 13 31  1  0  0  0  0
 14 15  1  0  0  0  0
 14 32  1  0  0  0  0
 14 33  1  0  0  0  0
 15 34  1  0  0  0  0
 16 17  1  0  0  0  0
M  END
> <s_m_source_file>
AV-unprocessed.smi

> <i_m_source_file_index>
732

> <i_lp_mmshare_version>
43012

> <i_f3d_flags>
0

> <s_epik_input>
W0NIM11jMVtjSF1jKG5vMSlbTkhdQyg9TylbTkhdW0NASF0yW0NAQEhdKFtDQEBIXTIzKVtDSDJdW0NIMl1bQ0gyXVtDSDJdMw==

> <s_epik_cmdline>
J2VwaWtfcHl0aG9uJywgJy1waCcsICc3LjAnLCAnLXRuJywgJzgnLCAnLW1hJywgJzIwMCcsICctbWV0YWxfYmluZGluZycsICctaW1hZScsICc8aW5maWxlLm1hZT4nLCAnLW9tYWUnLCAnPG91dGZpbGUubWFlPic=

> <r_lp_tautomer_probability>
1

> <r_epik_Ionization_Penalty>
2.39506e-05

> <r_epik_Ionization_Penalty_Charging>
0

> <r_epik_Ionization_Penalty_Neutral>
2.39506e-05

> <r_epik_State_Penalty>
-0

> <r_epik_Charging_Adjusted_Penalty>
0

> <i_epik_Tot_Q>
0

> <i_epik_Tot_abs_Q>
0

> <r_epik_Metal_State_Penalty>
-0

> <b_epik_Metal_Only>
0

> <s_lp_Force_Field>
OPLS_2005

> <r_lp_Energy>
33.499

> <b_lp_Chiralities_Consistent>
1

> <s_lp_Variant>
AV-unprocessed.smi:732-1

> <Gold.Version>
5.8.1

> <Gold.Id.Protein>
6NUR|6NUR_protein|mol2

> <Gold.PLP.Fitness>
43.8685

> <Gold.PLP.PLP>
-37.9256

> <Gold.PLP.part.hbond>
-2.0000

> <Gold.PLP.part.metal>
0.0000

> <Gold.PLP.part.buried>
-2.6497

> <Gold.PLP.part.nonpolar>
-34.8977

> <Gold.PLP.part.repulsive>
2.0721

> <Gold.PLP.ligand.clash>
0.0000

> <Gold.PLP.ligand.torsion>
0.0451

> <Gold.PLP.Chemscore.Hbond>
2.0000

> <Gold.PLP.Chemscore.CHOScore>
0.0000

> <Gold.PLP.Chemscore.Metal>
0.0000

> <Gold.Chemscore.Hbonds>
donor molecule, donor type, donor heavy atom, donor atom, acceptor molecule, acceptor atom, score
      L1  H     5    22       P1  8028  1.00
      L1  H     8    23       P1  8028  1.00

> <Gold.PLP.Chemscore.Internal.Correction>
0.0331

> <Gold.Rescore>
     Score         DG    S(hbond)    S(metal)    S(lipo)     H(rot)  DE(clash)    DE(int)     intcor
     19.23     -20.88       1.79        0.00     102.39       1.00       0.37       1.28       ----

> <Gold.Chemscore.Fitness>
19.2309

> <Gold.Chemscore.DG>
-20.8781

> <Gold.Chemscore.ZeroCoef>
-5.4800

> <Gold.Chemscore.Hbond>
1.7898

> <Gold.Chemscore.Metal>
0.0000

> <Gold.Chemscore.Lipo>
102.3941

> <Gold.Chemscore.Internal_Hbond>
0.0000

> <Gold.Chemscore.DEClash>
0.3658

> <Gold.Chemscore.DEInternal>
1.2814

> <Gold.Chemscore.Rot>
1.0000

> <Gold.Chemscore.Internal.Correction>
   9.000000E+99

> <Gold.Chemscore.Hbonds>
donor molecule, donor type, donor heavy atom, donor atom, acceptor molecule, acceptor atom, score
      L1  H     5    22       P1  8028  0.95
      L1  H     8    23       P1  8028  0.95

> <Gold.Chemscore.Hbond.Weighted>
-5.9780

> <Gold.Chemscore.Metal.Weighted>
-0.0000

> <Gold.Chemscore.Lipo.Weighted>
-11.9801

> <Gold.Chemscore.Internal_Hbond.Weighted>
0.0000

> <Gold.Chemscore.DEClash.Weighted>
0.3658

> <Gold.Chemscore.DEInternal.Weighted>
1.2814

> <Gold.Chemscore.Rot.Weighted>
2.5600

> <Gold.Chemscore.Internal.Correction.Weighted>
   9.000000E+99

> <Gold.Protein.RotatedTorsions>
[ 6907 6896 6895 6894 ] final  102.92 input  -60.11 | X-H torsion
[ 7974 7965 7964 7962 ] final  120.17 input  175.53 | X-H torsion
[ 8008 7997 7996 7995 ] final   78.18 input   59.86 | X-H torsion
[ 10167 10162 10161 10158 ] final    9.11 input  -65.29 | X-H torsion
[ 10718 10713 10712 10709 ] final   61.90 input   66.30 | X-H torsion
[ 10763 10752 10751 10750 ] final -117.92 input  -60.55 | X-H torsion
[ 11005 11000 10999 10996 ] final   56.11 input  -57.11 | X-H torsion

> <Gold.Protein.ActiveResidues>
 VAL166  LYS551  ARG553  GLY616  TRP617  ASP618  TYR619  PRO620  LYS621  CYS622 
 ASP623  PHE694  ASN695  SER759  ASP760  ASP761  ALA762  ILE779  LEU786  VAL792 
 PHE793  MET794  SER795  GLU796  ALA797  LYS798  CYS799  TRP800  GLU811  SER814 

> <Gold.Protein.RotatedAtoms>
  152.5310  133.9904  159.7847 H   0  0  0  0  0  0  0  0  0  0  0  0  # atno 6907 bound_to 6896
  151.0141  133.5930  159.2686 H   0  0  0  0  0  0  0  0  0  0  0  0  # atno 6908 bound_to 6896
  151.2994  135.0771  159.9286 H   0  0  0  0  0  0  0  0  0  0  0  0  # atno 6909 bound_to 6896
  145.1344  139.3307  143.4648 H   0  0  0  0  0  0  0  0  0  0  0  0  # atno 7974 bound_to 7965
  155.8521  140.3457  155.5700 H   0  0  0  0  0  0  0  0  0  0  0  0  # atno 8008 bound_to 7997
  155.8026  140.0887  157.1968 H   0  0  0  0  0  0  0  0  0  0  0  0  # atno 8009 bound_to 7997
  154.4008  140.1462  156.3280 H   0  0  0  0  0  0  0  0  0  0  0  0  # atno 8010 bound_to 7997
  140.6274  143.8070  150.7251 H   0  0  0  0  0  0  0  0  0  0  0  0  # atno 10167 bound_to 10162
  157.5862  130.9020  149.9520 H   0  0  0  0  0  0  0  0  0  0  0  0  # atno 10718 bound_to 10713
  154.8571  135.4292  154.2057 H   0  0  0  0  0  0  0  0  0  0  0  0  # atno 10763 bound_to 10752
  153.3093  135.6974  153.7136 H   0  0  0  0  0  0  0  0  0  0  0  0  # atno 10764 bound_to 10752
  153.6235  135.3498  155.2992 H   0  0  0  0  0  0  0  0  0  0  0  0  # atno 10765 bound_to 10752
  140.0554  134.5677  155.9213 H   0  0  0  0  0  0  0  0  0  0  0  0  # atno 11005 bound_to 11000
  146.3511  140.1355  142.8596 LP  0  0  0  0  0  0  0  0  0  0  0  0  # atno 17320 bound_to 7965
  145.0600  140.9081  143.4944 LP  0  0  0  0  0  0  0  0  0  0  0  0  # atno 17321 bound_to 7965
  140.1674  143.4224  152.2025 LP  0  0  0  0  0  0  0  0  0  0  0  0  # atno 17342 bound_to 10162
  139.5492  144.7324  151.4486 LP  0  0  0  0  0  0  0  0  0  0  0  0  # atno 17343 bound_to 10162
  156.0911  130.3663  150.0393 LP  0  0  0  0  0  0  0  0  0  0  0  0  # atno 17370 bound_to 10713
  156.8524  130.9463  151.3624 LP  0  0  0  0  0  0  0  0  0  0  0  0  # atno 17371 bound_to 10713
  141.1950  133.6585  156.5620 LP  0  0  0  0  0  0  0  0  0  0  0  0  # atno 17394 bound_to 11000
  140.3852  134.7489  157.4686 LP  0  0  0  0  0  0  0  0  0  0  0  0  # atno 17395 bound_to 11000

$$$$
