AV-unprocessed.smi:663|AV-procd|sdf|3249|dock1
  -GOLD-   22720 0193D 1   1.00000     0.00000
 Structure written by MMmdl.
 29 30  0  0  0  0  0  0  0  0  2 V2000
  149.6057  138.7585  153.3219 N   0  0  0  0  0  0  0  0  0  0  0  0
  149.7588  139.3808  154.4933 C   0  0  0  0  0  0  0  0  0  0  0  0
  150.1823  140.5323  154.5711 O   0  0  0  0  0  0  0  0  0  0  0  0
  149.3916  138.5904  155.7542 C   0  0  0  0  0  0  0  0  0  0  0  0
  150.5497  138.4425  156.7720 C   0  0  2  0  0  0  0  0  0  0  0  0
  150.2563  137.3325  157.6767 N   0  0  0  0  0  0  0  0  0  0  0  0
  149.2777  137.2843  158.5929 C   0  0  0  0  0  0  0  0  0  0  0  0
  148.5184  138.2452  158.7369 O   0  0  0  0  0  0  0  0  0  0  0  0
  149.2423  136.1241  159.2873 N   0  5  0  0  0  0  0  0  0  0  0  0
  148.2492  135.8930  160.1617 C   0  0  0  0  0  0  0  0  0  0  0  0
  147.6379  136.8831  160.8320 N   0  0  0  0  0  0  0  0  0  0  0  0
  146.6460  136.4298  161.6913 N   0  0  0  0  0  0  0  0  0  0  0  0
  146.5396  135.1019  161.6527 C   0  0  0  0  0  0  0  0  0  0  0  0
  147.6424  134.2846  160.5656 S   0  0  0  0  0  0  0  0  0  0  0  0
  150.8110  139.7321  157.5359 C   0  0  0  0  0  0  0  0  0  0  0  0
  151.5927  140.8779  156.9346 C   0  0  0  0  0  0  0  0  0  0  0  0
  152.1918  140.0570  158.0534 C   0  0  0  0  0  0  0  0  0  0  0  0
  149.8355  139.2408  152.4651 H   0  0  0  0  0  0  0  0  0  0  0  0
  149.2617  137.8097  153.2971 H   0  0  0  0  0  0  0  0  0  0  0  0
  148.5289  139.0473  156.2419 H   0  0  0  0  0  0  0  0  0  0  0  0
  149.0628  137.6049  155.4217 H   0  0  0  0  0  0  0  0  0  0  0  0
  151.4666  138.1995  156.2310 H   0  0  0  0  0  0  0  0  0  0  0  0
  150.8498  136.5197  157.5993 H   0  0  0  0  0  0  0  0  0  0  0  0
  145.8093  134.6004  162.2701 H   0  0  0  0  0  0  0  0  0  0  0  0
  149.9904  140.0163  158.1925 H   0  0  0  0  0  0  0  0  0  0  0  0
  152.0146  140.7453  155.9405 H   0  0  0  0  0  0  0  0  0  0  0  0
  151.2622  141.8874  157.1699 H   0  0  0  0  0  0  0  0  0  0  0  0
  152.2631  140.5191  159.0359 H   0  0  0  0  0  0  0  0  0  0  0  0
  153.0007  139.3752  157.7983 H   0  0  0  0  0  0  0  0  0  0  0  0
  1  2  1  0  0  0  0
  1 18  1  0  0  0  0
  1 19  1  0  0  0  0
  2  3  2  0  0  0  0
  2  4  1  0  0  0  0
  4  5  1  0  0  0  0
  4 20  1  0  0  0  0
  4 21  1  0  0  0  0
  5  6  1  0  0  0  0
  5 15  1  0  0  0  0
  5 22  1  0  0  0  0
  6  7  1  0  0  0  0
  6 23  1  0  0  0  0
  7  8  2  0  0  0  0
  7  9  1  0  0  0  0
  9 10  1  0  0  0  0
 10 14  1  0  0  0  0
 10 11  2  0  0  0  0
 11 12  1  0  0  0  0
 12 13  2  0  0  0  0
 13 14  1  0  0  0  0
 13 24  1  0  0  0  0
 15 17  1  0  0  0  0
 15 16  1  0  0  0  0
 15 25  1  0  0  0  0
 16 17  1  0  0  0  0
 16 26  1  0  0  0  0
 16 27  1  0  0  0  0
 17 28  1  0  0  0  0
 17 29  1  0  0  0  0
M  CHG  1   9  -1
M  END
> <s_m_source_file>
AV-unprocessed.smi

> <i_m_source_file_index>
663

> <i_lp_mmshare_version>
43012

> <i_f3d_flags>
0

> <s_epik_input>
W05IMl1DKD1PKVtDSDJdW0NAQEhdKFtDSF0xW0NIMl1bQ0gyXTEpW05IXUMoPU8pW05IXWMybm5bY0hdczI=

> <s_epik_cmdline>
J2VwaWtfcHl0aG9uJywgJy1waCcsICc3LjAnLCAnLXRuJywgJzgnLCAnLW1hJywgJzIwMCcsICctbWV0YWxfYmluZGluZycsICctaW1hZScsICc8aW5maWxlLm1hZT4nLCAnLW9tYWUnLCAnPG91dGZpbGUubWFlPic=

> <r_lp_tautomer_probability>
1

> <r_epik_Ionization_Penalty>
4.41895

> <r_epik_Ionization_Penalty_Charging>
4.37725

> <r_epik_Ionization_Penalty_Neutral>
0.0416999

> <r_epik_State_Penalty>
4.37688

> <r_epik_Charging_Adjusted_Penalty>
8.75413

> <i_epik_Tot_Q>
-1

> <i_epik_Tot_abs_Q>
1

> <r_epik_Metal_State_Penalty>
0.761195

> <b_epik_Metal_Only>
1

> <s_lp_Force_Field>
OPLS_2005

> <r_lp_Energy>
9.70165

> <b_lp_Chiralities_Consistent>
1

> <s_lp_Variant>
AV-unprocessed.smi:663-3

> <Gold.Version>
5.8.1

> <Gold.Id.Protein>
6NUR|6NUR_protein|mol2

> <Gold.PLP.Fitness>
42.8258

> <Gold.PLP.PLP>
-24.9613

> <Gold.PLP.part.hbond>
-6.9831

> <Gold.PLP.part.metal>
0.0000

> <Gold.PLP.part.buried>
-5.5277

> <Gold.PLP.part.nonpolar>
-12.9224

> <Gold.PLP.part.repulsive>
0.2661

> <Gold.PLP.ligand.clash>
0.0000

> <Gold.PLP.ligand.torsion>
0.8962

> <Gold.PLP.Chemscore.Hbond>
6.1552

> <Gold.PLP.Chemscore.CHOScore>
0.0000

> <Gold.PLP.Chemscore.Metal>
0.0000

> <Gold.Chemscore.Hbonds>
donor molecule, donor type, donor heavy atom, donor atom, acceptor molecule, acceptor atom, score
      L1  H     1    18       P1  7957  1.00
      L1  H     1    19       P1  7948  0.57
      P1  H  6896  6909       L1     9  1.79
      P1  H  6931  6943       L1    11  0.48
      P1  H  6934  6947       L1    11  0.53
      P1  H  7989  7998       L1     3  0.91

> <Gold.PLP.Chemscore.Internal.Correction>
1.1913

> <Gold.Rescore>
     Score         DG    S(hbond)    S(metal)    S(lipo)     H(rot)  DE(clash)    DE(int)     intcor
     11.62     -16.56       3.99        0.00      35.12       2.49       0.02       4.92       ----

> <Gold.Chemscore.Fitness>
11.6177

> <Gold.Chemscore.DG>
-16.5592

> <Gold.Chemscore.ZeroCoef>
-5.4800

> <Gold.Chemscore.Hbond>
3.9927

> <Gold.Chemscore.Metal>
0.0000

> <Gold.Chemscore.Lipo>
35.1152

> <Gold.Chemscore.Internal_Hbond>
0.0000

> <Gold.Chemscore.DEClash>
0.0202

> <Gold.Chemscore.DEInternal>
4.9212

> <Gold.Chemscore.Rot>
2.4863

> <Gold.Chemscore.Internal.Correction>
   9.000000E+99

> <Gold.Chemscore.Hbonds>
donor molecule, donor type, donor heavy atom, donor atom, acceptor molecule, acceptor atom, score
      L1  H     1    18       P1  7957  0.82
      L1  H     1    19       P1  7948  0.56
      P1  H  6896  6909       L1     9  0.60
      P1  H  6931  6943       L1    11  0.32
      P1  H  6934  6947       L1    11  0.10
      P1  H  7989  7998       L1     3  0.80

> <Gold.Chemscore.Hbond.Weighted>
-13.3355

> <Gold.Chemscore.Metal.Weighted>
-0.0000

> <Gold.Chemscore.Lipo.Weighted>
-4.1085

> <Gold.Chemscore.Internal_Hbond.Weighted>
0.0000

> <Gold.Chemscore.DEClash.Weighted>
0.0202

> <Gold.Chemscore.DEInternal.Weighted>
4.9212

> <Gold.Chemscore.Rot.Weighted>
6.3648

> <Gold.Chemscore.Internal.Correction.Weighted>
   9.000000E+99

> <Gold.Protein.RotatedTorsions>
[ 6907 6896 6895 6894 ] final   72.65 input  -60.11 | X-H torsion
[ 7974 7965 7964 7962 ] final  -72.29 input  175.53 | X-H torsion
[ 8008 7997 7996 7995 ] final -126.44 input   59.86 | X-H torsion
[ 10167 10162 10161 10158 ] final   56.50 input  -65.29 | X-H torsion
[ 10718 10713 10712 10709 ] final  -34.31 input   66.30 | X-H torsion
[ 10763 10752 10751 10750 ] final  141.93 input  -60.55 | X-H torsion
[ 11005 11000 10999 10996 ] final -102.95 input  -57.11 | X-H torsion

> <Gold.Protein.ActiveResidues>
 VAL166  LYS551  ARG553  GLY616  TRP617  ASP618  TYR619  PRO620  LYS621  CYS622 
 ASP623  PHE694  ASN695  SER759  ASP760  ASP761  ALA762  ILE779  LEU786  VAL792 
 PHE793  MET794  SER795  GLU796  ALA797  LYS798  CYS799  TRP800  GLU811  SER814 

> <Gold.Protein.RotatedAtoms>
  152.4880  134.4539  159.9583 H   0  0  0  0  0  0  0  0  0  0  0  0  # atno 6907 bound_to 6896
  151.4532  133.3606  159.2806 H   0  0  0  0  0  0  0  0  0  0  0  0  # atno 6908 bound_to 6896
  150.9007  134.8444  159.7418 H   0  0  0  0  0  0  0  0  0  0  0  0  # atno 6909 bound_to 6896
  145.6670  140.9234  143.0903 H   0  0  0  0  0  0  0  0  0  0  0  0  # atno 7974 bound_to 7965
  155.2297  140.0425  157.2960 H   0  0  0  0  0  0  0  0  0  0  0  0  # atno 8008 bound_to 7997
  154.5896  140.2423  155.7909 H   0  0  0  0  0  0  0  0  0  0  0  0  # atno 8009 bound_to 7997
  156.2250  140.2957  156.0054 H   0  0  0  0  0  0  0  0  0  0  0  0  # atno 8010 bound_to 7997
  140.2081  144.3918  150.6500 H   0  0  0  0  0  0  0  0  0  0  0  0  # atno 10167 bound_to 10162
  156.3521  130.4310  149.7696 H   0  0  0  0  0  0  0  0  0  0  0  0  # atno 10718 bound_to 10713
  153.9473  135.2973  155.3440 H   0  0  0  0  0  0  0  0  0  0  0  0  # atno 10763 bound_to 10752
  154.7445  135.5009  153.9183 H   0  0  0  0  0  0  0  0  0  0  0  0  # atno 10764 bound_to 10752
  153.1012  135.6734  153.9778 H   0  0  0  0  0  0  0  0  0  0  0  0  # atno 10765 bound_to 10752
  141.1167  133.8600  157.1425 H   0  0  0  0  0  0  0  0  0  0  0  0  # atno 11005 bound_to 11000
  144.7069  139.8523  143.7427 LP  0  0  0  0  0  0  0  0  0  0  0  0  # atno 17320 bound_to 7965
  146.1077  139.4079  143.0307 LP  0  0  0  0  0  0  0  0  0  0  0  0  # atno 17321 bound_to 7965
  140.6343  143.2192  151.6429 LP  0  0  0  0  0  0  0  0  0  0  0  0  # atno 17342 bound_to 10162
  139.5190  144.3265  152.0864 LP  0  0  0  0  0  0  0  0  0  0  0  0  # atno 17343 bound_to 10162
  156.4892  130.8077  151.3088 LP  0  0  0  0  0  0  0  0  0  0  0  0  # atno 17370 bound_to 10713
  157.7462  130.9981  150.2839 LP  0  0  0  0  0  0  0  0  0  0  0  0  # atno 17371 bound_to 10713
  140.0094  134.9994  157.0363 LP  0  0  0  0  0  0  0  0  0  0  0  0  # atno 17394 bound_to 11000
  140.4626  134.1469  155.7193 LP  0  0  0  0  0  0  0  0  0  0  0  0  # atno 17395 bound_to 11000

$$$$
