AV-unprocessed.smi:491|AV-procd|sdf|2707|dock7
  -GOLD-   2262023153D 1   1.00000     0.00000
 Structure written by MMmdl.
 45 46  0  0  0  0  0  0  0  0  1 V2000
  153.7993  141.7353  159.8902 C   0  0  0  0  0  0  0  0  0  0  0  0
  152.2854  141.6173  159.6591 C   0  0  0  0  0  0  0  0  0  0  0  0
  151.9551  140.9971  158.4024 N   0  0  0  0  0  0  0  0  0  0  0  0
  152.3340  139.7035  158.1104 C   0  0  0  0  0  0  0  0  0  0  0  0
  152.0339  139.1059  156.9391 C   0  0  0  0  0  0  0  0  0  0  0  0
  152.4374  137.7689  156.6532 C   0  0  0  0  0  0  0  0  0  0  0  0
  152.7442  136.6804  156.4077 N   0  0  0  0  0  0  0  0  0  0  0  0
  151.2806  139.8105  155.9049 C   0  0  0  0  0  0  0  0  0  0  0  0
  151.0041  139.3163  154.8108 O   0  0  0  0  0  0  0  0  0  0  0  0
  150.8858  141.1337  156.2295 N   0  0  0  0  0  0  0  0  0  0  0  0
  150.1413  141.9188  155.2159 C   0  0  0  0  0  0  0  0  0  0  0  0
  148.6817  141.4760  155.0047 C   0  0  0  0  0  0  0  0  0  0  0  0
  148.4127  140.2756  154.9882 O   0  0  0  0  0  0  0  0  0  0  0  0
  147.7538  142.4308  154.8379 N   0  0  0  0  0  0  0  0  0  0  0  0
  146.3365  142.2016  154.6010 C   0  0  0  0  0  0  0  0  0  0  0  0
  145.5578  143.5312  154.5845 C   0  0  0  0  0  0  0  0  0  0  0  0
  144.1810  143.3719  155.2609 C   0  0  0  0  0  0  0  0  0  0  0  0
  143.3944  144.6928  155.2698 C   0  0  0  0  0  0  0  0  0  0  0  0
  143.2340  145.2540  153.8489 C   0  0  0  0  0  0  0  0  0  0  0  0
  144.5995  145.4236  153.1659 C   0  0  0  0  0  0  0  0  0  0  0  0
  145.3891  144.1047  153.1583 C   0  0  0  0  0  0  0  0  0  0  0  0
  151.2099  141.7480  157.4640 C   0  0  0  0  0  0  0  0  0  0  0  0
  150.8601  142.9062  157.7046 O   0  0  0  0  0  0  0  0  0  0  0  0
  154.0063  142.2389  160.8344 H   0  0  0  0  0  0  0  0  0  0  0  0
  154.2743  142.3118  159.0960 H   0  0  0  0  0  0  0  0  0  0  0  0
  154.2786  140.7567  159.9268 H   0  0  0  0  0  0  0  0  0  0  0  0
  151.7822  141.0544  160.4476 H   0  0  0  0  0  0  0  0  0  0  0  0
  151.8222  142.6046  159.6366 H   0  0  0  0  0  0  0  0  0  0  0  0
  152.8937  139.1461  158.8479 H   0  0  0  0  0  0  0  0  0  0  0  0
  150.1408  142.9795  155.4710 H   0  0  0  0  0  0  0  0  0  0  0  0
  150.6464  141.8864  154.2494 H   0  0  0  0  0  0  0  0  0  0  0  0
  148.0581  143.3928  154.8661 H   0  0  0  0  0  0  0  0  0  0  0  0
  146.2136  141.6772  153.6521 H   0  0  0  0  0  0  0  0  0  0  0  0
  145.9420  141.5492  155.3819 H   0  0  0  0  0  0  0  0  0  0  0  0
  146.1302  144.2543  155.1684 H   0  0  0  0  0  0  0  0  0  0  0  0
  143.6008  142.6085  154.7403 H   0  0  0  0  0  0  0  0  0  0  0  0
  144.3066  143.0177  156.2848 H   0  0  0  0  0  0  0  0  0  0  0  0
  142.4136  144.5377  155.7203 H   0  0  0  0  0  0  0  0  0  0  0  0
  143.9105  145.4221  155.8958 H   0  0  0  0  0  0  0  0  0  0  0  0
  142.6100  144.5822  153.2581 H   0  0  0  0  0  0  0  0  0  0  0  0
  142.7129  146.2111  153.8830 H   0  0  0  0  0  0  0  0  0  0  0  0
  144.4623  145.7795  152.1444 H   0  0  0  0  0  0  0  0  0  0  0  0
  145.1754  146.1905  153.6856 H   0  0  0  0  0  0  0  0  0  0  0  0
  146.3611  144.2796  152.6960 H   0  0  0  0  0  0  0  0  0  0  0  0
  144.8760  143.3775  152.5277 H   0  0  0  0  0  0  0  0  0  0  0  0
  1  2  1  0  0  0  0
  1 24  1  0  0  0  0
  1 25  1  0  0  0  0
  1 26  1  0  0  0  0
  2  3  1  0  0  0  0
  2 27  1  0  0  0  0
  2 28  1  0  0  0  0
  3 22  1  0  0  0  0
  3  4  1  0  0  0  0
  4  5  2  0  0  0  0
  4 29  1  0  0  0  0
  5  6  1  0  0  0  0
  5  8  1  0  0  0  0
  6  7  3  0  0  0  0
  8  9  2  0  0  0  0
  8 10  1  0  0  0  0
 10 11  1  0  0  0  0
 10 22  1  0  0  0  0
 11 12  1  0  0  0  0
 11 30  1  0  0  0  0
 11 31  1  0  0  0  0
 12 13  2  0  0  0  0
 12 14  1  0  0  0  0
 14 15  1  0  0  0  0
 14 32  1  0  0  0  0
 15 16  1  0  0  0  0
 15 33  1  0  0  0  0
 15 34  1  0  0  0  0
 16 21  1  0  0  0  0
 16 17  1  0  0  0  0
 16 35  1  0  0  0  0
 17 18  1  0  0  0  0
 17 36  1  0  0  0  0
 17 37  1  0  0  0  0
 18 19  1  0  0  0  0
 18 38  1  0  0  0  0
 18 39  1  0  0  0  0
 19 20  1  0  0  0  0
 19 40  1  0  0  0  0
 19 41  1  0  0  0  0
 20 21  1  0  0  0  0
 20 42  1  0  0  0  0
 20 43  1  0  0  0  0
 21 44  1  0  0  0  0
 21 45  1  0  0  0  0
 22 23  2  0  0  0  0
M  END
> <s_m_source_file>
AV-unprocessed.smi

> <i_m_source_file_index>
491

> <i_lp_mmshare_version>
43012

> <i_f3d_flags>
0

> <s_epik_input>
W0NIM11bQ0gyXW4xW2NIXWMoQyNOKWMoPU8pbihjMT1PKVtDSDJdQyg9TylbTkhdW0NIMl1bQ0hdMltDSDJdW0NIMl1bQ0gyXVtDSDJdW0NIMl0y

> <s_epik_cmdline>
J2VwaWtfcHl0aG9uJywgJy1waCcsICc3LjAnLCAnLXRuJywgJzgnLCAnLW1hJywgJzIwMCcsICctbWV0YWxfYmluZGluZycsICctaW1hZScsICc8aW5maWxlLm1hZT4nLCAnLW9tYWUnLCAnPG91dGZpbGUubWFlPic=

> <r_lp_tautomer_probability>
1

> <r_epik_Ionization_Penalty>
1.98356e-08

> <r_epik_Ionization_Penalty_Charging>
3.77777e-11

> <r_epik_Ionization_Penalty_Neutral>
1.97978e-08

> <r_epik_State_Penalty>
-0

> <r_epik_Charging_Adjusted_Penalty>
3.77777e-11

> <i_epik_Tot_Q>
0

> <i_epik_Tot_abs_Q>
0

> <r_epik_Metal_State_Penalty>
-0

> <b_epik_Metal_Only>
0

> <s_lp_Force_Field>
OPLS_2005

> <r_lp_Energy>
13.3995

> <b_lp_Chiralities_Consistent>
1

> <s_lp_Variant>
AV-unprocessed.smi:491-1

> <Gold.Version>
5.8.1

> <Gold.Id.Protein>
6NUR|6NUR_protein|mol2

> <Gold.PLP.Fitness>
47.9656

> <Gold.PLP.PLP>
-41.1543

> <Gold.PLP.part.hbond>
-3.0000

> <Gold.PLP.part.metal>
0.0000

> <Gold.PLP.part.buried>
-5.7352

> <Gold.PLP.part.nonpolar>
-35.0646

> <Gold.PLP.part.repulsive>
0.3869

> <Gold.PLP.ligand.clash>
0.0000

> <Gold.PLP.ligand.torsion>
0.9071

> <Gold.PLP.Chemscore.Hbond>
2.8640

> <Gold.PLP.Chemscore.CHOScore>
0.0000

> <Gold.PLP.Chemscore.Metal>
0.0000

> <Gold.Chemscore.Hbonds>
donor molecule, donor type, donor heavy atom, donor atom, acceptor molecule, acceptor atom, score
      L1  H    14    32       P1  8028  1.00
      P1  H  7989  7998       L1     9  0.76
      P1  H 10752 10765       L1     7  1.00

> <Gold.PLP.Chemscore.Internal.Correction>
0.0335

> <Gold.Rescore>
     Score         DG    S(hbond)    S(metal)    S(lipo)     H(rot)  DE(clash)    DE(int)     intcor
     14.75     -19.08       2.65        0.00      83.25       1.95       0.87       3.46       ----

> <Gold.Chemscore.Fitness>
14.7466

> <Gold.Chemscore.DG>
-19.0764

> <Gold.Chemscore.ZeroCoef>
-5.4800

> <Gold.Chemscore.Hbond>
2.6459

> <Gold.Chemscore.Metal>
0.0000

> <Gold.Chemscore.Lipo>
83.2516

> <Gold.Chemscore.Internal_Hbond>
0.0000

> <Gold.Chemscore.DEClash>
0.8714

> <Gold.Chemscore.DEInternal>
3.4583

> <Gold.Chemscore.Rot>
1.9458

> <Gold.Chemscore.Internal.Correction>
   9.000000E+99

> <Gold.Chemscore.Hbonds>
donor molecule, donor type, donor heavy atom, donor atom, acceptor molecule, acceptor atom, score
      L1  H    14    32       P1  8028  0.83
      P1  H  7989  7998       L1     9  0.22
      P1  H 10752 10765       L1     7  0.94

> <Gold.Chemscore.Hbond.Weighted>
-8.8372

> <Gold.Chemscore.Metal.Weighted>
-0.0000

> <Gold.Chemscore.Lipo.Weighted>
-9.7404

> <Gold.Chemscore.Internal_Hbond.Weighted>
0.0000

> <Gold.Chemscore.DEClash.Weighted>
0.8714

> <Gold.Chemscore.DEInternal.Weighted>
3.4583

> <Gold.Chemscore.Rot.Weighted>
4.9813

> <Gold.Chemscore.Internal.Correction.Weighted>
   9.000000E+99

> <Gold.Protein.RotatedTorsions>
[ 6907 6896 6895 6894 ] final  145.15 input  -60.11 | X-H torsion
[ 7974 7965 7964 7962 ] final -174.41 input  175.53 | X-H torsion
[ 8008 7997 7996 7995 ] final  170.61 input   59.86 | X-H torsion
[ 10167 10162 10161 10158 ] final  165.70 input  -65.29 | X-H torsion
[ 10718 10713 10712 10709 ] final  -55.64 input   66.30 | X-H torsion
[ 10763 10752 10751 10750 ] final -141.43 input  -60.55 | X-H torsion
[ 11005 11000 10999 10996 ] final   30.83 input  -57.11 | X-H torsion

> <Gold.Protein.ActiveResidues>
 VAL166  LYS551  ARG553  GLY616  TRP617  ASP618  TYR619  PRO620  LYS621  CYS622 
 ASP623  PHE694  ASN695  SER759  ASP760  ASP761  ALA762  ILE779  LEU786  VAL792 
 PHE793  MET794  SER795  GLU796  ALA797  LYS798  CYS799  TRP800  GLU811  SER814 

> <Gold.Protein.RotatedAtoms>
  152.1846  133.4730  159.4975 H   0  0  0  0  0  0  0  0  0  0  0  0  # atno 6907 bound_to 6896
  150.6940  134.1790  159.4250 H   0  0  0  0  0  0  0  0  0  0  0  0  # atno 6908 bound_to 6896
  151.9702  135.0080  160.0603 H   0  0  0  0  0  0  0  0  0  0  0  0  # atno 6909 bound_to 6896
  144.7132  140.1475  143.6387 H   0  0  0  0  0  0  0  0  0  0  0  0  # atno 7974 bound_to 7965
  156.1349  140.1533  156.9009 H   0  0  0  0  0  0  0  0  0  0  0  0  # atno 8008 bound_to 7997
  154.4939  140.0843  156.7694 H   0  0  0  0  0  0  0  0  0  0  0  0  # atno 8009 bound_to 7997
  155.4187  140.3422  155.4272 H   0  0  0  0  0  0  0  0  0  0  0  0  # atno 8010 bound_to 7997
  139.4910  144.4105  151.9305 H   0  0  0  0  0  0  0  0  0  0  0  0  # atno 10167 bound_to 10162
  156.1352  130.4157  150.0198 H   0  0  0  0  0  0  0  0  0  0  0  0  # atno 10718 bound_to 10713
  154.8545  135.3524  154.5867 H   0  0  0  0  0  0  0  0  0  0  0  0  # atno 10763 bound_to 10752
  153.6477  135.6995  153.5224 H   0  0  0  0  0  0  0  0  0  0  0  0  # atno 10764 bound_to 10752
  153.2919  135.4232  155.1133 H   0  0  0  0  0  0  0  0  0  0  0  0  # atno 10765 bound_to 10752
  140.2902  134.2873  155.7778 H   0  0  0  0  0  0  0  0  0  0  0  0  # atno 11005 bound_to 11000
  145.9146  139.2508  143.1417 LP  0  0  0  0  0  0  0  0  0  0  0  0  # atno 17320 bound_to 7965
  145.9682  140.8781  143.0176 LP  0  0  0  0  0  0  0  0  0  0  0  0  # atno 17321 bound_to 7965
  140.3546  144.3047  150.5943 LP  0  0  0  0  0  0  0  0  0  0  0  0  # atno 17342 bound_to 10162
  140.5455  143.2215  151.8014 LP  0  0  0  0  0  0  0  0  0  0  0  0  # atno 17343 bound_to 10162
  156.8099  130.9321  151.3644 LP  0  0  0  0  0  0  0  0  0  0  0  0  # atno 17370 bound_to 10713
  157.6525  130.8897  149.9663 LP  0  0  0  0  0  0  0  0  0  0  0  0  # atno 17371 bound_to 10713
  141.2147  133.7580  156.9613 LP  0  0  0  0  0  0  0  0  0  0  0  0  # atno 17394 bound_to 11000
  140.1202  134.9421  157.2193 LP  0  0  0  0  0  0  0  0  0  0  0  0  # atno 17395 bound_to 11000

$$$$
