AV-unprocessed.smi:2448|AV-procd|sdf|9660|dock7
  -GOLD-   2272013293D 1   1.00000     0.00000
 Structure written by MMmdl.
 38 39  0  0  0  0  0  0  0  0  2 V2000
  149.8437  142.9686  157.7410 O   0  0  0  0  0  0  0  0  0  0  0  0
  151.2063  142.6258  157.9238 C   0  0  2  0  0  0  0  0  0  0  0  0
  151.4260  141.2084  157.3557 C   0  0  0  0  0  0  0  0  0  0  0  0
  151.4908  141.2114  155.8920 N   0  0  0  0  0  0  0  0  0  0  0  0
  150.9198  140.0468  155.1988 C   0  0  2  0  0  0  0  0  0  0  0  0
  149.5334  139.7736  155.8301 C   0  0  0  0  0  0  0  0  0  0  0  0
  148.3543  139.9610  154.8905 C   0  0  0  0  0  0  0  0  0  0  0  0
  148.0316  141.2418  154.3883 C   0  0  0  0  0  0  0  0  0  0  0  0
  146.9316  141.3836  153.5180 C   0  0  0  0  0  0  0  0  0  0  0  0
  146.2034  140.2994  153.1722 N   0  3  0  0  0  0  0  0  0  0  0  0
  146.4800  139.0571  153.6251 C   0  0  0  0  0  0  0  0  0  0  0  0
  147.5683  138.8544  154.4984 C   0  0  0  0  0  0  0  0  0  0  0  0
  151.8598  138.8087  155.2480 C   0  0  0  0  0  0  0  0  0  0  0  0
  151.3489  137.7812  154.5726 F   0  0  0  0  0  0  0  0  0  0  0  0
  153.0513  139.1134  154.7333 F   0  0  0  0  0  0  0  0  0  0  0  0
  152.0335  138.3881  156.5000 F   0  0  0  0  0  0  0  0  0  0  0  0
  151.4944  142.6833  159.4329 C   0  0  0  0  0  0  0  0  0  0  0  0
  151.5555  144.1580  159.8441 C   0  0  0  0  0  0  0  0  0  0  0  0
  152.2574  145.0831  158.4556 S   0  0  0  0  0  0  0  0  0  0  0  0
  152.1112  143.6998  157.2925 C   0  0  0  0  0  0  0  0  0  0  0  0
  149.7983  143.7235  157.1747 H   0  0  0  0  0  0  0  0  0  0  0  0
  152.3532  140.7994  157.7586 H   0  0  0  0  0  0  0  0  0  0  0  0
  150.6199  140.5675  157.7096 H   0  0  0  0  0  0  0  0  0  0  0  0
  151.0567  142.0596  155.5416 H   0  0  0  0  0  0  0  0  0  0  0  0
  150.7610  140.3115  154.1527 H   0  0  0  0  0  0  0  0  0  0  0  0
  149.5078  138.7648  156.2448 H   0  0  0  0  0  0  0  0  0  0  0  0
  149.3780  140.4465  156.6750 H   0  0  0  0  0  0  0  0  0  0  0  0
  148.6147  142.1075  154.6677 H   0  0  0  0  0  0  0  0  0  0  0  0
  146.6148  142.3241  153.0916 H   0  0  0  0  0  0  0  0  0  0  0  0
  145.8278  138.2691  153.2776 H   0  0  0  0  0  0  0  0  0  0  0  0
  147.7942  137.8624  154.8621 H   0  0  0  0  0  0  0  0  0  0  0  0
  150.7576  142.1316  160.0181 H   0  0  0  0  0  0  0  0  0  0  0  0
  152.4637  142.2249  159.6337 H   0  0  0  0  0  0  0  0  0  0  0  0
  150.5506  144.5372  160.0315 H   0  0  0  0  0  0  0  0  0  0  0  0
  152.1409  144.3078  160.7513 H   0  0  0  0  0  0  0  0  0  0  0  0
  153.1138  143.2985  157.1407 H   0  0  0  0  0  0  0  0  0  0  0  0
  151.7481  144.0414  156.3227 H   0  0  0  0  0  0  0  0  0  0  0  0
  145.4112  140.4244  152.5411 H   0  0  0  0  0  0  0  0  0  0  0  0
  1  2  1  0  0  0  0
  1 21  1  0  0  0  0
  2 20  1  0  0  0  0
  2  3  1  0  0  0  0
  2 17  1  0  0  0  0
  3  4  1  0  0  0  0
  3 22  1  0  0  0  0
  3 23  1  0  0  0  0
  4  5  1  0  0  0  0
  4 24  1  0  0  0  0
  5  6  1  0  0  0  0
  5 13  1  0  0  0  0
  5 25  1  0  0  0  0
  6  7  1  0  0  0  0
  6 26  1  0  0  0  0
  6 27  1  0  0  0  0
  7 12  1  0  0  0  0
  7  8  2  0  0  0  0
  8  9  1  0  0  0  0
  8 28  1  0  0  0  0
  9 10  2  0  0  0  0
  9 29  1  0  0  0  0
 10 11  1  0  0  0  0
 10 38  1  0  0  0  0
 11 12  2  0  0  0  0
 11 30  1  0  0  0  0
 12 31  1  0  0  0  0
 13 14  1  0  0  0  0
 13 15  1  0  0  0  0
 13 16  1  0  0  0  0
 17 18  1  0  0  0  0
 17 32  1  0  0  0  0
 17 33  1  0  0  0  0
 18 19  1  0  0  0  0
 18 34  1  0  0  0  0
 18 35  1  0  0  0  0
 19 20  1  0  0  0  0
 20 36  1  0  0  0  0
 20 37  1  0  0  0  0
M  CHG  1  10   1
M  END
> <s_m_source_file>
AV-unprocessed.smi

> <i_m_source_file_index>
2448

> <i_lp_mmshare_version>
43012

> <i_f3d_flags>
0

> <s_epik_input>
W0NIMl0xU1tDSDJdW0NIMl1bQ0BAXTEoW09IXSlbQ0gyXVtOSF1bQ0BASF0oQyhGKShGKUYpW0NIMl1jMltjSF1bY0hdbltjSF1bY0hdMg==

> <s_epik_cmdline>
J2VwaWtfcHl0aG9uJywgJy1waCcsICc3LjAnLCAnLXRuJywgJzgnLCAnLW1hJywgJzIwMCcsICctbWV0YWxfYmluZGluZycsICctaW1hZScsICc8aW5maWxlLm1hZT4nLCAnLW9tYWUnLCAnPG91dGZpbGUubWFlPic=

> <r_epik_Ionization_Penalty>
1.11129

> <r_epik_Ionization_Penalty_Charging>
1.08366

> <r_epik_Ionization_Penalty_Neutral>
0.0276276

> <r_epik_State_Penalty>
1.93785

> <r_epik_Charging_Adjusted_Penalty>
3.02151

> <i_epik_Tot_Q>
1

> <i_epik_Tot_abs_Q>
1

> <r_epik_Metal_State_Penalty>
5.97911

> <b_epik_Metal_Only>
0

> <s_lp_Force_Field>
OPLS_2005

> <r_lp_Energy>
38.3653

> <b_lp_Chiralities_Consistent>
1

> <s_lp_Variant>
AV-unprocessed.smi:2448-10

> <Gold.Version>
5.8.1

> <Gold.Id.Protein>
6NUR|6NUR_protein|mol2

> <Gold.PLP.Fitness>
41.9675

> <Gold.PLP.PLP>
-35.6025

> <Gold.PLP.part.hbond>
-2.8264

> <Gold.PLP.part.metal>
0.0000

> <Gold.PLP.part.buried>
-0.3022

> <Gold.PLP.part.nonpolar>
-32.4599

> <Gold.PLP.part.repulsive>
0.0000

> <Gold.PLP.ligand.clash>
0.0000

> <Gold.PLP.ligand.torsion>
1.3164

> <Gold.PLP.Chemscore.Hbond>
2.8560

> <Gold.PLP.Chemscore.CHOScore>
0.0000

> <Gold.PLP.Chemscore.Metal>
0.0000

> <Gold.Chemscore.Hbonds>
donor molecule, donor type, donor heavy atom, donor atom, acceptor molecule, acceptor atom, score
      L1  H     1    21       P1  8028  1.00
      L1  H    10    38       P1 10175  1.79

> <Gold.PLP.Chemscore.Internal.Correction>
0.4297

> <Gold.Rescore>
     Score         DG    S(hbond)    S(metal)    S(lipo)     H(rot)  DE(clash)    DE(int)     intcor
     14.40     -17.36       1.86        0.00     101.43       2.42       1.52       1.44       ----

> <Gold.Chemscore.Fitness>
14.4002

> <Gold.Chemscore.DG>
-17.3600

> <Gold.Chemscore.ZeroCoef>
-5.4800

> <Gold.Chemscore.Hbond>
1.8623

> <Gold.Chemscore.Metal>
0.0000

> <Gold.Chemscore.Lipo>
101.4293

> <Gold.Chemscore.Internal_Hbond>
0.0000

> <Gold.Chemscore.DEClash>
1.5215

> <Gold.Chemscore.DEInternal>
1.4383

> <Gold.Chemscore.Rot>
2.4247

> <Gold.Chemscore.Internal.Correction>
   9.000000E+99

> <Gold.Chemscore.Hbonds>
donor molecule, donor type, donor heavy atom, donor atom, acceptor molecule, acceptor atom, score
      L1  H     1    21       P1  8028  0.81
      L1  H    10    38       P1 10175  0.56

> <Gold.Chemscore.Hbond.Weighted>
-6.2200

> <Gold.Chemscore.Metal.Weighted>
-0.0000

> <Gold.Chemscore.Lipo.Weighted>
-11.8672

> <Gold.Chemscore.Internal_Hbond.Weighted>
0.0000

> <Gold.Chemscore.DEClash.Weighted>
1.5215

> <Gold.Chemscore.DEInternal.Weighted>
1.4383

> <Gold.Chemscore.Rot.Weighted>
6.2072

> <Gold.Chemscore.Internal.Correction.Weighted>
   9.000000E+99

> <Gold.Protein.RotatedTorsions>
[ 6907 6896 6895 6894 ] final  -93.22 input  -60.11 | X-H torsion
[ 7974 7965 7964 7962 ] final -122.34 input  175.53 | X-H torsion
[ 8008 7997 7996 7995 ] final  137.12 input   59.86 | X-H torsion
[ 10167 10162 10161 10158 ] final  -36.77 input  -65.29 | X-H torsion
[ 10718 10713 10712 10709 ] final  -44.55 input   66.30 | X-H torsion
[ 10763 10752 10751 10750 ] final  -18.92 input  -60.55 | X-H torsion
[ 11005 11000 10999 10996 ] final   54.09 input  -57.11 | X-H torsion

> <Gold.Protein.ActiveResidues>
 VAL166  LYS551  ARG553  GLY616  TRP617  ASP618  TYR619  PRO620  LYS621  CYS622 
 ASP623  PHE694  ASN695  SER759  ASP760  ASP761  ALA762  ILE779  LEU786  VAL792 
 PHE793  MET794  SER795  GLU796  ALA797  LYS798  CYS799  TRP800  GLU811  SER814 

> <Gold.Protein.RotatedAtoms>
  150.6919  134.2001  159.4318 H   0  0  0  0  0  0  0  0  0  0  0  0  # atno 6907 bound_to 6896
  151.9968  134.9947  160.0573 H   0  0  0  0  0  0  0  0  0  0  0  0  # atno 6908 bound_to 6896
  152.1616  133.4551  159.4901 H   0  0  0  0  0  0  0  0  0  0  0  0  # atno 6909 bound_to 6896
  145.0305  140.8063  143.4326 H   0  0  0  0  0  0  0  0  0  0  0  0  # atno 7974 bound_to 7965
  156.3003  140.2427  156.3857 H   0  0  0  0  0  0  0  0  0  0  0  0  # atno 8008 bound_to 7997
  154.8660  140.0418  157.1715 H   0  0  0  0  0  0  0  0  0  0  0  0  # atno 8009 bound_to 7997
  154.8845  140.2954  155.5409 H   0  0  0  0  0  0  0  0  0  0  0  0  # atno 8010 bound_to 7997
  140.7134  143.3386  151.2407 H   0  0  0  0  0  0  0  0  0  0  0  0  # atno 10167 bound_to 10162
  156.2374  130.4177  149.8802 H   0  0  0  0  0  0  0  0  0  0  0  0  # atno 10718 bound_to 10713
  153.5967  135.7000  153.5401 H   0  0  0  0  0  0  0  0  0  0  0  0  # atno 10763 bound_to 10752
  153.3132  135.4095  155.1353 H   0  0  0  0  0  0  0  0  0  0  0  0  # atno 10764 bound_to 10752
  154.8590  135.3677  154.5501 H   0  0  0  0  0  0  0  0  0  0  0  0  # atno 10765 bound_to 10752
  140.0715  134.5464  155.9042 H   0  0  0  0  0  0  0  0  0  0  0  0  # atno 11005 bound_to 11000
  145.1777  139.2369  143.5309 LP  0  0  0  0  0  0  0  0  0  0  0  0  # atno 17320 bound_to 7965
  146.3498  140.1543  142.8592 LP  0  0  0  0  0  0  0  0  0  0  0  0  # atno 17321 bound_to 7965
  139.6888  143.9728  152.2848 LP  0  0  0  0  0  0  0  0  0  0  0  0  # atno 17342 bound_to 10162
  139.9382  144.6698  150.8293 LP  0  0  0  0  0  0  0  0  0  0  0  0  # atno 17343 bound_to 10162
  156.6395  130.8699  151.3511 LP  0  0  0  0  0  0  0  0  0  0  0  0  # atno 17370 bound_to 10713
  157.7160  130.9498  150.1258 LP  0  0  0  0  0  0  0  0  0  0  0  0  # atno 17371 bound_to 10713
  141.2013  133.6618  156.5945 LP  0  0  0  0  0  0  0  0  0  0  0  0  # atno 17394 bound_to 11000
  140.3621  134.7679  157.4541 LP  0  0  0  0  0  0  0  0  0  0  0  0  # atno 17395 bound_to 11000

$$$$
