AV-unprocessed.smi:2079|AV-procd|sdf|8475|dock5
  -GOLD-   2272011173D 1   1.00000     0.00000
 Structure written by MMmdl.
 42 43  0  0  0  0  0  0  0  0  2 V2000
  137.9959  137.2813  154.0659 C   0  0  0  0  0  0  0  0  0  0  0  0
  139.4858  137.2517  154.0796 C   0  0  0  0  0  0  0  0  0  0  0  0
  140.4381  138.1482  153.6836 C   0  0  0  0  0  0  0  0  0  0  0  0
  141.6533  137.4794  153.9893 C   0  0  0  0  0  0  0  0  0  0  0  0
  142.9070  138.0901  153.7309 N   0  0  0  0  0  0  0  0  0  0  0  0
  144.1122  137.7013  154.1809 C   0  0  0  0  0  0  0  0  0  0  0  0
  144.3226  136.7139  154.8860 O   0  0  0  0  0  0  0  0  0  0  0  0
  145.0832  138.5276  153.7645 N   0  0  0  0  0  0  0  0  0  0  0  0
  146.4934  138.3894  154.1113 C   0  0  0  0  0  0  0  0  0  0  0  0
  147.4060  139.0298  153.0435 C   0  0  0  0  0  0  0  0  0  0  0  0
  148.6655  139.6034  153.6010 N   0  3  2  0  0  0  0  0  0  0  0  0
  149.5516  138.5510  154.1794 C   0  0  0  0  0  0  0  0  0  0  0  0
  150.9016  139.1192  154.6393 C   0  0  0  0  0  0  0  0  0  0  0  0
  150.6950  140.2385  155.6586 C   0  0  0  0  0  0  0  0  0  0  0  0
  149.7912  141.3126  155.0501 C   0  0  0  0  0  0  0  0  0  0  0  0
  148.4440  140.7295  154.5690 C   0  0  1  0  0  0  0  0  0  0  0  0
  147.5911  141.8784  153.9906 C   0  0  0  0  0  0  0  0  0  0  0  0
  141.4602  136.2816  154.5198 N   0  0  0  0  0  0  0  0  0  0  0  0
  140.0699  136.1298  154.5812 O   0  0  0  0  0  0  0  0  0  0  0  0
  137.6281  138.1159  153.4687 H   0  0  0  0  0  0  0  0  0  0  0  0
  137.6040  137.3899  155.0771 H   0  0  0  0  0  0  0  0  0  0  0  0
  137.5936  136.3604  153.6436 H   0  0  0  0  0  0  0  0  0  0  0  0
  140.2859  139.1251  153.2488 H   0  0  0  0  0  0  0  0  0  0  0  0
  142.8799  138.9190  153.1559 H   0  0  0  0  0  0  0  0  0  0  0  0
  144.8272  139.3157  153.1872 H   0  0  0  0  0  0  0  0  0  0  0  0
  146.6195  138.8707  155.0799 H   0  0  0  0  0  0  0  0  0  0  0  0
  146.7414  137.3352  154.2477 H   0  0  0  0  0  0  0  0  0  0  0  0
  147.6415  138.2467  152.3274 H   0  0  0  0  0  0  0  0  0  0  0  0
  146.8649  139.8001  152.4920 H   0  0  0  0  0  0  0  0  0  0  0  0
  149.0446  138.0684  155.0166 H   0  0  0  0  0  0  0  0  0  0  0  0
  149.7605  137.7734  153.4474 H   0  0  0  0  0  0  0  0  0  0  0  0
  151.5106  138.3268  155.0754 H   0  0  0  0  0  0  0  0  0  0  0  0
  151.4552  139.4984  153.7792 H   0  0  0  0  0  0  0  0  0  0  0  0
  150.2410  139.8389  156.5665 H   0  0  0  0  0  0  0  0  0  0  0  0
  151.6541  140.6687  155.9480 H   0  0  0  0  0  0  0  0  0  0  0  0
  149.6187  142.0952  155.7900 H   0  0  0  0  0  0  0  0  0  0  0  0
  150.3062  141.7893  154.2146 H   0  0  0  0  0  0  0  0  0  0  0  0
  147.9196  140.3258  155.4369 H   0  0  0  0  0  0  0  0  0  0  0  0
  147.5979  142.7413  154.6572 H   0  0  0  0  0  0  0  0  0  0  0  0
  146.5438  141.6021  153.8732 H   0  0  0  0  0  0  0  0  0  0  0  0
  147.9706  142.2095  153.0232 H   0  0  0  0  0  0  0  0  0  0  0  0
  149.1635  140.0029  152.8182 H   0  0  0  0  0  0  0  0  0  0  0  0
  1  2  1  0  0  0  0
  1 20  1  0  0  0  0
  1 21  1  0  0  0  0
  1 22  1  0  0  0  0
  2 19  1  0  0  0  0
  2  3  2  0  0  0  0
  3  4  1  0  0  0  0
  3 23  1  0  0  0  0
  4  5  1  0  0  0  0
  4 18  2  0  0  0  0
  5  6  1  0  0  0  0
  5 24  1  0  0  0  0
  6  7  2  0  0  0  0
  6  8  1  0  0  0  0
  8  9  1  0  0  0  0
  8 25  1  0  0  0  0
  9 10  1  0  0  0  0
  9 26  1  0  0  0  0
  9 27  1  0  0  0  0
 10 11  1  0  0  0  0
 10 28  1  0  0  0  0
 10 29  1  0  0  0  0
 11 16  1  0  0  0  0
 11 12  1  0  0  0  0
 11 42  1  0  0  0  0
 12 13  1  0  0  0  0
 12 30  1  0  0  0  0
 12 31  1  0  0  0  0
 13 14  1  0  0  0  0
 13 32  1  0  0  0  0
 13 33  1  0  0  0  0
 14 15  1  0  0  0  0
 14 34  1  0  0  0  0
 14 35  1  0  0  0  0
 15 16  1  0  0  0  0
 15 36  1  0  0  0  0
 15 37  1  0  0  0  0
 16 17  1  0  0  0  0
 16 38  1  0  0  0  0
 17 39  1  0  0  0  0
 17 40  1  0  0  0  0
 17 41  1  0  0  0  0
 18 19  1  0  0  0  0
M  CHG  1  11   1
M  END
> <s_m_source_file>
AV-unprocessed.smi

> <i_m_source_file_index>
2079

> <i_lp_mmshare_version>
43012

> <i_f3d_flags>
0

> <s_epik_input>
W0NIM11jMVtjSF1jKG5vMSlbTkhdQyg9TylbTkhdW0NIMl1bQ0gyXU4yW0NIMl1bQ0gyXVtDSDJdW0NIMl1bQ0BIXTJbQ0gzXQ==

> <s_epik_cmdline>
J2VwaWtfcHl0aG9uJywgJy1waCcsICc3LjAnLCAnLXRuJywgJzgnLCAnLW1hJywgJzIwMCcsICctbWV0YWxfYmluZGluZycsICctaW1hZScsICc8aW5maWxlLm1hZT4nLCAnLW9tYWUnLCAnPG91dGZpbGUubWFlPic=

> <r_epik_Ionization_Penalty>
0.00265971

> <r_epik_Ionization_Penalty_Charging>
0.00262393

> <r_epik_Ionization_Penalty_Neutral>
3.57846e-05

> <r_epik_State_Penalty>
0.00182566

> <r_epik_Charging_Adjusted_Penalty>
0.00444959

> <i_epik_Tot_Q>
1

> <i_epik_Tot_abs_Q>
1

> <r_epik_Metal_State_Penalty>
0.0216344

> <b_epik_Metal_Only>
0

> <s_lp_Force_Field>
OPLS_2005

> <r_lp_Energy>
17.1717

> <b_lp_Chiralities_Consistent>
1

> <s_lp_Variant>
AV-unprocessed.smi:2079-1

> <Gold.Version>
5.8.1

> <Gold.Id.Protein>
6NUR|6NUR_protein|mol2

> <Gold.PLP.Fitness>
46.0142

> <Gold.PLP.PLP>
-34.9838

> <Gold.PLP.part.hbond>
-4.2834

> <Gold.PLP.part.metal>
0.0000

> <Gold.PLP.part.buried>
-3.2801

> <Gold.PLP.part.nonpolar>
-27.1958

> <Gold.PLP.part.repulsive>
0.2542

> <Gold.PLP.ligand.clash>
0.0000

> <Gold.PLP.ligand.torsion>
0.4344

> <Gold.PLP.Chemscore.Hbond>
3.9600

> <Gold.PLP.Chemscore.CHOScore>
0.0000

> <Gold.PLP.Chemscore.Metal>
0.0000

> <Gold.Chemscore.Hbonds>
donor molecule, donor type, donor heavy atom, donor atom, acceptor molecule, acceptor atom, score
      L1  H     5    24       P1 10175  1.00
      L1  H     8    25       P1 10175  1.00
      L1  H    11    42       P1  7957  1.00
      P1  H 11000 11005       L1    19  0.90

> <Gold.PLP.Chemscore.Internal.Correction>
0.0191

> <Gold.Rescore>
     Score         DG    S(hbond)    S(metal)    S(lipo)     H(rot)  DE(clash)    DE(int)     intcor
     20.11     -21.92       3.55        0.00      73.38       1.57       0.18       1.63       ----

> <Gold.Chemscore.Fitness>
20.1088

> <Gold.Chemscore.DG>
-21.9190

> <Gold.Chemscore.ZeroCoef>
-5.4800

> <Gold.Chemscore.Hbond>
3.5545

> <Gold.Chemscore.Metal>
0.0000

> <Gold.Chemscore.Lipo>
73.3811

> <Gold.Chemscore.Internal_Hbond>
0.0000

> <Gold.Chemscore.DEClash>
0.1752

> <Gold.Chemscore.DEInternal>
1.6349

> <Gold.Chemscore.Rot>
1.5697

> <Gold.Chemscore.Internal.Correction>
   9.000000E+99

> <Gold.Chemscore.Hbonds>
donor molecule, donor type, donor heavy atom, donor atom, acceptor molecule, acceptor atom, score
      L1  H     5    24       P1 10175  0.97
      L1  H     8    25       P1 10175  0.98
      L1  H    11    42       P1  7957  0.96
      P1  H 11000 11005       L1    19  0.17

> <Gold.Chemscore.Hbond.Weighted>
-11.8719

> <Gold.Chemscore.Metal.Weighted>
-0.0000

> <Gold.Chemscore.Lipo.Weighted>
-8.5856

> <Gold.Chemscore.Internal_Hbond.Weighted>
0.0000

> <Gold.Chemscore.DEClash.Weighted>
0.1752

> <Gold.Chemscore.DEInternal.Weighted>
1.6349

> <Gold.Chemscore.Rot.Weighted>
4.0185

> <Gold.Chemscore.Internal.Correction.Weighted>
   9.000000E+99

> <Gold.Protein.RotatedTorsions>
[ 6907 6896 6895 6894 ] final -179.61 input  -60.11 | X-H torsion
[ 7974 7965 7964 7962 ] final   53.22 input  175.53 | X-H torsion
[ 8008 7997 7996 7995 ] final  -18.57 input   59.86 | X-H torsion
[ 10167 10162 10161 10158 ] final   49.85 input  -65.29 | X-H torsion
[ 10718 10713 10712 10709 ] final  143.12 input   66.30 | X-H torsion
[ 10763 10752 10751 10750 ] final  150.84 input  -60.55 | X-H torsion
[ 11005 11000 10999 10996 ] final   63.46 input  -57.11 | X-H torsion

> <Gold.Protein.ActiveResidues>
 VAL166  LYS551  ARG553  GLY616  TRP617  ASP618  TYR619  PRO620  LYS621  CYS622 
 ASP623  PHE694  ASN695  SER759  ASP760  ASP761  ALA762  ILE779  LEU786  VAL792 
 PHE793  MET794  SER795  GLU796  ALA797  LYS798  CYS799  TRP800  GLU811  SER814 

> <Gold.Protein.RotatedAtoms>
  151.6562  133.3319  159.3163 H   0  0  0  0  0  0  0  0  0  0  0  0  # atno 6907 bound_to 6896
  150.7936  134.6982  159.6544 H   0  0  0  0  0  0  0  0  0  0  0  0  # atno 6908 bound_to 6896
  152.4019  134.6275  160.0118 H   0  0  0  0  0  0  0  0  0  0  0  0  # atno 6909 bound_to 6896
  145.9734  139.4171  143.0176 H   0  0  0  0  0  0  0  0  0  0  0  0  # atno 7974 bound_to 7965
  154.4897  140.2112  155.9577 H   0  0  0  0  0  0  0  0  0  0  0  0  # atno 8008 bound_to 7997
  156.1287  140.3201  155.8284 H   0  0  0  0  0  0  0  0  0  0  0  0  # atno 8009 bound_to 7997
  155.4336  140.0505  157.3007 H   0  0  0  0  0  0  0  0  0  0  0  0  # atno 8010 bound_to 7997
  140.2786  144.3182  150.6270 H   0  0  0  0  0  0  0  0  0  0  0  0  # atno 10167 bound_to 10162
  157.3727  131.0981  151.0813 H   0  0  0  0  0  0  0  0  0  0  0  0  # atno 10718 bound_to 10713
  154.0941  135.2850  155.3265 H   0  0  0  0  0  0  0  0  0  0  0  0  # atno 10763 bound_to 10752
  154.6600  135.5338  153.8009 H   0  0  0  0  0  0  0  0  0  0  0  0  # atno 10764 bound_to 10752
  153.0403  135.6531  154.1108 H   0  0  0  0  0  0  0  0  0  0  0  0  # atno 10765 bound_to 10752
  140.0023  134.6423  155.9910 H   0  0  0  0  0  0  0  0  0  0  0  0  # atno 11005 bound_to 11000
  145.7874  140.9830  143.1067 LP  0  0  0  0  0  0  0  0  0  0  0  0  # atno 17320 bound_to 7965
  144.6842  139.9639  143.7481 LP  0  0  0  0  0  0  0  0  0  0  0  0  # atno 17321 bound_to 7965
  140.5830  143.2171  151.7393 LP  0  0  0  0  0  0  0  0  0  0  0  0  # atno 17342 bound_to 10162
  139.4969  144.4052  152.0139 LP  0  0  0  0  0  0  0  0  0  0  0  0  # atno 17343 bound_to 10162
  157.1911  130.6352  149.5705 LP  0  0  0  0  0  0  0  0  0  0  0  0  # atno 17370 bound_to 10713
  155.9759  130.4722  150.6490 LP  0  0  0  0  0  0  0  0  0  0  0  0  # atno 17371 bound_to 10713
  141.1651  133.6537  156.4452 LP  0  0  0  0  0  0  0  0  0  0  0  0  # atno 17394 bound_to 11000
  140.4704  134.6758  157.5127 LP  0  0  0  0  0  0  0  0  0  0  0  0  # atno 17395 bound_to 11000

$$$$
