AV-unprocessed.smi:2349|AV-procd|sdf|9371|dock9
  -GOLD-   2272012593D 1   1.00000     0.00000
 Structure written by MMmdl.
 52 53  0  0  0  0  0  0  0  0  1 V2000
  146.7222  129.8148  152.9196 C   0  0  0  0  0  0  0  0  0  0  0  0
  147.5636  131.0053  153.3293 C   0  0  0  0  0  0  0  0  0  0  0  0
  147.3618  132.2714  152.7406 C   0  0  0  0  0  0  0  0  0  0  0  0
  148.1737  133.3429  153.1598 C   0  0  0  0  0  0  0  0  0  0  0  0
  149.1534  133.1085  154.1460 C   0  0  0  0  0  0  0  0  0  0  0  0
  150.0433  134.2356  154.6417 C   0  0  0  0  0  0  0  0  0  0  0  0
  149.6266  134.7783  156.0193 C   0  0  0  0  0  0  0  0  0  0  0  0
  149.4201  136.2201  155.9793 N   0  0  0  0  0  0  0  0  0  0  0  0
  150.2611  137.1097  155.4301 C   0  0  0  0  0  0  0  0  0  0  0  0
  151.3256  136.7684  154.9126 O   0  0  0  0  0  0  0  0  0  0  0  0
  149.8377  138.3981  155.4893 N   0  0  0  0  0  0  0  0  0  0  0  0
  148.8530  138.9524  156.4337 C   0  0  0  0  0  0  0  0  0  0  0  0
  149.5950  139.8197  157.4655 C   0  0  0  0  0  0  0  0  0  0  0  0
  150.4022  140.9451  156.7794 C   0  0  0  0  0  0  0  0  0  0  0  0
  151.2154  141.7507  157.8206 C   0  0  0  0  0  0  0  0  0  0  0  0
  152.4180  141.0038  158.4332 C   0  0  0  0  0  0  0  0  0  0  0  0
  152.8195  139.9683  157.8989 O   0  0  0  0  0  0  0  0  0  0  0  0
  153.0062  141.5119  159.5415 N   0  0  0  0  0  0  0  0  0  0  0  0
  152.5459  142.7749  160.1234 C   0  0  0  0  0  0  0  0  0  0  0  0
  154.0996  140.8442  160.2524 C   0  0  0  0  0  0  0  0  0  0  0  0
  151.2839  140.3645  155.6450 C   0  0  0  0  0  0  0  0  0  0  0  0
  150.4673  139.4632  154.7007 C   0  0  0  0  0  0  0  0  0  0  0  0
  149.2767  131.8026  154.6673 C   0  0  0  0  0  0  0  0  0  0  0  0
  148.5005  130.7702  154.2744 N   0  0  0  0  0  0  0  0  0  0  0  0
  145.8995  130.1169  152.2709 H   0  0  0  0  0  0  0  0  0  0  0  0
  146.2991  129.3252  153.7972 H   0  0  0  0  0  0  0  0  0  0  0  0
  147.3325  129.0893  152.3812 H   0  0  0  0  0  0  0  0  0  0  0  0
  146.6030  132.4213  151.9866 H   0  0  0  0  0  0  0  0  0  0  0  0
  148.0433  134.3271  152.7343 H   0  0  0  0  0  0  0  0  0  0  0  0
  151.0731  133.8784  154.6860 H   0  0  0  0  0  0  0  0  0  0  0  0
  150.0344  135.0435  153.9091 H   0  0  0  0  0  0  0  0  0  0  0  0
  148.7201  134.2750  156.3587 H   0  0  0  0  0  0  0  0  0  0  0  0
  150.4055  134.5629  156.7522 H   0  0  0  0  0  0  0  0  0  0  0  0
  148.5631  136.5684  156.3838 H   0  0  0  0  0  0  0  0  0  0  0  0
  148.1345  139.5625  155.8844 H   0  0  0  0  0  0  0  0  0  0  0  0
  148.2532  138.1996  156.9452 H   0  0  0  0  0  0  0  0  0  0  0  0
  148.8778  140.2491  158.1660 H   0  0  0  0  0  0  0  0  0  0  0  0
  150.2625  139.1887  158.0545 H   0  0  0  0  0  0  0  0  0  0  0  0
  149.6718  141.6136  156.3203 H   0  0  0  0  0  0  0  0  0  0  0  0
  151.6029  142.6566  157.3534 H   0  0  0  0  0  0  0  0  0  0  0  0
  150.5358  142.0738  158.6096 H   0  0  0  0  0  0  0  0  0  0  0  0
  152.3706  143.5273  159.3528 H   0  0  0  0  0  0  0  0  0  0  0  0
  153.2726  143.1996  160.8167 H   0  0  0  0  0  0  0  0  0  0  0  0
  151.6129  142.6209  160.6671 H   0  0  0  0  0  0  0  0  0  0  0  0
  153.8962  139.7814  160.3896 H   0  0  0  0  0  0  0  0  0  0  0  0
  154.2580  141.2604  161.2476 H   0  0  0  0  0  0  0  0  0  0  0  0
  155.0327  140.9491  159.6977 H   0  0  0  0  0  0  0  0  0  0  0  0
  151.7445  141.1649  155.0662 H   0  0  0  0  0  0  0  0  0  0  0  0
  152.1034  139.7864  156.0746 H   0  0  0  0  0  0  0  0  0  0  0  0
  151.1104  139.0782  153.9080 H   0  0  0  0  0  0  0  0  0  0  0  0
  149.6963  140.0476  154.1966 H   0  0  0  0  0  0  0  0  0  0  0  0
  150.0098  131.5810  155.4290 H   0  0  0  0  0  0  0  0  0  0  0  0
  1  2  1  0  0  0  0
  1 25  1  0  0  0  0
  1 26  1  0  0  0  0
  1 27  1  0  0  0  0
  2 24  1  0  0  0  0
  2  3  2  0  0  0  0
  3  4  1  0  0  0  0
  3 28  1  0  0  0  0
  4  5  2  0  0  0  0
  4 29  1  0  0  0  0
  5  6  1  0  0  0  0
  5 23  1  0  0  0  0
  6  7  1  0  0  0  0
  6 30  1  0  0  0  0
  6 31  1  0  0  0  0
  7  8  1  0  0  0  0
  7 32  1  0  0  0  0
  7 33  1  0  0  0  0
  8  9  1  0  0  0  0
  8 34  1  0  0  0  0
  9 10  2  0  0  0  0
  9 11  1  0  0  0  0
 11 22  1  0  0  0  0
 11 12  1  0  0  0  0
 12 13  1  0  0  0  0
 12 35  1  0  0  0  0
 12 36  1  0  0  0  0
 13 14  1  0  0  0  0
 13 37  1  0  0  0  0
 13 38  1  0  0  0  0
 14 15  1  0  0  0  0
 14 21  1  0  0  0  0
 14 39  1  0  0  0  0
 15 16  1  0  0  0  0
 15 40  1  0  0  0  0
 15 41  1  0  0  0  0
 16 17  2  0  0  0  0
 16 18  1  0  0  0  0
 18 19  1  0  0  0  0
 18 20  1  0  0  0  0
 19 42  1  0  0  0  0
 19 43  1  0  0  0  0
 19 44  1  0  0  0  0
 20 45  1  0  0  0  0
 20 46  1  0  0  0  0
 20 47  1  0  0  0  0
 21 22  1  0  0  0  0
 21 48  1  0  0  0  0
 21 49  1  0  0  0  0
 22 50  1  0  0  0  0
 22 51  1  0  0  0  0
 23 24  2  0  0  0  0
 23 52  1  0  0  0  0
M  END
> <s_m_source_file>
AV-unprocessed.smi

> <i_m_source_file_index>
2349

> <i_lp_mmshare_version>
43012

> <i_f3d_flags>
0

> <s_epik_input>
W0NIM11jMVtjSF1bY0hdYyhbY0hdbjEpW0NIMl1bQ0gyXVtOSF1DKD1PKU4yW0NIMl1bQ0gyXVtDSF0oW0NIMl1bQ0gyXTIpW0NIMl1DKD1PKU4oW0NIM10pW0NIM10=

> <s_epik_cmdline>
J2VwaWtfcHl0aG9uJywgJy1waCcsICc3LjAnLCAnLXRuJywgJzgnLCAnLW1hJywgJzIwMCcsICctbWV0YWxfYmluZGluZycsICctaW1hZScsICc8aW5maWxlLm1hZT4nLCAnLW9tYWUnLCAnPG91dGZpbGUubWFlPic=

> <r_epik_Ionization_Penalty>
0.0570544

> <r_epik_Ionization_Penalty_Charging>
0

> <r_epik_Ionization_Penalty_Neutral>
0.0570544

> <r_epik_State_Penalty>
0.0491874

> <r_epik_Charging_Adjusted_Penalty>
0.0491874

> <i_epik_Tot_Q>
0

> <i_epik_Tot_abs_Q>
0

> <r_epik_Metal_State_Penalty>
0.0448474

> <b_epik_Metal_Only>
0

> <s_lp_Force_Field>
OPLS_2005

> <r_lp_Energy>
37.0132

> <b_lp_Chiralities_Consistent>
1

> <s_lp_Variant>
AV-unprocessed.smi:2349-1

> <Gold.Version>
5.8.1

> <Gold.Id.Protein>
6NUR|6NUR_protein|mol2

> <Gold.PLP.Fitness>
46.8489

> <Gold.PLP.PLP>
-42.7675

> <Gold.PLP.part.hbond>
-2.0000

> <Gold.PLP.part.metal>
0.0000

> <Gold.PLP.part.buried>
-3.3526

> <Gold.PLP.part.nonpolar>
-37.5641

> <Gold.PLP.part.repulsive>
0.1943

> <Gold.PLP.ligand.clash>
0.0000

> <Gold.PLP.ligand.torsion>
1.0147

> <Gold.PLP.Chemscore.Hbond>
2.0000

> <Gold.PLP.Chemscore.CHOScore>
0.0000

> <Gold.PLP.Chemscore.Metal>
0.0000

> <Gold.Chemscore.Hbonds>
donor molecule, donor type, donor heavy atom, donor atom, acceptor molecule, acceptor atom, score
      P1  H  7997  8008       L1    17  1.00
      P1  H 10752 10765       L1    10  1.00

> <Gold.PLP.Chemscore.Internal.Correction>
0.1109

> <Gold.Rescore>
     Score         DG    S(hbond)    S(metal)    S(lipo)     H(rot)  DE(clash)    DE(int)     intcor
     15.19     -19.09       1.95        0.00      96.86       1.66       0.09       3.81       ----

> <Gold.Chemscore.Fitness>
15.1878

> <Gold.Chemscore.DG>
-19.0852

> <Gold.Chemscore.ZeroCoef>
-5.4800

> <Gold.Chemscore.Hbond>
1.9535

> <Gold.Chemscore.Metal>
0.0000

> <Gold.Chemscore.Lipo>
96.8647

> <Gold.Chemscore.Internal_Hbond>
0.0000

> <Gold.Chemscore.DEClash>
0.0866

> <Gold.Chemscore.DEInternal>
3.8108

> <Gold.Chemscore.Rot>
1.6612

> <Gold.Chemscore.Internal.Correction>
   9.000000E+99

> <Gold.Chemscore.Hbonds>
donor molecule, donor type, donor heavy atom, donor atom, acceptor molecule, acceptor atom, score
      P1  H  7997  8008       L1    17  0.91
      P1  H 10752 10765       L1    10  0.95

> <Gold.Chemscore.Hbond.Weighted>
-6.5248

> <Gold.Chemscore.Metal.Weighted>
-0.0000

> <Gold.Chemscore.Lipo.Weighted>
-11.3332

> <Gold.Chemscore.Internal_Hbond.Weighted>
0.0000

> <Gold.Chemscore.DEClash.Weighted>
0.0866

> <Gold.Chemscore.DEInternal.Weighted>
3.8108

> <Gold.Chemscore.Rot.Weighted>
4.2528

> <Gold.Chemscore.Internal.Correction.Weighted>
   9.000000E+99

> <Gold.Protein.RotatedTorsions>
[ 6907 6896 6895 6894 ] final   25.25 input  -60.11 | X-H torsion
[ 7974 7965 7964 7962 ] final -127.49 input  175.53 | X-H torsion
[ 8008 7997 7996 7995 ] final  -81.48 input   59.86 | X-H torsion
[ 10167 10162 10161 10158 ] final  -42.49 input  -65.29 | X-H torsion
[ 10718 10713 10712 10709 ] final  136.75 input   66.30 | X-H torsion
[ 10763 10752 10751 10750 ] final  176.66 input  -60.55 | X-H torsion
[ 11005 11000 10999 10996 ] final  -82.80 input  -57.11 | X-H torsion

> <Gold.Protein.ActiveResidues>
 VAL166  LYS551  ARG553  GLY616  TRP617  ASP618  TYR619  PRO620  LYS621  CYS622 
 ASP623  PHE694  ASN695  SER759  ASP760  ASP761  ALA762  ILE779  LEU786  VAL792 
 PHE793  MET794  SER795  GLU796  ALA797  LYS798  CYS799  TRP800  GLU811  SER814 

> <Gold.Protein.RotatedAtoms>
  151.9697  135.0083  160.0551 H   0  0  0  0  0  0  0  0  0  0  0  0  # atno 6907 bound_to 6896
  152.1794  133.4692  159.4958 H   0  0  0  0  0  0  0  0  0  0  0  0  # atno 6908 bound_to 6896
  150.6915  134.1770  159.4277 H   0  0  0  0  0  0  0  0  0  0  0  0  # atno 6909 bound_to 6896
  144.9765  140.7598  143.4638 H   0  0  0  0  0  0  0  0  0  0  0  0  # atno 7974 bound_to 7965
  154.5987  140.0647  156.9339 H   0  0  0  0  0  0  0  0  0  0  0  0  # atno 8008 bound_to 7997
  155.2169  140.3327  155.4302 H   0  0  0  0  0  0  0  0  0  0  0  0  # atno 8009 bound_to 7997
  156.2304  140.1838  156.7240 H   0  0  0  0  0  0  0  0  0  0  0  0  # atno 8010 bound_to 7997
  140.6967  143.3035  151.3216 H   0  0  0  0  0  0  0  0  0  0  0  0  # atno 10167 bound_to 10162
  157.4434  131.1059  151.0117 H   0  0  0  0  0  0  0  0  0  0  0  0  # atno 10718 bound_to 10713
  154.4842  135.2776  155.1547 H   0  0  0  0  0  0  0  0  0  0  0  0  # atno 10763 bound_to 10752
  154.3245  135.6203  153.5527 H   0  0  0  0  0  0  0  0  0  0  0  0  # atno 10764 bound_to 10752
  152.9879  135.5750  154.5249 H   0  0  0  0  0  0  0  0  0  0  0  0  # atno 10765 bound_to 10752
  141.1661  133.7262  156.8625 H   0  0  0  0  0  0  0  0  0  0  0  0  # atno 11005 bound_to 11000
  145.2482  139.2043  143.4956 LP  0  0  0  0  0  0  0  0  0  0  0  0  # atno 17320 bound_to 7965
  146.3397  140.2390  142.8595 LP  0  0  0  0  0  0  0  0  0  0  0  0  # atno 17321 bound_to 7965
  139.6432  144.0500  152.2570 LP  0  0  0  0  0  0  0  0  0  0  0  0  # atno 17342 bound_to 10162
  140.0012  144.6291  150.7728 LP  0  0  0  0  0  0  0  0  0  0  0  0  # atno 17343 bound_to 10162
  157.0972  130.5967  149.5452 LP  0  0  0  0  0  0  0  0  0  0  0  0  # atno 17370 bound_to 10713
  155.9958  130.5025  150.7471 LP  0  0  0  0  0  0  0  0  0  0  0  0  # atno 17371 bound_to 10713
  140.1838  134.9014  157.2980 LP  0  0  0  0  0  0  0  0  0  0  0  0  # atno 17394 bound_to 11000
  140.2365  134.3846  155.7499 LP  0  0  0  0  0  0  0  0  0  0  0  0  # atno 17395 bound_to 11000

$$$$
