AV-unprocessed.smi:356|AV-procd|sdf|2408|dock9
  -GOLD-   2262022343D 1   1.00000     0.00000
 Structure written by MMmdl.
 41 43  0  0  0  0  0  0  0  0  1 V2000
  151.9528  139.0409  155.3638 C   0  0  0  0  0  0  0  0  0  0  0  0
  151.9081  140.0913  156.4282 C   0  0  0  0  0  0  0  0  0  0  0  0
  152.7057  140.0564  157.4958 N   0  0  0  0  0  0  0  0  0  0  0  0
  152.3272  141.1878  158.1929 C   0  0  0  0  0  0  0  0  0  0  0  0
  152.8010  141.7133  159.4164 C   0  0  0  0  0  0  0  0  0  0  0  0
  152.2544  142.9024  159.9417 C   0  0  0  0  0  0  0  0  0  0  0  0
  151.2283  143.5816  159.2534 C   0  0  0  0  0  0  0  0  0  0  0  0
  150.7408  143.0748  158.0334 C   0  0  0  0  0  0  0  0  0  0  0  0
  151.2898  141.8875  157.5126 C   0  0  0  0  0  0  0  0  0  0  0  0
  151.0485  141.1376  156.3652 N   0  0  0  0  0  0  0  0  0  0  0  0
  150.0721  141.4282  155.3246 C   0  0  0  0  0  0  0  0  0  0  0  0
  148.6320  141.0676  155.7445 C   0  0  2  0  0  0  0  0  0  0  0  0
  148.5729  139.6987  156.0907 O   0  0  0  0  0  0  0  0  0  0  0  0
  147.6048  141.3155  154.6216 C   0  0  0  0  0  0  0  0  0  0  0  0
  146.6999  142.4462  154.8342 N   0  0  0  0  0  0  0  0  0  0  0  0
  145.7757  142.2295  155.9457 C   0  0  0  0  0  0  0  0  0  0  0  0
  144.8147  143.4165  156.1334 C   0  0  0  0  0  0  0  0  0  0  0  0
  144.1064  143.6573  154.9222 O   0  0  0  0  0  0  0  0  0  0  0  0
  144.9727  143.9210  153.8238 C   0  0  0  0  0  0  0  0  0  0  0  0
  145.9306  142.7331  153.6280 C   0  0  0  0  0  0  0  0  0  0  0  0
  152.7279  138.3063  155.5838 H   0  0  0  0  0  0  0  0  0  0  0  0
  152.1723  139.4895  154.3953 H   0  0  0  0  0  0  0  0  0  0  0  0
  150.9962  138.5217  155.3044 H   0  0  0  0  0  0  0  0  0  0  0  0
  153.5869  141.2004  159.9508 H   0  0  0  0  0  0  0  0  0  0  0  0
  152.6254  143.2952  160.8773 H   0  0  0  0  0  0  0  0  0  0  0  0
  150.8161  144.4924  159.6623 H   0  0  0  0  0  0  0  0  0  0  0  0
  149.9564  143.5939  157.5034 H   0  0  0  0  0  0  0  0  0  0  0  0
  150.1420  142.4864  155.0719 H   0  0  0  0  0  0  0  0  0  0  0  0
  150.3522  140.8870  154.4200 H   0  0  0  0  0  0  0  0  0  0  0  0
  148.3538  141.6245  156.6380 H   0  0  0  0  0  0  0  0  0  0  0  0
  149.1523  139.2188  155.5192 H   0  0  0  0  0  0  0  0  0  0  0  0
  148.1555  141.4731  153.6931 H   0  0  0  0  0  0  0  0  0  0  0  0
  147.0153  140.4103  154.4665 H   0  0  0  0  0  0  0  0  0  0  0  0
  145.1979  141.3199  155.7749 H   0  0  0  0  0  0  0  0  0  0  0  0
  146.3250  142.0823  156.8742 H   0  0  0  0  0  0  0  0  0  0  0  0
  144.0997  143.2040  156.9283 H   0  0  0  0  0  0  0  0  0  0  0  0
  145.3626  144.3131  156.4271 H   0  0  0  0  0  0  0  0  0  0  0  0
  144.3736  144.0775  152.9270 H   0  0  0  0  0  0  0  0  0  0  0  0
  145.5298  144.8418  154.0029 H   0  0  0  0  0  0  0  0  0  0  0  0
  146.6069  142.9504  152.8006 H   0  0  0  0  0  0  0  0  0  0  0  0
  145.3556  141.8521  153.3376 H   0  0  0  0  0  0  0  0  0  0  0  0
  1  2  1  0  0  0  0
  1 21  1  0  0  0  0
  1 22  1  0  0  0  0
  1 23  1  0  0  0  0
  2 10  1  0  0  0  0
  2  3  2  0  0  0  0
  3  4  1  0  0  0  0
  4  9  2  0  0  0  0
  4  5  1  0  0  0  0
  5  6  2  0  0  0  0
  5 24  1  0  0  0  0
  6  7  1  0  0  0  0
  6 25  1  0  0  0  0
  7  8  2  0  0  0  0
  7 26  1  0  0  0  0
  8  9  1  0  0  0  0
  8 27  1  0  0  0  0
  9 10  1  0  0  0  0
 10 11  1  0  0  0  0
 11 12  1  0  0  0  0
 11 28  1  0  0  0  0
 11 29  1  0  0  0  0
 12 13  1  0  0  0  0
 12 14  1  0  0  0  0
 12 30  1  0  0  0  0
 13 31  1  0  0  0  0
 14 15  1  0  0  0  0
 14 32  1  0  0  0  0
 14 33  1  0  0  0  0
 15 20  1  0  0  0  0
 15 16  1  0  0  0  0
 16 17  1  0  0  0  0
 16 34  1  0  0  0  0
 16 35  1  0  0  0  0
 17 18  1  0  0  0  0
 17 36  1  0  0  0  0
 17 37  1  0  0  0  0
 18 19  1  0  0  0  0
 19 20  1  0  0  0  0
 19 38  1  0  0  0  0
 19 39  1  0  0  0  0
 20 40  1  0  0  0  0
 20 41  1  0  0  0  0
M  END
> <s_m_source_file>
AV-unprocessed.smi

> <i_m_source_file_index>
356

> <i_lp_mmshare_version>
43012

> <i_f3d_flags>
0

> <s_epik_input>
W2NIXTFbY0hdW2NIXVtjSF1jKGMxMiluKGMobjIpW0NIM10pW0NIMl1bQ0BIXShbT0hdKVtDSDJdTjNbQ0gyXVtDSDJdT1tDSDJdW0NIMl0z

> <s_epik_cmdline>
J2VwaWtfcHl0aG9uJywgJy1waCcsICc3LjAnLCAnLXRuJywgJzgnLCAnLW1hJywgJzIwMCcsICctbWV0YWxfYmluZGluZycsICctaW1hZScsICc8aW5maWxlLm1hZT4nLCAnLW9tYWUnLCAnPG91dGZpbGUubWFlPic=

> <r_epik_Ionization_Penalty>
0.355661

> <r_epik_Ionization_Penalty_Charging>
0

> <r_epik_Ionization_Penalty_Neutral>
0.355661

> <r_epik_State_Penalty>
0.325123

> <r_epik_Charging_Adjusted_Penalty>
0.325123

> <i_epik_Tot_Q>
0

> <i_epik_Tot_abs_Q>
0

> <r_epik_Metal_State_Penalty>
0.239925

> <b_epik_Metal_Only>
0

> <s_lp_Force_Field>
OPLS_2005

> <r_lp_Energy>
27.9323

> <b_lp_Chiralities_Consistent>
1

> <s_lp_Variant>
AV-unprocessed.smi:356-1

> <Gold.Version>
5.8.1

> <Gold.Id.Protein>
6NUR|6NUR_protein|mol2

> <Gold.PLP.Fitness>
40.2919

> <Gold.PLP.PLP>
-39.2052

> <Gold.PLP.part.hbond>
-1.0000

> <Gold.PLP.part.metal>
0.0000

> <Gold.PLP.part.buried>
-5.7784

> <Gold.PLP.part.nonpolar>
-32.9328

> <Gold.PLP.part.repulsive>
0.5210

> <Gold.PLP.ligand.clash>
0.0000

> <Gold.PLP.ligand.torsion>
0.9602

> <Gold.PLP.Chemscore.Hbond>
1.0000

> <Gold.PLP.Chemscore.CHOScore>
0.0000

> <Gold.PLP.Chemscore.Metal>
0.0000

> <Gold.Chemscore.Hbonds>
donor molecule, donor type, donor heavy atom, donor atom, acceptor molecule, acceptor atom, score
      P1  H  7997  8009       L1     3  1.00

> <Gold.PLP.Chemscore.Internal.Correction>
0.0072

> <Gold.Rescore>
     Score         DG    S(hbond)    S(metal)    S(lipo)     H(rot)  DE(clash)    DE(int)     intcor
     14.15     -15.20       0.80        0.00     103.54       1.99       0.16       0.89       ----

> <Gold.Chemscore.Fitness>
14.1492

> <Gold.Chemscore.DG>
-15.1965

> <Gold.Chemscore.ZeroCoef>
-5.4800

> <Gold.Chemscore.Hbond>
0.8045

> <Gold.Chemscore.Metal>
0.0000

> <Gold.Chemscore.Lipo>
103.5436

> <Gold.Chemscore.Internal_Hbond>
0.0000

> <Gold.Chemscore.DEClash>
0.1558

> <Gold.Chemscore.DEInternal>
0.8916

> <Gold.Chemscore.Rot>
1.9863

> <Gold.Chemscore.Internal.Correction>
   9.000000E+99

> <Gold.Chemscore.Hbonds>
donor molecule, donor type, donor heavy atom, donor atom, acceptor molecule, acceptor atom, score
      P1  H  7997  8009       L1     3  0.41

> <Gold.Chemscore.Hbond.Weighted>
-2.6870

> <Gold.Chemscore.Metal.Weighted>
-0.0000

> <Gold.Chemscore.Lipo.Weighted>
-12.1146

> <Gold.Chemscore.Internal_Hbond.Weighted>
0.0000

> <Gold.Chemscore.DEClash.Weighted>
0.1558

> <Gold.Chemscore.DEInternal.Weighted>
0.8916

> <Gold.Chemscore.Rot.Weighted>
5.0850

> <Gold.Chemscore.Internal.Correction.Weighted>
   9.000000E+99

> <Gold.Protein.RotatedTorsions>
[ 6907 6896 6895 6894 ] final  -54.49 input  -60.11 | X-H torsion
[ 7974 7965 7964 7962 ] final  139.74 input  175.53 | X-H torsion
[ 8008 7997 7996 7995 ] final  171.58 input   59.86 | X-H torsion
[ 10167 10162 10161 10158 ] final  -10.63 input  -65.29 | X-H torsion
[ 10718 10713 10712 10709 ] final  -66.62 input   66.30 | X-H torsion
[ 10763 10752 10751 10750 ] final  102.89 input  -60.55 | X-H torsion
[ 11005 11000 10999 10996 ] final -103.76 input  -57.11 | X-H torsion

> <Gold.Protein.ActiveResidues>
 VAL166  LYS551  ARG553  GLY616  TRP617  ASP618  TYR619  PRO620  LYS621  CYS622 
 ASP623  PHE694  ASN695  SER759  ASP760  ASP761  ALA762  ILE779  LEU786  VAL792 
 PHE793  MET794  SER795  GLU796  ALA797  LYS798  CYS799  TRP800  GLU811  SER814 

> <Gold.Protein.RotatedAtoms>
  150.8333  134.7595  159.6871 H   0  0  0  0  0  0  0  0  0  0  0  0  # atno 6907 bound_to 6896
  152.4434  134.5541  159.9885 H   0  0  0  0  0  0  0  0  0  0  0  0  # atno 6908 bound_to 6896
  151.5697  133.3354  159.3023 H   0  0  0  0  0  0  0  0  0  0  0  0  # atno 6909 bound_to 6896
  144.9250  139.5119  143.5645 H   0  0  0  0  0  0  0  0  0  0  0  0  # atno 7974 bound_to 7965
  156.1258  140.1508  156.9139 H   0  0  0  0  0  0  0  0  0  0  0  0  # atno 8008 bound_to 7997
  154.4870  140.0862  156.7550 H   0  0  0  0  0  0  0  0  0  0  0  0  # atno 8009 bound_to 7997
  155.4347  140.3428  155.4286 H   0  0  0  0  0  0  0  0  0  0  0  0  # atno 8010 bound_to 7997
  140.7119  143.5727  150.9075 H   0  0  0  0  0  0  0  0  0  0  0  0  # atno 10167 bound_to 10162
  156.0602  130.4265  150.1735 H   0  0  0  0  0  0  0  0  0  0  0  0  # atno 10718 bound_to 10713
  153.3455  135.3995  155.1606 H   0  0  0  0  0  0  0  0  0  0  0  0  # atno 10763 bound_to 10752
  154.8652  135.3644  154.5289 H   0  0  0  0  0  0  0  0  0  0  0  0  # atno 10764 bound_to 10752
  153.5737  135.7078  153.5553 H   0  0  0  0  0  0  0  0  0  0  0  0  # atno 10765 bound_to 10752
  141.1131  133.8666  157.1526 H   0  0  0  0  0  0  0  0  0  0  0  0  # atno 11005 bound_to 11000
  146.3222  139.8159  142.8936 LP  0  0  0  0  0  0  0  0  0  0  0  0  # atno 17320 bound_to 7965
  145.3233  141.0249  143.3488 LP  0  0  0  0  0  0  0  0  0  0  0  0  # atno 17321 bound_to 7965
  139.9453  143.6335  152.3043 LP  0  0  0  0  0  0  0  0  0  0  0  0  # atno 17342 bound_to 10162
  139.6834  144.7653  151.1568 LP  0  0  0  0  0  0  0  0  0  0  0  0  # atno 17343 bound_to 10162
  156.9804  130.9862  151.3438 LP  0  0  0  0  0  0  0  0  0  0  0  0  # atno 17370 bound_to 10713
  157.5605  130.8243  149.8260 LP  0  0  0  0  0  0  0  0  0  0  0  0  # atno 17371 bound_to 10713
  140.0037  135.0017  157.0246 LP  0  0  0  0  0  0  0  0  0  0  0  0  # atno 17394 bound_to 11000
  140.4720  134.1377  155.7204 LP  0  0  0  0  0  0  0  0  0  0  0  0  # atno 17395 bound_to 11000

$$$$
