AV-unprocessed.smi:221|AV-procd|sdf|1687|dock2
  -GOLD-   2262020123D 1   1.00000     0.00000
 Structure written by MMmdl.
 50 53  0  0  0  0  0  0  0  0  1 V2000
  148.3794  137.0839  158.4359 N   0  0  0  0  0  0  0  0  0  0  0  0
  147.7167  136.6295  159.5042 C   0  0  0  0  0  0  0  0  0  0  0  0
  146.8292  137.2893  160.0408 O   0  0  0  0  0  0  0  0  0  0  0  0
  148.1084  135.2449  160.0614 C   0  0  1  0  0  0  0  0  0  0  0  0
  147.2954  134.7608  161.2712 C   0  0  0  0  0  0  0  0  0  0  0  0
  147.5758  133.2540  161.3131 C   0  0  1  0  0  0  0  0  0  0  0  0
  146.4380  132.5725  161.4514 F   0  0  0  0  0  0  0  0  0  0  0  0
  148.2598  132.9279  159.9742 C   0  0  0  0  0  0  0  0  0  0  0  0
  148.1168  134.1096  159.1291 N   0  0  0  0  0  0  0  0  0  0  0  0
  147.1220  133.9537  158.2168 C   0  0  0  0  0  0  0  0  0  0  0  0
  145.8845  133.5297  158.5876 N   0  0  0  0  0  0  0  0  0  0  0  0
  144.9288  133.3636  157.6684 C   0  0  0  0  0  0  0  0  0  0  0  0
  144.9976  133.5562  156.3492 N   0  0  0  0  0  0  0  0  0  0  0  0
  146.2395  133.9770  155.9744 C   0  0  0  0  0  0  0  0  0  0  0  0
  147.3490  134.1973  156.8373 C   0  0  0  0  0  0  0  0  0  0  0  0
  148.4489  134.6234  156.1039 N   0  0  0  0  0  0  0  0  0  0  0  0
  148.0136  134.6558  154.8738 C   0  0  0  0  0  0  0  0  0  0  0  0
  146.6978  134.2873  154.7060 N   0  0  0  0  0  0  0  0  0  0  0  0
  145.9698  134.2377  153.4506 C   0  0  0  0  0  0  0  0  0  0  0  0
  145.8695  132.8073  152.8656 C   0  0  2  0  0  0  0  0  0  0  0  0
  147.2192  132.0502  152.9144 C   0  0  0  0  0  0  0  0  0  0  0  0
  148.1790  132.6492  152.0680 O   0  0  0  0  0  0  0  0  0  0  0  0
  145.2480  132.8102  151.4460 C   0  0  2  0  0  0  0  0  0  0  0  0
  143.9038  133.5097  151.3406 C   0  0  0  0  0  0  0  0  0  0  0  0
  143.3528  132.9554  150.0316 C   0  0  0  0  0  0  0  0  0  0  0  0
  143.8623  131.6308  149.9297 O   0  0  0  0  0  0  0  0  0  0  0  0
  144.8800  131.4245  150.9044 C   0  0  0  0  0  0  0  0  0  0  0  0
  149.1437  135.3592  160.3877 H   0  0  0  0  0  0  0  0  0  0  0  0
  148.2155  132.9837  162.1536 H   0  0  0  0  0  0  0  0  0  0  0  0
  148.1460  137.9865  158.0483 H   0  0  0  0  0  0  0  0  0  0  0  0
  149.1100  136.5239  158.0210 H   0  0  0  0  0  0  0  0  0  0  0  0
  147.5942  135.2595  162.1937 H   0  0  0  0  0  0  0  0  0  0  0  0
  146.2300  134.9480  161.1285 H   0  0  0  0  0  0  0  0  0  0  0  0
  149.3251  132.7523  160.1289 H   0  0  0  0  0  0  0  0  0  0  0  0
  147.8548  132.0194  159.5232 H   0  0  0  0  0  0  0  0  0  0  0  0
  143.9741  133.0257  158.0433 H   0  0  0  0  0  0  0  0  0  0  0  0
  148.6432  134.9547  154.0481 H   0  0  0  0  0  0  0  0  0  0  0  0
  144.9773  134.6483  153.6357 H   0  0  0  0  0  0  0  0  0  0  0  0
  146.4504  134.9094  152.7384 H   0  0  0  0  0  0  0  0  0  0  0  0
  145.1858  132.2526  153.5103 H   0  0  0  0  0  0  0  0  0  0  0  0
  147.6168  132.0220  153.9288 H   0  0  0  0  0  0  0  0  0  0  0  0
  147.0926  131.0102  152.6146 H   0  0  0  0  0  0  0  0  0  0  0  0
  148.4049  132.0352  151.3861 H   0  0  0  0  0  0  0  0  0  0  0  0
  145.9361  133.2858  150.7451 H   0  0  0  0  0  0  0  0  0  0  0  0
  143.2566  133.2213  152.1703 H   0  0  0  0  0  0  0  0  0  0  0  0
  143.9816  134.5971  151.3291 H   0  0  0  0  0  0  0  0  0  0  0  0
  142.2632  132.9686  149.9995 H   0  0  0  0  0  0  0  0  0  0  0  0
  143.7246  133.5359  149.1864 H   0  0  0  0  0  0  0  0  0  0  0  0
  145.7355  130.9050  150.4720 H   0  0  0  0  0  0  0  0  0  0  0  0
  144.4691  130.7960  151.6958 H   0  0  0  0  0  0  0  0  0  0  0  0
  1  2  1  0  0  0  0
  1 30  1  0  0  0  0
  1 31  1  0  0  0  0
  2  3  2  0  0  0  0
  2  4  1  0  0  0  0
  4 28  1  0  0  0  0
  4  9  1  0  0  0  0
  4  5  1  0  0  0  0
  5  6  1  0  0  0  0
  5 32  1  0  0  0  0
  5 33  1  0  0  0  0
  6 29  1  0  0  0  0
  6  7  1  0  0  0  0
  6  8  1  0  0  0  0
  8  9  1  0  0  0  0
  8 34  1  0  0  0  0
  8 35  1  0  0  0  0
  9 10  1  0  0  0  0
 10 15  1  0  0  0  0
 10 11  2  0  0  0  0
 11 12  1  0  0  0  0
 12 13  2  0  0  0  0
 12 36  1  0  0  0  0
 13 14  1  0  0  0  0
 14 18  1  0  0  0  0
 14 15  2  0  0  0  0
 15 16  1  0  0  0  0
 16 17  2  0  0  0  0
 17 18  1  0  0  0  0
 17 37  1  0  0  0  0
 18 19  1  0  0  0  0
 19 20  1  0  0  0  0
 19 38  1  0  0  0  0
 19 39  1  0  0  0  0
 20 21  1  0  0  0  0
 20 23  1  0  0  0  0
 20 40  1  0  0  0  0
 21 22  1  0  0  0  0
 21 41  1  0  0  0  0
 21 42  1  0  0  0  0
 22 43  1  0  0  0  0
 23 27  1  0  0  0  0
 23 24  1  0  0  0  0
 23 44  1  0  0  0  0
 24 25  1  0  0  0  0
 24 45  1  0  0  0  0
 24 46  1  0  0  0  0
 25 26  1  0  0  0  0
 25 47  1  0  0  0  0
 25 48  1  0  0  0  0
 26 27  1  0  0  0  0
 27 49  1  0  0  0  0
 27 50  1  0  0  0  0
M  END
> <s_m_source_file>
AV-unprocessed.smi

> <i_m_source_file_index>
221

> <i_lp_mmshare_version>
43012

> <i_f3d_flags>
0

> <s_epik_input>
W05IMl1DKD1PKVtDQEBIXTFbQ0gyXVtDQEBIXShGKVtDSDJdTjFjKG5bY0hdbjIpYyhjMjMpbltjSF1uM1tDSDJdW0NASF0oW0NIMl1bT0hdKVtDQEBIXTRbQ0gyXVtDSDJdT1tDSDJdNA==

> <s_epik_cmdline>
J2VwaWtfcHl0aG9uJywgJy1waCcsICc3LjAnLCAnLXRuJywgJzgnLCAnLW1hJywgJzIwMCcsICctbWV0YWxfYmluZGluZycsICctaW1hZScsICc8aW5maWxlLm1hZT4nLCAnLW9tYWUnLCAnPG91dGZpbGUubWFlPic=

> <r_lp_tautomer_probability>
1

> <r_epik_Ionization_Penalty>
0.000818822

> <r_epik_Ionization_Penalty_Charging>
0

> <r_epik_Ionization_Penalty_Neutral>
0.000818822

> <r_epik_State_Penalty>
0.000440551

> <r_epik_Charging_Adjusted_Penalty>
0.000440551

> <i_epik_Tot_Q>
0

> <i_epik_Tot_abs_Q>
0

> <r_epik_Metal_State_Penalty>
-0

> <b_epik_Metal_Only>
0

> <s_lp_Force_Field>
OPLS_2005

> <r_lp_Energy>
55.6777

> <b_lp_Chiralities_Consistent>
1

> <s_lp_Variant>
AV-unprocessed.smi:221-2

> <Gold.Version>
5.8.1

> <Gold.Id.Protein>
6NUR|6NUR_protein|mol2

> <Gold.PLP.Fitness>
38.0448

> <Gold.PLP.PLP>
-27.9923

> <Gold.PLP.part.hbond>
-3.0000

> <Gold.PLP.part.metal>
0.0000

> <Gold.PLP.part.buried>
-3.9703

> <Gold.PLP.part.nonpolar>
-21.9225

> <Gold.PLP.part.repulsive>
0.4099

> <Gold.PLP.ligand.clash>
0.0000

> <Gold.PLP.ligand.torsion>
0.6833

> <Gold.PLP.Chemscore.Hbond>
2.7488

> <Gold.PLP.Chemscore.CHOScore>
0.9993

> <Gold.PLP.Chemscore.Metal>
0.0000

> <Gold.Chemscore.Hbonds>
donor molecule, donor type, donor heavy atom, donor atom, acceptor molecule, acceptor atom, score
      L1  H    22    43       P1 10747  1.00
      P1  H  6934  6947       L1     3  1.00
      P1  H 10785 10796       L1    26  0.80
      L1  C    17    37       P1  7948  1.00

> <Gold.PLP.Chemscore.Internal.Correction>
0.1750

> <Gold.Rescore>
     Score         DG    S(hbond)    S(metal)    S(lipo)     H(rot)  DE(clash)    DE(int)     intcor
     11.03     -12.67       2.62        0.00      68.09       3.72       0.19       1.45       ----

> <Gold.Chemscore.Fitness>
11.0312

> <Gold.Chemscore.DG>
-12.6742

> <Gold.Chemscore.ZeroCoef>
-5.4800

> <Gold.Chemscore.Hbond>
2.6201

> <Gold.Chemscore.Metal>
0.0000

> <Gold.Chemscore.Lipo>
68.0937

> <Gold.Chemscore.Internal_Hbond>
0.0000

> <Gold.Chemscore.DEClash>
0.1889

> <Gold.Chemscore.DEInternal>
1.4541

> <Gold.Chemscore.Rot>
3.7202

> <Gold.Chemscore.Internal.Correction>
   9.000000E+99

> <Gold.Chemscore.Hbonds>
donor molecule, donor type, donor heavy atom, donor atom, acceptor molecule, acceptor atom, score
      L1  H    22    43       P1 10747  1.00
      P1  H  6934  6947       L1     3  0.97
      P1  H 10785 10796       L1    26  0.75

> <Gold.Chemscore.Hbond.Weighted>
-8.7510

> <Gold.Chemscore.Metal.Weighted>
-0.0000

> <Gold.Chemscore.Lipo.Weighted>
-7.9670

> <Gold.Chemscore.Internal_Hbond.Weighted>
0.0000

> <Gold.Chemscore.DEClash.Weighted>
0.1889

> <Gold.Chemscore.DEInternal.Weighted>
1.4541

> <Gold.Chemscore.Rot.Weighted>
9.5237

> <Gold.Chemscore.Internal.Correction.Weighted>
   9.000000E+99

> <Gold.Protein.RotatedTorsions>
[ 6907 6896 6895 6894 ] final -111.84 input  -60.11 | X-H torsion
[ 7974 7965 7964 7962 ] final  -97.38 input  175.53 | X-H torsion
[ 8008 7997 7996 7995 ] final -135.00 input   59.86 | X-H torsion
[ 10167 10162 10161 10158 ] final   36.59 input  -65.29 | X-H torsion
[ 10718 10713 10712 10709 ] final -166.23 input   66.30 | X-H torsion
[ 10763 10752 10751 10750 ] final  -19.79 input  -60.55 | X-H torsion
[ 11005 11000 10999 10996 ] final   56.95 input  -57.11 | X-H torsion

> <Gold.Protein.ActiveResidues>
 VAL166  LYS551  ARG553  GLY616  TRP617  ASP618  TYR619  PRO620  LYS621  CYS622 
 ASP623  PHE694  ASN695  SER759  ASP760  ASP761  ALA762  ILE779  LEU786  VAL792 
 PHE793  MET794  SER795  GLU796  ALA797  LYS798  CYS799  TRP800  GLU811  SER814 

> <Gold.Protein.RotatedAtoms>
  150.7718  133.9176  159.3388 H   0  0  0  0  0  0  0  0  0  0  0  0  # atno 6907 bound_to 6896
  151.7061  135.0919  160.0269 H   0  0  0  0  0  0  0  0  0  0  0  0  # atno 6908 bound_to 6896
  152.3738  133.6416  159.6143 H   0  0  0  0  0  0  0  0  0  0  0  0  # atno 6909 bound_to 6896
  145.3345  140.9448  143.2643 H   0  0  0  0  0  0  0  0  0  0  0  0  # atno 7974 bound_to 7965
  155.3714  140.0488  157.3045 H   0  0  0  0  0  0  0  0  0  0  0  0  # atno 8008 bound_to 7997
  154.5128  140.2197  155.9087 H   0  0  0  0  0  0  0  0  0  0  0  0  # atno 8009 bound_to 7997
  156.1602  140.3118  155.8800 H   0  0  0  0  0  0  0  0  0  0  0  0  # atno 8010 bound_to 7997
  140.4113  144.1589  150.6139 H   0  0  0  0  0  0  0  0  0  0  0  0  # atno 10167 bound_to 10162
  156.6649  130.9061  151.3035 H   0  0  0  0  0  0  0  0  0  0  0  0  # atno 10718 bound_to 10713
  153.6102  135.6996  153.5350 H   0  0  0  0  0  0  0  0  0  0  0  0  # atno 10763 bound_to 10752
  153.3023  135.4125  155.1263 H   0  0  0  0  0  0  0  0  0  0  0  0  # atno 10764 bound_to 10752
  154.8565  135.3652  154.5640 H   0  0  0  0  0  0  0  0  0  0  0  0  # atno 10765 bound_to 10752
  140.0489  134.5765  155.9287 H   0  0  0  0  0  0  0  0  0  0  0  0  # atno 11005 bound_to 11000
  144.8838  139.4867  143.6710 LP  0  0  0  0  0  0  0  0  0  0  0  0  # atno 17320 bound_to 7965
  146.3032  139.7494  142.9075 LP  0  0  0  0  0  0  0  0  0  0  0  0  # atno 17321 bound_to 7965
  140.4635  143.2440  151.9188 LP  0  0  0  0  0  0  0  0  0  0  0  0  # atno 17342 bound_to 10162
  139.4782  144.5443  151.8481 LP  0  0  0  0  0  0  0  0  0  0  0  0  # atno 17343 bound_to 10162
  157.7097  130.9426  150.1048 LP  0  0  0  0  0  0  0  0  0  0  0  0  # atno 17370 bound_to 10713
  156.1983  130.3658  149.8821 LP  0  0  0  0  0  0  0  0  0  0  0  0  # atno 17371 bound_to 10713
  141.1921  133.6574  156.5485 LP  0  0  0  0  0  0  0  0  0  0  0  0  # atno 17394 bound_to 11000
  140.3948  134.7408  157.4744 LP  0  0  0  0  0  0  0  0  0  0  0  0  # atno 17395 bound_to 11000

$$$$
