AV-unprocessed.smi:32|AV-procd|sdf|197|dock5
  -GOLD-   2262015463D 1   1.00000     0.00000
 Structure written by MMmdl.
 49 51  0  0  0  0  0  0  0  0  1 V2000
  152.6943  139.6864  155.6868 O   0  0  0  0  0  0  0  0  0  0  0  0
  151.5290  139.6798  156.0869 C   0  0  0  0  0  0  0  0  0  0  0  0
  150.4869  138.7285  155.4789 C   0  0  0  0  0  0  0  0  0  0  0  0
  150.2296  137.5287  156.3052 N   0  0  0  0  0  0  0  0  0  0  0  0
  150.5645  136.2576  155.7762 C   0  0  0  0  0  0  0  0  0  0  0  0
  151.0526  136.1428  154.6509 O   0  0  0  0  0  0  0  0  0  0  0  0
  150.2978  135.1213  156.6507 C   0  0  0  0  0  0  0  0  0  0  0  0
  150.5743  133.8766  156.2265 F   0  0  0  0  0  0  0  0  0  0  0  0
  149.7759  135.2985  157.8819 C   0  0  0  0  0  0  0  0  0  0  0  0
  149.4668  136.5473  158.3912 N   0  0  0  0  0  0  0  0  0  0  0  0
  148.8869  136.7302  159.7778 C   0  0  2  0  0  0  0  0  0  0  0  0
  148.7267  135.3699  160.4825 C   0  0  0  0  0  0  0  0  0  0  0  0
  147.2880  135.4074  160.9581 C   0  0  0  0  0  0  0  0  0  0  0  0
  146.6331  136.2903  159.9064 C   0  0  0  0  0  0  0  0  0  0  0  0
  147.6111  137.2992  159.6892 O   0  0  0  0  0  0  0  0  0  0  0  0
  149.6893  137.6967  157.6023 C   0  0  0  0  0  0  0  0  0  0  0  0
  149.4248  138.8185  158.0404 O   0  0  0  0  0  0  0  0  0  0  0  0
  151.0834  140.4811  157.0668 N   0  0  0  0  0  0  0  0  0  0  0  0
  151.8827  141.4670  157.7907 C   0  0  0  0  0  0  0  0  0  0  0  0
  151.9919  141.0279  159.2659 C   0  0  0  0  0  0  0  0  0  0  0  0
  153.0747  141.7903  160.0482 C   0  0  0  0  0  0  0  0  0  0  0  0
  152.6228  143.1138  160.6898 C   0  0  0  0  0  0  0  0  0  0  0  0
  151.6878  144.0010  159.8495 C   0  0  0  0  0  0  0  0  0  0  0  0
  151.9708  144.0107  158.3386 C   0  0  0  0  0  0  0  0  0  0  0  0
  151.2635  142.8663  157.5923 C   0  0  0  0  0  0  0  0  0  0  0  0
  149.5697  139.2925  155.3042 H   0  0  0  0  0  0  0  0  0  0  0  0
  150.8151  138.4434  154.4779 H   0  0  0  0  0  0  0  0  0  0  0  0
  149.6008  134.4157  158.4770 H   0  0  0  0  0  0  0  0  0  0  0  0
  149.5562  137.4237  160.2900 H   0  0  0  0  0  0  0  0  0  0  0  0
  148.8704  134.5561  159.7697 H   0  0  0  0  0  0  0  0  0  0  0  0
  149.4466  135.2620  161.2944 H   0  0  0  0  0  0  0  0  0  0  0  0
  146.8346  134.4185  161.0291 H   0  0  0  0  0  0  0  0  0  0  0  0
  147.2277  135.8846  161.9372 H   0  0  0  0  0  0  0  0  0  0  0  0
  146.4568  135.7311  158.9864 H   0  0  0  0  0  0  0  0  0  0  0  0
  145.6858  136.7144  160.2394 H   0  0  0  0  0  0  0  0  0  0  0  0
  150.1114  140.4060  157.3299 H   0  0  0  0  0  0  0  0  0  0  0  0
  152.8889  141.4679  157.3672 H   0  0  0  0  0  0  0  0  0  0  0  0
  151.0275  141.0968  159.7709 H   0  0  0  0  0  0  0  0  0  0  0  0
  152.2620  139.9710  159.2847 H   0  0  0  0  0  0  0  0  0  0  0  0
  153.4517  141.1478  160.8446 H   0  0  0  0  0  0  0  0  0  0  0  0
  153.9329  141.9712  159.3997 H   0  0  0  0  0  0  0  0  0  0  0  0
  152.1277  142.9011  161.6379 H   0  0  0  0  0  0  0  0  0  0  0  0
  153.5159  143.6837  160.9494 H   0  0  0  0  0  0  0  0  0  0  0  0
  150.6522  143.7050  160.0214 H   0  0  0  0  0  0  0  0  0  0  0  0
  151.7600  145.0200  160.2316 H   0  0  0  0  0  0  0  0  0  0  0  0
  151.5916  144.9497  157.9338 H   0  0  0  0  0  0  0  0  0  0  0  0
  153.0427  144.0120  158.1370 H   0  0  0  0  0  0  0  0  0  0  0  0
  151.2787  143.1017  156.5274 H   0  0  0  0  0  0  0  0  0  0  0  0
  150.2087  142.8485  157.8709 H   0  0  0  0  0  0  0  0  0  0  0  0
  1  2  2  0  0  0  0
  2  3  1  0  0  0  0
  2 18  1  0  0  0  0
  3  4  1  0  0  0  0
  3 26  1  0  0  0  0
  3 27  1  0  0  0  0
  4 16  1  0  0  0  0
  4  5  1  0  0  0  0
  5  6  2  0  0  0  0
  5  7  1  0  0  0  0
  7  8  1  0  0  0  0
  7  9  2  0  0  0  0
  9 10  1  0  0  0  0
  9 28  1  0  0  0  0
 10 11  1  0  0  0  0
 10 16  1  0  0  0  0
 11 15  1  0  0  0  0
 11 12  1  0  0  0  0
 11 29  1  0  0  0  0
 12 13  1  0  0  0  0
 12 30  1  0  0  0  0
 12 31  1  0  0  0  0
 13 14  1  0  0  0  0
 13 32  1  0  0  0  0
 13 33  1  0  0  0  0
 14 15  1  0  0  0  0
 14 34  1  0  0  0  0
 14 35  1  0  0  0  0
 16 17  2  0  0  0  0
 18 19  1  0  0  0  0
 18 36  1  0  0  0  0
 19 25  1  0  0  0  0
 19 20  1  0  0  0  0
 19 37  1  0  0  0  0
 20 21  1  0  0  0  0
 20 38  1  0  0  0  0
 20 39  1  0  0  0  0
 21 22  1  0  0  0  0
 21 40  1  0  0  0  0
 21 41  1  0  0  0  0
 22 23  1  0  0  0  0
 22 42  1  0  0  0  0
 22 43  1  0  0  0  0
 23 24  1  0  0  0  0
 23 44  1  0  0  0  0
 23 45  1  0  0  0  0
 24 25  1  0  0  0  0
 24 46  1  0  0  0  0
 24 47  1  0  0  0  0
 25 48  1  0  0  0  0
 25 49  1  0  0  0  0
M  END
> <s_m_source_file>
AV-unprocessed.smi

> <i_m_source_file_index>
32

> <i_lp_mmshare_version>
43012

> <i_f3d_flags>
0

> <s_epik_input>
W0NIMl0xW0NIMl1bQ0gyXVtDSDJdW0NIMl1bQ0gyXVtDSF0xW05IXUMoPU8pW0NIMl1uMmMoPU8pYyhGKVtjSF1uKGMyPU8pW0NAQEhdM1tDSDJdW0NIMl1bQ0gyXU8z

> <s_epik_cmdline>
J2VwaWtfcHl0aG9uJywgJy1waCcsICc3LjAnLCAnLXRuJywgJzgnLCAnLW1hJywgJzIwMCcsICctbWV0YWxfYmluZGluZycsICctaW1hZScsICc8aW5maWxlLm1hZT4nLCAnLW9tYWUnLCAnPG91dGZpbGUubWFlPic=

> <r_lp_tautomer_probability>
1

> <r_epik_Ionization_Penalty>
2.43741e-08

> <r_epik_Ionization_Penalty_Charging>
4.15308e-09

> <r_epik_Ionization_Penalty_Neutral>
2.0221e-08

> <r_epik_State_Penalty>
-0

> <r_epik_Charging_Adjusted_Penalty>
4.15308e-09

> <i_epik_Tot_Q>
0

> <i_epik_Tot_abs_Q>
0

> <r_epik_Metal_State_Penalty>
-0

> <b_epik_Metal_Only>
0

> <s_epik_Chemistry_Notes>
This compound contains an acetal/aminal-like group ( X-CH(R)-Y where X, Y are N, S, or O) that may be acid/base labile, releasing an aldehyde.

> <s_lp_Force_Field>
OPLS_2005

> <r_lp_Energy>
35.2261

> <b_lp_Chiralities_Consistent>
1

> <s_lp_Variant>
AV-unprocessed.smi:32-1

> <Gold.Version>
5.8.1

> <Gold.Id.Protein>
6NUR|6NUR_protein|mol2

> <Gold.PLP.Fitness>
47.9061

> <Gold.PLP.PLP>
-40.2305

> <Gold.PLP.part.hbond>
-3.0000

> <Gold.PLP.part.metal>
0.0000

> <Gold.PLP.part.buried>
-6.0253

> <Gold.PLP.part.nonpolar>
-32.4687

> <Gold.PLP.part.repulsive>
0.2521

> <Gold.PLP.ligand.clash>
0.0000

> <Gold.PLP.ligand.torsion>
0.3032

> <Gold.PLP.Chemscore.Hbond>
2.7520

> <Gold.PLP.Chemscore.CHOScore>
0.0000

> <Gold.PLP.Chemscore.Metal>
0.0000

> <Gold.Chemscore.Hbonds>
donor molecule, donor type, donor heavy atom, donor atom, acceptor molecule, acceptor atom, score
      P1  H  6934  6947       L1    15  0.56
      P1  H  7997  8010       L1     1  1.00
      P1  H 10752 10763       L1     6  1.00

> <Gold.PLP.Chemscore.Internal.Correction>
0.0259

> <Gold.Rescore>
     Score         DG    S(hbond)    S(metal)    S(lipo)     H(rot)  DE(clash)    DE(int)     intcor
     17.30     -20.20       2.33        0.00      99.33       1.82       0.25       2.65       ----

> <Gold.Chemscore.Fitness>
17.3033

> <Gold.Chemscore.DG>
-20.2020

> <Gold.Chemscore.ZeroCoef>
-5.4800

> <Gold.Chemscore.Hbond>
2.3268

> <Gold.Chemscore.Metal>
0.0000

> <Gold.Chemscore.Lipo>
99.3335

> <Gold.Chemscore.Internal_Hbond>
0.0000

> <Gold.Chemscore.DEClash>
0.2533

> <Gold.Chemscore.DEInternal>
2.6454

> <Gold.Chemscore.Rot>
1.8248

> <Gold.Chemscore.Internal.Correction>
   9.000000E+99

> <Gold.Chemscore.Hbonds>
donor molecule, donor type, donor heavy atom, donor atom, acceptor molecule, acceptor atom, score
      P1  H  6934  6947       L1    15  0.41
      P1  H  7997  8010       L1     1  1.00
      P1  H 10752 10763       L1     6  0.97

> <Gold.Chemscore.Hbond.Weighted>
-7.7714

> <Gold.Chemscore.Metal.Weighted>
-0.0000

> <Gold.Chemscore.Lipo.Weighted>
-11.6220

> <Gold.Chemscore.Internal_Hbond.Weighted>
0.0000

> <Gold.Chemscore.DEClash.Weighted>
0.2533

> <Gold.Chemscore.DEInternal.Weighted>
2.6454

> <Gold.Chemscore.Rot.Weighted>
4.6714

> <Gold.Chemscore.Internal.Correction.Weighted>
   9.000000E+99

> <Gold.Protein.RotatedTorsions>
[ 6907 6896 6895 6894 ] final   81.00 input  -60.11 | X-H torsion
[ 7974 7965 7964 7962 ] final -103.73 input  175.53 | X-H torsion
[ 8008 7997 7996 7995 ] final   82.67 input   59.86 | X-H torsion
[ 10167 10162 10161 10158 ] final  -94.53 input  -65.29 | X-H torsion
[ 10718 10713 10712 10709 ] final  -22.41 input   66.30 | X-H torsion
[ 10763 10752 10751 10750 ] final   51.35 input  -60.55 | X-H torsion
[ 11005 11000 10999 10996 ] final  -81.11 input  -57.11 | X-H torsion

> <Gold.Protein.ActiveResidues>
 VAL166  LYS551  ARG553  GLY616  TRP617  ASP618  TYR619  PRO620  LYS621  CYS622 
 ASP623  PHE694  ASN695  SER759  ASP760  ASP761  ALA762  ILE779  LEU786  VAL792 
 PHE793  MET794  SER795  GLU796  ALA797  LYS798  CYS799  TRP800  GLU811  SER814 

> <Gold.Protein.RotatedAtoms>
  152.5254  134.3272  159.9169 H   0  0  0  0  0  0  0  0  0  0  0  0  # atno 6907 bound_to 6896
  151.3221  133.4029  159.2663 H   0  0  0  0  0  0  0  0  0  0  0  0  # atno 6908 bound_to 6896
  150.9950  134.9293  159.7979 H   0  0  0  0  0  0  0  0  0  0  0  0  # atno 6909 bound_to 6896
  145.2521  140.9241  143.3089 H   0  0  0  0  0  0  0  0  0  0  0  0  # atno 7974 bound_to 7965
  155.9138  140.3426  155.6119 H   0  0  0  0  0  0  0  0  0  0  0  0  # atno 8008 bound_to 7997
  155.7356  140.0801  157.2288 H   0  0  0  0  0  0  0  0  0  0  0  0  # atno 8009 bound_to 7997
  154.4059  140.1580  156.2545 H   0  0  0  0  0  0  0  0  0  0  0  0  # atno 8010 bound_to 7997
  140.3135  143.3091  152.0123 H   0  0  0  0  0  0  0  0  0  0  0  0  # atno 10167 bound_to 10162
  156.5050  130.4597  149.6680 H   0  0  0  0  0  0  0  0  0  0  0  0  # atno 10718 bound_to 10713
  152.9785  135.5849  154.4401 H   0  0  0  0  0  0  0  0  0  0  0  0  # atno 10763 bound_to 10752
  154.4003  135.2768  155.2102 H   0  0  0  0  0  0  0  0  0  0  0  0  # atno 10764 bound_to 10752
  154.3936  135.6119  153.5911 H   0  0  0  0  0  0  0  0  0  0  0  0  # atno 10765 bound_to 10752
  141.1667  133.7181  156.8374 H   0  0  0  0  0  0  0  0  0  0  0  0  # atno 11005 bound_to 11000
  144.9493  139.4100  143.6410 LP  0  0  0  0  0  0  0  0  0  0  0  0  # atno 17320 bound_to 7965
  146.3299  139.8493  142.8876 LP  0  0  0  0  0  0  0  0  0  0  0  0  # atno 17321 bound_to 7965
  139.4889  144.6366  151.6963 LP  0  0  0  0  0  0  0  0  0  0  0  0  # atno 17342 bound_to 10162
  140.5547  144.0368  150.6142 LP  0  0  0  0  0  0  0  0  0  0  0  0  # atno 17343 bound_to 10162
  156.3296  130.7324  151.2251 LP  0  0  0  0  0  0  0  0  0  0  0  0  # atno 17370 bound_to 10713
  157.7458  131.0433  150.4739 LP  0  0  0  0  0  0  0  0  0  0  0  0  # atno 17371 bound_to 10713
  140.2008  134.8898  157.3166 LP  0  0  0  0  0  0  0  0  0  0  0  0  # atno 17394 bound_to 11000
  140.2190  134.4047  155.7575 LP  0  0  0  0  0  0  0  0  0  0  0  0  # atno 17395 bound_to 11000

$$$$
