AV-unprocessed.smi:3129|AV-procd|sdf|11924|dock7
  -GOLD-   2272017303D 1   1.00000     0.00000
 Structure written by MMmdl.
 39 39  0  0  0  0  0  0  0  0  1 V2000
  149.5386  138.8756  154.0786 C   0  0  0  0  0  0  0  0  0  0  0  0
  150.5663  138.4203  155.1253 C   0  0  0  0  0  0  0  0  0  0  0  0
  151.6674  139.4818  155.2946 C   0  0  0  0  0  0  0  0  0  0  0  0
  151.1261  137.0280  154.7658 C   0  0  0  0  0  0  0  0  0  0  0  0
  150.0712  136.0644  154.4649 N   0  0  0  0  0  0  0  0  0  0  0  0
  149.7064  135.0344  155.2449 C   0  0  0  0  0  0  0  0  0  0  0  0
  150.2391  134.7809  156.3257 O   0  0  0  0  0  0  0  0  0  0  0  0
  148.5784  134.1356  154.7107 C   0  0  2  0  0  0  0  0  0  0  0  0
  148.1755  133.0898  155.7629 C   0  0  0  0  0  0  0  0  0  0  0  0
  148.9173  133.4625  153.4438 N   0  0  0  0  0  0  0  0  0  0  0  0
  147.8174  132.7104  152.8503 C   0  0  0  0  0  0  0  0  0  0  0  0
  147.1564  133.5527  151.7507 C   0  0  0  0  0  0  0  0  0  0  0  0
  145.9109  132.9591  151.3051 N   0  0  0  0  0  0  0  0  0  0  0  0
  145.7065  131.7164  150.7433 C   0  0  0  0  0  0  0  0  0  0  0  0
  144.3713  131.6046  150.4798 C   0  0  0  0  0  0  0  0  0  0  0  0
  143.8349  132.8471  150.9198 C   0  0  0  0  0  0  0  0  0  0  0  0
  144.7591  133.6564  151.4116 N   0  0  0  0  0  0  0  0  0  0  0  0
  149.9974  138.9878  153.0957 H   0  0  0  0  0  0  0  0  0  0  0  0
  149.0973  139.8346  154.3514 H   0  0  0  0  0  0  0  0  0  0  0  0
  148.7250  138.1556  153.9859 H   0  0  0  0  0  0  0  0  0  0  0  0
  150.0417  138.3351  156.0781 H   0  0  0  0  0  0  0  0  0  0  0  0
  152.2648  139.5791  154.3878 H   0  0  0  0  0  0  0  0  0  0  0  0
  152.3426  139.2345  156.1137 H   0  0  0  0  0  0  0  0  0  0  0  0
  151.2391  140.4593  155.5173 H   0  0  0  0  0  0  0  0  0  0  0  0
  151.7537  137.1049  153.8774 H   0  0  0  0  0  0  0  0  0  0  0  0
  151.7776  136.6630  155.5618 H   0  0  0  0  0  0  0  0  0  0  0  0
  149.5818  136.1875  153.5902 H   0  0  0  0  0  0  0  0  0  0  0  0
  147.7040  134.7633  154.5290 H   0  0  0  0  0  0  0  0  0  0  0  0
  147.9051  133.5625  156.7081 H   0  0  0  0  0  0  0  0  0  0  0  0
  148.9841  132.3852  155.9623 H   0  0  0  0  0  0  0  0  0  0  0  0
  147.3120  132.5137  155.4290 H   0  0  0  0  0  0  0  0  0  0  0  0
  149.2936  134.1120  152.7677 H   0  0  0  0  0  0  0  0  0  0  0  0
  148.1945  131.7766  152.4305 H   0  0  0  0  0  0  0  0  0  0  0  0
  147.0737  132.4561  153.6063 H   0  0  0  0  0  0  0  0  0  0  0  0
  146.9475  134.5599  152.1141 H   0  0  0  0  0  0  0  0  0  0  0  0
  147.8220  133.6568  150.8922 H   0  0  0  0  0  0  0  0  0  0  0  0
  146.5189  131.0240  150.5785 H   0  0  0  0  0  0  0  0  0  0  0  0
  143.8564  130.7639  150.0391 H   0  0  0  0  0  0  0  0  0  0  0  0
  142.8087  133.1830  150.8957 H   0  0  0  0  0  0  0  0  0  0  0  0
  1  2  1  0  0  0  0
  1 18  1  0  0  0  0
  1 19  1  0  0  0  0
  1 20  1  0  0  0  0
  2  3  1  0  0  0  0
  2  4  1  0  0  0  0
  2 21  1  0  0  0  0
  3 22  1  0  0  0  0
  3 23  1  0  0  0  0
  3 24  1  0  0  0  0
  4  5  1  0  0  0  0
  4 25  1  0  0  0  0
  4 26  1  0  0  0  0
  5  6  1  0  0  0  0
  5 27  1  0  0  0  0
  6  7  2  0  0  0  0
  6  8  1  0  0  0  0
  8  9  1  0  0  0  0
  8 10  1  0  0  0  0
  8 28  1  0  0  0  0
  9 29  1  0  0  0  0
  9 30  1  0  0  0  0
  9 31  1  0  0  0  0
 10 11  1  0  0  0  0
 10 32  1  0  0  0  0
 11 12  1  0  0  0  0
 11 33  1  0  0  0  0
 11 34  1  0  0  0  0
 12 13  1  0  0  0  0
 12 35  1  0  0  0  0
 12 36  1  0  0  0  0
 13 17  1  0  0  0  0
 13 14  1  0  0  0  0
 14 15  2  0  0  0  0
 14 37  1  0  0  0  0
 15 16  1  0  0  0  0
 15 38  1  0  0  0  0
 16 17  2  0  0  0  0
 16 39  1  0  0  0  0
M  END
> <s_m_source_file>
AV-unprocessed.smi

> <i_m_source_file_index>
3129

> <i_lp_mmshare_version>
43012

> <i_f3d_flags>
0

> <s_epik_input>
W0NIM11bQ0hdKFtDSDNdKVtDSDJdW05IXUMoPU8pW0NASF0oW0NIM10pW05IXVtDSDJdW0NIMl1uMVtjSF1bY0hdW2NIXW4x

> <s_epik_cmdline>
J2VwaWtfcHl0aG9uJywgJy1waCcsICc3LjAnLCAnLXRuJywgJzgnLCAnLW1hJywgJzIwMCcsICctbWV0YWxfYmluZGluZycsICctaW1hZScsICc8aW5maWxlLm1hZT4nLCAnLW9tYWUnLCAnPG91dGZpbGUubWFlPic=

> <r_lp_tautomer_probability>
1

> <r_epik_Ionization_Penalty>
0.724007

> <r_epik_Ionization_Penalty_Charging>
0

> <r_epik_Ionization_Penalty_Neutral>
0.724007

> <r_epik_State_Penalty>
0.74758

> <r_epik_Charging_Adjusted_Penalty>
0.74758

> <i_epik_Tot_Q>
0

> <i_epik_Tot_abs_Q>
0

> <r_epik_Metal_State_Penalty>
0.746851

> <b_epik_Metal_Only>
0

> <s_lp_Force_Field>
OPLS_2005

> <r_lp_Energy>
5.79034

> <b_lp_Chiralities_Consistent>
1

> <s_lp_Variant>
AV-unprocessed.smi:3129-3

> <Gold.Version>
5.8.1

> <Gold.Id.Protein>
6NUR|6NUR_protein|mol2

> <Gold.PLP.Fitness>
39.3644

> <Gold.PLP.PLP>
-31.0865

> <Gold.PLP.part.hbond>
-2.3555

> <Gold.PLP.part.metal>
0.0000

> <Gold.PLP.part.buried>
-2.3635

> <Gold.PLP.part.nonpolar>
-26.9549

> <Gold.PLP.part.repulsive>
0.1797

> <Gold.PLP.ligand.clash>
0.0000

> <Gold.PLP.ligand.torsion>
0.4516

> <Gold.PLP.Chemscore.Hbond>
1.0000

> <Gold.PLP.Chemscore.CHOScore>
2.0000

> <Gold.PLP.Chemscore.Metal>
0.0000

> <Gold.Chemscore.Hbonds>
donor molecule, donor type, donor heavy atom, donor atom, acceptor molecule, acceptor atom, score
      L1  H     5    27       P1  7948  1.00
      L1  C    14    37       P1 10747  1.00
      L1  C    16    39       P1 10186  0.92

> <Gold.PLP.Chemscore.Internal.Correction>
0.1812

> <Gold.Rescore>
     Score         DG    S(hbond)    S(metal)    S(lipo)     H(rot)  DE(clash)    DE(int)     intcor
     10.98     -11.51       0.81        0.00      75.06       2.13       0.02       0.51       ----

> <Gold.Chemscore.Fitness>
10.9820

> <Gold.Chemscore.DG>
-11.5084

> <Gold.Chemscore.ZeroCoef>
-5.4800

> <Gold.Chemscore.Hbond>
0.8117

> <Gold.Chemscore.Metal>
0.0000

> <Gold.Chemscore.Lipo>
75.0572

> <Gold.Chemscore.Internal_Hbond>
0.0000

> <Gold.Chemscore.DEClash>
0.0157

> <Gold.Chemscore.DEInternal>
0.5107

> <Gold.Chemscore.Rot>
2.1345

> <Gold.Chemscore.Internal.Correction>
   9.000000E+99

> <Gold.Chemscore.Hbonds>
donor molecule, donor type, donor heavy atom, donor atom, acceptor molecule, acceptor atom, score
      L1  H     5    27       P1  7948  0.45

> <Gold.Chemscore.Hbond.Weighted>
-2.7109

> <Gold.Chemscore.Metal.Weighted>
-0.0000

> <Gold.Chemscore.Lipo.Weighted>
-8.7817

> <Gold.Chemscore.Internal_Hbond.Weighted>
0.0000

> <Gold.Chemscore.DEClash.Weighted>
0.0157

> <Gold.Chemscore.DEInternal.Weighted>
0.5107

> <Gold.Chemscore.Rot.Weighted>
5.4642

> <Gold.Chemscore.Internal.Correction.Weighted>
   9.000000E+99

> <Gold.Protein.RotatedTorsions>
[ 6907 6896 6895 6894 ] final  175.19 input  -60.11 | X-H torsion
[ 7974 7965 7964 7962 ] final  179.02 input  175.53 | X-H torsion
[ 8008 7997 7996 7995 ] final   55.67 input   59.86 | X-H torsion
[ 10167 10162 10161 10158 ] final  171.13 input  -65.29 | X-H torsion
[ 10718 10713 10712 10709 ] final -100.49 input   66.30 | X-H torsion
[ 10763 10752 10751 10750 ] final  -90.86 input  -60.55 | X-H torsion
[ 11005 11000 10999 10996 ] final  -51.03 input  -57.11 | X-H torsion

> <Gold.Protein.ActiveResidues>
 VAL166  LYS551  ARG553  GLY616  TRP617  ASP618  TYR619  PRO620  LYS621  CYS622 
 ASP623  PHE694  ASN695  SER759  ASP760  ASP761  ALA762  ILE779  LEU786  VAL792 
 PHE793  MET794  SER795  GLU796  ALA797  LYS798  CYS799  TRP800  GLU811  SER814 

> <Gold.Protein.RotatedAtoms>
  151.7403  133.3321  159.3363 H   0  0  0  0  0  0  0  0  0  0  0  0  # atno 6907 bound_to 6896
  150.7576  134.6284  159.6182 H   0  0  0  0  0  0  0  0  0  0  0  0  # atno 6908 bound_to 6896
  152.3535  134.6975  160.0281 H   0  0  0  0  0  0  0  0  0  0  0  0  # atno 6909 bound_to 6896
  144.7150  140.0484  143.6436 H   0  0  0  0  0  0  0  0  0  0  0  0  # atno 7974 bound_to 7965
  155.5049  140.3475  155.4378 H   0  0  0  0  0  0  0  0  0  0  0  0  # atno 8008 bound_to 7997
  156.0889  140.1405  156.9645 H   0  0  0  0  0  0  0  0  0  0  0  0  # atno 8009 bound_to 7997
  154.4623  140.0930  156.6903 H   0  0  0  0  0  0  0  0  0  0  0  0  # atno 8010 bound_to 7997
  139.5038  144.3520  151.9912 H   0  0  0  0  0  0  0  0  0  0  0  0  # atno 10167 bound_to 10162
  156.0164  130.5330  150.6824 H   0  0  0  0  0  0  0  0  0  0  0  0  # atno 10718 bound_to 10713
  154.6701  135.5289  153.8127 H   0  0  0  0  0  0  0  0  0  0  0  0  # atno 10763 bound_to 10752
  153.0496  135.6527  154.0738 H   0  0  0  0  0  0  0  0  0  0  0  0  # atno 10764 bound_to 10752
  154.0638  135.2959  155.3300 H   0  0  0  0  0  0  0  0  0  0  0  0  # atno 10765 bound_to 10752
  141.0848  133.6645  156.3817 H   0  0  0  0  0  0  0  0  0  0  0  0  # atno 11005 bound_to 11000
  145.9964  139.3056  143.0954 LP  0  0  0  0  0  0  0  0  0  0  0  0  # atno 17320 bound_to 7965
  145.8843  140.9343  143.0585 LP  0  0  0  0  0  0  0  0  0  0  0  0  # atno 17321 bound_to 7965
  140.2957  144.3703  150.6075 LP  0  0  0  0  0  0  0  0  0  0  0  0  # atno 17342 bound_to 10162
  140.5912  143.2168  151.7249 LP  0  0  0  0  0  0  0  0  0  0  0  0  # atno 17343 bound_to 10162
  157.4523  131.0874  151.0833 LP  0  0  0  0  0  0  0  0  0  0  0  0  # atno 17370 bound_to 10713
  157.1345  130.6116  149.5538 LP  0  0  0  0  0  0  0  0  0  0  0  0  # atno 17371 bound_to 10713
  140.5387  134.6142  157.5373 LP  0  0  0  0  0  0  0  0  0  0  0  0  # atno 17394 bound_to 11000
  139.9666  134.7363  156.0127 LP  0  0  0  0  0  0  0  0  0  0  0  0  # atno 17395 bound_to 11000

$$$$
