AV-unprocessed.smi:865|AV-procd|sdf|3991|dock8
  -GOLD-   22720 1473D 1   1.00000     0.00000
 Structure written by MMmdl.
 36 36  0  0  0  0  0  0  0  0  1 V2000
  152.7985  143.1355  162.0195 C   0  0  0  0  0  0  0  0  0  0  0  0
  153.4234  142.1795  160.9923 C   0  0  0  0  0  0  0  0  0  0  0  0
  153.0291  142.4602  159.5194 C   0  0  0  0  0  0  0  0  0  0  0  0
  152.2305  143.7836  159.3897 C   0  0  0  0  0  0  0  0  0  0  0  0
  152.3209  144.4464  158.0070 C   0  0  0  0  0  0  0  0  0  0  0  0
  152.2954  141.2571  158.8615 C   0  0  1  0  0  0  0  0  0  0  0  0
  151.1450  140.9441  159.6237 O   0  0  0  0  0  0  0  0  0  0  0  0
  151.8723  141.5195  157.3985 C   0  0  0  0  0  0  0  0  0  0  0  0
  151.1704  140.3747  156.8294 N   0  0  0  0  0  0  0  0  0  0  0  0
  151.5475  139.7053  155.7295 C   0  0  0  0  0  0  0  0  0  0  0  0
  152.5668  139.9630  155.0899 O   0  0  0  0  0  0  0  0  0  0  0  0
  150.6250  138.5771  155.2708 C   0  0  0  0  0  0  0  0  0  0  0  0
  149.3088  139.0929  154.9477 N   0  0  0  0  0  0  0  0  0  0  0  0
  148.5933  139.0275  153.8229 C   0  0  0  0  0  0  0  0  0  0  0  0
  147.4315  139.6509  153.9461 N   0  0  0  0  0  0  0  0  0  0  0  0
  147.4640  140.1234  155.2479 N   0  0  0  0  0  0  0  0  0  0  0  0
  148.5758  139.7958  155.8470 N   0  0  0  0  0  0  0  0  0  0  0  0
  153.0127  142.7991  163.0340 H   0  0  0  0  0  0  0  0  0  0  0  0
  151.7149  143.1812  161.9092 H   0  0  0  0  0  0  0  0  0  0  0  0
  153.1927  144.1470  161.9286 H   0  0  0  0  0  0  0  0  0  0  0  0
  154.5082  142.1874  161.1008 H   0  0  0  0  0  0  0  0  0  0  0  0
  153.1090  141.1737  161.2663 H   0  0  0  0  0  0  0  0  0  0  0  0
  153.9594  142.5962  158.9658 H   0  0  0  0  0  0  0  0  0  0  0  0
  151.1745  143.6011  159.5835 H   0  0  0  0  0  0  0  0  0  0  0  0
  152.5537  144.4917  160.1535 H   0  0  0  0  0  0  0  0  0  0  0  0
  151.6636  145.3145  157.9554 H   0  0  0  0  0  0  0  0  0  0  0  0
  152.0175  143.7571  157.2186 H   0  0  0  0  0  0  0  0  0  0  0  0
  153.3289  144.7934  157.7836 H   0  0  0  0  0  0  0  0  0  0  0  0
  152.9555  140.3903  158.8712 H   0  0  0  0  0  0  0  0  0  0  0  0
  150.7047  140.2144  159.2156 H   0  0  0  0  0  0  0  0  0  0  0  0
  151.2875  142.4360  157.3007 H   0  0  0  0  0  0  0  0  0  0  0  0
  152.7606  141.6610  156.7825 H   0  0  0  0  0  0  0  0  0  0  0  0
  150.3157  140.0916  157.2868 H   0  0  0  0  0  0  0  0  0  0  0  0
  151.0400  138.0937  154.3856 H   0  0  0  0  0  0  0  0  0  0  0  0
  150.5377  137.8134  156.0456 H   0  0  0  0  0  0  0  0  0  0  0  0
  148.9226  138.5311  152.9219 H   0  0  0  0  0  0  0  0  0  0  0  0
  1  2  1  0  0  0  0
  1 18  1  0  0  0  0
  1 19  1  0  0  0  0
  1 20  1  0  0  0  0
  2  3  1  0  0  0  0
  2 21  1  0  0  0  0
  2 22  1  0  0  0  0
  3  4  1  0  0  0  0
  3  6  1  0  0  0  0
  3 23  1  0  0  0  0
  4  5  1  0  0  0  0
  4 24  1  0  0  0  0
  4 25  1  0  0  0  0
  5 26  1  0  0  0  0
  5 27  1  0  0  0  0
  5 28  1  0  0  0  0
  6  7  1  0  0  0  0
  6  8  1  0  0  0  0
  6 29  1  0  0  0  0
  7 30  1  0  0  0  0
  8  9  1  0  0  0  0
  8 31  1  0  0  0  0
  8 32  1  0  0  0  0
  9 10  1  0  0  0  0
  9 33  1  0  0  0  0
 10 11  2  0  0  0  0
 10 12  1  0  0  0  0
 12 13  1  0  0  0  0
 12 34  1  0  0  0  0
 12 35  1  0  0  0  0
 13 17  1  0  0  0  0
 13 14  1  0  0  0  0
 14 15  2  0  0  0  0
 14 36  1  0  0  0  0
 15 16  1  0  0  0  0
 16 17  2  0  0  0  0
M  END
> <s_m_source_file>
AV-unprocessed.smi

> <i_m_source_file_index>
865

> <i_lp_mmshare_version>
43012

> <i_f3d_flags>
0

> <s_epik_input>
W0NIM11bQ0gyXVtDSF0oW0NIMl1bQ0gzXSlbQ0BIXShbT0hdKVtDSDJdW05IXUMoPU8pW0NIMl1uMVtjSF1ubm4x

> <s_epik_cmdline>
J2VwaWtfcHl0aG9uJywgJy1waCcsICc3LjAnLCAnLXRuJywgJzgnLCAnLW1hJywgJzIwMCcsICctbWV0YWxfYmluZGluZycsICctaW1hZScsICc8aW5maWxlLm1hZT4nLCAnLW9tYWUnLCAnPG91dGZpbGUubWFlPic=

> <r_lp_tautomer_probability>
1

> <r_epik_Ionization_Penalty>
9.39891e-07

> <r_epik_Ionization_Penalty_Charging>
0

> <r_epik_Ionization_Penalty_Neutral>
9.39891e-07

> <r_epik_State_Penalty>
-0

> <r_epik_Charging_Adjusted_Penalty>
0

> <i_epik_Tot_Q>
0

> <i_epik_Tot_abs_Q>
0

> <r_epik_Metal_State_Penalty>
-0

> <b_epik_Metal_Only>
0

> <s_lp_Force_Field>
OPLS_2005

> <r_lp_Energy>
13.5174

> <b_lp_Chiralities_Consistent>
1

> <s_lp_Variant>
AV-unprocessed.smi:865-2

> <Gold.Version>
5.8.1

> <Gold.Id.Protein>
6NUR|6NUR_protein|mol2

> <Gold.PLP.Fitness>
39.8682

> <Gold.PLP.PLP>
-32.2115

> <Gold.PLP.part.hbond>
-2.9047

> <Gold.PLP.part.metal>
0.0000

> <Gold.PLP.part.buried>
-1.3718

> <Gold.PLP.part.nonpolar>
-28.0203

> <Gold.PLP.part.repulsive>
0.3032

> <Gold.PLP.ligand.clash>
0.0000

> <Gold.PLP.ligand.torsion>
1.0044

> <Gold.PLP.Chemscore.Hbond>
1.4524

> <Gold.PLP.Chemscore.CHOScore>
1.7018

> <Gold.PLP.Chemscore.Metal>
0.0000

> <Gold.Chemscore.Hbonds>
donor molecule, donor type, donor heavy atom, donor atom, acceptor molecule, acceptor atom, score
      P1  H  7989  7998       L1    11  0.50
      P1  H  7997  8010       L1    11  0.93
      L1  C    14    36       P1  7948  1.00
      L1  C    14    36       P1  7957  0.70

> <Gold.PLP.Chemscore.Internal.Correction>
0.2029

> <Gold.Rescore>
     Score         DG    S(hbond)    S(metal)    S(lipo)     H(rot)  DE(clash)    DE(int)     intcor
      6.60      -9.22       1.04        0.00      85.33       3.80       0.12       2.50       ----

> <Gold.Chemscore.Fitness>
6.6041

> <Gold.Chemscore.DG>
-9.2240

> <Gold.Chemscore.ZeroCoef>
-5.4800

> <Gold.Chemscore.Hbond>
1.0417

> <Gold.Chemscore.Metal>
0.0000

> <Gold.Chemscore.Lipo>
85.3304

> <Gold.Chemscore.Internal_Hbond>
0.0000

> <Gold.Chemscore.DEClash>
0.1246

> <Gold.Chemscore.DEInternal>
2.4953

> <Gold.Chemscore.Rot>
3.7964

> <Gold.Chemscore.Internal.Correction>
   9.000000E+99

> <Gold.Chemscore.Hbonds>
donor molecule, donor type, donor heavy atom, donor atom, acceptor molecule, acceptor atom, score
      P1  H  7989  7998       L1    11  0.09
      P1  H  7997  8010       L1    11  0.88

> <Gold.Chemscore.Hbond.Weighted>
-3.4792

> <Gold.Chemscore.Metal.Weighted>
-0.0000

> <Gold.Chemscore.Lipo.Weighted>
-9.9837

> <Gold.Chemscore.Internal_Hbond.Weighted>
0.0000

> <Gold.Chemscore.DEClash.Weighted>
0.1246

> <Gold.Chemscore.DEInternal.Weighted>
2.4953

> <Gold.Chemscore.Rot.Weighted>
9.7188

> <Gold.Chemscore.Internal.Correction.Weighted>
   9.000000E+99

> <Gold.Protein.RotatedTorsions>
[ 6907 6896 6895 6894 ] final   16.03 input  -60.11 | X-H torsion
[ 7974 7965 7964 7962 ] final    1.36 input  175.53 | X-H torsion
[ 8008 7997 7996 7995 ] final   95.81 input   59.86 | X-H torsion
[ 10167 10162 10161 10158 ] final  -87.12 input  -65.29 | X-H torsion
[ 10718 10713 10712 10709 ] final  -88.98 input   66.30 | X-H torsion
[ 10763 10752 10751 10750 ] final -109.05 input  -60.55 | X-H torsion
[ 11005 11000 10999 10996 ] final -104.28 input  -57.11 | X-H torsion

> <Gold.Protein.ActiveResidues>
 VAL166  LYS551  ARG553  GLY616  TRP617  ASP618  TYR619  PRO620  LYS621  CYS622 
 ASP623  PHE694  ASN695  SER759  ASP760  ASP761  ALA762  ILE779  LEU786  VAL792 
 PHE793  MET794  SER795  GLU796  ALA797  LYS798  CYS799  TRP800  GLU811  SER814 

> <Gold.Protein.RotatedAtoms>
  151.8275  135.0632  160.0432 H   0  0  0  0  0  0  0  0  0  0  0  0  # atno 6907 bound_to 6896
  152.2905  133.5553  159.5563 H   0  0  0  0  0  0  0  0  0  0  0  0  # atno 6908 bound_to 6896
  150.7228  134.0351  159.3788 H   0  0  0  0  0  0  0  0  0  0  0  0  # atno 6909 bound_to 6896
  146.2440  140.0998  142.8348 H   0  0  0  0  0  0  0  0  0  0  0  0  # atno 7974 bound_to 7965
  156.0729  140.3281  155.7598 H   0  0  0  0  0  0  0  0  0  0  0  0  # atno 8008 bound_to 7997
  155.5277  140.0590  157.2912 H   0  0  0  0  0  0  0  0  0  0  0  0  # atno 8009 bound_to 7997
  154.4540  140.1933  156.0453 H   0  0  0  0  0  0  0  0  0  0  0  0  # atno 8010 bound_to 7997
  140.3875  143.2720  151.9306 H   0  0  0  0  0  0  0  0  0  0  0  0  # atno 10167 bound_to 10162
  155.9984  130.4855  150.5102 H   0  0  0  0  0  0  0  0  0  0  0  0  # atno 10718 bound_to 10713
  154.8171  135.4615  154.0674 H   0  0  0  0  0  0  0  0  0  0  0  0  # atno 10763 bound_to 10752
  153.2058  135.6875  153.8181 H   0  0  0  0  0  0  0  0  0  0  0  0  # atno 10764 bound_to 10752
  153.7650  135.3278  155.3320 H   0  0  0  0  0  0  0  0  0  0  0  0  # atno 10765 bound_to 10752
  141.1107  133.8710  157.1592 H   0  0  0  0  0  0  0  0  0  0  0  0  # atno 11005 bound_to 11000
  145.0578  140.9066  143.4956 LP  0  0  0  0  0  0  0  0  0  0  0  0  # atno 17320 bound_to 7965
  145.1108  139.2759  143.5638 LP  0  0  0  0  0  0  0  0  0  0  0  0  # atno 17321 bound_to 7965
  139.4791  144.5759  151.8012 LP  0  0  0  0  0  0  0  0  0  0  0  0  # atno 17342 bound_to 10162
  140.4874  144.1361  150.5943 LP  0  0  0  0  0  0  0  0  0  0  0  0  # atno 17343 bound_to 10162
  157.3076  131.0657  151.2024 LP  0  0  0  0  0  0  0  0  0  0  0  0  # atno 17370 bound_to 10713
  157.2981  130.6829  149.6149 LP  0  0  0  0  0  0  0  0  0  0  0  0  # atno 17371 bound_to 10713
  140.0000  135.0031  157.0169 LP  0  0  0  0  0  0  0  0  0  0  0  0  # atno 17394 bound_to 11000
  140.4782  134.1317  155.7213 LP  0  0  0  0  0  0  0  0  0  0  0  0  # atno 17395 bound_to 11000

$$$$
