AV-unprocessed.smi:1572|AV-procd|sdf|6329|dock8
  -GOLD-   22720 6543D 1   1.00000     0.00000
 Structure written by MMmdl.
 42 43  0  0  0  0  0  0  0  0  1 V2000
  152.5175  142.5453  160.2368 C   0  0  0  0  0  0  0  0  0  0  0  0
  152.0208  141.5446  159.3050 N   0  0  0  0  0  0  0  0  0  0  0  0
  151.4229  142.1590  158.1235 C   0  0  0  0  0  0  0  0  0  0  0  0
  150.8837  141.0966  157.1477 C   0  0  0  0  0  0  0  0  0  0  0  0
  151.9402  140.1714  156.7062 N   0  0  0  0  0  0  0  0  0  0  0  0
  151.5200  139.1945  155.6622 C   0  0  0  0  0  0  0  0  0  0  0  0
  150.4673  139.7690  154.6835 C   0  0  0  0  0  0  0  0  0  0  0  0
  152.7303  138.7348  154.8097 C   0  0  0  0  0  0  0  0  0  0  0  0
  150.9069  137.9093  156.2927 C   0  0  0  0  0  0  0  0  0  0  0  0
  150.4668  136.9416  155.2875 N   0  0  0  0  0  0  0  0  0  0  0  0
  150.4438  135.6097  155.4397 C   0  0  0  0  0  0  0  0  0  0  0  0
  150.8249  135.0338  156.4591 O   0  0  0  0  0  0  0  0  0  0  0  0
  149.9465  135.0060  154.3460 N   0  0  0  0  0  0  0  0  0  0  0  0
  149.7533  133.6178  154.1182 C   0  0  0  0  0  0  0  0  0  0  0  0
  150.2969  132.6552  154.8799 N   0  0  0  0  0  0  0  0  0  0  0  0
  149.9506  131.3849  154.4379 N   0  0  0  0  0  0  0  0  0  0  0  0
  149.1602  131.4392  153.3622 C   0  0  0  0  0  0  0  0  0  0  0  0
  148.7621  133.0476  152.7828 S   0  0  0  0  0  0  0  0  0  0  0  0
  152.5482  139.5695  157.9048 C   0  0  0  0  0  0  0  0  0  0  0  0
  153.0810  140.6386  158.8754 C   0  0  0  0  0  0  0  0  0  0  0  0
  151.7103  143.2003  160.5664 H   0  0  0  0  0  0  0  0  0  0  0  0
  153.2910  143.1626  159.7779 H   0  0  0  0  0  0  0  0  0  0  0  0
  152.9420  142.0708  161.1221 H   0  0  0  0  0  0  0  0  0  0  0  0
  150.6075  142.8178  158.4243 H   0  0  0  0  0  0  0  0  0  0  0  0
  152.1575  142.7847  157.6136 H   0  0  0  0  0  0  0  0  0  0  0  0
  150.0732  140.5490  157.6287 H   0  0  0  0  0  0  0  0  0  0  0  0
  150.4500  141.6223  156.2991 H   0  0  0  0  0  0  0  0  0  0  0  0
  150.1925  139.0312  153.9288 H   0  0  0  0  0  0  0  0  0  0  0  0
  150.8360  140.6428  154.1468 H   0  0  0  0  0  0  0  0  0  0  0  0
  149.5462  140.0558  155.1904 H   0  0  0  0  0  0  0  0  0  0  0  0
  152.4720  137.8881  154.1725 H   0  0  0  0  0  0  0  0  0  0  0  0
  153.5704  138.4269  155.4334 H   0  0  0  0  0  0  0  0  0  0  0  0
  153.0873  139.5191  154.1423 H   0  0  0  0  0  0  0  0  0  0  0  0
  151.6249  137.4103  156.9428 H   0  0  0  0  0  0  0  0  0  0  0  0
  150.0828  138.1738  156.9578 H   0  0  0  0  0  0  0  0  0  0  0  0
  150.1241  137.3248  154.4188 H   0  0  0  0  0  0  0  0  0  0  0  0
  149.6674  135.6116  153.5886 H   0  0  0  0  0  0  0  0  0  0  0  0
  148.8092  130.5252  152.9064 H   0  0  0  0  0  0  0  0  0  0  0  0
  151.8231  138.9449  158.4269 H   0  0  0  0  0  0  0  0  0  0  0  0
  153.3838  138.9264  157.6360 H   0  0  0  0  0  0  0  0  0  0  0  0
  153.8842  141.2008  158.3964 H   0  0  0  0  0  0  0  0  0  0  0  0
  153.5195  140.1477  159.7450 H   0  0  0  0  0  0  0  0  0  0  0  0
  1  2  1  0  0  0  0
  1 21  1  0  0  0  0
  1 22  1  0  0  0  0
  1 23  1  0  0  0  0
  2 20  1  0  0  0  0
  2  3  1  0  0  0  0
  3  4  1  0  0  0  0
  3 24  1  0  0  0  0
  3 25  1  0  0  0  0
  4  5  1  0  0  0  0
  4 26  1  0  0  0  0
  4 27  1  0  0  0  0
  5  6  1  0  0  0  0
  5 19  1  0  0  0  0
  6  7  1  0  0  0  0
  6  8  1  0  0  0  0
  6  9  1  0  0  0  0
  7 28  1  0  0  0  0
  7 29  1  0  0  0  0
  7 30  1  0  0  0  0
  8 31  1  0  0  0  0
  8 32  1  0  0  0  0
  8 33  1  0  0  0  0
  9 10  1  0  0  0  0
  9 34  1  0  0  0  0
  9 35  1  0  0  0  0
 10 11  1  0  0  0  0
 10 36  1  0  0  0  0
 11 12  2  0  0  0  0
 11 13  1  0  0  0  0
 13 14  1  0  0  0  0
 13 37  1  0  0  0  0
 14 18  1  0  0  0  0
 14 15  2  0  0  0  0
 15 16  1  0  0  0  0
 16 17  2  0  0  0  0
 17 18  1  0  0  0  0
 17 38  1  0  0  0  0
 19 20  1  0  0  0  0
 19 39  1  0  0  0  0
 19 40  1  0  0  0  0
 20 41  1  0  0  0  0
 20 42  1  0  0  0  0
M  END
> <s_m_source_file>
AV-unprocessed.smi

> <i_m_source_file_index>
1572

> <i_lp_mmshare_version>
43012

> <i_f3d_flags>
0

> <s_epik_input>
W0NIM11OMVtDSDJdW0NIMl1OKFtDSDJdW0NIMl0xKUMoW0NIM10pKFtDSDNdKVtDSDJdW05IXUMoPU8pW05IXWMybm5bY0hdczI=

> <s_epik_cmdline>
J2VwaWtfcHl0aG9uJywgJy1waCcsICc3LjAnLCAnLXRuJywgJzgnLCAnLW1hJywgJzIwMCcsICctbWV0YWxfYmluZGluZycsICctaW1hZScsICc8aW5maWxlLm1hZT4nLCAnLW9tYWUnLCAnPG91dGZpbGUubWFlPic=

> <r_lp_tautomer_probability>
1

> <r_epik_Ionization_Penalty>
3.01909

> <r_epik_Ionization_Penalty_Charging>
0

> <r_epik_Ionization_Penalty_Neutral>
3.01909

> <r_epik_State_Penalty>
2.1369

> <r_epik_Charging_Adjusted_Penalty>
2.1369

> <i_epik_Tot_Q>
0

> <i_epik_Tot_abs_Q>
0

> <r_epik_Metal_State_Penalty>
2.47072

> <b_epik_Metal_Only>
0

> <s_lp_Force_Field>
OPLS_2005

> <r_lp_Energy>
48.823

> <b_lp_Chiralities_Consistent>
1

> <s_lp_Variant>
AV-unprocessed.smi:1572-3

> <Gold.Version>
5.8.1

> <Gold.Id.Protein>
6NUR|6NUR_protein|mol2

> <Gold.PLP.Fitness>
34.5550

> <Gold.PLP.PLP>
-33.0633

> <Gold.PLP.part.hbond>
-1.0000

> <Gold.PLP.part.metal>
0.0000

> <Gold.PLP.part.buried>
-4.0842

> <Gold.PLP.part.nonpolar>
-27.3243

> <Gold.PLP.part.repulsive>
0.1358

> <Gold.PLP.ligand.clash>
0.0000

> <Gold.PLP.ligand.torsion>
0.9981

> <Gold.PLP.Chemscore.Hbond>
1.0000

> <Gold.PLP.Chemscore.CHOScore>
0.1471

> <Gold.PLP.Chemscore.Metal>
0.0000

> <Gold.Chemscore.Hbonds>
donor molecule, donor type, donor heavy atom, donor atom, acceptor molecule, acceptor atom, score
      L1  H    13    37       P1  7948  0.75
      L1  C    17    38       P1 10747  0.42

> <Gold.PLP.Chemscore.Internal.Correction>
0.0464

> <Gold.Rescore>
     Score         DG    S(hbond)    S(metal)    S(lipo)     H(rot)  DE(clash)    DE(int)     intcor
     10.64     -12.95       0.95        0.00      72.93       1.66       0.03       2.28       ----

> <Gold.Chemscore.Fitness>
10.6416

> <Gold.Chemscore.DG>
-12.9532

> <Gold.Chemscore.ZeroCoef>
-5.4800

> <Gold.Chemscore.Hbond>
0.9542

> <Gold.Chemscore.Metal>
0.0000

> <Gold.Chemscore.Lipo>
72.9327

> <Gold.Chemscore.Internal_Hbond>
0.0000

> <Gold.Chemscore.DEClash>
0.0309

> <Gold.Chemscore.DEInternal>
2.2807

> <Gold.Chemscore.Rot>
1.6590

> <Gold.Chemscore.Internal.Correction>
   9.000000E+99

> <Gold.Chemscore.Hbonds>
donor molecule, donor type, donor heavy atom, donor atom, acceptor molecule, acceptor atom, score
      L1  H    13    37       P1  7948  0.09

> <Gold.Chemscore.Hbond.Weighted>
-3.1870

> <Gold.Chemscore.Metal.Weighted>
-0.0000

> <Gold.Chemscore.Lipo.Weighted>
-8.5331

> <Gold.Chemscore.Internal_Hbond.Weighted>
0.0000

> <Gold.Chemscore.DEClash.Weighted>
0.0309

> <Gold.Chemscore.DEInternal.Weighted>
2.2807

> <Gold.Chemscore.Rot.Weighted>
4.2469

> <Gold.Chemscore.Internal.Correction.Weighted>
   9.000000E+99

> <Gold.Protein.RotatedTorsions>
[ 6907 6896 6895 6894 ] final -147.18 input  -60.11 | X-H torsion
[ 7974 7965 7964 7962 ] final   89.91 input  175.53 | X-H torsion
[ 8008 7997 7996 7995 ] final   71.34 input   59.86 | X-H torsion
[ 10167 10162 10161 10158 ] final -177.40 input  -65.29 | X-H torsion
[ 10718 10713 10712 10709 ] final  -20.06 input   66.30 | X-H torsion
[ 10763 10752 10751 10750 ] final -109.17 input  -60.55 | X-H torsion
[ 11005 11000 10999 10996 ] final  161.45 input  -57.11 | X-H torsion

> <Gold.Protein.ActiveResidues>
 VAL166  LYS551  ARG553  GLY616  TRP617  ASP618  TYR619  PRO620  LYS621  CYS622 
 ASP623  PHE694  ASN695  SER759  ASP760  ASP761  ALA762  ILE779  LEU786  VAL792 
 PHE793  MET794  SER795  GLU796  ALA797  LYS798  CYS799  TRP800  GLU811  SER814 

> <Gold.Protein.RotatedAtoms>
  151.1521  133.4900  159.2594 H   0  0  0  0  0  0  0  0  0  0  0  0  # atno 6907 bound_to 6896
  151.1543  135.0242  159.8692 H   0  0  0  0  0  0  0  0  0  0  0  0  # atno 6908 bound_to 6896
  152.5463  134.1402  159.8529 H   0  0  0  0  0  0  0  0  0  0  0  0  # atno 6909 bound_to 6896
  145.5260  139.2281  143.2645 H   0  0  0  0  0  0  0  0  0  0  0  0  # atno 7974 bound_to 7965
  155.7524  140.3488  155.5157 H   0  0  0  0  0  0  0  0  0  0  0  0  # atno 8008 bound_to 7997
  155.8992  140.1031  157.1383 H   0  0  0  0  0  0  0  0  0  0  0  0  # atno 8009 bound_to 7997
  154.4042  140.1289  156.4401 H   0  0  0  0  0  0  0  0  0  0  0  0  # atno 8010 bound_to 7997
  139.5482  144.2179  152.1028 H   0  0  0  0  0  0  0  0  0  0  0  0  # atno 10167 bound_to 10162
  156.5371  130.4669  149.6517 H   0  0  0  0  0  0  0  0  0  0  0  0  # atno 10718 bound_to 10713
  154.8178  135.4611  154.0691 H   0  0  0  0  0  0  0  0  0  0  0  0  # atno 10763 bound_to 10752
  153.2070  135.6877  153.8167 H   0  0  0  0  0  0  0  0  0  0  0  0  # atno 10764 bound_to 10752
  153.7631  135.3281  155.3317 H   0  0  0  0  0  0  0  0  0  0  0  0  # atno 10765 bound_to 10752
  140.2159  134.8232  157.3170 H   0  0  0  0  0  0  0  0  0  0  0  0  # atno 11005 bound_to 11000
  146.2075  140.6074  142.9074 LP  0  0  0  0  0  0  0  0  0  0  0  0  # atno 17320 bound_to 7965
  144.7651  140.5511  143.6709 LP  0  0  0  0  0  0  0  0  0  0  0  0  # atno 17321 bound_to 7965
  140.1669  144.4973  150.6601 LP  0  0  0  0  0  0  0  0  0  0  0  0  # atno 17342 bound_to 10162
  140.6737  143.2296  151.5561 LP  0  0  0  0  0  0  0  0  0  0  0  0  # atno 17343 bound_to 10162
  156.3006  130.7174  151.2045 LP  0  0  0  0  0  0  0  0  0  0  0  0  # atno 17370 bound_to 10713
  157.7412  131.0507  150.5115 LP  0  0  0  0  0  0  0  0  0  0  0  0  # atno 17371 bound_to 10713
  140.1901  134.4382  155.7721 LP  0  0  0  0  0  0  0  0  0  0  0  0  # atno 17394 bound_to 11000
  141.2225  133.7023  156.8013 LP  0  0  0  0  0  0  0  0  0  0  0  0  # atno 17395 bound_to 11000

$$$$
