AV-unprocessed.smi:3318|AV-procd|sdf|12764|dock6
  -GOLD-   2272019103D 1   1.00000     0.00000
 Structure written by MMmdl.
 44 45  0  0  0  0  0  0  0  0  2 V2000
  152.5749  142.5485  159.3731 C   0  0  0  0  0  0  0  0  0  0  0  0
  151.5833  142.0269  158.3246 C   0  0  0  0  0  0  0  0  0  0  0  0
  152.0454  140.7222  157.6465 C   0  0  0  0  0  0  0  0  0  0  0  0
  151.2802  140.4028  156.4402 N   0  0  0  0  0  0  0  0  0  0  0  0
  149.9384  139.9670  156.8335 C   0  0  0  0  0  0  0  0  0  0  0  0
  149.0699  139.7238  155.5874 C   0  0  0  0  0  0  0  0  0  0  0  0
  149.6949  138.6556  154.6784 C   0  0  0  0  0  0  0  0  0  0  0  0
  148.8896  138.5021  153.4467 N   0  3  0  0  0  0  0  0  0  0  0  0
  147.4353  138.7034  153.6141 C   0  0  0  0  0  0  0  0  0  0  0  0
  146.7091  138.6006  152.2658 C   0  0  0  0  0  0  0  0  0  0  0  0
  145.8285  137.3682  152.1784 C   0  0  0  0  0  0  0  0  0  0  0  0
  144.8099  137.1403  153.1283 C   0  0  0  0  0  0  0  0  0  0  0  0
  144.0229  135.9789  153.0020 C   0  0  0  0  0  0  0  0  0  0  0  0
  144.2846  135.0950  151.9376 C   0  0  0  0  0  0  0  0  0  0  0  0
  145.3253  135.4126  151.0423 C   0  0  0  0  0  0  0  0  0  0  0  0
  146.0861  136.5233  151.1548 N   0  0  0  0  0  0  0  0  0  0  0  0
  151.1469  139.0623  154.3710 C   0  0  0  0  0  0  0  0  0  0  0  0
  151.9306  139.3402  155.6661 C   0  0  0  0  0  0  0  0  0  0  0  0
  152.2365  143.4983  159.7876 H   0  0  0  0  0  0  0  0  0  0  0  0
  153.5614  142.7086  158.9375 H   0  0  0  0  0  0  0  0  0  0  0  0
  152.6827  141.8471  160.2009 H   0  0  0  0  0  0  0  0  0  0  0  0
  150.5952  141.9179  158.7694 H   0  0  0  0  0  0  0  0  0  0  0  0
  151.4708  142.7893  157.5533 H   0  0  0  0  0  0  0  0  0  0  0  0
  153.1085  140.7753  157.4062 H   0  0  0  0  0  0  0  0  0  0  0  0
  151.9351  139.9138  158.3709 H   0  0  0  0  0  0  0  0  0  0  0  0
  149.9972  139.0629  157.4418 H   0  0  0  0  0  0  0  0  0  0  0  0
  149.4682  140.7359  157.4483 H   0  0  0  0  0  0  0  0  0  0  0  0
  148.0697  139.4151  155.8934 H   0  0  0  0  0  0  0  0  0  0  0  0
  148.9511  140.6609  155.0408 H   0  0  0  0  0  0  0  0  0  0  0  0
  149.6916  137.7062  155.2161 H   0  0  0  0  0  0  0  0  0  0  0  0
  149.2143  139.1898  152.7820 H   0  0  0  0  0  0  0  0  0  0  0  0
  147.0380  137.9585  154.3034 H   0  0  0  0  0  0  0  0  0  0  0  0
  147.2551  139.6840  154.0568 H   0  0  0  0  0  0  0  0  0  0  0  0
  146.0980  139.4894  152.1023 H   0  0  0  0  0  0  0  0  0  0  0  0
  147.4341  138.5730  151.4508 H   0  0  0  0  0  0  0  0  0  0  0  0
  144.6328  137.8361  153.9354 H   0  0  0  0  0  0  0  0  0  0  0  0
  143.2329  135.7702  153.7084 H   0  0  0  0  0  0  0  0  0  0  0  0
  143.7011  134.1949  151.8097 H   0  0  0  0  0  0  0  0  0  0  0  0
  145.5534  134.7569  150.2151 H   0  0  0  0  0  0  0  0  0  0  0  0
  151.6552  138.2765  153.8121 H   0  0  0  0  0  0  0  0  0  0  0  0
  151.1624  139.9519  153.7392 H   0  0  0  0  0  0  0  0  0  0  0  0
  152.9456  139.6296  155.3984 H   0  0  0  0  0  0  0  0  0  0  0  0
  152.0064  138.4310  156.2650 H   0  0  0  0  0  0  0  0  0  0  0  0
  149.0558  137.5829  153.0624 H   0  0  0  0  0  0  0  0  0  0  0  0
  1  2  1  0  0  0  0
  1 19  1  0  0  0  0
  1 20  1  0  0  0  0
  1 21  1  0  0  0  0
  2  3  1  0  0  0  0
  2 22  1  0  0  0  0
  2 23  1  0  0  0  0
  3  4  1  0  0  0  0
  3 24  1  0  0  0  0
  3 25  1  0  0  0  0
  4 18  1  0  0  0  0
  4  5  1  0  0  0  0
  5  6  1  0  0  0  0
  5 26  1  0  0  0  0
  5 27  1  0  0  0  0
  6  7  1  0  0  0  0
  6 28  1  0  0  0  0
  6 29  1  0  0  0  0
  7  8  1  0  0  0  0
  7 17  1  0  0  0  0
  7 30  1  0  0  0  0
  8  9  1  0  0  0  0
  8 31  1  0  0  0  0
  8 44  1  0  0  0  0
  9 10  1  0  0  0  0
  9 32  1  0  0  0  0
  9 33  1  0  0  0  0
 10 11  1  0  0  0  0
 10 34  1  0  0  0  0
 10 35  1  0  0  0  0
 11 16  1  0  0  0  0
 11 12  2  0  0  0  0
 12 13  1  0  0  0  0
 12 36  1  0  0  0  0
 13 14  2  0  0  0  0
 13 37  1  0  0  0  0
 14 15  1  0  0  0  0
 14 38  1  0  0  0  0
 15 16  2  0  0  0  0
 15 39  1  0  0  0  0
 17 18  1  0  0  0  0
 17 40  1  0  0  0  0
 17 41  1  0  0  0  0
 18 42  1  0  0  0  0
 18 43  1  0  0  0  0
M  CHG  1   8   1
M  END
> <s_m_source_file>
AV-unprocessed.smi

> <i_m_source_file_index>
3318

> <i_lp_mmshare_version>
43012

> <i_f3d_flags>
0

> <s_epik_input>
W0NIM11bQ0gyXVtDSDJdTjFbQ0gyXVtDSDJdW0NIXShbQ0gyXVtDSDJdMSlbTkhdW0NIMl1bQ0gyXWMyW2NIXVtjSF1bY0hdW2NIXW4y

> <s_epik_cmdline>
J2VwaWtfcHl0aG9uJywgJy1waCcsICc3LjAnLCAnLXRuJywgJzgnLCAnLW1hJywgJzIwMCcsICctbWV0YWxfYmluZGluZycsICctaW1hZScsICc8aW5maWxlLm1hZT4nLCAnLW9tYWUnLCAnPG91dGZpbGUubWFlPic=

> <r_epik_Ionization_Penalty>
1.50803

> <r_epik_Ionization_Penalty_Charging>
0.000531593

> <r_epik_Ionization_Penalty_Neutral>
1.5075

> <r_epik_State_Penalty>
1.60727

> <r_epik_Charging_Adjusted_Penalty>
1.6078

> <i_epik_Tot_Q>
1

> <i_epik_Tot_abs_Q>
1

> <r_epik_Metal_State_Penalty>
1.6087

> <b_epik_Metal_Only>
0

> <s_lp_Force_Field>
OPLS_2005

> <r_lp_Energy>
19.6285

> <b_lp_Chiralities_Consistent>
1

> <s_lp_Variant>
AV-unprocessed.smi:3318-3

> <Gold.Version>
5.8.1

> <Gold.Id.Protein>
6NUR|6NUR_protein|mol2

> <Gold.PLP.Fitness>
44.0172

> <Gold.PLP.PLP>
-33.5593

> <Gold.PLP.part.hbond>
-2.0000

> <Gold.PLP.part.metal>
0.0000

> <Gold.PLP.part.buried>
-2.9635

> <Gold.PLP.part.nonpolar>
-30.4637

> <Gold.PLP.part.repulsive>
1.3789

> <Gold.PLP.ligand.clash>
0.0000

> <Gold.PLP.ligand.torsion>
0.7928

> <Gold.PLP.Chemscore.Hbond>
3.0000

> <Gold.PLP.Chemscore.CHOScore>
1.0000

> <Gold.PLP.Chemscore.Metal>
0.0000

> <Gold.Chemscore.Hbonds>
donor molecule, donor type, donor heavy atom, donor atom, acceptor molecule, acceptor atom, score
      L1  H     8    31       P1  7957  1.00
      L1  H     8    44       P1  7948  2.00
      L1  C    15    39       P1  7921  0.72

> <Gold.PLP.Chemscore.Internal.Correction>
0.0435

> <Gold.Rescore>
     Score         DG    S(hbond)    S(metal)    S(lipo)     H(rot)  DE(clash)    DE(int)     intcor
     17.42     -19.06       1.99        0.00      91.66       1.48       0.67       0.97       ----

> <Gold.Chemscore.Fitness>
17.4224

> <Gold.Chemscore.DG>
-19.0639

> <Gold.Chemscore.ZeroCoef>
-5.4800

> <Gold.Chemscore.Hbond>
1.9935

> <Gold.Chemscore.Metal>
0.0000

> <Gold.Chemscore.Lipo>
91.6634

> <Gold.Chemscore.Internal_Hbond>
0.0000

> <Gold.Chemscore.DEClash>
0.6688

> <Gold.Chemscore.DEInternal>
0.9727

> <Gold.Chemscore.Rot>
1.4840

> <Gold.Chemscore.Internal.Correction>
   9.000000E+99

> <Gold.Chemscore.Hbonds>
donor molecule, donor type, donor heavy atom, donor atom, acceptor molecule, acceptor atom, score
      L1  H     8    31       P1  7957  0.99
      L1  H     8    44       P1  7948  0.99

> <Gold.Chemscore.Hbond.Weighted>
-6.6584

> <Gold.Chemscore.Metal.Weighted>
-0.0000

> <Gold.Chemscore.Lipo.Weighted>
-10.7246

> <Gold.Chemscore.Internal_Hbond.Weighted>
0.0000

> <Gold.Chemscore.DEClash.Weighted>
0.6688

> <Gold.Chemscore.DEInternal.Weighted>
0.9727

> <Gold.Chemscore.Rot.Weighted>
3.7991

> <Gold.Chemscore.Internal.Correction.Weighted>
   9.000000E+99

> <Gold.Protein.RotatedTorsions>
[ 6907 6896 6895 6894 ] final   41.69 input  -60.11 | X-H torsion
[ 7974 7965 7964 7962 ] final  -58.83 input  175.53 | X-H torsion
[ 8008 7997 7996 7995 ] final   69.16 input   59.86 | X-H torsion
[ 10167 10162 10161 10158 ] final   34.47 input  -65.29 | X-H torsion
[ 10718 10713 10712 10709 ] final  152.97 input   66.30 | X-H torsion
[ 10763 10752 10751 10750 ] final  -11.85 input  -60.55 | X-H torsion
[ 11005 11000 10999 10996 ] final  175.06 input  -57.11 | X-H torsion

> <Gold.Protein.ActiveResidues>
 VAL166  LYS551  ARG553  GLY616  TRP617  ASP618  TYR619  PRO620  LYS621  CYS622 
 ASP623  PHE694  ASN695  SER759  ASP760  ASP761  ALA762  ILE779  LEU786  VAL792 
 PHE793  MET794  SER795  GLU796  ALA797  LYS798  CYS799  TRP800  GLU811  SER814 

> <Gold.Protein.RotatedAtoms>
  152.1984  134.8610  160.0510 H   0  0  0  0  0  0  0  0  0  0  0  0  # atno 6907 bound_to 6896
  151.9472  133.3650  159.3995 H   0  0  0  0  0  0  0  0  0  0  0  0  # atno 6908 bound_to 6896
  150.6949  134.4301  159.5288 H   0  0  0  0  0  0  0  0  0  0  0  0  # atno 6909 bound_to 6896
  145.8346  140.8457  143.0066 H   0  0  0  0  0  0  0  0  0  0  0  0  # atno 7974 bound_to 7965
  155.7193  140.3493  155.5009 H   0  0  0  0  0  0  0  0  0  0  0  0  # atno 8008 bound_to 7997
  155.9284  140.1080  157.1173 H   0  0  0  0  0  0  0  0  0  0  0  0  # atno 8009 bound_to 7997
  154.4081  140.1236  156.4757 H   0  0  0  0  0  0  0  0  0  0  0  0  # atno 8010 bound_to 7997
  140.4312  144.1321  150.6160 H   0  0  0  0  0  0  0  0  0  0  0  0  # atno 10167 bound_to 10162
  157.2509  131.0778  151.1730 H   0  0  0  0  0  0  0  0  0  0  0  0  # atno 10718 bound_to 10713
  153.4898  135.7017  153.5890 H   0  0  0  0  0  0  0  0  0  0  0  0  # atno 10763 bound_to 10752
  153.4068  135.3858  155.2024 H   0  0  0  0  0  0  0  0  0  0  0  0  # atno 10764 bound_to 10752
  154.8717  135.3895  154.4357 H   0  0  0  0  0  0  0  0  0  0  0  0  # atno 10765 bound_to 10752
  140.3581  134.7137  157.4313 H   0  0  0  0  0  0  0  0  0  0  0  0  # atno 11005 bound_to 11000
  144.6737  140.0723  143.7472 LP  0  0  0  0  0  0  0  0  0  0  0  0  # atno 17320 bound_to 7965
  145.9533  139.2748  143.1199 LP  0  0  0  0  0  0  0  0  0  0  0  0  # atno 17321 bound_to 7965
  140.4425  143.2520  151.9455 LP  0  0  0  0  0  0  0  0  0  0  0  0  # atno 17342 bound_to 10162
  139.4785  144.5641  151.8193 LP  0  0  0  0  0  0  0  0  0  0  0  0  # atno 17343 bound_to 10162
  157.3279  130.6970  149.6307 LP  0  0  0  0  0  0  0  0  0  0  0  0  # atno 17370 bound_to 10713
  155.9666  130.4316  150.4928 LP  0  0  0  0  0  0  0  0  0  0  0  0  # atno 17371 bound_to 10713
  140.0649  134.5944  155.8707 LP  0  0  0  0  0  0  0  0  0  0  0  0  # atno 17394 bound_to 11000
  141.1992  133.6605  156.5833 LP  0  0  0  0  0  0  0  0  0  0  0  0  # atno 17395 bound_to 11000

$$$$
