AV-unprocessed.smi:1916|AV-procd|sdf|7767|dock9
  -GOLD-   22720 9513D 1   1.00000     0.00000
 Structure written by MMmdl.
 46 48  0  0  0  0  0  0  0  0  2 V2000
  153.3498  138.1140  157.0088 O   0  0  0  0  0  0  0  0  0  0  0  0
  152.4853  138.9694  157.1998 C   0  0  0  0  0  0  0  0  0  0  0  0
  151.8075  139.5627  156.2058 N   0  0  0  0  0  0  0  0  0  0  0  0
  151.9880  139.2880  154.7829 C   0  0  0  0  0  0  0  0  0  0  0  0
  150.8165  138.5078  154.1496 C   0  0  0  0  0  0  0  0  0  0  0  0
  149.6268  139.3760  153.7768 C   0  0  0  0  0  0  0  0  0  0  0  0
  149.4920  140.7018  154.2426 C   0  0  0  0  0  0  0  0  0  0  0  0
  148.3705  141.4604  153.8464 C   0  0  0  0  0  0  0  0  0  0  0  0
  147.4099  140.8792  152.9927 C   0  0  0  0  0  0  0  0  0  0  0  0
  147.5944  139.5513  152.5567 C   0  0  0  0  0  0  0  0  0  0  0  0
  148.6809  138.8571  152.9596 N   0  3  0  0  0  0  0  0  0  0  0  0
  152.1515  139.4302  158.6271 C   0  0  1  0  0  0  0  0  0  0  0  0
  153.3873  140.0082  159.3411 C   0  0  0  0  0  0  0  0  0  0  0  0
  153.0754  141.4889  159.4777 C   0  0  0  0  0  0  0  0  0  0  0  0
  153.8874  142.2928  159.9325 O   0  0  0  0  0  0  0  0  0  0  0  0
  151.8376  141.7674  159.0410 N   0  0  0  0  0  0  0  0  0  0  0  0
  151.1526  143.0677  159.0113 C   0  0  0  0  0  0  0  0  0  0  0  0
  151.7012  144.0240  157.9289 C   0  0  0  0  0  0  0  0  0  0  0  0
  152.3205  145.2069  158.6772 C   0  0  0  0  0  0  0  0  0  0  0  0
  151.5319  145.2863  159.9810 C   0  0  0  0  0  0  0  0  0  0  0  0
  151.2585  143.8276  160.3505 C   0  0  0  0  0  0  0  0  0  0  0  0
  151.1118  140.5704  158.6446 C   0  0  0  0  0  0  0  0  0  0  0  0
  151.1121  140.2526  156.4526 H   0  0  0  0  0  0  0  0  0  0  0  0
  152.1583  140.2203  154.2423 H   0  0  0  0  0  0  0  0  0  0  0  0
  152.9035  138.7045  154.6822 H   0  0  0  0  0  0  0  0  0  0  0  0
  151.1609  137.9864  153.2554 H   0  0  0  0  0  0  0  0  0  0  0  0
  150.4847  137.7285  154.8365 H   0  0  0  0  0  0  0  0  0  0  0  0
  150.2386  141.1342  154.8929 H   0  0  0  0  0  0  0  0  0  0  0  0
  148.2497  142.4767  154.1922 H   0  0  0  0  0  0  0  0  0  0  0  0
  146.5446  141.4441  152.6775 H   0  0  0  0  0  0  0  0  0  0  0  0
  146.9122  139.0276  151.9030 H   0  0  0  0  0  0  0  0  0  0  0  0
  151.7655  138.5805  159.1933 H   0  0  0  0  0  0  0  0  0  0  0  0
  153.5079  139.5702  160.3323 H   0  0  0  0  0  0  0  0  0  0  0  0
  154.3200  139.8634  158.7933 H   0  0  0  0  0  0  0  0  0  0  0  0
  150.0965  142.8960  158.7964 H   0  0  0  0  0  0  0  0  0  0  0  0
  152.4119  143.5551  157.2472 H   0  0  0  0  0  0  0  0  0  0  0  0
  150.8724  144.3828  157.3173 H   0  0  0  0  0  0  0  0  0  0  0  0
  153.3688  145.0001  158.8958 H   0  0  0  0  0  0  0  0  0  0  0  0
  152.2789  146.1334  158.1041 H   0  0  0  0  0  0  0  0  0  0  0  0
  152.0669  145.8240  160.7641 H   0  0  0  0  0  0  0  0  0  0  0  0
  150.5879  145.8042  159.8067 H   0  0  0  0  0  0  0  0  0  0  0  0
  150.3574  143.7217  160.9551 H   0  0  0  0  0  0  0  0  0  0  0  0
  152.0897  143.4555  160.9505 H   0  0  0  0  0  0  0  0  0  0  0  0
  150.6259  140.7174  157.6782 H   0  0  0  0  0  0  0  0  0  0  0  0
  150.3292  140.3670  159.3767 H   0  0  0  0  0  0  0  0  0  0  0  0
  148.7962  137.8976  152.6315 H   0  0  0  0  0  0  0  0  0  0  0  0
  1  2  2  0  0  0  0
  2  3  1  0  0  0  0
  2 12  1  0  0  0  0
  3  4  1  0  0  0  0
  3 23  1  0  0  0  0
  4  5  1  0  0  0  0
  4 24  1  0  0  0  0
  4 25  1  0  0  0  0
  5  6  1  0  0  0  0
  5 26  1  0  0  0  0
  5 27  1  0  0  0  0
  6 11  1  0  0  0  0
  6  7  2  0  0  0  0
  7  8  1  0  0  0  0
  7 28  1  0  0  0  0
  8  9  2  0  0  0  0
  8 29  1  0  0  0  0
  9 10  1  0  0  0  0
  9 30  1  0  0  0  0
 10 11  2  0  0  0  0
 10 31  1  0  0  0  0
 11 46  1  0  0  0  0
 12 22  1  0  0  0  0
 12 13  1  0  0  0  0
 12 32  1  0  0  0  0
 13 14  1  0  0  0  0
 13 33  1  0  0  0  0
 13 34  1  0  0  0  0
 14 15  2  0  0  0  0
 14 16  1  0  0  0  0
 16 17  1  0  0  0  0
 16 22  1  0  0  0  0
 17 21  1  0  0  0  0
 17 18  1  0  0  0  0
 17 35  1  0  0  0  0
 18 19  1  0  0  0  0
 18 36  1  0  0  0  0
 18 37  1  0  0  0  0
 19 20  1  0  0  0  0
 19 38  1  0  0  0  0
 19 39  1  0  0  0  0
 20 21  1  0  0  0  0
 20 40  1  0  0  0  0
 20 41  1  0  0  0  0
 21 42  1  0  0  0  0
 21 43  1  0  0  0  0
 22 44  1  0  0  0  0
 22 45  1  0  0  0  0
M  CHG  1  11   1
M  END
> <s_m_source_file>
AV-unprocessed.smi

> <i_m_source_file_index>
1916

> <i_lp_mmshare_version>
43012

> <i_f3d_flags>
0

> <s_epik_input>
W0NIMl0xW0NIMl1bQ0gyXVtDSDJdW0NIXTFOKFtDSDJdMilDKD1PKVtDSDJdW0NASF0yQyg9TylbTkhdW0NIMl1bQ0gyXWMzW2NIXVtjSF1bY0hdW2NIXW4z

> <s_epik_cmdline>
J2VwaWtfcHl0aG9uJywgJy1waCcsICc3LjAnLCAnLXRuJywgJzgnLCAnLW1hJywgJzIwMCcsICctbWV0YWxfYmluZGluZycsICctaW1hZScsICc8aW5maWxlLm1hZT4nLCAnLW9tYWUnLCAnPG91dGZpbGUubWFlPic=

> <r_epik_Ionization_Penalty>
1.88249

> <r_epik_Ionization_Penalty_Charging>
1.88249

> <r_epik_Ionization_Penalty_Neutral>
3.64574e-08

> <r_epik_State_Penalty>
2.00238

> <r_epik_Charging_Adjusted_Penalty>
3.88487

> <i_epik_Tot_Q>
1

> <i_epik_Tot_abs_Q>
1

> <r_epik_Metal_State_Penalty>
2.02676

> <b_epik_Metal_Only>
0

> <s_lp_Force_Field>
OPLS_2005

> <r_lp_Energy>
36.1777

> <b_lp_Chiralities_Consistent>
1

> <s_lp_Variant>
AV-unprocessed.smi:1916-4

> <Gold.Version>
5.8.1

> <Gold.Id.Protein>
6NUR|6NUR_protein|mol2

> <Gold.PLP.Fitness>
54.1300

> <Gold.PLP.PLP>
-49.8913

> <Gold.PLP.part.hbond>
-2.0000

> <Gold.PLP.part.metal>
0.0000

> <Gold.PLP.part.buried>
-4.9244

> <Gold.PLP.part.nonpolar>
-43.5669

> <Gold.PLP.part.repulsive>
0.1478

> <Gold.PLP.ligand.clash>
0.7628

> <Gold.PLP.ligand.torsion>
0.5337

> <Gold.PLP.Chemscore.Hbond>
2.0000

> <Gold.PLP.Chemscore.CHOScore>
0.0000

> <Gold.PLP.Chemscore.Metal>
0.0000

> <Gold.Chemscore.Hbonds>
donor molecule, donor type, donor heavy atom, donor atom, acceptor molecule, acceptor atom, score
      L1  H    11    46       P1  7948  2.00
      P1  H  7997  8008       L1     1  0.01

> <Gold.PLP.Chemscore.Internal.Correction>
0.0690

> <Gold.Rescore>
     Score         DG    S(hbond)    S(metal)    S(lipo)     H(rot)  DE(clash)    DE(int)     intcor
     18.70     -19.34       0.99        0.00     127.88       1.72       0.16       0.48       ----

> <Gold.Chemscore.Fitness>
18.7015

> <Gold.Chemscore.DG>
-19.3408

> <Gold.Chemscore.ZeroCoef>
-5.4800

> <Gold.Chemscore.Hbond>
0.9852

> <Gold.Chemscore.Metal>
0.0000

> <Gold.Chemscore.Lipo>
127.8850

> <Gold.Chemscore.Internal_Hbond>
0.0000

> <Gold.Chemscore.DEClash>
0.1563

> <Gold.Chemscore.DEInternal>
0.4830

> <Gold.Chemscore.Rot>
1.7158

> <Gold.Chemscore.Internal.Correction>
   9.000000E+99

> <Gold.Chemscore.Hbonds>
donor molecule, donor type, donor heavy atom, donor atom, acceptor molecule, acceptor atom, score
      L1  H    11    46       P1  7948  1.00

> <Gold.Chemscore.Hbond.Weighted>
-3.2906

> <Gold.Chemscore.Metal.Weighted>
-0.0000

> <Gold.Chemscore.Lipo.Weighted>
-14.9625

> <Gold.Chemscore.Internal_Hbond.Weighted>
0.0000

> <Gold.Chemscore.DEClash.Weighted>
0.1563

> <Gold.Chemscore.DEInternal.Weighted>
0.4830

> <Gold.Chemscore.Rot.Weighted>
4.3924

> <Gold.Chemscore.Internal.Correction.Weighted>
   9.000000E+99

> <Gold.Protein.RotatedTorsions>
[ 6907 6896 6895 6894 ] final  -87.69 input  -60.11 | X-H torsion
[ 7974 7965 7964 7962 ] final  133.74 input  175.53 | X-H torsion
[ 8008 7997 7996 7995 ] final  -94.85 input   59.86 | X-H torsion
[ 10167 10162 10161 10158 ] final  176.03 input  -65.29 | X-H torsion
[ 10718 10713 10712 10709 ] final  125.66 input   66.30 | X-H torsion
[ 10763 10752 10751 10750 ] final -178.70 input  -60.55 | X-H torsion
[ 11005 11000 10999 10996 ] final -110.27 input  -57.11 | X-H torsion

> <Gold.Protein.ActiveResidues>
 VAL166  LYS551  ARG553  GLY616  TRP617  ASP618  TYR619  PRO620  LYS621  CYS622 
 ASP623  PHE694  ASN695  SER759  ASP760  ASP761  ALA762  ILE779  LEU786  VAL792 
 PHE793  MET794  SER795  GLU796  ALA797  LYS798  CYS799  TRP800  GLU811  SER814 

> <Gold.Protein.RotatedAtoms>
  150.6867  134.2857  159.4645 H   0  0  0  0  0  0  0  0  0  0  0  0  # atno 6907 bound_to 6896
  152.0767  134.9495  160.0583 H   0  0  0  0  0  0  0  0  0  0  0  0  # atno 6908 bound_to 6896
  152.0864  133.4144  159.4561 H   0  0  0  0  0  0  0  0  0  0  0  0  # atno 6909 bound_to 6896
  144.9834  139.4481  143.5375 H   0  0  0  0  0  0  0  0  0  0  0  0  # atno 7974 bound_to 7965
  154.7537  140.0485  157.0915 H   0  0  0  0  0  0  0  0  0  0  0  0  # atno 8008 bound_to 7997
  155.0025  140.3126  155.4842 H   0  0  0  0  0  0  0  0  0  0  0  0  # atno 8009 bound_to 7997
  156.2890  140.2199  156.5135 H   0  0  0  0  0  0  0  0  0  0  0  0  # atno 8010 bound_to 7997
  139.5199  144.2963  152.0419 H   0  0  0  0  0  0  0  0  0  0  0  0  # atno 10167 bound_to 10162
  157.5485  131.1095  150.8742 H   0  0  0  0  0  0  0  0  0  0  0  0  # atno 10718 bound_to 10713
  154.5443  135.2808  155.1066 H   0  0  0  0  0  0  0  0  0  0  0  0  # atno 10763 bound_to 10752
  154.2537  135.6334  153.5253 H   0  0  0  0  0  0  0  0  0  0  0  0  # atno 10764 bound_to 10752
  152.9987  135.5589  154.5992 H   0  0  0  0  0  0  0  0  0  0  0  0  # atno 10765 bound_to 10752
  141.0801  133.9234  157.2306 H   0  0  0  0  0  0  0  0  0  0  0  0  # atno 11005 bound_to 11000
  146.3414  139.9121  142.8779 LP  0  0  0  0  0  0  0  0  0  0  0  0  # atno 17320 bound_to 7965
  145.2388  141.0001  143.3948 LP  0  0  0  0  0  0  0  0  0  0  0  0  # atno 17321 bound_to 7965
  140.2412  144.4267  150.6259 LP  0  0  0  0  0  0  0  0  0  0  0  0  # atno 17342 bound_to 10162
  140.6289  143.2185  151.6537 LP  0  0  0  0  0  0  0  0  0  0  0  0  # atno 17343 bound_to 10162
  156.9274  130.5337  149.5279 LP  0  0  0  0  0  0  0  0  0  0  0  0  # atno 17370 bound_to 10713
  156.0556  130.5618  150.9084 LP  0  0  0  0  0  0  0  0  0  0  0  0  # atno 17371 bound_to 10713
  139.9615  135.0153  156.9273 LP  0  0  0  0  0  0  0  0  0  0  0  0  # atno 17394 bound_to 11000
  140.5487  134.0649  155.7362 LP  0  0  0  0  0  0  0  0  0  0  0  0  # atno 17395 bound_to 11000

$$$$
