AV-unprocessed.smi:62|AV-procd|sdf|602|dock3
  -GOLD-   2262016493D 1   1.00000     0.00000
 Structure written by MMmdl.
 31 32  0  0  0  0  0  0  0  0  3 V2000
  151.2842  145.6696  159.7669 C   0  0  0  0  0  0  0  0  0  0  0  0
  150.1950  144.7474  159.5282 N   0  0  0  0  0  0  0  0  0  0  0  0
  150.1363  143.6937  158.6469 C   0  0  0  0  0  0  0  0  0  0  0  0
  148.9092  143.1014  158.7696 C   0  0  0  0  0  0  0  0  0  0  0  0
  148.4517  141.8921  157.9835 C   0  0  0  0  0  0  0  0  0  0  0  0
  148.4448  142.1673  156.5272 N   0  3  2  0  0  0  0  0  0  0  0  0
  147.1210  142.0244  155.8883 C   0  0  0  0  0  0  0  0  0  0  0  0
  147.4226  141.8123  154.4087 C   0  0  0  0  0  0  0  0  0  0  0  0
  148.6746  140.9406  154.4514 C   0  0  1  0  0  0  0  0  0  0  0  0
  149.4534  141.0824  153.2823 O   0  0  0  0  0  0  0  0  0  0  0  0
  149.4202  141.4009  155.7131 C   0  0  0  0  0  0  0  0  0  0  0  0
  148.2645  143.9053  159.7744 C   0  0  0  0  0  0  0  0  0  0  0  0
  146.8589  143.6585  160.2567 C   0  0  0  0  0  0  0  0  0  0  0  0
  146.2209  144.5647  160.8342 O   0  0  0  0  0  0  0  0  0  0  0  0
  146.3658  142.5264  160.0588 O   0  5  0  0  0  0  0  0  0  0  0  0
  149.0499  144.8768  160.2209 N   0  0  0  0  0  0  0  0  0  0  0  0
  152.2038  145.2835  159.3260 H   0  0  0  0  0  0  0  0  0  0  0  0
  151.4348  145.7999  160.8392 H   0  0  0  0  0  0  0  0  0  0  0  0
  151.0521  146.6356  159.3175 H   0  0  0  0  0  0  0  0  0  0  0  0
  150.9720  143.4469  158.0087 H   0  0  0  0  0  0  0  0  0  0  0  0
  149.0226  140.9894  158.1879 H   0  0  0  0  0  0  0  0  0  0  0  0
  147.4301  141.6412  158.2717 H   0  0  0  0  0  0  0  0  0  0  0  0
  146.6097  141.1468  156.2882 H   0  0  0  0  0  0  0  0  0  0  0  0
  146.4906  142.8959  156.0676 H   0  0  0  0  0  0  0  0  0  0  0  0
  146.5982  141.3479  153.8667 H   0  0  0  0  0  0  0  0  0  0  0  0
  147.6398  142.7728  153.9384 H   0  0  0  0  0  0  0  0  0  0  0  0
  148.3821  139.8954  154.5634 H   0  0  0  0  0  0  0  0  0  0  0  0
  149.1465  140.4620  152.6382 H   0  0  0  0  0  0  0  0  0  0  0  0
  150.2558  142.0604  155.4752 H   0  0  0  0  0  0  0  0  0  0  0  0
  149.8237  140.5390  156.2409 H   0  0  0  0  0  0  0  0  0  0  0  0
  148.7002  143.1374  156.4129 H   0  0  0  0  0  0  0  0  0  0  0  0
  1  2  1  0  0  0  0
  1 17  1  0  0  0  0
  1 18  1  0  0  0  0
  1 19  1  0  0  0  0
  2 16  1  0  0  0  0
  2  3  1  0  0  0  0
  3  4  2  0  0  0  0
  3 20  1  0  0  0  0
  4  5  1  0  0  0  0
  4 12  1  0  0  0  0
  5  6  1  0  0  0  0
  5 21  1  0  0  0  0
  5 22  1  0  0  0  0
  6 11  1  0  0  0  0
  6  7  1  0  0  0  0
  6 31  1  0  0  0  0
  7  8  1  0  0  0  0
  7 23  1  0  0  0  0
  7 24  1  0  0  0  0
  8  9  1  0  0  0  0
  8 25  1  0  0  0  0
  8 26  1  0  0  0  0
  9 10  1  0  0  0  0
  9 11  1  0  0  0  0
  9 27  1  0  0  0  0
 10 28  1  0  0  0  0
 11 29  1  0  0  0  0
 11 30  1  0  0  0  0
 12 13  1  0  0  0  0
 12 16  2  0  0  0  0
 13 14  2  0  0  0  0
 13 15  1  0  0  0  0
M  CHG  1   6   1
M  CHG  1  15  -1
M  END
> <s_m_source_file>
AV-unprocessed.smi

> <i_m_source_file_index>
62

> <i_lp_mmshare_version>
43012

> <i_f3d_flags>
0

> <s_epik_input>
W0NIM11uMVtjSF1jKGMobjEpQyg9TylbT0hdKVtDSDJdTjJbQ0gyXVtDSDJdW0NAQEhdKFtPSF0pW0NIMl0y

> <s_epik_cmdline>
J2VwaWtfcHl0aG9uJywgJy1waCcsICc3LjAnLCAnLXRuJywgJzgnLCAnLW1hJywgJzIwMCcsICctbWV0YWxfYmluZGluZycsICctaW1hZScsICc8aW5maWxlLm1hZT4nLCAnLW9tYWUnLCAnPG91dGZpbGUubWFlPic=

> <r_epik_Ionization_Penalty>
0.0522993

> <r_epik_Ionization_Penalty_Charging>
0.0522915

> <r_epik_Ionization_Penalty_Neutral>
7.84975e-06

> <r_epik_State_Penalty>
0.0448084

> <r_epik_Charging_Adjusted_Penalty>
0.0970998

> <i_epik_Tot_Q>
0

> <i_epik_Tot_abs_Q>
2

> <r_epik_Metal_State_Penalty>
0.0448097

> <b_epik_Metal_Only>
0

> <s_lp_Force_Field>
OPLS_2005

> <r_lp_Energy>
19.3892

> <b_lp_Chiralities_Consistent>
1

> <s_lp_Variant>
AV-unprocessed.smi:62-2

> <Gold.Version>
5.8.1

> <Gold.Id.Protein>
6NUR|6NUR_protein|mol2

> <Gold.PLP.Fitness>
42.2726

> <Gold.PLP.PLP>
-26.5357

> <Gold.PLP.part.hbond>
-4.3081

> <Gold.PLP.part.metal>
0.0000

> <Gold.PLP.part.buried>
-2.2494

> <Gold.PLP.part.nonpolar>
-19.5198

> <Gold.PLP.part.repulsive>
0.3613

> <Gold.PLP.ligand.clash>
0.0000

> <Gold.PLP.ligand.torsion>
0.9125

> <Gold.PLP.Chemscore.Hbond>
5.8507

> <Gold.PLP.Chemscore.CHOScore>
0.0000

> <Gold.PLP.Chemscore.Metal>
0.0000

> <Gold.Chemscore.Hbonds>
donor molecule, donor type, donor heavy atom, donor atom, acceptor molecule, acceptor atom, score
      L1  H     6    31       P1  8028  2.00
      L1  H    10    28       P1  7957  0.69
      P1  H  6934  6946       L1    15  2.00
      P1  H  7989  7998       L1    10  0.11
      P1  H  8011  8017       L1    10  1.00

> <Gold.PLP.Chemscore.Internal.Correction>
0.0099

> <Gold.Rescore>
     Score         DG    S(hbond)    S(metal)    S(lipo)     H(rot)  DE(clash)    DE(int)     intcor
     17.00     -18.36       3.44        0.00      51.57       1.81       0.10       1.26       ----

> <Gold.Chemscore.Fitness>
17.0005

> <Gold.Chemscore.DG>
-18.3604

> <Gold.Chemscore.ZeroCoef>
-5.4800

> <Gold.Chemscore.Hbond>
3.4366

> <Gold.Chemscore.Metal>
0.0000

> <Gold.Chemscore.Lipo>
51.5693

> <Gold.Chemscore.Internal_Hbond>
0.0000

> <Gold.Chemscore.DEClash>
0.1018

> <Gold.Chemscore.DEInternal>
1.2581

> <Gold.Chemscore.Rot>
1.8091

> <Gold.Chemscore.Internal.Correction>
   9.000000E+99

> <Gold.Chemscore.Hbonds>
donor molecule, donor type, donor heavy atom, donor atom, acceptor molecule, acceptor atom, score
      L1  H     6    31       P1  8028  0.92
      L1  H    10    28       P1  7957  0.69
      P1  H  6934  6946       L1    15  1.00
      P1  H  7989  7998       L1    10  0.08
      P1  H  8011  8017       L1    10  0.30

> <Gold.Chemscore.Hbond.Weighted>
-11.4782

> <Gold.Chemscore.Metal.Weighted>
-0.0000

> <Gold.Chemscore.Lipo.Weighted>
-6.0336

> <Gold.Chemscore.Internal_Hbond.Weighted>
0.0000

> <Gold.Chemscore.DEClash.Weighted>
0.1018

> <Gold.Chemscore.DEInternal.Weighted>
1.2581

> <Gold.Chemscore.Rot.Weighted>
4.6314

> <Gold.Chemscore.Internal.Correction.Weighted>
   9.000000E+99

> <Gold.Protein.RotatedTorsions>
[ 6907 6896 6895 6894 ] final -179.40 input  -60.11 | X-H torsion
[ 7974 7965 7964 7962 ] final  -24.94 input  175.53 | X-H torsion
[ 8008 7997 7996 7995 ] final  -92.93 input   59.86 | X-H torsion
[ 10167 10162 10161 10158 ] final  -50.46 input  -65.29 | X-H torsion
[ 10718 10713 10712 10709 ] final   18.71 input   66.30 | X-H torsion
[ 10763 10752 10751 10750 ] final -107.60 input  -60.55 | X-H torsion
[ 11005 11000 10999 10996 ] final  -77.54 input  -57.11 | X-H torsion

> <Gold.Protein.ActiveResidues>
 VAL166  LYS551  ARG553  GLY616  TRP617  ASP618  TYR619  PRO620  LYS621  CYS622 
 ASP623  PHE694  ASN695  SER759  ASP760  ASP761  ALA762  ILE779  LEU786  VAL792 
 PHE793  MET794  SER795  GLU796  ALA797  LYS798  CYS799  TRP800  GLU811  SER814 

> <Gold.Protein.RotatedAtoms>
  151.6529  133.3320  159.3155 H   0  0  0  0  0  0  0  0  0  0  0  0  # atno 6907 bound_to 6896
  150.7951  134.7009  159.6559 H   0  0  0  0  0  0  0  0  0  0  0  0  # atno 6908 bound_to 6896
  152.4037  134.6247  160.0111 H   0  0  0  0  0  0  0  0  0  0  0  0  # atno 6909 bound_to 6896
  146.1523  140.4820  142.8606 H   0  0  0  0  0  0  0  0  0  0  0  0  # atno 7974 bound_to 7965
  154.7293  140.0504  157.0711 H   0  0  0  0  0  0  0  0  0  0  0  0  # atno 8008 bound_to 7997
  155.0323  140.3159  155.4735 H   0  0  0  0  0  0  0  0  0  0  0  0  # atno 8009 bound_to 7997
  156.2837  140.2147  156.5445 H   0  0  0  0  0  0  0  0  0  0  0  0  # atno 8010 bound_to 7997
  140.6636  143.2657  151.4363 H   0  0  0  0  0  0  0  0  0  0  0  0  # atno 10167 bound_to 10162
  157.1001  130.6464  149.5870 H   0  0  0  0  0  0  0  0  0  0  0  0  # atno 10718 bound_to 10713
  154.8085  135.4669  154.0455 H   0  0  0  0  0  0  0  0  0  0  0  0  # atno 10763 bound_to 10752
  153.1904  135.6854  153.8366 H   0  0  0  0  0  0  0  0  0  0  0  0  # atno 10764 bound_to 10752
  153.7886  135.3246  155.3353 H   0  0  0  0  0  0  0  0  0  0  0  0  # atno 10765 bound_to 10752
  141.1661  133.7026  156.7836 H   0  0  0  0  0  0  0  0  0  0  0  0  # atno 11005 bound_to 11000
  144.7919  140.6048  143.6536 LP  0  0  0  0  0  0  0  0  0  0  0  0  # atno 17320 bound_to 7965
  145.4794  139.1496  143.3770 LP  0  0  0  0  0  0  0  0  0  0  0  0  # atno 17321 bound_to 7965
  139.5878  144.1566  152.2050 LP  0  0  0  0  0  0  0  0  0  0  0  0  # atno 17342 bound_to 10162
  140.0911  144.5619  150.7054 LP  0  0  0  0  0  0  0  0  0  0  0  0  # atno 17343 bound_to 10162
  155.9876  130.4915  150.7131 LP  0  0  0  0  0  0  0  0  0  0  0  0  # atno 17370 bound_to 10713
  157.4648  131.0887  151.0707 LP  0  0  0  0  0  0  0  0  0  0  0  0  # atno 17371 bound_to 10713
  140.2377  134.8638  157.3541 LP  0  0  0  0  0  0  0  0  0  0  0  0  # atno 17394 bound_to 11000
  140.1827  134.4469  155.7762 LP  0  0  0  0  0  0  0  0  0  0  0  0  # atno 17395 bound_to 11000

$$$$
