AV-unprocessed.smi:786|AV-procd|sdf|3721|dock8
  -GOLD-   22720 1143D 1   1.00000     0.00000
 Structure written by MMmdl.
 39 40  0  0  0  0  0  0  0  0  1 V2000
  151.8661  136.7132  157.3748 O   0  0  0  0  0  0  0  0  0  0  0  0
  153.3289  136.6964  157.5227 S   0  0  0  0  0  0  0  0  0  0  0  0
  154.0711  135.4314  157.4138 O   0  0  0  0  0  0  0  0  0  0  0  0
  154.0852  137.9240  156.3620 C   0  0  0  0  0  0  0  0  0  0  0  0
  153.0429  138.6622  155.4963 C   0  0  0  0  0  0  0  0  0  0  0  0
  153.0698  138.2350  154.0161 C   0  0  0  0  0  0  0  0  0  0  0  0
  152.0648  139.0567  153.1924 C   0  0  0  0  0  0  0  0  0  0  0  0
  152.3471  140.4454  153.3249 O   0  0  0  0  0  0  0  0  0  0  0  0
  152.2234  140.9101  154.6644 C   0  0  0  0  0  0  0  0  0  0  0  0
  153.2349  140.1861  155.5681 C   0  0  0  0  0  0  0  0  0  0  0  0
  153.6813  137.3685  159.0731 N   0  0  0  0  0  0  0  0  0  0  0  0
  153.1157  138.6558  159.4767 C   0  0  0  0  0  0  0  0  0  0  0  0
  154.1986  139.5360  160.1148 C   0  0  0  0  0  0  0  0  0  0  0  0
  153.7378  140.9698  160.2989 C   0  0  0  0  0  0  0  0  0  0  0  0
  153.6193  141.5287  161.5894 C   0  0  0  0  0  0  0  0  0  0  0  0
  153.1941  142.8663  161.7051 C   0  0  0  0  0  0  0  0  0  0  0  0
  152.9058  143.5902  160.5323 C   0  0  0  0  0  0  0  0  0  0  0  0
  153.0572  142.9415  159.2903 C   0  0  0  0  0  0  0  0  0  0  0  0
  153.4653  141.6598  159.1681 N   0  0  0  0  0  0  0  0  0  0  0  0
  154.6685  138.6223  156.9613 H   0  0  0  0  0  0  0  0  0  0  0  0
  154.7963  137.3941  155.7280 H   0  0  0  0  0  0  0  0  0  0  0  0
  152.0530  138.4441  155.8998 H   0  0  0  0  0  0  0  0  0  0  0  0
  154.0705  138.3815  153.6078 H   0  0  0  0  0  0  0  0  0  0  0  0
  152.8450  137.1757  153.9058 H   0  0  0  0  0  0  0  0  0  0  0  0
  152.1331  138.7835  152.1393 H   0  0  0  0  0  0  0  0  0  0  0  0
  151.0411  138.8503  153.5081 H   0  0  0  0  0  0  0  0  0  0  0  0
  152.4075  141.9843  154.6816 H   0  0  0  0  0  0  0  0  0  0  0  0
  151.2035  140.7567  155.0207 H   0  0  0  0  0  0  0  0  0  0  0  0
  153.1231  140.5333  156.5959 H   0  0  0  0  0  0  0  0  0  0  0  0
  154.2481  140.4469  155.2590 H   0  0  0  0  0  0  0  0  0  0  0  0
  153.7496  136.6752  159.8180 H   0  0  0  0  0  0  0  0  0  0  0  0
  152.6947  139.1567  158.6044 H   0  0  0  0  0  0  0  0  0  0  0  0
  152.3005  138.4838  160.1797 H   0  0  0  0  0  0  0  0  0  0  0  0
  154.4874  139.1303  161.0856 H   0  0  0  0  0  0  0  0  0  0  0  0
  155.0981  139.5256  159.4980 H   0  0  0  0  0  0  0  0  0  0  0  0
  153.8496  140.9484  162.4710 H   0  0  0  0  0  0  0  0  0  0  0  0
  153.0913  143.3284  162.6760 H   0  0  0  0  0  0  0  0  0  0  0  0
  152.5771  144.6177  160.5827 H   0  0  0  0  0  0  0  0  0  0  0  0
  152.8454  143.4662  158.3707 H   0  0  0  0  0  0  0  0  0  0  0  0
  1  2  2  0  0  0  0
  2  3  2  0  0  0  0
  2  4  1  0  0  0  0
  2 11  1  0  0  0  0
  4  5  1  0  0  0  0
  4 20  1  0  0  0  0
  4 21  1  0  0  0  0
  5 10  1  0  0  0  0
  5  6  1  0  0  0  0
  5 22  1  0  0  0  0
  6  7  1  0  0  0  0
  6 23  1  0  0  0  0
  6 24  1  0  0  0  0
  7  8  1  0  0  0  0
  7 25  1  0  0  0  0
  7 26  1  0  0  0  0
  8  9  1  0  0  0  0
  9 10  1  0  0  0  0
  9 27  1  0  0  0  0
  9 28  1  0  0  0  0
 10 29  1  0  0  0  0
 10 30  1  0  0  0  0
 11 12  1  0  0  0  0
 11 31  1  0  0  0  0
 12 13  1  0  0  0  0
 12 32  1  0  0  0  0
 12 33  1  0  0  0  0
 13 14  1  0  0  0  0
 13 34  1  0  0  0  0
 13 35  1  0  0  0  0
 14 19  1  0  0  0  0
 14 15  2  0  0  0  0
 15 16  1  0  0  0  0
 15 36  1  0  0  0  0
 16 17  2  0  0  0  0
 16 37  1  0  0  0  0
 17 18  1  0  0  0  0
 17 38  1  0  0  0  0
 18 19  2  0  0  0  0
 18 39  1  0  0  0  0
M  END
> <s_m_source_file>
AV-unprocessed.smi

> <i_m_source_file_index>
786

> <i_lp_mmshare_version>
43012

> <i_f3d_flags>
0

> <s_epik_input>
W0NIMl0xW0NIMl1PW0NIMl1bQ0gyXVtDSF0xW0NIMl1TKD1PKSg9TylbTkhdW0NIMl1bQ0gyXWMyW2NIXVtjSF1bY0hdW2NIXW4y

> <s_epik_cmdline>
J2VwaWtfcHl0aG9uJywgJy1waCcsICc3LjAnLCAnLXRuJywgJzgnLCAnLW1hJywgJzIwMCcsICctbWV0YWxfYmluZGluZycsICctaW1hZScsICc8aW5maWxlLm1hZT4nLCAnLW9tYWUnLCAnPG91dGZpbGUubWFlPic=

> <r_epik_Ionization_Penalty>
0.0207022

> <r_epik_Ionization_Penalty_Charging>
0

> <r_epik_Ionization_Penalty_Neutral>
0.0207022

> <r_epik_State_Penalty>
0.0165999

> <r_epik_Charging_Adjusted_Penalty>
0.0165999

> <i_epik_Tot_Q>
0

> <i_epik_Tot_abs_Q>
0

> <r_epik_Metal_State_Penalty>
0.0248737

> <b_epik_Metal_Only>
0

> <s_lp_Force_Field>
OPLS_2005

> <r_lp_Energy>
3.32782

> <b_lp_Chiralities_Consistent>
1

> <s_lp_Variant>
AV-unprocessed.smi:786-1

> <Gold.Version>
5.8.1

> <Gold.Id.Protein>
6NUR|6NUR_protein|mol2

> <Gold.PLP.Fitness>
44.8876

> <Gold.PLP.PLP>
-40.4643

> <Gold.PLP.part.hbond>
-3.0000

> <Gold.PLP.part.metal>
0.0000

> <Gold.PLP.part.buried>
-5.1998

> <Gold.PLP.part.nonpolar>
-33.3318

> <Gold.PLP.part.repulsive>
0.1252

> <Gold.PLP.ligand.clash>
0.0000

> <Gold.PLP.ligand.torsion>
1.1991

> <Gold.PLP.Chemscore.Hbond>
2.2184

> <Gold.PLP.Chemscore.CHOScore>
0.0000

> <Gold.PLP.Chemscore.Metal>
0.0000

> <Gold.Chemscore.Hbonds>
donor molecule, donor type, donor heavy atom, donor atom, acceptor molecule, acceptor atom, score
      P1  H 10752 10765       L1     3  0.75

> <Gold.PLP.Chemscore.Internal.Correction>
0.1664

> <Gold.Rescore>
     Score         DG    S(hbond)    S(metal)    S(lipo)     H(rot)  DE(clash)    DE(int)     intcor
     17.27     -18.51       1.63        0.00     104.37       1.81       0.00       1.23       ----

> <Gold.Chemscore.Fitness>
17.2735

> <Gold.Chemscore.DG>
-18.5051

> <Gold.Chemscore.ZeroCoef>
-5.4800

> <Gold.Chemscore.Hbond>
1.6337

> <Gold.Chemscore.Metal>
0.0000

> <Gold.Chemscore.Lipo>
104.3749

> <Gold.Chemscore.Internal_Hbond>
0.0000

> <Gold.Chemscore.DEClash>
0.0000

> <Gold.Chemscore.DEInternal>
1.2316

> <Gold.Chemscore.Rot>
1.8138

> <Gold.Chemscore.Internal.Correction>
   9.000000E+99

> <Gold.Chemscore.Hbonds>
donor molecule, donor type, donor heavy atom, donor atom, acceptor molecule, acceptor atom, score
      P1  H 10752 10765       L1     3  0.09

> <Gold.Chemscore.Hbond.Weighted>
-5.4565

> <Gold.Chemscore.Metal.Weighted>
-0.0000

> <Gold.Chemscore.Lipo.Weighted>
-12.2119

> <Gold.Chemscore.Internal_Hbond.Weighted>
0.0000

> <Gold.Chemscore.DEClash.Weighted>
0.0000

> <Gold.Chemscore.DEInternal.Weighted>
1.2316

> <Gold.Chemscore.Rot.Weighted>
4.6432

> <Gold.Chemscore.Internal.Correction.Weighted>
   9.000000E+99

> <Gold.Protein.RotatedTorsions>
[ 6907 6896 6895 6894 ] final  -16.13 input  -60.11 | X-H torsion
[ 7974 7965 7964 7962 ] final  -32.13 input  175.53 | X-H torsion
[ 8008 7997 7996 7995 ] final  128.16 input   59.86 | X-H torsion
[ 10167 10162 10161 10158 ] final  -78.66 input  -65.29 | X-H torsion
[ 10718 10713 10712 10709 ] final -104.94 input   66.30 | X-H torsion
[ 10763 10752 10751 10750 ] final  -98.91 input  -60.55 | X-H torsion
[ 11005 11000 10999 10996 ] final  116.72 input  -57.11 | X-H torsion

> <Gold.Protein.ActiveResidues>
 VAL166  LYS551  ARG553  GLY616  TRP617  ASP618  TYR619  PRO620  LYS621  CYS622 
 ASP623  PHE694  ASN695  SER759  ASP760  ASP761  ALA762  ILE779  LEU786  VAL792 
 PHE793  MET794  SER795  GLU796  ALA797  LYS798  CYS799  TRP800  GLU811  SER814 

> <Gold.Protein.RotatedAtoms>
  151.3133  135.0800  159.9279 H   0  0  0  0  0  0  0  0  0  0  0  0  # atno 6907 bound_to 6896
  152.5273  133.9713  159.7774 H   0  0  0  0  0  0  0  0  0  0  0  0  # atno 6908 bound_to 6896
  151.0021  133.5994  159.2724 H   0  0  0  0  0  0  0  0  0  0  0  0  # atno 6909 bound_to 6896
  146.1014  140.5754  142.8819 H   0  0  0  0  0  0  0  0  0  0  0  0  # atno 7974 bound_to 7965
  156.2908  140.2651  156.2390 H   0  0  0  0  0  0  0  0  0  0  0  0  # atno 8008 bound_to 7997
  154.9996  140.0388  157.2373 H   0  0  0  0  0  0  0  0  0  0  0  0  # atno 8009 bound_to 7997
  154.7613  140.2761  155.6217 H   0  0  0  0  0  0  0  0  0  0  0  0  # atno 8010 bound_to 7997
  140.4662  143.2439  151.8274 H   0  0  0  0  0  0  0  0  0  0  0  0  # atno 10167 bound_to 10162
  156.0325  130.5539  150.7468 H   0  0  0  0  0  0  0  0  0  0  0  0  # atno 10718 bound_to 10713
  154.7454  135.4992  153.9195 H   0  0  0  0  0  0  0  0  0  0  0  0  # atno 10763 bound_to 10752
  153.1086  135.6703  153.9548 H   0  0  0  0  0  0  0  0  0  0  0  0  # atno 10764 bound_to 10752
  153.9314  135.3077  155.3424 H   0  0  0  0  0  0  0  0  0  0  0  0  # atno 10765 bound_to 10752
  139.9051  134.9601  156.7242 H   0  0  0  0  0  0  0  0  0  0  0  0  # atno 11005 bound_to 11000
  144.7435  140.5007  143.6852 LP  0  0  0  0  0  0  0  0  0  0  0  0  # atno 17320 bound_to 7965
  145.5847  139.1491  143.3215 LP  0  0  0  0  0  0  0  0  0  0  0  0  # atno 17321 bound_to 7965
  139.4812  144.4947  151.9139 LP  0  0  0  0  0  0  0  0  0  0  0  0  # atno 17342 bound_to 10162
  140.4033  144.2465  150.5892 LP  0  0  0  0  0  0  0  0  0  0  0  0  # atno 17343 bound_to 10162
  157.5023  131.0919  151.0299 LP  0  0  0  0  0  0  0  0  0  0  0  0  # atno 17370 bound_to 10713
  157.0677  130.5851  149.5397 LP  0  0  0  0  0  0  0  0  0  0  0  0  # atno 17371 bound_to 10713
  140.6976  133.9334  155.8004 LP  0  0  0  0  0  0  0  0  0  0  0  0  # atno 17394 bound_to 11000
  141.0395  134.0641  157.3919 LP  0  0  0  0  0  0  0  0  0  0  0  0  # atno 17395 bound_to 11000

$$$$
