AV-unprocessed.smi:2844|AV-procd|sdf|10942|dock7
  -GOLD-   2272015393D 1   1.00000     0.00000
 Structure written by MMmdl.
 39 41  0  0  0  0  0  0  0  0  2 V2000
  152.0766  144.6083  160.3070 C   0  0  0  0  0  0  0  0  0  0  0  0
  151.9237  143.4566  159.3277 C   0  0  0  0  0  0  0  0  0  0  0  0
  151.1031  143.6414  158.1917 C   0  0  0  0  0  0  0  0  0  0  0  0
  150.9801  142.5684  157.3169 C   0  0  0  0  0  0  0  0  0  0  0  0
  150.2555  142.4318  156.1307 N   0  3  0  0  0  0  0  0  0  0  0  0
  150.4465  141.1828  155.6224 C   0  0  0  0  0  0  0  0  0  0  0  0
  151.2826  140.5203  156.4669 N   0  0  0  0  0  0  0  0  0  0  0  0
  151.8069  139.1500  156.3994 C   0  0  0  0  0  0  0  0  0  0  0  0
  151.8436  138.5995  154.9610 C   0  0  1  0  0  0  0  0  0  0  0  0
  152.9658  137.7495  154.8100 O   0  0  0  0  0  0  0  0  0  0  0  0
  150.5546  137.8371  154.5993 C   0  0  0  0  0  0  0  0  0  0  0  0
  150.5418  136.4825  155.1226 N   0  0  0  0  0  0  0  0  0  0  0  0
  149.6689  135.4557  154.8177 C   0  0  0  0  0  0  0  0  0  0  0  0
  150.0798  134.3966  155.5680 C   0  0  0  0  0  0  0  0  0  0  0  0
  149.3698  132.8255  155.6131 Cl  0  0  0  0  0  0  0  0  0  0  0  0
  151.2073  134.8405  156.3046 C   0  0  0  0  0  0  0  0  0  0  0  0
  151.4832  136.1064  156.0260 N   0  0  0  0  0  0  0  0  0  0  0  0
  151.6408  141.3448  157.5385 C   0  0  0  0  0  0  0  0  0  0  0  0
  152.4541  141.1457  158.6514 C   0  0  0  0  0  0  0  0  0  0  0  0
  152.5902  142.2244  159.5544 C   0  0  0  0  0  0  0  0  0  0  0  0
  153.4691  142.0368  160.7793 C   0  0  0  0  0  0  0  0  0  0  0  0
  151.5178  145.4861  159.9810 H   0  0  0  0  0  0  0  0  0  0  0  0
  153.1238  144.8968  160.4001 H   0  0  0  0  0  0  0  0  0  0  0  0
  151.7060  144.3245  161.2923 H   0  0  0  0  0  0  0  0  0  0  0  0
  150.5926  144.5763  158.0126 H   0  0  0  0  0  0  0  0  0  0  0  0
  150.0092  140.7880  154.7165 H   0  0  0  0  0  0  0  0  0  0  0  0
  152.8092  139.1586  156.8306 H   0  0  0  0  0  0  0  0  0  0  0  0
  151.1972  138.5171  157.0455 H   0  0  0  0  0  0  0  0  0  0  0  0
  151.9669  139.4309  154.2660 H   0  0  0  0  0  0  0  0  0  0  0  0
  153.7182  138.1734  155.1938 H   0  0  0  0  0  0  0  0  0  0  0  0
  149.6790  138.3654  154.9791 H   0  0  0  0  0  0  0  0  0  0  0  0
  150.4402  137.7842  153.5157 H   0  0  0  0  0  0  0  0  0  0  0  0
  148.8553  135.5665  154.1163 H   0  0  0  0  0  0  0  0  0  0  0  0
  151.8193  134.3014  157.0125 H   0  0  0  0  0  0  0  0  0  0  0  0
  152.9595  140.2069  158.8242 H   0  0  0  0  0  0  0  0  0  0  0  0
  153.9099  141.0399  160.8059 H   0  0  0  0  0  0  0  0  0  0  0  0
  152.8871  142.1678  161.6920 H   0  0  0  0  0  0  0  0  0  0  0  0
  154.2842  142.7609  160.7801 H   0  0  0  0  0  0  0  0  0  0  0  0
  149.6705  143.1361  155.6995 H   0  0  0  0  0  0  0  0  0  0  0  0
  1  2  1  0  0  0  0
  1 22  1  0  0  0  0
  1 23  1  0  0  0  0
  1 24  1  0  0  0  0
  2 20  1  0  0  0  0
  2  3  2  0  0  0  0
  3  4  1  0  0  0  0
  3 25  1  0  0  0  0
  4 18  2  0  0  0  0
  4  5  1  0  0  0  0
  5  6  2  0  0  0  0
  5 39  1  0  0  0  0
  6  7  1  0  0  0  0
  6 26  1  0  0  0  0
  7  8  1  0  0  0  0
  7 18  1  0  0  0  0
  8  9  1  0  0  0  0
  8 27  1  0  0  0  0
  8 28  1  0  0  0  0
  9 10  1  0  0  0  0
  9 11  1  0  0  0  0
  9 29  1  0  0  0  0
 10 30  1  0  0  0  0
 11 12  1  0  0  0  0
 11 31  1  0  0  0  0
 11 32  1  0  0  0  0
 12 17  1  0  0  0  0
 12 13  1  0  0  0  0
 13 14  2  0  0  0  0
 13 33  1  0  0  0  0
 14 15  1  0  0  0  0
 14 16  1  0  0  0  0
 16 17  2  0  0  0  0
 16 34  1  0  0  0  0
 18 19  1  0  0  0  0
 19 20  2  0  0  0  0
 19 35  1  0  0  0  0
 20 21  1  0  0  0  0
 21 36  1  0  0  0  0
 21 37  1  0  0  0  0
 21 38  1  0  0  0  0
M  CHG  1   5   1
M  END
> <s_m_source_file>
AV-unprocessed.smi

> <i_m_source_file_index>
2844

> <i_lp_mmshare_version>
43012

> <i_f3d_flags>
0

> <s_epik_input>
W0NIM11jKFtjSF0xKWMoW0NIM10pW2NIXWMoYzEyKW4oW2NIXW4yKVtDSDJdW0NASF0oW09IXSlbQ0gyXW4zW2NIXWMoQ2wpW2NIXW4z

> <s_epik_cmdline>
J2VwaWtfcHl0aG9uJywgJy1waCcsICc3LjAnLCAnLXRuJywgJzgnLCAnLW1hJywgJzIwMCcsICctbWV0YWxfYmluZGluZycsICctaW1hZScsICc8aW5maWxlLm1hZT4nLCAnLW9tYWUnLCAnPG91dGZpbGUubWFlPic=

> <r_lp_tautomer_probability>
1

> <r_epik_Ionization_Penalty>
1.09214

> <r_epik_Ionization_Penalty_Charging>
1.09214

> <r_epik_Ionization_Penalty_Neutral>
2.93683e-06

> <r_epik_State_Penalty>
1.14852

> <r_epik_Charging_Adjusted_Penalty>
2.24066

> <i_epik_Tot_Q>
1

> <i_epik_Tot_abs_Q>
1

> <r_epik_Metal_State_Penalty>
1.23687

> <b_epik_Metal_Only>
0

> <s_lp_Force_Field>
OPLS_2005

> <r_lp_Energy>
15.1146

> <b_lp_Chiralities_Consistent>
1

> <s_lp_Variant>
AV-unprocessed.smi:2844-4

> <Gold.Version>
5.8.1

> <Gold.Id.Protein>
6NUR|6NUR_protein|mol2

> <Gold.PLP.Fitness>
55.5066

> <Gold.PLP.PLP>
-47.2522

> <Gold.PLP.part.hbond>
-3.0000

> <Gold.PLP.part.metal>
0.0000

> <Gold.PLP.part.buried>
-3.5863

> <Gold.PLP.part.nonpolar>
-40.4625

> <Gold.PLP.part.repulsive>
0.1513

> <Gold.PLP.ligand.clash>
0.0000

> <Gold.PLP.ligand.torsion>
1.0744

> <Gold.PLP.Chemscore.Hbond>
2.4750

> <Gold.PLP.Chemscore.CHOScore>
0.9897

> <Gold.PLP.Chemscore.Metal>
0.0000

> <Gold.Chemscore.Hbonds>
donor molecule, donor type, donor heavy atom, donor atom, acceptor molecule, acceptor atom, score
      L1  H     5    39       P1  8028  2.00
      P1  H 10752 10765       L1    17  0.49
      L1  C    13    33       P1  7948  0.95

> <Gold.PLP.Chemscore.Internal.Correction>
0.0092

> <Gold.Rescore>
     Score         DG    S(hbond)    S(metal)    S(lipo)     H(rot)  DE(clash)    DE(int)     intcor
     15.28     -18.10       1.31        0.00     119.00       2.21       0.01       2.81       ----

> <Gold.Chemscore.Fitness>
15.2756

> <Gold.Chemscore.DG>
-18.1026

> <Gold.Chemscore.ZeroCoef>
-5.4800

> <Gold.Chemscore.Hbond>
1.3069

> <Gold.Chemscore.Metal>
0.0000

> <Gold.Chemscore.Lipo>
118.9963

> <Gold.Chemscore.Internal_Hbond>
0.0000

> <Gold.Chemscore.DEClash>
0.0137

> <Gold.Chemscore.DEInternal>
2.8133

> <Gold.Chemscore.Rot>
2.2129

> <Gold.Chemscore.Internal.Correction>
   9.000000E+99

> <Gold.Chemscore.Hbonds>
donor molecule, donor type, donor heavy atom, donor atom, acceptor molecule, acceptor atom, score
      L1  H     5    39       P1  8028  0.97
      P1  H 10752 10765       L1    10  0.21

> <Gold.Chemscore.Hbond.Weighted>
-4.3649

> <Gold.Chemscore.Metal.Weighted>
-0.0000

> <Gold.Chemscore.Lipo.Weighted>
-13.9226

> <Gold.Chemscore.Internal_Hbond.Weighted>
0.0000

> <Gold.Chemscore.DEClash.Weighted>
0.0137

> <Gold.Chemscore.DEInternal.Weighted>
2.8133

> <Gold.Chemscore.Rot.Weighted>
5.6649

> <Gold.Chemscore.Internal.Correction.Weighted>
   9.000000E+99

> <Gold.Protein.RotatedTorsions>
[ 6907 6896 6895 6894 ] final  154.66 input  -60.11 | X-H torsion
[ 7974 7965 7964 7962 ] final  139.10 input  175.53 | X-H torsion
[ 8008 7997 7996 7995 ] final  117.64 input   59.86 | X-H torsion
[ 10167 10162 10161 10158 ] final  -33.45 input  -65.29 | X-H torsion
[ 10718 10713 10712 10709 ] final   48.36 input   66.30 | X-H torsion
[ 10763 10752 10751 10750 ] final -176.14 input  -60.55 | X-H torsion
[ 11005 11000 10999 10996 ] final  -85.70 input  -57.11 | X-H torsion

> <Gold.Protein.ActiveResidues>
 VAL166  LYS551  ARG553  GLY616  TRP617  ASP618  TYR619  PRO620  LYS621  CYS622 
 ASP623  PHE694  ASN695  SER759  ASP760  ASP761  ALA762  ILE779  LEU786  VAL792 
 PHE793  MET794  SER795  GLU796  ALA797  LYS798  CYS799  TRP800  GLU811  SER814 

> <Gold.Protein.RotatedAtoms>
  152.0554  133.4037  159.4394 H   0  0  0  0  0  0  0  0  0  0  0  0  # atno 6907 bound_to 6896
  150.6868  134.3261  159.4816 H   0  0  0  0  0  0  0  0  0  0  0  0  # atno 6908 bound_to 6896
  152.1076  134.9297  160.0618 H   0  0  0  0  0  0  0  0  0  0  0  0  # atno 6909 bound_to 6896
  144.9310  139.5047  143.5618 H   0  0  0  0  0  0  0  0  0  0  0  0  # atno 7974 bound_to 7965
  156.2505  140.2892  156.0711 H   0  0  0  0  0  0  0  0  0  0  0  0  # atno 8008 bound_to 7997
  155.1670  140.0401  157.2872 H   0  0  0  0  0  0  0  0  0  0  0  0  # atno 8009 bound_to 7997
  154.6352  140.2509  155.7393 H   0  0  0  0  0  0  0  0  0  0  0  0  # atno 8010 bound_to 7997
  140.7204  143.3619  151.1945 H   0  0  0  0  0  0  0  0  0  0  0  0  # atno 10167 bound_to 10162
  157.4678  130.8236  149.7955 H   0  0  0  0  0  0  0  0  0  0  0  0  # atno 10718 bound_to 10713
  154.5759  135.2832  155.0781 H   0  0  0  0  0  0  0  0  0  0  0  0  # atno 10763 bound_to 10752
  154.2135  135.6403  153.5126 H   0  0  0  0  0  0  0  0  0  0  0  0  # atno 10764 bound_to 10752
  153.0072  135.5497  154.6398 H   0  0  0  0  0  0  0  0  0  0  0  0  # atno 10765 bound_to 10752
  141.1638  133.7413  156.9053 H   0  0  0  0  0  0  0  0  0  0  0  0  # atno 11005 bound_to 11000
  146.3247  139.8260  142.8917 LP  0  0  0  0  0  0  0  0  0  0  0  0  # atno 17320 bound_to 7965
  145.3142  141.0227  143.3537 LP  0  0  0  0  0  0  0  0  0  0  0  0  # atno 17321 bound_to 7965
  139.7173  143.9280  152.2972 LP  0  0  0  0  0  0  0  0  0  0  0  0  # atno 17342 bound_to 10162
  139.9025  144.6904  150.8650 LP  0  0  0  0  0  0  0  0  0  0  0  0  # atno 17343 bound_to 10162
  156.0059  130.3856  150.2434 LP  0  0  0  0  0  0  0  0  0  0  0  0  # atno 17370 bound_to 10713
  157.0615  131.0091  151.3221 LP  0  0  0  0  0  0  0  0  0  0  0  0  # atno 17371 bound_to 10713
  140.1554  134.9202  157.2647 LP  0  0  0  0  0  0  0  0  0  0  0  0  # atno 17394 bound_to 11000
  140.2673  134.3501  155.7385 LP  0  0  0  0  0  0  0  0  0  0  0  0  # atno 17395 bound_to 11000

$$$$
