AV-unprocessed.smi:899|AV-procd|sdf|4087|dock4
  -GOLD-   22720 1573D 1   1.00000     0.00000
 Structure written by MMmdl.
 33 34  0  0  0  0  0  0  0  0  1 V2000
  151.8229  145.6426  159.2232 N   0  0  0  0  0  0  0  0  0  0  0  0
  152.0785  144.5195  159.3320 C   0  0  0  0  0  0  0  0  0  0  0  0
  152.4035  143.0917  159.4702 C   0  0  0  0  0  0  0  0  0  0  0  0
  151.9346  142.2824  158.2788 C   0  0  0  0  0  0  0  0  0  0  0  0
  151.0093  142.8337  157.3712 C   0  0  0  0  0  0  0  0  0  0  0  0
  150.5750  142.0827  156.2623 C   0  0  0  0  0  0  0  0  0  0  0  0
  151.0564  140.7760  156.0409 C   0  0  0  0  0  0  0  0  0  0  0  0
  150.5826  140.1155  154.9277 O   0  0  0  0  0  0  0  0  0  0  0  0
  149.2790  140.4335  154.4615 C   0  0  0  0  0  0  0  0  0  0  0  0
  148.4840  139.1276  154.3075 C   0  0  0  0  0  0  0  0  0  0  0  0
  148.8165  138.1466  155.3106 N   0  0  0  0  0  0  0  0  0  0  0  0
  149.3585  136.9109  154.9923 C   0  0  0  0  0  0  0  0  0  0  0  0
  149.6610  135.9714  155.9208 C   0  0  0  0  0  0  0  0  0  0  0  0
  150.3346  134.4534  155.4455 Cl  0  0  0  0  0  0  0  0  0  0  0  0
  149.4145  136.2370  157.3378 C   0  0  0  0  0  0  0  0  0  0  0  0
  149.6524  135.4597  158.2602 O   0  0  0  0  0  0  0  0  0  0  0  0
  148.8603  137.4914  157.6107 N   0  0  0  0  0  0  0  0  0  0  0  0
  148.5438  138.4636  156.6612 C   0  0  0  0  0  0  0  0  0  0  0  0
  148.0498  139.5331  157.0185 O   0  0  0  0  0  0  0  0  0  0  0  0
  151.9852  140.2260  156.9606 C   0  0  0  0  0  0  0  0  0  0  0  0
  152.4195  140.9763  158.0707 C   0  0  0  0  0  0  0  0  0  0  0  0
  148.6706  137.7118  158.5776 H   0  0  0  0  0  0  0  0  0  0  0  0
  153.4834  142.9927  159.5824 H   0  0  0  0  0  0  0  0  0  0  0  0
  151.9430  142.7211  160.3863 H   0  0  0  0  0  0  0  0  0  0  0  0
  150.6302  143.8337  157.5240 H   0  0  0  0  0  0  0  0  0  0  0  0
  149.8654  142.5159  155.5725 H   0  0  0  0  0  0  0  0  0  0  0  0
  148.7800  141.0975  155.1690 H   0  0  0  0  0  0  0  0  0  0  0  0
  149.3390  140.9434  153.4986 H   0  0  0  0  0  0  0  0  0  0  0  0
  147.4137  139.3146  154.4064 H   0  0  0  0  0  0  0  0  0  0  0  0
  148.6247  138.6636  153.3288 H   0  0  0  0  0  0  0  0  0  0  0  0
  149.5492  136.6798  153.9537 H   0  0  0  0  0  0  0  0  0  0  0  0
  152.3812  139.2295  156.8371 H   0  0  0  0  0  0  0  0  0  0  0  0
  153.1280  140.5444  158.7624 H   0  0  0  0  0  0  0  0  0  0  0  0
  1  2  3  0  0  0  0
  2  3  1  0  0  0  0
  3  4  1  0  0  0  0
  3 23  1  0  0  0  0
  3 24  1  0  0  0  0
  4 21  1  0  0  0  0
  4  5  2  0  0  0  0
  5  6  1  0  0  0  0
  5 25  1  0  0  0  0
  6  7  2  0  0  0  0
  6 26  1  0  0  0  0
  7  8  1  0  0  0  0
  7 20  1  0  0  0  0
  8  9  1  0  0  0  0
  9 10  1  0  0  0  0
  9 27  1  0  0  0  0
  9 28  1  0  0  0  0
 10 11  1  0  0  0  0
 10 29  1  0  0  0  0
 10 30  1  0  0  0  0
 11 18  1  0  0  0  0
 11 12  1  0  0  0  0
 12 13  2  0  0  0  0
 12 31  1  0  0  0  0
 13 14  1  0  0  0  0
 13 15  1  0  0  0  0
 15 16  2  0  0  0  0
 15 17  1  0  0  0  0
 17 22  1  0  0  0  0
 17 18  1  0  0  0  0
 18 19  2  0  0  0  0
 20 21  2  0  0  0  0
 20 32  1  0  0  0  0
 21 33  1  0  0  0  0
M  END
> <s_m_source_file>
AV-unprocessed.smi

> <i_m_source_file_index>
899

> <i_lp_mmshare_version>
43012

> <i_f3d_flags>
0

> <s_epik_input>
TiNDW0NIMl1jMVtjSF1bY0hdYyhbY0hdW2NIXTEpT1tDSDJdW0NIMl1uMltjSF1jKENsKWMoPU8pW25IXWMyPU8=

> <s_epik_cmdline>
J2VwaWtfcHl0aG9uJywgJy1waCcsICc3LjAnLCAnLXRuJywgJzgnLCAnLW1hJywgJzIwMCcsICctbWV0YWxfYmluZGluZycsICctaW1hZScsICc8aW5maWxlLm1hZT4nLCAnLW9tYWUnLCAnPG91dGZpbGUubWFlPic=

> <r_lp_tautomer_probability>
0.999537

> <r_epik_Ionization_Penalty>
0.0457407

> <r_epik_Ionization_Penalty_Charging>
0.0457407

> <r_epik_Ionization_Penalty_Neutral>
1.03254e-10

> <r_epik_State_Penalty>
0.0388483

> <r_epik_Charging_Adjusted_Penalty>
0.0845889

> <i_epik_Tot_Q>
0

> <i_epik_Tot_abs_Q>
0

> <r_epik_Metal_State_Penalty>
2.50663

> <b_epik_Metal_Only>
0

> <s_lp_Force_Field>
OPLS_2005

> <r_lp_Energy>
13.2906

> <b_lp_Chiralities_Consistent>
1

> <s_lp_Variant>
AV-unprocessed.smi:899-1

> <Gold.Version>
5.8.1

> <Gold.Id.Protein>
6NUR|6NUR_protein|mol2

> <Gold.PLP.Fitness>
40.3503

> <Gold.PLP.PLP>
-33.4337

> <Gold.PLP.part.hbond>
-2.9327

> <Gold.PLP.part.metal>
0.0000

> <Gold.PLP.part.buried>
-4.5082

> <Gold.PLP.part.nonpolar>
-26.7202

> <Gold.PLP.part.repulsive>
0.2215

> <Gold.PLP.ligand.clash>
0.0000

> <Gold.PLP.ligand.torsion>
1.0649

> <Gold.PLP.Chemscore.Hbond>
2.0000

> <Gold.PLP.Chemscore.CHOScore>
1.0000

> <Gold.PLP.Chemscore.Metal>
0.0000

> <Gold.Chemscore.Hbonds>
donor molecule, donor type, donor heavy atom, donor atom, acceptor molecule, acceptor atom, score
      P1  H  6896  6908       L1    16  1.00
      P1  H  7989  7998       L1     8  1.00
      L1  C    12    31       P1  7948  1.00

> <Gold.PLP.Chemscore.Internal.Correction>
0.0463

> <Gold.Rescore>
     Score         DG    S(hbond)    S(metal)    S(lipo)     H(rot)  DE(clash)    DE(int)     intcor
     12.11     -14.13       1.47        0.00      82.64       2.32       0.22       1.80       ----

> <Gold.Chemscore.Fitness>
12.1114

> <Gold.Chemscore.DG>
-14.1327

> <Gold.Chemscore.ZeroCoef>
-5.4800

> <Gold.Chemscore.Hbond>
1.4721

> <Gold.Chemscore.Metal>
0.0000

> <Gold.Chemscore.Lipo>
82.6362

> <Gold.Chemscore.Internal_Hbond>
0.0000

> <Gold.Chemscore.DEClash>
0.2249

> <Gold.Chemscore.DEInternal>
1.7964

> <Gold.Chemscore.Rot>
2.3174

> <Gold.Chemscore.Internal.Correction>
   9.000000E+99

> <Gold.Chemscore.Hbonds>
donor molecule, donor type, donor heavy atom, donor atom, acceptor molecule, acceptor atom, score
      P1  H  6896  6908       L1    16  0.97
      P1  H  7989  7998       L1     8  0.10

> <Gold.Chemscore.Hbond.Weighted>
-4.9167

> <Gold.Chemscore.Metal.Weighted>
-0.0000

> <Gold.Chemscore.Lipo.Weighted>
-9.6684

> <Gold.Chemscore.Internal_Hbond.Weighted>
0.0000

> <Gold.Chemscore.DEClash.Weighted>
0.2249

> <Gold.Chemscore.DEInternal.Weighted>
1.7964

> <Gold.Chemscore.Rot.Weighted>
5.9324

> <Gold.Chemscore.Internal.Correction.Weighted>
   9.000000E+99

> <Gold.Protein.RotatedTorsions>
[ 6907 6896 6895 6894 ] final  156.46 input  -60.11 | X-H torsion
[ 7974 7965 7964 7962 ] final  122.08 input  175.53 | X-H torsion
[ 8008 7997 7996 7995 ] final  104.83 input   59.86 | X-H torsion
[ 10167 10162 10161 10158 ] final  -79.38 input  -65.29 | X-H torsion
[ 10718 10713 10712 10709 ] final  -46.62 input   66.30 | X-H torsion
[ 10763 10752 10751 10750 ] final   30.30 input  -60.55 | X-H torsion
[ 11005 11000 10999 10996 ] final  175.62 input  -57.11 | X-H torsion

> <Gold.Protein.ActiveResidues>
 VAL166  LYS551  ARG553  GLY616  TRP617  ASP618  TYR619  PRO620  LYS621  CYS622 
 ASP623  PHE694  ASN695  SER759  ASP760  ASP761  ALA762  ILE779  LEU786  VAL792 
 PHE793  MET794  SER795  GLU796  ALA797  LYS798  CYS799  TRP800  GLU811  SER814 

> <Gold.Protein.RotatedAtoms>
  152.0293  133.3931  159.4290 H   0  0  0  0  0  0  0  0  0  0  0  0  # atno 6907 bound_to 6896
  150.6883  134.3538  159.4930 H   0  0  0  0  0  0  0  0  0  0  0  0  # atno 6908 bound_to 6896
  152.1323  134.9125  160.0609 H   0  0  0  0  0  0  0  0  0  0  0  0  # atno 6909 bound_to 6896
  145.1117  139.3448  143.4760 H   0  0  0  0  0  0  0  0  0  0  0  0  # atno 7974 bound_to 7965
  156.1607  140.3141  155.8803 H   0  0  0  0  0  0  0  0  0  0  0  0  # atno 8008 bound_to 7997
  155.3787  140.0486  157.3061 H   0  0  0  0  0  0  0  0  0  0  0  0  # atno 8009 bound_to 7997
  154.5144  140.2176  155.9105 H   0  0  0  0  0  0  0  0  0  0  0  0  # atno 8010 bound_to 7997
  140.4598  143.2457  151.8366 H   0  0  0  0  0  0  0  0  0  0  0  0  # atno 10167 bound_to 10162
  156.2165  130.4163  149.9048 H   0  0  0  0  0  0  0  0  0  0  0  0  # atno 10718 bound_to 10713
  153.0379  135.6467  154.1024 H   0  0  0  0  0  0  0  0  0  0  0  0  # atno 10763 bound_to 10752
  154.0735  135.2878  155.3305 H   0  0  0  0  0  0  0  0  0  0  0  0  # atno 10764 bound_to 10752
  154.6578  135.5402  153.8045 H   0  0  0  0  0  0  0  0  0  0  0  0  # atno 10765 bound_to 10752
  140.3642  134.7086  157.4350 H   0  0  0  0  0  0  0  0  0  0  0  0  # atno 11005 bound_to 11000
  146.3526  140.1038  142.8607 LP  0  0  0  0  0  0  0  0  0  0  0  0  # atno 17320 bound_to 7965
  145.0840  140.9240  143.4809 LP  0  0  0  0  0  0  0  0  0  0  0  0  # atno 17321 bound_to 7965
  139.4805  144.5021  151.9046 LP  0  0  0  0  0  0  0  0  0  0  0  0  # atno 17342 bound_to 10162
  140.4107  144.2372  150.5889 LP  0  0  0  0  0  0  0  0  0  0  0  0  # atno 17343 bound_to 10162
  156.6708  130.8819  151.3562 LP  0  0  0  0  0  0  0  0  0  0  0  0  # atno 17370 bound_to 10713
  157.7065  130.9391  150.0950 LP  0  0  0  0  0  0  0  0  0  0  0  0  # atno 17371 bound_to 10713
  140.0603  134.6005  155.8757 LP  0  0  0  0  0  0  0  0  0  0  0  0  # atno 17394 bound_to 11000
  141.1975  133.6596  156.5743 LP  0  0  0  0  0  0  0  0  0  0  0  0  # atno 17395 bound_to 11000

$$$$
