AV-unprocessed.smi:1106|AV-procd|sdf|4778|dock3
  -GOLD-   22720 3313D 1   1.00000     0.00000
 Structure written by MMmdl.
 48 49  0  0  0  0  0  0  0  0  2 V2000
  151.0180  142.7863  157.4189 C   0  0  0  0  0  0  0  0  0  0  0  0
  150.7360  141.5963  156.4897 C   0  0  0  0  0  0  0  0  0  0  0  0
  149.3298  141.3474  156.3076 N   0  0  0  0  0  0  0  0  0  0  0  0
  148.4588  141.2891  157.3782 C   0  0  0  0  0  0  0  0  0  0  0  0
  147.1367  141.0533  157.2351 C   0  0  0  0  0  0  0  0  0  0  0  0
  146.2576  141.0063  158.3562 C   0  0  0  0  0  0  0  0  0  0  0  0
  145.5609  140.9785  159.2797 N   0  0  0  0  0  0  0  0  0  0  0  0
  146.5461  140.8382  155.9159 C   0  0  0  0  0  0  0  0  0  0  0  0
  145.3426  140.6482  155.7272 O   0  0  0  0  0  0  0  0  0  0  0  0
  147.4720  140.8812  154.8428 N   0  0  0  0  0  0  0  0  0  0  0  0
  146.9535  140.6888  153.4978 C   0  0  0  0  0  0  0  0  0  0  0  0
  147.1454  139.2491  152.9725 C   0  0  1  0  0  0  0  0  0  0  0  0
  148.5282  138.9527  152.9692 O   0  0  0  0  0  0  0  0  0  0  0  0
  146.4642  138.2168  153.8924 C   0  0  0  0  0  0  0  0  0  0  0  0
  146.4100  136.8682  153.2734 N   0  3  2  0  0  0  0  0  0  0  0  0
  145.5632  136.8193  152.0525 C   0  0  0  0  0  0  0  0  0  0  0  0
  145.6585  135.4460  151.3675 C   0  0  0  0  0  0  0  0  0  0  0  0
  145.2769  134.3115  152.3340 C   0  0  1  0  0  0  0  0  0  0  0  0
  145.4005  132.9335  151.6687 C   0  0  0  0  0  0  0  0  0  0  0  0
  146.1408  134.4133  153.6027 C   0  0  0  0  0  0  0  0  0  0  0  0
  146.0326  135.8080  154.2420 C   0  0  0  0  0  0  0  0  0  0  0  0
  148.8551  141.1436  154.9908 C   0  0  0  0  0  0  0  0  0  0  0  0
  149.6137  141.2007  154.0192 O   0  0  0  0  0  0  0  0  0  0  0  0
  152.0900  142.9654  157.4990 H   0  0  0  0  0  0  0  0  0  0  0  0
  150.6378  142.6104  158.4253 H   0  0  0  0  0  0  0  0  0  0  0  0
  150.5560  143.6986  157.0407 H   0  0  0  0  0  0  0  0  0  0  0  0
  151.1389  141.7832  155.4934 H   0  0  0  0  0  0  0  0  0  0  0  0
  151.1927  140.6697  156.8422 H   0  0  0  0  0  0  0  0  0  0  0  0
  148.8508  141.4414  158.3740 H   0  0  0  0  0  0  0  0  0  0  0  0
  145.9121  141.0142  153.4650 H   0  0  0  0  0  0  0  0  0  0  0  0
  147.4744  141.4113  152.8671 H   0  0  0  0  0  0  0  0  0  0  0  0
  146.7583  139.1654  151.9574 H   0  0  0  0  0  0  0  0  0  0  0  0
  148.6377  138.0208  152.8511 H   0  0  0  0  0  0  0  0  0  0  0  0
  147.0107  138.1784  154.8365 H   0  0  0  0  0  0  0  0  0  0  0  0
  145.4510  138.5337  154.1448 H   0  0  0  0  0  0  0  0  0  0  0  0
  144.5267  137.0321  152.3187 H   0  0  0  0  0  0  0  0  0  0  0  0
  145.8698  137.5908  151.3469 H   0  0  0  0  0  0  0  0  0  0  0  0
  145.0063  135.4271  150.4938 H   0  0  0  0  0  0  0  0  0  0  0  0
  146.6739  135.2942  150.9982 H   0  0  0  0  0  0  0  0  0  0  0  0
  144.2336  134.4470  152.6227 H   0  0  0  0  0  0  0  0  0  0  0  0
  146.4244  132.7361  151.3502 H   0  0  0  0  0  0  0  0  0  0  0  0
  144.7594  132.8639  150.7894 H   0  0  0  0  0  0  0  0  0  0  0  0
  145.1057  132.1380  152.3538 H   0  0  0  0  0  0  0  0  0  0  0  0
  145.8370  133.6550  154.3251 H   0  0  0  0  0  0  0  0  0  0  0  0
  147.1837  134.2058  153.3584 H   0  0  0  0  0  0  0  0  0  0  0  0
  146.6895  135.8517  155.1117 H   0  0  0  0  0  0  0  0  0  0  0  0
  145.0171  135.9838  154.6005 H   0  0  0  0  0  0  0  0  0  0  0  0
  147.3560  136.6576  152.9876 H   0  0  0  0  0  0  0  0  0  0  0  0
  1  2  1  0  0  0  0
  1 24  1  0  0  0  0
  1 25  1  0  0  0  0
  1 26  1  0  0  0  0
  2  3  1  0  0  0  0
  2 27  1  0  0  0  0
  2 28  1  0  0  0  0
  3 22  1  0  0  0  0
  3  4  1  0  0  0  0
  4  5  2  0  0  0  0
  4 29  1  0  0  0  0
  5  6  1  0  0  0  0
  5  8  1  0  0  0  0
  6  7  3  0  0  0  0
  8  9  2  0  0  0  0
  8 10  1  0  0  0  0
 10 11  1  0  0  0  0
 10 22  1  0  0  0  0
 11 12  1  0  0  0  0
 11 30  1  0  0  0  0
 11 31  1  0  0  0  0
 12 13  1  0  0  0  0
 12 14  1  0  0  0  0
 12 32  1  0  0  0  0
 13 33  1  0  0  0  0
 14 15  1  0  0  0  0
 14 34  1  0  0  0  0
 14 35  1  0  0  0  0
 15 21  1  0  0  0  0
 15 16  1  0  0  0  0
 15 48  1  0  0  0  0
 16 17  1  0  0  0  0
 16 36  1  0  0  0  0
 16 37  1  0  0  0  0
 17 18  1  0  0  0  0
 17 38  1  0  0  0  0
 17 39  1  0  0  0  0
 18 19  1  0  0  0  0
 18 20  1  0  0  0  0
 18 40  1  0  0  0  0
 19 41  1  0  0  0  0
 19 42  1  0  0  0  0
 19 43  1  0  0  0  0
 20 21  1  0  0  0  0
 20 44  1  0  0  0  0
 20 45  1  0  0  0  0
 21 46  1  0  0  0  0
 21 47  1  0  0  0  0
 22 23  2  0  0  0  0
M  CHG  1  15   1
M  END
> <s_m_source_file>
AV-unprocessed.smi

> <i_m_source_file_index>
1106

> <i_lp_mmshare_version>
43012

> <i_f3d_flags>
0

> <s_epik_input>
W0NIM11bQ0gyXW4xW2NIXWMoQyNOKWMoPU8pbihjMT1PKVtDSDJdW0NASF0oW09IXSlbQ0gyXU4yW0NIMl1bQ0gyXVtDSF0oW0NIM10pW0NIMl1bQ0gyXTI=

> <s_epik_cmdline>
J2VwaWtfcHl0aG9uJywgJy1waCcsICc3LjAnLCAnLXRuJywgJzgnLCAnLW1hJywgJzIwMCcsICctbWV0YWxfYmluZGluZycsICctaW1hZScsICc8aW5maWxlLm1hZT4nLCAnLW9tYWUnLCAnPG91dGZpbGUubWFlPic=

> <r_epik_Ionization_Penalty>
0.00136816

> <r_epik_Ionization_Penalty_Charging>
0.00136813

> <r_epik_Ionization_Penalty_Neutral>
3.19882e-08

> <r_epik_State_Penalty>
0.000910892

> <r_epik_Charging_Adjusted_Penalty>
0.00227902

> <i_epik_Tot_Q>
1

> <i_epik_Tot_abs_Q>
1

> <r_epik_Metal_State_Penalty>
-0

> <b_epik_Metal_Only>
0

> <s_lp_Force_Field>
OPLS_2005

> <r_lp_Energy>
28.6797

> <b_lp_Chiralities_Consistent>
1

> <s_lp_Variant>
AV-unprocessed.smi:1106-2

> <Gold.Version>
5.8.1

> <Gold.Id.Protein>
6NUR|6NUR_protein|mol2

> <Gold.PLP.Fitness>
45.1236

> <Gold.PLP.PLP>
-31.6107

> <Gold.PLP.part.hbond>
-5.1869

> <Gold.PLP.part.metal>
0.0000

> <Gold.PLP.part.buried>
-3.0108

> <Gold.PLP.part.nonpolar>
-25.2342

> <Gold.PLP.part.repulsive>
1.1403

> <Gold.PLP.ligand.clash>
0.0377

> <Gold.PLP.ligand.torsion>
0.5684

> <Gold.PLP.Chemscore.Hbond>
4.8696

> <Gold.PLP.Chemscore.CHOScore>
0.0000

> <Gold.PLP.Chemscore.Metal>
0.0000

> <Gold.Chemscore.Hbonds>
donor molecule, donor type, donor heavy atom, donor atom, acceptor molecule, acceptor atom, score
      L1  H    13    33       P1  7948  0.96
      L1  H    15    48       P1  7948  2.00
      P1  H  6934  6946       L1     7  0.67
      P1  H  7989  7998       L1    23  0.31
      P1  H  8011  8017       L1    23  0.68

> <Gold.PLP.Chemscore.Internal.Correction>
0.0785

> <Gold.Rescore>
     Score         DG    S(hbond)    S(metal)    S(lipo)     H(rot)  DE(clash)    DE(int)     intcor
     14.23     -19.20       3.82        0.00      62.50       2.48       1.61       3.36       ----

> <Gold.Chemscore.Fitness>
14.2294

> <Gold.Chemscore.DG>
-19.2006

> <Gold.Chemscore.ZeroCoef>
-5.4800

> <Gold.Chemscore.Hbond>
3.8224

> <Gold.Chemscore.Metal>
0.0000

> <Gold.Chemscore.Lipo>
62.4973

> <Gold.Chemscore.Internal_Hbond>
0.0000

> <Gold.Chemscore.DEClash>
1.6127

> <Gold.Chemscore.DEInternal>
3.3585

> <Gold.Chemscore.Rot>
2.4838

> <Gold.Chemscore.Internal.Correction>
   9.000000E+99

> <Gold.Chemscore.Hbonds>
donor molecule, donor type, donor heavy atom, donor atom, acceptor molecule, acceptor atom, score
      L1  H    13    33       P1  7948  0.90
      L1  H    15    48       P1  7948  0.96
      P1  H  6934  6946       L1     7  0.17
      P1  H  7989  7998       L1    23  0.31
      P1  H  8011  8017       L1    23  0.67

> <Gold.Chemscore.Hbond.Weighted>
-12.7668

> <Gold.Chemscore.Metal.Weighted>
-0.0000

> <Gold.Chemscore.Lipo.Weighted>
-7.3122

> <Gold.Chemscore.Internal_Hbond.Weighted>
0.0000

> <Gold.Chemscore.DEClash.Weighted>
1.6127

> <Gold.Chemscore.DEInternal.Weighted>
3.3585

> <Gold.Chemscore.Rot.Weighted>
6.3585

> <Gold.Chemscore.Internal.Correction.Weighted>
   9.000000E+99

> <Gold.Protein.RotatedTorsions>
[ 6907 6896 6895 6894 ] final  -68.83 input  -60.11 | X-H torsion
[ 7974 7965 7964 7962 ] final  175.40 input  175.53 | X-H torsion
[ 8008 7997 7996 7995 ] final  -40.84 input   59.86 | X-H torsion
[ 10167 10162 10161 10158 ] final   59.08 input  -65.29 | X-H torsion
[ 10718 10713 10712 10709 ] final   47.97 input   66.30 | X-H torsion
[ 10763 10752 10751 10750 ] final  117.04 input  -60.55 | X-H torsion
[ 11005 11000 10999 10996 ] final  -38.73 input  -57.11 | X-H torsion

> <Gold.Protein.ActiveResidues>
 VAL166  LYS551  ARG553  GLY616  TRP617  ASP618  TYR619  PRO620  LYS621  CYS622 
 ASP623  PHE694  ASN695  SER759  ASP760  ASP761  ALA762  ILE779  LEU786  VAL792 
 PHE793  MET794  SER795  GLU796  ALA797  LYS798  CYS799  TRP800  GLU811  SER814 

> <Gold.Protein.RotatedAtoms>
  150.7336  134.5683  159.5877 H   0  0  0  0  0  0  0  0  0  0  0  0  # atno 6907 bound_to 6896
  152.3129  134.7473  160.0341 H   0  0  0  0  0  0  0  0  0  0  0  0  # atno 6908 bound_to 6896
  151.8015  133.3335  159.3565 H   0  0  0  0  0  0  0  0  0  0  0  0  # atno 6909 bound_to 6896
  144.7202  139.9940  143.6440 H   0  0  0  0  0  0  0  0  0  0  0  0  # atno 7974 bound_to 7965
  154.4008  140.1515  156.3093 H   0  0  0  0  0  0  0  0  0  0  0  0  # atno 8008 bound_to 7997
  155.8630  140.3452  155.5747 H   0  0  0  0  0  0  0  0  0  0  0  0  # atno 8009 bound_to 7997
  155.7859  140.0850  157.2025 H   0  0  0  0  0  0  0  0  0  0  0  0  # atno 8010 bound_to 7997
  140.1803  144.4189  150.6618 H   0  0  0  0  0  0  0  0  0  0  0  0  # atno 10167 bound_to 10162
  157.4639  130.8214  149.7916 H   0  0  0  0  0  0  0  0  0  0  0  0  # atno 10718 bound_to 10713
  153.5464  135.3548  155.2740 H   0  0  0  0  0  0  0  0  0  0  0  0  # atno 10763 bound_to 10752
  154.8712  135.4103  154.2986 H   0  0  0  0  0  0  0  0  0  0  0  0  # atno 10764 bound_to 10752
  153.3703  135.7064  153.6711 H   0  0  0  0  0  0  0  0  0  0  0  0  # atno 10765 bound_to 10752
  141.0049  133.6937  156.2092 H   0  0  0  0  0  0  0  0  0  0  0  0  # atno 11005 bound_to 11000
  146.0389  139.3403  143.0710 LP  0  0  0  0  0  0  0  0  0  0  0  0  # atno 17320 bound_to 7965
  145.8360  140.9606  143.0824 LP  0  0  0  0  0  0  0  0  0  0  0  0  # atno 17321 bound_to 7965
  140.6524  143.2228  151.6046 LP  0  0  0  0  0  0  0  0  0  0  0  0  # atno 17342 bound_to 10162
  139.5299  144.2947  152.1123 LP  0  0  0  0  0  0  0  0  0  0  0  0  # atno 17343 bound_to 10162
  156.0041  130.3864  150.2494 LP  0  0  0  0  0  0  0  0  0  0  0  0  # atno 17370 bound_to 10713
  157.0673  131.0107  151.3202 LP  0  0  0  0  0  0  0  0  0  0  0  0  # atno 17371 bound_to 10713
  140.6829  134.4748  157.5589 LP  0  0  0  0  0  0  0  0  0  0  0  0  # atno 17394 bound_to 11000
  139.9058  134.8452  156.1712 LP  0  0  0  0  0  0  0  0  0  0  0  0  # atno 17395 bound_to 11000

$$$$
