AV-unprocessed.smi:3181|AV-procd|sdf|12136|dock3
  -GOLD-   2272017573D 1   1.00000     0.00000
 Structure written by MMmdl.
 42 43  0  0  0  0  0  0  0  0  2 V2000
  149.1826  141.7224  155.7923 C   0  0  0  0  0  0  0  0  0  0  0  0
  150.4559  141.7999  156.6505 C   0  0  1  0  0  0  0  0  0  0  0  0
  151.5601  140.8432  156.1501 C   0  0  0  0  0  0  0  0  0  0  0  0
  151.0385  139.5670  155.6979 N   0  0  0  0  0  0  0  0  0  0  0  0
  150.3172  138.6455  156.3386 C   0  0  0  0  0  0  0  0  0  0  0  0
  150.0089  137.5945  155.5923 N   0  0  0  0  0  0  0  0  0  0  0  0
  150.6065  137.9623  154.4200 C   0  0  0  0  0  0  0  0  0  0  0  0
  151.2350  139.1382  154.4292 N   0  0  0  0  0  0  0  0  0  0  0  0
  150.9580  143.1932  156.6660 N   0  3  0  0  0  0  0  0  0  0  0  0
  151.6092  143.6385  157.9200 C   0  0  2  0  0  0  0  0  0  0  0  0
  152.4899  142.5045  158.4750 C   0  0  0  0  0  0  0  0  0  0  0  0
  153.1654  142.9004  159.7972 C   0  0  0  0  0  0  0  0  0  0  0  0
  152.1296  143.3445  160.8480 C   0  0  1  0  0  0  0  0  0  0  0  0
  152.7885  143.6601  162.2008 C   0  0  0  0  0  0  0  0  0  0  0  0
  151.2353  144.4933  160.3158 C   0  0  1  0  0  0  0  0  0  0  0  0
  151.9536  145.8532  160.2018 C   0  0  0  0  0  0  0  0  0  0  0  0
  150.5772  144.0843  158.9810 C   0  0  0  0  0  0  0  0  0  0  0  0
  148.7451  140.7238  155.8131 H   0  0  0  0  0  0  0  0  0  0  0  0
  149.3891  141.9729  154.7513 H   0  0  0  0  0  0  0  0  0  0  0  0
  148.4221  142.4136  156.1569 H   0  0  0  0  0  0  0  0  0  0  0  0
  150.1762  141.5131  157.6655 H   0  0  0  0  0  0  0  0  0  0  0  0
  152.1087  141.3006  155.3254 H   0  0  0  0  0  0  0  0  0  0  0  0
  152.2911  140.6475  156.9349 H   0  0  0  0  0  0  0  0  0  0  0  0
  150.0133  138.7431  157.3707 H   0  0  0  0  0  0  0  0  0  0  0  0
  150.5756  137.3461  153.5333 H   0  0  0  0  0  0  0  0  0  0  0  0
  151.5946  143.3260  155.8932 H   0  0  0  0  0  0  0  0  0  0  0  0
  152.2608  144.4774  157.6722 H   0  0  0  0  0  0  0  0  0  0  0  0
  151.8845  141.6113  158.6355 H   0  0  0  0  0  0  0  0  0  0  0  0
  153.2530  142.2318  157.7449 H   0  0  0  0  0  0  0  0  0  0  0  0
  153.7366  142.0523  160.1766 H   0  0  0  0  0  0  0  0  0  0  0  0
  153.8884  143.6969  159.6190 H   0  0  0  0  0  0  0  0  0  0  0  0
  151.4713  142.4920  161.0234 H   0  0  0  0  0  0  0  0  0  0  0  0
  153.5412  144.4437  162.1117 H   0  0  0  0  0  0  0  0  0  0  0  0
  153.2846  142.7776  162.6056 H   0  0  0  0  0  0  0  0  0  0  0  0
  152.0494  143.9855  162.9332 H   0  0  0  0  0  0  0  0  0  0  0  0
  150.4272  144.6360  161.0349 H   0  0  0  0  0  0  0  0  0  0  0  0
  152.8231  145.8083  159.5470 H   0  0  0  0  0  0  0  0  0  0  0  0
  152.2912  146.2096  161.1749 H   0  0  0  0  0  0  0  0  0  0  0  0
  151.2820  146.6145  159.8039 H   0  0  0  0  0  0  0  0  0  0  0  0
  149.9785  144.9163  158.6096 H   0  0  0  0  0  0  0  0  0  0  0  0
  149.8769  143.2686  159.1663 H   0  0  0  0  0  0  0  0  0  0  0  0
  150.1596  143.7947  156.5227 H   0  0  0  0  0  0  0  0  0  0  0  0
  1  2  1  0  0  0  0
  1 18  1  0  0  0  0
  1 19  1  0  0  0  0
  1 20  1  0  0  0  0
  2  3  1  0  0  0  0
  2  9  1  0  0  0  0
  2 21  1  0  0  0  0
  3  4  1  0  0  0  0
  3 22  1  0  0  0  0
  3 23  1  0  0  0  0
  4  8  1  0  0  0  0
  4  5  1  0  0  0  0
  5  6  2  0  0  0  0
  5 24  1  0  0  0  0
  6  7  1  0  0  0  0
  7  8  2  0  0  0  0
  7 25  1  0  0  0  0
  9 10  1  0  0  0  0
  9 26  1  0  0  0  0
  9 42  1  0  0  0  0
 10 17  1  0  0  0  0
 10 11  1  0  0  0  0
 10 27  1  0  0  0  0
 11 12  1  0  0  0  0
 11 28  1  0  0  0  0
 11 29  1  0  0  0  0
 12 13  1  0  0  0  0
 12 30  1  0  0  0  0
 12 31  1  0  0  0  0
 13 14  1  0  0  0  0
 13 15  1  0  0  0  0
 13 32  1  0  0  0  0
 14 33  1  0  0  0  0
 14 34  1  0  0  0  0
 14 35  1  0  0  0  0
 15 16  1  0  0  0  0
 15 17  1  0  0  0  0
 15 36  1  0  0  0  0
 16 37  1  0  0  0  0
 16 38  1  0  0  0  0
 16 39  1  0  0  0  0
 17 40  1  0  0  0  0
 17 41  1  0  0  0  0
M  CHG  1   9   1
M  END
> <s_m_source_file>
AV-unprocessed.smi

> <i_m_source_file_index>
3181

> <i_lp_mmshare_version>
43012

> <i_f3d_flags>
0

> <s_epik_input>
bjFbY0hdbltjSF1uMVtDSDJdW0NAQEhdKFtDSDNdKVtOSF1bQ0BASF0yW0NIMl1bQ0gyXVtDQEBIXShbQ0gzXSlbQ0BASF0oW0NIM10pW0NIMl0y

> <s_epik_cmdline>
J2VwaWtfcHl0aG9uJywgJy1waCcsICc3LjAnLCAnLXRuJywgJzgnLCAnLW1hJywgJzIwMCcsICctbWV0YWxfYmluZGluZycsICctaW1hZScsICc8aW5maWxlLm1hZT4nLCAnLW9tYWUnLCAnPG91dGZpbGUubWFlPic=

> <r_lp_tautomer_probability>
1

> <r_epik_Ionization_Penalty>
0.000617007

> <r_epik_Ionization_Penalty_Charging>
0.000616215

> <r_epik_Ionization_Penalty_Neutral>
7.92544e-07

> <r_epik_State_Penalty>
0.000388807

> <r_epik_Charging_Adjusted_Penalty>
0.00100502

> <i_epik_Tot_Q>
1

> <i_epik_Tot_abs_Q>
1

> <r_epik_Metal_State_Penalty>
-0

> <b_epik_Metal_Only>
0

> <s_lp_Force_Field>
OPLS_2005

> <r_lp_Energy>
21.1382

> <b_lp_Chiralities_Consistent>
1

> <s_lp_Variant>
AV-unprocessed.smi:3181-2

> <Gold.Version>
5.8.1

> <Gold.Id.Protein>
6NUR|6NUR_protein|mol2

> <Gold.PLP.Fitness>
49.4551

> <Gold.PLP.PLP>
-38.5273

> <Gold.PLP.part.hbond>
-2.0000

> <Gold.PLP.part.metal>
0.0000

> <Gold.PLP.part.buried>
-3.9947

> <Gold.PLP.part.nonpolar>
-31.4034

> <Gold.PLP.part.repulsive>
0.2616

> <Gold.PLP.ligand.clash>
0.0000

> <Gold.PLP.ligand.torsion>
0.7981

> <Gold.PLP.Chemscore.Hbond>
3.0000

> <Gold.PLP.Chemscore.CHOScore>
1.1638

> <Gold.PLP.Chemscore.Metal>
0.0000

> <Gold.Chemscore.Hbonds>
donor molecule, donor type, donor heavy atom, donor atom, acceptor molecule, acceptor atom, score
      L1  H     9    42       P1  8028  2.00
      P1  H  7989  7998       L1     8  1.00
      L1  C     7    25       P1  7948  0.59
      L1  C     7    25       P1  7949  0.61

> <Gold.PLP.Chemscore.Internal.Correction>
0.0328

> <Gold.Rescore>
     Score         DG    S(hbond)    S(metal)    S(lipo)     H(rot)  DE(clash)    DE(int)     intcor
     16.25     -18.19       1.58        0.00     109.78       2.11       0.14       1.80       ----

> <Gold.Chemscore.Fitness>
16.2484

> <Gold.Chemscore.DG>
-18.1896

> <Gold.Chemscore.ZeroCoef>
-5.4800

> <Gold.Chemscore.Hbond>
1.5766

> <Gold.Chemscore.Metal>
0.0000

> <Gold.Chemscore.Lipo>
109.7798

> <Gold.Chemscore.Internal_Hbond>
0.0000

> <Gold.Chemscore.DEClash>
0.1431

> <Gold.Chemscore.DEInternal>
1.7981

> <Gold.Chemscore.Rot>
2.1095

> <Gold.Chemscore.Internal.Correction>
   9.000000E+99

> <Gold.Chemscore.Hbonds>
donor molecule, donor type, donor heavy atom, donor atom, acceptor molecule, acceptor atom, score
      L1  H     9    42       P1  8028  1.00
      P1  H  7989  7998       L1     8  0.33

> <Gold.Chemscore.Hbond.Weighted>
-5.2657

> <Gold.Chemscore.Metal.Weighted>
-0.0000

> <Gold.Chemscore.Lipo.Weighted>
-12.8442

> <Gold.Chemscore.Internal_Hbond.Weighted>
0.0000

> <Gold.Chemscore.DEClash.Weighted>
0.1431

> <Gold.Chemscore.DEInternal.Weighted>
1.7981

> <Gold.Chemscore.Rot.Weighted>
5.4003

> <Gold.Chemscore.Internal.Correction.Weighted>
   9.000000E+99

> <Gold.Protein.RotatedTorsions>
[ 6907 6896 6895 6894 ] final  -35.52 input  -60.11 | X-H torsion
[ 7974 7965 7964 7962 ] final  -74.36 input  175.53 | X-H torsion
[ 8008 7997 7996 7995 ] final   49.70 input   59.86 | X-H torsion
[ 10167 10162 10161 10158 ] final -119.77 input  -65.29 | X-H torsion
[ 10718 10713 10712 10709 ] final -107.64 input   66.30 | X-H torsion
[ 10763 10752 10751 10750 ] final  -57.25 input  -60.55 | X-H torsion
[ 11005 11000 10999 10996 ] final  -78.98 input  -57.11 | X-H torsion

> <Gold.Protein.ActiveResidues>
 VAL166  LYS551  ARG553  GLY616  TRP617  ASP618  TYR619  PRO620  LYS621  CYS622 
 ASP623  PHE694  ASN695  SER759  ASP760  ASP761  ALA762  ILE779  LEU786  VAL792 
 PHE793  MET794  SER795  GLU796  ALA797  LYS798  CYS799  TRP800  GLU811  SER814 

> <Gold.Protein.RotatedAtoms>
  151.0388  134.9592  159.8150 H   0  0  0  0  0  0  0  0  0  0  0  0  # atno 6907 bound_to 6896
  152.5360  134.2685  159.8972 H   0  0  0  0  0  0  0  0  0  0  0  0  # atno 6908 bound_to 6896
  151.2697  133.4219  159.2654 H   0  0  0  0  0  0  0  0  0  0  0  0  # atno 6909 bound_to 6896
  145.6401  140.9313  143.1040 H   0  0  0  0  0  0  0  0  0  0  0  0  # atno 7974 bound_to 7965
  155.4066  140.3440  155.4260 H   0  0  0  0  0  0  0  0  0  0  0  0  # atno 8008 bound_to 7997
  156.1473  140.1560  156.8858 H   0  0  0  0  0  0  0  0  0  0  0  0  # atno 8009 bound_to 7997
  154.5022  140.0812  156.7801 H   0  0  0  0  0  0  0  0  0  0  0  0  # atno 8010 bound_to 7997
  140.0431  143.5134  152.2120 H   0  0  0  0  0  0  0  0  0  0  0  0  # atno 10167 bound_to 10162
  156.0446  130.5673  150.7850 H   0  0  0  0  0  0  0  0  0  0  0  0  # atno 10718 bound_to 10713
  154.2195  135.6380  153.5140 H   0  0  0  0  0  0  0  0  0  0  0  0  # atno 10763 bound_to 10752
  152.9972  135.5493  154.6130 H   0  0  0  0  0  0  0  0  0  0  0  0  # atno 10764 bound_to 10752
  154.5586  135.2907  155.0914 H   0  0  0  0  0  0  0  0  0  0  0  0  # atno 10765 bound_to 10752
  141.1666  133.7086  156.8054 H   0  0  0  0  0  0  0  0  0  0  0  0  # atno 11005 bound_to 11000
  144.7160  139.8194  143.7398 LP  0  0  0  0  0  0  0  0  0  0  0  0  # atno 17320 bound_to 7965
  146.1287  139.4318  143.0182 LP  0  0  0  0  0  0  0  0  0  0  0  0  # atno 17321 bound_to 7965
  139.6001  144.7580  151.3192 LP  0  0  0  0  0  0  0  0  0  0  0  0  # atno 17342 bound_to 10162
  140.7251  143.7026  150.7833 LP  0  0  0  0  0  0  0  0  0  0  0  0  # atno 17343 bound_to 10162
  157.5307  131.0936  150.9959 LP  0  0  0  0  0  0  0  0  0  0  0  0  # atno 17370 bound_to 10713
  157.0266  130.5695  149.5338 LP  0  0  0  0  0  0  0  0  0  0  0  0  # atno 17371 bound_to 10713
  140.2226  134.8745  157.3393 LP  0  0  0  0  0  0  0  0  0  0  0  0  # atno 17394 bound_to 11000
  140.1972  134.4299  155.7682 LP  0  0  0  0  0  0  0  0  0  0  0  0  # atno 17395 bound_to 11000

$$$$
