AV-unprocessed.smi:2135|AV-procd|sdf|8699|dock10
  -GOLD-   2272011453D 1   1.00000     0.00000
 Structure written by MMmdl.
 42 43  0  0  0  0  0  0  0  0  1 V2000
  145.7046  141.8436  156.9275 C   0  0  0  0  0  0  0  0  0  0  0  0
  146.1722  140.1569  157.4933 S   0  0  0  0  0  0  0  0  0  0  0  0
  146.5070  140.2295  158.9238 O   0  0  0  0  0  0  0  0  0  0  0  0
  145.1378  139.2178  157.0334 O   0  0  0  0  0  0  0  0  0  0  0  0
  147.6357  139.8032  156.6202 N   0  0  0  0  0  0  0  0  0  0  0  0
  147.5806  139.5155  155.1727 C   0  0  0  0  0  0  0  0  0  0  0  0
  148.0173  140.7305  154.3355 C   0  0  0  0  0  0  0  0  0  0  0  0
  149.3922  141.2447  154.7778 C   0  0  0  0  0  0  0  0  0  0  0  0
  149.3640  141.5790  156.2800 C   0  0  2  0  0  0  0  0  0  0  0  0
  150.7289  142.0864  156.7635 C   0  0  0  0  0  0  0  0  0  0  0  0
  151.7036  141.3340  156.7740 O   0  0  0  0  0  0  0  0  0  0  0  0
  150.7834  143.3648  157.1682 N   0  0  0  0  0  0  0  0  0  0  0  0
  151.9727  144.0272  157.6890 C   0  0  0  0  0  0  0  0  0  0  0  0
  151.7892  144.4431  159.1576 C   0  0  0  0  0  0  0  0  0  0  0  0
  152.5929  143.5712  160.1013 C   0  0  0  0  0  0  0  0  0  0  0  0
  152.5618  143.7890  161.4940 C   0  0  0  0  0  0  0  0  0  0  0  0
  153.3299  142.9541  162.3280 C   0  0  0  0  0  0  0  0  0  0  0  0
  154.0986  141.9345  161.7316 C   0  0  0  0  0  0  0  0  0  0  0  0
  154.1361  141.7172  160.3992 N   0  0  0  0  0  0  0  0  0  0  0  0
  153.3962  142.5220  159.6065 C   0  0  0  0  0  0  0  0  0  0  0  0
  148.9279  140.3405  157.0931 C   0  0  0  0  0  0  0  0  0  0  0  0
  144.7790  142.1394  157.4207 H   0  0  0  0  0  0  0  0  0  0  0  0
  145.5456  141.8425  155.8506 H   0  0  0  0  0  0  0  0  0  0  0  0
  146.4858  142.5543  157.1901 H   0  0  0  0  0  0  0  0  0  0  0  0
  148.2423  138.6738  154.9648 H   0  0  0  0  0  0  0  0  0  0  0  0
  146.5787  139.1969  154.8860 H   0  0  0  0  0  0  0  0  0  0  0  0
  148.0475  140.4573  153.2805 H   0  0  0  0  0  0  0  0  0  0  0  0
  147.2827  141.5301  154.4209 H   0  0  0  0  0  0  0  0  0  0  0  0
  150.1482  140.4864  154.5676 H   0  0  0  0  0  0  0  0  0  0  0  0
  149.6620  142.1266  154.1952 H   0  0  0  0  0  0  0  0  0  0  0  0
  148.6357  142.3752  156.4343 H   0  0  0  0  0  0  0  0  0  0  0  0
  149.9370  143.9138  157.1257 H   0  0  0  0  0  0  0  0  0  0  0  0
  152.8415  143.3758  157.5789 H   0  0  0  0  0  0  0  0  0  0  0  0
  152.1642  144.9076  157.0750 H   0  0  0  0  0  0  0  0  0  0  0  0
  152.0850  145.4845  159.2923 H   0  0  0  0  0  0  0  0  0  0  0  0
  150.7375  144.3838  159.4409 H   0  0  0  0  0  0  0  0  0  0  0  0
  151.9626  144.5819  161.9174 H   0  0  0  0  0  0  0  0  0  0  0  0
  153.3305  143.0919  163.3992 H   0  0  0  0  0  0  0  0  0  0  0  0
  154.7003  141.2766  162.3412 H   0  0  0  0  0  0  0  0  0  0  0  0
  153.4495  142.3247  158.5458 H   0  0  0  0  0  0  0  0  0  0  0  0
  148.8669  140.5819  158.1543 H   0  0  0  0  0  0  0  0  0  0  0  0
  149.6755  139.5507  157.0036 H   0  0  0  0  0  0  0  0  0  0  0  0
  1  2  1  0  0  0  0
  1 22  1  0  0  0  0
  1 23  1  0  0  0  0
  1 24  1  0  0  0  0
  2  3  2  0  0  0  0
  2  4  2  0  0  0  0
  2  5  1  0  0  0  0
  5 21  1  0  0  0  0
  5  6  1  0  0  0  0
  6  7  1  0  0  0  0
  6 25  1  0  0  0  0
  6 26  1  0  0  0  0
  7  8  1  0  0  0  0
  7 27  1  0  0  0  0
  7 28  1  0  0  0  0
  8  9  1  0  0  0  0
  8 29  1  0  0  0  0
  8 30  1  0  0  0  0
  9 10  1  0  0  0  0
  9 21  1  0  0  0  0
  9 31  1  0  0  0  0
 10 11  2  0  0  0  0
 10 12  1  0  0  0  0
 12 13  1  0  0  0  0
 12 32  1  0  0  0  0
 13 14  1  0  0  0  0
 13 33  1  0  0  0  0
 13 34  1  0  0  0  0
 14 15  1  0  0  0  0
 14 35  1  0  0  0  0
 14 36  1  0  0  0  0
 15 20  1  0  0  0  0
 15 16  2  0  0  0  0
 16 17  1  0  0  0  0
 16 37  1  0  0  0  0
 17 18  2  0  0  0  0
 17 38  1  0  0  0  0
 18 19  1  0  0  0  0
 18 39  1  0  0  0  0
 19 20  2  0  0  0  0
 20 40  1  0  0  0  0
 21 41  1  0  0  0  0
 21 42  1  0  0  0  0
M  END
> <s_m_source_file>
AV-unprocessed.smi

> <i_m_source_file_index>
2135

> <i_lp_mmshare_version>
43012

> <i_f3d_flags>
0

> <s_epik_input>
W0NIM11TKD1PKSg9TylOMVtDSDJdW0NIMl1bQ0gyXVtDQEhdKFtDSDJdMSlDKD1PKVtOSF1bQ0gyXVtDSDJdYzJbY0hdW2NIXVtjSF1uW2NIXTI=

> <s_epik_cmdline>
J2VwaWtfcHl0aG9uJywgJy1waCcsICc3LjAnLCAnLXRuJywgJzgnLCAnLW1hJywgJzIwMCcsICctbWV0YWxfYmluZGluZycsICctaW1hZScsICc8aW5maWxlLm1hZT4nLCAnLW9tYWUnLCAnPG91dGZpbGUubWFlPic=

> <r_epik_Ionization_Penalty>
0.0134582

> <r_epik_Ionization_Penalty_Charging>
0

> <r_epik_Ionization_Penalty_Neutral>
0.0134582

> <r_epik_State_Penalty>
0.010475

> <r_epik_Charging_Adjusted_Penalty>
0.010475

> <i_epik_Tot_Q>
0

> <i_epik_Tot_abs_Q>
0

> <r_epik_Metal_State_Penalty>
0.0102416

> <b_epik_Metal_Only>
0

> <s_lp_Force_Field>
OPLS_2005

> <r_lp_Energy>
-1.59051

> <b_lp_Chiralities_Consistent>
1

> <s_lp_Variant>
AV-unprocessed.smi:2135-2

> <Gold.Version>
5.8.1

> <Gold.Id.Protein>
6NUR|6NUR_protein|mol2

> <Gold.PLP.Fitness>
45.8043

> <Gold.PLP.PLP>
-43.2041

> <Gold.PLP.part.hbond>
-2.0000

> <Gold.PLP.part.metal>
0.0000

> <Gold.PLP.part.buried>
-4.8976

> <Gold.PLP.part.nonpolar>
-35.9887

> <Gold.PLP.part.repulsive>
0.0537

> <Gold.PLP.ligand.clash>
0.0000

> <Gold.PLP.ligand.torsion>
1.4201

> <Gold.PLP.Chemscore.Hbond>
1.1210

> <Gold.PLP.Chemscore.CHOScore>
0.0000

> <Gold.PLP.Chemscore.Metal>
0.0000

> <Gold.Chemscore.Hbonds>
donor molecule, donor type, donor heavy atom, donor atom, acceptor molecule, acceptor atom, score
      L1  H    12    32       P1  8028  0.70
      P1  H  6934  6946       L1     3  0.03

> <Gold.PLP.Chemscore.Internal.Correction>
2.0773

> <Gold.Rescore>
     Score         DG    S(hbond)    S(metal)    S(lipo)     H(rot)  DE(clash)    DE(int)     intcor
     16.45     -17.95       1.09        0.00     109.78       1.56       0.09       1.41       ----

> <Gold.Chemscore.Fitness>
16.4469

> <Gold.Chemscore.DG>
-17.9521

> <Gold.Chemscore.ZeroCoef>
-5.4800

> <Gold.Chemscore.Hbond>
1.0874

> <Gold.Chemscore.Metal>
0.0000

> <Gold.Chemscore.Lipo>
109.7836

> <Gold.Chemscore.Internal_Hbond>
0.0000

> <Gold.Chemscore.DEClash>
0.0933

> <Gold.Chemscore.DEInternal>
1.4119

> <Gold.Chemscore.Rot>
1.5643

> <Gold.Chemscore.Internal.Correction>
   9.000000E+99

> <Gold.Chemscore.Hbonds>
donor molecule, donor type, donor heavy atom, donor atom, acceptor molecule, acceptor atom, score
      L1  H    12    32       P1  8028  0.61
      P1  H  6934  6946       L1     3  0.08

> <Gold.Chemscore.Hbond.Weighted>
-3.6320

> <Gold.Chemscore.Metal.Weighted>
-0.0000

> <Gold.Chemscore.Lipo.Weighted>
-12.8447

> <Gold.Chemscore.Internal_Hbond.Weighted>
0.0000

> <Gold.Chemscore.DEClash.Weighted>
0.0933

> <Gold.Chemscore.DEInternal.Weighted>
1.4119

> <Gold.Chemscore.Rot.Weighted>
4.0046

> <Gold.Chemscore.Internal.Correction.Weighted>
   9.000000E+99

> <Gold.Protein.RotatedTorsions>
[ 6907 6896 6895 6894 ] final   95.80 input  -60.11 | X-H torsion
[ 7974 7965 7964 7962 ] final -145.03 input  175.53 | X-H torsion
[ 8008 7997 7996 7995 ] final  -47.54 input   59.86 | X-H torsion
[ 10167 10162 10161 10158 ] final -149.26 input  -65.29 | X-H torsion
[ 10718 10713 10712 10709 ] final   98.73 input   66.30 | X-H torsion
[ 10763 10752 10751 10750 ] final   18.45 input  -60.55 | X-H torsion
[ 11005 11000 10999 10996 ] final  -18.16 input  -57.11 | X-H torsion

> <Gold.Protein.ActiveResidues>
 VAL166  LYS551  ARG553  GLY616  TRP617  ASP618  TYR619  PRO620  LYS621  CYS622 
 ASP623  PHE694  ASN695  SER759  ASP760  ASP761  ALA762  ILE779  LEU786  VAL792 
 PHE793  MET794  SER795  GLU796  ALA797  LYS798  CYS799  TRP800  GLU811  SER814 

> <Gold.Protein.RotatedAtoms>
  152.5441  134.0984  159.8306 H   0  0  0  0  0  0  0  0  0  0  0  0  # atno 6907 bound_to 6896
  151.1065  133.5197  159.2615 H   0  0  0  0  0  0  0  0  0  0  0  0  # atno 6908 bound_to 6896
  151.1932  135.0421  159.8896 H   0  0  0  0  0  0  0  0  0  0  0  0  # atno 6909 bound_to 6896
  144.8256  140.5636  143.5549 H   0  0  0  0  0  0  0  0  0  0  0  0  # atno 7974 bound_to 7965
  154.4018  140.1344  156.4192 H   0  0  0  0  0  0  0  0  0  0  0  0  # atno 8008 bound_to 7997
  155.7659  140.3485  155.5201 H   0  0  0  0  0  0  0  0  0  0  0  0  # atno 8009 bound_to 7997
  155.8814  140.0988  157.1473 H   0  0  0  0  0  0  0  0  0  0  0  0  # atno 8010 bound_to 7997
  139.7458  143.8593  152.2574 H   0  0  0  0  0  0  0  0  0  0  0  0  # atno 10167 bound_to 10162
  157.6890  131.0649  150.4841 H   0  0  0  0  0  0  0  0  0  0  0  0  # atno 10718 bound_to 10713
  153.1248  135.6727  153.9276 H   0  0  0  0  0  0  0  0  0  0  0  0  # atno 10763 bound_to 10752
  153.8780  135.3061  155.3445 H   0  0  0  0  0  0  0  0  0  0  0  0  # atno 10764 bound_to 10752
  154.7654  135.4966  153.9625 H   0  0  0  0  0  0  0  0  0  0  0  0  # atno 10765 bound_to 10752
  140.8240  133.8046  155.9689 H   0  0  0  0  0  0  0  0  0  0  0  0  # atno 11005 bound_to 11000
  145.5008  139.1483  143.3658 LP  0  0  0  0  0  0  0  0  0  0  0  0  # atno 17320 bound_to 7965
  146.2561  140.5147  142.8873 LP  0  0  0  0  0  0  0  0  0  0  0  0  # atno 17321 bound_to 7965
  139.8556  144.7142  150.9161 LP  0  0  0  0  0  0  0  0  0  0  0  0  # atno 17342 bound_to 10162
  140.7792  143.3861  151.1391 LP  0  0  0  0  0  0  0  0  0  0  0  0  # atno 17343 bound_to 10162
  156.5171  130.4153  149.6270 LP  0  0  0  0  0  0  0  0  0  0  0  0  # atno 17370 bound_to 10713
  156.3187  130.7269  151.2176 LP  0  0  0  0  0  0  0  0  0  0  0  0  # atno 17371 bound_to 10713
  140.9068  134.2310  157.5009 LP  0  0  0  0  0  0  0  0  0  0  0  0  # atno 17394 bound_to 11000
  139.8707  134.9732  156.4801 LP  0  0  0  0  0  0  0  0  0  0  0  0  # atno 17395 bound_to 11000

$$$$
