AV-unprocessed.smi:516|AV-procd|sdf|2787|dock6
  -GOLD-   2262023263D 1   1.00000     0.00000
 Structure written by MMmdl.
 44 46  0  0  0  0  0  0  0  0  3 V2000
  150.8338  132.8920  156.0850 C   0  0  0  0  0  0  0  0  0  0  0  0
  150.9946  133.9479  157.0147 O   0  0  0  0  0  0  0  0  0  0  0  0
  150.1165  135.0331  156.7677 C   0  0  0  0  0  0  0  0  0  0  0  0
  150.4800  135.7138  155.4395 C   0  0  0  0  0  0  0  0  0  0  0  0
  149.4621  136.6704  155.0123 N   0  0  0  0  0  0  0  0  0  0  0  0
  148.1628  136.4053  154.7135 C   0  0  0  0  0  0  0  0  0  0  0  0
  147.5533  135.0333  154.7783 C   0  0  0  0  0  0  0  0  0  0  0  0
  147.1052  134.7579  153.3899 N   0  3  0  0  0  0  0  0  0  0  0  0
  147.0500  133.3078  153.0922 C   0  0  0  0  0  0  0  0  0  0  0  0
  146.6505  133.0753  151.6252 C   0  0  0  0  0  0  0  0  0  0  0  0
  145.4024  133.7053  151.3645 O   0  0  0  0  0  0  0  0  0  0  0  0
  145.4647  135.1124  151.5627 C   0  0  0  0  0  0  0  0  0  0  0  0
  145.8223  135.4124  153.0276 C   0  0  0  0  0  0  0  0  0  0  0  0
  147.4536  137.4780  154.3530 N   0  0  0  0  0  0  0  0  0  0  0  0
  148.3782  138.5085  154.4249 C   0  0  0  0  0  0  0  0  0  0  0  0
  149.5969  138.0487  154.8146 C   0  0  0  0  0  0  0  0  0  0  0  0
  150.7892  138.9128  154.9701 C   0  0  0  0  0  0  0  0  0  0  0  0
  151.8758  138.4451  155.3028 O   0  0  0  0  0  0  0  0  0  0  0  0
  150.5121  140.2284  154.7037 N   0  5  0  0  0  0  0  0  0  0  0  0
  149.2913  140.7375  154.3159 C   0  0  0  0  0  0  0  0  0  0  0  0
  149.1260  141.9389  154.1015 O   0  0  0  0  0  0  0  0  0  0  0  0
  148.2208  139.8964  154.1627 N   0  0  0  0  0  0  0  0  0  0  0  0
  146.9121  140.4084  153.7462 C   0  0  0  0  0  0  0  0  0  0  0  0
  151.5345  132.0903  156.3179 H   0  0  0  0  0  0  0  0  0  0  0  0
  151.0344  133.2290  155.0673 H   0  0  0  0  0  0  0  0  0  0  0  0
  149.8246  132.4803  156.1258 H   0  0  0  0  0  0  0  0  0  0  0  0
  149.0877  134.6717  156.7323 H   0  0  0  0  0  0  0  0  0  0  0  0
  150.1789  135.7575  157.5811 H   0  0  0  0  0  0  0  0  0  0  0  0
  151.4383  136.2243  155.5276 H   0  0  0  0  0  0  0  0  0  0  0  0
  150.6360  134.9696  154.6616 H   0  0  0  0  0  0  0  0  0  0  0  0
  148.3283  134.3291  155.0840 H   0  0  0  0  0  0  0  0  0  0  0  0
  146.7361  134.9566  155.4943 H   0  0  0  0  0  0  0  0  0  0  0  0
  148.0234  132.8543  153.2831 H   0  0  0  0  0  0  0  0  0  0  0  0
  146.3331  132.8243  153.7576 H   0  0  0  0  0  0  0  0  0  0  0  0
  147.4146  133.4592  150.9473 H   0  0  0  0  0  0  0  0  0  0  0  0
  146.5558  132.0077  151.4261 H   0  0  0  0  0  0  0  0  0  0  0  0
  146.1955  135.5568  150.8851 H   0  0  0  0  0  0  0  0  0  0  0  0
  144.4958  135.5470  151.3161 H   0  0  0  0  0  0  0  0  0  0  0  0
  145.0294  135.0545  153.6862 H   0  0  0  0  0  0  0  0  0  0  0  0
  145.8890  136.4917  153.1655 H   0  0  0  0  0  0  0  0  0  0  0  0
  146.9933  140.9503  152.8029 H   0  0  0  0  0  0  0  0  0  0  0  0
  146.5149  141.0914  154.4978 H   0  0  0  0  0  0  0  0  0  0  0  0
  146.1772  139.6173  153.6004 H   0  0  0  0  0  0  0  0  0  0  0  0
  147.8154  135.1459  152.7846 H   0  0  0  0  0  0  0  0  0  0  0  0
  1  2  1  0  0  0  0
  1 24  1  0  0  0  0
  1 25  1  0  0  0  0
  1 26  1  0  0  0  0
  2  3  1  0  0  0  0
  3  4  1  0  0  0  0
  3 27  1  0  0  0  0
  3 28  1  0  0  0  0
  4  5  1  0  0  0  0
  4 29  1  0  0  0  0
  4 30  1  0  0  0  0
  5 16  1  0  0  0  0
  5  6  1  0  0  0  0
  6  7  1  0  0  0  0
  6 14  2  0  0  0  0
  7  8  1  0  0  0  0
  7 31  1  0  0  0  0
  7 32  1  0  0  0  0
  8 13  1  0  0  0  0
  8  9  1  0  0  0  0
  8 44  1  0  0  0  0
  9 10  1  0  0  0  0
  9 33  1  0  0  0  0
  9 34  1  0  0  0  0
 10 11  1  0  0  0  0
 10 35  1  0  0  0  0
 10 36  1  0  0  0  0
 11 12  1  0  0  0  0
 12 13  1  0  0  0  0
 12 37  1  0  0  0  0
 12 38  1  0  0  0  0
 13 39  1  0  0  0  0
 13 40  1  0  0  0  0
 14 15  1  0  0  0  0
 15 22  1  0  0  0  0
 15 16  2  0  0  0  0
 16 17  1  0  0  0  0
 17 18  2  0  0  0  0
 17 19  1  0  0  0  0
 19 20  1  0  0  0  0
 20 21  2  0  0  0  0
 20 22  1  0  0  0  0
 22 23  1  0  0  0  0
 23 41  1  0  0  0  0
 23 42  1  0  0  0  0
 23 43  1  0  0  0  0
M  CHG  1   8   1
M  CHG  1  19  -1
M  END
> <s_m_source_file>
AV-unprocessed.smi

> <i_m_source_file_index>
516

> <i_lp_mmshare_version>
43012

> <i_f3d_flags>
0

> <s_epik_input>
W0NIM11uMWMoPU8pW25IXWMoPU8pYyhjMTIpbihbQ0gyXVtDSDJdT1tDSDNdKWMobjIpW0NIMl1OM1tDSDJdW0NIMl1PW0NIMl1bQ0gyXTM=

> <s_epik_cmdline>
J2VwaWtfcHl0aG9uJywgJy1waCcsICc3LjAnLCAnLXRuJywgJzgnLCAnLW1hJywgJzIwMCcsICctbWV0YWxfYmluZGluZycsICctaW1hZScsICc8aW5maWxlLm1hZT4nLCAnLW9tYWUnLCAnPG91dGZpbGUubWFlPic=

> <r_epik_Ionization_Penalty>
5.20946

> <r_epik_Ionization_Penalty_Charging>
1.12908

> <r_epik_Ionization_Penalty_Neutral>
4.08038

> <r_epik_State_Penalty>
5.2587

> <r_epik_Charging_Adjusted_Penalty>
6.38778

> <i_epik_Tot_Q>
0

> <i_epik_Tot_abs_Q>
2

> <r_epik_Metal_State_Penalty>
1.732

> <b_epik_Metal_Only>
1

> <s_lp_Force_Field>
OPLS_2005

> <r_lp_Energy>
35.9619

> <b_lp_Chiralities_Consistent>
1

> <s_lp_Variant>
AV-unprocessed.smi:516-4

> <Gold.Version>
5.8.1

> <Gold.Id.Protein>
6NUR|6NUR_protein|mol2

> <Gold.PLP.Fitness>
39.9352

> <Gold.PLP.PLP>
-28.5171

> <Gold.PLP.part.hbond>
-4.6627

> <Gold.PLP.part.metal>
0.0000

> <Gold.PLP.part.buried>
-2.1700

> <Gold.PLP.part.nonpolar>
-22.7666

> <Gold.PLP.part.repulsive>
0.6896

> <Gold.PLP.ligand.clash>
0.0000

> <Gold.PLP.ligand.torsion>
0.2799

> <Gold.PLP.Chemscore.Hbond>
3.9694

> <Gold.PLP.Chemscore.CHOScore>
0.0000

> <Gold.PLP.Chemscore.Metal>
0.0000

> <Gold.Chemscore.Hbonds>
donor molecule, donor type, donor heavy atom, donor atom, acceptor molecule, acceptor atom, score
      L1  H     8    44       P1  7948  2.00
      P1  H  6896  6907       L1     2  0.30
      P1  H  7989  7998       L1    19  1.00
      P1  H  8011  8017       L1    21  0.43

> <Gold.PLP.Chemscore.Internal.Correction>
0.0696

> <Gold.Rescore>
     Score         DG    S(hbond)    S(metal)    S(lipo)     H(rot)  DE(clash)    DE(int)     intcor
     12.77     -13.39       2.48        0.00      42.08       2.07       0.14       0.48       ----

> <Gold.Chemscore.Fitness>
12.7729

> <Gold.Chemscore.DG>
-13.3856

> <Gold.Chemscore.ZeroCoef>
-5.4800

> <Gold.Chemscore.Hbond>
2.4789

> <Gold.Chemscore.Metal>
0.0000

> <Gold.Chemscore.Lipo>
42.0804

> <Gold.Chemscore.Internal_Hbond>
0.0000

> <Gold.Chemscore.DEClash>
0.1371

> <Gold.Chemscore.DEInternal>
0.4756

> <Gold.Chemscore.Rot>
2.0693

> <Gold.Chemscore.Internal.Correction>
   9.000000E+99

> <Gold.Chemscore.Hbonds>
donor molecule, donor type, donor heavy atom, donor atom, acceptor molecule, acceptor atom, score
      L1  H     8    44       P1  7948  0.99
      P1  H  6896  6907       L1     2  0.20
      P1  H  7989  7998       L1    19  0.31
      P1  H  8011  8017       L1    21  0.34

> <Gold.Chemscore.Hbond.Weighted>
-8.2797

> <Gold.Chemscore.Metal.Weighted>
-0.0000

> <Gold.Chemscore.Lipo.Weighted>
-4.9234

> <Gold.Chemscore.Internal_Hbond.Weighted>
0.0000

> <Gold.Chemscore.DEClash.Weighted>
0.1371

> <Gold.Chemscore.DEInternal.Weighted>
0.4756

> <Gold.Chemscore.Rot.Weighted>
5.2975

> <Gold.Chemscore.Internal.Correction.Weighted>
   9.000000E+99

> <Gold.Protein.RotatedTorsions>
[ 6907 6896 6895 6894 ] final -138.10 input  -60.11 | X-H torsion
[ 7974 7965 7964 7962 ] final  144.83 input  175.53 | X-H torsion
[ 8008 7997 7996 7995 ] final   77.35 input   59.86 | X-H torsion
[ 10167 10162 10161 10158 ] final    0.68 input  -65.29 | X-H torsion
[ 10718 10713 10712 10709 ] final  -87.82 input   66.30 | X-H torsion
[ 10763 10752 10751 10750 ] final   19.45 input  -60.55 | X-H torsion
[ 11005 11000 10999 10996 ] final  -84.76 input  -57.11 | X-H torsion

> <Gold.Protein.ActiveResidues>
 VAL166  LYS551  ARG553  GLY616  TRP617  ASP618  TYR619  PRO620  LYS621  CYS622 
 ASP623  PHE694  ASN695  SER759  ASP760  ASP761  ALA762  ILE779  LEU786  VAL792 
 PHE793  MET794  SER795  GLU796  ALA797  LYS798  CYS799  TRP800  GLU811  SER814 

> <Gold.Protein.RotatedAtoms>
  151.0307  133.5792  159.2660 H   0  0  0  0  0  0  0  0  0  0  0  0  # atno 6907 bound_to 6896
  151.2875  135.0731  159.9202 H   0  0  0  0  0  0  0  0  0  0  0  0  # atno 6908 bound_to 6896
  152.5344  134.0011  159.7949 H   0  0  0  0  0  0  0  0  0  0  0  0  # atno 6909 bound_to 6896
  144.8803  139.5709  143.5846 H   0  0  0  0  0  0  0  0  0  0  0  0  # atno 7974 bound_to 7965
  155.8404  140.3462  155.5628 H   0  0  0  0  0  0  0  0  0  0  0  0  # atno 8008 bound_to 7997
  155.8147  140.0904  157.1903 H   0  0  0  0  0  0  0  0  0  0  0  0  # atno 8009 bound_to 7997
  154.4005  140.1441  156.3416 H   0  0  0  0  0  0  0  0  0  0  0  0  # atno 8010 bound_to 7997
  140.6717  143.7029  150.7938 H   0  0  0  0  0  0  0  0  0  0  0  0  # atno 10167 bound_to 10162
  155.9984  130.4813  150.4925 H   0  0  0  0  0  0  0  0  0  0  0  0  # atno 10718 bound_to 10713
  153.1161  135.6708  153.9415 H   0  0  0  0  0  0  0  0  0  0  0  0  # atno 10763 bound_to 10752
  153.8944  135.3043  155.3449 H   0  0  0  0  0  0  0  0  0  0  0  0  # atno 10764 bound_to 10752
  154.7577  135.5003  153.9484 H   0  0  0  0  0  0  0  0  0  0  0  0  # atno 10765 bound_to 10752
  141.1647  133.7363  156.8915 H   0  0  0  0  0  0  0  0  0  0  0  0  # atno 11005 bound_to 11000
  146.2990  139.7367  142.9105 LP  0  0  0  0  0  0  0  0  0  0  0  0  # atno 17320 bound_to 7965
  145.3966  141.0379  143.3094 LP  0  0  0  0  0  0  0  0  0  0  0  0  # atno 17321 bound_to 7965
  140.0715  143.5056  152.2577 LP  0  0  0  0  0  0  0  0  0  0  0  0  # atno 17342 bound_to 10162
  139.5989  144.7576  151.3218 LP  0  0  0  0  0  0  0  0  0  0  0  0  # atno 17343 bound_to 10162
  157.2918  131.0628  151.2128 LP  0  0  0  0  0  0  0  0  0  0  0  0  # atno 17370 bound_to 10713
  157.3138  130.6903  149.6230 LP  0  0  0  0  0  0  0  0  0  0  0  0  # atno 17371 bound_to 10713
  140.1645  134.9142  157.2757 LP  0  0  0  0  0  0  0  0  0  0  0  0  # atno 17394 bound_to 11000
  140.2572  134.3613  155.7420 LP  0  0  0  0  0  0  0  0  0  0  0  0  # atno 17395 bound_to 11000

$$$$
