AV-unprocessed.smi:3014|AV-procd|sdf|11469|dock6
  -GOLD-   2272016403D 1   1.00000     0.00000
 Structure written by MMmdl.
 45 46  0  0  0  0  0  0  0  0  1 V2000
  152.7562  142.2594  162.5376 C   0  0  0  0  0  0  0  0  0  0  0  0
  152.2116  142.8324  161.2213 C   0  0  1  0  0  0  0  0  0  0  0  0
  152.0131  144.3576  161.3135 C   0  0  0  0  0  0  0  0  0  0  0  0
  151.4771  144.9396  159.9963 C   0  0  0  0  0  0  0  0  0  0  0  0
  152.3878  144.5756  158.8120 C   0  0  0  0  0  0  0  0  0  0  0  0
  152.5975  143.0553  158.6989 C   0  0  2  0  0  0  0  0  0  0  0  0
  151.3503  142.4748  158.3346 O   0  0  0  0  0  0  0  0  0  0  0  0
  151.4361  141.1540  157.8129 C   0  0  0  0  0  0  0  0  0  0  0  0
  150.7458  141.0921  156.4489 C   0  0  0  0  0  0  0  0  0  0  0  0
  151.3432  140.5837  155.5003 O   0  0  0  0  0  0  0  0  0  0  0  0
  149.5105  141.6242  156.3772 N   0  0  0  0  0  0  0  0  0  0  0  0
  148.6561  141.7133  155.2478 C   0  0  0  0  0  0  0  0  0  0  0  0
  148.9343  140.8173  154.1933 C   0  0  0  0  0  0  0  0  0  0  0  0
  148.1005  140.8817  153.0603 C   0  0  0  0  0  0  0  0  0  0  0  0
  147.0779  141.7569  152.9799 N   0  0  0  0  0  0  0  0  0  0  0  0
  146.8814  142.5709  154.0243 C   0  0  0  0  0  0  0  0  0  0  0  0
  145.8205  143.4777  153.9461 N   0  0  0  0  0  0  0  0  0  0  0  0
  145.8165  144.5546  152.9603 C   0  0  0  0  0  0  0  0  0  0  0  0
  144.6783  143.3834  154.8510 C   0  0  0  0  0  0  0  0  0  0  0  0
  147.6218  142.5827  155.1402 N   0  0  0  0  0  0  0  0  0  0  0  0
  153.1258  142.4791  160.0308 C   0  0  0  0  0  0  0  0  0  0  0  0
  153.7356  142.6750  162.7772 H   0  0  0  0  0  0  0  0  0  0  0  0
  152.8591  141.1754  162.4819 H   0  0  0  0  0  0  0  0  0  0  0  0
  152.0872  142.4835  163.3690 H   0  0  0  0  0  0  0  0  0  0  0  0
  151.2367  142.3754  161.0449 H   0  0  0  0  0  0  0  0  0  0  0  0
  151.3238  144.5960  162.1242 H   0  0  0  0  0  0  0  0  0  0  0  0
  152.9599  144.8384  161.5631 H   0  0  0  0  0  0  0  0  0  0  0  0
  150.4694  144.5639  159.8144 H   0  0  0  0  0  0  0  0  0  0  0  0
  151.3912  146.0234  160.0781 H   0  0  0  0  0  0  0  0  0  0  0  0
  151.9673  144.9655  157.8845 H   0  0  0  0  0  0  0  0  0  0  0  0
  153.3546  145.0643  158.9390 H   0  0  0  0  0  0  0  0  0  0  0  0
  153.3247  142.8719  157.9061 H   0  0  0  0  0  0  0  0  0  0  0  0
  152.4791  140.8594  157.6900 H   0  0  0  0  0  0  0  0  0  0  0  0
  150.9617  140.4373  158.4832 H   0  0  0  0  0  0  0  0  0  0  0  0
  149.1401  142.0013  157.2375 H   0  0  0  0  0  0  0  0  0  0  0  0
  149.7497  140.1107  154.2456 H   0  0  0  0  0  0  0  0  0  0  0  0
  148.2546  140.2270  152.2155 H   0  0  0  0  0  0  0  0  0  0  0  0
  146.7087  145.1727  153.0664 H   0  0  0  0  0  0  0  0  0  0  0  0
  144.9487  145.2049  153.0702 H   0  0  0  0  0  0  0  0  0  0  0  0
  145.8004  144.1433  151.9505 H   0  0  0  0  0  0  0  0  0  0  0  0
  144.9971  143.5420  155.8818 H   0  0  0  0  0  0  0  0  0  0  0  0
  144.2165  142.3980  154.7819 H   0  0  0  0  0  0  0  0  0  0  0  0
  143.9126  144.1238  154.6198 H   0  0  0  0  0  0  0  0  0  0  0  0
  154.1234  142.8798  160.2153 H   0  0  0  0  0  0  0  0  0  0  0  0
  153.2517  141.3991  159.9618 H   0  0  0  0  0  0  0  0  0  0  0  0
  1  2  1  0  0  0  0
  1 22  1  0  0  0  0
  1 23  1  0  0  0  0
  1 24  1  0  0  0  0
  2 21  1  0  0  0  0
  2  3  1  0  0  0  0
  2 25  1  0  0  0  0
  3  4  1  0  0  0  0
  3 26  1  0  0  0  0
  3 27  1  0  0  0  0
  4  5  1  0  0  0  0
  4 28  1  0  0  0  0
  4 29  1  0  0  0  0
  5  6  1  0  0  0  0
  5 30  1  0  0  0  0
  5 31  1  0  0  0  0
  6  7  1  0  0  0  0
  6 21  1  0  0  0  0
  6 32  1  0  0  0  0
  7  8  1  0  0  0  0
  8  9  1  0  0  0  0
  8 33  1  0  0  0  0
  8 34  1  0  0  0  0
  9 10  2  0  0  0  0
  9 11  1  0  0  0  0
 11 12  1  0  0  0  0
 11 35  1  0  0  0  0
 12 20  1  0  0  0  0
 12 13  2  0  0  0  0
 13 14  1  0  0  0  0
 13 36  1  0  0  0  0
 14 15  2  0  0  0  0
 14 37  1  0  0  0  0
 15 16  1  0  0  0  0
 16 17  1  0  0  0  0
 16 20  2  0  0  0  0
 17 18  1  0  0  0  0
 17 19  1  0  0  0  0
 18 38  1  0  0  0  0
 18 39  1  0  0  0  0
 18 40  1  0  0  0  0
 19 41  1  0  0  0  0
 19 42  1  0  0  0  0
 19 43  1  0  0  0  0
 21 44  1  0  0  0  0
 21 45  1  0  0  0  0
M  END
> <s_m_source_file>
AV-unprocessed.smi

> <i_m_source_file_index>
3014

> <i_lp_mmshare_version>
43012

> <i_f3d_flags>
0

> <s_epik_input>
W0NIM11bQ0BASF0xW0NIMl1bQ0gyXVtDSDJdW0NASF0oW0NIMl0xKU9bQ0gyXUMoPU8pW05IXWMyW2NIXVtjSF1uYyhuMilOKFtDSDNdKVtDSDNd

> <s_epik_cmdline>
J2VwaWtfcHl0aG9uJywgJy1waCcsICc3LjAnLCAnLXRuJywgJzgnLCAnLW1hJywgJzIwMCcsICctbWV0YWxfYmluZGluZycsICctaW1hZScsICc8aW5maWxlLm1hZT4nLCAnLW9tYWUnLCAnPG91dGZpbGUubWFlPic=

> <r_lp_tautomer_probability>
1

> <r_epik_Ionization_Penalty>
0.000308195

> <r_epik_Ionization_Penalty_Charging>
0

> <r_epik_Ionization_Penalty_Neutral>
0.000308195

> <r_epik_State_Penalty>
-0

> <r_epik_Charging_Adjusted_Penalty>
0

> <i_epik_Tot_Q>
0

> <i_epik_Tot_abs_Q>
0

> <r_epik_Metal_State_Penalty>
-0

> <b_epik_Metal_Only>
0

> <s_lp_Force_Field>
OPLS_2005

> <r_lp_Energy>
6.78662

> <b_lp_Chiralities_Consistent>
1

> <s_lp_Variant>
AV-unprocessed.smi:3014-4

> <Gold.Version>
5.8.1

> <Gold.Id.Protein>
6NUR|6NUR_protein|mol2

> <Gold.PLP.Fitness>
51.6581

> <Gold.PLP.PLP>
-50.1870

> <Gold.PLP.part.hbond>
-1.0000

> <Gold.PLP.part.metal>
0.0000

> <Gold.PLP.part.buried>
-4.8657

> <Gold.PLP.part.nonpolar>
-46.6388

> <Gold.PLP.part.repulsive>
2.3608

> <Gold.PLP.ligand.clash>
0.0000

> <Gold.PLP.ligand.torsion>
1.9275

> <Gold.PLP.Chemscore.Hbond>
0.8480

> <Gold.PLP.Chemscore.CHOScore>
0.9169

> <Gold.PLP.Chemscore.Metal>
0.0000

> <Gold.Chemscore.Hbonds>
donor molecule, donor type, donor heavy atom, donor atom, acceptor molecule, acceptor atom, score
      P1  H  7989  7998       L1    10  0.82
      L1  C    14    37       P1  7957  0.20

> <Gold.PLP.Chemscore.Internal.Correction>
0.0315

> <Gold.Rescore>
     Score         DG    S(hbond)    S(metal)    S(lipo)     H(rot)  DE(clash)    DE(int)     intcor
     14.41     -18.05       0.80        0.00     115.98       1.43       0.09       3.54       ----

> <Gold.Chemscore.Fitness>
14.4139

> <Gold.Chemscore.DG>
-18.0455

> <Gold.Chemscore.ZeroCoef>
-5.4800

> <Gold.Chemscore.Hbond>
0.7962

> <Gold.Chemscore.Metal>
0.0000

> <Gold.Chemscore.Lipo>
115.9787

> <Gold.Chemscore.Internal_Hbond>
0.0000

> <Gold.Chemscore.DEClash>
0.0917

> <Gold.Chemscore.DEInternal>
3.5399

> <Gold.Chemscore.Rot>
1.4310

> <Gold.Chemscore.Internal.Correction>
   9.000000E+99

> <Gold.Chemscore.Hbonds>
donor molecule, donor type, donor heavy atom, donor atom, acceptor molecule, acceptor atom, score
      P1  H  7989  7998       L1    10  0.75

> <Gold.Chemscore.Hbond.Weighted>
-2.6592

> <Gold.Chemscore.Metal.Weighted>
-0.0000

> <Gold.Chemscore.Lipo.Weighted>
-13.5695

> <Gold.Chemscore.Internal_Hbond.Weighted>
0.0000

> <Gold.Chemscore.DEClash.Weighted>
0.0917

> <Gold.Chemscore.DEInternal.Weighted>
3.5399

> <Gold.Chemscore.Rot.Weighted>
3.6632

> <Gold.Chemscore.Internal.Correction.Weighted>
   9.000000E+99

> <Gold.Protein.RotatedTorsions>
[ 6907 6896 6895 6894 ] final  -53.92 input  -60.11 | X-H torsion
[ 7974 7965 7964 7962 ] final   62.21 input  175.53 | X-H torsion
[ 8008 7997 7996 7995 ] final  133.52 input   59.86 | X-H torsion
[ 10167 10162 10161 10158 ] final  116.05 input  -65.29 | X-H torsion
[ 10718 10713 10712 10709 ] final  141.11 input   66.30 | X-H torsion
[ 10763 10752 10751 10750 ] final  125.78 input  -60.55 | X-H torsion
[ 11005 11000 10999 10996 ] final  109.50 input  -57.11 | X-H torsion

> <Gold.Protein.ActiveResidues>
 VAL166  LYS551  ARG553  GLY616  TRP617  ASP618  TYR619  PRO620  LYS621  CYS622 
 ASP623  PHE694  ASN695  SER759  ASP760  ASP761  ALA762  ILE779  LEU786  VAL792 
 PHE793  MET794  SER795  GLU796  ALA797  LYS798  CYS799  TRP800  GLU811  SER814 

> <Gold.Protein.RotatedAtoms>
  150.8383  134.7665  159.6911 H   0  0  0  0  0  0  0  0  0  0  0  0  # atno 6907 bound_to 6896
  152.4476  134.5459  159.9862 H   0  0  0  0  0  0  0  0  0  0  0  0  # atno 6908 bound_to 6896
  151.5604  133.3366  159.3006 H   0  0  0  0  0  0  0  0  0  0  0  0  # atno 6909 bound_to 6896
  145.8759  139.3410  143.0735 H   0  0  0  0  0  0  0  0  0  0  0  0  # atno 7974 bound_to 7965
  156.2993  140.2519  156.3266 H   0  0  0  0  0  0  0  0  0  0  0  0  # atno 8008 bound_to 7997
  154.9184  140.0401  157.2004 H   0  0  0  0  0  0  0  0  0  0  0  0  # atno 8009 bound_to 7997
  154.8335  140.2879  155.5711 H   0  0  0  0  0  0  0  0  0  0  0  0  # atno 8010 bound_to 7997
  139.6274  144.7110  151.2503 H   0  0  0  0  0  0  0  0  0  0  0  0  # atno 10167 bound_to 10162
  157.3957  131.1010  151.0602 H   0  0  0  0  0  0  0  0  0  0  0  0  # atno 10718 bound_to 10713
  153.6828  135.3311  155.3182 H   0  0  0  0  0  0  0  0  0  0  0  0  # atno 10763 bound_to 10752
  154.8461  135.4413  154.1589 H   0  0  0  0  0  0  0  0  0  0  0  0  # atno 10764 bound_to 10752
  153.2610  135.6991  153.7656 H   0  0  0  0  0  0  0  0  0  0  0  0  # atno 10765 bound_to 10752
  139.8863  134.9460  156.6134 H   0  0  0  0  0  0  0  0  0  0  0  0  # atno 11005 bound_to 11000
  145.9081  140.9198  143.0468 LP  0  0  0  0  0  0  0  0  0  0  0  0  # atno 17320 bound_to 7965
  144.6726  140.1123  143.7454 LP  0  0  0  0  0  0  0  0  0  0  0  0  # atno 17321 bound_to 7965
  140.7419  143.6542  150.8221 LP  0  0  0  0  0  0  0  0  0  0  0  0  # atno 17342 bound_to 10162
  140.0162  143.5590  152.2819 LP  0  0  0  0  0  0  0  0  0  0  0  0  # atno 17343 bound_to 10162
  157.1619  130.6229  149.5613 LP  0  0  0  0  0  0  0  0  0  0  0  0  # atno 17370 bound_to 10713
  155.9810  130.4814  150.6802 LP  0  0  0  0  0  0  0  0  0  0  0  0  # atno 17371 bound_to 10713
  140.7794  133.8673  155.8555 LP  0  0  0  0  0  0  0  0  0  0  0  0  # atno 17394 bound_to 11000
  140.9774  134.1451  157.4524 LP  0  0  0  0  0  0  0  0  0  0  0  0  # atno 17395 bound_to 11000

$$$$
