AV-unprocessed.smi:907|AV-procd|sdf|4106|dock5
  -GOLD-   22720 2 03D 1   1.00000     0.00000
 Structure written by MMmdl.
 53 56  0  0  0  0  0  0  0  0  2 V2000
  147.9944  140.9382  155.6536 O   0  0  0  0  0  0  0  0  0  0  0  0
  149.0209  140.2654  155.5511 C   0  0  0  0  0  0  0  0  0  0  0  0
  150.1180  140.5176  156.2855 N   0  0  0  0  0  0  0  0  0  0  0  0
  150.2295  141.5710  157.2884 C   0  0  0  0  0  0  0  0  0  0  0  0
  151.6756  141.7257  157.7886 C   0  0  0  0  0  0  0  0  0  0  0  0
  151.8524  142.9535  158.6613 C   0  0  0  0  0  0  0  0  0  0  0  0
  151.7234  144.2478  158.1140 C   0  0  0  0  0  0  0  0  0  0  0  0
  151.8899  145.3564  158.9662 C   0  0  0  0  0  0  0  0  0  0  0  0
  152.1758  145.1289  160.3261 C   0  0  0  0  0  0  0  0  0  0  0  0
  152.2828  143.7973  160.7750 C   0  0  0  0  0  0  0  0  0  0  0  0
  152.1251  142.7271  159.9662 N   0  0  0  0  0  0  0  0  0  0  0  0
  149.1589  139.2595  154.6516 N   0  0  0  0  0  0  0  0  0  0  0  0
  150.3969  138.5271  154.3558 C   0  0  0  0  0  0  0  0  0  0  0  0
  150.3236  137.1382  155.0175 C   0  0  0  0  0  0  0  0  0  0  0  0
  149.1132  136.3803  154.5853 N   0  3  0  0  0  0  0  0  0  0  0  0
  149.0255  135.0332  155.2192 C   0  0  2  0  0  0  0  0  0  0  0  0
  150.1989  134.0854  154.8685 C   0  0  0  0  0  0  0  0  0  0  0  0
  149.4860  132.7880  154.4416 C   0  0  2  0  0  0  0  0  0  0  0  0
  148.9046  132.9833  153.0310 C   0  0  0  0  0  0  0  0  0  0  0  0
  147.7431  133.9611  153.2819 C   0  0  0  0  0  0  0  0  0  0  0  0
  147.7974  134.1815  154.8098 C   0  0  1  0  0  0  0  0  0  0  0  0
  148.2268  132.8025  155.3001 C   0  0  0  0  0  0  0  0  0  0  0  0
  147.8650  137.1833  154.7335 C   0  0  0  0  0  0  0  0  0  0  0  0
  148.0015  138.5693  154.0784 C   0  0  0  0  0  0  0  0  0  0  0  0
  150.9355  139.9451  156.1332 H   0  0  0  0  0  0  0  0  0  0  0  0
  149.8640  142.5147  156.8800 H   0  0  0  0  0  0  0  0  0  0  0  0
  149.5720  141.3189  158.1208 H   0  0  0  0  0  0  0  0  0  0  0  0
  151.9724  140.8422  158.3556 H   0  0  0  0  0  0  0  0  0  0  0  0
  152.3633  141.7918  156.9445 H   0  0  0  0  0  0  0  0  0  0  0  0
  151.5004  144.3901  157.0666 H   0  0  0  0  0  0  0  0  0  0  0  0
  151.7993  146.3621  158.5837 H   0  0  0  0  0  0  0  0  0  0  0  0
  152.3090  145.9547  161.0091 H   0  0  0  0  0  0  0  0  0  0  0  0
  152.5010  143.5864  161.8114 H   0  0  0  0  0  0  0  0  0  0  0  0
  150.4986  138.4199  153.2749 H   0  0  0  0  0  0  0  0  0  0  0  0
  151.3015  139.0399  154.6825 H   0  0  0  0  0  0  0  0  0  0  0  0
  151.2294  136.5844  154.7741 H   0  0  0  0  0  0  0  0  0  0  0  0
  150.3084  137.2511  156.1028 H   0  0  0  0  0  0  0  0  0  0  0  0
  148.9955  135.1749  156.3014 H   0  0  0  0  0  0  0  0  0  0  0  0
  150.8365  134.4586  154.0664 H   0  0  0  0  0  0  0  0  0  0  0  0
  150.8290  133.9188  155.7430 H   0  0  0  0  0  0  0  0  0  0  0  0
  150.1034  131.8946  154.5390 H   0  0  0  0  0  0  0  0  0  0  0  0
  149.6382  133.3768  152.3264 H   0  0  0  0  0  0  0  0  0  0  0  0
  148.5316  132.0393  152.6313 H   0  0  0  0  0  0  0  0  0  0  0  0
  147.8485  134.8853  152.7138 H   0  0  0  0  0  0  0  0  0  0  0  0
  146.7953  133.5047  152.9931 H   0  0  0  0  0  0  0  0  0  0  0  0
  146.8565  134.5285  155.2376 H   0  0  0  0  0  0  0  0  0  0  0  0
  147.5200  132.0108  155.0445 H   0  0  0  0  0  0  0  0  0  0  0  0
  148.4327  132.7649  156.3713 H   0  0  0  0  0  0  0  0  0  0  0  0
  147.0220  136.6674  154.2749 H   0  0  0  0  0  0  0  0  0  0  0  0
  147.6307  137.2958  155.7933 H   0  0  0  0  0  0  0  0  0  0  0  0
  147.0749  139.1332  154.1964 H   0  0  0  0  0  0  0  0  0  0  0  0
  148.1434  138.4621  153.0018 H   0  0  0  0  0  0  0  0  0  0  0  0
  149.2207  136.2200  153.5940 H   0  0  0  0  0  0  0  0  0  0  0  0
  1  2  2  0  0  0  0
  2  3  1  0  0  0  0
  2 12  1  0  0  0  0
  3  4  1  0  0  0  0
  3 25  1  0  0  0  0
  4  5  1  0  0  0  0
  4 26  1  0  0  0  0
  4 27  1  0  0  0  0
  5  6  1  0  0  0  0
  5 28  1  0  0  0  0
  5 29  1  0  0  0  0
  6 11  1  0  0  0  0
  6  7  2  0  0  0  0
  7  8  1  0  0  0  0
  7 30  1  0  0  0  0
  8  9  2  0  0  0  0
  8 31  1  0  0  0  0
  9 10  1  0  0  0  0
  9 32  1  0  0  0  0
 10 11  2  0  0  0  0
 10 33  1  0  0  0  0
 12 24  1  0  0  0  0
 12 13  1  0  0  0  0
 13 14  1  0  0  0  0
 13 34  1  0  0  0  0
 13 35  1  0  0  0  0
 14 15  1  0  0  0  0
 14 36  1  0  0  0  0
 14 37  1  0  0  0  0
 15 16  1  0  0  0  0
 15 23  1  0  0  0  0
 15 53  1  0  0  0  0
 16 21  1  0  0  0  0
 16 17  1  0  0  0  0
 16 38  1  0  0  0  0
 17 18  1  0  0  0  0
 17 39  1  0  0  0  0
 17 40  1  0  0  0  0
 18 22  1  0  0  0  0
 18 19  1  0  0  0  0
 18 41  1  0  0  0  0
 19 20  1  0  0  0  0
 19 42  1  0  0  0  0
 19 43  1  0  0  0  0
 20 21  1  0  0  0  0
 20 44  1  0  0  0  0
 20 45  1  0  0  0  0
 21 22  1  0  0  0  0
 21 46  1  0  0  0  0
 22 47  1  0  0  0  0
 22 48  1  0  0  0  0
 23 24  1  0  0  0  0
 23 49  1  0  0  0  0
 23 50  1  0  0  0  0
 24 51  1  0  0  0  0
 24 52  1  0  0  0  0
M  CHG  1  15   1
M  END
> <s_m_source_file>
AV-unprocessed.smi

> <i_m_source_file_index>
907

> <i_lp_mmshare_version>
43012

> <i_f3d_flags>
0

> <s_epik_input>
W0NIMl0xW0NIMl1bQ0BASF0oW0NIMl0yKVtDQEBIXShbQ0gyXVtDQEhdMTIpTihbQ0gyXVtDSDJdMylbQ0gyXVtDSDJdTjNDKD1PKVtOSF1bQ0gyXVtDSDJdYzRbY0hdW2NIXVtjSF1bY0hdbjQ=

> <s_epik_cmdline>
J2VwaWtfcHl0aG9uJywgJy1waCcsICc3LjAnLCAnLXRuJywgJzgnLCAnLW1hJywgJzIwMCcsICctbWV0YWxfYmluZGluZycsICctaW1hZScsICc8aW5maWxlLm1hZT4nLCAnLW9tYWUnLCAnPG91dGZpbGUubWFlPic=

> <r_epik_Ionization_Penalty>
0.0419258

> <r_epik_Ionization_Penalty_Charging>
0.00262064

> <r_epik_Ionization_Penalty_Neutral>
0.0393052

> <r_epik_State_Penalty>
0.0329887

> <r_epik_Charging_Adjusted_Penalty>
0.0356093

> <i_epik_Tot_Q>
1

> <i_epik_Tot_abs_Q>
1

> <r_epik_Metal_State_Penalty>
0.0309172

> <b_epik_Metal_Only>
0

> <s_lp_Force_Field>
OPLS_2005

> <r_lp_Energy>
94.5265

> <b_lp_Chiralities_Consistent>
1

> <s_lp_Variant>
AV-unprocessed.smi:907-1

> <Gold.Version>
5.8.1

> <Gold.Id.Protein>
6NUR|6NUR_protein|mol2

> <Gold.PLP.Fitness>
47.7831

> <Gold.PLP.PLP>
-42.1990

> <Gold.PLP.part.hbond>
-1.0000

> <Gold.PLP.part.metal>
0.0000

> <Gold.PLP.part.buried>
-4.4051

> <Gold.PLP.part.nonpolar>
-37.2895

> <Gold.PLP.part.repulsive>
0.1192

> <Gold.PLP.ligand.clash>
0.0000

> <Gold.PLP.ligand.torsion>
0.2616

> <Gold.PLP.Chemscore.Hbond>
2.0000

> <Gold.PLP.Chemscore.CHOScore>
0.0000

> <Gold.PLP.Chemscore.Metal>
0.0000

> <Gold.Chemscore.Hbonds>
donor molecule, donor type, donor heavy atom, donor atom, acceptor molecule, acceptor atom, score
      L1  H    15    53       P1  7948  2.00

> <Gold.PLP.Chemscore.Internal.Correction>
0.1074

> <Gold.Rescore>
     Score         DG    S(hbond)    S(metal)    S(lipo)     H(rot)  DE(clash)    DE(int)     intcor
     19.31     -19.64       0.98        0.00     122.94       1.37       0.08       0.24       ----

> <Gold.Chemscore.Fitness>
19.3125

> <Gold.Chemscore.DG>
-19.6351

> <Gold.Chemscore.ZeroCoef>
-5.4800

> <Gold.Chemscore.Hbond>
0.9841

> <Gold.Chemscore.Metal>
0.0000

> <Gold.Chemscore.Lipo>
122.9352

> <Gold.Chemscore.Internal_Hbond>
0.0000

> <Gold.Chemscore.DEClash>
0.0822

> <Gold.Chemscore.DEInternal>
0.2404

> <Gold.Chemscore.Rot>
1.3731

> <Gold.Chemscore.Internal.Correction>
   9.000000E+99

> <Gold.Chemscore.Hbonds>
donor molecule, donor type, donor heavy atom, donor atom, acceptor molecule, acceptor atom, score
      L1  H    15    53       P1  7948  0.91

> <Gold.Chemscore.Hbond.Weighted>
-3.2868

> <Gold.Chemscore.Metal.Weighted>
-0.0000

> <Gold.Chemscore.Lipo.Weighted>
-14.3834

> <Gold.Chemscore.Internal_Hbond.Weighted>
0.0000

> <Gold.Chemscore.DEClash.Weighted>
0.0822

> <Gold.Chemscore.DEInternal.Weighted>
0.2404

> <Gold.Chemscore.Rot.Weighted>
3.5152

> <Gold.Chemscore.Internal.Correction.Weighted>
   9.000000E+99

> <Gold.Protein.RotatedTorsions>
[ 6907 6896 6895 6894 ] final -178.62 input  -60.11 | X-H torsion
[ 7974 7965 7964 7962 ] final  -37.01 input  175.53 | X-H torsion
[ 8008 7997 7996 7995 ] final  -10.77 input   59.86 | X-H torsion
[ 10167 10162 10161 10158 ] final -102.60 input  -65.29 | X-H torsion
[ 10718 10713 10712 10709 ] final  103.01 input   66.30 | X-H torsion
[ 10763 10752 10751 10750 ] final -155.26 input  -60.55 | X-H torsion
[ 11005 11000 10999 10996 ] final   81.60 input  -57.11 | X-H torsion

> <Gold.Protein.ActiveResidues>
 VAL166  LYS551  ARG553  GLY616  TRP617  ASP618  TYR619  PRO620  LYS621  CYS622 
 ASP623  PHE694  ASN695  SER759  ASP760  ASP761  ALA762  ILE779  LEU786  VAL792 
 PHE793  MET794  SER795  GLU796  ALA797  LYS798  CYS799  TRP800  GLU811  SER814 

> <Gold.Protein.RotatedAtoms>
  151.6401  133.3326  159.3128 H   0  0  0  0  0  0  0  0  0  0  0  0  # atno 6907 bound_to 6896
  150.8012  134.7111  159.6613 H   0  0  0  0  0  0  0  0  0  0  0  0  # atno 6908 bound_to 6896
  152.4104  134.6138  160.0084 H   0  0  0  0  0  0  0  0  0  0  0  0  # atno 6909 bound_to 6896
  146.0612  140.6345  142.8996 H   0  0  0  0  0  0  0  0  0  0  0  0  # atno 7974 bound_to 7965
  154.5524  140.2320  155.8463 H   0  0  0  0  0  0  0  0  0  0  0  0  # atno 8008 bound_to 7997
  156.1959  140.3065  155.9386 H   0  0  0  0  0  0  0  0  0  0  0  0  # atno 8009 bound_to 7997
  155.3045  140.0432  157.3022 H   0  0  0  0  0  0  0  0  0  0  0  0  # atno 8010 bound_to 7997
  140.2289  143.3621  152.0904 H   0  0  0  0  0  0  0  0  0  0  0  0  # atno 10167 bound_to 10162
  157.6785  131.0768  150.5490 H   0  0  0  0  0  0  0  0  0  0  0  0  # atno 10718 bound_to 10713
  154.7800  135.3171  154.8010 H   0  0  0  0  0  0  0  0  0  0  0  0  # atno 10763 bound_to 10752
  153.8724  135.6843  153.4777 H   0  0  0  0  0  0  0  0  0  0  0  0  # atno 10764 bound_to 10752
  153.1433  135.4730  154.9466 H   0  0  0  0  0  0  0  0  0  0  0  0  # atno 10765 bound_to 10752
  139.9092  134.8009  156.2063 H   0  0  0  0  0  0  0  0  0  0  0  0  # atno 11005 bound_to 11000
  144.7176  140.4264  143.7032 LP  0  0  0  0  0  0  0  0  0  0  0  0  # atno 17320 bound_to 7965
  145.6556  139.1572  143.2837 LP  0  0  0  0  0  0  0  0  0  0  0  0  # atno 17321 bound_to 7965
  139.5117  144.6905  151.5772 LP  0  0  0  0  0  0  0  0  0  0  0  0  # atno 17342 bound_to 10162
  140.6200  143.9276  150.6518 LP  0  0  0  0  0  0  0  0  0  0  0  0  # atno 17343 bound_to 10162
  156.5795  130.4300  149.5983 LP  0  0  0  0  0  0  0  0  0  0  0  0  # atno 17370 bound_to 10713
  156.2673  130.6997  151.1784 LP  0  0  0  0  0  0  0  0  0  0  0  0  # atno 17371 bound_to 10713
  141.0493  133.6897  156.1742 LP  0  0  0  0  0  0  0  0  0  0  0  0  # atno 17394 bound_to 11000
  140.6835  134.4742  157.5589 LP  0  0  0  0  0  0  0  0  0  0  0  0  # atno 17395 bound_to 11000

$$$$
