AV-unprocessed.smi:2077|AV-procd|sdf|8462|dock2
  -GOLD-   2272011163D 1   1.00000     0.00000
 Structure written by MMmdl.
 38 40  0  0  0  0  0  0  0  0  1 V2000
  154.9052  139.2111  160.6228 C   0  0  0  0  0  0  0  0  0  0  0  0
  154.1856  140.4783  160.8517 N   0  0  0  0  0  0  0  0  0  0  0  0
  153.4591  141.0063  159.8168 C   0  0  0  0  0  0  0  0  0  0  0  0
  153.3484  140.4987  158.6998 O   0  0  0  0  0  0  0  0  0  0  0  0
  152.7951  142.2706  160.1445 C   0  0  0  0  0  0  0  0  0  0  0  0
  152.8790  142.8553  161.3632 C   0  0  0  0  0  0  0  0  0  0  0  0
  152.1568  144.0429  161.4057 N   0  0  0  0  0  0  0  0  0  0  0  0
  151.6606  144.1108  160.1691 C   0  0  0  0  0  0  0  0  0  0  0  0
  151.9941  143.0905  159.3524 N   0  0  0  0  0  0  0  0  0  0  0  0
  151.5918  142.9207  157.9652 C   0  0  0  0  0  0  0  0  0  0  0  0
  150.2296  142.2133  157.8280 C   0  0  1  0  0  0  0  0  0  0  0  0
  149.1918  143.1750  157.8216 O   0  0  0  0  0  0  0  0  0  0  0  0
  150.1964  141.3156  156.6014 C   0  0  0  0  0  0  0  0  0  0  0  0
  149.1717  141.4447  155.6377 C   0  0  0  0  0  0  0  0  0  0  0  0
  149.1595  140.6144  154.4998 C   0  0  0  0  0  0  0  0  0  0  0  0
  150.1723  139.6533  154.3175 C   0  0  0  0  0  0  0  0  0  0  0  0
  151.1986  139.5237  155.2728 C   0  0  0  0  0  0  0  0  0  0  0  0
  152.1755  138.6030  155.0963 F   0  0  0  0  0  0  0  0  0  0  0  0
  151.2109  140.3530  156.4109 C   0  0  0  0  0  0  0  0  0  0  0  0
  153.6460  142.2181  162.3700 N   0  0  0  0  0  0  0  0  0  0  0  0
  153.7113  142.8761  163.6783 C   0  0  0  0  0  0  0  0  0  0  0  0
  154.3031  141.0385  162.1131 C   0  0  0  0  0  0  0  0  0  0  0  0
  154.9820  140.4925  162.9870 O   0  0  0  0  0  0  0  0  0  0  0  0
  154.8126  138.8056  159.6147 H   0  0  0  0  0  0  0  0  0  0  0  0
  154.5408  138.4395  161.3028 H   0  0  0  0  0  0  0  0  0  0  0  0
  155.9733  139.3415  160.8044 H   0  0  0  0  0  0  0  0  0  0  0  0
  151.0326  144.9286  159.8465 H   0  0  0  0  0  0  0  0  0  0  0  0
  151.5611  143.9009  157.4868 H   0  0  0  0  0  0  0  0  0  0  0  0
  152.3699  142.3574  157.4496 H   0  0  0  0  0  0  0  0  0  0  0  0
  150.0632  141.5883  158.7063 H   0  0  0  0  0  0  0  0  0  0  0  0
  149.2049  143.6239  156.9900 H   0  0  0  0  0  0  0  0  0  0  0  0
  148.3933  142.1829  155.7658 H   0  0  0  0  0  0  0  0  0  0  0  0
  148.3741  140.7166  153.7655 H   0  0  0  0  0  0  0  0  0  0  0  0
  150.1635  139.0176  153.4444 H   0  0  0  0  0  0  0  0  0  0  0  0
  152.0049  140.2491  157.1363 H   0  0  0  0  0  0  0  0  0  0  0  0
  154.2548  142.3145  164.4386 H   0  0  0  0  0  0  0  0  0  0  0  0
  152.7041  143.0421  164.0619 H   0  0  0  0  0  0  0  0  0  0  0  0
  154.1962  143.8479  163.5805 H   0  0  0  0  0  0  0  0  0  0  0  0
  1  2  1  0  0  0  0
  1 24  1  0  0  0  0
  1 25  1  0  0  0  0
  1 26  1  0  0  0  0
  2 22  1  0  0  0  0
  2  3  1  0  0  0  0
  3  4  2  0  0  0  0
  3  5  1  0  0  0  0
  5  9  1  0  0  0  0
  5  6  2  0  0  0  0
  6  7  1  0  0  0  0
  6 20  1  0  0  0  0
  7  8  2  0  0  0  0
  8  9  1  0  0  0  0
  8 27  1  0  0  0  0
  9 10  1  0  0  0  0
 10 11  1  0  0  0  0
 10 28  1  0  0  0  0
 10 29  1  0  0  0  0
 11 12  1  0  0  0  0
 11 13  1  0  0  0  0
 11 30  1  0  0  0  0
 12 31  1  0  0  0  0
 13 19  1  0  0  0  0
 13 14  2  0  0  0  0
 14 15  1  0  0  0  0
 14 32  1  0  0  0  0
 15 16  2  0  0  0  0
 15 33  1  0  0  0  0
 16 17  1  0  0  0  0
 16 34  1  0  0  0  0
 17 18  1  0  0  0  0
 17 19  2  0  0  0  0
 19 35  1  0  0  0  0
 20 21  1  0  0  0  0
 20 22  1  0  0  0  0
 21 36  1  0  0  0  0
 21 37  1  0  0  0  0
 21 38  1  0  0  0  0
 22 23  2  0  0  0  0
M  END
> <s_m_source_file>
AV-unprocessed.smi

> <i_m_source_file_index>
2077

> <i_lp_mmshare_version>
43012

> <i_f3d_flags>
0

> <s_epik_input>
Tz1jMW4oW0NIM10pYyg9TyluKFtDSDNdKWMoYzEyKW5bY0hdbjJbQ0gyXVtDQEhdKFtPSF0pYzNbY0hdW2NIXVtjSF1jKEYpW2NIXTM=

> <s_epik_cmdline>
J2VwaWtfcHl0aG9uJywgJy1waCcsICc3LjAnLCAnLXRuJywgJzgnLCAnLW1hJywgJzIwMCcsICctbWV0YWxfYmluZGluZycsICctaW1hZScsICc8aW5maWxlLm1hZT4nLCAnLW9tYWUnLCAnPG91dGZpbGUubWFlPic=

> <r_lp_tautomer_probability>
1

> <r_epik_Ionization_Penalty>
1.5338e-06

> <r_epik_Ionization_Penalty_Charging>
3.74189e-09

> <r_epik_Ionization_Penalty_Neutral>
1.53006e-06

> <r_epik_State_Penalty>
-0

> <r_epik_Charging_Adjusted_Penalty>
3.74189e-09

> <i_epik_Tot_Q>
0

> <i_epik_Tot_abs_Q>
0

> <r_epik_Metal_State_Penalty>
-0

> <b_epik_Metal_Only>
0

> <s_lp_Force_Field>
OPLS_2005

> <r_lp_Energy>
35.2463

> <b_lp_Chiralities_Consistent>
1

> <s_lp_Variant>
AV-unprocessed.smi:2077-2

> <Gold.Version>
5.8.1

> <Gold.Id.Protein>
6NUR|6NUR_protein|mol2

> <Gold.PLP.Fitness>
58.7868

> <Gold.PLP.PLP>
-55.5367

> <Gold.PLP.part.hbond>
-3.2963

> <Gold.PLP.part.metal>
0.0000

> <Gold.PLP.part.buried>
-1.3628

> <Gold.PLP.part.nonpolar>
-50.1005

> <Gold.PLP.part.repulsive>
0.1555

> <Gold.PLP.ligand.clash>
0.0000

> <Gold.PLP.ligand.torsion>
0.8415

> <Gold.PLP.Chemscore.Hbond>
1.6365

> <Gold.PLP.Chemscore.CHOScore>
0.0000

> <Gold.PLP.Chemscore.Metal>
0.0000

> <Gold.Chemscore.Hbonds>
donor molecule, donor type, donor heavy atom, donor atom, acceptor molecule, acceptor atom, score
      L1  H    12    31       P1  8028  1.00
      P1  H  7997  8009       L1     4  0.64

> <Gold.PLP.Chemscore.Internal.Correction>
0.0236

> <Gold.Rescore>
     Score         DG    S(hbond)    S(metal)    S(lipo)     H(rot)  DE(clash)    DE(int)     intcor
     14.60     -15.47       1.82        0.00      82.32       2.24       0.04       0.82       ----

> <Gold.Chemscore.Fitness>
14.5995

> <Gold.Chemscore.DG>
-15.4661

> <Gold.Chemscore.ZeroCoef>
-5.4800

> <Gold.Chemscore.Hbond>
1.8213

> <Gold.Chemscore.Metal>
0.0000

> <Gold.Chemscore.Lipo>
82.3204

> <Gold.Chemscore.Internal_Hbond>
0.0000

> <Gold.Chemscore.DEClash>
0.0449

> <Gold.Chemscore.DEInternal>
0.8217

> <Gold.Chemscore.Rot>
2.2377

> <Gold.Chemscore.Internal.Correction>
   9.000000E+99

> <Gold.Chemscore.Hbonds>
donor molecule, donor type, donor heavy atom, donor atom, acceptor molecule, acceptor atom, score
      L1  H    12    31       P1  8028  0.74
      P1  H  7997  8009       L1     4  0.63

> <Gold.Chemscore.Hbond.Weighted>
-6.0832

> <Gold.Chemscore.Metal.Weighted>
-0.0000

> <Gold.Chemscore.Lipo.Weighted>
-9.6315

> <Gold.Chemscore.Internal_Hbond.Weighted>
0.0000

> <Gold.Chemscore.DEClash.Weighted>
0.0449

> <Gold.Chemscore.DEInternal.Weighted>
0.8217

> <Gold.Chemscore.Rot.Weighted>
5.7286

> <Gold.Chemscore.Internal.Correction.Weighted>
   9.000000E+99

> <Gold.Protein.RotatedTorsions>
[ 6907 6896 6895 6894 ] final -169.76 input  -60.11 | X-H torsion
[ 7974 7965 7964 7962 ] final  -39.77 input  175.53 | X-H torsion
[ 8008 7997 7996 7995 ] final  147.63 input   59.86 | X-H torsion
[ 10167 10162 10161 10158 ] final -118.54 input  -65.29 | X-H torsion
[ 10718 10713 10712 10709 ] final -117.77 input   66.30 | X-H torsion
[ 10763 10752 10751 10750 ] final   62.02 input  -60.55 | X-H torsion
[ 11005 11000 10999 10996 ] final   39.16 input  -57.11 | X-H torsion

> <Gold.Protein.ActiveResidues>
 VAL166  LYS551  ARG553  GLY616  TRP617  ASP618  TYR619  PRO620  LYS621  CYS622 
 ASP623  PHE694  ASN695  SER759  ASP760  ASP761  ALA762  ILE779  LEU786  VAL792 
 PHE793  MET794  SER795  GLU796  ALA797  LYS798  CYS799  TRP800  GLU811  SER814 

> <Gold.Protein.RotatedAtoms>
  151.4968  133.3513  159.2862 H   0  0  0  0  0  0  0  0  0  0  0  0  # atno 6907 bound_to 6896
  150.8799  134.8190  159.7228 H   0  0  0  0  0  0  0  0  0  0  0  0  # atno 6908 bound_to 6896
  152.4755  134.4864  159.9733 H   0  0  0  0  0  0  0  0  0  0  0  0  # atno 6909 bound_to 6896
  146.0366  140.6664  142.9107 H   0  0  0  0  0  0  0  0  0  0  0  0  # atno 7974 bound_to 7965
  156.2818  140.2150  156.5568 H   0  0  0  0  0  0  0  0  0  0  0  0  # atno 8008 bound_to 7997
  154.7246  140.0500  157.0693 H   0  0  0  0  0  0  0  0  0  0  0  0  # atno 8009 bound_to 7997
  155.0434  140.3148  155.4720 H   0  0  0  0  0  0  0  0  0  0  0  0  # atno 8010 bound_to 7997
  140.0564  143.5010  152.2055 H   0  0  0  0  0  0  0  0  0  0  0  0  # atno 10167 bound_to 10162
  156.1058  130.6209  150.9206 H   0  0  0  0  0  0  0  0  0  0  0  0  # atno 10718 bound_to 10713
  152.9969  135.5480  154.6127 H   0  0  0  0  0  0  0  0  0  0  0  0  # atno 10763 bound_to 10752
  154.5444  135.2822  155.1068 H   0  0  0  0  0  0  0  0  0  0  0  0  # atno 10764 bound_to 10752
  154.2333  135.6429  153.5235 H   0  0  0  0  0  0  0  0  0  0  0  0  # atno 10765 bound_to 10752
  140.2055  134.3818  155.8074 H   0  0  0  0  0  0  0  0  0  0  0  0  # atno 11005 bound_to 11000
  144.7054  140.3831  143.7122 LP  0  0  0  0  0  0  0  0  0  0  0  0  # atno 17320 bound_to 7965
  145.6954  139.1649  143.2623 LP  0  0  0  0  0  0  0  0  0  0  0  0  # atno 17321 bound_to 7965
  139.5921  144.7554  151.3376 LP  0  0  0  0  0  0  0  0  0  0  0  0  # atno 17342 bound_to 10162
  140.7192  143.7181  150.7717 LP  0  0  0  0  0  0  0  0  0  0  0  0  # atno 17343 bound_to 10162
  157.6234  131.0928  150.8579 LP  0  0  0  0  0  0  0  0  0  0  0  0  # atno 17370 bound_to 10713
  156.8699  130.5142  149.5297 LP  0  0  0  0  0  0  0  0  0  0  0  0  # atno 17371 bound_to 10713
  141.2227  133.7116  156.8330 LP  0  0  0  0  0  0  0  0  0  0  0  0  # atno 17394 bound_to 11000
  140.2007  134.8899  157.3166 LP  0  0  0  0  0  0  0  0  0  0  0  0  # atno 17395 bound_to 11000

$$$$
