AV-unprocessed.smi:110|AV-procd|sdf|1071|dock3
  -GOLD-   2262018153D 1   1.00000     0.00000
 Structure written by MMmdl.
 46 50  0  0  0  0  0  0  0  0  1 V2000
  145.0976  141.7181  156.3263 O   0  0  0  0  0  0  0  0  0  0  0  0
  146.4243  142.0308  155.9598 C   0  0  0  0  0  0  0  0  0  0  0  0
  146.5893  141.9025  154.4266 C   0  0  1  0  0  0  0  0  0  0  0  0
  147.8922  142.3178  154.0285 O   0  0  0  0  0  0  0  0  0  0  0  0
  148.8072  141.2622  154.0968 C   0  0  1  0  0  0  0  0  0  0  0  0
  149.6277  141.4118  155.3489 N   0  0  0  0  0  0  0  0  0  0  0  0
  149.3808  142.2076  156.4487 C   0  0  0  0  0  0  0  0  0  0  0  0
  150.2527  142.1178  157.4147 N   0  0  0  0  0  0  0  0  0  0  0  0
  151.1535  141.1570  156.9746 C   0  0  0  0  0  0  0  0  0  0  0  0
  152.3254  140.5622  157.5242 C   0  0  0  0  0  0  0  0  0  0  0  0
  152.8598  140.8840  158.7251 N   0  0  0  0  0  0  0  0  0  0  0  0
  153.5706  139.8557  159.4981 C   0  0  0  0  0  0  0  0  0  0  0  0
  153.6743  140.3562  160.9513 C   0  0  0  0  0  0  0  0  0  0  0  0
  153.0742  141.7198  160.8280 C   0  0  0  0  0  0  0  0  0  0  0  0
  152.9540  142.6921  161.8360 C   0  0  0  0  0  0  0  0  0  0  0  0
  152.3737  143.9331  161.4972 C   0  0  0  0  0  0  0  0  0  0  0  0
  151.9397  144.1817  160.1744 C   0  0  0  0  0  0  0  0  0  0  0  0
  152.0726  143.1905  159.1773 C   0  0  0  0  0  0  0  0  0  0  0  0
  152.6326  141.9447  159.5280 C   0  0  0  0  0  0  0  0  0  0  0  0
  152.9173  139.5671  156.8166 N   0  0  0  0  0  0  0  0  0  0  0  0
  152.4233  139.2024  155.6310 C   0  0  0  0  0  0  0  0  0  0  0  0
  151.3612  139.6873  154.9867 N   0  0  0  0  0  0  0  0  0  0  0  0
  150.7452  140.6761  155.6980 C   0  0  0  0  0  0  0  0  0  0  0  0
  147.9744  139.9616  154.1101 C   0  0  2  0  0  0  0  0  0  0  0  0
  148.3522  139.0857  153.0676 O   0  0  0  0  0  0  0  0  0  0  0  0
  146.5586  140.4729  153.8707 C   0  0  1  0  0  0  0  0  0  0  0  0
  145.5906  139.6549  154.4987 O   0  0  0  0  0  0  0  0  0  0  0  0
  145.8331  142.5106  153.9283 H   0  0  0  0  0  0  0  0  0  0  0  0
  149.5364  141.3289  153.2884 H   0  0  0  0  0  0  0  0  0  0  0  0
  148.0363  139.4648  155.0784 H   0  0  0  0  0  0  0  0  0  0  0  0
  146.3483  140.5211  152.8007 H   0  0  0  0  0  0  0  0  0  0  0  0
  144.9772  140.7837  156.2516 H   0  0  0  0  0  0  0  0  0  0  0  0
  146.6959  143.0160  156.3349 H   0  0  0  0  0  0  0  0  0  0  0  0
  147.0631  141.3138  156.4746 H   0  0  0  0  0  0  0  0  0  0  0  0
  148.5303  142.8694  156.5198 H   0  0  0  0  0  0  0  0  0  0  0  0
  153.0421  138.9026  159.4502 H   0  0  0  0  0  0  0  0  0  0  0  0
  154.5643  139.7081  159.0734 H   0  0  0  0  0  0  0  0  0  0  0  0
  153.0897  139.7432  161.6378 H   0  0  0  0  0  0  0  0  0  0  0  0
  154.7063  140.4080  161.2988 H   0  0  0  0  0  0  0  0  0  0  0  0
  153.3008  142.4973  162.8398 H   0  0  0  0  0  0  0  0  0  0  0  0
  152.2685  144.7002  162.2501 H   0  0  0  0  0  0  0  0  0  0  0  0
  151.5074  145.1390  159.9231 H   0  0  0  0  0  0  0  0  0  0  0  0
  151.7533  143.3932  158.1659 H   0  0  0  0  0  0  0  0  0  0  0  0
  152.9556  138.4107  155.1250 H   0  0  0  0  0  0  0  0  0  0  0  0
  148.8216  139.5810  152.4139 H   0  0  0  0  0  0  0  0  0  0  0  0
  144.7908  139.7025  153.9972 H   0  0  0  0  0  0  0  0  0  0  0  0
  1  2  1  0  0  0  0
  1 32  1  0  0  0  0
  2  3  1  0  0  0  0
  2 33  1  0  0  0  0
  2 34  1  0  0  0  0
  3 28  1  0  0  0  0
  3 26  1  0  0  0  0
  3  4  1  0  0  0  0
  4  5  1  0  0  0  0
  5 29  1  0  0  0  0
  5  6  1  0  0  0  0
  5 24  1  0  0  0  0
  6 23  1  0  0  0  0
  6  7  1  0  0  0  0
  7  8  2  0  0  0  0
  7 35  1  0  0  0  0
  8  9  1  0  0  0  0
  9 23  2  0  0  0  0
  9 10  1  0  0  0  0
 10 11  1  0  0  0  0
 10 20  2  0  0  0  0
 11 19  1  0  0  0  0
 11 12  1  0  0  0  0
 12 13  1  0  0  0  0
 12 36  1  0  0  0  0
 12 37  1  0  0  0  0
 13 14  1  0  0  0  0
 13 38  1  0  0  0  0
 13 39  1  0  0  0  0
 14 19  2  0  0  0  0
 14 15  1  0  0  0  0
 15 16  2  0  0  0  0
 15 40  1  0  0  0  0
 16 17  1  0  0  0  0
 16 41  1  0  0  0  0
 17 18  2  0  0  0  0
 17 42  1  0  0  0  0
 18 19  1  0  0  0  0
 18 43  1  0  0  0  0
 20 21  1  0  0  0  0
 21 22  2  0  0  0  0
 21 44  1  0  0  0  0
 22 23  1  0  0  0  0
 24 30  1  0  0  0  0
 24 25  1  0  0  0  0
 24 26  1  0  0  0  0
 25 45  1  0  0  0  0
 26 31  1  0  0  0  0
 26 27  1  0  0  0  0
 27 46  1  0  0  0  0
M  END
> <s_m_source_file>
AV-unprocessed.smi

> <i_m_source_file_index>
110

> <i_lp_mmshare_version>
43012

> <i_f3d_flags>
0

> <s_epik_input>
W09IXVtDSDJdW0NASF0xT1tDQEhdKFtDQEhdKFtPSF0pW0NAQEhdMVtPSF0pbihbY0hdbjIpYyhjMjMpbltjSF1uYzNOKFtDSDJdW0NIMl00KWMoYzQ1KVtjSF1bY0hdW2NIXVtjSF01

> <s_epik_cmdline>
J2VwaWtfcHl0aG9uJywgJy1waCcsICc3LjAnLCAnLXRuJywgJzgnLCAnLW1hJywgJzIwMCcsICctbWV0YWxfYmluZGluZycsICctaW1hZScsICc8aW5maWxlLm1hZT4nLCAnLW9tYWUnLCAnPG91dGZpbGUubWFlPic=

> <r_lp_tautomer_probability>
1

> <r_epik_Ionization_Penalty>
0.00068475

> <r_epik_Ionization_Penalty_Charging>
0

> <r_epik_Ionization_Penalty_Neutral>
0.00068475

> <r_epik_State_Penalty>
0.000417442

> <r_epik_Charging_Adjusted_Penalty>
0.000417442

> <i_epik_Tot_Q>
0

> <i_epik_Tot_abs_Q>
0

> <r_epik_Metal_State_Penalty>
-0

> <b_epik_Metal_Only>
0

> <s_epik_Chemistry_Notes>
This compound contains an acetal/aminal-like group ( X-CH(R)-Y where X, Y are N, S, or O) that may be acid/base labile, releasing an aldehyde.

> <s_lp_Force_Field>
OPLS_2005

> <r_lp_Energy>
59.87

> <b_lp_Chiralities_Consistent>
1

> <s_lp_Variant>
AV-unprocessed.smi:110-9

> <Gold.Version>
5.8.1

> <Gold.Id.Protein>
6NUR|6NUR_protein|mol2

> <Gold.PLP.Fitness>
63.6968

> <Gold.PLP.PLP>
-51.9079

> <Gold.PLP.part.hbond>
-5.4407

> <Gold.PLP.part.metal>
0.0000

> <Gold.PLP.part.buried>
-0.8177

> <Gold.PLP.part.nonpolar>
-46.4064

> <Gold.PLP.part.repulsive>
0.8823

> <Gold.PLP.ligand.clash>
0.0000

> <Gold.PLP.ligand.torsion>
0.5787

> <Gold.PLP.Chemscore.Hbond>
3.6000

> <Gold.PLP.Chemscore.CHOScore>
0.6743

> <Gold.PLP.Chemscore.Metal>
0.0000

> <Gold.Chemscore.Hbonds>
donor molecule, donor type, donor heavy atom, donor atom, acceptor molecule, acceptor atom, score
      L1  H    25    45       P1  7957  1.00
      L1  H    27    46       P1 10175  0.99
      P1  H  7989  7998       L1    22  0.60
      P1  H  7997  8008       L1    20  1.00
      L1  C     7    35       P1  8028  0.67

> <Gold.PLP.Chemscore.Internal.Correction>
0.1236

> <Gold.Rescore>
     Score         DG    S(hbond)    S(metal)    S(lipo)     H(rot)  DE(clash)    DE(int)     intcor
     11.97     -16.57       2.07        0.00     109.88       3.38       1.61       3.00       ----

> <Gold.Chemscore.Fitness>
11.9654

> <Gold.Chemscore.DG>
-16.5740

> <Gold.Chemscore.ZeroCoef>
-5.4800

> <Gold.Chemscore.Hbond>
2.0659

> <Gold.Chemscore.Metal>
0.0000

> <Gold.Chemscore.Lipo>
109.8819

> <Gold.Chemscore.Internal_Hbond>
0.0000

> <Gold.Chemscore.DEClash>
1.6120

> <Gold.Chemscore.DEInternal>
2.9965

> <Gold.Chemscore.Rot>
3.3837

> <Gold.Chemscore.Internal.Correction>
   9.000000E+99

> <Gold.Chemscore.Hbonds>
donor molecule, donor type, donor heavy atom, donor atom, acceptor molecule, acceptor atom, score
      L1  H    25    45       P1  7957  0.94
      L1  H    27    46       P1 10175  0.89
      P1  H  7989  7998       L1    22  0.04
      P1  H  7997  8008       L1    20  0.14

> <Gold.Chemscore.Hbond.Weighted>
-6.8999

> <Gold.Chemscore.Metal.Weighted>
-0.0000

> <Gold.Chemscore.Lipo.Weighted>
-12.8562

> <Gold.Chemscore.Internal_Hbond.Weighted>
0.0000

> <Gold.Chemscore.DEClash.Weighted>
1.6120

> <Gold.Chemscore.DEInternal.Weighted>
2.9965

> <Gold.Chemscore.Rot.Weighted>
8.6622

> <Gold.Chemscore.Internal.Correction.Weighted>
   9.000000E+99

> <Gold.Protein.RotatedTorsions>
[ 6907 6896 6895 6894 ] final   -3.67 input  -60.11 | X-H torsion
[ 7974 7965 7964 7962 ] final   42.72 input  175.53 | X-H torsion
[ 8008 7997 7996 7995 ] final  -43.31 input   59.86 | X-H torsion
[ 10167 10162 10161 10158 ] final  -39.18 input  -65.29 | X-H torsion
[ 10718 10713 10712 10709 ] final  127.55 input   66.30 | X-H torsion
[ 10763 10752 10751 10750 ] final  -55.44 input  -60.55 | X-H torsion
[ 11005 11000 10999 10996 ] final   31.90 input  -57.11 | X-H torsion

> <Gold.Protein.ActiveResidues>
 VAL166  LYS551  ARG553  GLY616  TRP617  ASP618  TYR619  PRO620  LYS621  CYS622 
 ASP623  PHE694  ASN695  SER759  ASP760  ASP761  ALA762  ILE779  LEU786  VAL792 
 PHE793  MET794  SER795  GLU796  ALA797  LYS798  CYS799  TRP800  GLU811  SER814 

> <Gold.Protein.RotatedAtoms>
  151.5101  135.1064  159.9851 H   0  0  0  0  0  0  0  0  0  0  0  0  # atno 6907 bound_to 6896
  152.4665  133.7931  159.6923 H   0  0  0  0  0  0  0  0  0  0  0  0  # atno 6908 bound_to 6896
  150.8652  133.7522  159.3005 H   0  0  0  0  0  0  0  0  0  0  0  0  # atno 6909 bound_to 6896
  146.0716  139.5267  142.9594 H   0  0  0  0  0  0  0  0  0  0  0  0  # atno 7974 bound_to 7965
  154.3997  140.1451  156.3498 H   0  0  0  0  0  0  0  0  0  0  0  0  # atno 8008 bound_to 7997
  155.8279  140.3467  155.5533 H   0  0  0  0  0  0  0  0  0  0  0  0  # atno 8009 bound_to 7997
  155.8219  140.0899  157.1834 H   0  0  0  0  0  0  0  0  0  0  0  0  # atno 8010 bound_to 7997
  140.7071  143.3230  151.2746 H   0  0  0  0  0  0  0  0  0  0  0  0  # atno 10167 bound_to 10162
  157.5323  131.1098  150.8989 H   0  0  0  0  0  0  0  0  0  0  0  0  # atno 10718 bound_to 10713
  154.1908  135.6427  153.5059 H   0  0  0  0  0  0  0  0  0  0  0  0  # atno 10763 bound_to 10752
  153.0035  135.5428  154.6417 H   0  0  0  0  0  0  0  0  0  0  0  0  # atno 10764 bound_to 10752
  154.5805  135.2925  155.0710 H   0  0  0  0  0  0  0  0  0  0  0  0  # atno 10765 bound_to 10752
  140.2791  134.2994  155.7806 H   0  0  0  0  0  0  0  0  0  0  0  0  # atno 11005 bound_to 11000
  145.6381  141.0290  143.1826 LP  0  0  0  0  0  0  0  0  0  0  0  0  # atno 17320 bound_to 7965
  144.7235  139.7951  143.7373 LP  0  0  0  0  0  0  0  0  0  0  0  0  # atno 17321 bound_to 7965
  139.6690  144.0054  152.2741 LP  0  0  0  0  0  0  0  0  0  0  0  0  # atno 17342 bound_to 10162
  139.9646  144.6535  150.8046 LP  0  0  0  0  0  0  0  0  0  0  0  0  # atno 17343 bound_to 10162
  156.9567  130.5440  149.5284 LP  0  0  0  0  0  0  0  0  0  0  0  0  # atno 17370 bound_to 10713
  156.0432  130.5512  150.8820 LP  0  0  0  0  0  0  0  0  0  0  0  0  # atno 17371 bound_to 10713
  141.2165  133.7514  156.9452 LP  0  0  0  0  0  0  0  0  0  0  0  0  # atno 17394 bound_to 11000
  140.1301  134.9361  157.2324 LP  0  0  0  0  0  0  0  0  0  0  0  0  # atno 17395 bound_to 11000

$$$$
