AV-unprocessed.smi:72|AV-procd|sdf|687|dock9
  -GOLD-   2262017 03D 1   1.00000     0.00000
 Structure written by MMmdl.
 29 30  0  0  0  0  0  0  0  0  1 V2000
  153.0605  136.4863  159.4281 N   0  0  0  0  0  0  0  0  0  0  0  0
  152.5216  137.1201  158.4492 C   0  0  0  0  0  0  0  0  0  0  0  0
  151.1739  137.5033  158.3739 N   0  0  0  0  0  0  0  0  0  0  0  0
  150.7703  138.1471  157.3221 C   0  0  0  0  0  0  0  0  0  0  0  0
  151.6683  138.4870  156.2287 N   0  0  0  0  0  0  0  0  0  0  0  0
  151.1626  139.2466  155.0201 C   0  0  2  0  0  0  0  0  0  0  0  0
  150.4485  140.3568  155.4689 O   0  0  0  0  0  0  0  0  0  0  0  0
  149.3238  140.5639  154.6290 C   0  0  2  0  0  0  0  0  0  0  0  0
  148.2611  141.3653  155.3977 C   0  0  0  0  0  0  0  0  0  0  0  0
  147.7294  142.3915  154.5875 O   0  0  0  0  0  0  0  0  0  0  0  0
  148.9019  139.1445  154.2301 C   0  0  1  0  0  0  0  0  0  0  0  0
  148.2288  139.1549  152.9868 O   0  0  0  0  0  0  0  0  0  0  0  0
  150.2329  138.4102  154.1101 C   0  0  2  0  0  0  0  0  0  0  0  0
  150.0964  137.0528  154.4918 O   0  0  0  0  0  0  0  0  0  0  0  0
  153.0267  138.0903  156.2805 C   0  0  0  0  0  0  0  0  0  0  0  0
  153.8208  138.3224  155.3693 O   0  0  0  0  0  0  0  0  0  0  0  0
  153.3953  137.4264  157.3974 N   0  0  0  0  0  0  0  0  0  0  0  0
  152.0405  139.6144  154.4871 H   0  0  0  0  0  0  0  0  0  0  0  0
  149.6713  141.1217  153.7566 H   0  0  0  0  0  0  0  0  0  0  0  0
  148.2776  138.6989  155.0065 H   0  0  0  0  0  0  0  0  0  0  0  0
  150.6267  138.4676  153.0941 H   0  0  0  0  0  0  0  0  0  0  0  0
  154.0404  136.3281  159.2409 H   0  0  0  0  0  0  0  0  0  0  0  0
  149.7370  138.4697  157.1854 H   0  0  0  0  0  0  0  0  0  0  0  0
  147.4579  140.7168  155.7491 H   0  0  0  0  0  0  0  0  0  0  0  0
  148.7082  141.8283  156.2778 H   0  0  0  0  0  0  0  0  0  0  0  0
  148.1539  143.2048  154.8143 H   0  0  0  0  0  0  0  0  0  0  0  0
  148.8716  139.2212  152.2977 H   0  0  0  0  0  0  0  0  0  0  0  0
  149.8509  136.5506  153.7297 H   0  0  0  0  0  0  0  0  0  0  0  0
  154.3577  137.1299  157.4708 H   0  0  0  0  0  0  0  0  0  0  0  0
  1  2  2  0  0  0  0
  1 22  1  0  0  0  0
  2 17  1  0  0  0  0
  2  3  1  0  0  0  0
  3  4  2  0  0  0  0
  4  5  1  0  0  0  0
  4 23  1  0  0  0  0
  5  6  1  0  0  0  0
  5 15  1  0  0  0  0
  6 18  1  0  0  0  0
  6 13  1  0  0  0  0
  6  7  1  0  0  0  0
  7  8  1  0  0  0  0
  8 19  1  0  0  0  0
  8  9  1  0  0  0  0
  8 11  1  0  0  0  0
  9 10  1  0  0  0  0
  9 24  1  0  0  0  0
  9 25  1  0  0  0  0
 10 26  1  0  0  0  0
 11 20  1  0  0  0  0
 11 12  1  0  0  0  0
 11 13  1  0  0  0  0
 12 27  1  0  0  0  0
 13 21  1  0  0  0  0
 13 14  1  0  0  0  0
 14 28  1  0  0  0  0
 15 16  2  0  0  0  0
 15 17  1  0  0  0  0
 17 29  1  0  0  0  0
M  END
> <s_m_source_file>
AV-unprocessed.smi

> <i_m_source_file_index>
72

> <i_lp_mmshare_version>
43012

> <i_f3d_flags>
0

> <s_epik_input>
W05IMl1jMW5bY0hdbihjKD1PKW4xKVtDQEBIXTJPW0NASF0oW0NIMl1bT0hdKVtDQEBIXShbT0hdKVtDQEhdMltPSF0=

> <s_epik_cmdline>
J2VwaWtfcHl0aG9uJywgJy1waCcsICc3LjAnLCAnLXRuJywgJzgnLCAnLW1hJywgJzIwMCcsICctbWV0YWxfYmluZGluZycsICctaW1hZScsICc8aW5maWxlLm1hZT4nLCAnLW9tYWUnLCAnPG91dGZpbGUubWFlPic=

> <r_lp_tautomer_probability>
7.17554e-07

> <r_epik_Ionization_Penalty>
0.0066451

> <r_epik_Ionization_Penalty_Charging>
0.00663793

> <r_epik_Ionization_Penalty_Neutral>
7.17052e-06

> <r_epik_State_Penalty>
0.419231

> <r_epik_Charging_Adjusted_Penalty>
0.425868

> <i_epik_Tot_Q>
0

> <i_epik_Tot_abs_Q>
0

> <r_epik_Metal_State_Penalty>
1.44144

> <b_epik_Metal_Only>
0

> <s_epik_Chemistry_Notes>
This compound contains an acetal/aminal-like group ( X-CH(R)-Y where X, Y are N, S, or O) that may be acid/base labile, releasing an aldehyde.

> <s_lp_Force_Field>
OPLS_2005

> <r_lp_Energy>
41.3964

> <b_lp_Chiralities_Consistent>
1

> <s_lp_Variant>
AV-unprocessed.smi:72-25

> <Gold.Version>
5.8.1

> <Gold.Id.Protein>
6NUR|6NUR_protein|mol2

> <Gold.PLP.Fitness>
37.6546

> <Gold.PLP.PLP>
-25.3844

> <Gold.PLP.part.hbond>
-6.2122

> <Gold.PLP.part.metal>
0.0000

> <Gold.PLP.part.buried>
-4.0290

> <Gold.PLP.part.nonpolar>
-15.9180

> <Gold.PLP.part.repulsive>
0.2089

> <Gold.PLP.ligand.clash>
0.0000

> <Gold.PLP.ligand.torsion>
0.8866

> <Gold.PLP.Chemscore.Hbond>
4.6393

> <Gold.PLP.Chemscore.CHOScore>
0.0000

> <Gold.PLP.Chemscore.Metal>
0.0000

> <Gold.Chemscore.Hbonds>
donor molecule, donor type, donor heavy atom, donor atom, acceptor molecule, acceptor atom, score
      L1  H    10    26       P1  8028  1.00
      L1  H    12    27       P1  7957  1.00
      L1  H    14    28       P1  7948  0.93
      P1  H  6896  6908       L1     1  1.00
      P1  H  7997  8008       L1    16  0.62

> <Gold.PLP.Chemscore.Internal.Correction>
0.1254

> <Gold.Rescore>
     Score         DG    S(hbond)    S(metal)    S(lipo)     H(rot)  DE(clash)    DE(int)     intcor
     11.26     -13.24       4.50        0.00      26.76       4.06       0.02       1.96       ----

> <Gold.Chemscore.Fitness>
11.2587

> <Gold.Chemscore.DG>
-13.2366

> <Gold.Chemscore.ZeroCoef>
-5.4800

> <Gold.Chemscore.Hbond>
4.4970

> <Gold.Chemscore.Metal>
0.0000

> <Gold.Chemscore.Lipo>
26.7555

> <Gold.Chemscore.Internal_Hbond>
0.0000

> <Gold.Chemscore.DEClash>
0.0178

> <Gold.Chemscore.DEInternal>
1.9602

> <Gold.Chemscore.Rot>
4.0600

> <Gold.Chemscore.Internal.Correction>
   9.000000E+99

> <Gold.Chemscore.Hbonds>
donor molecule, donor type, donor heavy atom, donor atom, acceptor molecule, acceptor atom, score
      L1  H    10    26       P1  8028  0.96
      L1  H    12    27       P1  7957  0.93
      L1  H    14    28       P1  7948  0.30
      P1  H  6896  6908       L1     1  0.83
      P1  H  7997  8008       L1    16  0.23

> <Gold.Chemscore.Hbond.Weighted>
-15.0198

> <Gold.Chemscore.Metal.Weighted>
-0.0000

> <Gold.Chemscore.Lipo.Weighted>
-3.1304

> <Gold.Chemscore.Internal_Hbond.Weighted>
0.0000

> <Gold.Chemscore.DEClash.Weighted>
0.0178

> <Gold.Chemscore.DEInternal.Weighted>
1.9602

> <Gold.Chemscore.Rot.Weighted>
10.3936

> <Gold.Chemscore.Internal.Correction.Weighted>
   9.000000E+99

> <Gold.Protein.RotatedTorsions>
[ 6907 6896 6895 6894 ] final  -85.75 input  -60.11 | X-H torsion
[ 7974 7965 7964 7962 ] final   58.72 input  175.53 | X-H torsion
[ 8008 7997 7996 7995 ] final  -10.58 input   59.86 | X-H torsion
[ 10167 10162 10161 10158 ] final   -2.91 input  -65.29 | X-H torsion
[ 10718 10713 10712 10709 ] final   -4.68 input   66.30 | X-H torsion
[ 10763 10752 10751 10750 ] final -112.37 input  -60.55 | X-H torsion
[ 11005 11000 10999 10996 ] final  -51.93 input  -57.11 | X-H torsion

> <Gold.Protein.ActiveResidues>
 VAL166  LYS551  ARG553  GLY616  TRP617  ASP618  TYR619  PRO620  LYS621  CYS622 
 ASP623  PHE694  ASN695  SER759  ASP760  ASP761  ALA762  ILE779  LEU786  VAL792 
 PHE793  MET794  SER795  GLU796  ALA797  LYS798  CYS799  TRP800  GLU811  SER814 

> <Gold.Protein.RotatedAtoms>
  150.6869  134.3156  159.4764 H   0  0  0  0  0  0  0  0  0  0  0  0  # atno 6907 bound_to 6896
  152.1037  134.9321  160.0578 H   0  0  0  0  0  0  0  0  0  0  0  0  # atno 6908 bound_to 6896
  152.0590  133.4018  159.4446 H   0  0  0  0  0  0  0  0  0  0  0  0  # atno 6909 bound_to 6896
  145.9150  139.3684  143.0512 H   0  0  0  0  0  0  0  0  0  0  0  0  # atno 7974 bound_to 7965
  154.5542  140.2325  155.8437 H   0  0  0  0  0  0  0  0  0  0  0  0  # atno 8008 bound_to 7997
  156.1973  140.3061  155.9415 H   0  0  0  0  0  0  0  0  0  0  0  0  # atno 8009 bound_to 7997
  155.3012  140.0431  157.3020 H   0  0  0  0  0  0  0  0  0  0  0  0  # atno 8010 bound_to 7997
  140.6869  143.6602  150.8273 H   0  0  0  0  0  0  0  0  0  0  0  0  # atno 10167 bound_to 10162
  156.7577  130.5259  149.5791 H   0  0  0  0  0  0  0  0  0  0  0  0  # atno 10718 bound_to 10713
  154.8346  135.4493  154.1183 H   0  0  0  0  0  0  0  0  0  0  0  0  # atno 10763 bound_to 10752
  153.2426  135.6918  153.7772 H   0  0  0  0  0  0  0  0  0  0  0  0  # atno 10764 bound_to 10752
  153.7114  135.3356  155.3223 H   0  0  0  0  0  0  0  0  0  0  0  0  # atno 10765 bound_to 10752
  141.0897  133.6635  156.3949 H   0  0  0  0  0  0  0  0  0  0  0  0  # atno 11005 bound_to 11000
  145.8623  140.9468  143.0694 LP  0  0  0  0  0  0  0  0  0  0  0  0  # atno 17320 bound_to 7965
  144.6747  140.0546  143.7478 LP  0  0  0  0  0  0  0  0  0  0  0  0  # atno 17321 bound_to 7965
  140.0310  143.5443  152.2760 LP  0  0  0  0  0  0  0  0  0  0  0  0  # atno 17342 bound_to 10162
  139.6236  144.7633  151.2686 LP  0  0  0  0  0  0  0  0  0  0  0  0  # atno 17343 bound_to 10162
  156.1359  130.6211  151.0400 LP  0  0  0  0  0  0  0  0  0  0  0  0  # atno 17370 bound_to 10713
  157.6749  131.0853  150.7521 LP  0  0  0  0  0  0  0  0  0  0  0  0  # atno 17371 bound_to 10713
  140.5280  134.6240  157.5340 LP  0  0  0  0  0  0  0  0  0  0  0  0  # atno 17394 bound_to 11000
  139.9721  134.7275  156.0021 LP  0  0  0  0  0  0  0  0  0  0  0  0  # atno 17395 bound_to 11000

$$$$
