AV-unprocessed.smi:3290|AV-procd|sdf|12612|dock2
  -GOLD-   2272018543D 1   1.00000     0.00000
 Structure written by MMmdl.
 43 44  0  0  0  0  0  0  0  0  2 V2000
  152.2980  141.0599  159.1952 C   0  0  0  0  0  0  0  0  0  0  0  0
  151.1439  142.0826  159.2175 C   0  0  1  0  0  0  0  0  0  0  0  0
  151.3500  143.1479  160.3154 C   0  0  0  0  0  0  0  0  0  0  0  0
  152.4534  144.1564  159.9555 C   0  0  0  0  0  0  0  0  0  0  0  0
  152.1750  144.8208  158.5999 C   0  0  0  0  0  0  0  0  0  0  0  0
  151.9799  143.7746  157.4915 C   0  0  0  0  0  0  0  0  0  0  0  0
  150.8670  142.7655  157.8474 C   0  0  1  0  0  0  0  0  0  0  0  0
  150.6241  141.7776  156.6878 C   0  0  0  0  0  0  0  0  0  0  0  0
  149.5592  142.2491  155.7808 N   0  3  0  0  0  0  0  0  0  0  0  0
  149.3797  141.4156  154.5755 C   0  0  0  0  0  0  0  0  0  0  0  0
  147.9016  141.0463  154.3618 C   0  0  2  0  0  0  0  0  0  0  0  0
  147.8027  140.2075  153.2269 O   0  0  0  0  0  0  0  0  0  0  0  0
  147.0400  142.2908  154.2189 C   0  0  0  0  0  0  0  0  0  0  0  0
  147.1902  143.1396  153.1023 C   0  0  0  0  0  0  0  0  0  0  0  0
  146.3665  144.2793  153.0060 C   0  0  0  0  0  0  0  0  0  0  0  0
  145.4353  144.6010  153.9290 N   0  0  0  0  0  0  0  0  0  0  0  0
  145.2934  143.7841  154.9947 C   0  0  0  0  0  0  0  0  0  0  0  0
  146.0660  142.6211  155.1863 C   0  0  0  0  0  0  0  0  0  0  0  0
  153.2355  141.5041  158.8620 H   0  0  0  0  0  0  0  0  0  0  0  0
  152.0769  140.2193  158.5381 H   0  0  0  0  0  0  0  0  0  0  0  0
  152.4680  140.6453  160.1890 H   0  0  0  0  0  0  0  0  0  0  0  0
  150.2500  141.5243  159.4978 H   0  0  0  0  0  0  0  0  0  0  0  0
  150.4150  143.6887  160.4692 H   0  0  0  0  0  0  0  0  0  0  0  0
  151.5795  142.6703  161.2687 H   0  0  0  0  0  0  0  0  0  0  0  0
  152.5249  144.9185  160.7322 H   0  0  0  0  0  0  0  0  0  0  0  0
  153.4219  143.6565  159.9293 H   0  0  0  0  0  0  0  0  0  0  0  0
  151.2816  145.4420  158.6759 H   0  0  0  0  0  0  0  0  0  0  0  0
  152.9946  145.4910  158.3393 H   0  0  0  0  0  0  0  0  0  0  0  0
  151.7346  144.2848  156.5591 H   0  0  0  0  0  0  0  0  0  0  0  0
  152.9195  143.2517  157.3110 H   0  0  0  0  0  0  0  0  0  0  0  0
  149.9492  143.3453  157.9615 H   0  0  0  0  0  0  0  0  0  0  0  0
  151.5402  141.6641  156.1065 H   0  0  0  0  0  0  0  0  0  0  0  0
  150.3756  140.7866  157.0683 H   0  0  0  0  0  0  0  0  0  0  0  0
  148.6862  142.2553  156.2894 H   0  0  0  0  0  0  0  0  0  0  0  0
  149.7501  141.9715  153.7130 H   0  0  0  0  0  0  0  0  0  0  0  0
  149.9878  140.5134  154.6608 H   0  0  0  0  0  0  0  0  0  0  0  0
  147.5440  140.4759  155.2203 H   0  0  0  0  0  0  0  0  0  0  0  0
  148.5816  140.3194  152.7027 H   0  0  0  0  0  0  0  0  0  0  0  0
  147.9182  142.9275  152.3333 H   0  0  0  0  0  0  0  0  0  0  0  0
  146.4577  144.9492  152.1639 H   0  0  0  0  0  0  0  0  0  0  0  0
  144.5404  144.0645  155.7161 H   0  0  0  0  0  0  0  0  0  0  0  0
  145.9097  142.0001  156.0562 H   0  0  0  0  0  0  0  0  0  0  0  0
  149.7717  143.1938  155.4939 H   0  0  0  0  0  0  0  0  0  0  0  0
  1  2  1  0  0  0  0
  1 19  1  0  0  0  0
  1 20  1  0  0  0  0
  1 21  1  0  0  0  0
  2  7  1  0  0  0  0
  2  3  1  0  0  0  0
  2 22  1  0  0  0  0
  3  4  1  0  0  0  0
  3 23  1  0  0  0  0
  3 24  1  0  0  0  0
  4  5  1  0  0  0  0
  4 25  1  0  0  0  0
  4 26  1  0  0  0  0
  5  6  1  0  0  0  0
  5 27  1  0  0  0  0
  5 28  1  0  0  0  0
  6  7  1  0  0  0  0
  6 29  1  0  0  0  0
  6 30  1  0  0  0  0
  7  8  1  0  0  0  0
  7 31  1  0  0  0  0
  8  9  1  0  0  0  0
  8 32  1  0  0  0  0
  8 33  1  0  0  0  0
  9 10  1  0  0  0  0
  9 34  1  0  0  0  0
  9 43  1  0  0  0  0
 10 11  1  0  0  0  0
 10 35  1  0  0  0  0
 10 36  1  0  0  0  0
 11 12  1  0  0  0  0
 11 13  1  0  0  0  0
 11 37  1  0  0  0  0
 12 38  1  0  0  0  0
 13 18  1  0  0  0  0
 13 14  2  0  0  0  0
 14 15  1  0  0  0  0
 14 39  1  0  0  0  0
 15 16  2  0  0  0  0
 15 40  1  0  0  0  0
 16 17  1  0  0  0  0
 17 18  2  0  0  0  0
 17 41  1  0  0  0  0
 18 42  1  0  0  0  0
M  CHG  1   9   1
M  END
> <s_m_source_file>
AV-unprocessed.smi

> <i_m_source_file_index>
3290

> <i_lp_mmshare_version>
43012

> <i_f3d_flags>
0

> <s_epik_input>
W0NIM11bQ0BASF0xW0NIMl1bQ0gyXVtDSDJdW0NIMl1bQ0BIXTFbQ0gyXVtOSF1bQ0gyXVtDQEhdKFtPSF0pYzJbY0hdW2NIXW5bY0hdW2NIXTI=

> <s_epik_cmdline>
J2VwaWtfcHl0aG9uJywgJy1waCcsICc3LjAnLCAnLXRuJywgJzgnLCAnLW1hJywgJzIwMCcsICctbWV0YWxfYmluZGluZycsICctaW1hZScsICc8aW5maWxlLm1hZT4nLCAnLW9tYWUnLCAnPG91dGZpbGUubWFlPic=

> <r_lp_tautomer_probability>
1

> <r_epik_Ionization_Penalty>
0.00420552

> <r_epik_Ionization_Penalty_Charging>
0.00207255

> <r_epik_Ionization_Penalty_Neutral>
0.00213297

> <r_epik_State_Penalty>
-0

> <r_epik_Charging_Adjusted_Penalty>
0.00207255

> <i_epik_Tot_Q>
1

> <i_epik_Tot_abs_Q>
1

> <r_epik_Metal_State_Penalty>
-0

> <b_epik_Metal_Only>
0

> <s_lp_Force_Field>
OPLS_2005

> <r_lp_Energy>
18.26

> <b_lp_Chiralities_Consistent>
1

> <s_lp_Variant>
AV-unprocessed.smi:3290-2

> <Gold.Version>
5.8.1

> <Gold.Id.Protein>
6NUR|6NUR_protein|mol2

> <Gold.PLP.Fitness>
48.6549

> <Gold.PLP.PLP>
-41.4210

> <Gold.PLP.part.hbond>
-2.0000

> <Gold.PLP.part.metal>
0.0000

> <Gold.PLP.part.buried>
-7.2621

> <Gold.PLP.part.nonpolar>
-32.9404

> <Gold.PLP.part.repulsive>
0.3089

> <Gold.PLP.ligand.clash>
0.0000

> <Gold.PLP.ligand.torsion>
0.9020

> <Gold.PLP.Chemscore.Hbond>
3.0000

> <Gold.PLP.Chemscore.CHOScore>
0.0000

> <Gold.PLP.Chemscore.Metal>
0.0000

> <Gold.Chemscore.Hbonds>
donor molecule, donor type, donor heavy atom, donor atom, acceptor molecule, acceptor atom, score
      L1  H     9    43       P1  8028  1.31
      L1  H    12    38       P1  7957  1.00

> <Gold.PLP.Chemscore.Internal.Correction>
0.0379

> <Gold.Rescore>
     Score         DG    S(hbond)    S(metal)    S(lipo)     H(rot)  DE(clash)    DE(int)     intcor
     19.22     -20.52       1.86        0.00     120.30       2.05       0.10       1.20       ----

> <Gold.Chemscore.Fitness>
19.2157

> <Gold.Chemscore.DG>
-20.5189

> <Gold.Chemscore.ZeroCoef>
-5.4800

> <Gold.Chemscore.Hbond>
1.8597

> <Gold.Chemscore.Metal>
0.0000

> <Gold.Chemscore.Lipo>
120.2989

> <Gold.Chemscore.Internal_Hbond>
0.0000

> <Gold.Chemscore.DEClash>
0.0987

> <Gold.Chemscore.DEInternal>
1.2045

> <Gold.Chemscore.Rot>
2.0498

> <Gold.Chemscore.Internal.Correction>
   9.000000E+99

> <Gold.Chemscore.Hbonds>
donor molecule, donor type, donor heavy atom, donor atom, acceptor molecule, acceptor atom, score
      L1  H     9    43       P1  8028  0.66
      L1  H    12    38       P1  7957  0.96

> <Gold.Chemscore.Hbond.Weighted>
-6.2114

> <Gold.Chemscore.Metal.Weighted>
-0.0000

> <Gold.Chemscore.Lipo.Weighted>
-14.0750

> <Gold.Chemscore.Internal_Hbond.Weighted>
0.0000

> <Gold.Chemscore.DEClash.Weighted>
0.0987

> <Gold.Chemscore.DEInternal.Weighted>
1.2045

> <Gold.Chemscore.Rot.Weighted>
5.2475

> <Gold.Chemscore.Internal.Correction.Weighted>
   9.000000E+99

> <Gold.Protein.RotatedTorsions>
[ 6907 6896 6895 6894 ] final   98.35 input  -60.11 | X-H torsion
[ 7974 7965 7964 7962 ] final   85.45 input  175.53 | X-H torsion
[ 8008 7997 7996 7995 ] final -137.58 input   59.86 | X-H torsion
[ 10167 10162 10161 10158 ] final -109.81 input  -65.29 | X-H torsion
[ 10718 10713 10712 10709 ] final   62.68 input   66.30 | X-H torsion
[ 10763 10752 10751 10750 ] final   58.83 input  -60.55 | X-H torsion
[ 11005 11000 10999 10996 ] final   38.77 input  -57.11 | X-H torsion

> <Gold.Protein.ActiveResidues>
 VAL166  LYS551  ARG553  GLY616  TRP617  ASP618  TYR619  PRO620  LYS621  CYS622 
 ASP623  PHE694  ASN695  SER759  ASP760  ASP761  ALA762  ILE779  LEU786  VAL792 
 PHE793  MET794  SER795  GLU796  ALA797  LYS798  CYS799  TRP800  GLU811  SER814 

> <Gold.Protein.RotatedAtoms>
  152.5410  134.0594  159.8144 H   0  0  0  0  0  0  0  0  0  0  0  0  # atno 6907 bound_to 6896
  151.0724  133.5448  159.2633 H   0  0  0  0  0  0  0  0  0  0  0  0  # atno 6908 bound_to 6896
  151.2306  135.0561  159.9040 H   0  0  0  0  0  0  0  0  0  0  0  0  # atno 6909 bound_to 6896
  145.5854  139.2330  143.2329 H   0  0  0  0  0  0  0  0  0  0  0  0  # atno 7974 bound_to 7965
  155.4141  140.0514  157.3030 H   0  0  0  0  0  0  0  0  0  0  0  0  # atno 8008 bound_to 7997
  154.4932  140.2128  155.9462 H   0  0  0  0  0  0  0  0  0  0  0  0  # atno 8009 bound_to 7997
  156.1371  140.3161  155.8443 H   0  0  0  0  0  0  0  0  0  0  0  0  # atno 8010 bound_to 7997
  140.1512  143.4197  152.1493 H   0  0  0  0  0  0  0  0  0  0  0  0  # atno 10167 bound_to 10162
  157.5918  130.9064  149.9619 H   0  0  0  0  0  0  0  0  0  0  0  0  # atno 10718 bound_to 10713
  152.9880  135.5593  154.5616 H   0  0  0  0  0  0  0  0  0  0  0  0  # atno 10763 bound_to 10752
  154.5033  135.2798  155.1404 H   0  0  0  0  0  0  0  0  0  0  0  0  # atno 10764 bound_to 10752
  154.2826  135.6342  153.5406 H   0  0  0  0  0  0  0  0  0  0  0  0  # atno 10765 bound_to 10752
  140.2094  134.3774  155.8056 H   0  0  0  0  0  0  0  0  0  0  0  0  # atno 11005 bound_to 11000
  146.1686  140.6680  142.9244 LP  0  0  0  0  0  0  0  0  0  0  0  0  # atno 17320 bound_to 7965
  144.7375  140.4850  143.6893 LP  0  0  0  0  0  0  0  0  0  0  0  0  # atno 17321 bound_to 7965
  139.5425  144.7269  151.4689 LP  0  0  0  0  0  0  0  0  0  0  0  0  # atno 17342 bound_to 10162
  140.6701  143.8312  150.6989 LP  0  0  0  0  0  0  0  0  0  0  0  0  # atno 17343 bound_to 10162
  156.0974  130.3658  150.0281 LP  0  0  0  0  0  0  0  0  0  0  0  0  # atno 17370 bound_to 10713
  156.8402  130.9423  151.3632 LP  0  0  0  0  0  0  0  0  0  0  0  0  # atno 17371 bound_to 10713
  141.2226  133.7135  156.8392 LP  0  0  0  0  0  0  0  0  0  0  0  0  # atno 17394 bound_to 11000
  140.1967  134.8926  157.3123 LP  0  0  0  0  0  0  0  0  0  0  0  0  # atno 17395 bound_to 11000

$$$$
