AV-unprocessed.smi:2837|AV-procd|sdf|10920|dock2
  -GOLD-   2272015363D 1   1.00000     0.00000
 Structure written by MMmdl.
 32 34  0  0  0  0  0  0  0  0  1 V2000
  146.6067  138.4935  154.2118 F   0  0  0  0  0  0  0  0  0  0  0  0
  147.4033  139.0472  153.2649 C   0  0  0  0  0  0  0  0  0  0  0  0
  146.7609  138.9389  152.0770 F   0  0  0  0  0  0  0  0  0  0  0  0
  147.6335  140.3577  153.5444 O   0  0  0  0  0  0  0  0  0  0  0  0
  148.5066  140.6885  154.5562 C   0  0  0  0  0  0  0  0  0  0  0  0
  148.1250  141.3770  155.7320 C   0  0  0  0  0  0  0  0  0  0  0  0
  149.1052  141.6786  156.6968 C   0  0  0  0  0  0  0  0  0  0  0  0
  150.4396  141.2923  156.4564 C   0  0  0  0  0  0  0  0  0  0  0  0
  151.4102  141.5988  157.4210 N   0  0  0  0  0  0  0  0  0  0  0  0
  151.2277  142.6918  158.3699 C   0  0  2  0  0  0  0  0  0  0  0  0
  151.3525  144.0793  157.7272 C   0  0  0  0  0  0  0  0  0  0  0  0
  152.4545  144.7243  158.5767 C   0  0  1  0  0  0  0  0  0  0  0  0
  151.9928  145.0113  160.0123 C   0  0  0  0  0  0  0  0  0  0  0  0
  151.9562  143.6076  160.6155 C   0  0  0  0  0  0  0  0  0  0  0  0
  152.3549  142.7380  159.4156 C   0  0  2  0  0  0  0  0  0  0  0  0
  153.2906  143.6012  158.7894 O   0  0  0  0  0  0  0  0  0  0  0  0
  150.8136  140.6438  155.3286 N   0  0  0  0  0  0  0  0  0  0  0  0
  149.8683  140.3559  154.4089 C   0  0  0  0  0  0  0  0  0  0  0  0
  148.3322  138.4810  153.1936 H   0  0  0  0  0  0  0  0  0  0  0  0
  147.1026  141.6799  155.9017 H   0  0  0  0  0  0  0  0  0  0  0  0
  148.8332  142.2017  157.6021 H   0  0  0  0  0  0  0  0  0  0  0  0
  152.2669  141.0654  157.4577 H   0  0  0  0  0  0  0  0  0  0  0  0
  150.2660  142.5699  158.8705 H   0  0  0  0  0  0  0  0  0  0  0  0
  151.6712  144.0133  156.6858 H   0  0  0  0  0  0  0  0  0  0  0  0
  150.4188  144.6413  157.7587 H   0  0  0  0  0  0  0  0  0  0  0  0
  152.9489  145.5670  158.0928 H   0  0  0  0  0  0  0  0  0  0  0  0
  152.7178  145.6335  160.5383 H   0  0  0  0  0  0  0  0  0  0  0  0
  151.0245  145.5122  160.0432 H   0  0  0  0  0  0  0  0  0  0  0  0
  152.6895  143.5172  161.4178 H   0  0  0  0  0  0  0  0  0  0  0  0
  150.9774  143.3429  161.0168 H   0  0  0  0  0  0  0  0  0  0  0  0
  152.7528  141.7623  159.6977 H   0  0  0  0  0  0  0  0  0  0  0  0
  150.2099  139.8387  153.5245 H   0  0  0  0  0  0  0  0  0  0  0  0
  1  2  1  0  0  0  0
  2  3  1  0  0  0  0
  2  4  1  0  0  0  0
  2 19  1  0  0  0  0
  4  5  1  0  0  0  0
  5 18  1  0  0  0  0
  5  6  2  0  0  0  0
  6  7  1  0  0  0  0
  6 20  1  0  0  0  0
  7  8  2  0  0  0  0
  7 21  1  0  0  0  0
  8  9  1  0  0  0  0
  8 17  1  0  0  0  0
  9 10  1  0  0  0  0
  9 22  1  0  0  0  0
 10 15  1  0  0  0  0
 10 11  1  0  0  0  0
 10 23  1  0  0  0  0
 11 12  1  0  0  0  0
 11 24  1  0  0  0  0
 11 25  1  0  0  0  0
 12 16  1  0  0  0  0
 12 13  1  0  0  0  0
 12 26  1  0  0  0  0
 13 14  1  0  0  0  0
 13 27  1  0  0  0  0
 13 28  1  0  0  0  0
 14 15  1  0  0  0  0
 14 29  1  0  0  0  0
 14 30  1  0  0  0  0
 15 16  1  0  0  0  0
 15 31  1  0  0  0  0
 17 18  2  0  0  0  0
 18 32  1  0  0  0  0
M  END
> <s_m_source_file>
AV-unprocessed.smi

> <i_m_source_file_index>
2837

> <i_lp_mmshare_version>
43012

> <i_f3d_flags>
0

> <s_epik_input>
RltDSF0oRilPYzFbY0hdW2NIXWMobltjSF0xKVtOSF1bQ0BIXShbQ0gyXVtDQEBIXTIzKVtDQEBIXShPMylbQ0gyXVtDSDJdMg==

> <s_epik_cmdline>
J2VwaWtfcHl0aG9uJywgJy1waCcsICc3LjAnLCAnLXRuJywgJzgnLCAnLW1hJywgJzIwMCcsICctbWV0YWxfYmluZGluZycsICctaW1hZScsICc8aW5maWxlLm1hZT4nLCAnLW9tYWUnLCAnPG91dGZpbGUubWFlPic=

> <r_lp_tautomer_probability>
1

> <r_epik_Ionization_Penalty>
0.0124072

> <r_epik_Ionization_Penalty_Charging>
0

> <r_epik_Ionization_Penalty_Neutral>
0.0124072

> <r_epik_State_Penalty>
0.00959565

> <r_epik_Charging_Adjusted_Penalty>
0.00959565

> <i_epik_Tot_Q>
0

> <i_epik_Tot_abs_Q>
0

> <r_epik_Metal_State_Penalty>
9.67369e-06

> <b_epik_Metal_Only>
0

> <s_lp_Force_Field>
OPLS_2005

> <r_lp_Energy>
39.7079

> <b_lp_Chiralities_Consistent>
1

> <s_lp_Variant>
AV-unprocessed.smi:2837-1

> <Gold.Version>
5.8.1

> <Gold.Id.Protein>
6NUR|6NUR_protein|mol2

> <Gold.PLP.Fitness>
41.2594

> <Gold.PLP.PLP>
-38.8698

> <Gold.PLP.part.hbond>
-1.0000

> <Gold.PLP.part.metal>
0.0000

> <Gold.PLP.part.buried>
-0.7966

> <Gold.PLP.part.nonpolar>
-37.2265

> <Gold.PLP.part.repulsive>
0.8126

> <Gold.PLP.ligand.clash>
0.0000

> <Gold.PLP.ligand.torsion>
0.3229

> <Gold.PLP.Chemscore.Hbond>
0.0000

> <Gold.PLP.Chemscore.CHOScore>
1.0000

> <Gold.PLP.Chemscore.Metal>
0.0000

> <Gold.Chemscore.Hbonds>
donor molecule, donor type, donor heavy atom, donor atom, acceptor molecule, acceptor atom, score
      L1  C    18    32       P1  7957  1.00

> <Gold.PLP.Chemscore.Internal.Correction>
0.0353

> <Gold.Rescore>
     Score         DG    S(hbond)    S(metal)    S(lipo)     H(rot)  DE(clash)    DE(int)     intcor
     13.50     -14.06       0.00        0.00     102.28       1.32       0.44       0.12       ----

> <Gold.Chemscore.Fitness>
13.5043

> <Gold.Chemscore.DG>
-14.0647

> <Gold.Chemscore.ZeroCoef>
-5.4800

> <Gold.Chemscore.Hbond>
0.0000

> <Gold.Chemscore.Metal>
0.0000

> <Gold.Chemscore.Lipo>
102.2841

> <Gold.Chemscore.Internal_Hbond>
0.0000

> <Gold.Chemscore.DEClash>
0.4409

> <Gold.Chemscore.DEInternal>
0.1195

> <Gold.Chemscore.Rot>
1.3213

> <Gold.Chemscore.Internal.Correction>
   9.000000E+99

> <Gold.Chemscore.Hbond.Weighted>
-0.0000

> <Gold.Chemscore.Metal.Weighted>
-0.0000

> <Gold.Chemscore.Lipo.Weighted>
-11.9672

> <Gold.Chemscore.Internal_Hbond.Weighted>
0.0000

> <Gold.Chemscore.DEClash.Weighted>
0.4409

> <Gold.Chemscore.DEInternal.Weighted>
0.1195

> <Gold.Chemscore.Rot.Weighted>
3.3825

> <Gold.Chemscore.Internal.Correction.Weighted>
   9.000000E+99

> <Gold.Protein.RotatedTorsions>
[ 6907 6896 6895 6894 ] final   64.83 input  -60.11 | X-H torsion
[ 7974 7965 7964 7962 ] final  -28.40 input  175.53 | X-H torsion
[ 8008 7997 7996 7995 ] final   86.07 input   59.86 | X-H torsion
[ 10167 10162 10161 10158 ] final  -49.43 input  -65.29 | X-H torsion
[ 10718 10713 10712 10709 ] final -168.35 input   66.30 | X-H torsion
[ 10763 10752 10751 10750 ] final  172.82 input  -60.55 | X-H torsion
[ 11005 11000 10999 10996 ] final  -98.55 input  -57.11 | X-H torsion

> <Gold.Protein.ActiveResidues>
 VAL166  LYS551  ARG553  GLY616  TRP617  ASP618  TYR619  PRO620  LYS621  CYS622 
 ASP623  PHE694  ASN695  SER759  ASP760  ASP761  ALA762  ILE779  LEU786  VAL792 
 PHE793  MET794  SER795  GLU796  ALA797  LYS798  CYS799  TRP800  GLU811  SER814 

> <Gold.Protein.RotatedAtoms>
  152.4361  134.5683  159.9913 H   0  0  0  0  0  0  0  0  0  0  0  0  # atno 6907 bound_to 6896
  151.5793  133.3374  159.3013 H   0  0  0  0  0  0  0  0  0  0  0  0  # atno 6908 bound_to 6896
  150.8260  134.7526  159.6877 H   0  0  0  0  0  0  0  0  0  0  0  0  # atno 6909 bound_to 6896
  146.1291  140.5277  142.8701 H   0  0  0  0  0  0  0  0  0  0  0  0  # atno 7974 bound_to 7965
  155.9581  140.3395  155.6466 H   0  0  0  0  0  0  0  0  0  0  0  0  # atno 8008 bound_to 7997
  155.6834  140.0740  157.2494 H   0  0  0  0  0  0  0  0  0  0  0  0  # atno 8009 bound_to 7997
  154.4137  140.1670  156.1995 H   0  0  0  0  0  0  0  0  0  0  0  0  # atno 8010 bound_to 7997
  140.6685  143.2698  151.4214 H   0  0  0  0  0  0  0  0  0  0  0  0  # atno 10167 bound_to 10162
  156.6956  130.9176  151.3074 H   0  0  0  0  0  0  0  0  0  0  0  0  # atno 10718 bound_to 10713
  154.4314  135.2760  155.1910 H   0  0  0  0  0  0  0  0  0  0  0  0  # atno 10763 bound_to 10752
  154.3814  135.6087  153.5796 H   0  0  0  0  0  0  0  0  0  0  0  0  # atno 10764 bound_to 10752
  152.9836  135.5881  154.4626 H   0  0  0  0  0  0  0  0  0  0  0  0  # atno 10765 bound_to 10752
  141.1340  133.8254  157.0855 H   0  0  0  0  0  0  0  0  0  0  0  0  # atno 11005 bound_to 11000
  144.7672  140.5557  143.6695 LP  0  0  0  0  0  0  0  0  0  0  0  0  # atno 17320 bound_to 7965
  145.5301  139.1475  143.3504 LP  0  0  0  0  0  0  0  0  0  0  0  0  # atno 17321 bound_to 7965
  139.5944  144.1430  152.2126 LP  0  0  0  0  0  0  0  0  0  0  0  0  # atno 17342 bound_to 10162
  140.0794  144.5713  150.7133 LP  0  0  0  0  0  0  0  0  0  0  0  0  # atno 17343 bound_to 10162
  157.6992  130.9315  150.0735 LP  0  0  0  0  0  0  0  0  0  0  0  0  # atno 17370 bound_to 10713
  156.1766  130.3648  149.9092 LP  0  0  0  0  0  0  0  0  0  0  0  0  # atno 17371 bound_to 10713
  140.0425  134.9847  157.0988 LP  0  0  0  0  0  0  0  0  0  0  0  0  # atno 17394 bound_to 11000
  140.4113  134.1978  155.7163 LP  0  0  0  0  0  0  0  0  0  0  0  0  # atno 17395 bound_to 11000

$$$$
