AV-unprocessed.smi:244|AV-procd|sdf|1864|dock10
  -GOLD-   2262020503D 1   1.00000     0.00000
 Structure written by MMmdl.
 57 61  0  0  0  0  0  0  0  0  2 V2000
  147.0442  129.0697  152.6171 C   0  0  0  0  0  0  0  0  0  0  0  0
  146.6367  130.3266  151.9532 N   0  3  1  0  0  0  0  0  0  0  0  0
  145.3029  130.2178  151.3113 C   0  0  0  0  0  0  0  0  0  0  0  0
  144.9560  131.5005  150.5388 C   0  0  0  0  0  0  0  0  0  0  0  0
  145.0248  132.7195  151.4664 C   0  0  2  0  0  0  0  0  0  0  0  0
  144.7538  133.9020  150.7223 O   0  0  0  0  0  0  0  0  0  0  0  0
  144.7404  135.0566  151.5554 C   0  0  0  0  0  0  0  0  0  0  0  0
  146.1188  135.2263  152.2135 C   0  0  0  0  0  0  0  0  0  0  0  0
  146.4878  134.0157  152.9448 N   0  0  0  0  0  0  0  0  0  0  0  0
  147.6232  134.1521  153.6682 C   0  0  0  0  0  0  0  0  0  0  0  0
  148.6904  133.3456  153.4271 N   0  0  0  0  0  0  0  0  0  0  0  0
  149.8019  133.4744  154.1588 C   0  0  0  0  0  0  0  0  0  0  0  0
  150.0470  134.3191  155.1633 N   0  0  0  0  0  0  0  0  0  0  0  0
  148.9737  135.1239  155.4097 C   0  0  0  0  0  0  0  0  0  0  0  0
  147.7325  135.1039  154.7156 C   0  0  0  0  0  0  0  0  0  0  0  0
  146.8691  136.0518  155.2489 N   0  0  0  0  0  0  0  0  0  0  0  0
  147.5635  136.6058  156.2054 C   0  0  0  0  0  0  0  0  0  0  0  0
  148.8410  136.1162  156.3654 N   0  0  0  0  0  0  0  0  0  0  0  0
  149.8245  136.5519  157.3454 C   0  0  0  0  0  0  0  0  0  0  0  0
  150.3929  137.9687  157.0815 C   0  0  0  0  0  0  0  0  0  0  0  0
  149.3080  138.8802  157.0996 O   0  0  0  0  0  0  0  0  0  0  0  0
  151.4167  138.4094  158.1508 C   0  0  0  0  0  0  0  0  0  0  0  0
  152.1325  139.7166  157.7668 C   0  0  0  0  0  0  0  0  0  0  0  0
  152.7348  139.5891  156.4846 O   0  0  0  0  0  0  0  0  0  0  0  0
  151.7841  139.3631  155.4513 C   0  0  0  0  0  0  0  0  0  0  0  0
  151.0557  138.0290  155.6908 C   0  0  0  0  0  0  0  0  0  0  0  0
  146.4279  132.8164  152.1041 C   0  0  1  0  0  0  0  0  0  0  0  0
  146.7349  131.4994  152.8590 C   0  0  0  0  0  0  0  0  0  0  0  0
  146.3755  128.8297  153.4449 H   0  0  0  0  0  0  0  0  0  0  0  0
  148.0584  129.1520  153.0092 H   0  0  0  0  0  0  0  0  0  0  0  0
  147.0280  128.2382  151.9118 H   0  0  0  0  0  0  0  0  0  0  0  0
  145.2942  129.3677  150.6280 H   0  0  0  0  0  0  0  0  0  0  0  0
  144.5459  130.0215  152.0725 H   0  0  0  0  0  0  0  0  0  0  0  0
  145.6487  131.6286  149.7058 H   0  0  0  0  0  0  0  0  0  0  0  0
  143.9591  131.4158  150.1050 H   0  0  0  0  0  0  0  0  0  0  0  0
  144.2677  132.6094  152.2457 H   0  0  0  0  0  0  0  0  0  0  0  0
  144.5028  135.9305  150.9487 H   0  0  0  0  0  0  0  0  0  0  0  0
  143.9566  134.9692  152.3095 H   0  0  0  0  0  0  0  0  0  0  0  0
  146.8625  135.4386  151.4439 H   0  0  0  0  0  0  0  0  0  0  0  0
  146.1037  136.0804  152.8922 H   0  0  0  0  0  0  0  0  0  0  0  0
  150.6103  132.8049  153.9037 H   0  0  0  0  0  0  0  0  0  0  0  0
  147.1634  137.3984  156.8210 H   0  0  0  0  0  0  0  0  0  0  0  0
  149.3533  136.5170  158.3285 H   0  0  0  0  0  0  0  0  0  0  0  0
  150.6316  135.8181  157.3723 H   0  0  0  0  0  0  0  0  0  0  0  0
  149.2590  139.2730  157.9577 H   0  0  0  0  0  0  0  0  0  0  0  0
  150.9374  138.5308  159.1226 H   0  0  0  0  0  0  0  0  0  0  0  0
  152.1664  137.6268  158.2736 H   0  0  0  0  0  0  0  0  0  0  0  0
  151.4408  140.5602  157.7739 H   0  0  0  0  0  0  0  0  0  0  0  0
  152.9097  139.9422  158.4971 H   0  0  0  0  0  0  0  0  0  0  0  0
  151.0796  140.1945  155.4000 H   0  0  0  0  0  0  0  0  0  0  0  0
  152.3068  139.3347  154.4953 H   0  0  0  0  0  0  0  0  0  0  0  0
  151.7829  137.2207  155.6025 H   0  0  0  0  0  0  0  0  0  0  0  0
  150.3167  137.8599  154.9065 H   0  0  0  0  0  0  0  0  0  0  0  0
  147.1649  132.9351  151.3077 H   0  0  0  0  0  0  0  0  0  0  0  0
  146.0494  131.3724  153.6986 H   0  0  0  0  0  0  0  0  0  0  0  0
  147.7445  131.5236  153.2707 H   0  0  0  0  0  0  0  0  0  0  0  0
  147.3008  130.4843  151.2084 H   0  0  0  0  0  0  0  0  0  0  0  0
  1  2  1  0  0  0  0
  1 29  1  0  0  0  0
  1 30  1  0  0  0  0
  1 31  1  0  0  0  0
  2 28  1  0  0  0  0
  2  3  1  0  0  0  0
  2 57  1  0  0  0  0
  3  4  1  0  0  0  0
  3 32  1  0  0  0  0
  3 33  1  0  0  0  0
  4  5  1  0  0  0  0
  4 34  1  0  0  0  0
  4 35  1  0  0  0  0
  5 27  1  0  0  0  0
  5  6  1  0  0  0  0
  5 36  1  0  0  0  0
  6  7  1  0  0  0  0
  7  8  1  0  0  0  0
  7 37  1  0  0  0  0
  7 38  1  0  0  0  0
  8  9  1  0  0  0  0
  8 39  1  0  0  0  0
  8 40  1  0  0  0  0
  9 10  1  0  0  0  0
  9 27  1  0  0  0  0
 10 15  1  0  0  0  0
 10 11  2  0  0  0  0
 11 12  1  0  0  0  0
 12 13  2  0  0  0  0
 12 41  1  0  0  0  0
 13 14  1  0  0  0  0
 14 18  1  0  0  0  0
 14 15  2  0  0  0  0
 15 16  1  0  0  0  0
 16 17  2  0  0  0  0
 17 18  1  0  0  0  0
 17 42  1  0  0  0  0
 18 19  1  0  0  0  0
 19 20  1  0  0  0  0
 19 43  1  0  0  0  0
 19 44  1  0  0  0  0
 20 26  1  0  0  0  0
 20 21  1  0  0  0  0
 20 22  1  0  0  0  0
 21 45  1  0  0  0  0
 22 23  1  0  0  0  0
 22 46  1  0  0  0  0
 22 47  1  0  0  0  0
 23 24  1  0  0  0  0
 23 48  1  0  0  0  0
 23 49  1  0  0  0  0
 24 25  1  0  0  0  0
 25 26  1  0  0  0  0
 25 50  1  0  0  0  0
 25 51  1  0  0  0  0
 26 52  1  0  0  0  0
 26 53  1  0  0  0  0
 27 28  1  0  0  0  0
 27 54  1  0  0  0  0
 28 55  1  0  0  0  0
 28 56  1  0  0  0  0
M  CHG  1   2   1
M  END
> <s_m_source_file>
AV-unprocessed.smi

> <i_m_source_file_index>
244

> <i_lp_mmshare_version>
43012

> <i_f3d_flags>
0

> <s_epik_input>
W0NIMl0xW0NIMl1OKFtDSDNdKVtDSDJdW0NAQEhdKFtDQEhdMTIpTihbQ0gyXVtDSDJdTzIpYyhuW2NIXW4zKWMoYzM0KW5bY0hdbjRbQ0gyXUM1KFtPSF0pW0NIMl1bQ0gyXU9bQ0gyXVtDSDJdNQ==

> <s_epik_cmdline>
J2VwaWtfcHl0aG9uJywgJy1waCcsICc3LjAnLCAnLXRuJywgJzgnLCAnLW1hJywgJzIwMCcsICctbWV0YWxfYmluZGluZycsICctaW1hZScsICc8aW5maWxlLm1hZT4nLCAnLW9tYWUnLCAnPG91dGZpbGUubWFlPic=

> <r_lp_tautomer_probability>
1

> <r_epik_Ionization_Penalty>
0.0136215

> <r_epik_Ionization_Penalty_Charging>
0.0131385

> <r_epik_Ionization_Penalty_Neutral>
0.000483022

> <r_epik_State_Penalty>
0.0104001

> <r_epik_Charging_Adjusted_Penalty>
0.0235387

> <i_epik_Tot_Q>
1

> <i_epik_Tot_abs_Q>
1

> <r_epik_Metal_State_Penalty>
0.0104469

> <b_epik_Metal_Only>
0

> <s_lp_Force_Field>
OPLS_2005

> <r_lp_Energy>
41.0301

> <b_lp_Chiralities_Consistent>
1

> <s_lp_Variant>
AV-unprocessed.smi:244-1

> <Gold.Version>
5.8.1

> <Gold.Id.Protein>
6NUR|6NUR_protein|mol2

> <Gold.PLP.Fitness>
36.8624

> <Gold.PLP.PLP>
-31.2135

> <Gold.PLP.part.hbond>
-2.0000

> <Gold.PLP.part.metal>
0.0000

> <Gold.PLP.part.buried>
-4.9098

> <Gold.PLP.part.nonpolar>
-23.7057

> <Gold.PLP.part.repulsive>
0.5868

> <Gold.PLP.ligand.clash>
0.0513

> <Gold.PLP.ligand.torsion>
0.2156

> <Gold.PLP.Chemscore.Hbond>
2.0000

> <Gold.PLP.Chemscore.CHOScore>
0.0000

> <Gold.PLP.Chemscore.Metal>
0.0000

> <Gold.Chemscore.Hbonds>
donor molecule, donor type, donor heavy atom, donor atom, acceptor molecule, acceptor atom, score
      L1  H     2    57       P1 10747  1.00
      P1  H  7997  8008       L1    24  1.00

> <Gold.PLP.Chemscore.Internal.Correction>
0.1315

> <Gold.Rescore>
     Score         DG    S(hbond)    S(metal)    S(lipo)     H(rot)  DE(clash)    DE(int)     intcor
     13.14     -16.05       1.96        0.00      80.18       2.09       0.16       2.74       ----

> <Gold.Chemscore.Fitness>
13.1416

> <Gold.Chemscore.DG>
-16.0456

> <Gold.Chemscore.ZeroCoef>
-5.4800

> <Gold.Chemscore.Hbond>
1.9575

> <Gold.Chemscore.Metal>
0.0000

> <Gold.Chemscore.Lipo>
80.1774

> <Gold.Chemscore.Internal_Hbond>
0.0000

> <Gold.Chemscore.DEClash>
0.1631

> <Gold.Chemscore.DEInternal>
2.7408

> <Gold.Chemscore.Rot>
2.0911

> <Gold.Chemscore.Internal.Correction>
   9.000000E+99

> <Gold.Chemscore.Hbonds>
donor molecule, donor type, donor heavy atom, donor atom, acceptor molecule, acceptor atom, score
      L1  H     2    57       P1 10747  0.99
      P1  H  7997  8008       L1    24  0.60

> <Gold.Chemscore.Hbond.Weighted>
-6.5379

> <Gold.Chemscore.Metal.Weighted>
-0.0000

> <Gold.Chemscore.Lipo.Weighted>
-9.3808

> <Gold.Chemscore.Internal_Hbond.Weighted>
0.0000

> <Gold.Chemscore.DEClash.Weighted>
0.1631

> <Gold.Chemscore.DEInternal.Weighted>
2.7408

> <Gold.Chemscore.Rot.Weighted>
5.3531

> <Gold.Chemscore.Internal.Correction.Weighted>
   9.000000E+99

> <Gold.Protein.RotatedTorsions>
[ 6907 6896 6895 6894 ] final   83.10 input  -60.11 | X-H torsion
[ 7974 7965 7964 7962 ] final  -11.26 input  175.53 | X-H torsion
[ 8008 7997 7996 7995 ] final  -62.29 input   59.86 | X-H torsion
[ 10167 10162 10161 10158 ] final  -67.12 input  -65.29 | X-H torsion
[ 10718 10713 10712 10709 ] final  -80.23 input   66.30 | X-H torsion
[ 10763 10752 10751 10750 ] final  137.30 input  -60.55 | X-H torsion
[ 11005 11000 10999 10996 ] final   48.80 input  -57.11 | X-H torsion

> <Gold.Protein.ActiveResidues>
 VAL166  LYS551  ARG553  GLY616  TRP617  ASP618  TYR619  PRO620  LYS621  CYS622 
 ASP623  PHE694  ASN695  SER759  ASP760  ASP761  ALA762  ILE779  LEU786  VAL792 
 PHE793  MET794  SER795  GLU796  ALA797  LYS798  CYS799  TRP800  GLU811  SER814 

> <Gold.Protein.RotatedAtoms>
  152.5318  134.2947  159.9055 H   0  0  0  0  0  0  0  0  0  0  0  0  # atno 6907 bound_to 6896
  151.2899  133.4164  159.2640 H   0  0  0  0  0  0  0  0  0  0  0  0  # atno 6908 bound_to 6896
  151.0210  134.9485  159.8116 H   0  0  0  0  0  0  0  0  0  0  0  0  # atno 6909 bound_to 6896
  146.2193  140.2885  142.8367 H   0  0  0  0  0  0  0  0  0  0  0  0  # atno 7974 bound_to 7965
  154.4492  140.0999  156.6564 H   0  0  0  0  0  0  0  0  0  0  0  0  # atno 8008 bound_to 7997
  155.5341  140.3482  155.4414 H   0  0  0  0  0  0  0  0  0  0  0  0  # atno 8009 bound_to 7997
  156.0643  140.1334  156.9893 H   0  0  0  0  0  0  0  0  0  0  0  0  # atno 8010 bound_to 7997
  140.5606  143.2313  151.6734 H   0  0  0  0  0  0  0  0  0  0  0  0  # atno 10167 bound_to 10162
  156.0074  130.4568  150.3769 H   0  0  0  0  0  0  0  0  0  0  0  0  # atno 10718 bound_to 10713
  153.8708  135.3056  155.3442 H   0  0  0  0  0  0  0  0  0  0  0  0  # atno 10763 bound_to 10752
  154.7806  135.4837  153.9840 H   0  0  0  0  0  0  0  0  0  0  0  0  # atno 10764 bound_to 10752
  153.1407  135.6823  153.9127 H   0  0  0  0  0  0  0  0  0  0  0  0  # atno 10765 bound_to 10752
  140.1159  134.4893  155.8638 H   0  0  0  0  0  0  0  0  0  0  0  0  # atno 11005 bound_to 11000
  144.9144  140.7795  143.5787 LP  0  0  0  0  0  0  0  0  0  0  0  0  # atno 17320 bound_to 7965
  145.2818  139.1915  143.4787 LP  0  0  0  0  0  0  0  0  0  0  0  0  # atno 17321 bound_to 7965
  139.5068  144.3667  152.0510 LP  0  0  0  0  0  0  0  0  0  0  0  0  # atno 17342 bound_to 10162
  140.2793  144.3877  150.6124 LP  0  0  0  0  0  0  0  0  0  0  0  0  # atno 17343 bound_to 10162
  157.1851  131.0401  151.2729 LP  0  0  0  0  0  0  0  0  0  0  0  0  # atno 17370 bound_to 10713
  157.4111  130.7386  149.6840 LP  0  0  0  0  0  0  0  0  0  0  0  0  # atno 17371 bound_to 10713
  141.2141  133.6743  156.6795 LP  0  0  0  0  0  0  0  0  0  0  0  0  # atno 17394 bound_to 11000
  140.3029  134.8149  157.4112 LP  0  0  0  0  0  0  0  0  0  0  0  0  # atno 17395 bound_to 11000

$$$$
