AV-unprocessed.smi:1052|AV-procd|sdf|4616|dock5
  -GOLD-   22720 3113D 1   1.00000     0.00000
 Structure written by MMmdl.
 40 41  0  0  0  0  0  0  0  0  1 V2000
  147.2059  141.9752  154.4104 C   0  0  0  0  0  0  0  0  0  0  0  0
  147.5386  140.5146  154.7631 C   0  0  0  0  0  0  0  0  0  0  0  0
  146.6530  140.0692  155.9453 C   0  0  0  0  0  0  0  0  0  0  0  0
  147.2787  139.6303  153.5249 C   0  0  0  0  0  0  0  0  0  0  0  0
  148.9566  140.4801  155.1406 N   0  0  0  0  0  0  0  0  0  0  0  0
  149.5484  141.0170  156.2225 C   0  0  0  0  0  0  0  0  0  0  0  0
  148.9485  141.6575  157.0864 O   0  0  0  0  0  0  0  0  0  0  0  0
  151.0667  140.8127  156.3228 C   0  0  0  0  0  0  0  0  0  0  0  0
  151.6528  141.4214  157.5261 N   0  0  0  0  0  0  0  0  0  0  0  0
  151.2256  142.7126  157.7692 N   0  0  0  0  0  0  0  0  0  0  0  0
  151.6485  143.3681  158.7973 C   0  0  0  0  0  0  0  0  0  0  0  0
  151.1283  144.7642  158.9897 C   0  0  0  0  0  0  0  0  0  0  0  0
  151.7173  145.6973  160.0218 C   0  0  0  0  0  0  0  0  0  0  0  0
  150.3153  145.1624  160.2005 C   0  0  0  0  0  0  0  0  0  0  0  0
  152.5893  142.7421  159.7048 C   0  0  0  0  0  0  0  0  0  0  0  0
  153.0178  141.4759  159.4811 C   0  0  0  0  0  0  0  0  0  0  0  0
  154.0175  140.7863  160.4061 C   0  0  0  0  0  0  0  0  0  0  0  0
  153.6272  139.5381  160.6645 F   0  0  0  0  0  0  0  0  0  0  0  0
  155.2263  140.7375  159.8450 F   0  0  0  0  0  0  0  0  0  0  0  0
  154.1362  141.4275  161.5698 F   0  0  0  0  0  0  0  0  0  0  0  0
  152.5313  140.7292  158.3112 C   0  0  0  0  0  0  0  0  0  0  0  0
  152.8742  139.5754  158.0489 O   0  0  0  0  0  0  0  0  0  0  0  0
  146.1608  142.0847  154.1183 H   0  0  0  0  0  0  0  0  0  0  0  0
  147.8168  142.3332  153.5806 H   0  0  0  0  0  0  0  0  0  0  0  0
  147.3799  142.6401  155.2576 H   0  0  0  0  0  0  0  0  0  0  0  0
  146.8468  140.6699  156.8348 H   0  0  0  0  0  0  0  0  0  0  0  0
  146.8177  139.0249  156.2103 H   0  0  0  0  0  0  0  0  0  0  0  0
  145.5948  140.1742  155.7041 H   0  0  0  0  0  0  0  0  0  0  0  0
  146.2487  139.7306  153.1810 H   0  0  0  0  0  0  0  0  0  0  0  0
  147.4420  138.5728  153.7323 H   0  0  0  0  0  0  0  0  0  0  0  0
  147.9295  139.9078  152.6948 H   0  0  0  0  0  0  0  0  0  0  0  0
  149.5597  139.9821  154.5019 H   0  0  0  0  0  0  0  0  0  0  0  0
  151.3016  139.7468  156.2932 H   0  0  0  0  0  0  0  0  0  0  0  0
  151.5215  141.2356  155.4253 H   0  0  0  0  0  0  0  0  0  0  0  0
  150.8363  145.2004  158.0361 H   0  0  0  0  0  0  0  0  0  0  0  0
  152.4895  145.3069  160.6823 H   0  0  0  0  0  0  0  0  0  0  0  0
  151.8247  146.7447  159.7474 H   0  0  0  0  0  0  0  0  0  0  0  0
  149.4904  145.8549  160.0451 H   0  0  0  0  0  0  0  0  0  0  0  0
  150.1620  144.4252  160.9864 H   0  0  0  0  0  0  0  0  0  0  0  0
  152.9363  143.3065  160.5574 H   0  0  0  0  0  0  0  0  0  0  0  0
  1  2  1  0  0  0  0
  1 23  1  0  0  0  0
  1 24  1  0  0  0  0
  1 25  1  0  0  0  0
  2  3  1  0  0  0  0
  2  4  1  0  0  0  0
  2  5  1  0  0  0  0
  3 26  1  0  0  0  0
  3 27  1  0  0  0  0
  3 28  1  0  0  0  0
  4 29  1  0  0  0  0
  4 30  1  0  0  0  0
  4 31  1  0  0  0  0
  5  6  1  0  0  0  0
  5 32  1  0  0  0  0
  6  7  2  0  0  0  0
  6  8  1  0  0  0  0
  8  9  1  0  0  0  0
  8 33  1  0  0  0  0
  8 34  1  0  0  0  0
  9 21  1  0  0  0  0
  9 10  1  0  0  0  0
 10 11  2  0  0  0  0
 11 12  1  0  0  0  0
 11 15  1  0  0  0  0
 12 14  1  0  0  0  0
 12 13  1  0  0  0  0
 12 35  1  0  0  0  0
 13 14  1  0  0  0  0
 13 36  1  0  0  0  0
 13 37  1  0  0  0  0
 14 38  1  0  0  0  0
 14 39  1  0  0  0  0
 15 16  2  0  0  0  0
 15 40  1  0  0  0  0
 16 17  1  0  0  0  0
 16 21  1  0  0  0  0
 17 18  1  0  0  0  0
 17 19  1  0  0  0  0
 17 20  1  0  0  0  0
 21 22  2  0  0  0  0
M  END
> <s_m_source_file>
AV-unprocessed.smi

> <i_m_source_file_index>
1052

> <i_lp_mmshare_version>
43012

> <i_f3d_flags>
0

> <s_epik_input>
W0NIM11DKFtDSDNdKShbQ0gzXSlbTkhdQyg9TylbQ0gyXW4xbmMoW0NIXTJbQ0gyXVtDSDJdMilbY0hdYyhDKEYpKEYpRiljMT1P

> <s_epik_cmdline>
J2VwaWtfcHl0aG9uJywgJy1waCcsICc3LjAnLCAnLXRuJywgJzgnLCAnLW1hJywgJzIwMCcsICctbWV0YWxfYmluZGluZycsICctaW1hZScsICc8aW5maWxlLm1hZT4nLCAnLW9tYWUnLCAnPG91dGZpbGUubWFlPic=

> <r_lp_tautomer_probability>
1

> <r_epik_Ionization_Penalty>
2.47799e-08

> <r_epik_Ionization_Penalty_Charging>
1.49243e-10

> <r_epik_Ionization_Penalty_Neutral>
2.46307e-08

> <r_epik_State_Penalty>
-0

> <r_epik_Charging_Adjusted_Penalty>
1.49243e-10

> <i_epik_Tot_Q>
0

> <i_epik_Tot_abs_Q>
0

> <r_epik_Metal_State_Penalty>
-0

> <b_epik_Metal_Only>
0

> <s_lp_Force_Field>
OPLS_2005

> <r_lp_Energy>
24.0208

> <b_lp_Chiralities_Consistent>
1

> <s_lp_Variant>
AV-unprocessed.smi:1052-1

> <Gold.Version>
5.8.1

> <Gold.Id.Protein>
6NUR|6NUR_protein|mol2

> <Gold.PLP.Fitness>
46.3872

> <Gold.PLP.PLP>
-44.5943

> <Gold.PLP.part.hbond>
-1.0000

> <Gold.PLP.part.metal>
0.0000

> <Gold.PLP.part.buried>
-4.8069

> <Gold.PLP.part.nonpolar>
-40.2253

> <Gold.PLP.part.repulsive>
0.3527

> <Gold.PLP.ligand.clash>
0.0000

> <Gold.PLP.ligand.torsion>
0.9081

> <Gold.PLP.Chemscore.Hbond>
1.0000

> <Gold.PLP.Chemscore.CHOScore>
0.0000

> <Gold.PLP.Chemscore.Metal>
0.0000

> <Gold.Chemscore.Hbonds>
donor molecule, donor type, donor heavy atom, donor atom, acceptor molecule, acceptor atom, score
      P1  H  7997  8008       L1    22  0.83

> <Gold.PLP.Chemscore.Internal.Correction>
0.6091

> <Gold.Rescore>
     Score         DG    S(hbond)    S(metal)    S(lipo)     H(rot)  DE(clash)    DE(int)     intcor
     10.31     -15.03       0.92        0.00      92.43       1.69       0.20       4.53       ----

> <Gold.Chemscore.Fitness>
10.3073

> <Gold.Chemscore.DG>
-15.0276

> <Gold.Chemscore.ZeroCoef>
-5.4800

> <Gold.Chemscore.Hbond>
0.9162

> <Gold.Chemscore.Metal>
0.0000

> <Gold.Chemscore.Lipo>
92.4328

> <Gold.Chemscore.Internal_Hbond>
0.0000

> <Gold.Chemscore.DEClash>
0.1951

> <Gold.Chemscore.DEInternal>
4.5253

> <Gold.Chemscore.Rot>
1.6903

> <Gold.Chemscore.Internal.Correction>
   9.000000E+99

> <Gold.Chemscore.Hbonds>
donor molecule, donor type, donor heavy atom, donor atom, acceptor molecule, acceptor atom, score
      P1  H  7997  8008       L1    22  0.13

> <Gold.Chemscore.Hbond.Weighted>
-3.0602

> <Gold.Chemscore.Metal.Weighted>
-0.0000

> <Gold.Chemscore.Lipo.Weighted>
-10.8146

> <Gold.Chemscore.Internal_Hbond.Weighted>
0.0000

> <Gold.Chemscore.DEClash.Weighted>
0.1951

> <Gold.Chemscore.DEInternal.Weighted>
4.5253

> <Gold.Chemscore.Rot.Weighted>
4.3272

> <Gold.Chemscore.Internal.Correction.Weighted>
   9.000000E+99

> <Gold.Protein.RotatedTorsions>
[ 6907 6896 6895 6894 ] final -130.75 input  -60.11 | X-H torsion
[ 7974 7965 7964 7962 ] final -143.79 input  175.53 | X-H torsion
[ 8008 7997 7996 7995 ] final  -80.76 input   59.86 | X-H torsion
[ 10167 10162 10161 10158 ] final  157.24 input  -65.29 | X-H torsion
[ 10718 10713 10712 10709 ] final  152.26 input   66.30 | X-H torsion
[ 10763 10752 10751 10750 ] final   49.06 input  -60.55 | X-H torsion
[ 11005 11000 10999 10996 ] final -161.29 input  -57.11 | X-H torsion

> <Gold.Protein.ActiveResidues>
 VAL166  LYS551  ARG553  GLY616  TRP617  ASP618  TYR619  PRO620  LYS621  CYS622 
 ASP623  PHE694  ASN695  SER759  ASP760  ASP761  ALA762  ILE779  LEU786  VAL792 
 PHE793  MET794  SER795  GLU796  ALA797  LYS798  CYS799  TRP800  GLU811  SER814 

> <Gold.Protein.RotatedAtoms>
  150.9432  133.6633  159.2786 H   0  0  0  0  0  0  0  0  0  0  0  0  # atno 6907 bound_to 6896
  151.4014  135.0970  159.9567 H   0  0  0  0  0  0  0  0  0  0  0  0  # atno 6908 bound_to 6896
  152.5078  133.8925  159.7456 H   0  0  0  0  0  0  0  0  0  0  0  0  # atno 6909 bound_to 6896
  144.8344  140.5791  143.5494 H   0  0  0  0  0  0  0  0  0  0  0  0  # atno 7974 bound_to 7965
  154.5915  140.0658  156.9245 H   0  0  0  0  0  0  0  0  0  0  0  0  # atno 8008 bound_to 7997
  155.2287  140.3336  155.4288 H   0  0  0  0  0  0  0  0  0  0  0  0  # atno 8009 bound_to 7997
  156.2259  140.1819  156.7349 H   0  0  0  0  0  0  0  0  0  0  0  0  # atno 8010 bound_to 7997
  139.4822  144.4936  151.8273 H   0  0  0  0  0  0  0  0  0  0  0  0  # atno 10167 bound_to 10162
  157.2601  131.0796  151.1672 H   0  0  0  0  0  0  0  0  0  0  0  0  # atno 10718 bound_to 10713
  152.9788  135.5924  154.4027 H   0  0  0  0  0  0  0  0  0  0  0  0  # atno 10763 bound_to 10752
  154.3671  135.2767  155.2289 H   0  0  0  0  0  0  0  0  0  0  0  0  # atno 10764 bound_to 10752
  154.4261  135.6047  153.6094 H   0  0  0  0  0  0  0  0  0  0  0  0  # atno 10765 bound_to 10752
  140.6221  134.4740  157.5224 H   0  0  0  0  0  0  0  0  0  0  0  0  # atno 11005 bound_to 11000
  145.4826  139.1494  143.3753 LP  0  0  0  0  0  0  0  0  0  0  0  0  # atno 17320 bound_to 7965
  146.2644  140.4962  142.8840 LP  0  0  0  0  0  0  0  0  0  0  0  0  # atno 17321 bound_to 7965
  140.4422  144.1970  150.5892 LP  0  0  0  0  0  0  0  0  0  0  0  0  # atno 17342 bound_to 10162
  140.4671  143.2427  151.9140 LP  0  0  0  0  0  0  0  0  0  0  0  0  # atno 17343 bound_to 10162
  157.3185  130.6925  149.6255 LP  0  0  0  0  0  0  0  0  0  0  0  0  # atno 17370 bound_to 10713
  155.9664  130.4342  150.5040 LP  0  0  0  0  0  0  0  0  0  0  0  0  # atno 17371 bound_to 10713
  139.9149  134.8267  156.1399 LP  0  0  0  0  0  0  0  0  0  0  0  0  # atno 17394 bound_to 11000
  141.0735  133.6786  156.2189 LP  0  0  0  0  0  0  0  0  0  0  0  0  # atno 17395 bound_to 11000

$$$$
