AV-unprocessed.smi:2081|AV-procd|sdf|8488|dock3
  -GOLD-   2272011193D 1   1.00000     0.00000
 Structure written by MMmdl.
 45 46  0  0  0  0  0  0  0  0  1 V2000
  149.0200  135.9630  157.5095 C   0  0  0  0  0  0  0  0  0  0  0  0
  149.5987  134.8731  156.7034 N   0  0  0  0  0  0  0  0  0  0  0  0
  149.8395  135.1780  155.2772 C   0  0  0  0  0  0  0  0  0  0  0  0
  150.4198  136.5580  154.9611 C   0  0  0  0  0  0  0  0  0  0  0  0
  151.6091  136.7931  155.1737 O   0  0  0  0  0  0  0  0  0  0  0  0
  149.5663  137.4536  154.4423 N   0  0  0  0  0  0  0  0  0  0  0  0
  149.9262  138.8023  154.0190 C   0  0  0  0  0  0  0  0  0  0  0  0
  150.3622  139.7073  155.1614 C   0  0  0  0  0  0  0  0  0  0  0  0
  151.5439  139.4653  155.8923 C   0  0  0  0  0  0  0  0  0  0  0  0
  151.8926  140.3406  156.9380 C   0  0  0  0  0  0  0  0  0  0  0  0
  151.0541  141.4445  157.2243 C   0  0  0  0  0  0  0  0  0  0  0  0
  151.3821  142.3361  158.2693 N   0  0  0  0  0  0  0  0  0  0  0  0
  151.9214  143.6463  157.9087 C   0  0  0  0  0  0  0  0  0  0  0  0
  151.9383  144.5754  159.1339 C   0  0  0  0  0  0  0  0  0  0  0  0
  152.6622  143.9575  160.1925 O   0  0  0  0  0  0  0  0  0  0  0  0
  152.0560  142.7372  160.6052 C   0  0  0  0  0  0  0  0  0  0  0  0
  152.0363  141.7410  159.4325 C   0  0  0  0  0  0  0  0  0  0  0  0
  149.9199  141.6734  156.5167 N   0  0  0  0  0  0  0  0  0  0  0  0
  149.5899  140.8310  155.5153 C   0  0  0  0  0  0  0  0  0  0  0  0
  149.1443  133.2482  157.1069 S   0  0  0  0  0  0  0  0  0  0  0  0
  150.7606  132.4527  157.4799 C   0  0  0  0  0  0  0  0  0  0  0  0
  148.3506  133.2932  158.3445 O   0  0  0  0  0  0  0  0  0  0  0  0
  148.5848  132.6205  155.9001 O   0  0  0  0  0  0  0  0  0  0  0  0
  148.0302  136.2241  157.1343 H   0  0  0  0  0  0  0  0  0  0  0  0
  149.6483  136.8528  157.4904 H   0  0  0  0  0  0  0  0  0  0  0  0
  148.9226  135.6628  158.5523 H   0  0  0  0  0  0  0  0  0  0  0  0
  150.5197  134.4346  154.8612 H   0  0  0  0  0  0  0  0  0  0  0  0
  148.8999  135.0636  154.7355 H   0  0  0  0  0  0  0  0  0  0  0  0
  148.6062  137.1711  154.3070 H   0  0  0  0  0  0  0  0  0  0  0  0
  150.7504  138.7275  153.3096 H   0  0  0  0  0  0  0  0  0  0  0  0
  149.0935  139.2553  153.4782 H   0  0  0  0  0  0  0  0  0  0  0  0
  152.1761  138.6201  155.6633 H   0  0  0  0  0  0  0  0  0  0  0  0
  152.7852  140.1461  157.5132 H   0  0  0  0  0  0  0  0  0  0  0  0
  152.9328  143.5254  157.5179 H   0  0  0  0  0  0  0  0  0  0  0  0
  151.3184  144.1004  157.1212 H   0  0  0  0  0  0  0  0  0  0  0  0
  152.4162  145.5217  158.8806 H   0  0  0  0  0  0  0  0  0  0  0  0
  150.9231  144.8082  159.4595 H   0  0  0  0  0  0  0  0  0  0  0  0
  152.6234  142.3237  161.4389 H   0  0  0  0  0  0  0  0  0  0  0  0
  151.0454  142.9262  160.9710 H   0  0  0  0  0  0  0  0  0  0  0  0
  151.5390  140.8276  159.7547 H   0  0  0  0  0  0  0  0  0  0  0  0
  153.0559  141.4662  159.1593 H   0  0  0  0  0  0  0  0  0  0  0  0
  148.6780  141.0614  154.9846 H   0  0  0  0  0  0  0  0  0  0  0  0
  150.5952  131.4081  157.7431 H   0  0  0  0  0  0  0  0  0  0  0  0
  151.2377  132.9624  158.3162 H   0  0  0  0  0  0  0  0  0  0  0  0
  151.4064  132.5048  156.6038 H   0  0  0  0  0  0  0  0  0  0  0  0
  1  2  1  0  0  0  0
  1 24  1  0  0  0  0
  1 25  1  0  0  0  0
  1 26  1  0  0  0  0
  2  3  1  0  0  0  0
  2 20  1  0  0  0  0
  3  4  1  0  0  0  0
  3 27  1  0  0  0  0
  3 28  1  0  0  0  0
  4  5  2  0  0  0  0
  4  6  1  0  0  0  0
  6  7  1  0  0  0  0
  6 29  1  0  0  0  0
  7  8  1  0  0  0  0
  7 30  1  0  0  0  0
  7 31  1  0  0  0  0
  8 19  1  0  0  0  0
  8  9  2  0  0  0  0
  9 10  1  0  0  0  0
  9 32  1  0  0  0  0
 10 11  2  0  0  0  0
 10 33  1  0  0  0  0
 11 12  1  0  0  0  0
 11 18  1  0  0  0  0
 12 17  1  0  0  0  0
 12 13  1  0  0  0  0
 13 14  1  0  0  0  0
 13 34  1  0  0  0  0
 13 35  1  0  0  0  0
 14 15  1  0  0  0  0
 14 36  1  0  0  0  0
 14 37  1  0  0  0  0
 15 16  1  0  0  0  0
 16 17  1  0  0  0  0
 16 38  1  0  0  0  0
 16 39  1  0  0  0  0
 17 40  1  0  0  0  0
 17 41  1  0  0  0  0
 18 19  2  0  0  0  0
 19 42  1  0  0  0  0
 20 21  1  0  0  0  0
 20 22  2  0  0  0  0
 20 23  2  0  0  0  0
 21 43  1  0  0  0  0
 21 44  1  0  0  0  0
 21 45  1  0  0  0  0
M  END
> <s_m_source_file>
AV-unprocessed.smi

> <i_m_source_file_index>
2081

> <i_lp_mmshare_version>
43012

> <i_f3d_flags>
0

> <s_epik_input>
W0NIM11TKD1PKSg9TylOKFtDSDNdKVtDSDJdQyg9TylbTkhdW0NIMl1jMVtjSF1bY0hdYyhuW2NIXTEpTjJbQ0gyXVtDSDJdT1tDSDJdW0NIMl0y

> <s_epik_cmdline>
J2VwaWtfcHl0aG9uJywgJy1waCcsICc3LjAnLCAnLXRuJywgJzgnLCAnLW1hJywgJzIwMCcsICctbWV0YWxfYmluZGluZycsICctaW1hZScsICc8aW5maWxlLm1hZT4nLCAnLW9tYWUnLCAnPG91dGZpbGUubWFlPic=

> <r_lp_tautomer_probability>
1

> <r_epik_Ionization_Penalty>
0.00477463

> <r_epik_Ionization_Penalty_Charging>
0

> <r_epik_Ionization_Penalty_Neutral>
0.00477463

> <r_epik_State_Penalty>
0.00345982

> <r_epik_Charging_Adjusted_Penalty>
0.00345982

> <i_epik_Tot_Q>
0

> <i_epik_Tot_abs_Q>
0

> <r_epik_Metal_State_Penalty>
-0

> <b_epik_Metal_Only>
0

> <s_lp_Force_Field>
OPLS_2005

> <r_lp_Energy>
5.64261

> <b_lp_Chiralities_Consistent>
1

> <s_lp_Variant>
AV-unprocessed.smi:2081-1

> <Gold.Version>
5.8.1

> <Gold.Id.Protein>
6NUR|6NUR_protein|mol2

> <Gold.PLP.Fitness>
44.4482

> <Gold.PLP.PLP>
-39.6735

> <Gold.PLP.part.hbond>
-3.0000

> <Gold.PLP.part.metal>
0.0000

> <Gold.PLP.part.buried>
-4.8546

> <Gold.PLP.part.nonpolar>
-33.1551

> <Gold.PLP.part.repulsive>
0.2971

> <Gold.PLP.ligand.clash>
0.0000

> <Gold.PLP.ligand.torsion>
1.9908

> <Gold.PLP.Chemscore.Hbond>
2.0000

> <Gold.PLP.Chemscore.CHOScore>
0.0000

> <Gold.PLP.Chemscore.Metal>
0.0000

> <Gold.Chemscore.Hbonds>
donor molecule, donor type, donor heavy atom, donor atom, acceptor molecule, acceptor atom, score
      P1  H 10752 10765       L1     5  1.00

> <Gold.PLP.Chemscore.Internal.Correction>
2.7562

> <Gold.Rescore>
     Score         DG    S(hbond)    S(metal)    S(lipo)     H(rot)  DE(clash)    DE(int)     intcor
     14.74     -17.28       1.92        0.00      91.57       2.07       0.23       2.32       ----

> <Gold.Chemscore.Fitness>
14.7352

> <Gold.Chemscore.DG>
-17.2847

> <Gold.Chemscore.ZeroCoef>
-5.4800

> <Gold.Chemscore.Hbond>
1.9169

> <Gold.Chemscore.Metal>
0.0000

> <Gold.Chemscore.Lipo>
91.5712

> <Gold.Chemscore.Internal_Hbond>
0.0000

> <Gold.Chemscore.DEClash>
0.2315

> <Gold.Chemscore.DEInternal>
2.3180

> <Gold.Chemscore.Rot>
2.0748

> <Gold.Chemscore.Internal.Correction>
   9.000000E+99

> <Gold.Chemscore.Hbonds>
donor molecule, donor type, donor heavy atom, donor atom, acceptor molecule, acceptor atom, score
      P1  H 10752 10765       L1     5  0.95

> <Gold.Chemscore.Hbond.Weighted>
-6.4024

> <Gold.Chemscore.Metal.Weighted>
-0.0000

> <Gold.Chemscore.Lipo.Weighted>
-10.7138

> <Gold.Chemscore.Internal_Hbond.Weighted>
0.0000

> <Gold.Chemscore.DEClash.Weighted>
0.2315

> <Gold.Chemscore.DEInternal.Weighted>
2.3180

> <Gold.Chemscore.Rot.Weighted>
5.3115

> <Gold.Chemscore.Internal.Correction.Weighted>
   9.000000E+99

> <Gold.Protein.RotatedTorsions>
[ 6907 6896 6895 6894 ] final  120.74 input  -60.11 | X-H torsion
[ 7974 7965 7964 7962 ] final -178.63 input  175.53 | X-H torsion
[ 8008 7997 7996 7995 ] final   44.49 input   59.86 | X-H torsion
[ 10167 10162 10161 10158 ] final  -16.60 input  -65.29 | X-H torsion
[ 10718 10713 10712 10709 ] final -139.40 input   66.30 | X-H torsion
[ 10763 10752 10751 10750 ] final  169.93 input  -60.55 | X-H torsion
[ 11005 11000 10999 10996 ] final   89.15 input  -57.11 | X-H torsion

> <Gold.Protein.ActiveResidues>
 VAL166  LYS551  ARG553  GLY616  TRP617  ASP618  TYR619  PRO620  LYS621  CYS622 
 ASP623  PHE694  ASN695  SER759  ASP760  ASP761  ALA762  ILE779  LEU786  VAL792 
 PHE793  MET794  SER795  GLU796  ALA797  LYS798  CYS799  TRP800  GLU811  SER814 

> <Gold.Protein.RotatedAtoms>
  152.4375  133.7387  159.6628 H   0  0  0  0  0  0  0  0  0  0  0  0  # atno 6907 bound_to 6896
  150.8260  133.8160  159.3124 H   0  0  0  0  0  0  0  0  0  0  0  0  # atno 6908 bound_to 6896
  151.5828  135.1060  160.0073 H   0  0  0  0  0  0  0  0  0  0  0  0  # atno 6909 bound_to 6896
  144.7132  140.0839  143.6424 H   0  0  0  0  0  0  0  0  0  0  0  0  # atno 7974 bound_to 7965
  155.3202  140.3396  155.4241 H   0  0  0  0  0  0  0  0  0  0  0  0  # atno 8008 bound_to 7997
  156.1913  140.1698  156.8124 H   0  0  0  0  0  0  0  0  0  0  0  0  # atno 8009 bound_to 7997
  154.5445  140.0718  156.8549 H   0  0  0  0  0  0  0  0  0  0  0  0  # atno 8010 bound_to 7997
  140.7236  143.5100  150.9762 H   0  0  0  0  0  0  0  0  0  0  0  0  # atno 10167 bound_to 10162
  156.3103  130.7478  151.1552 H   0  0  0  0  0  0  0  0  0  0  0  0  # atno 10718 bound_to 10713
  154.3902  135.2754  155.2159 H   0  0  0  0  0  0  0  0  0  0  0  0  # atno 10763 bound_to 10752
  154.4228  135.5996  153.6024 H   0  0  0  0  0  0  0  0  0  0  0  0  # atno 10764 bound_to 10752
  152.9832  135.5977  154.4156 H   0  0  0  0  0  0  0  0  0  0  0  0  # atno 10765 bound_to 10752
  139.8881  134.8533  156.3101 H   0  0  0  0  0  0  0  0  0  0  0  0  # atno 11005 bound_to 11000
  145.9678  139.2847  143.1117 LP  0  0  0  0  0  0  0  0  0  0  0  0  # atno 17320 bound_to 7965
  145.9150  140.9154  143.0434 LP  0  0  0  0  0  0  0  0  0  0  0  0  # atno 17321 bound_to 7965
  139.8813  143.7068  152.3156 LP  0  0  0  0  0  0  0  0  0  0  0  0  # atno 17342 bound_to 10162
  139.7351  144.7573  151.0740 LP  0  0  0  0  0  0  0  0  0  0  0  0  # atno 17343 bound_to 10162
  157.7389  131.0535  150.5264 LP  0  0  0  0  0  0  0  0  0  0  0  0  # atno 17370 bound_to 10713
  156.5403  130.4206  149.6157 LP  0  0  0  0  0  0  0  0  0  0  0  0  # atno 17371 bound_to 10713
  140.9856  133.7240  156.0737 LP  0  0  0  0  0  0  0  0  0  0  0  0  # atno 17394 bound_to 11000
  140.7692  134.3851  157.5511 LP  0  0  0  0  0  0  0  0  0  0  0  0  # atno 17395 bound_to 11000

$$$$
