AV-unprocessed.smi:848|AV-procd|sdf|3939|dock5
  -GOLD-   22720 1403D 1   1.00000     0.00000
 Structure written by MMmdl.
 46 48  0  0  0  0  0  0  0  0  1 V2000
  143.0487  144.8557  157.1920 C   0  0  0  0  0  0  0  0  0  0  0  0
  144.0920  144.2975  156.2460 C   0  0  0  0  0  0  0  0  0  0  0  0
  144.3036  144.8951  154.9876 C   0  0  0  0  0  0  0  0  0  0  0  0
  145.2744  144.3718  154.1120 C   0  0  0  0  0  0  0  0  0  0  0  0
  145.4955  145.0175  152.7595 C   0  0  0  0  0  0  0  0  0  0  0  0
  146.0360  143.2512  154.5012 C   0  0  0  0  0  0  0  0  0  0  0  0
  145.8391  142.6430  155.7579 C   0  0  0  0  0  0  0  0  0  0  0  0
  146.6318  141.5552  156.0554 O   0  0  0  0  0  0  0  0  0  0  0  0
  147.9272  141.4847  155.4748 C   0  0  0  0  0  0  0  0  0  0  0  0
  148.9770  141.4893  156.5976 C   0  0  2  0  0  0  0  0  0  0  0  0
  148.7786  142.6408  157.3947 O   0  0  0  0  0  0  0  0  0  0  0  0
  150.4145  141.4995  156.0370 C   0  0  0  0  0  0  0  0  0  0  0  0
  151.4026  141.0219  156.9958 N   0  0  0  0  0  0  0  0  0  0  0  0
  152.0244  139.8160  157.0247 C   0  0  0  0  0  0  0  0  0  0  0  0
  151.7461  138.7673  155.9847 C   0  0  0  0  0  0  0  0  0  0  0  0
  151.8897  139.2237  154.6546 O   0  0  0  0  0  0  0  0  0  0  0  0
  152.8935  139.6394  158.0230 N   0  0  0  0  0  0  0  0  0  0  0  0
  152.8303  140.8404  158.7010 C   0  0  0  0  0  0  0  0  0  0  0  0
  153.5162  141.2800  159.8558 C   0  0  0  0  0  0  0  0  0  0  0  0
  153.2884  142.5723  160.3727 C   0  0  0  0  0  0  0  0  0  0  0  0
  152.3739  143.4414  159.7436 C   0  0  0  0  0  0  0  0  0  0  0  0
  151.6785  143.0225  158.5931 C   0  0  0  0  0  0  0  0  0  0  0  0
  151.9090  141.7310  158.0815 C   0  0  0  0  0  0  0  0  0  0  0  0
  144.8564  143.1766  156.6294 C   0  0  0  0  0  0  0  0  0  0  0  0
  142.4385  145.6183  156.7073 H   0  0  0  0  0  0  0  0  0  0  0  0
  143.5302  145.3045  158.0610 H   0  0  0  0  0  0  0  0  0  0  0  0
  142.3864  144.0615  157.5378 H   0  0  0  0  0  0  0  0  0  0  0  0
  143.7213  145.7555  154.6907 H   0  0  0  0  0  0  0  0  0  0  0  0
  146.1619  144.4194  152.1372 H   0  0  0  0  0  0  0  0  0  0  0  0
  145.9375  146.0064  152.8820 H   0  0  0  0  0  0  0  0  0  0  0  0
  144.5474  145.1274  152.2323 H   0  0  0  0  0  0  0  0  0  0  0  0
  146.7823  142.8494  153.8313 H   0  0  0  0  0  0  0  0  0  0  0  0
  148.0026  140.5494  154.9177 H   0  0  0  0  0  0  0  0  0  0  0  0
  148.1020  142.3047  154.7757 H   0  0  0  0  0  0  0  0  0  0  0  0
  148.8421  140.6067  157.2233 H   0  0  0  0  0  0  0  0  0  0  0  0
  148.7339  143.3959  156.8283 H   0  0  0  0  0  0  0  0  0  0  0  0
  150.4747  140.8860  155.1376 H   0  0  0  0  0  0  0  0  0  0  0  0
  150.6915  142.5084  155.7284 H   0  0  0  0  0  0  0  0  0  0  0  0
  152.4208  137.9245  156.1308 H   0  0  0  0  0  0  0  0  0  0  0  0
  150.7284  138.3990  156.1155 H   0  0  0  0  0  0  0  0  0  0  0  0
  152.3782  138.5794  154.1662 H   0  0  0  0  0  0  0  0  0  0  0  0
  154.2192  140.6216  160.3442 H   0  0  0  0  0  0  0  0  0  0  0  0
  153.8182  142.8976  161.2559 H   0  0  0  0  0  0  0  0  0  0  0  0
  152.2059  144.4299  160.1455 H   0  0  0  0  0  0  0  0  0  0  0  0
  150.9756  143.6855  158.1116 H   0  0  0  0  0  0  0  0  0  0  0  0
  144.6717  142.7426  157.6002 H   0  0  0  0  0  0  0  0  0  0  0  0
  1  2  1  0  0  0  0
  1 25  1  0  0  0  0
  1 26  1  0  0  0  0
  1 27  1  0  0  0  0
  2 24  1  0  0  0  0
  2  3  2  0  0  0  0
  3  4  1  0  0  0  0
  3 28  1  0  0  0  0
  4  5  1  0  0  0  0
  4  6  2  0  0  0  0
  5 29  1  0  0  0  0
  5 30  1  0  0  0  0
  5 31  1  0  0  0  0
  6  7  1  0  0  0  0
  6 32  1  0  0  0  0
  7  8  1  0  0  0  0
  7 24  2  0  0  0  0
  8  9  1  0  0  0  0
  9 10  1  0  0  0  0
  9 33  1  0  0  0  0
  9 34  1  0  0  0  0
 10 11  1  0  0  0  0
 10 12  1  0  0  0  0
 10 35  1  0  0  0  0
 11 36  1  0  0  0  0
 12 13  1  0  0  0  0
 12 37  1  0  0  0  0
 12 38  1  0  0  0  0
 13 23  1  0  0  0  0
 13 14  1  0  0  0  0
 14 15  1  0  0  0  0
 14 17  2  0  0  0  0
 15 16  1  0  0  0  0
 15 39  1  0  0  0  0
 15 40  1  0  0  0  0
 16 41  1  0  0  0  0
 17 18  1  0  0  0  0
 18 23  2  0  0  0  0
 18 19  1  0  0  0  0
 19 20  2  0  0  0  0
 19 42  1  0  0  0  0
 20 21  1  0  0  0  0
 20 43  1  0  0  0  0
 21 22  2  0  0  0  0
 21 44  1  0  0  0  0
 22 23  1  0  0  0  0
 22 45  1  0  0  0  0
 24 46  1  0  0  0  0
M  END
> <s_m_source_file>
AV-unprocessed.smi

> <i_m_source_file_index>
848

> <i_lp_mmshare_version>
43012

> <i_f3d_flags>
0

> <s_epik_input>
W0NIM11jMVtjSF1jKFtDSDNdKVtjSF1jKFtjSF0xKU9bQ0gyXVtDQEhdKFtPSF0pW0NIMl1uKGMobjIpW0NIMl1bT0hdKWMoYzIzKVtjSF1bY0hdW2NIXVtjSF0z

> <s_epik_cmdline>
J2VwaWtfcHl0aG9uJywgJy1waCcsICc3LjAnLCAnLXRuJywgJzgnLCAnLW1hJywgJzIwMCcsICctbWV0YWxfYmluZGluZycsICctaW1hZScsICc8aW5maWxlLm1hZT4nLCAnLW9tYWUnLCAnPG91dGZpbGUubWFlPic=

> <r_lp_tautomer_probability>
1

> <r_epik_Ionization_Penalty>
0.0554234

> <r_epik_Ionization_Penalty_Charging>
0

> <r_epik_Ionization_Penalty_Neutral>
0.0554234

> <r_epik_State_Penalty>
0.0476717

> <r_epik_Charging_Adjusted_Penalty>
0.0476717

> <i_epik_Tot_Q>
0

> <i_epik_Tot_abs_Q>
0

> <r_epik_Metal_State_Penalty>
4.96399e-05

> <b_epik_Metal_Only>
0

> <s_lp_Force_Field>
OPLS_2005

> <r_lp_Energy>
17.4445

> <b_lp_Chiralities_Consistent>
1

> <s_lp_Variant>
AV-unprocessed.smi:848-1

> <Gold.Version>
5.8.1

> <Gold.Id.Protein>
6NUR|6NUR_protein|mol2

> <Gold.PLP.Fitness>
55.4070

> <Gold.PLP.PLP>
-48.9538

> <Gold.PLP.part.hbond>
-3.0000

> <Gold.PLP.part.metal>
0.0000

> <Gold.PLP.part.buried>
-6.4374

> <Gold.PLP.part.nonpolar>
-40.2135

> <Gold.PLP.part.repulsive>
0.0742

> <Gold.PLP.ligand.clash>
0.0000

> <Gold.PLP.ligand.torsion>
1.2234

> <Gold.PLP.Chemscore.Hbond>
2.9280

> <Gold.PLP.Chemscore.CHOScore>
0.0000

> <Gold.PLP.Chemscore.Metal>
0.0000

> <Gold.Chemscore.Hbonds>
donor molecule, donor type, donor heavy atom, donor atom, acceptor molecule, acceptor atom, score
      L1  H    11    36       P1  8028  1.00
      P1  H  7989  7998       L1    16  0.98
      P1  H  7997  8008       L1    17  0.75

> <Gold.PLP.Chemscore.Internal.Correction>
0.1160

> <Gold.Rescore>
     Score         DG    S(hbond)    S(metal)    S(lipo)     H(rot)  DE(clash)    DE(int)     intcor
     16.71     -18.05       1.61        0.00     126.03       2.96       0.06       1.28       ----

> <Gold.Chemscore.Fitness>
16.7090

> <Gold.Chemscore.DG>
-18.0465

> <Gold.Chemscore.ZeroCoef>
-5.4800

> <Gold.Chemscore.Hbond>
1.6133

> <Gold.Chemscore.Metal>
0.0000

> <Gold.Chemscore.Lipo>
126.0328

> <Gold.Chemscore.Internal_Hbond>
0.0000

> <Gold.Chemscore.DEClash>
0.0599

> <Gold.Chemscore.DEInternal>
1.2776

> <Gold.Chemscore.Rot>
2.9561

> <Gold.Chemscore.Internal.Correction>
   9.000000E+99

> <Gold.Chemscore.Hbonds>
donor molecule, donor type, donor heavy atom, donor atom, acceptor molecule, acceptor atom, score
      L1  H    11    36       P1  8028  0.60
      P1  H  7989  7998       L1    16  0.58
      P1  H  7997  8008       L1    17  0.03

> <Gold.Chemscore.Hbond.Weighted>
-5.3883

> <Gold.Chemscore.Metal.Weighted>
-0.0000

> <Gold.Chemscore.Lipo.Weighted>
-14.7458

> <Gold.Chemscore.Internal_Hbond.Weighted>
0.0000

> <Gold.Chemscore.DEClash.Weighted>
0.0599

> <Gold.Chemscore.DEInternal.Weighted>
1.2776

> <Gold.Chemscore.Rot.Weighted>
7.5677

> <Gold.Chemscore.Internal.Correction.Weighted>
   9.000000E+99

> <Gold.Protein.RotatedTorsions>
[ 6907 6896 6895 6894 ] final   36.05 input  -60.11 | X-H torsion
[ 7974 7965 7964 7962 ] final  157.18 input  175.53 | X-H torsion
[ 8008 7997 7996 7995 ] final  -91.11 input   59.86 | X-H torsion
[ 10167 10162 10161 10158 ] final   97.14 input  -65.29 | X-H torsion
[ 10718 10713 10712 10709 ] final    7.35 input   66.30 | X-H torsion
[ 10763 10752 10751 10750 ] final  -16.39 input  -60.55 | X-H torsion
[ 11005 11000 10999 10996 ] final -163.71 input  -57.11 | X-H torsion

> <Gold.Protein.ActiveResidues>
 VAL166  LYS551  ARG553  GLY616  TRP617  ASP618  TYR619  PRO620  LYS621  CYS622 
 ASP623  PHE694  ASN695  SER759  ASP760  ASP761  ALA762  ILE779  LEU786  VAL792 
 PHE793  MET794  SER795  GLU796  ALA797  LYS798  CYS799  TRP800  GLU811  SER814 

> <Gold.Protein.RotatedAtoms>
  152.1244  134.9181  160.0561 H   0  0  0  0  0  0  0  0  0  0  0  0  # atno 6907 bound_to 6896
  152.0310  133.3932  159.4305 H   0  0  0  0  0  0  0  0  0  0  0  0  # atno 6908 bound_to 6896
  150.6851  134.3442  159.4925 H   0  0  0  0  0  0  0  0  0  0  0  0  # atno 6909 bound_to 6896
  144.7919  139.7305  143.6218 H   0  0  0  0  0  0  0  0  0  0  0  0  # atno 7974 bound_to 7965
  154.7068  140.0523  157.0511 H   0  0  0  0  0  0  0  0  0  0  0  0  # atno 8008 bound_to 7997
  155.0609  140.3189  155.4642 H   0  0  0  0  0  0  0  0  0  0  0  0  # atno 8009 bound_to 7997
  156.2777  140.2099  156.5736 H   0  0  0  0  0  0  0  0  0  0  0  0  # atno 8010 bound_to 7997
  139.7828  144.6882  150.9998 H   0  0  0  0  0  0  0  0  0  0  0  0  # atno 10167 bound_to 10162
  156.9356  130.5842  149.5651 H   0  0  0  0  0  0  0  0  0  0  0  0  # atno 10718 bound_to 10713
  153.5578  135.7010  153.5561 H   0  0  0  0  0  0  0  0  0  0  0  0  # atno 10763 bound_to 10752
  153.3457  135.4009  155.1606 H   0  0  0  0  0  0  0  0  0  0  0  0  # atno 10764 bound_to 10752
  154.8652  135.3753  154.5093 H   0  0  0  0  0  0  0  0  0  0  0  0  # atno 10765 bound_to 10752
  140.5951  134.5005  157.5198 H   0  0  0  0  0  0  0  0  0  0  0  0  # atno 11005 bound_to 11000
  146.2174  139.5573  142.9641 LP  0  0  0  0  0  0  0  0  0  0  0  0  # atno 17320 bound_to 7965
  145.5773  141.0387  143.2141 LP  0  0  0  0  0  0  0  0  0  0  0  0  # atno 17321 bound_to 7965
  140.7819  143.4464  151.0476 LP  0  0  0  0  0  0  0  0  0  0  0  0  # atno 17342 bound_to 10162
  139.8144  143.7906  152.3173 LP  0  0  0  0  0  0  0  0  0  0  0  0  # atno 17343 bound_to 10162
  156.0427  130.5508  150.8809 LP  0  0  0  0  0  0  0  0  0  0  0  0  # atno 17370 bound_to 10713
  157.5818  131.0946  150.9258 LP  0  0  0  0  0  0  0  0  0  0  0  0  # atno 17371 bound_to 10713
  139.9257  134.8061  156.1076 LP  0  0  0  0  0  0  0  0  0  0  0  0  # atno 17394 bound_to 11000
  141.0909  133.6714  156.2539 LP  0  0  0  0  0  0  0  0  0  0  0  0  # atno 17395 bound_to 11000

$$$$
