AV-unprocessed.smi:3031|AV-procd|sdf|11546|dock7
  -GOLD-   2272016503D 1   1.00000     0.00000
 Structure written by MMmdl.
 47 48  0  0  0  0  0  0  0  0  2 V2000
  152.1986  139.2638  157.8256 C   0  0  0  0  0  0  0  0  0  0  0  0
  151.4310  139.7644  156.6364 C   0  0  0  0  0  0  0  0  0  0  0  0
  151.4500  139.2566  155.3063 C   0  0  0  0  0  0  0  0  0  0  0  0
  150.6530  139.9249  154.4887 N   0  0  0  0  0  0  0  0  0  0  0  0
  150.1010  140.8823  155.2643 N   0  0  0  0  0  0  0  0  0  0  0  0
  149.1522  141.8218  154.6933 C   0  0  0  0  0  0  0  0  0  0  0  0
  147.7848  141.1752  154.3611 C   0  0  1  0  0  0  0  0  0  0  0  0
  146.6825  142.2204  154.1160 C   0  0  0  0  0  0  0  0  0  0  0  0
  147.8694  140.2916  153.1937 N   0  0  0  0  0  0  0  0  0  0  0  0
  147.3198  138.9477  153.3757 C   0  0  0  0  0  0  0  0  0  0  0  0
  146.7615  138.3879  152.0567 C   0  0  2  0  0  0  0  0  0  0  0  0
  146.2301  139.4759  151.3277 O   0  0  0  0  0  0  0  0  0  0  0  0
  145.6329  137.3571  152.2741 C   0  0  0  0  0  0  0  0  0  0  0  0
  146.1183  135.9560  152.1901 N   0  3  0  0  0  0  0  0  0  0  0  0
  145.8309  135.1522  153.4044 C   0  0  0  0  0  0  0  0  0  0  0  0
  146.4017  133.7316  153.2551 C   0  0  0  0  0  0  0  0  0  0  0  0
  145.8606  133.1194  152.0911 O   0  0  0  0  0  0  0  0  0  0  0  0
  146.2023  133.8313  150.9087 C   0  0  0  0  0  0  0  0  0  0  0  0
  145.6269  135.2562  150.9792 C   0  0  0  0  0  0  0  0  0  0  0  0
  150.5495  140.8058  156.5657 C   0  0  0  0  0  0  0  0  0  0  0  0
  153.0762  138.6893  157.5284 H   0  0  0  0  0  0  0  0  0  0  0  0
  151.5870  138.6157  158.4534 H   0  0  0  0  0  0  0  0  0  0  0  0
  152.5492  140.0829  158.4537 H   0  0  0  0  0  0  0  0  0  0  0  0
  152.0164  138.4254  154.9131 H   0  0  0  0  0  0  0  0  0  0  0  0
  149.0173  142.6522  155.3886 H   0  0  0  0  0  0  0  0  0  0  0  0
  149.6135  142.2374  153.7976 H   0  0  0  0  0  0  0  0  0  0  0  0
  147.4774  140.5814  155.2232 H   0  0  0  0  0  0  0  0  0  0  0  0
  146.4923  142.8219  155.0052 H   0  0  0  0  0  0  0  0  0  0  0  0
  145.7398  141.7413  153.8494 H   0  0  0  0  0  0  0  0  0  0  0  0
  146.9516  142.8992  153.3062 H   0  0  0  0  0  0  0  0  0  0  0  0
  148.8353  140.2281  152.8886 H   0  0  0  0  0  0  0  0  0  0  0  0
  148.0786  138.2664  153.7605 H   0  0  0  0  0  0  0  0  0  0  0  0
  146.5227  138.9831  154.1199 H   0  0  0  0  0  0  0  0  0  0  0  0
  147.5807  137.9612  151.4782 H   0  0  0  0  0  0  0  0  0  0  0  0
  145.4206  139.7461  151.7341 H   0  0  0  0  0  0  0  0  0  0  0  0
  145.1507  137.5061  153.2413 H   0  0  0  0  0  0  0  0  0  0  0  0
  144.8591  137.5250  151.5231 H   0  0  0  0  0  0  0  0  0  0  0  0
  146.2632  135.6217  154.2870 H   0  0  0  0  0  0  0  0  0  0  0  0
  144.7528  135.1029  153.5652 H   0  0  0  0  0  0  0  0  0  0  0  0
  147.4911  133.7525  153.1977 H   0  0  0  0  0  0  0  0  0  0  0  0
  146.1404  133.1286  154.1249 H   0  0  0  0  0  0  0  0  0  0  0  0
  147.2860  133.8534  150.7825 H   0  0  0  0  0  0  0  0  0  0  0  0
  145.7923  133.3028  150.0479 H   0  0  0  0  0  0  0  0  0  0  0  0
  144.5365  135.2193  150.9946 H   0  0  0  0  0  0  0  0  0  0  0  0
  145.9174  135.8112  150.0864 H   0  0  0  0  0  0  0  0  0  0  0  0
  150.2089  141.4938  157.3254 H   0  0  0  0  0  0  0  0  0  0  0  0
  147.1232  136.0084  152.0989 H   0  0  0  0  0  0  0  0  0  0  0  0
  1  2  1  0  0  0  0
  1 21  1  0  0  0  0
  1 22  1  0  0  0  0
  1 23  1  0  0  0  0
  2 20  2  0  0  0  0
  2  3  1  0  0  0  0
  3  4  2  0  0  0  0
  3 24  1  0  0  0  0
  4  5  1  0  0  0  0
  5  6  1  0  0  0  0
  5 20  1  0  0  0  0
  6  7  1  0  0  0  0
  6 25  1  0  0  0  0
  6 26  1  0  0  0  0
  7  8  1  0  0  0  0
  7  9  1  0  0  0  0
  7 27  1  0  0  0  0
  8 28  1  0  0  0  0
  8 29  1  0  0  0  0
  8 30  1  0  0  0  0
  9 10  1  0  0  0  0
  9 31  1  0  0  0  0
 10 11  1  0  0  0  0
 10 32  1  0  0  0  0
 10 33  1  0  0  0  0
 11 12  1  0  0  0  0
 11 13  1  0  0  0  0
 11 34  1  0  0  0  0
 12 35  1  0  0  0  0
 13 14  1  0  0  0  0
 13 36  1  0  0  0  0
 13 37  1  0  0  0  0
 14 19  1  0  0  0  0
 14 15  1  0  0  0  0
 14 47  1  0  0  0  0
 15 16  1  0  0  0  0
 15 38  1  0  0  0  0
 15 39  1  0  0  0  0
 16 17  1  0  0  0  0
 16 40  1  0  0  0  0
 16 41  1  0  0  0  0
 17 18  1  0  0  0  0
 18 19  1  0  0  0  0
 18 42  1  0  0  0  0
 18 43  1  0  0  0  0
 19 44  1  0  0  0  0
 19 45  1  0  0  0  0
 20 46  1  0  0  0  0
M  CHG  1  14   1
M  END
> <s_m_source_file>
AV-unprocessed.smi

> <i_m_source_file_index>
3031

> <i_lp_mmshare_version>
43012

> <i_f3d_flags>
0

> <s_epik_input>
W0NIM11jMVtjSF1ubihbY0hdMSlbQ0gyXVtDQEhdKFtDSDNdKVtOSF1bQ0gyXVtDQEhdKFtPSF0pW0NIMl1OMltDSDJdW0NIMl1PW0NIMl1bQ0gyXTI=

> <s_epik_cmdline>
J2VwaWtfcHl0aG9uJywgJy1waCcsICc3LjAnLCAnLXRuJywgJzgnLCAnLW1hJywgJzIwMCcsICctbWV0YWxfYmluZGluZycsICctaW1hZScsICc8aW5maWxlLm1hZT4nLCAnLW9tYWUnLCAnPG91dGZpbGUubWFlPic=

> <r_epik_Ionization_Penalty>
0.467051

> <r_epik_Ionization_Penalty_Charging>
0.202493

> <r_epik_Ionization_Penalty_Neutral>
0.264558

> <r_epik_State_Penalty>
1.34287

> <r_epik_Charging_Adjusted_Penalty>
1.54537

> <i_epik_Tot_Q>
1

> <i_epik_Tot_abs_Q>
1

> <r_epik_Metal_State_Penalty>
1.34281

> <b_epik_Metal_Only>
0

> <s_lp_Force_Field>
OPLS_2005

> <r_lp_Energy>
23.2864

> <b_lp_Chiralities_Consistent>
1

> <s_lp_Variant>
AV-unprocessed.smi:3031-6

> <Gold.Version>
5.8.1

> <Gold.Id.Protein>
6NUR|6NUR_protein|mol2

> <Gold.PLP.Fitness>
47.5599

> <Gold.PLP.PLP>
-38.6977

> <Gold.PLP.part.hbond>
-5.0000

> <Gold.PLP.part.metal>
0.0000

> <Gold.PLP.part.buried>
-1.3188

> <Gold.PLP.part.nonpolar>
-32.9179

> <Gold.PLP.part.repulsive>
0.2511

> <Gold.PLP.ligand.clash>
0.0000

> <Gold.PLP.ligand.torsion>
2.6469

> <Gold.PLP.Chemscore.Hbond>
4.6560

> <Gold.PLP.Chemscore.CHOScore>
0.0000

> <Gold.PLP.Chemscore.Metal>
0.0000

> <Gold.Chemscore.Hbonds>
donor molecule, donor type, donor heavy atom, donor atom, acceptor molecule, acceptor atom, score
      L1  H     9    31       P1  7957  0.62
      L1  H    12    35       P1 10175  1.00
      L1  H    14    47       P1  7948  2.00
      P1  H  7989  7998       L1     4  1.00

> <Gold.PLP.Chemscore.Internal.Correction>
0.1880

> <Gold.Rescore>
     Score         DG    S(hbond)    S(metal)    S(lipo)     H(rot)  DE(clash)    DE(int)     intcor
     16.37     -19.81       3.45        0.00      82.07       2.65       0.63       2.82       ----

> <Gold.Chemscore.Fitness>
16.3668

> <Gold.Chemscore.DG>
-19.8109

> <Gold.Chemscore.ZeroCoef>
-5.4800

> <Gold.Chemscore.Hbond>
3.4485

> <Gold.Chemscore.Metal>
0.0000

> <Gold.Chemscore.Lipo>
82.0704

> <Gold.Chemscore.Internal_Hbond>
0.0000

> <Gold.Chemscore.DEClash>
0.6285

> <Gold.Chemscore.DEInternal>
2.8156

> <Gold.Chemscore.Rot>
2.6521

> <Gold.Chemscore.Internal.Correction>
   9.000000E+99

> <Gold.Chemscore.Hbonds>
donor molecule, donor type, donor heavy atom, donor atom, acceptor molecule, acceptor atom, score
      L1  H     9    31       P1  7957  0.62
      L1  H    12    35       P1 10175  0.58
      L1  H    14    47       P1  7948  1.00
      P1  H  7989  7998       L1     4  0.17

> <Gold.Chemscore.Hbond.Weighted>
-11.5180

> <Gold.Chemscore.Metal.Weighted>
-0.0000

> <Gold.Chemscore.Lipo.Weighted>
-9.6022

> <Gold.Chemscore.Internal_Hbond.Weighted>
0.0000

> <Gold.Chemscore.DEClash.Weighted>
0.6285

> <Gold.Chemscore.DEInternal.Weighted>
2.8156

> <Gold.Chemscore.Rot.Weighted>
6.7894

> <Gold.Chemscore.Internal.Correction.Weighted>
   9.000000E+99

> <Gold.Protein.RotatedTorsions>
[ 6907 6896 6895 6894 ] final -178.14 input  -60.11 | X-H torsion
[ 7974 7965 7964 7962 ] final  121.94 input  175.53 | X-H torsion
[ 8008 7997 7996 7995 ] final  166.57 input   59.86 | X-H torsion
[ 10167 10162 10161 10158 ] final  -39.03 input  -65.29 | X-H torsion
[ 10718 10713 10712 10709 ] final  178.20 input   66.30 | X-H torsion
[ 10763 10752 10751 10750 ] final  -56.06 input  -60.55 | X-H torsion
[ 11005 11000 10999 10996 ] final   87.16 input  -57.11 | X-H torsion

> <Gold.Protein.ActiveResidues>
 VAL166  LYS551  ARG553  GLY616  TRP617  ASP618  TYR619  PRO620  LYS621  CYS622 
 ASP623  PHE694  ASN695  SER759  ASP760  ASP761  ALA762  ILE779  LEU786  VAL792 
 PHE793  MET794  SER795  GLU796  ALA797  LYS798  CYS799  TRP800  GLU811  SER814 

> <Gold.Protein.RotatedAtoms>
  151.6324  133.3331  159.3111 H   0  0  0  0  0  0  0  0  0  0  0  0  # atno 6907 bound_to 6896
  150.8050  134.7172  159.6647 H   0  0  0  0  0  0  0  0  0  0  0  0  # atno 6908 bound_to 6896
  152.4145  134.6071  160.0067 H   0  0  0  0  0  0  0  0  0  0  0  0  # atno 6909 bound_to 6896
  145.1133  139.3438  143.4751 H   0  0  0  0  0  0  0  0  0  0  0  0  # atno 7974 bound_to 7965
  156.1707  140.1640  156.8452 H   0  0  0  0  0  0  0  0  0  0  0  0  # atno 8008 bound_to 7997
  154.5254  140.0769  156.8282 H   0  0  0  0  0  0  0  0  0  0  0  0  # atno 8009 bound_to 7997
  155.3519  140.3390  155.4242 H   0  0  0  0  0  0  0  0  0  0  0  0  # atno 8010 bound_to 7997
  140.7076  143.3240  151.2724 H   0  0  0  0  0  0  0  0  0  0  0  0  # atno 10167 bound_to 10162
  156.8941  130.9857  151.3045 H   0  0  0  0  0  0  0  0  0  0  0  0  # atno 10718 bound_to 10713
  154.2006  135.6411  153.5086 H   0  0  0  0  0  0  0  0  0  0  0  0  # atno 10763 bound_to 10752
  153.0013  135.5450  154.6319 H   0  0  0  0  0  0  0  0  0  0  0  0  # atno 10764 bound_to 10752
  154.5731  135.2918  155.0781 H   0  0  0  0  0  0  0  0  0  0  0  0  # atno 10765 bound_to 10752
  139.8926  134.8404  156.2821 H   0  0  0  0  0  0  0  0  0  0  0  0  # atno 11005 bound_to 11000
  146.3525  140.1062  142.8606 LP  0  0  0  0  0  0  0  0  0  0  0  0  # atno 17320 bound_to 7965
  145.0822  140.9228  143.4819 LP  0  0  0  0  0  0  0  0  0  0  0  0  # atno 17321 bound_to 7965
  139.6702  144.0033  152.2748 LP  0  0  0  0  0  0  0  0  0  0  0  0  # atno 17342 bound_to 10162
  139.9629  144.6545  150.8062 LP  0  0  0  0  0  0  0  0  0  0  0  0  # atno 17343 bound_to 10162
  157.6066  130.8552  149.8885 LP  0  0  0  0  0  0  0  0  0  0  0  0  # atno 17370 bound_to 10713
  156.0614  130.3699  150.0973 LP  0  0  0  0  0  0  0  0  0  0  0  0  # atno 17371 bound_to 10713
  141.0032  133.7139  156.0993 LP  0  0  0  0  0  0  0  0  0  0  0  0  # atno 17394 bound_to 11000
  140.7470  134.4087  157.5547 LP  0  0  0  0  0  0  0  0  0  0  0  0  # atno 17395 bound_to 11000

$$$$
