AV-unprocessed.smi:2453|AV-procd|sdf|9689|dock2
  -GOLD-   2272013323D 1   1.00000     0.00000
 Structure written by MMmdl.
 40 41  0  0  0  0  0  0  0  0  1 V2000
  145.8443  135.4112  151.1785 C   0  0  0  0  0  0  0  0  0  0  0  0
  145.9418  133.9151  151.4210 C   0  0  0  0  0  0  0  0  0  0  0  0
  145.1085  133.0304  150.7027 C   0  0  0  0  0  0  0  0  0  0  0  0
  145.1346  131.6906  150.8553 N   0  0  0  0  0  0  0  0  0  0  0  0
  146.0130  131.1767  151.7404 C   0  0  0  0  0  0  0  0  0  0  0  0
  146.8912  131.9649  152.5092 C   0  0  0  0  0  0  0  0  0  0  0  0
  146.8520  133.3730  152.3613 C   0  0  0  0  0  0  0  0  0  0  0  0
  147.7023  134.2632  153.0777 N   0  0  0  0  0  0  0  0  0  0  0  0
  148.7354  133.9801  153.8902 C   0  0  0  0  0  0  0  0  0  0  0  0
  149.1402  132.8514  154.1669 O   0  0  0  0  0  0  0  0  0  0  0  0
  149.2746  135.1010  154.3906 N   0  0  0  0  0  0  0  0  0  0  0  0
  150.4157  135.1620  155.3061 C   0  0  2  0  0  0  0  0  0  0  0  0
  150.1368  134.3528  156.5919 C   0  0  0  0  0  0  0  0  0  0  0  0
  149.0698  135.0181  157.4770 C   0  0  0  0  0  0  0  0  0  0  0  0
  149.4498  136.4682  157.8082 C   0  0  0  0  0  0  0  0  0  0  0  0
  149.7097  137.2839  156.5317 C   0  0  0  0  0  0  0  0  0  0  0  0
  150.7907  136.6301  155.6442 C   0  0  2  0  0  0  0  0  0  0  0  0
  151.0872  137.4971  154.4021 C   0  0  0  0  0  0  0  0  0  0  0  0
  152.2351  137.0297  153.7251 O   0  0  0  0  0  0  0  0  0  0  0  0
  145.0764  135.6445  150.4405 H   0  0  0  0  0  0  0  0  0  0  0  0
  146.7943  135.7996  150.8101 H   0  0  0  0  0  0  0  0  0  0  0  0
  145.5919  135.9318  152.1026 H   0  0  0  0  0  0  0  0  0  0  0  0
  144.3984  133.4070  149.9811 H   0  0  0  0  0  0  0  0  0  0  0  0
  146.0217  130.1009  151.8346 H   0  0  0  0  0  0  0  0  0  0  0  0
  147.5775  131.4734  153.1808 H   0  0  0  0  0  0  0  0  0  0  0  0
  147.4513  135.2386  153.0115 H   0  0  0  0  0  0  0  0  0  0  0  0
  148.8706  135.9843  154.1157 H   0  0  0  0  0  0  0  0  0  0  0  0
  151.2717  134.7055  154.8059 H   0  0  0  0  0  0  0  0  0  0  0  0
  149.8350  133.3341  156.3462 H   0  0  0  0  0  0  0  0  0  0  0  0
  151.0625  134.2609  157.1614 H   0  0  0  0  0  0  0  0  0  0  0  0
  148.1037  134.9976  156.9710 H   0  0  0  0  0  0  0  0  0  0  0  0
  148.9462  134.4488  158.3987 H   0  0  0  0  0  0  0  0  0  0  0  0
  148.6568  136.9350  158.3929 H   0  0  0  0  0  0  0  0  0  0  0  0
  150.3420  136.4775  158.4357 H   0  0  0  0  0  0  0  0  0  0  0  0
  148.7803  137.3897  155.9708 H   0  0  0  0  0  0  0  0  0  0  0  0
  150.0159  138.2934  156.8082 H   0  0  0  0  0  0  0  0  0  0  0  0
  151.7072  136.6013  156.2361 H   0  0  0  0  0  0  0  0  0  0  0  0
  150.2419  137.5152  153.7138 H   0  0  0  0  0  0  0  0  0  0  0  0
  151.2730  138.5292  154.7007 H   0  0  0  0  0  0  0  0  0  0  0  0
  152.0290  136.9410  152.8071 H   0  0  0  0  0  0  0  0  0  0  0  0
  1  2  1  0  0  0  0
  1 20  1  0  0  0  0
  1 21  1  0  0  0  0
  1 22  1  0  0  0  0
  2  7  1  0  0  0  0
  2  3  2  0  0  0  0
  3  4  1  0  0  0  0
  3 23  1  0  0  0  0
  4  5  2  0  0  0  0
  5  6  1  0  0  0  0
  5 24  1  0  0  0  0
  6  7  2  0  0  0  0
  6 25  1  0  0  0  0
  7  8  1  0  0  0  0
  8  9  1  0  0  0  0
  8 26  1  0  0  0  0
  9 10  2  0  0  0  0
  9 11  1  0  0  0  0
 11 12  1  0  0  0  0
 11 27  1  0  0  0  0
 12 17  1  0  0  0  0
 12 13  1  0  0  0  0
 12 28  1  0  0  0  0
 13 14  1  0  0  0  0
 13 29  1  0  0  0  0
 13 30  1  0  0  0  0
 14 15  1  0  0  0  0
 14 31  1  0  0  0  0
 14 32  1  0  0  0  0
 15 16  1  0  0  0  0
 15 33  1  0  0  0  0
 15 34  1  0  0  0  0
 16 17  1  0  0  0  0
 16 35  1  0  0  0  0
 16 36  1  0  0  0  0
 17 18  1  0  0  0  0
 17 37  1  0  0  0  0
 18 19  1  0  0  0  0
 18 38  1  0  0  0  0
 18 39  1  0  0  0  0
 19 40  1  0  0  0  0
M  END
> <s_m_source_file>
AV-unprocessed.smi

> <i_m_source_file_index>
2453

> <i_lp_mmshare_version>
43012

> <i_f3d_flags>
0

> <s_epik_input>
W0NIM11jMVtjSF1uW2NIXVtjSF1jMVtOSF1DKD1PKVtOSF1bQ0BASF0yW0NIMl1bQ0gyXVtDSDJdW0NIMl1bQ0BIXTJbQ0gyXVtPSF0=

> <s_epik_cmdline>
J2VwaWtfcHl0aG9uJywgJy1waCcsICc3LjAnLCAnLXRuJywgJzgnLCAnLW1hJywgJzIwMCcsICctbWV0YWxfYmluZGluZycsICctaW1hZScsICc8aW5maWxlLm1hZT4nLCAnLW9tYWUnLCAnPG91dGZpbGUubWFlPic=

> <r_epik_Ionization_Penalty>
0.210691

> <r_epik_Ionization_Penalty_Charging>
0

> <r_epik_Ionization_Penalty_Neutral>
0.210691

> <r_epik_State_Penalty>
0.200732

> <r_epik_Charging_Adjusted_Penalty>
0.200732

> <i_epik_Tot_Q>
0

> <i_epik_Tot_abs_Q>
0

> <r_epik_Metal_State_Penalty>
0.147519

> <b_epik_Metal_Only>
0

> <s_lp_Force_Field>
OPLS_2005

> <r_lp_Energy>
18.5766

> <b_lp_Chiralities_Consistent>
1

> <s_lp_Variant>
AV-unprocessed.smi:2453-3

> <Gold.Version>
5.8.1

> <Gold.Id.Protein>
6NUR|6NUR_protein|mol2

> <Gold.PLP.Fitness>
35.2093

> <Gold.PLP.PLP>
-28.8384

> <Gold.PLP.part.hbond>
-3.8829

> <Gold.PLP.part.metal>
0.0000

> <Gold.PLP.part.buried>
-4.9888

> <Gold.PLP.part.nonpolar>
-20.4063

> <Gold.PLP.part.repulsive>
0.2294

> <Gold.PLP.ligand.clash>
0.0000

> <Gold.PLP.ligand.torsion>
0.0529

> <Gold.PLP.Chemscore.Hbond>
2.1521

> <Gold.PLP.Chemscore.CHOScore>
0.0000

> <Gold.PLP.Chemscore.Metal>
0.0000

> <Gold.Chemscore.Hbonds>
donor molecule, donor type, donor heavy atom, donor atom, acceptor molecule, acceptor atom, score
      L1  H     8    26       P1  7948  0.11
      L1  H    11    27       P1  7948  0.08
      L1  H    19    40       P1  7949  0.96
      P1  H 10752 10764       L1    19  0.95

> <Gold.PLP.Chemscore.Internal.Correction>
0.0204

> <Gold.Rescore>
     Score         DG    S(hbond)    S(metal)    S(lipo)     H(rot)  DE(clash)    DE(int)     intcor
     12.96     -14.58       1.74        0.00      66.45       1.75       0.36       1.26       ----

> <Gold.Chemscore.Fitness>
12.9626

> <Gold.Chemscore.DG>
-14.5829

> <Gold.Chemscore.ZeroCoef>
-5.4800

> <Gold.Chemscore.Hbond>
1.7384

> <Gold.Chemscore.Metal>
0.0000

> <Gold.Chemscore.Lipo>
66.4512

> <Gold.Chemscore.Internal_Hbond>
0.0000

> <Gold.Chemscore.DEClash>
0.3648

> <Gold.Chemscore.DEInternal>
1.2556

> <Gold.Chemscore.Rot>
1.7493

> <Gold.Chemscore.Internal.Correction>
   9.000000E+99

> <Gold.Chemscore.Hbonds>
donor molecule, donor type, donor heavy atom, donor atom, acceptor molecule, acceptor atom, score
      L1  H     8    26       P1  7948  0.12
      L1  H    11    27       P1  7948  0.09
      L1  H    19    40       P1  7949  0.92
      P1  H 10752 10764       L1    19  0.20

> <Gold.Chemscore.Hbond.Weighted>
-5.8063

> <Gold.Chemscore.Metal.Weighted>
-0.0000

> <Gold.Chemscore.Lipo.Weighted>
-7.7748

> <Gold.Chemscore.Internal_Hbond.Weighted>
0.0000

> <Gold.Chemscore.DEClash.Weighted>
0.3648

> <Gold.Chemscore.DEInternal.Weighted>
1.2556

> <Gold.Chemscore.Rot.Weighted>
4.4782

> <Gold.Chemscore.Internal.Correction.Weighted>
   9.000000E+99

> <Gold.Protein.RotatedTorsions>
[ 6907 6896 6895 6894 ] final   94.09 input  -60.11 | X-H torsion
[ 7974 7965 7964 7962 ] final -126.79 input  175.53 | X-H torsion
[ 8008 7997 7996 7995 ] final  -39.66 input   59.86 | X-H torsion
[ 10167 10162 10161 10158 ] final  135.75 input  -65.29 | X-H torsion
[ 10718 10713 10712 10709 ] final  -67.32 input   66.30 | X-H torsion
[ 10763 10752 10751 10750 ] final -100.66 input  -60.55 | X-H torsion
[ 11005 11000 10999 10996 ] final -158.53 input  -57.11 | X-H torsion

> <Gold.Protein.ActiveResidues>
 VAL166  LYS551  ARG553  GLY616  TRP617  ASP618  TYR619  PRO620  LYS621  CYS622 
 ASP623  PHE694  ASN695  SER759  ASP760  ASP761  ALA762  ILE779  LEU786  VAL792 
 PHE793  MET794  SER795  GLU796  ALA797  LYS798  CYS799  TRP800  GLU811  SER814 

> <Gold.Protein.RotatedAtoms>
  152.5451  134.1247  159.8413 H   0  0  0  0  0  0  0  0  0  0  0  0  # atno 6907 bound_to 6896
  151.1299  133.5037  159.2607 H   0  0  0  0  0  0  0  0  0  0  0  0  # atno 6908 bound_to 6896
  151.1686  135.0317  159.8796 H   0  0  0  0  0  0  0  0  0  0  0  0  # atno 6909 bound_to 6896
  144.9836  140.7665  143.4597 H   0  0  0  0  0  0  0  0  0  0  0  0  # atno 7974 bound_to 7965
  154.4020  140.1546  156.2899 H   0  0  0  0  0  0  0  0  0  0  0  0  # atno 8008 bound_to 7997
  155.8795  140.3444  155.5855 H   0  0  0  0  0  0  0  0  0  0  0  0  # atno 8009 bound_to 7997
  155.7684  140.0827  157.2111 H   0  0  0  0  0  0  0  0  0  0  0  0  # atno 8010 bound_to 7997
  139.5205  144.6501  151.5328 H   0  0  0  0  0  0  0  0  0  0  0  0  # atno 10167 bound_to 10162
  156.0564  130.4276  150.1837 H   0  0  0  0  0  0  0  0  0  0  0  0  # atno 10718 bound_to 10713
  154.7597  135.4927  153.9440 H   0  0  0  0  0  0  0  0  0  0  0  0  # atno 10763 bound_to 10752
  153.1236  135.6737  153.9301 H   0  0  0  0  0  0  0  0  0  0  0  0  # atno 10764 bound_to 10752
  153.9026  135.3108  155.3427 H   0  0  0  0  0  0  0  0  0  0  0  0  # atno 10765 bound_to 10752
  140.6526  134.4435  157.5235 H   0  0  0  0  0  0  0  0  0  0  0  0  # atno 11005 bound_to 11000
  145.2385  139.2083  143.5005 LP  0  0  0  0  0  0  0  0  0  0  0  0  # atno 17320 bound_to 7965
  146.3414  140.2276  142.8592 LP  0  0  0  0  0  0  0  0  0  0  0  0  # atno 17321 bound_to 7965
  140.6302  143.9091  150.6598 LP  0  0  0  0  0  0  0  0  0  0  0  0  # atno 17342 bound_to 10162
  140.2393  143.3676  152.1500 LP  0  0  0  0  0  0  0  0  0  0  0  0  # atno 17343 bound_to 10162
  156.9913  130.9894  151.3414 LP  0  0  0  0  0  0  0  0  0  0  0  0  # atno 17370 bound_to 10713
  157.5537  130.8199  149.8177 LP  0  0  0  0  0  0  0  0  0  0  0  0  # atno 17371 bound_to 10713
  139.9040  134.8490  156.1778 LP  0  0  0  0  0  0  0  0  0  0  0  0  # atno 17394 bound_to 11000
  141.0525  133.6881  156.1799 LP  0  0  0  0  0  0  0  0  0  0  0  0  # atno 17395 bound_to 11000

$$$$
