AV-unprocessed.smi:3042|AV-procd|sdf|11601|dock7
  -GOLD-   2272016583D 1   1.00000     0.00000
 Structure written by MMmdl.
 32 33  0  0  0  0  0  0  0  0  1 V2000
  151.6080  138.2370  157.7913 N   0  0  0  0  0  0  0  0  0  0  0  0
  152.3046  139.5250  157.9459 C   0  0  0  0  0  0  0  0  0  0  0  0
  151.3390  140.7341  158.0340 C   0  0  2  0  0  0  0  0  0  0  0  0
  150.5249  140.8089  156.7431 C   0  0  0  0  0  0  0  0  0  0  0  0
  149.1845  141.2535  156.7446 C   0  0  0  0  0  0  0  0  0  0  0  0
  148.4843  141.3095  155.5243 C   0  0  0  0  0  0  0  0  0  0  0  0
  149.1548  140.9189  154.3483 C   0  0  0  0  0  0  0  0  0  0  0  0
  150.4359  140.4925  154.3321 N   0  0  0  0  0  0  0  0  0  0  0  0
  151.1004  140.4429  155.5067 C   0  0  0  0  0  0  0  0  0  0  0  0
  152.0003  142.0217  158.3325 N   0  0  0  0  0  0  0  0  0  0  0  0
  151.0999  143.1609  158.1193 C   0  0  0  0  0  0  0  0  0  0  0  0
  151.7700  144.5098  158.4311 C   0  0  0  0  0  0  0  0  0  0  0  0
  152.2458  144.5062  159.7708 O   0  0  0  0  0  0  0  0  0  0  0  0
  153.1714  143.4542  160.0108 C   0  0  0  0  0  0  0  0  0  0  0  0
  152.5103  142.0990  159.7041 C   0  0  0  0  0  0  0  0  0  0  0  0
  152.0298  137.6915  157.0412 H   0  0  0  0  0  0  0  0  0  0  0  0
  151.6872  137.6845  158.6436 H   0  0  0  0  0  0  0  0  0  0  0  0
  152.9168  139.4629  158.8438 H   0  0  0  0  0  0  0  0  0  0  0  0
  152.9965  139.6669  157.1152 H   0  0  0  0  0  0  0  0  0  0  0  0
  150.6385  140.5234  158.8441 H   0  0  0  0  0  0  0  0  0  0  0  0
  148.7010  141.5467  157.6648 H   0  0  0  0  0  0  0  0  0  0  0  0
  147.4586  141.6454  155.4904 H   0  0  0  0  0  0  0  0  0  0  0  0
  148.6486  140.9508  153.3949 H   0  0  0  0  0  0  0  0  0  0  0  0
  152.1234  140.0992  155.4567 H   0  0  0  0  0  0  0  0  0  0  0  0
  150.7517  143.1889  157.0871 H   0  0  0  0  0  0  0  0  0  0  0  0
  150.2116  143.0498  158.7430 H   0  0  0  0  0  0  0  0  0  0  0  0
  152.5944  144.7017  157.7426 H   0  0  0  0  0  0  0  0  0  0  0  0
  151.0554  145.3242  158.3107 H   0  0  0  0  0  0  0  0  0  0  0  0
  154.0624  143.5964  159.3973 H   0  0  0  0  0  0  0  0  0  0  0  0
  153.4910  143.4925  161.0522 H   0  0  0  0  0  0  0  0  0  0  0  0
  151.6988  141.9232  160.4117 H   0  0  0  0  0  0  0  0  0  0  0  0
  153.2578  141.3275  159.8801 H   0  0  0  0  0  0  0  0  0  0  0  0
  1  2  1  0  0  0  0
  1 16  1  0  0  0  0
  1 17  1  0  0  0  0
  2  3  1  0  0  0  0
  2 18  1  0  0  0  0
  2 19  1  0  0  0  0
  3  4  1  0  0  0  0
  3 10  1  0  0  0  0
  3 20  1  0  0  0  0
  4  9  1  0  0  0  0
  4  5  2  0  0  0  0
  5  6  1  0  0  0  0
  5 21  1  0  0  0  0
  6  7  2  0  0  0  0
  6 22  1  0  0  0  0
  7  8  1  0  0  0  0
  7 23  1  0  0  0  0
  8  9  2  0  0  0  0
  9 24  1  0  0  0  0
 10 15  1  0  0  0  0
 10 11  1  0  0  0  0
 11 12  1  0  0  0  0
 11 25  1  0  0  0  0
 11 26  1  0  0  0  0
 12 13  1  0  0  0  0
 12 27  1  0  0  0  0
 12 28  1  0  0  0  0
 13 14  1  0  0  0  0
 14 15  1  0  0  0  0
 14 29  1  0  0  0  0
 14 30  1  0  0  0  0
 15 31  1  0  0  0  0
 15 32  1  0  0  0  0
M  END
> <s_m_source_file>
AV-unprocessed.smi

> <i_m_source_file_index>
3042

> <i_lp_mmshare_version>
43012

> <i_f3d_flags>
0

> <s_epik_input>
W0NIMl0xW0NIMl1PW0NIMl1bQ0gyXU4xW0NASF0oW0NIMl1bTkgyXSljMltjSF1bY0hdW2NIXW5bY0hdMg==

> <s_epik_cmdline>
J2VwaWtfcHl0aG9uJywgJy1waCcsICc3LjAnLCAnLXRuJywgJzgnLCAnLW1hJywgJzIwMCcsICctbWV0YWxfYmluZGluZycsICctaW1hZScsICc8aW5maWxlLm1hZT4nLCAnLW9tYWUnLCAnPG91dGZpbGUubWFlPic=

> <r_epik_Ionization_Penalty>
2.62143

> <r_epik_Ionization_Penalty_Charging>
0

> <r_epik_Ionization_Penalty_Neutral>
2.62143

> <r_epik_State_Penalty>
2.72742

> <r_epik_Charging_Adjusted_Penalty>
2.72742

> <i_epik_Tot_Q>
0

> <i_epik_Tot_abs_Q>
0

> <r_epik_Metal_State_Penalty>
2.72081

> <b_epik_Metal_Only>
0

> <s_lp_Force_Field>
OPLS_2005

> <r_lp_Energy>
27.3222

> <b_lp_Chiralities_Consistent>
1

> <s_lp_Variant>
AV-unprocessed.smi:3042-3

> <Gold.Version>
5.8.1

> <Gold.Id.Protein>
6NUR|6NUR_protein|mol2

> <Gold.PLP.Fitness>
35.2888

> <Gold.PLP.PLP>
-31.0424

> <Gold.PLP.part.hbond>
-1.0000

> <Gold.PLP.part.metal>
0.0000

> <Gold.PLP.part.buried>
-4.1405

> <Gold.PLP.part.nonpolar>
-26.2550

> <Gold.PLP.part.repulsive>
0.1322

> <Gold.PLP.ligand.clash>
0.0000

> <Gold.PLP.ligand.torsion>
0.9109

> <Gold.PLP.Chemscore.Hbond>
1.0000

> <Gold.PLP.Chemscore.CHOScore>
1.0000

> <Gold.PLP.Chemscore.Metal>
0.0000

> <Gold.Chemscore.Hbonds>
donor molecule, donor type, donor heavy atom, donor atom, acceptor molecule, acceptor atom, score
      P1  H  7989  7998       L1     8  0.76
      L1  C     7    23       P1  7957  0.77

> <Gold.PLP.Chemscore.Internal.Correction>
0.0681

> <Gold.Rescore>
     Score         DG    S(hbond)    S(metal)    S(lipo)     H(rot)  DE(clash)    DE(int)     intcor
     13.57     -14.02       0.77        0.00      82.44       1.44       0.01       0.43       ----

> <Gold.Chemscore.Fitness>
13.5725

> <Gold.Chemscore.DG>
-14.0200

> <Gold.Chemscore.ZeroCoef>
-5.4800

> <Gold.Chemscore.Hbond>
0.7695

> <Gold.Chemscore.Metal>
0.0000

> <Gold.Chemscore.Lipo>
82.4434

> <Gold.Chemscore.Internal_Hbond>
0.0000

> <Gold.Chemscore.DEClash>
0.0137

> <Gold.Chemscore.DEInternal>
0.4338

> <Gold.Chemscore.Rot>
1.4359

> <Gold.Chemscore.Internal.Correction>
   9.000000E+99

> <Gold.Chemscore.Hbonds>
donor molecule, donor type, donor heavy atom, donor atom, acceptor molecule, acceptor atom, score
      P1  H  7989  7998       L1     8  0.12

> <Gold.Chemscore.Hbond.Weighted>
-2.5700

> <Gold.Chemscore.Metal.Weighted>
-0.0000

> <Gold.Chemscore.Lipo.Weighted>
-9.6459

> <Gold.Chemscore.Internal_Hbond.Weighted>
0.0000

> <Gold.Chemscore.DEClash.Weighted>
0.0137

> <Gold.Chemscore.DEInternal.Weighted>
0.4338

> <Gold.Chemscore.Rot.Weighted>
3.6759

> <Gold.Chemscore.Internal.Correction.Weighted>
   9.000000E+99

> <Gold.Protein.RotatedTorsions>
[ 6907 6896 6895 6894 ] final  144.54 input  -60.11 | X-H torsion
[ 7974 7965 7964 7962 ] final  115.22 input  175.53 | X-H torsion
[ 8008 7997 7996 7995 ] final   99.96 input   59.86 | X-H torsion
[ 10167 10162 10161 10158 ] final   56.09 input  -65.29 | X-H torsion
[ 10718 10713 10712 10709 ] final  -34.80 input   66.30 | X-H torsion
[ 10763 10752 10751 10750 ] final  -24.53 input  -60.55 | X-H torsion
[ 11005 11000 10999 10996 ] final   -7.10 input  -57.11 | X-H torsion

> <Gold.Protein.ActiveResidues>
 VAL166  LYS551  ARG553  GLY616  TRP617  ASP618  TYR619  PRO620  LYS621  CYS622 
 ASP623  PHE694  ASN695  SER759  ASP760  ASP761  ALA762  ILE779  LEU786  VAL792 
 PHE793  MET794  SER795  GLU796  ALA797  LYS798  CYS799  TRP800  GLU811  SER814 

> <Gold.Protein.RotatedAtoms>
  152.1923  133.4782  159.5014 H   0  0  0  0  0  0  0  0  0  0  0  0  # atno 6907 bound_to 6896
  150.6953  134.1696  159.4216 H   0  0  0  0  0  0  0  0  0  0  0  0  # atno 6908 bound_to 6896
  151.9611  135.0122  160.0598 H   0  0  0  0  0  0  0  0  0  0  0  0  # atno 6909 bound_to 6896
  145.1947  139.2982  143.4349 H   0  0  0  0  0  0  0  0  0  0  0  0  # atno 7974 bound_to 7965
  156.1157  140.3220  155.8135 H   0  0  0  0  0  0  0  0  0  0  0  0  # atno 8008 bound_to 7997
  155.4595  140.0538  157.3009 H   0  0  0  0  0  0  0  0  0  0  0  0  # atno 8009 bound_to 7997
  154.4791  140.2045  155.9821 H   0  0  0  0  0  0  0  0  0  0  0  0  # atno 8010 bound_to 7997
  140.2125  144.3874  150.6483 H   0  0  0  0  0  0  0  0  0  0  0  0  # atno 10167 bound_to 10162
  156.3463  130.4301  149.7743 H   0  0  0  0  0  0  0  0  0  0  0  0  # atno 10718 bound_to 10713
  153.6852  135.6964  153.5106 H   0  0  0  0  0  0  0  0  0  0  0  0  # atno 10763 bound_to 10752
  153.2455  135.4292  155.0742 H   0  0  0  0  0  0  0  0  0  0  0  0  # atno 10764 bound_to 10752
  154.8388  135.3518  154.6395 H   0  0  0  0  0  0  0  0  0  0  0  0  # atno 10765 bound_to 10752
  140.7091  133.8924  155.8738 H   0  0  0  0  0  0  0  0  0  0  0  0  # atno 11005 bound_to 11000
  146.3429  140.2172  142.8591 LP  0  0  0  0  0  0  0  0  0  0  0  0  # atno 17320 bound_to 7965
  145.0006  140.8628  143.5284 LP  0  0  0  0  0  0  0  0  0  0  0  0  # atno 17321 bound_to 7965
  140.6313  143.2188  151.6489 LP  0  0  0  0  0  0  0  0  0  0  0  0  # atno 17342 bound_to 10162
  139.5174  144.3315  152.0822 LP  0  0  0  0  0  0  0  0  0  0  0  0  # atno 17343 bound_to 10162
  156.4961  130.8107  151.3114 LP  0  0  0  0  0  0  0  0  0  0  0  0  # atno 17370 bound_to 10713
  157.7454  130.9960  150.2763 LP  0  0  0  0  0  0  0  0  0  0  0  0  # atno 17371 bound_to 10713
  141.0099  134.1034  157.4231 LP  0  0  0  0  0  0  0  0  0  0  0  0  # atno 17394 bound_to 11000
  139.8876  135.0091  156.6572 LP  0  0  0  0  0  0  0  0  0  0  0  0  # atno 17395 bound_to 11000

$$$$
