AV-unprocessed.smi:1417|AV-procd|sdf|5765|dock4
  -GOLD-   22720 5403D 1   1.00000     0.00000
 Structure written by MMmdl.
 39 40  0  0  0  0  0  0  0  0  1 V2000
  147.1901  136.4066  162.6419 C   0  0  0  0  0  0  0  0  0  0  0  0
  147.3648  136.2101  161.1748 C   0  0  0  0  0  0  0  0  0  0  0  0
  147.3044  135.1076  160.3699 C   0  0  0  0  0  0  0  0  0  0  0  0
  147.5719  135.6417  159.0756 C   0  0  0  0  0  0  0  0  0  0  0  0
  147.6371  134.9114  157.8608 N   0  0  0  0  0  0  0  0  0  0  0  0
  147.2361  135.2901  156.6355 C   0  0  0  0  0  0  0  0  0  0  0  0
  146.7519  136.3850  156.3496 O   0  0  0  0  0  0  0  0  0  0  0  0
  147.4315  134.3118  155.7394 N   0  0  0  0  0  0  0  0  0  0  0  0
  147.0988  134.3891  154.3199 C   0  0  0  0  0  0  0  0  0  0  0  0
  145.5978  134.1420  154.0924 C   0  0  0  0  0  0  0  0  0  0  0  0
  145.2616  134.0684  152.5927 C   0  0  0  0  0  0  0  0  0  0  0  0
  146.0467  133.0107  151.9398 N   0  0  0  0  0  0  0  0  0  0  0  0
  145.6984  132.8501  150.5090 C   0  0  0  0  0  0  0  0  0  0  0  0
  144.2037  132.9840  150.1939 C   0  0  0  0  0  0  0  0  0  0  0  0
  143.8504  133.9167  149.3055 N   0  0  0  0  0  0  0  0  0  0  0  0
  143.3810  132.2613  150.7516 O   0  0  0  0  0  0  0  0  0  0  0  0
  147.4794  133.2995  152.0607 C   0  0  0  0  0  0  0  0  0  0  0  0
  147.9005  133.3371  153.5401 C   0  0  0  0  0  0  0  0  0  0  0  0
  147.7764  136.9459  159.0965 N   0  0  0  0  0  0  0  0  0  0  0  0
  147.6429  137.3194  160.4390 O   0  0  0  0  0  0  0  0  0  0  0  0
  147.1820  135.4503  163.1651 H   0  0  0  0  0  0  0  0  0  0  0  0
  146.2502  136.9163  162.8537 H   0  0  0  0  0  0  0  0  0  0  0  0
  148.0018  137.0082  163.0514 H   0  0  0  0  0  0  0  0  0  0  0  0
  147.1036  134.0917  160.6752 H   0  0  0  0  0  0  0  0  0  0  0  0
  148.0330  133.9861  157.9361 H   0  0  0  0  0  0  0  0  0  0  0  0
  147.8368  133.4456  156.0625 H   0  0  0  0  0  0  0  0  0  0  0  0
  147.3628  135.3781  153.9398 H   0  0  0  0  0  0  0  0  0  0  0  0
  145.2960  133.2113  154.5758 H   0  0  0  0  0  0  0  0  0  0  0  0
  145.0112  134.9349  154.5577 H   0  0  0  0  0  0  0  0  0  0  0  0
  144.1929  133.8775  152.4971 H   0  0  0  0  0  0  0  0  0  0  0  0
  145.4532  135.0304  152.1139 H   0  0  0  0  0  0  0  0  0  0  0  0
  146.2552  133.5742  149.9110 H   0  0  0  0  0  0  0  0  0  0  0  0
  146.0102  131.8620  150.1675 H   0  0  0  0  0  0  0  0  0  0  0  0
  142.8761  134.0447  149.0740 H   0  0  0  0  0  0  0  0  0  0  0  0
  144.5575  134.4948  148.8751 H   0  0  0  0  0  0  0  0  0  0  0  0
  148.0564  132.5258  151.5522 H   0  0  0  0  0  0  0  0  0  0  0  0
  147.7204  134.2462  151.5736 H   0  0  0  0  0  0  0  0  0  0  0  0
  148.9673  133.5507  153.6144 H   0  0  0  0  0  0  0  0  0  0  0  0
  147.7514  132.3505  153.9819 H   0  0  0  0  0  0  0  0  0  0  0  0
  1  2  1  0  0  0  0
  1 21  1  0  0  0  0
  1 22  1  0  0  0  0
  1 23  1  0  0  0  0
  2 20  1  0  0  0  0
  2  3  2  0  0  0  0
  3  4  1  0  0  0  0
  3 24  1  0  0  0  0
  4  5  1  0  0  0  0
  4 19  2  0  0  0  0
  5  6  1  0  0  0  0
  5 25  1  0  0  0  0
  6  7  2  0  0  0  0
  6  8  1  0  0  0  0
  8  9  1  0  0  0  0
  8 26  1  0  0  0  0
  9 18  1  0  0  0  0
  9 10  1  0  0  0  0
  9 27  1  0  0  0  0
 10 11  1  0  0  0  0
 10 28  1  0  0  0  0
 10 29  1  0  0  0  0
 11 12  1  0  0  0  0
 11 30  1  0  0  0  0
 11 31  1  0  0  0  0
 12 13  1  0  0  0  0
 12 17  1  0  0  0  0
 13 14  1  0  0  0  0
 13 32  1  0  0  0  0
 13 33  1  0  0  0  0
 14 15  1  0  0  0  0
 14 16  2  0  0  0  0
 15 34  1  0  0  0  0
 15 35  1  0  0  0  0
 17 18  1  0  0  0  0
 17 36  1  0  0  0  0
 17 37  1  0  0  0  0
 18 38  1  0  0  0  0
 18 39  1  0  0  0  0
 19 20  1  0  0  0  0
M  END
> <s_m_source_file>
AV-unprocessed.smi

> <i_m_source_file_index>
1417

> <i_lp_mmshare_version>
43012

> <i_f3d_flags>
0

> <s_epik_input>
W0NIM11jMVtjSF1jKG5vMSlbTkhdQyg9TylbTkhdW0NIXTJbQ0gyXVtDSDJdTihbQ0gyXVtDSDJdMilbQ0gyXUMoPU8pW05IMl0=

> <s_epik_cmdline>
J2VwaWtfcHl0aG9uJywgJy1waCcsICc3LjAnLCAnLXRuJywgJzgnLCAnLW1hJywgJzIwMCcsICctbWV0YWxfYmluZGluZycsICctaW1hZScsICc8aW5maWxlLm1hZT4nLCAnLW9tYWUnLCAnPG91dGZpbGUubWFlPic=

> <r_epik_Ionization_Penalty>
0.155825

> <r_epik_Ionization_Penalty_Charging>
0

> <r_epik_Ionization_Penalty_Neutral>
0.155825

> <r_epik_State_Penalty>
0.145092

> <r_epik_Charging_Adjusted_Penalty>
0.145092

> <i_epik_Tot_Q>
0

> <i_epik_Tot_abs_Q>
0

> <r_epik_Metal_State_Penalty>
0.171119

> <b_epik_Metal_Only>
0

> <s_lp_Force_Field>
OPLS_2005

> <r_lp_Energy>
11.4398

> <b_lp_Chiralities_Consistent>
1

> <s_lp_Variant>
AV-unprocessed.smi:1417-1

> <Gold.Version>
5.8.1

> <Gold.Id.Protein>
6NUR|6NUR_protein|mol2

> <Gold.PLP.Fitness>
36.5549

> <Gold.PLP.PLP>
-27.5389

> <Gold.PLP.part.hbond>
-4.0000

> <Gold.PLP.part.metal>
0.0000

> <Gold.PLP.part.buried>
-5.4631

> <Gold.PLP.part.nonpolar>
-19.1699

> <Gold.PLP.part.repulsive>
0.4837

> <Gold.PLP.ligand.clash>
0.0000

> <Gold.PLP.ligand.torsion>
0.7375

> <Gold.PLP.Chemscore.Hbond>
3.4925

> <Gold.PLP.Chemscore.CHOScore>
0.0000

> <Gold.PLP.Chemscore.Metal>
0.0000

> <Gold.Chemscore.Hbonds>
donor molecule, donor type, donor heavy atom, donor atom, acceptor molecule, acceptor atom, score
      L1  H    15    34       P1 10186  1.00
      L1  H    15    35       P1  7921  1.00
      P1  H  6931  6943       L1    20  0.31
      P1  H  6934  6947       L1    20  0.93

> <Gold.PLP.Chemscore.Internal.Correction>
0.0136

> <Gold.Rescore>
     Score         DG    S(hbond)    S(metal)    S(lipo)     H(rot)  DE(clash)    DE(int)     intcor
     16.14     -17.16       3.36        0.00      48.11       2.02       0.01       1.01       ----

> <Gold.Chemscore.Fitness>
16.1367

> <Gold.Chemscore.DG>
-17.1586

> <Gold.Chemscore.ZeroCoef>
-5.4800

> <Gold.Chemscore.Hbond>
3.3609

> <Gold.Chemscore.Metal>
0.0000

> <Gold.Chemscore.Lipo>
48.1100

> <Gold.Chemscore.Internal_Hbond>
0.0000

> <Gold.Chemscore.DEClash>
0.0089

> <Gold.Chemscore.DEInternal>
1.0130

> <Gold.Chemscore.Rot>
2.0217

> <Gold.Chemscore.Internal.Correction>
   9.000000E+99

> <Gold.Chemscore.Hbonds>
donor molecule, donor type, donor heavy atom, donor atom, acceptor molecule, acceptor atom, score
      L1  H    15    34       P1 10186  0.96
      L1  H    15    35       P1  7921  0.91
      P1  H  6931  6943       L1    20  0.05
      P1  H  6934  6947       L1    20  0.88

> <Gold.Chemscore.Hbond.Weighted>
-11.2253

> <Gold.Chemscore.Metal.Weighted>
-0.0000

> <Gold.Chemscore.Lipo.Weighted>
-5.6289

> <Gold.Chemscore.Internal_Hbond.Weighted>
0.0000

> <Gold.Chemscore.DEClash.Weighted>
0.0089

> <Gold.Chemscore.DEInternal.Weighted>
1.0130

> <Gold.Chemscore.Rot.Weighted>
5.1755

> <Gold.Chemscore.Internal.Correction.Weighted>
   9.000000E+99

> <Gold.Protein.RotatedTorsions>
[ 6907 6896 6895 6894 ] final  -26.06 input  -60.11 | X-H torsion
[ 7974 7965 7964 7962 ] final -111.11 input  175.53 | X-H torsion
[ 8008 7997 7996 7995 ] final  132.92 input   59.86 | X-H torsion
[ 10167 10162 10161 10158 ] final   78.40 input  -65.29 | X-H torsion
[ 10718 10713 10712 10709 ] final  -70.98 input   66.30 | X-H torsion
[ 10763 10752 10751 10750 ] final  -76.84 input  -60.55 | X-H torsion
[ 11005 11000 10999 10996 ] final -118.37 input  -57.11 | X-H torsion

> <Gold.Protein.ActiveResidues>
 VAL166  LYS551  ARG553  GLY616  TRP617  ASP618  TYR619  PRO620  LYS621  CYS622 
 ASP623  PHE694  ASN695  SER759  ASP760  ASP761  ALA762  ILE779  LEU786  VAL792 
 PHE793  MET794  SER795  GLU796  ALA797  LYS798  CYS799  TRP800  GLU811  SER814 

> <Gold.Protein.RotatedAtoms>
  151.1663  135.0297  159.8732 H   0  0  0  0  0  0  0  0  0  0  0  0  # atno 6907 bound_to 6896
  152.5450  134.1221  159.8413 H   0  0  0  0  0  0  0  0  0  0  0  0  # atno 6908 bound_to 6896
  151.1322  133.4983  159.2631 H   0  0  0  0  0  0  0  0  0  0  0  0  # atno 6909 bound_to 6896
  145.1600  140.8874  143.3596 H   0  0  0  0  0  0  0  0  0  0  0  0  # atno 7974 bound_to 7965
  156.2987  140.2534  156.3169 H   0  0  0  0  0  0  0  0  0  0  0  0  # atno 8008 bound_to 7997
  154.9272  140.0399  157.2048 H   0  0  0  0  0  0  0  0  0  0  0  0  # atno 8009 bound_to 7997
  154.8253  140.2867  155.5763 H   0  0  0  0  0  0  0  0  0  0  0  0  # atno 8010 bound_to 7997
  139.9713  144.5892  150.7983 H   0  0  0  0  0  0  0  0  0  0  0  0  # atno 10167 bound_to 10162
  156.0383  130.4342  150.2376 H   0  0  0  0  0  0  0  0  0  0  0  0  # atno 10718 bound_to 10713
  154.5051  135.5784  153.6561 H   0  0  0  0  0  0  0  0  0  0  0  0  # atno 10763 bound_to 10752
  152.9886  135.6145  154.2952 H   0  0  0  0  0  0  0  0  0  0  0  0  # atno 10764 bound_to 10752
  154.2862  135.2849  155.2654 H   0  0  0  0  0  0  0  0  0  0  0  0  # atno 10765 bound_to 10752
  141.0290  134.0009  157.3171 H   0  0  0  0  0  0  0  0  0  0  0  0  # atno 11005 bound_to 11000
  145.0340  139.3316  143.6010 LP  0  0  0  0  0  0  0  0  0  0  0  0  # atno 17320 bound_to 7965
  146.3483  139.9689  142.8708 LP  0  0  0  0  0  0  0  0  0  0  0  0  # atno 17321 bound_to 7965
  140.7521  143.2984  151.3144 LP  0  0  0  0  0  0  0  0  0  0  0  0  # atno 17342 bound_to 10162
  139.6479  144.0417  152.2604 LP  0  0  0  0  0  0  0  0  0  0  0  0  # atno 17343 bound_to 10162
  157.0473  131.0052  151.3265 LP  0  0  0  0  0  0  0  0  0  0  0  0  # atno 17370 bound_to 10713
  157.5166  130.7972  149.7763 LP  0  0  0  0  0  0  0  0  0  0  0  0  # atno 17371 bound_to 10713
  139.9195  135.0199  156.8011 LP  0  0  0  0  0  0  0  0  0  0  0  0  # atno 17394 bound_to 11000
  140.6440  133.9792  155.7721 LP  0  0  0  0  0  0  0  0  0  0  0  0  # atno 17395 bound_to 11000

$$$$
