AV-unprocessed.smi:1570|AV-procd|sdf|6315|dock5
  -GOLD-   22720 6523D 1   1.00000     0.00000
 Structure written by MMmdl.
 51 53  0  0  0  0  0  0  0  0  1 V2000
  150.0537  141.2256  156.7755 C   0  0  0  0  0  0  0  0  0  0  0  0
  151.2151  142.1973  157.0182 C   0  0  0  0  0  0  0  0  0  0  0  0
  151.8909  141.9094  158.2811 N   0  0  0  0  0  0  0  0  0  0  0  0
  152.5527  140.7725  158.6014 C   0  0  0  0  0  0  0  0  0  0  0  0
  152.7058  139.7940  157.8705 O   0  0  0  0  0  0  0  0  0  0  0  0
  153.0199  140.9000  159.8657 N   0  0  0  0  0  0  0  0  0  0  0  0
  153.8061  139.9152  160.6066 C   0  0  0  0  0  0  0  0  0  0  0  0
  155.0643  139.4824  159.8214 C   0  0  1  0  0  0  0  0  0  0  0  0
  155.7304  140.6150  159.2992 O   0  0  0  0  0  0  0  0  0  0  0  0
  156.0788  138.6288  160.6192 C   0  0  0  0  0  0  0  0  0  0  0  0
  155.5881  137.3897  161.2361 N   0  0  0  0  0  0  0  0  0  0  0  0
  155.0139  137.6661  162.5482 C   0  0  0  0  0  0  0  0  0  0  0  0
  154.4381  136.4020  163.2100 C   0  0  2  0  0  0  0  0  0  0  0  0
  153.9063  136.6804  164.6199 C   0  0  0  0  0  0  0  0  0  0  0  0
  155.4623  135.4152  163.3096 O   0  0  0  0  0  0  0  0  0  0  0  0
  156.1118  135.0900  162.0804 C   0  0  1  0  0  0  0  0  0  0  0  0
  155.2196  134.2223  161.1762 C   0  0  0  0  0  0  0  0  0  0  0  0
  156.6229  136.3682  161.3853 C   0  0  0  0  0  0  0  0  0  0  0  0
  152.6505  142.1561  160.3675 C   0  0  0  0  0  0  0  0  0  0  0  0
  152.8960  142.7652  161.6105 C   0  0  0  0  0  0  0  0  0  0  0  0
  152.3727  144.0645  161.8084 C   0  0  0  0  0  0  0  0  0  0  0  0
  151.6330  144.7139  160.7862 C   0  0  0  0  0  0  0  0  0  0  0  0
  151.4030  144.0789  159.5432 C   0  0  0  0  0  0  0  0  0  0  0  0
  151.9358  142.7893  159.3720 C   0  0  0  0  0  0  0  0  0  0  0  0
  149.5543  141.4480  155.8325 H   0  0  0  0  0  0  0  0  0  0  0  0
  149.3098  141.2929  157.5697 H   0  0  0  0  0  0  0  0  0  0  0  0
  150.4050  140.1942  156.7303 H   0  0  0  0  0  0  0  0  0  0  0  0
  151.9270  142.1355  156.1937 H   0  0  0  0  0  0  0  0  0  0  0  0
  150.8490  143.2243  157.0233 H   0  0  0  0  0  0  0  0  0  0  0  0
  154.0616  140.3091  161.5904 H   0  0  0  0  0  0  0  0  0  0  0  0
  153.1679  139.0493  160.7903 H   0  0  0  0  0  0  0  0  0  0  0  0
  154.7516  138.8747  158.9709 H   0  0  0  0  0  0  0  0  0  0  0  0
  155.7847  140.5200  158.3603 H   0  0  0  0  0  0  0  0  0  0  0  0
  156.9510  138.4166  159.9990 H   0  0  0  0  0  0  0  0  0  0  0  0
  156.4491  139.2745  161.4171 H   0  0  0  0  0  0  0  0  0  0  0  0
  155.7733  138.1050  163.1976 H   0  0  0  0  0  0  0  0  0  0  0  0
  154.2198  138.4078  162.4537 H   0  0  0  0  0  0  0  0  0  0  0  0
  153.6175  136.0149  162.6051 H   0  0  0  0  0  0  0  0  0  0  0  0
  153.1093  137.4241  164.5990 H   0  0  0  0  0  0  0  0  0  0  0  0
  154.6957  137.0531  165.2732 H   0  0  0  0  0  0  0  0  0  0  0  0
  153.5022  135.7728  165.0690 H   0  0  0  0  0  0  0  0  0  0  0  0
  156.9790  134.4843  162.3446 H   0  0  0  0  0  0  0  0  0  0  0  0
  155.7671  133.8917  160.2934 H   0  0  0  0  0  0  0  0  0  0  0  0
  154.3393  134.7624  160.8284 H   0  0  0  0  0  0  0  0  0  0  0  0
  154.8787  133.3323  161.7055 H   0  0  0  0  0  0  0  0  0  0  0  0
  157.0265  136.0854  160.4168 H   0  0  0  0  0  0  0  0  0  0  0  0
  157.4543  136.7767  161.9618 H   0  0  0  0  0  0  0  0  0  0  0  0
  153.4609  142.2672  162.3845 H   0  0  0  0  0  0  0  0  0  0  0  0
  152.5385  144.5684  162.7492 H   0  0  0  0  0  0  0  0  0  0  0  0
  151.2415  145.7056  160.9585 H   0  0  0  0  0  0  0  0  0  0  0  0
  150.8414  144.5684  158.7615 H   0  0  0  0  0  0  0  0  0  0  0  0
  1  2  1  0  0  0  0
  1 25  1  0  0  0  0
  1 26  1  0  0  0  0
  1 27  1  0  0  0  0
  2  3  1  0  0  0  0
  2 28  1  0  0  0  0
  2 29  1  0  0  0  0
  3 24  1  0  0  0  0
  3  4  1  0  0  0  0
  4  5  2  0  0  0  0
  4  6  1  0  0  0  0
  6  7  1  0  0  0  0
  6 19  1  0  0  0  0
  7  8  1  0  0  0  0
  7 30  1  0  0  0  0
  7 31  1  0  0  0  0
  8  9  1  0  0  0  0
  8 10  1  0  0  0  0
  8 32  1  0  0  0  0
  9 33  1  0  0  0  0
 10 11  1  0  0  0  0
 10 34  1  0  0  0  0
 10 35  1  0  0  0  0
 11 18  1  0  0  0  0
 11 12  1  0  0  0  0
 12 13  1  0  0  0  0
 12 36  1  0  0  0  0
 12 37  1  0  0  0  0
 13 14  1  0  0  0  0
 13 15  1  0  0  0  0
 13 38  1  0  0  0  0
 14 39  1  0  0  0  0
 14 40  1  0  0  0  0
 14 41  1  0  0  0  0
 15 16  1  0  0  0  0
 16 17  1  0  0  0  0
 16 18  1  0  0  0  0
 16 42  1  0  0  0  0
 17 43  1  0  0  0  0
 17 44  1  0  0  0  0
 17 45  1  0  0  0  0
 18 46  1  0  0  0  0
 18 47  1  0  0  0  0
 19 24  2  0  0  0  0
 19 20  1  0  0  0  0
 20 21  2  0  0  0  0
 20 48  1  0  0  0  0
 21 22  1  0  0  0  0
 21 49  1  0  0  0  0
 22 23  2  0  0  0  0
 22 50  1  0  0  0  0
 23 24  1  0  0  0  0
 23 51  1  0  0  0  0
M  END
> <s_m_source_file>
AV-unprocessed.smi

> <i_m_source_file_index>
1570

> <i_lp_mmshare_version>
43012

> <i_f3d_flags>
0

> <s_epik_input>
W2NIXTFbY0hdW2NIXVtjSF1jKGMxMiluKFtDSDJdW0NIM10pYyg9TyluMltDSDJdW0NASF0oW09IXSlbQ0gyXU4zW0NIMl1bQ0BASF0oW0NIM10pT1tDQEBIXShbQ0gzXSlbQ0gyXTM=

> <s_epik_cmdline>
J2VwaWtfcHl0aG9uJywgJy1waCcsICc3LjAnLCAnLXRuJywgJzgnLCAnLW1hJywgJzIwMCcsICctbWV0YWxfYmluZGluZycsICctaW1hZScsICc8aW5maWxlLm1hZT4nLCAnLW9tYWUnLCAnPG91dGZpbGUubWFlPic=

> <r_epik_Ionization_Penalty>
0.214359

> <r_epik_Ionization_Penalty_Charging>
2.30976e-09

> <r_epik_Ionization_Penalty_Neutral>
0.214359

> <r_epik_State_Penalty>
0.204533

> <r_epik_Charging_Adjusted_Penalty>
0.204533

> <i_epik_Tot_Q>
0

> <i_epik_Tot_abs_Q>
0

> <r_epik_Metal_State_Penalty>
0.204533

> <b_epik_Metal_Only>
0

> <s_lp_Force_Field>
OPLS_2005

> <r_lp_Energy>
68.4361

> <b_lp_Chiralities_Consistent>
1

> <s_lp_Variant>
AV-unprocessed.smi:1570-4

> <Gold.Version>
5.8.1

> <Gold.Id.Protein>
6NUR|6NUR_protein|mol2

> <Gold.PLP.Fitness>
48.9855

> <Gold.PLP.PLP>
-46.8005

> <Gold.PLP.part.hbond>
-2.0000

> <Gold.PLP.part.metal>
0.0000

> <Gold.PLP.part.buried>
-4.1482

> <Gold.PLP.part.nonpolar>
-40.0752

> <Gold.PLP.part.repulsive>
0.0239

> <Gold.PLP.ligand.clash>
0.0000

> <Gold.PLP.ligand.torsion>
0.4288

> <Gold.PLP.Chemscore.Hbond>
1.0000

> <Gold.PLP.Chemscore.CHOScore>
0.0000

> <Gold.PLP.Chemscore.Metal>
0.0000

> <Gold.Chemscore.Hbonds>
donor molecule, donor type, donor heavy atom, donor atom, acceptor molecule, acceptor atom, score
      P1  H  7997  8009       L1     5  0.94

> <Gold.PLP.Chemscore.Internal.Correction>
0.0427

> <Gold.Rescore>
     Score         DG    S(hbond)    S(metal)    S(lipo)     H(rot)  DE(clash)    DE(int)     intcor
     17.85     -19.30       0.89        0.00     137.79       2.06       0.46       1.00       ----

> <Gold.Chemscore.Fitness>
17.8456

> <Gold.Chemscore.DG>
-19.3025

> <Gold.Chemscore.ZeroCoef>
-5.4800

> <Gold.Chemscore.Hbond>
0.8887

> <Gold.Chemscore.Metal>
0.0000

> <Gold.Chemscore.Lipo>
137.7867

> <Gold.Chemscore.Internal_Hbond>
0.0000

> <Gold.Chemscore.DEClash>
0.4565

> <Gold.Chemscore.DEInternal>
1.0004

> <Gold.Chemscore.Rot>
2.0574

> <Gold.Chemscore.Internal.Correction>
   9.000000E+99

> <Gold.Chemscore.Hbonds>
donor molecule, donor type, donor heavy atom, donor atom, acceptor molecule, acceptor atom, score
      P1  H  7997  8009       L1     5  0.49

> <Gold.Chemscore.Hbond.Weighted>
-2.9683

> <Gold.Chemscore.Metal.Weighted>
-0.0000

> <Gold.Chemscore.Lipo.Weighted>
-16.1210

> <Gold.Chemscore.Internal_Hbond.Weighted>
0.0000

> <Gold.Chemscore.DEClash.Weighted>
0.4565

> <Gold.Chemscore.DEInternal.Weighted>
1.0004

> <Gold.Chemscore.Rot.Weighted>
5.2669

> <Gold.Chemscore.Internal.Correction.Weighted>
   9.000000E+99

> <Gold.Protein.RotatedTorsions>
[ 6907 6896 6895 6894 ] final -110.79 input  -60.11 | X-H torsion
[ 7974 7965 7964 7962 ] final  -92.22 input  175.53 | X-H torsion
[ 8008 7997 7996 7995 ] final  161.75 input   59.86 | X-H torsion
[ 10167 10162 10161 10158 ] final -124.81 input  -65.29 | X-H torsion
[ 10718 10713 10712 10709 ] final   45.09 input   66.30 | X-H torsion
[ 10763 10752 10751 10750 ] final -112.98 input  -60.55 | X-H torsion
[ 11005 11000 10999 10996 ] final  140.10 input  -57.11 | X-H torsion

> <Gold.Protein.ActiveResidues>
 VAL166  LYS551  ARG553  GLY616  TRP617  ASP618  TYR619  PRO620  LYS621  CYS622 
 ASP623  PHE694  ASN695  SER759  ASP760  ASP761  ALA762  ILE779  LEU786  VAL792 
 PHE793  MET794  SER795  GLU796  ALA797  LYS798  CYS799  TRP800  GLU811  SER814 

> <Gold.Protein.RotatedAtoms>
  150.7647  133.9331  159.3432 H   0  0  0  0  0  0  0  0  0  0  0  0  # atno 6907 bound_to 6896
  151.7231  135.0888  160.0297 H   0  0  0  0  0  0  0  0  0  0  0  0  # atno 6908 bound_to 6896
  152.3637  133.6292  159.6070 H   0  0  0  0  0  0  0  0  0  0  0  0  # atno 6909 bound_to 6896
  145.4027  140.9538  143.2278 H   0  0  0  0  0  0  0  0  0  0  0  0  # atno 7974 bound_to 7965
  156.2080  140.1769  156.7757 H   0  0  0  0  0  0  0  0  0  0  0  0  # atno 8008 bound_to 7997
  154.5683  140.0687  156.8955 H   0  0  0  0  0  0  0  0  0  0  0  0  # atno 8009 bound_to 7997
  155.2721  140.3343  155.4267 H   0  0  0  0  0  0  0  0  0  0  0  0  # atno 8010 bound_to 7997
  139.9888  143.5663  152.2350 H   0  0  0  0  0  0  0  0  0  0  0  0  # atno 10167 bound_to 10162
  157.4338  130.8041  149.7629 H   0  0  0  0  0  0  0  0  0  0  0  0  # atno 10718 bound_to 10713
  154.8375  135.4471  154.1277 H   0  0  0  0  0  0  0  0  0  0  0  0  # atno 10763 bound_to 10752
  153.2496  135.6925  153.7700 H   0  0  0  0  0  0  0  0  0  0  0  0  # atno 10764 bound_to 10752
  153.7017  135.3371  155.3202 H   0  0  0  0  0  0  0  0  0  0  0  0  # atno 10765 bound_to 10752
  140.0302  134.9355  157.0648 H   0  0  0  0  0  0  0  0  0  0  0  0  # atno 11005 bound_to 11000
  144.8363  139.5545  143.6921 LP  0  0  0  0  0  0  0  0  0  0  0  0  # atno 17320 bound_to 7965
  146.2744  139.6715  142.9273 LP  0  0  0  0  0  0  0  0  0  0  0  0  # atno 17321 bound_to 7965
  139.6355  144.7649  151.2446 LP  0  0  0  0  0  0  0  0  0  0  0  0  # atno 17342 bound_to 10162
  140.7462  143.6405  150.8339 LP  0  0  0  0  0  0  0  0  0  0  0  0  # atno 17343 bound_to 10162
  155.9923  130.3932  150.2948 LP  0  0  0  0  0  0  0  0  0  0  0  0  # atno 17370 bound_to 10713
  157.1107  131.0220  151.3049 LP  0  0  0  0  0  0  0  0  0  0  0  0  # atno 17371 bound_to 10713
  140.4238  134.1853  155.7165 LP  0  0  0  0  0  0  0  0  0  0  0  0  # atno 17394 bound_to 11000
  141.1827  133.8380  157.1201 LP  0  0  0  0  0  0  0  0  0  0  0  0  # atno 17395 bound_to 11000

$$$$
