AV-unprocessed.smi:2718|AV-procd|sdf|10489|dock6
  -GOLD-   2272014533D 1   1.00000     0.00000
 Structure written by MMmdl.
 47 48  0  0  0  0  0  0  0  0  1 V2000
  153.3675  142.4303  162.5577 C   0  0  0  0  0  0  0  0  0  0  0  0
  153.2948  142.2645  161.0527 C   0  0  0  0  0  0  0  0  0  0  0  0
  154.2397  141.2211  160.4826 C   0  0  0  0  0  0  0  0  0  0  0  0
  152.4530  142.9983  160.3000 C   0  0  0  0  0  0  0  0  0  0  0  0
  152.2969  142.9357  158.8230 C   0  0  1  0  0  0  0  0  0  0  0  0
  150.9321  142.7056  158.2017 C   0  0  2  0  0  0  0  0  0  0  0  0
  150.8249  141.8025  157.0129 C   0  0  0  0  0  0  0  0  0  0  0  0
  151.6026  140.8753  156.7855 O   0  0  0  0  0  0  0  0  0  0  0  0
  149.7770  142.0812  156.2240 N   0  0  0  0  0  0  0  0  0  0  0  0
  149.3917  141.3283  155.0338 C   0  0  0  0  0  0  0  0  0  0  0  0
  148.0639  140.5587  155.2146 C   0  0  2  0  0  0  0  0  0  0  0  0
  147.6023  139.9040  153.9043 C   0  0  0  0  0  0  0  0  0  0  0  0
  146.9792  141.4082  155.8234 C   0  0  0  0  0  0  0  0  0  0  0  0
  146.5520  141.2661  157.0855 N   0  0  0  0  0  0  0  0  0  0  0  0
  145.5503  142.2013  157.2499 N   0  0  0  0  0  0  0  0  0  0  0  0
  145.4702  142.8161  156.0710 C   0  0  0  0  0  0  0  0  0  0  0  0
  146.3282  142.3740  155.1396 N   0  0  0  0  0  0  0  0  0  0  0  0
  146.4841  142.8320  153.7729 C   0  0  0  0  0  0  0  0  0  0  0  0
  151.6195  144.0581  158.0525 C   0  0  0  0  0  0  0  0  0  0  0  0
  150.9849  145.2423  158.7665 C   0  0  0  0  0  0  0  0  0  0  0  0
  152.2539  144.5355  156.7513 C   0  0  0  0  0  0  0  0  0  0  0  0
  153.1262  141.4901  163.0542 H   0  0  0  0  0  0  0  0  0  0  0  0
  152.6702  143.1898  162.9128 H   0  0  0  0  0  0  0  0  0  0  0  0
  154.3731  142.7275  162.8562 H   0  0  0  0  0  0  0  0  0  0  0  0
  155.2736  141.5030  160.6825 H   0  0  0  0  0  0  0  0  0  0  0  0
  154.1274  141.0994  159.4059 H   0  0  0  0  0  0  0  0  0  0  0  0
  154.0544  140.2529  160.9479 H   0  0  0  0  0  0  0  0  0  0  0  0
  151.8118  143.7124  160.7960 H   0  0  0  0  0  0  0  0  0  0  0  0
  153.1477  142.4457  158.3524 H   0  0  0  0  0  0  0  0  0  0  0  0
  150.0824  142.6769  158.8832 H   0  0  0  0  0  0  0  0  0  0  0  0
  149.1840  142.8568  156.4824 H   0  0  0  0  0  0  0  0  0  0  0  0
  149.2898  142.0467  154.2201 H   0  0  0  0  0  0  0  0  0  0  0  0
  150.1945  140.6485  154.7437 H   0  0  0  0  0  0  0  0  0  0  0  0
  148.2714  139.7382  155.9007 H   0  0  0  0  0  0  0  0  0  0  0  0
  146.7100  139.2977  154.0631 H   0  0  0  0  0  0  0  0  0  0  0  0
  148.3762  139.2524  153.4976 H   0  0  0  0  0  0  0  0  0  0  0  0
  147.3668  140.6520  153.1464 H   0  0  0  0  0  0  0  0  0  0  0  0
  144.7634  143.6108  155.8821 H   0  0  0  0  0  0  0  0  0  0  0  0
  145.8182  143.6737  153.5810 H   0  0  0  0  0  0  0  0  0  0  0  0
  146.2398  142.0248  153.0823 H   0  0  0  0  0  0  0  0  0  0  0  0
  147.5128  143.1518  153.6053 H   0  0  0  0  0  0  0  0  0  0  0  0
  150.2395  145.7145  158.1258 H   0  0  0  0  0  0  0  0  0  0  0  0
  151.7422  145.9828  159.0246 H   0  0  0  0  0  0  0  0  0  0  0  0
  150.4896  144.9275  159.6855 H   0  0  0  0  0  0  0  0  0  0  0  0
  151.4815  144.7880  156.0247 H   0  0  0  0  0  0  0  0  0  0  0  0
  152.9046  143.7766  156.3185 H   0  0  0  0  0  0  0  0  0  0  0  0
  152.8641  145.4214  156.9292 H   0  0  0  0  0  0  0  0  0  0  0  0
  1  2  1  0  0  0  0
  1 22  1  0  0  0  0
  1 23  1  0  0  0  0
  1 24  1  0  0  0  0
  2  3  1  0  0  0  0
  2  4  2  0  0  0  0
  3 25  1  0  0  0  0
  3 26  1  0  0  0  0
  3 27  1  0  0  0  0
  4  5  1  0  0  0  0
  4 28  1  0  0  0  0
  5 19  1  0  0  0  0
  5  6  1  0  0  0  0
  5 29  1  0  0  0  0
  6  7  1  0  0  0  0
  6 19  1  0  0  0  0
  6 30  1  0  0  0  0
  7  8  2  0  0  0  0
  7  9  1  0  0  0  0
  9 10  1  0  0  0  0
  9 31  1  0  0  0  0
 10 11  1  0  0  0  0
 10 32  1  0  0  0  0
 10 33  1  0  0  0  0
 11 12  1  0  0  0  0
 11 13  1  0  0  0  0
 11 34  1  0  0  0  0
 12 35  1  0  0  0  0
 12 36  1  0  0  0  0
 12 37  1  0  0  0  0
 13 17  1  0  0  0  0
 13 14  2  0  0  0  0
 14 15  1  0  0  0  0
 15 16  2  0  0  0  0
 16 17  1  0  0  0  0
 16 38  1  0  0  0  0
 17 18  1  0  0  0  0
 18 39  1  0  0  0  0
 18 40  1  0  0  0  0
 18 41  1  0  0  0  0
 19 20  1  0  0  0  0
 19 21  1  0  0  0  0
 20 42  1  0  0  0  0
 20 43  1  0  0  0  0
 20 44  1  0  0  0  0
 21 45  1  0  0  0  0
 21 46  1  0  0  0  0
 21 47  1  0  0  0  0
M  END
> <s_m_source_file>
AV-unprocessed.smi

> <i_m_source_file_index>
2718

> <i_lp_mmshare_version>
43012

> <i_f3d_flags>
0

> <s_epik_input>
W0NIM11DKFtDSDNdKT1bQ0hdW0NAQEhdKEMxKFtDSDNdKVtDSDNdKVtDQEhdMUMoPU8pW05IXVtDSDJdW0NASF0oW0NIM10pYzJubltjSF1uMltDSDNd

> <s_epik_cmdline>
J2VwaWtfcHl0aG9uJywgJy1waCcsICc3LjAnLCAnLXRuJywgJzgnLCAnLW1hJywgJzIwMCcsICctbWV0YWxfYmluZGluZycsICctaW1hZScsICc8aW5maWxlLm1hZT4nLCAnLW9tYWUnLCAnPG91dGZpbGUubWFlPic=

> <r_lp_tautomer_probability>
1

> <r_epik_Ionization_Penalty>
0.000449586

> <r_epik_Ionization_Penalty_Charging>
0

> <r_epik_Ionization_Penalty_Neutral>
0.000449586

> <r_epik_State_Penalty>
0.000243372

> <r_epik_Charging_Adjusted_Penalty>
0.000243372

> <i_epik_Tot_Q>
0

> <i_epik_Tot_abs_Q>
0

> <r_epik_Metal_State_Penalty>
-0

> <b_epik_Metal_Only>
0

> <s_lp_Force_Field>
OPLS_2005

> <r_lp_Energy>
15.8619

> <b_lp_Chiralities_Consistent>
1

> <s_lp_Variant>
AV-unprocessed.smi:2718-4

> <Gold.Version>
5.8.1

> <Gold.Id.Protein>
6NUR|6NUR_protein|mol2

> <Gold.PLP.Fitness>
46.3434

> <Gold.PLP.PLP>
-46.4689

> <Gold.PLP.part.hbond>
-1.0000

> <Gold.PLP.part.metal>
0.0000

> <Gold.PLP.part.buried>
-6.6252

> <Gold.PLP.part.nonpolar>
-39.2123

> <Gold.PLP.part.repulsive>
0.2086

> <Gold.PLP.ligand.clash>
0.0000

> <Gold.PLP.ligand.torsion>
1.1230

> <Gold.PLP.Chemscore.Hbond>
0.6240

> <Gold.PLP.Chemscore.CHOScore>
0.0000

> <Gold.PLP.Chemscore.Metal>
0.0000

> <Gold.Chemscore.Hbonds>
donor molecule, donor type, donor heavy atom, donor atom, acceptor molecule, acceptor atom, score
      L1  H     9    31       P1  8028  0.61

> <Gold.PLP.Chemscore.Internal.Correction>
0.2486

> <Gold.Rescore>
     Score         DG    S(hbond)    S(metal)    S(lipo)     H(rot)  DE(clash)    DE(int)     intcor
     14.65     -17.15       0.67        0.00     123.22       1.95       1.60       0.90       ----

> <Gold.Chemscore.Fitness>
14.6450

> <Gold.Chemscore.DG>
-17.1475

> <Gold.Chemscore.ZeroCoef>
-5.4800

> <Gold.Chemscore.Hbond>
0.6740

> <Gold.Chemscore.Metal>
0.0000

> <Gold.Chemscore.Lipo>
123.2210

> <Gold.Chemscore.Internal_Hbond>
0.0000

> <Gold.Chemscore.DEClash>
1.6035

> <Gold.Chemscore.DEInternal>
0.8989

> <Gold.Chemscore.Rot>
1.9533

> <Gold.Chemscore.Internal.Correction>
   9.000000E+99

> <Gold.Chemscore.Hbonds>
donor molecule, donor type, donor heavy atom, donor atom, acceptor molecule, acceptor atom, score
      L1  H     9    31       P1  8028  0.58

> <Gold.Chemscore.Hbond.Weighted>
-2.2512

> <Gold.Chemscore.Metal.Weighted>
-0.0000

> <Gold.Chemscore.Lipo.Weighted>
-14.4169

> <Gold.Chemscore.Internal_Hbond.Weighted>
0.0000

> <Gold.Chemscore.DEClash.Weighted>
1.6035

> <Gold.Chemscore.DEInternal.Weighted>
0.8989

> <Gold.Chemscore.Rot.Weighted>
5.0005

> <Gold.Chemscore.Internal.Correction.Weighted>
   9.000000E+99

> <Gold.Protein.RotatedTorsions>
[ 6907 6896 6895 6894 ] final -170.16 input  -60.11 | X-H torsion
[ 7974 7965 7964 7962 ] final   40.30 input  175.53 | X-H torsion
[ 8008 7997 7996 7995 ] final  146.66 input   59.86 | X-H torsion
[ 10167 10162 10161 10158 ] final  -35.51 input  -65.29 | X-H torsion
[ 10718 10713 10712 10709 ] final   57.36 input   66.30 | X-H torsion
[ 10763 10752 10751 10750 ] final  136.51 input  -60.55 | X-H torsion
[ 11005 11000 10999 10996 ] final   29.57 input  -57.11 | X-H torsion

> <Gold.Protein.ActiveResidues>
 VAL166  LYS551  ARG553  GLY616  TRP617  ASP618  TYR619  PRO620  LYS621  CYS622 
 ASP623  PHE694  ASN695  SER759  ASP760  ASP761  ALA762  ILE779  LEU786  VAL792 
 PHE793  MET794  SER795  GLU796  ALA797  LYS798  CYS799  TRP800  GLU811  SER814 

> <Gold.Protein.RotatedAtoms>
  151.5032  133.3500  159.2872 H   0  0  0  0  0  0  0  0  0  0  0  0  # atno 6907 bound_to 6896
  150.8759  134.8144  159.7200 H   0  0  0  0  0  0  0  0  0  0  0  0  # atno 6908 bound_to 6896
  152.4730  134.4923  159.9751 H   0  0  0  0  0  0  0  0  0  0  0  0  # atno 6909 bound_to 6896
  146.0916  139.5549  142.9472 H   0  0  0  0  0  0  0  0  0  0  0  0  # atno 7974 bound_to 7965
  156.2849  140.2176  156.5412 H   0  0  0  0  0  0  0  0  0  0  0  0  # atno 8008 bound_to 7997
  154.7368  140.0491  157.0798 H   0  0  0  0  0  0  0  0  0  0  0  0  # atno 8009 bound_to 7997
  155.0282  140.3132  155.4771 H   0  0  0  0  0  0  0  0  0  0  0  0  # atno 8010 bound_to 7997
  140.7163  143.3473  151.2230 H   0  0  0  0  0  0  0  0  0  0  0  0  # atno 10167 bound_to 10162
  157.5508  130.8764  149.8960 H   0  0  0  0  0  0  0  0  0  0  0  0  # atno 10718 bound_to 10713
  153.8578  135.3071  155.3436 H   0  0  0  0  0  0  0  0  0  0  0  0  # atno 10763 bound_to 10752
  154.7862  135.4808  153.9955 H   0  0  0  0  0  0  0  0  0  0  0  0  # atno 10764 bound_to 10752
  153.1480  135.6837  153.9019 H   0  0  0  0  0  0  0  0  0  0  0  0  # atno 10765 bound_to 10752
  140.3036  134.2729  155.7748 H   0  0  0  0  0  0  0  0  0  0  0  0  # atno 11005 bound_to 11000
  145.6028  141.0352  143.2009 LP  0  0  0  0  0  0  0  0  0  0  0  0  # atno 17320 bound_to 7965
  144.7364  139.7573  143.7327 LP  0  0  0  0  0  0  0  0  0  0  0  0  # atno 17321 bound_to 7965
  139.6995  143.9557  152.2898 LP  0  0  0  0  0  0  0  0  0  0  0  0  # atno 17342 bound_to 10162
  139.9245  144.6779  150.8427 LP  0  0  0  0  0  0  0  0  0  0  0  0  # atno 17343 bound_to 10162
  156.0575  130.3706  150.1058 LP  0  0  0  0  0  0  0  0  0  0  0  0  # atno 17370 bound_to 10713
  156.9231  130.9689  151.3545 LP  0  0  0  0  0  0  0  0  0  0  0  0  # atno 17371 bound_to 10713
  141.2123  133.7662  156.9803 LP  0  0  0  0  0  0  0  0  0  0  0  0  # atno 17394 bound_to 11000
  140.1087  134.9490  157.2033 LP  0  0  0  0  0  0  0  0  0  0  0  0  # atno 17395 bound_to 11000

$$$$
