AV-unprocessed.smi:2202|AV-procd|sdf|8931|dock4
  -GOLD-   2272012143D 1   1.00000     0.00000
 Structure written by MMmdl.
 42 44  0  0  0  0  0  0  0  0  1 V2000
  155.6434  137.0019  161.2608 O   0  0  0  0  0  0  0  0  0  0  0  0
  155.2450  137.9275  161.9697 C   0  0  0  0  0  0  0  0  0  0  0  0
  155.8100  139.3462  161.8094 C   0  0  0  0  0  0  0  0  0  0  0  0
  154.8285  140.3070  161.2896 N   0  0  0  0  0  0  0  0  0  0  0  0
  154.3571  140.3041  160.0271 C   0  0  0  0  0  0  0  0  0  0  0  0
  154.5992  139.4824  159.1437 O   0  0  0  0  0  0  0  0  0  0  0  0
  153.5083  141.5484  159.8143 C   0  0  1  0  0  0  0  0  0  0  0  0
  152.2590  141.5576  158.9252 C   0  0  0  0  0  0  0  0  0  0  0  0
  151.5233  142.8821  159.1545 C   0  0  0  0  0  0  0  0  0  0  0  0
  151.7624  143.7037  160.2062 C   0  0  0  0  0  0  0  0  0  0  0  0
  152.7687  143.3906  161.3186 C   0  0  0  0  0  0  0  0  0  0  0  0
  153.1189  141.9000  161.2363 C   0  0  2  0  0  0  0  0  0  0  0  0
  154.2557  141.2761  162.0310 C   0  0  0  0  0  0  0  0  0  0  0  0
  154.5307  141.5866  163.1897 O   0  0  0  0  0  0  0  0  0  0  0  0
  154.3119  137.7731  162.9209 N   0  0  0  0  0  0  0  0  0  0  0  0
  153.6349  136.5195  163.2330 C   0  0  0  0  0  0  0  0  0  0  0  0
  154.5398  135.5742  164.0413 C   0  0  0  0  0  0  0  0  0  0  0  0
  154.1185  134.1227  163.9109 C   0  0  0  0  0  0  0  0  0  0  0  0
  153.4779  133.4591  164.9792 C   0  0  0  0  0  0  0  0  0  0  0  0
  153.1107  132.1102  164.8072 C   0  0  0  0  0  0  0  0  0  0  0  0
  153.3978  131.4800  163.5809 C   0  0  0  0  0  0  0  0  0  0  0  0
  154.0427  132.2299  162.5770 C   0  0  0  0  0  0  0  0  0  0  0  0
  154.3991  133.5233  162.7318 N   0  0  0  0  0  0  0  0  0  0  0  0
  156.1852  139.6930  162.7740 H   0  0  0  0  0  0  0  0  0  0  0  0
  156.6790  139.3004  161.1511 H   0  0  0  0  0  0  0  0  0  0  0  0
  154.1953  142.3051  159.4278 H   0  0  0  0  0  0  0  0  0  0  0  0
  152.5428  141.4774  157.8754 H   0  0  0  0  0  0  0  0  0  0  0  0
  151.5945  140.7234  159.1529 H   0  0  0  0  0  0  0  0  0  0  0  0
  150.7799  143.1561  158.4203 H   0  0  0  0  0  0  0  0  0  0  0  0
  151.2224  144.6353  160.2902 H   0  0  0  0  0  0  0  0  0  0  0  0
  153.6516  144.0204  161.2044 H   0  0  0  0  0  0  0  0  0  0  0  0
  152.3220  143.6197  162.2865 H   0  0  0  0  0  0  0  0  0  0  0  0
  152.2271  141.3350  161.5185 H   0  0  0  0  0  0  0  0  0  0  0  0
  154.0460  138.5832  163.4619 H   0  0  0  0  0  0  0  0  0  0  0  0
  152.7073  136.7199  163.7724 H   0  0  0  0  0  0  0  0  0  0  0  0
  153.3509  136.0455  162.2929 H   0  0  0  0  0  0  0  0  0  0  0  0
  155.5746  135.6781  163.7121 H   0  0  0  0  0  0  0  0  0  0  0  0
  154.5268  135.8477  165.0975 H   0  0  0  0  0  0  0  0  0  0  0  0
  153.2727  133.9689  165.9091 H   0  0  0  0  0  0  0  0  0  0  0  0
  152.6183  131.5688  165.6014 H   0  0  0  0  0  0  0  0  0  0  0  0
  153.1309  130.4471  163.4135 H   0  0  0  0  0  0  0  0  0  0  0  0
  154.2790  131.7787  161.6247 H   0  0  0  0  0  0  0  0  0  0  0  0
  1  2  2  0  0  0  0
  2  3  1  0  0  0  0
  2 15  1  0  0  0  0
  3  4  1  0  0  0  0
  3 24  1  0  0  0  0
  3 25  1  0  0  0  0
  4 13  1  0  0  0  0
  4  5  1  0  0  0  0
  5  6  2  0  0  0  0
  5  7  1  0  0  0  0
  7 12  1  0  0  0  0
  7  8  1  0  0  0  0
  7 26  1  0  0  0  0
  8  9  1  0  0  0  0
  8 27  1  0  0  0  0
  8 28  1  0  0  0  0
  9 10  2  0  0  0  0
  9 29  1  0  0  0  0
 10 11  1  0  0  0  0
 10 30  1  0  0  0  0
 11 12  1  0  0  0  0
 11 31  1  0  0  0  0
 11 32  1  0  0  0  0
 12 13  1  0  0  0  0
 12 33  1  0  0  0  0
 13 14  2  0  0  0  0
 15 16  1  0  0  0  0
 15 34  1  0  0  0  0
 16 17  1  0  0  0  0
 16 35  1  0  0  0  0
 16 36  1  0  0  0  0
 17 18  1  0  0  0  0
 17 37  1  0  0  0  0
 17 38  1  0  0  0  0
 18 23  1  0  0  0  0
 18 19  2  0  0  0  0
 19 20  1  0  0  0  0
 19 39  1  0  0  0  0
 20 21  2  0  0  0  0
 20 40  1  0  0  0  0
 21 22  1  0  0  0  0
 21 41  1  0  0  0  0
 22 23  2  0  0  0  0
 22 42  1  0  0  0  0
M  END
> <s_m_source_file>
AV-unprocessed.smi

> <i_m_source_file_index>
2202

> <i_lp_mmshare_version>
43012

> <i_f3d_flags>
0

> <s_epik_input>
W0NIMl0xW0NIXT1bQ0hdW0NIMl1bQ0BIXShbQ0BIXTEyKUMoPU8pTihDMj1PKVtDSDJdQyg9TylbTkhdW0NIMl1bQ0gyXWMzW2NIXVtjSF1bY0hdW2NIXW4z

> <s_epik_cmdline>
J2VwaWtfcHl0aG9uJywgJy1waCcsICc3LjAnLCAnLXRuJywgJzgnLCAnLW1hJywgJzIwMCcsICctbWV0YWxfYmluZGluZycsICctaW1hZScsICc8aW5maWxlLm1hZT4nLCAnLW9tYWUnLCAnPG91dGZpbGUubWFlPic=

> <r_lp_tautomer_probability>
1

> <r_epik_Ionization_Penalty>
0.0244696

> <r_epik_Ionization_Penalty_Charging>
0

> <r_epik_Ionization_Penalty_Neutral>
0.0244696

> <r_epik_State_Penalty>
0.0198648

> <r_epik_Charging_Adjusted_Penalty>
0.0198648

> <i_epik_Tot_Q>
0

> <i_epik_Tot_abs_Q>
0

> <r_epik_Metal_State_Penalty>
0.0190699

> <b_epik_Metal_Only>
0

> <s_lp_Force_Field>
OPLS_2005

> <r_lp_Energy>
20.8302

> <b_lp_Chiralities_Consistent>
1

> <s_lp_Variant>
AV-unprocessed.smi:2202-3

> <Gold.Version>
5.8.1

> <Gold.Id.Protein>
6NUR|6NUR_protein|mol2

> <Gold.PLP.Fitness>
48.9898

> <Gold.PLP.PLP>
-47.0881

> <Gold.PLP.part.hbond>
-2.0000

> <Gold.PLP.part.metal>
0.0000

> <Gold.PLP.part.buried>
-3.5835

> <Gold.PLP.part.nonpolar>
-41.6460

> <Gold.PLP.part.repulsive>
0.0160

> <Gold.PLP.ligand.clash>
0.0000

> <Gold.PLP.ligand.torsion>
0.5638

> <Gold.PLP.Chemscore.Hbond>
1.0000

> <Gold.PLP.Chemscore.CHOScore>
0.0000

> <Gold.PLP.Chemscore.Metal>
0.0000

> <Gold.Chemscore.Hbonds>
donor molecule, donor type, donor heavy atom, donor atom, acceptor molecule, acceptor atom, score
      P1  H  7997  8009       L1     6  1.00

> <Gold.PLP.Chemscore.Internal.Correction>
0.0293

> <Gold.Rescore>
     Score         DG    S(hbond)    S(metal)    S(lipo)     H(rot)  DE(clash)    DE(int)     intcor
     17.59     -18.51       0.99        0.00     123.71       1.85       0.38       0.54       ----

> <Gold.Chemscore.Fitness>
17.5873

> <Gold.Chemscore.DG>
-18.5070

> <Gold.Chemscore.ZeroCoef>
-5.4800

> <Gold.Chemscore.Hbond>
0.9877

> <Gold.Chemscore.Metal>
0.0000

> <Gold.Chemscore.Lipo>
123.7136

> <Gold.Chemscore.Internal_Hbond>
0.0000

> <Gold.Chemscore.DEClash>
0.3759

> <Gold.Chemscore.DEInternal>
0.5439

> <Gold.Chemscore.Rot>
1.8540

> <Gold.Chemscore.Internal.Correction>
   9.000000E+99

> <Gold.Chemscore.Hbonds>
donor molecule, donor type, donor heavy atom, donor atom, acceptor molecule, acceptor atom, score
      P1  H  7997  8009       L1     6  0.98

> <Gold.Chemscore.Hbond.Weighted>
-3.2988

> <Gold.Chemscore.Metal.Weighted>
-0.0000

> <Gold.Chemscore.Lipo.Weighted>
-14.4745

> <Gold.Chemscore.Internal_Hbond.Weighted>
0.0000

> <Gold.Chemscore.DEClash.Weighted>
0.3759

> <Gold.Chemscore.DEInternal.Weighted>
0.5439

> <Gold.Chemscore.Rot.Weighted>
4.7462

> <Gold.Chemscore.Internal.Correction.Weighted>
   9.000000E+99

> <Gold.Protein.RotatedTorsions>
[ 6907 6896 6895 6894 ] final   16.03 input  -60.11 | X-H torsion
[ 7974 7965 7964 7962 ] final  171.48 input  175.53 | X-H torsion
[ 8008 7997 7996 7995 ] final  124.69 input   59.86 | X-H torsion
[ 10167 10162 10161 10158 ] final -177.31 input  -65.29 | X-H torsion
[ 10718 10713 10712 10709 ] final   39.20 input   66.30 | X-H torsion
[ 10763 10752 10751 10750 ] final  105.49 input  -60.55 | X-H torsion
[ 11005 11000 10999 10996 ] final   60.12 input  -57.11 | X-H torsion

> <Gold.Protein.ActiveResidues>
 VAL166  LYS551  ARG553  GLY616  TRP617  ASP618  TYR619  PRO620  LYS621  CYS622 
 ASP623  PHE694  ASN695  SER759  ASP760  ASP761  ALA762  ILE779  LEU786  VAL792 
 PHE793  MET794  SER795  GLU796  ALA797  LYS798  CYS799  TRP800  GLU811  SER814 

> <Gold.Protein.RotatedAtoms>
  151.8275  135.0632  160.0432 H   0  0  0  0  0  0  0  0  0  0  0  0  # atno 6907 bound_to 6896
  152.2905  133.5552  159.5563 H   0  0  0  0  0  0  0  0  0  0  0  0  # atno 6908 bound_to 6896
  150.7228  134.0351  159.3789 H   0  0  0  0  0  0  0  0  0  0  0  0  # atno 6909 bound_to 6896
  144.7294  139.9356  143.6426 H   0  0  0  0  0  0  0  0  0  0  0  0  # atno 7974 bound_to 7965
  156.2810  140.2734  156.1828 H   0  0  0  0  0  0  0  0  0  0  0  0  # atno 8008 bound_to 7997
  155.0538  140.0386  157.2571 H   0  0  0  0  0  0  0  0  0  0  0  0  # atno 8009 bound_to 7997
  154.7173  140.2681  155.6579 H   0  0  0  0  0  0  0  0  0  0  0  0  # atno 8010 bound_to 7997
  139.5486  144.2169  152.1035 H   0  0  0  0  0  0  0  0  0  0  0  0  # atno 10167 bound_to 10162
  157.3678  130.7684  149.7095 H   0  0  0  0  0  0  0  0  0  0  0  0  # atno 10718 bound_to 10713
  153.3800  135.3908  155.1850 H   0  0  0  0  0  0  0  0  0  0  0  0  # atno 10763 bound_to 10752
  154.8706  135.3723  154.4869 H   0  0  0  0  0  0  0  0  0  0  0  0  # atno 10764 bound_to 10752
  153.5345  135.7085  153.5728 H   0  0  0  0  0  0  0  0  0  0  0  0  # atno 10765 bound_to 10752
  140.0254  134.6090  155.9580 H   0  0  0  0  0  0  0  0  0  0  0  0  # atno 11005 bound_to 11000
  146.0824  139.3812  143.0456 LP  0  0  0  0  0  0  0  0  0  0  0  0  # atno 17320 bound_to 7965
  145.7823  140.9851  143.1093 LP  0  0  0  0  0  0  0  0  0  0  0  0  # atno 17321 bound_to 7965
  140.1660  144.4981  150.6606 LP  0  0  0  0  0  0  0  0  0  0  0  0  # atno 17342 bound_to 10162
  140.6742  143.2298  151.5549 LP  0  0  0  0  0  0  0  0  0  0  0  0  # atno 17343 bound_to 10162
  155.9749  130.4096  150.3886 LP  0  0  0  0  0  0  0  0  0  0  0  0  # atno 17370 bound_to 10713
  157.1972  131.0429  151.2669 LP  0  0  0  0  0  0  0  0  0  0  0  0  # atno 17371 bound_to 10713
  141.1799  133.6545  156.4979 LP  0  0  0  0  0  0  0  0  0  0  0  0  # atno 17394 bound_to 11000
  140.4315  134.7097  157.4944 LP  0  0  0  0  0  0  0  0  0  0  0  0  # atno 17395 bound_to 11000

$$$$
