AV-unprocessed.smi:83|AV-procd|sdf|806|dock7
  -GOLD-   2262017203D 1   1.00000     0.00000
 Structure written by MMmdl.
 56 59  0  0  0  0  0  0  0  0  1 V2000
  142.3388  135.1753  162.7703 C   0  0  0  0  0  0  0  0  0  0  0  0
  143.5746  136.0436  162.5270 C   0  0  0  0  0  0  0  0  0  0  0  0
  143.4362  137.2623  162.4272 O   0  0  0  0  0  0  0  0  0  0  0  0
  144.7768  135.4409  162.4291 N   0  0  0  0  0  0  0  0  0  0  0  0
  144.9754  133.9986  162.5435 C   0  0  0  0  0  0  0  0  0  0  0  0
  146.4884  133.7846  162.4351 C   0  0  0  0  0  0  0  0  0  0  0  0
  146.9886  134.9936  161.6449 C   0  0  1  0  0  0  0  0  0  0  0  0
  146.8982  134.7109  160.1250 C   0  0  0  0  0  0  0  0  0  0  0  0
  148.1524  134.9184  159.3990 N   0  0  0  0  0  0  0  0  0  0  0  0
  148.9600  136.0739  159.7855 C   0  0  0  0  0  0  0  0  0  0  0  0
  148.3685  134.3440  158.1777 C   0  0  0  0  0  0  0  0  0  0  0  0
  149.6457  134.2997  157.7078 N   0  0  0  0  0  0  0  0  0  0  0  0
  149.9222  133.7914  156.5048 C   0  0  0  0  0  0  0  0  0  0  0  0
  149.0840  133.2760  155.6072 N   0  0  0  0  0  0  0  0  0  0  0  0
  147.8014  133.2976  156.0655 C   0  0  0  0  0  0  0  0  0  0  0  0
  147.3561  133.7980  157.3253 C   0  0  0  0  0  0  0  0  0  0  0  0
  145.9777  133.6252  157.4181 N   0  0  0  0  0  0  0  0  0  0  0  0
  145.6309  133.0809  156.2855 C   0  0  0  0  0  0  0  0  0  0  0  0
  146.6667  132.8514  155.4131 N   0  0  0  0  0  0  0  0  0  0  0  0
  146.5754  132.2615  154.0900 C   0  0  0  0  0  0  0  0  0  0  0  0
  145.6475  133.0616  153.1559 C   0  0  1  0  0  0  0  0  0  0  0  0
  146.2799  134.2522  152.7223 O   0  0  0  0  0  0  0  0  0  0  0  0
  145.1577  132.2395  151.9464 C   0  0  1  0  0  0  0  0  0  0  0  0
  143.9865  132.8490  151.1567 C   0  0  0  0  0  0  0  0  0  0  0  0
  144.5668  133.0702  149.7723 C   0  0  0  0  0  0  0  0  0  0  0  0
  145.6613  132.0135  149.7052 C   0  0  0  0  0  0  0  0  0  0  0  0
  146.2149  132.0407  151.0105 O   0  0  0  0  0  0  0  0  0  0  0  0
  146.0486  136.1015  162.1463 C   0  0  0  0  0  0  0  0  0  0  0  0
  142.2781  134.3715  162.0361 H   0  0  0  0  0  0  0  0  0  0  0  0
  141.4286  135.7708  162.6920 H   0  0  0  0  0  0  0  0  0  0  0  0
  142.3677  134.7367  163.7674 H   0  0  0  0  0  0  0  0  0  0  0  0
  144.5819  133.6073  163.4828 H   0  0  0  0  0  0  0  0  0  0  0  0
  144.4572  133.4994  161.7231 H   0  0  0  0  0  0  0  0  0  0  0  0
  146.9273  133.7985  163.4335 H   0  0  0  0  0  0  0  0  0  0  0  0
  146.7480  132.8289  161.9783 H   0  0  0  0  0  0  0  0  0  0  0  0
  148.0234  135.2195  161.9050 H   0  0  0  0  0  0  0  0  0  0  0  0
  146.6288  133.6626  159.9923 H   0  0  0  0  0  0  0  0  0  0  0  0
  146.0672  135.2482  159.6812 H   0  0  0  0  0  0  0  0  0  0  0  0
  150.0241  135.8511  159.6978 H   0  0  0  0  0  0  0  0  0  0  0  0
  148.7677  136.3570  160.8206 H   0  0  0  0  0  0  0  0  0  0  0  0
  148.7299  136.9335  159.1550 H   0  0  0  0  0  0  0  0  0  0  0  0
  150.9637  133.8050  156.2194 H   0  0  0  0  0  0  0  0  0  0  0  0
  144.6059  132.8284  156.0556 H   0  0  0  0  0  0  0  0  0  0  0  0
  147.5801  132.1950  153.6705 H   0  0  0  0  0  0  0  0  0  0  0  0
  146.2140  131.2382  154.1969 H   0  0  0  0  0  0  0  0  0  0  0  0
  144.7689  133.3690  153.7246 H   0  0  0  0  0  0  0  0  0  0  0  0
  147.1834  134.2288  152.9982 H   0  0  0  0  0  0  0  0  0  0  0  0
  144.8550  131.2517  152.2982 H   0  0  0  0  0  0  0  0  0  0  0  0
  143.1647  132.1335  151.1062 H   0  0  0  0  0  0  0  0  0  0  0  0
  143.5926  133.7683  151.5909 H   0  0  0  0  0  0  0  0  0  0  0  0
  143.8280  132.9725  148.9766 H   0  0  0  0  0  0  0  0  0  0  0  0
  145.0095  134.0650  149.7085 H   0  0  0  0  0  0  0  0  0  0  0  0
  145.2392  131.0268  149.5072 H   0  0  0  0  0  0  0  0  0  0  0  0
  146.4122  132.2286  148.9448 H   0  0  0  0  0  0  0  0  0  0  0  0
  145.9588  136.9329  161.4516 H   0  0  0  0  0  0  0  0  0  0  0  0
  146.4286  136.5131  163.0822 H   0  0  0  0  0  0  0  0  0  0  0  0
  1  2  1  0  0  0  0
  1 29  1  0  0  0  0
  1 30  1  0  0  0  0
  1 31  1  0  0  0  0
  2  3  2  0  0  0  0
  2  4  1  0  0  0  0
  4 28  1  0  0  0  0
  4  5  1  0  0  0  0
  5  6  1  0  0  0  0
  5 32  1  0  0  0  0
  5 33  1  0  0  0  0
  6  7  1  0  0  0  0
  6 34  1  0  0  0  0
  6 35  1  0  0  0  0
  7  8  1  0  0  0  0
  7 28  1  0  0  0  0
  7 36  1  0  0  0  0
  8  9  1  0  0  0  0
  8 37  1  0  0  0  0
  8 38  1  0  0  0  0
  9 10  1  0  0  0  0
  9 11  1  0  0  0  0
 10 39  1  0  0  0  0
 10 40  1  0  0  0  0
 10 41  1  0  0  0  0
 11 16  1  0  0  0  0
 11 12  2  0  0  0  0
 12 13  1  0  0  0  0
 13 14  2  0  0  0  0
 13 42  1  0  0  0  0
 14 15  1  0  0  0  0
 15 19  1  0  0  0  0
 15 16  2  0  0  0  0
 16 17  1  0  0  0  0
 17 18  2  0  0  0  0
 18 19  1  0  0  0  0
 18 43  1  0  0  0  0
 19 20  1  0  0  0  0
 20 21  1  0  0  0  0
 20 44  1  0  0  0  0
 20 45  1  0  0  0  0
 21 22  1  0  0  0  0
 21 23  1  0  0  0  0
 21 46  1  0  0  0  0
 22 47  1  0  0  0  0
 23 27  1  0  0  0  0
 23 24  1  0  0  0  0
 23 48  1  0  0  0  0
 24 25  1  0  0  0  0
 24 49  1  0  0  0  0
 24 50  1  0  0  0  0
 25 26  1  0  0  0  0
 25 51  1  0  0  0  0
 25 52  1  0  0  0  0
 26 27  1  0  0  0  0
 26 53  1  0  0  0  0
 26 54  1  0  0  0  0
 28 55  1  0  0  0  0
 28 56  1  0  0  0  0
M  END
> <s_m_source_file>
AV-unprocessed.smi

> <i_m_source_file_index>
83

> <i_lp_mmshare_version>
43012

> <i_f3d_flags>
0

> <s_epik_input>
W0NIM11DKD1PKU4xW0NIMl1bQ0gyXVtDQEhdKFtDSDJdMSlbQ0gyXU4oW0NIM10pYyhuW2NIXW4yKWMoYzIzKW5bY0hdbjNbQ0gyXVtDQEhdKFtPSF0pW0NAQEhdNFtDSDJdW0NIMl1bQ0gyXU80

> <s_epik_cmdline>
J2VwaWtfcHl0aG9uJywgJy1waCcsICc3LjAnLCAnLXRuJywgJzgnLCAnLW1hJywgJzIwMCcsICctbWV0YWxfYmluZGluZycsICctaW1hZScsICc8aW5maWxlLm1hZT4nLCAnLW9tYWUnLCAnPG91dGZpbGUubWFlPic=

> <r_lp_tautomer_probability>
1

> <r_epik_Ionization_Penalty>
0.00109752

> <r_epik_Ionization_Penalty_Charging>
0

> <r_epik_Ionization_Penalty_Neutral>
0.00109752

> <r_epik_State_Penalty>
0.000634803

> <r_epik_Charging_Adjusted_Penalty>
0.000634803

> <i_epik_Tot_Q>
0

> <i_epik_Tot_abs_Q>
0

> <r_epik_Metal_State_Penalty>
-0

> <b_epik_Metal_Only>
0

> <s_lp_Force_Field>
OPLS_2005

> <r_lp_Energy>
56.5247

> <b_lp_Chiralities_Consistent>
1

> <s_lp_Variant>
AV-unprocessed.smi:83-7

> <Gold.Version>
5.8.1

> <Gold.Id.Protein>
6NUR|6NUR_protein|mol2

> <Gold.PLP.Fitness>
44.5458

> <Gold.PLP.PLP>
-41.5233

> <Gold.PLP.part.hbond>
-1.9320

> <Gold.PLP.part.metal>
0.0000

> <Gold.PLP.part.buried>
-8.1576

> <Gold.PLP.part.nonpolar>
-32.1016

> <Gold.PLP.part.repulsive>
0.2201

> <Gold.PLP.ligand.clash>
0.0000

> <Gold.PLP.ligand.torsion>
1.6141

> <Gold.PLP.Chemscore.Hbond>
1.0000

> <Gold.PLP.Chemscore.CHOScore>
0.9333

> <Gold.PLP.Chemscore.Metal>
0.0000

> <Gold.Chemscore.Hbonds>
donor molecule, donor type, donor heavy atom, donor atom, acceptor molecule, acceptor atom, score
      P1  H  6896  6907       L1    12  1.00
      L1  C    18    43       P1 10957  1.00

> <Gold.PLP.Chemscore.Internal.Correction>
0.4506

> <Gold.Rescore>
     Score         DG    S(hbond)    S(metal)    S(lipo)     H(rot)  DE(clash)    DE(int)     intcor
      9.67     -12.27       0.86        0.00      90.84       2.62       0.23       2.37       ----

> <Gold.Chemscore.Fitness>
9.6715

> <Gold.Chemscore.DG>
-12.2689

> <Gold.Chemscore.ZeroCoef>
-5.4800

> <Gold.Chemscore.Hbond>
0.8551

> <Gold.Chemscore.Metal>
0.0000

> <Gold.Chemscore.Lipo>
90.8367

> <Gold.Chemscore.Internal_Hbond>
0.0000

> <Gold.Chemscore.DEClash>
0.2294

> <Gold.Chemscore.DEInternal>
2.3681

> <Gold.Chemscore.Rot>
2.6152

> <Gold.Chemscore.Internal.Correction>
   9.000000E+99

> <Gold.Chemscore.Hbonds>
donor molecule, donor type, donor heavy atom, donor atom, acceptor molecule, acceptor atom, score
      P1  H  6896  6907       L1    12  0.34

> <Gold.Chemscore.Hbond.Weighted>
-2.8559

> <Gold.Chemscore.Metal.Weighted>
-0.0000

> <Gold.Chemscore.Lipo.Weighted>
-10.6279

> <Gold.Chemscore.Internal_Hbond.Weighted>
0.0000

> <Gold.Chemscore.DEClash.Weighted>
0.2294

> <Gold.Chemscore.DEInternal.Weighted>
2.3681

> <Gold.Chemscore.Rot.Weighted>
6.6949

> <Gold.Chemscore.Internal.Correction.Weighted>
   9.000000E+99

> <Gold.Protein.RotatedTorsions>
[ 6907 6896 6895 6894 ] final -100.77 input  -60.11 | X-H torsion
[ 7974 7965 7964 7962 ] final   74.36 input  175.53 | X-H torsion
[ 8008 7997 7996 7995 ] final  131.95 input   59.86 | X-H torsion
[ 10167 10162 10161 10158 ] final  -83.40 input  -65.29 | X-H torsion
[ 10718 10713 10712 10709 ] final   57.14 input   66.30 | X-H torsion
[ 10763 10752 10751 10750 ] final  152.70 input  -60.55 | X-H torsion
[ 11005 11000 10999 10996 ] final  -60.91 input  -57.11 | X-H torsion

> <Gold.Protein.ActiveResidues>
 VAL166  LYS551  ARG553  GLY616  TRP617  ASP618  TYR619  PRO620  LYS621  CYS622 
 ASP623  PHE694  ASN695  SER759  ASP760  ASP761  ALA762  ILE779  LEU786  VAL792 
 PHE793  MET794  SER795  GLU796  ALA797  LYS798  CYS799  TRP800  GLU811  SER814 

> <Gold.Protein.RotatedAtoms>
  150.7128  134.0837  159.3906 H   0  0  0  0  0  0  0  0  0  0  0  0  # atno 6907 bound_to 6896
  151.8821  135.0447  160.0499 H   0  0  0  0  0  0  0  0  0  0  0  0  # atno 6908 bound_to 6896
  152.2559  133.5220  159.5389 H   0  0  0  0  0  0  0  0  0  0  0  0  # atno 6909 bound_to 6896
  145.7292  139.2677  143.1551 H   0  0  0  0  0  0  0  0  0  0  0  0  # atno 7974 bound_to 7965
  156.2976  140.2558  156.3009 H   0  0  0  0  0  0  0  0  0  0  0  0  # atno 8008 bound_to 7997
  154.9419  140.0396  157.2120 H   0  0  0  0  0  0  0  0  0  0  0  0  # atno 8009 bound_to 7997
  154.8118  140.2845  155.5852 H   0  0  0  0  0  0  0  0  0  0  0  0  # atno 8010 bound_to 7997
  140.4230  143.2577  151.8864 H   0  0  0  0  0  0  0  0  0  0  0  0  # atno 10167 bound_to 10162
  157.5490  130.8751  149.8934 H   0  0  0  0  0  0  0  0  0  0  0  0  # atno 10718 bound_to 10713
  154.1243  135.2831  155.3201 H   0  0  0  0  0  0  0  0  0  0  0  0  # atno 10763 bound_to 10752
  154.6401  135.5405  153.7782 H   0  0  0  0  0  0  0  0  0  0  0  0  # atno 10764 bound_to 10752
  153.0302  135.6484  154.1396 H   0  0  0  0  0  0  0  0  0  0  0  0  # atno 10765 bound_to 10752
  141.1305  133.6626  156.5294 H   0  0  0  0  0  0  0  0  0  0  0  0  # atno 11005 bound_to 11000
  146.0553  140.8027  142.9761 LP  0  0  0  0  0  0  0  0  0  0  0  0  # atno 17320 bound_to 7965
  144.6897  140.3115  143.7247 LP  0  0  0  0  0  0  0  0  0  0  0  0  # atno 17321 bound_to 7965
  139.4783  144.5417  151.8518 LP  0  0  0  0  0  0  0  0  0  0  0  0  # atno 17342 bound_to 10162
  140.4512  144.1852  150.5897 LP  0  0  0  0  0  0  0  0  0  0  0  0  # atno 17343 bound_to 10162
  156.0560  130.3708  150.1090 LP  0  0  0  0  0  0  0  0  0  0  0  0  # atno 17370 bound_to 10713
  156.9265  130.9700  151.3540 LP  0  0  0  0  0  0  0  0  0  0  0  0  # atno 17371 bound_to 10713
  140.4228  134.7172  157.4899 LP  0  0  0  0  0  0  0  0  0  0  0  0  # atno 17394 bound_to 11000
  140.0348  134.6353  155.9058 LP  0  0  0  0  0  0  0  0  0  0  0  0  # atno 17395 bound_to 11000

$$$$
