AV-unprocessed.smi:1220|AV-procd|sdf|5117|dock2
  -GOLD-   22720 4173D 1   1.00000     0.00000
 Structure written by MMmdl.
 35 36  0  0  0  0  0  0  0  0  1 V2000
  151.4597  140.9691  159.3241 C   0  0  0  0  0  0  0  0  0  0  0  0
  152.9765  141.1551  159.1835 C   0  0  1  0  0  0  0  0  0  0  0  0
  153.4298  142.5201  159.7455 C   0  0  0  0  0  0  0  0  0  0  0  0
  152.4349  143.5625  159.5629 N   0  0  0  0  0  0  0  0  0  0  0  0
  151.9010  144.4129  160.5085 C   0  0  0  0  0  0  0  0  0  0  0  0
  151.0203  145.2339  159.8651 C   0  0  0  0  0  0  0  0  0  0  0  0
  151.0809  144.7996  158.5115 C   0  0  0  0  0  0  0  0  0  0  0  0
  151.9254  143.7963  158.3344 N   0  0  0  0  0  0  0  0  0  0  0  0
  153.6556  140.0592  159.8745 N   0  0  0  0  0  0  0  0  0  0  0  0
  154.1890  138.9745  159.2897 C   0  0  0  0  0  0  0  0  0  0  0  0
  154.1299  138.7585  158.0790 O   0  0  0  0  0  0  0  0  0  0  0  0
  154.9221  137.9953  160.2137 C   0  0  1  0  0  0  0  0  0  0  0  0
  153.9979  137.4118  161.3043 C   0  0  0  0  0  0  0  0  0  0  0  0
  154.7085  136.2206  161.9547 C   0  0  0  0  0  0  0  0  0  0  0  0
  155.6779  135.4331  160.6156 S   0  0  0  0  0  0  0  0  0  0  0  0
  157.0779  135.3070  161.0481 O   0  0  0  0  0  0  0  0  0  0  0  0
  154.9395  134.2736  160.0930 O   0  0  0  0  0  0  0  0  0  0  0  0
  155.5260  136.8185  159.4258 C   0  0  0  0  0  0  0  0  0  0  0  0
  150.9183  141.7527  158.7933 H   0  0  0  0  0  0  0  0  0  0  0  0
  151.1497  141.0002  160.3693 H   0  0  0  0  0  0  0  0  0  0  0  0
  151.1409  140.0122  158.9093 H   0  0  0  0  0  0  0  0  0  0  0  0
  153.2061  141.1208  158.1170 H   0  0  0  0  0  0  0  0  0  0  0  0
  153.6380  142.4366  160.8133 H   0  0  0  0  0  0  0  0  0  0  0  0
  154.3599  142.8387  159.2727 H   0  0  0  0  0  0  0  0  0  0  0  0
  152.1957  144.3686  161.5465 H   0  0  0  0  0  0  0  0  0  0  0  0
  150.4249  146.0255  160.2949 H   0  0  0  0  0  0  0  0  0  0  0  0
  150.5401  145.1809  157.6580 H   0  0  0  0  0  0  0  0  0  0  0  0
  153.7527  140.1482  160.8757 H   0  0  0  0  0  0  0  0  0  0  0  0
  155.7384  138.5164  160.7173 H   0  0  0  0  0  0  0  0  0  0  0  0
  153.7292  138.1623  162.0484 H   0  0  0  0  0  0  0  0  0  0  0  0
  153.0665  137.0598  160.8577 H   0  0  0  0  0  0  0  0  0  0  0  0
  155.4057  136.5574  162.7220 H   0  0  0  0  0  0  0  0  0  0  0  0
  154.0205  135.5006  162.3983 H   0  0  0  0  0  0  0  0  0  0  0  0
  154.8775  136.4912  158.6118 H   0  0  0  0  0  0  0  0  0  0  0  0
  156.5062  137.0529  159.0106 H   0  0  0  0  0  0  0  0  0  0  0  0
  1  2  1  0  0  0  0
  1 19  1  0  0  0  0
  1 20  1  0  0  0  0
  1 21  1  0  0  0  0
  2  3  1  0  0  0  0
  2  9  1  0  0  0  0
  2 22  1  0  0  0  0
  3  4  1  0  0  0  0
  3 23  1  0  0  0  0
  3 24  1  0  0  0  0
  4  8  1  0  0  0  0
  4  5  1  0  0  0  0
  5  6  2  0  0  0  0
  5 25  1  0  0  0  0
  6  7  1  0  0  0  0
  6 26  1  0  0  0  0
  7  8  2  0  0  0  0
  7 27  1  0  0  0  0
  9 10  1  0  0  0  0
  9 28  1  0  0  0  0
 10 11  2  0  0  0  0
 10 12  1  0  0  0  0
 12 18  1  0  0  0  0
 12 13  1  0  0  0  0
 12 29  1  0  0  0  0
 13 14  1  0  0  0  0
 13 30  1  0  0  0  0
 13 31  1  0  0  0  0
 14 15  1  0  0  0  0
 14 32  1  0  0  0  0
 14 33  1  0  0  0  0
 15 16  2  0  0  0  0
 15 17  2  0  0  0  0
 15 18  1  0  0  0  0
 18 34  1  0  0  0  0
 18 35  1  0  0  0  0
M  END
> <s_m_source_file>
AV-unprocessed.smi

> <i_m_source_file_index>
1220

> <i_lp_mmshare_version>
43012

> <i_f3d_flags>
0

> <s_epik_input>
bjFbY0hdW2NIXVtjSF1uMVtDSDJdW0NAQEhdKFtDSDNdKVtOSF1DKD1PKVtDQEBIXShbQ0gyXTIpW0NIMl1bQ0gyXVMyKD1PKT1P

> <s_epik_cmdline>
J2VwaWtfcHl0aG9uJywgJy1waCcsICc3LjAnLCAnLXRuJywgJzgnLCAnLW1hJywgJzIwMCcsICctbWV0YWxfYmluZGluZycsICctaW1hZScsICc8aW5maWxlLm1hZT4nLCAnLW9tYWUnLCAnPG91dGZpbGUubWFlPic=

> <r_lp_tautomer_probability>
1

> <r_epik_Ionization_Penalty>
0.000293905

> <r_epik_Ionization_Penalty_Charging>
0

> <r_epik_Ionization_Penalty_Neutral>
0.000293905

> <r_epik_State_Penalty>
-0

> <r_epik_Charging_Adjusted_Penalty>
0

> <i_epik_Tot_Q>
0

> <i_epik_Tot_abs_Q>
0

> <r_epik_Metal_State_Penalty>
-0

> <b_epik_Metal_Only>
0

> <s_lp_Force_Field>
OPLS_2005

> <r_lp_Energy>
3.0384

> <b_lp_Chiralities_Consistent>
1

> <s_lp_Variant>
AV-unprocessed.smi:1220-4

> <Gold.Version>
5.8.1

> <Gold.Id.Protein>
6NUR|6NUR_protein|mol2

> <Gold.PLP.Fitness>
41.3814

> <Gold.PLP.PLP>
-33.5744

> <Gold.PLP.part.hbond>
-2.0000

> <Gold.PLP.part.metal>
0.0000

> <Gold.PLP.part.buried>
-5.2177

> <Gold.PLP.part.nonpolar>
-26.9380

> <Gold.PLP.part.repulsive>
0.1312

> <Gold.PLP.ligand.clash>
0.0000

> <Gold.PLP.ligand.torsion>
0.5927

> <Gold.PLP.Chemscore.Hbond>
1.9913

> <Gold.PLP.Chemscore.CHOScore>
0.9964

> <Gold.PLP.Chemscore.Metal>
0.0000

> <Gold.Chemscore.Hbonds>
donor molecule, donor type, donor heavy atom, donor atom, acceptor molecule, acceptor atom, score
      P1  H  6896  6907       L1    17  0.23
      P1  H  7997  8010       L1    11  1.00
      L1  C     7    27       P1  8028  0.60
      L1  C     7    27       P1  8029  0.14

> <Gold.PLP.Chemscore.Internal.Correction>
0.0295

> <Gold.Rescore>
     Score         DG    S(hbond)    S(metal)    S(lipo)     H(rot)  DE(clash)    DE(int)     intcor
     17.20     -17.69       1.99        0.00      85.62       1.75       0.02       0.46       ----

> <Gold.Chemscore.Fitness>
17.2043

> <Gold.Chemscore.DG>
-17.6851

> <Gold.Chemscore.ZeroCoef>
-5.4800

> <Gold.Chemscore.Hbond>
1.9932

> <Gold.Chemscore.Metal>
0.0000

> <Gold.Chemscore.Lipo>
85.6202

> <Gold.Chemscore.Internal_Hbond>
0.0000

> <Gold.Chemscore.DEClash>
0.0202

> <Gold.Chemscore.DEInternal>
0.4605

> <Gold.Chemscore.Rot>
1.7460

> <Gold.Chemscore.Internal.Correction>
   9.000000E+99

> <Gold.Chemscore.Hbonds>
donor molecule, donor type, donor heavy atom, donor atom, acceptor molecule, acceptor atom, score
      P1  H  6896  6907       L1    17  0.23
      P1  H  7997  8010       L1    11  0.92

> <Gold.Chemscore.Hbond.Weighted>
-6.6572

> <Gold.Chemscore.Metal.Weighted>
-0.0000

> <Gold.Chemscore.Lipo.Weighted>
-10.0176

> <Gold.Chemscore.Internal_Hbond.Weighted>
0.0000

> <Gold.Chemscore.DEClash.Weighted>
0.0202

> <Gold.Chemscore.DEInternal.Weighted>
0.4605

> <Gold.Chemscore.Rot.Weighted>
4.4697

> <Gold.Chemscore.Internal.Correction.Weighted>
   9.000000E+99

> <Gold.Protein.RotatedTorsions>
[ 6907 6896 6895 6894 ] final   85.10 input  -60.11 | X-H torsion
[ 7974 7965 7964 7962 ] final  104.63 input  175.53 | X-H torsion
[ 8008 7997 7996 7995 ] final   28.77 input   59.86 | X-H torsion
[ 10167 10162 10161 10158 ] final  -37.99 input  -65.29 | X-H torsion
[ 10718 10713 10712 10709 ] final -145.80 input   66.30 | X-H torsion
[ 10763 10752 10751 10750 ] final  -29.17 input  -60.55 | X-H torsion
[ 11005 11000 10999 10996 ] final   96.71 input  -57.11 | X-H torsion

> <Gold.Protein.ActiveResidues>
 VAL166  LYS551  ARG553  GLY616  TRP617  ASP618  TYR619  PRO620  LYS621  CYS622 
 ASP623  PHE694  ASN695  SER759  ASP760  ASP761  ALA762  ILE779  LEU786  VAL792 
 PHE793  MET794  SER795  GLU796  ALA797  LYS798  CYS799  TRP800  GLU811  SER814 

> <Gold.Protein.RotatedAtoms>
  152.5367  134.2638  159.8945 H   0  0  0  0  0  0  0  0  0  0  0  0  # atno 6907 bound_to 6896
  151.2597  133.4302  159.2623 H   0  0  0  0  0  0  0  0  0  0  0  0  # atno 6908 bound_to 6896
  151.0464  134.9657  159.8245 H   0  0  0  0  0  0  0  0  0  0  0  0  # atno 6909 bound_to 6896
  145.3303  139.2488  143.3664 H   0  0  0  0  0  0  0  0  0  0  0  0  # atno 7974 bound_to 7965
  155.0640  140.3193  155.4651 H   0  0  0  0  0  0  0  0  0  0  0  0  # atno 8008 bound_to 7997
  156.2806  140.2124  156.5711 H   0  0  0  0  0  0  0  0  0  0  0  0  # atno 8009 bound_to 7997
  154.7109  140.0498  157.0536 H   0  0  0  0  0  0  0  0  0  0  0  0  # atno 8010 bound_to 7997
  140.7104  143.3306  151.2577 H   0  0  0  0  0  0  0  0  0  0  0  0  # atno 10167 bound_to 10162
  156.3870  130.7866  151.2064 H   0  0  0  0  0  0  0  0  0  0  0  0  # atno 10718 bound_to 10713
  153.7602  135.6920  153.4927 H   0  0  0  0  0  0  0  0  0  0  0  0  # atno 10763 bound_to 10752
  153.1943  135.4459  155.0187 H   0  0  0  0  0  0  0  0  0  0  0  0  # atno 10764 bound_to 10752
  154.8155  135.3397  154.7118 H   0  0  0  0  0  0  0  0  0  0  0  0  # atno 10765 bound_to 10752
  139.8780  134.8964  156.4200 H   0  0  0  0  0  0  0  0  0  0  0  0  # atno 11005 bound_to 11000
  146.3048  140.3879  142.8691 LP  0  0  0  0  0  0  0  0  0  0  0  0  # atno 17320 bound_to 7965
  144.8869  140.7474  143.5951 LP  0  0  0  0  0  0  0  0  0  0  0  0  # atno 17321 bound_to 7965
  139.6787  143.9892  152.2796 LP  0  0  0  0  0  0  0  0  0  0  0  0  # atno 17342 bound_to 10162
  139.9515  144.6617  150.8167 LP  0  0  0  0  0  0  0  0  0  0  0  0  # atno 17343 bound_to 10162
  157.7496  131.0327  150.4239 LP  0  0  0  0  0  0  0  0  0  0  0  0  # atno 17370 bound_to 10713
  156.4493  130.4008  149.6646 LP  0  0  0  0  0  0  0  0  0  0  0  0  # atno 17371 bound_to 10713
  140.9141  133.7691  155.9826 LP  0  0  0  0  0  0  0  0  0  0  0  0  # atno 17394 bound_to 11000
  140.8514  134.2950  157.5274 LP  0  0  0  0  0  0  0  0  0  0  0  0  # atno 17395 bound_to 11000

$$$$
