AV-unprocessed.smi:1147|AV-procd|sdf|4888|dock2
  -GOLD-   22720 3463D 1   1.00000     0.00000
 Structure written by MMmdl.
 41 42  0  0  0  0  0  0  0  0  1 V2000
  151.3680  141.2848  156.1867 C   0  0  0  0  0  0  0  0  0  0  0  0
  151.5048  139.9821  155.3956 C   0  0  0  0  0  0  0  0  0  0  0  0
  152.6284  139.4916  155.2833 O   0  0  0  0  0  0  0  0  0  0  0  0
  150.4007  139.4170  154.8501 N   0  0  0  0  0  0  0  0  0  0  0  0
  150.3724  138.1517  154.0983 C   0  0  0  0  0  0  0  0  0  0  0  0
  149.4880  137.1374  154.8511 C   0  0  0  0  0  0  0  0  0  0  0  0
  148.1346  137.7048  155.0011 N   0  0  0  0  0  0  0  0  0  0  0  0
  147.0100  137.2813  154.3705 C   0  0  0  0  0  0  0  0  0  0  0  0
  145.9527  137.9133  154.3799 O   0  0  0  0  0  0  0  0  0  0  0  0
  147.1241  136.0898  153.7585 N   0  0  0  0  0  0  0  0  0  0  0  0
  146.0665  135.4019  153.0230 C   0  0  1  0  0  0  0  0  0  0  0  0
  145.5334  136.3056  151.8958 C   0  0  0  0  0  0  0  0  0  0  0  0
  146.6056  134.0494  152.5157 C   0  0  0  0  0  0  0  0  0  0  0  0
  145.6233  133.3052  151.7476 N   0  0  0  0  0  0  0  0  0  0  0  0
  145.7938  132.1205  151.0628 C   0  0  0  0  0  0  0  0  0  0  0  0
  144.5933  131.8026  150.4953 C   0  0  0  0  0  0  0  0  0  0  0  0
  143.7389  132.8688  150.8929 C   0  0  0  0  0  0  0  0  0  0  0  0
  144.3589  133.7681  151.6398 N   0  0  0  0  0  0  0  0  0  0  0  0
  148.1728  138.9569  155.7712 C   0  0  0  0  0  0  0  0  0  0  0  0
  149.0519  139.9788  155.0231 C   0  0  0  0  0  0  0  0  0  0  0  0
  150.9683  142.0800  155.5566 H   0  0  0  0  0  0  0  0  0  0  0  0
  152.3395  141.6125  156.5582 H   0  0  0  0  0  0  0  0  0  0  0  0
  150.7125  141.1484  157.0472 H   0  0  0  0  0  0  0  0  0  0  0  0
  149.9647  138.3390  153.1038 H   0  0  0  0  0  0  0  0  0  0  0  0
  151.3569  137.7168  153.9350 H   0  0  0  0  0  0  0  0  0  0  0  0
  149.5135  136.1813  154.3289 H   0  0  0  0  0  0  0  0  0  0  0  0
  149.9038  136.9400  155.8406 H   0  0  0  0  0  0  0  0  0  0  0  0
  148.0185  135.6240  153.8055 H   0  0  0  0  0  0  0  0  0  0  0  0
  145.2430  135.1926  153.7084 H   0  0  0  0  0  0  0  0  0  0  0  0
  144.6916  135.8447  151.3788 H   0  0  0  0  0  0  0  0  0  0  0  0
  146.3069  136.5113  151.1552 H   0  0  0  0  0  0  0  0  0  0  0  0
  145.1845  137.2618  152.2865 H   0  0  0  0  0  0  0  0  0  0  0  0
  147.4946  134.2013  151.9006 H   0  0  0  0  0  0  0  0  0  0  0  0
  146.9135  133.4282  153.3579 H   0  0  0  0  0  0  0  0  0  0  0  0
  146.7442  131.6076  151.0390 H   0  0  0  0  0  0  0  0  0  0  0  0
  144.3609  130.9400  149.8886 H   0  0  0  0  0  0  0  0  0  0  0  0
  142.6942  133.0154  150.6617 H   0  0  0  0  0  0  0  0  0  0  0  0
  147.1813  139.3787  155.9419 H   0  0  0  0  0  0  0  0  0  0  0  0
  148.5846  138.7583  156.7619 H   0  0  0  0  0  0  0  0  0  0  0  0
  149.0530  140.9227  155.5693 H   0  0  0  0  0  0  0  0  0  0  0  0
  148.6258  140.1996  154.0432 H   0  0  0  0  0  0  0  0  0  0  0  0
  1  2  1  0  0  0  0
  1 21  1  0  0  0  0
  1 22  1  0  0  0  0
  1 23  1  0  0  0  0
  2  3  2  0  0  0  0
  2  4  1  0  0  0  0
  4 20  1  0  0  0  0
  4  5  1  0  0  0  0
  5  6  1  0  0  0  0
  5 24  1  0  0  0  0
  5 25  1  0  0  0  0
  6  7  1  0  0  0  0
  6 26  1  0  0  0  0
  6 27  1  0  0  0  0
  7  8  1  0  0  0  0
  7 19  1  0  0  0  0
  8  9  2  0  0  0  0
  8 10  1  0  0  0  0
 10 11  1  0  0  0  0
 10 28  1  0  0  0  0
 11 12  1  0  0  0  0
 11 13  1  0  0  0  0
 11 29  1  0  0  0  0
 12 30  1  0  0  0  0
 12 31  1  0  0  0  0
 12 32  1  0  0  0  0
 13 14  1  0  0  0  0
 13 33  1  0  0  0  0
 13 34  1  0  0  0  0
 14 18  1  0  0  0  0
 14 15  1  0  0  0  0
 15 16  2  0  0  0  0
 15 35  1  0  0  0  0
 16 17  1  0  0  0  0
 16 36  1  0  0  0  0
 17 18  2  0  0  0  0
 17 37  1  0  0  0  0
 19 20  1  0  0  0  0
 19 38  1  0  0  0  0
 19 39  1  0  0  0  0
 20 40  1  0  0  0  0
 20 41  1  0  0  0  0
M  END
> <s_m_source_file>
AV-unprocessed.smi

> <i_m_source_file_index>
1147

> <i_lp_mmshare_version>
43012

> <i_f3d_flags>
0

> <s_epik_input>
W0NIM11DKD1PKU4xW0NIMl1bQ0gyXU4oW0NIMl1bQ0gyXTEpQyg9TylbTkhdW0NASF0oW0NIM10pW0NIMl1uMltjSF1bY0hdW2NIXW4y

> <s_epik_cmdline>
J2VwaWtfcHl0aG9uJywgJy1waCcsICc3LjAnLCAnLXRuJywgJzgnLCAnLW1hJywgJzIwMCcsICctbWV0YWxfYmluZGluZycsICctaW1hZScsICc8aW5maWxlLm1hZT4nLCAnLW9tYWUnLCAnPG91dGZpbGUubWFlPic=

> <r_lp_tautomer_probability>
1

> <r_epik_Ionization_Penalty>
5.58143e-05

> <r_epik_Ionization_Penalty_Charging>
0

> <r_epik_Ionization_Penalty_Neutral>
5.58143e-05

> <r_epik_State_Penalty>
-0

> <r_epik_Charging_Adjusted_Penalty>
0

> <i_epik_Tot_Q>
0

> <i_epik_Tot_abs_Q>
0

> <r_epik_Metal_State_Penalty>
-0

> <b_epik_Metal_Only>
0

> <s_lp_Force_Field>
OPLS_2005

> <r_lp_Energy>
47.733

> <b_lp_Chiralities_Consistent>
1

> <s_lp_Variant>
AV-unprocessed.smi:1147-2

> <Gold.Version>
5.8.1

> <Gold.Id.Protein>
6NUR|6NUR_protein|mol2

> <Gold.PLP.Fitness>
39.3634

> <Gold.PLP.PLP>
-30.4644

> <Gold.PLP.part.hbond>
-1.9864

> <Gold.PLP.part.metal>
0.0000

> <Gold.PLP.part.buried>
-4.4711

> <Gold.PLP.part.nonpolar>
-24.8872

> <Gold.PLP.part.repulsive>
0.2256

> <Gold.PLP.ligand.clash>
0.0000

> <Gold.PLP.ligand.torsion>
0.0777

> <Gold.PLP.Chemscore.Hbond>
1.0000

> <Gold.PLP.Chemscore.CHOScore>
2.0000

> <Gold.PLP.Chemscore.Metal>
0.0000

> <Gold.Chemscore.Hbonds>
donor molecule, donor type, donor heavy atom, donor atom, acceptor molecule, acceptor atom, score
      L1  H    10    28       P1  7948  0.02
      P1  H  7997  8010       L1     3  0.98
      L1  C    15    35       P1 10747  1.00
      L1  C    17    37       P1 10186  1.00

> <Gold.PLP.Chemscore.Internal.Correction>
0.0543

> <Gold.Rescore>
     Score         DG    S(hbond)    S(metal)    S(lipo)     H(rot)  DE(clash)    DE(int)     intcor
     11.04     -12.29       1.01        0.00      61.38       1.46       0.07       1.18       ----

> <Gold.Chemscore.Fitness>
11.0434

> <Gold.Chemscore.DG>
-12.2938

> <Gold.Chemscore.ZeroCoef>
-5.4800

> <Gold.Chemscore.Hbond>
1.0122

> <Gold.Chemscore.Metal>
0.0000

> <Gold.Chemscore.Lipo>
61.3754

> <Gold.Chemscore.Internal_Hbond>
0.0000

> <Gold.Chemscore.DEClash>
0.0707

> <Gold.Chemscore.DEInternal>
1.1796

> <Gold.Chemscore.Rot>
1.4640

> <Gold.Chemscore.Internal.Correction>
   9.000000E+99

> <Gold.Chemscore.Hbonds>
donor molecule, donor type, donor heavy atom, donor atom, acceptor molecule, acceptor atom, score
      L1  H    10    28       P1  7948  0.05
      P1  H  7997  8010       L1     3  0.91

> <Gold.Chemscore.Hbond.Weighted>
-3.3806

> <Gold.Chemscore.Metal.Weighted>
-0.0000

> <Gold.Chemscore.Lipo.Weighted>
-7.1809

> <Gold.Chemscore.Internal_Hbond.Weighted>
0.0000

> <Gold.Chemscore.DEClash.Weighted>
0.0707

> <Gold.Chemscore.DEInternal.Weighted>
1.1796

> <Gold.Chemscore.Rot.Weighted>
3.7477

> <Gold.Chemscore.Internal.Correction.Weighted>
   9.000000E+99

> <Gold.Protein.RotatedTorsions>
[ 6907 6896 6895 6894 ] final   87.62 input  -60.11 | X-H torsion
[ 7974 7965 7964 7962 ] final    4.28 input  175.53 | X-H torsion
[ 8008 7997 7996 7995 ] final   88.04 input   59.86 | X-H torsion
[ 10167 10162 10161 10158 ] final  -69.18 input  -65.29 | X-H torsion
[ 10718 10713 10712 10709 ] final  -10.25 input   66.30 | X-H torsion
[ 10763 10752 10751 10750 ] final  -82.70 input  -60.55 | X-H torsion
[ 11005 11000 10999 10996 ] final -173.67 input  -57.11 | X-H torsion

> <Gold.Protein.ActiveResidues>
 VAL166  LYS551  ARG553  GLY616  TRP617  ASP618  TYR619  PRO620  LYS621  CYS622 
 ASP623  PHE694  ASN695  SER759  ASP760  ASP761  ALA762  ILE779  LEU786  VAL792 
 PHE793  MET794  SER795  GLU796  ALA797  LYS798  CYS799  TRP800  GLU811  SER814 

> <Gold.Protein.RotatedAtoms>
  152.5414  134.2248  159.8801 H   0  0  0  0  0  0  0  0  0  0  0  0  # atno 6907 bound_to 6896
  151.2223  133.4488  159.2608 H   0  0  0  0  0  0  0  0  0  0  0  0  # atno 6908 bound_to 6896
  151.0793  134.9861  159.8404 H   0  0  0  0  0  0  0  0  0  0  0  0  # atno 6909 bound_to 6896
  146.2444  140.0558  142.8372 H   0  0  0  0  0  0  0  0  0  0  0  0  # atno 7974 bound_to 7965
  155.9828  140.3376  155.6679 H   0  0  0  0  0  0  0  0  0  0  0  0  # atno 8008 bound_to 7997
  155.6526  140.0707  157.2600 H   0  0  0  0  0  0  0  0  0  0  0  0  # atno 8009 bound_to 7997
  154.4197  140.1723  156.1678 H   0  0  0  0  0  0  0  0  0  0  0  0  # atno 8010 bound_to 7997
  140.5451  143.2313  151.7017 H   0  0  0  0  0  0  0  0  0  0  0  0  # atno 10167 bound_to 10162
  156.6762  130.5023  149.5985 H   0  0  0  0  0  0  0  0  0  0  0  0  # atno 10718 bound_to 10713
  154.5790  135.5582  153.7167 H   0  0  0  0  0  0  0  0  0  0  0  0  # atno 10763 bound_to 10752
  153.0074  135.6315  154.2009 H   0  0  0  0  0  0  0  0  0  0  0  0  # atno 10764 bound_to 10752
  154.1950  135.2880  155.2989 H   0  0  0  0  0  0  0  0  0  0  0  0  # atno 10765 bound_to 10752
  140.4832  134.6056  157.4927 H   0  0  0  0  0  0  0  0  0  0  0  0  # atno 11005 bound_to 11000
  145.0943  140.9305  143.4750 LP  0  0  0  0  0  0  0  0  0  0  0  0  # atno 17320 bound_to 7965
  145.0738  139.3011  143.5818 LP  0  0  0  0  0  0  0  0  0  0  0  0  # atno 17321 bound_to 7965
  139.5004  144.3908  152.0282 LP  0  0  0  0  0  0  0  0  0  0  0  0  # atno 17342 bound_to 10162
  140.3020  144.3636  150.6057 LP  0  0  0  0  0  0  0  0  0  0  0  0  # atno 17343 bound_to 10162
  156.1901  130.6554  151.1052 LP  0  0  0  0  0  0  0  0  0  0  0  0  # atno 17370 bound_to 10713
  157.7060  131.0756  150.6666 LP  0  0  0  0  0  0  0  0  0  0  0  0  # atno 17371 bound_to 10713
  139.9814  134.7131  155.9853 LP  0  0  0  0  0  0  0  0  0  0  0  0  # atno 17394 bound_to 11000
  141.1521  133.6547  156.4046 LP  0  0  0  0  0  0  0  0  0  0  0  0  # atno 17395 bound_to 11000

$$$$
