AV-unprocessed.smi:995|AV-procd|sdf|4345|dock4
  -GOLD-   22720 2243D 1   1.00000     0.00000
 Structure written by MMmdl.
 37 38  0  0  0  0  0  0  0  0  1 V2000
  149.9067  134.6401  156.1709 O   0  0  0  0  0  0  0  0  0  0  0  0
  149.7022  134.8202  154.9707 C   0  0  0  0  0  0  0  0  0  0  0  0
  149.7375  136.0198  154.3604 N   0  0  0  0  0  0  0  0  0  0  0  0
  150.0134  137.3026  154.9086 C   0  0  0  0  0  0  0  0  0  0  0  0
  149.5839  137.7465  156.1826 C   0  0  0  0  0  0  0  0  0  0  0  0
  149.9241  139.0476  156.6003 C   0  0  0  0  0  0  0  0  0  0  0  0
  150.6729  139.8687  155.7343 C   0  0  0  0  0  0  0  0  0  0  0  0
  151.0080  141.1394  156.1547 O   0  0  0  0  0  0  0  0  0  0  0  0
  150.3121  141.6932  157.2686 C   0  0  0  0  0  0  0  0  0  0  0  0
  151.2093  142.7289  157.9623 C   0  0  0  0  0  0  0  0  0  0  0  0
  151.6424  143.6118  157.0613 F   0  0  0  0  0  0  0  0  0  0  0  0
  150.4809  143.3560  158.8869 F   0  0  0  0  0  0  0  0  0  0  0  0
  152.4188  142.0843  158.6588 C   0  0  0  0  0  0  0  0  0  0  0  0
  153.1124  142.9870  159.3528 F   0  0  0  0  0  0  0  0  0  0  0  0
  152.0274  141.1040  159.4731 F   0  0  0  0  0  0  0  0  0  0  0  0
  151.0737  139.4564  154.5068 N   0  0  0  0  0  0  0  0  0  0  0  0
  150.7460  138.2080  154.1135 C   0  0  0  0  0  0  0  0  0  0  0  0
  149.3827  133.6275  154.0488 C   0  0  2  0  0  0  0  0  0  0  0  0
  147.9686  133.6574  153.4215 C   0  0  0  0  0  0  0  0  0  0  0  0
  146.9811  133.3928  154.4112 O   0  0  0  0  0  0  0  0  0  0  0  0
  147.1811  132.1246  155.0188 C   0  0  0  0  0  0  0  0  0  0  0  0
  148.5562  132.1092  155.7049 C   0  0  0  0  0  0  0  0  0  0  0  0
  149.5644  132.3858  154.7350 O   0  0  0  0  0  0  0  0  0  0  0  0
  149.6026  136.0005  153.3597 H   0  0  0  0  0  0  0  0  0  0  0  0
  148.9967  137.1297  156.8439 H   0  0  0  0  0  0  0  0  0  0  0  0
  149.6141  139.4103  157.5692 H   0  0  0  0  0  0  0  0  0  0  0  0
  149.3902  142.1753  156.9385 H   0  0  0  0  0  0  0  0  0  0  0  0
  150.0444  140.9012  157.9701 H   0  0  0  0  0  0  0  0  0  0  0  0
  153.1045  141.6451  157.9336 H   0  0  0  0  0  0  0  0  0  0  0  0
  151.0860  137.9217  153.1289 H   0  0  0  0  0  0  0  0  0  0  0  0
  150.1145  133.6598  153.2408 H   0  0  0  0  0  0  0  0  0  0  0  0
  147.7640  134.6238  152.9592 H   0  0  0  0  0  0  0  0  0  0  0  0
  147.8946  132.9155  152.6250 H   0  0  0  0  0  0  0  0  0  0  0  0
  146.3917  131.9517  155.7503 H   0  0  0  0  0  0  0  0  0  0  0  0
  147.1080  131.3315  154.2729 H   0  0  0  0  0  0  0  0  0  0  0  0
  148.5894  132.8293  156.5234 H   0  0  0  0  0  0  0  0  0  0  0  0
  148.7478  131.1292  156.1419 H   0  0  0  0  0  0  0  0  0  0  0  0
  1  2  2  0  0  0  0
  2  3  1  0  0  0  0
  2 18  1  0  0  0  0
  3  4  1  0  0  0  0
  3 24  1  0  0  0  0
  4 17  1  0  0  0  0
  4  5  2  0  0  0  0
  5  6  1  0  0  0  0
  5 25  1  0  0  0  0
  6  7  2  0  0  0  0
  6 26  1  0  0  0  0
  7  8  1  0  0  0  0
  7 16  1  0  0  0  0
  8  9  1  0  0  0  0
  9 10  1  0  0  0  0
  9 27  1  0  0  0  0
  9 28  1  0  0  0  0
 10 11  1  0  0  0  0
 10 12  1  0  0  0  0
 10 13  1  0  0  0  0
 13 14  1  0  0  0  0
 13 15  1  0  0  0  0
 13 29  1  0  0  0  0
 16 17  2  0  0  0  0
 17 30  1  0  0  0  0
 18 23  1  0  0  0  0
 18 19  1  0  0  0  0
 18 31  1  0  0  0  0
 19 20  1  0  0  0  0
 19 32  1  0  0  0  0
 19 33  1  0  0  0  0
 20 21  1  0  0  0  0
 21 22  1  0  0  0  0
 21 34  1  0  0  0  0
 21 35  1  0  0  0  0
 22 23  1  0  0  0  0
 22 36  1  0  0  0  0
 22 37  1  0  0  0  0
M  END
> <s_m_source_file>
AV-unprocessed.smi

> <i_m_source_file_index>
995

> <i_lp_mmshare_version>
43012

> <i_f3d_flags>
0

> <s_epik_input>
TzFbQ0gyXVtDSDJdT1tDSDJdW0NASF0xQyg9TylbTkhdYzJbY0hdW2NIXWMobltjSF0yKU9bQ0gyXUMoRikoRilbQ0hdKEYpRg==

> <s_epik_cmdline>
J2VwaWtfcHl0aG9uJywgJy1waCcsICc3LjAnLCAnLXRuJywgJzgnLCAnLW1hJywgJzIwMCcsICctbWV0YWxfYmluZGluZycsICctaW1hZScsICc8aW5maWxlLm1hZT4nLCAnLW9tYWUnLCAnPG91dGZpbGUubWFlPic=

> <r_lp_tautomer_probability>
1

> <r_epik_Ionization_Penalty>
2.54436e-06

> <r_epik_Ionization_Penalty_Charging>
0

> <r_epik_Ionization_Penalty_Neutral>
2.54436e-06

> <r_epik_State_Penalty>
-0

> <r_epik_Charging_Adjusted_Penalty>
0

> <i_epik_Tot_Q>
0

> <i_epik_Tot_abs_Q>
0

> <r_epik_Metal_State_Penalty>
-0

> <b_epik_Metal_Only>
0

> <s_lp_Force_Field>
OPLS_2005

> <r_lp_Energy>
9.34037

> <b_lp_Chiralities_Consistent>
1

> <s_lp_Variant>
AV-unprocessed.smi:995-1

> <Gold.Version>
5.8.1

> <Gold.Id.Protein>
6NUR|6NUR_protein|mol2

> <Gold.PLP.Fitness>
40.8103

> <Gold.PLP.PLP>
-33.5222

> <Gold.PLP.part.hbond>
-2.4410

> <Gold.PLP.part.metal>
0.0000

> <Gold.PLP.part.buried>
-4.7727

> <Gold.PLP.part.nonpolar>
-26.1905

> <Gold.PLP.part.repulsive>
0.2748

> <Gold.PLP.ligand.clash>
0.0000

> <Gold.PLP.ligand.torsion>
0.8361

> <Gold.PLP.Chemscore.Hbond>
1.9500

> <Gold.PLP.Chemscore.CHOScore>
0.9976

> <Gold.PLP.Chemscore.Metal>
0.0000

> <Gold.Chemscore.Hbonds>
donor molecule, donor type, donor heavy atom, donor atom, acceptor molecule, acceptor atom, score
      L1  H     3    24       P1  7948  0.95
      P1  H  7989  7998       L1    16  1.00
      L1  C    17    30       P1  7949  1.00

> <Gold.PLP.Chemscore.Internal.Correction>
0.1174

> <Gold.Rescore>
     Score         DG    S(hbond)    S(metal)    S(lipo)     H(rot)  DE(clash)    DE(int)     intcor
     11.37     -13.33       1.89        0.00      59.35       2.12       0.04       1.92       ----

> <Gold.Chemscore.Fitness>
11.3725

> <Gold.Chemscore.DG>
-13.3313

> <Gold.Chemscore.ZeroCoef>
-5.4800

> <Gold.Chemscore.Hbond>
1.8943

> <Gold.Chemscore.Metal>
0.0000

> <Gold.Chemscore.Lipo>
59.3537

> <Gold.Chemscore.Internal_Hbond>
0.0000

> <Gold.Chemscore.DEClash>
0.0385

> <Gold.Chemscore.DEInternal>
1.9203

> <Gold.Chemscore.Rot>
2.1172

> <Gold.Chemscore.Internal.Correction>
   9.000000E+99

> <Gold.Chemscore.Hbonds>
donor molecule, donor type, donor heavy atom, donor atom, acceptor molecule, acceptor atom, score
      L1  H     3    24       P1  7948  0.21
      P1  H  7989  7998       L1    16  0.82

> <Gold.Chemscore.Hbond.Weighted>
-6.3270

> <Gold.Chemscore.Metal.Weighted>
-0.0000

> <Gold.Chemscore.Lipo.Weighted>
-6.9444

> <Gold.Chemscore.Internal_Hbond.Weighted>
0.0000

> <Gold.Chemscore.DEClash.Weighted>
0.0385

> <Gold.Chemscore.DEInternal.Weighted>
1.9203

> <Gold.Chemscore.Rot.Weighted>
5.4200

> <Gold.Chemscore.Internal.Correction.Weighted>
   9.000000E+99

> <Gold.Protein.RotatedTorsions>
[ 6907 6896 6895 6894 ] final  124.14 input  -60.11 | X-H torsion
[ 7974 7965 7964 7962 ] final   76.97 input  175.53 | X-H torsion
[ 8008 7997 7996 7995 ] final   83.28 input   59.86 | X-H torsion
[ 10167 10162 10161 10158 ] final -131.74 input  -65.29 | X-H torsion
[ 10718 10713 10712 10709 ] final  171.52 input   66.30 | X-H torsion
[ 10763 10752 10751 10750 ] final  130.14 input  -60.55 | X-H torsion
[ 11005 11000 10999 10996 ] final  120.73 input  -57.11 | X-H torsion

> <Gold.Protein.ActiveResidues>
 VAL166  LYS551  ARG553  GLY616  TRP617  ASP618  TYR619  PRO620  LYS621  CYS622 
 ASP623  PHE694  ASN695  SER759  ASP760  ASP761  ALA762  ILE779  LEU786  VAL792 
 PHE793  MET794  SER795  GLU796  ALA797  LYS798  CYS799  TRP800  GLU811  SER814 

> <Gold.Protein.RotatedAtoms>
  152.4103  133.6953  159.6391 H   0  0  0  0  0  0  0  0  0  0  0  0  # atno 6907 bound_to 6896
  150.7984  133.8635  159.3247 H   0  0  0  0  0  0  0  0  0  0  0  0  # atno 6908 bound_to 6896
  151.6379  135.1018  160.0187 H   0  0  0  0  0  0  0  0  0  0  0  0  # atno 6909 bound_to 6896
  145.6961  139.2567  143.1732 H   0  0  0  0  0  0  0  0  0  0  0  0  # atno 7974 bound_to 7965
  155.9218  140.3421  155.6179 H   0  0  0  0  0  0  0  0  0  0  0  0  # atno 8008 bound_to 7997
  155.7264  140.0790  157.2327 H   0  0  0  0  0  0  0  0  0  0  0  0  # atno 8009 bound_to 7997
  154.4071  140.1596  156.2447 H   0  0  0  0  0  0  0  0  0  0  0  0  # atno 8010 bound_to 7997
  139.9158  143.6441  152.2565 H   0  0  0  0  0  0  0  0  0  0  0  0  # atno 10167 bound_to 10162
  156.9924  131.0151  151.2853 H   0  0  0  0  0  0  0  0  0  0  0  0  # atno 10718 bound_to 10713
  153.7531  135.3207  155.3324 H   0  0  0  0  0  0  0  0  0  0  0  0  # atno 10763 bound_to 10752
  154.8256  135.4572  154.0912 H   0  0  0  0  0  0  0  0  0  0  0  0  # atno 10764 bound_to 10752
  153.2120  135.6937  153.8185 H   0  0  0  0  0  0  0  0  0  0  0  0  # atno 10765 bound_to 10752
  139.9197  134.9636  156.7851 H   0  0  0  0  0  0  0  0  0  0  0  0  # atno 11005 bound_to 11000
  146.0839  140.7732  142.9628 LP  0  0  0  0  0  0  0  0  0  0  0  0  # atno 17320 bound_to 7965
  144.6982  140.3532  143.7178 LP  0  0  0  0  0  0  0  0  0  0  0  0  # atno 17321 bound_to 7965
  139.6904  144.7647  151.1449 LP  0  0  0  0  0  0  0  0  0  0  0  0  # atno 17342 bound_to 10162
  140.7674  143.5597  150.9112 LP  0  0  0  0  0  0  0  0  0  0  0  0  # atno 17343 bound_to 10162
  157.5449  130.8144  149.8074 LP  0  0  0  0  0  0  0  0  0  0  0  0  # atno 17370 bound_to 10713
  156.0202  130.3798  150.1986 LP  0  0  0  0  0  0  0  0  0  0  0  0  # atno 17371 bound_to 10713
  140.6513  133.9729  155.7756 LP  0  0  0  0  0  0  0  0  0  0  0  0  # atno 17394 bound_to 11000
  141.0706  134.0211  157.3531 LP  0  0  0  0  0  0  0  0  0  0  0  0  # atno 17395 bound_to 11000

$$$$
