AV-unprocessed.smi:702|AV-procd|sdf|3418|dock5
  -GOLD-   22720 0403D 1   1.00000     0.00000
 Structure written by MMmdl.
 49 51  0  0  0  0  0  0  0  0  1 V2000
  144.3596  135.8961  151.6095 C   0  0  0  0  0  0  0  0  0  0  0  0
  145.3913  135.3279  152.6116 C   0  0  2  0  0  0  0  0  0  0  0  0
  146.5032  136.2775  152.7315 N   0  0  0  0  0  0  0  0  0  0  0  0
  146.4267  137.5288  153.2070 C   0  0  0  0  0  0  0  0  0  0  0  0
  145.3779  138.0487  153.5868 O   0  0  0  0  0  0  0  0  0  0  0  0
  147.6319  138.1239  153.1909 N   0  0  0  0  0  0  0  0  0  0  0  0
  147.9886  139.4289  153.6268 C   0  0  0  0  0  0  0  0  0  0  0  0
  147.0864  140.4785  153.3559 C   0  0  0  0  0  0  0  0  0  0  0  0
  147.4223  141.7854  153.7618 C   0  0  0  0  0  0  0  0  0  0  0  0
  148.5751  142.0926  154.3928 N   0  0  0  0  0  0  0  0  0  0  0  0
  149.4443  141.0896  154.6385 C   0  0  0  0  0  0  0  0  0  0  0  0
  149.2056  139.7485  154.2763 C   0  0  0  0  0  0  0  0  0  0  0  0
  145.8944  133.8749  152.2658 C   0  0  0  0  0  0  0  0  0  0  0  0
  146.9153  133.3945  153.2498 N   0  0  0  0  0  0  0  0  0  0  0  0
  146.4400  133.2737  154.6380 C   0  0  0  0  0  0  0  0  0  0  0  0
  147.5751  132.9132  155.6103 C   0  0  0  0  0  0  0  0  0  0  0  0
  148.1799  131.6932  155.2013 O   0  0  0  0  0  0  0  0  0  0  0  0
  148.7018  131.7652  153.8807 C   0  0  0  0  0  0  0  0  0  0  0  0
  147.5805  132.1320  152.8928 C   0  0  0  0  0  0  0  0  0  0  0  0
  144.6435  132.9321  152.2095 C   0  0  0  0  0  0  0  0  0  0  0  0
  144.4372  132.5135  150.7513 C   0  0  0  0  0  0  0  0  0  0  0  0
  145.8104  132.6357  150.1100 C   0  0  0  0  0  0  0  0  0  0  0  0
  146.4403  133.8447  150.8015 C   0  0  0  0  0  0  0  0  0  0  0  0
  143.4799  135.2596  151.5204 H   0  0  0  0  0  0  0  0  0  0  0  0
  144.7790  136.0129  150.6107 H   0  0  0  0  0  0  0  0  0  0  0  0
  144.0063  136.8772  151.9287 H   0  0  0  0  0  0  0  0  0  0  0  0
  144.9165  135.2922  153.5925 H   0  0  0  0  0  0  0  0  0  0  0  0
  147.4087  135.9408  152.4394 H   0  0  0  0  0  0  0  0  0  0  0  0
  148.3806  137.5915  152.7729 H   0  0  0  0  0  0  0  0  0  0  0  0
  146.1500  140.2897  152.8511 H   0  0  0  0  0  0  0  0  0  0  0  0
  146.7469  142.6064  153.5721 H   0  0  0  0  0  0  0  0  0  0  0  0
  150.3636  141.3651  155.1342 H   0  0  0  0  0  0  0  0  0  0  0  0
  149.9587  139.0062  154.4908 H   0  0  0  0  0  0  0  0  0  0  0  0
  145.9784  134.1915  154.9924 H   0  0  0  0  0  0  0  0  0  0  0  0
  145.6737  132.5016  154.7074 H   0  0  0  0  0  0  0  0  0  0  0  0
  148.3218  133.7079  155.6462 H   0  0  0  0  0  0  0  0  0  0  0  0
  147.1842  132.7934  156.6206 H   0  0  0  0  0  0  0  0  0  0  0  0
  149.5066  132.5008  153.8401 H   0  0  0  0  0  0  0  0  0  0  0  0
  149.1370  130.8010  153.6176 H   0  0  0  0  0  0  0  0  0  0  0  0
  146.8580  131.3169  152.8575 H   0  0  0  0  0  0  0  0  0  0  0  0
  148.0346  132.1881  151.9063 H   0  0  0  0  0  0  0  0  0  0  0  0
  144.7571  132.0473  152.8315 H   0  0  0  0  0  0  0  0  0  0  0  0
  143.7310  133.3929  152.5862 H   0  0  0  0  0  0  0  0  0  0  0  0
  144.0187  131.5109  150.6586 H   0  0  0  0  0  0  0  0  0  0  0  0
  143.7478  133.2054  150.2659 H   0  0  0  0  0  0  0  0  0  0  0  0
  146.3942  131.7382  150.3153 H   0  0  0  0  0  0  0  0  0  0  0  0
  145.7572  132.7542  149.0273 H   0  0  0  0  0  0  0  0  0  0  0  0
  146.1515  134.7372  150.2473 H   0  0  0  0  0  0  0  0  0  0  0  0
  147.5267  133.8109  150.7325 H   0  0  0  0  0  0  0  0  0  0  0  0
  1  2  1  0  0  0  0
  1 24  1  0  0  0  0
  1 25  1  0  0  0  0
  1 26  1  0  0  0  0
  2  3  1  0  0  0  0
  2 13  1  0  0  0  0
  2 27  1  0  0  0  0
  3  4  1  0  0  0  0
  3 28  1  0  0  0  0
  4  5  2  0  0  0  0
  4  6  1  0  0  0  0
  6  7  1  0  0  0  0
  6 29  1  0  0  0  0
  7 12  1  0  0  0  0
  7  8  2  0  0  0  0
  8  9  1  0  0  0  0
  8 30  1  0  0  0  0
  9 10  2  0  0  0  0
  9 31  1  0  0  0  0
 10 11  1  0  0  0  0
 11 12  2  0  0  0  0
 11 32  1  0  0  0  0
 12 33  1  0  0  0  0
 13 23  1  0  0  0  0
 13 14  1  0  0  0  0
 13 20  1  0  0  0  0
 14 19  1  0  0  0  0
 14 15  1  0  0  0  0
 15 16  1  0  0  0  0
 15 34  1  0  0  0  0
 15 35  1  0  0  0  0
 16 17  1  0  0  0  0
 16 36  1  0  0  0  0
 16 37  1  0  0  0  0
 17 18  1  0  0  0  0
 18 19  1  0  0  0  0
 18 38  1  0  0  0  0
 18 39  1  0  0  0  0
 19 40  1  0  0  0  0
 19 41  1  0  0  0  0
 20 21  1  0  0  0  0
 20 42  1  0  0  0  0
 20 43  1  0  0  0  0
 21 22  1  0  0  0  0
 21 44  1  0  0  0  0
 21 45  1  0  0  0  0
 22 23  1  0  0  0  0
 22 46  1  0  0  0  0
 22 47  1  0  0  0  0
 23 48  1  0  0  0  0
 23 49  1  0  0  0  0
M  END
> <s_m_source_file>
AV-unprocessed.smi

> <i_m_source_file_index>
702

> <i_lp_mmshare_version>
43012

> <i_f3d_flags>
0

> <s_epik_input>
W0NIMl0xW0NIMl1PW0NIMl1bQ0gyXU4xQzIoW0NIMl1bQ0gyXVtDSDJdW0NIMl0yKVtDQEhdKFtDSDNdKVtOSF1DKD1PKVtOSF1jM1tjSF1bY0hdbltjSF1bY0hdMw==

> <s_epik_cmdline>
J2VwaWtfcHl0aG9uJywgJy1waCcsICc3LjAnLCAnLXRuJywgJzgnLCAnLW1hJywgJzIwMCcsICctbWV0YWxfYmluZGluZycsICctaW1hZScsICc8aW5maWxlLm1hZT4nLCAnLW9tYWUnLCAnPG91dGZpbGUubWFlPic=

> <r_epik_Ionization_Penalty>
0.626636

> <r_epik_Ionization_Penalty_Charging>
0

> <r_epik_Ionization_Penalty_Neutral>
0.626636

> <r_epik_State_Penalty>
0.629018

> <r_epik_Charging_Adjusted_Penalty>
0.629018

> <i_epik_Tot_Q>
0

> <i_epik_Tot_abs_Q>
0

> <r_epik_Metal_State_Penalty>
0.606459

> <b_epik_Metal_Only>
0

> <s_lp_Force_Field>
OPLS_2005

> <r_lp_Energy>
67.5809

> <b_lp_Chiralities_Consistent>
1

> <s_lp_Variant>
AV-unprocessed.smi:702-3

> <Gold.Version>
5.8.1

> <Gold.Id.Protein>
6NUR|6NUR_protein|mol2

> <Gold.PLP.Fitness>
38.8795

> <Gold.PLP.PLP>
-33.6615

> <Gold.PLP.part.hbond>
-2.9443

> <Gold.PLP.part.metal>
0.0000

> <Gold.PLP.part.buried>
-3.0036

> <Gold.PLP.part.nonpolar>
-28.8196

> <Gold.PLP.part.repulsive>
1.8608

> <Gold.PLP.ligand.clash>
0.0000

> <Gold.PLP.ligand.torsion>
0.4654

> <Gold.PLP.Chemscore.Hbond>
2.0000

> <Gold.PLP.Chemscore.CHOScore>
0.0000

> <Gold.PLP.Chemscore.Metal>
0.0000

> <Gold.Chemscore.Hbonds>
donor molecule, donor type, donor heavy atom, donor atom, acceptor molecule, acceptor atom, score
      L1  H     3    28       P1  7948  1.00
      L1  H     6    29       P1  7948  1.00
      P1  H  8011  8017       L1    10  0.01

> <Gold.PLP.Chemscore.Internal.Correction>
0.1488

> <Gold.Rescore>
     Score         DG    S(hbond)    S(metal)    S(lipo)     H(rot)  DE(clash)    DE(int)     intcor
     16.48     -19.07       1.95        0.00      91.22       1.41       1.02       1.57       ----

> <Gold.Chemscore.Fitness>
16.4766

> <Gold.Chemscore.DG>
-19.0661

> <Gold.Chemscore.ZeroCoef>
-5.4800

> <Gold.Chemscore.Hbond>
1.9538

> <Gold.Chemscore.Metal>
0.0000

> <Gold.Chemscore.Lipo>
91.2191

> <Gold.Chemscore.Internal_Hbond>
0.0000

> <Gold.Chemscore.DEClash>
1.0179

> <Gold.Chemscore.DEInternal>
1.5717

> <Gold.Chemscore.Rot>
1.4111

> <Gold.Chemscore.Internal.Correction>
   9.000000E+99

> <Gold.Chemscore.Hbonds>
donor molecule, donor type, donor heavy atom, donor atom, acceptor molecule, acceptor atom, score
      L1  H     3    28       P1  7948  0.95
      L1  H     6    29       P1  7948  0.96

> <Gold.Chemscore.Hbond.Weighted>
-6.5258

> <Gold.Chemscore.Metal.Weighted>
-0.0000

> <Gold.Chemscore.Lipo.Weighted>
-10.6726

> <Gold.Chemscore.Internal_Hbond.Weighted>
0.0000

> <Gold.Chemscore.DEClash.Weighted>
1.0179

> <Gold.Chemscore.DEInternal.Weighted>
1.5717

> <Gold.Chemscore.Rot.Weighted>
3.6123

> <Gold.Chemscore.Internal.Correction.Weighted>
   9.000000E+99

> <Gold.Protein.RotatedTorsions>
[ 6907 6896 6895 6894 ] final  -54.99 input  -60.11 | X-H torsion
[ 7974 7965 7964 7962 ] final   41.46 input  175.53 | X-H torsion
[ 8008 7997 7996 7995 ] final  117.77 input   59.86 | X-H torsion
[ 10167 10162 10161 10158 ] final    2.95 input  -65.29 | X-H torsion
[ 10718 10713 10712 10709 ] final -154.68 input   66.30 | X-H torsion
[ 10763 10752 10751 10750 ] final -154.88 input  -60.55 | X-H torsion
[ 11005 11000 10999 10996 ] final  -33.94 input  -57.11 | X-H torsion

> <Gold.Protein.ActiveResidues>
 VAL166  LYS551  ARG553  GLY616  TRP617  ASP618  TYR619  PRO620  LYS621  CYS622 
 ASP623  PHE694  ASN695  SER759  ASP760  ASP761  ALA762  ILE779  LEU786  VAL792 
 PHE793  MET794  SER795  GLU796  ALA797  LYS798  CYS799  TRP800  GLU811  SER814 

> <Gold.Protein.RotatedAtoms>
  150.8290  134.7534  159.6836 H   0  0  0  0  0  0  0  0  0  0  0  0  # atno 6907 bound_to 6896
  152.4397  134.5613  159.9904 H   0  0  0  0  0  0  0  0  0  0  0  0  # atno 6908 bound_to 6896
  151.5778  133.3344  159.3038 H   0  0  0  0  0  0  0  0  0  0  0  0  # atno 6909 bound_to 6896
  146.0821  139.5413  142.9530 H   0  0  0  0  0  0  0  0  0  0  0  0  # atno 7974 bound_to 7965
  156.2511  140.2889  156.0730 H   0  0  0  0  0  0  0  0  0  0  0  0  # atno 8008 bound_to 7997
  155.1650  140.0400  157.2868 H   0  0  0  0  0  0  0  0  0  0  0  0  # atno 8009 bound_to 7997
  154.6366  140.2512  155.7378 H   0  0  0  0  0  0  0  0  0  0  0  0  # atno 8010 bound_to 7997
  140.6610  143.7305  150.7738 H   0  0  0  0  0  0  0  0  0  0  0  0  # atno 10167 bound_to 10162
  156.5026  130.8398  151.2615 H   0  0  0  0  0  0  0  0  0  0  0  0  # atno 10718 bound_to 10713
  154.7827  135.3180  154.7954 H   0  0  0  0  0  0  0  0  0  0  0  0  # atno 10763 bound_to 10752
  153.8661  135.6849  153.4782 H   0  0  0  0  0  0  0  0  0  0  0  0  # atno 10764 bound_to 10752
  153.1469  135.4715  154.9517 H   0  0  0  0  0  0  0  0  0  0  0  0  # atno 10765 bound_to 10752
  140.9676  133.7128  156.1470 H   0  0  0  0  0  0  0  0  0  0  0  0  # atno 11005 bound_to 11000
  145.6197  141.0325  143.1921 LP  0  0  0  0  0  0  0  0  0  0  0  0  # atno 17320 bound_to 7965
  144.7301  139.7753  143.7350 LP  0  0  0  0  0  0  0  0  0  0  0  0  # atno 17321 bound_to 7965
  140.0973  143.4821  152.2445 LP  0  0  0  0  0  0  0  0  0  0  0  0  # atno 17342 bound_to 10162
  139.5844  144.7524  151.3559 LP  0  0  0  0  0  0  0  0  0  0  0  0  # atno 17343 bound_to 10162
  157.7461  130.9976  150.2823 LP  0  0  0  0  0  0  0  0  0  0  0  0  # atno 17370 bound_to 10713
  156.3317  130.3801  149.7485 LP  0  0  0  0  0  0  0  0  0  0  0  0  # atno 17371 bound_to 10713
  140.7376  134.4185  157.5558 LP  0  0  0  0  0  0  0  0  0  0  0  0  # atno 17394 bound_to 11000
  139.8900  134.8815  156.2391 LP  0  0  0  0  0  0  0  0  0  0  0  0  # atno 17395 bound_to 11000

$$$$
