AV-unprocessed.smi:100|AV-procd|sdf|899|dock2
  -GOLD-   2262017393D 1   1.00000     0.00000
 Structure written by MMmdl.
 31 33  0  0  0  0  0  0  0  0  1 V2000
  150.5826  134.5091  157.1730 N   0  0  0  0  0  0  0  0  0  0  0  0
  150.4886  135.8459  157.1734 C   0  0  0  0  0  0  0  0  0  0  0  0
  150.1259  136.4650  158.3216 N   0  0  0  0  0  0  0  0  0  0  0  0
  150.0253  137.7983  158.3486 C   0  0  0  0  0  0  0  0  0  0  0  0
  150.2386  138.6733  157.3613 N   0  0  0  0  0  0  0  0  0  0  0  0
  150.6003  138.0444  156.2046 C   0  0  0  0  0  0  0  0  0  0  0  0
  150.7499  136.6413  156.0293 C   0  0  0  0  0  0  0  0  0  0  0  0
  151.1339  136.3667  154.7230 N   0  0  0  0  0  0  0  0  0  0  0  0
  151.2050  137.5447  154.1620 C   0  0  0  0  0  0  0  0  0  0  0  0
  150.8949  138.6083  154.9826 N   0  0  0  0  0  0  0  0  0  0  0  0
  150.8855  140.0649  154.6570 C   0  0  2  0  0  0  0  0  0  0  0  0
  151.3430  140.7470  155.7865 O   0  0  0  0  0  0  0  0  0  0  0  0
  150.5240  141.8855  156.0072 C   0  0  2  0  0  0  0  0  0  0  0  0
  150.6422  142.3753  157.4589 C   0  0  0  0  0  0  0  0  0  0  0  0
  149.5553  143.2162  157.7826 O   0  0  0  0  0  0  0  0  0  0  0  0
  149.1354  141.4076  155.5783 C   0  0  2  0  0  0  0  0  0  0  0  0
  148.5723  140.6642  156.5332 F   0  0  0  0  0  0  0  0  0  0  0  0
  149.4436  140.5276  154.3771 C   0  0  1  0  0  0  0  0  0  0  0  0
  149.3479  141.2712  153.1788 O   0  0  0  0  0  0  0  0  0  0  0  0
  150.8507  134.0243  156.3286 H   0  0  0  0  0  0  0  0  0  0  0  0
  150.3822  133.9893  158.0150 H   0  0  0  0  0  0  0  0  0  0  0  0
  149.7304  138.2249  159.2960 H   0  0  0  0  0  0  0  0  0  0  0  0
  151.4869  137.6705  153.1266 H   0  0  0  0  0  0  0  0  0  0  0  0
  151.5722  140.1868  153.8179 H   0  0  0  0  0  0  0  0  0  0  0  0
  150.8627  142.6691  155.3265 H   0  0  0  0  0  0  0  0  0  0  0  0
  150.6817  141.5395  158.1575 H   0  0  0  0  0  0  0  0  0  0  0  0
  151.5646  142.9425  157.5870 H   0  0  0  0  0  0  0  0  0  0  0  0
  149.2408  143.6191  156.9877 H   0  0  0  0  0  0  0  0  0  0  0  0
  148.4466  142.2250  155.3613 H   0  0  0  0  0  0  0  0  0  0  0  0
  148.7611  139.6788  154.3076 H   0  0  0  0  0  0  0  0  0  0  0  0
  149.2803  140.6657  152.4560 H   0  0  0  0  0  0  0  0  0  0  0  0
  1  2  1  0  0  0  0
  1 20  1  0  0  0  0
  1 21  1  0  0  0  0
  2  7  1  0  0  0  0
  2  3  2  0  0  0  0
  3  4  1  0  0  0  0
  4  5  2  0  0  0  0
  4 22  1  0  0  0  0
  5  6  1  0  0  0  0
  6 10  1  0  0  0  0
  6  7  2  0  0  0  0
  7  8  1  0  0  0  0
  8  9  2  0  0  0  0
  9 10  1  0  0  0  0
  9 23  1  0  0  0  0
 10 11  1  0  0  0  0
 11 18  1  0  0  0  0
 11 12  1  0  0  0  0
 11 24  1  0  0  0  0
 12 13  1  0  0  0  0
 13 14  1  0  0  0  0
 13 16  1  0  0  0  0
 13 25  1  0  0  0  0
 14 15  1  0  0  0  0
 14 26  1  0  0  0  0
 14 27  1  0  0  0  0
 15 28  1  0  0  0  0
 16 17  1  0  0  0  0
 16 18  1  0  0  0  0
 16 29  1  0  0  0  0
 18 19  1  0  0  0  0
 18 30  1  0  0  0  0
 19 31  1  0  0  0  0
M  END
> <s_m_source_file>
AV-unprocessed.smi

> <i_m_source_file_index>
100

> <i_lp_mmshare_version>
43012

> <i_f3d_flags>
0

> <s_epik_input>
bjFbY0hdbmMoW05IMl0pYyhjMTIpbltjSF1uMltDQEBIXTNPW0NAQEhdKFtDSDJdW09IXSlbQ0BIXShGKVtDQEhdM1tPSF0=

> <s_epik_cmdline>
J2VwaWtfcHl0aG9uJywgJy1waCcsICc3LjAnLCAnLXRuJywgJzgnLCAnLW1hJywgJzIwMCcsICctbWV0YWxfYmluZGluZycsICctaW1hZScsICc8aW5maWxlLm1hZT4nLCAnLW9tYWUnLCAnPG91dGZpbGUubWFlPic=

> <r_lp_tautomer_probability>
1

> <r_epik_Ionization_Penalty>
0.000750324

> <r_epik_Ionization_Penalty_Charging>
0

> <r_epik_Ionization_Penalty_Neutral>
0.000750324

> <r_epik_State_Penalty>
-0

> <r_epik_Charging_Adjusted_Penalty>
0

> <i_epik_Tot_Q>
0

> <i_epik_Tot_abs_Q>
0

> <r_epik_Metal_State_Penalty>
-0

> <b_epik_Metal_Only>
0

> <s_epik_Chemistry_Notes>
This compound contains an acetal/aminal-like group ( X-CH(R)-Y where X, Y are N, S, or O) that may be acid/base labile, releasing an aldehyde.

> <s_lp_Force_Field>
OPLS_2005

> <r_lp_Energy>
28.7864

> <b_lp_Chiralities_Consistent>
1

> <s_lp_Variant>
AV-unprocessed.smi:100-3

> <Gold.Version>
5.8.1

> <Gold.Id.Protein>
6NUR|6NUR_protein|mol2

> <Gold.PLP.Fitness>
38.6272

> <Gold.PLP.PLP>
-24.3161

> <Gold.PLP.part.hbond>
-6.6866

> <Gold.PLP.part.metal>
0.0000

> <Gold.PLP.part.buried>
1.2190

> <Gold.PLP.part.nonpolar>
-21.3835

> <Gold.PLP.part.repulsive>
1.8864

> <Gold.PLP.ligand.clash>
0.0000

> <Gold.PLP.ligand.torsion>
0.7614

> <Gold.PLP.Chemscore.Hbond>
4.3896

> <Gold.PLP.Chemscore.CHOScore>
0.8845

> <Gold.PLP.Chemscore.Metal>
0.0000

> <Gold.Chemscore.Hbonds>
donor molecule, donor type, donor heavy atom, donor atom, acceptor molecule, acceptor atom, score
      L1  H    15    28       P1  8028  1.00
      L1  H    19    31       P1  7957  0.84
      P1  H  6896  6908       L1     3  0.44
      P1  H  8011  8017       L1    19  0.63
      P1  H 10752 10763       L1     8  1.00
      L1  C     9    23       P1  7949  0.87

> <Gold.PLP.Chemscore.Internal.Correction>
0.0117

> <Gold.Rescore>
     Score         DG    S(hbond)    S(metal)    S(lipo)     H(rot)  DE(clash)    DE(int)     intcor
      3.83     -10.93       2.92        0.00      33.10       3.19       2.59       4.52       ----

> <Gold.Chemscore.Fitness>
3.8275

> <Gold.Chemscore.DG>
-10.9321

> <Gold.Chemscore.ZeroCoef>
-5.4800

> <Gold.Chemscore.Hbond>
2.9181

> <Gold.Chemscore.Metal>
0.0000

> <Gold.Chemscore.Lipo>
33.0959

> <Gold.Chemscore.Internal_Hbond>
0.0000

> <Gold.Chemscore.DEClash>
2.5858

> <Gold.Chemscore.DEInternal>
4.5187

> <Gold.Chemscore.Rot>
3.1901

> <Gold.Chemscore.Internal.Correction>
   9.000000E+99

> <Gold.Chemscore.Hbonds>
donor molecule, donor type, donor heavy atom, donor atom, acceptor molecule, acceptor atom, score
      L1  H    15    28       P1  8028  0.78
      L1  H    19    31       P1  7957  0.81
      P1  H  6896  6908       L1     3  0.07
      P1  H  8011  8017       L1    19  0.06
      P1  H 10752 10763       L1     8  0.45

> <Gold.Chemscore.Hbond.Weighted>
-9.7465

> <Gold.Chemscore.Metal.Weighted>
-0.0000

> <Gold.Chemscore.Lipo.Weighted>
-3.8722

> <Gold.Chemscore.Internal_Hbond.Weighted>
0.0000

> <Gold.Chemscore.DEClash.Weighted>
2.5858

> <Gold.Chemscore.DEInternal.Weighted>
4.5187

> <Gold.Chemscore.Rot.Weighted>
8.1667

> <Gold.Chemscore.Internal.Correction.Weighted>
   9.000000E+99

> <Gold.Protein.RotatedTorsions>
[ 6907 6896 6895 6894 ] final -162.94 input  -60.11 | X-H torsion
[ 7974 7965 7964 7962 ] final  -20.45 input  175.53 | X-H torsion
[ 8008 7997 7996 7995 ] final  172.00 input   59.86 | X-H torsion
[ 10167 10162 10161 10158 ] final -106.30 input  -65.29 | X-H torsion
[ 10718 10713 10712 10709 ] final -113.72 input   66.30 | X-H torsion
[ 10763 10752 10751 10750 ] final   56.65 input  -60.55 | X-H torsion
[ 11005 11000 10999 10996 ] final  -75.19 input  -57.11 | X-H torsion

> <Gold.Protein.ActiveResidues>
 VAL166  LYS551  ARG553  GLY616  TRP617  ASP618  TYR619  PRO620  LYS621  CYS622 
 ASP623  PHE694  ASN695  SER759  ASP760  ASP761  ALA762  ILE779  LEU786  VAL792 
 PHE793  MET794  SER795  GLU796  ALA797  LYS798  CYS799  TRP800  GLU811  SER814 

> <Gold.Protein.RotatedAtoms>
  151.3883  133.3797  159.2717 H   0  0  0  0  0  0  0  0  0  0  0  0  # atno 6907 bound_to 6896
  150.9525  134.8924  159.7691 H   0  0  0  0  0  0  0  0  0  0  0  0  # atno 6908 bound_to 6896
  152.5117  134.3838  159.9413 H   0  0  0  0  0  0  0  0  0  0  0  0  # atno 6909 bound_to 6896
  146.1787  140.4203  142.8503 H   0  0  0  0  0  0  0  0  0  0  0  0  # atno 7974 bound_to 7965
  156.1217  140.1497  156.9195 H   0  0  0  0  0  0  0  0  0  0  0  0  # atno 8008 bound_to 7997
  154.4841  140.0870  156.7487 H   0  0  0  0  0  0  0  0  0  0  0  0  # atno 8009 bound_to 7997
  155.4416  140.3431  155.4293 H   0  0  0  0  0  0  0  0  0  0  0  0  # atno 8010 bound_to 7997
  140.1893  143.3905  152.1219 H   0  0  0  0  0  0  0  0  0  0  0  0  # atno 10167 bound_to 10162
  156.0784  130.5988  150.8680 H   0  0  0  0  0  0  0  0  0  0  0  0  # atno 10718 bound_to 10713
  152.9836  135.5669  154.5264 H   0  0  0  0  0  0  0  0  0  0  0  0  # atno 10763 bound_to 10752
  154.4743  135.2786  155.1621 H   0  0  0  0  0  0  0  0  0  0  0  0  # atno 10764 bound_to 10752
  154.3156  135.6279  153.5538 H   0  0  0  0  0  0  0  0  0  0  0  0  # atno 10765 bound_to 10752
  141.1643  133.6938  156.7480 H   0  0  0  0  0  0  0  0  0  0  0  0  # atno 11005 bound_to 11000
  144.8279  140.6659  143.6310 LP  0  0  0  0  0  0  0  0  0  0  0  0  # atno 17320 bound_to 7965
  145.4137  139.1575  143.4112 LP  0  0  0  0  0  0  0  0  0  0  0  0  # atno 17321 bound_to 7965
  139.5263  144.7106  151.5218 LP  0  0  0  0  0  0  0  0  0  0  0  0  # atno 17342 bound_to 10162
  140.6467  143.8780  150.6744 LP  0  0  0  0  0  0  0  0  0  0  0  0  # atno 17343 bound_to 10162
  157.5890  131.0945  150.9149 LP  0  0  0  0  0  0  0  0  0  0  0  0  # atno 17370 bound_to 10713
  156.9329  130.5356  149.5279 LP  0  0  0  0  0  0  0  0  0  0  0  0  # atno 17371 bound_to 10713
  140.2625  134.8455  157.3772 LP  0  0  0  0  0  0  0  0  0  0  0  0  # atno 17394 bound_to 11000
  140.1597  134.4744  155.7903 LP  0  0  0  0  0  0  0  0  0  0  0  0  # atno 17395 bound_to 11000

$$$$
