AV-unprocessed.smi:970|AV-procd|sdf|4292|dock2
  -GOLD-   22720 2193D 1   1.00000     0.00000
 Structure written by MMmdl.
 31 31  0  0  0  0  0  0  0  0  1 V2000
  145.9844  135.8809  154.2890 C   0  0  0  0  0  0  0  0  0  0  0  0
  147.3838  135.4957  154.1930 N   0  0  0  0  0  0  0  0  0  0  0  0
  148.1007  134.9986  155.2108 C   0  0  0  0  0  0  0  0  0  0  0  0
  147.6379  134.8300  156.3406 O   0  0  0  0  0  0  0  0  0  0  0  0
  149.5682  134.6553  154.9051 C   0  0  1  0  0  0  0  0  0  0  0  0
  149.5880  133.6169  153.7712 C   0  0  0  0  0  0  0  0  0  0  0  0
  150.2811  135.8439  154.4415 N   0  0  0  0  0  0  0  0  0  0  0  0
  150.5361  136.9348  155.1823 C   0  0  0  0  0  0  0  0  0  0  0  0
  150.2358  137.0229  156.3736 O   0  0  0  0  0  0  0  0  0  0  0  0
  151.2239  138.1001  154.4549 C   0  0  2  0  0  0  0  0  0  0  0  0
  152.5789  138.4826  155.0848 C   0  0  0  0  0  0  0  0  0  0  0  0
  150.3140  139.2360  154.3658 N   0  0  0  0  0  0  0  0  0  0  0  0
  149.0564  139.2937  153.9217 C   0  0  0  0  0  0  0  0  0  0  0  0
  148.4985  140.4907  154.0349 N   0  0  0  0  0  0  0  0  0  0  0  0
  149.5336  141.1703  154.6112 C   0  0  0  0  0  0  0  0  0  0  0  0
  150.6406  140.4642  154.8401 N   0  0  0  0  0  0  0  0  0  0  0  0
  145.6333  136.2499  153.3251 H   0  0  0  0  0  0  0  0  0  0  0  0
  145.8492  136.6724  155.0275 H   0  0  0  0  0  0  0  0  0  0  0  0
  145.3658  135.0287  154.5736 H   0  0  0  0  0  0  0  0  0  0  0  0
  147.8343  135.6069  153.2961 H   0  0  0  0  0  0  0  0  0  0  0  0
  150.0562  134.2432  155.7909 H   0  0  0  0  0  0  0  0  0  0  0  0
  149.0667  132.7037  154.0611 H   0  0  0  0  0  0  0  0  0  0  0  0
  150.6112  133.3379  153.5179 H   0  0  0  0  0  0  0  0  0  0  0  0
  149.1161  133.9958  152.8630 H   0  0  0  0  0  0  0  0  0  0  0  0
  150.5571  135.8555  153.4705 H   0  0  0  0  0  0  0  0  0  0  0  0
  151.4253  137.7718  153.4339 H   0  0  0  0  0  0  0  0  0  0  0  0
  153.2639  137.6341  155.0868 H   0  0  0  0  0  0  0  0  0  0  0  0
  152.4720  138.8224  156.1157 H   0  0  0  0  0  0  0  0  0  0  0  0
  153.0561  139.2848  154.5213 H   0  0  0  0  0  0  0  0  0  0  0  0
  148.5359  138.4404  153.5119 H   0  0  0  0  0  0  0  0  0  0  0  0
  149.4678  142.2156  154.8745 H   0  0  0  0  0  0  0  0  0  0  0  0
  1  2  1  0  0  0  0
  1 17  1  0  0  0  0
  1 18  1  0  0  0  0
  1 19  1  0  0  0  0
  2  3  1  0  0  0  0
  2 20  1  0  0  0  0
  3  4  2  0  0  0  0
  3  5  1  0  0  0  0
  5  6  1  0  0  0  0
  5  7  1  0  0  0  0
  5 21  1  0  0  0  0
  6 22  1  0  0  0  0
  6 23  1  0  0  0  0
  6 24  1  0  0  0  0
  7  8  1  0  0  0  0
  7 25  1  0  0  0  0
  8  9  2  0  0  0  0
  8 10  1  0  0  0  0
 10 11  1  0  0  0  0
 10 12  1  0  0  0  0
 10 26  1  0  0  0  0
 11 27  1  0  0  0  0
 11 28  1  0  0  0  0
 11 29  1  0  0  0  0
 12 16  1  0  0  0  0
 12 13  1  0  0  0  0
 13 14  2  0  0  0  0
 13 30  1  0  0  0  0
 14 15  1  0  0  0  0
 15 16  2  0  0  0  0
 15 31  1  0  0  0  0
M  END
> <s_m_source_file>
AV-unprocessed.smi

> <i_m_source_file_index>
970

> <i_lp_mmshare_version>
43012

> <i_f3d_flags>
0

> <s_epik_input>
W0NIM11bTkhdQyg9TylbQ0BIXShbQ0gzXSlbTkhdQyg9TylbQ0BIXShbQ0gzXSluMVtjSF1uW2NIXW4x

> <s_epik_cmdline>
J2VwaWtfcHl0aG9uJywgJy1waCcsICc3LjAnLCAnLXRuJywgJzgnLCAnLW1hJywgJzIwMCcsICctbWV0YWxfYmluZGluZycsICctaW1hZScsICc8aW5maWxlLm1hZT4nLCAnLW9tYWUnLCAnPG91dGZpbGUubWFlPic=

> <r_lp_tautomer_probability>
1

> <r_epik_Ionization_Penalty>
1.07271e-05

> <r_epik_Ionization_Penalty_Charging>
0

> <r_epik_Ionization_Penalty_Neutral>
1.07271e-05

> <r_epik_State_Penalty>
-0

> <r_epik_Charging_Adjusted_Penalty>
0

> <i_epik_Tot_Q>
0

> <i_epik_Tot_abs_Q>
0

> <r_epik_Metal_State_Penalty>
-0

> <b_epik_Metal_Only>
0

> <s_lp_Force_Field>
OPLS_2005

> <r_lp_Energy>
8.21171

> <b_lp_Chiralities_Consistent>
1

> <s_lp_Variant>
AV-unprocessed.smi:970-2

> <Gold.Version>
5.8.1

> <Gold.Id.Protein>
6NUR|6NUR_protein|mol2

> <Gold.PLP.Fitness>
34.3761

> <Gold.PLP.PLP>
-24.7204

> <Gold.PLP.part.hbond>
-3.9771

> <Gold.PLP.part.metal>
0.0000

> <Gold.PLP.part.buried>
-0.2511

> <Gold.PLP.part.nonpolar>
-19.9481

> <Gold.PLP.part.repulsive>
0.3285

> <Gold.PLP.ligand.clash>
0.0000

> <Gold.PLP.ligand.torsion>
0.1237

> <Gold.PLP.Chemscore.Hbond>
2.2500

> <Gold.PLP.Chemscore.CHOScore>
1.0024

> <Gold.PLP.Chemscore.Metal>
0.0000

> <Gold.Chemscore.Hbonds>
donor molecule, donor type, donor heavy atom, donor atom, acceptor molecule, acceptor atom, score
      L1  H     2    20       P1  7948  1.00
      L1  H     7    25       P1  7949  0.28
      P1  H  7989  7998       L1    16  0.75
      L1  C    13    30       P1  7948  0.40
      L1  C    15    31       P1  8028  0.63

> <Gold.PLP.Chemscore.Internal.Correction>
0.1460

> <Gold.Rescore>
     Score         DG    S(hbond)    S(metal)    S(lipo)     H(rot)  DE(clash)    DE(int)     intcor
      6.89      -7.30       1.46        0.00      30.39       2.59       0.06       0.35       ----

> <Gold.Chemscore.Fitness>
6.8851

> <Gold.Chemscore.DG>
-7.3002

> <Gold.Chemscore.ZeroCoef>
-5.4800

> <Gold.Chemscore.Hbond>
1.4620

> <Gold.Chemscore.Metal>
0.0000

> <Gold.Chemscore.Lipo>
30.3874

> <Gold.Chemscore.Internal_Hbond>
0.0000

> <Gold.Chemscore.DEClash>
0.0607

> <Gold.Chemscore.DEInternal>
0.3544

> <Gold.Chemscore.Rot>
2.5852

> <Gold.Chemscore.Internal.Correction>
   9.000000E+99

> <Gold.Chemscore.Hbonds>
donor molecule, donor type, donor heavy atom, donor atom, acceptor molecule, acceptor atom, score
      L1  H     2    20       P1  7948  1.00
      P1  H  7989  7998       L1    16  0.03

> <Gold.Chemscore.Hbond.Weighted>
-4.8831

> <Gold.Chemscore.Metal.Weighted>
-0.0000

> <Gold.Chemscore.Lipo.Weighted>
-3.5553

> <Gold.Chemscore.Internal_Hbond.Weighted>
0.0000

> <Gold.Chemscore.DEClash.Weighted>
0.0607

> <Gold.Chemscore.DEInternal.Weighted>
0.3544

> <Gold.Chemscore.Rot.Weighted>
6.6182

> <Gold.Chemscore.Internal.Correction.Weighted>
   9.000000E+99

> <Gold.Protein.RotatedTorsions>
[ 6907 6896 6895 6894 ] final   91.38 input  -60.11 | X-H torsion
[ 7974 7965 7964 7962 ] final  148.19 input  175.53 | X-H torsion
[ 8008 7997 7996 7995 ] final -136.94 input   59.86 | X-H torsion
[ 10167 10162 10161 10158 ] final -104.31 input  -65.29 | X-H torsion
[ 10718 10713 10712 10709 ] final   73.17 input   66.30 | X-H torsion
[ 10763 10752 10751 10750 ] final  -43.51 input  -60.55 | X-H torsion
[ 11005 11000 10999 10996 ] final -104.01 input  -57.11 | X-H torsion

> <Gold.Protein.ActiveResidues>
 VAL166  LYS551  ARG553  GLY616  TRP617  ASP618  TYR619  PRO620  LYS621  CYS622 
 ASP623  PHE694  ASN695  SER759  ASP760  ASP761  ALA762  ILE779  LEU786  VAL792 
 PHE793  MET794  SER795  GLU796  ALA797  LYS798  CYS799  TRP800  GLU811  SER814 

> <Gold.Protein.RotatedAtoms>
  152.5449  134.1666  159.8579 H   0  0  0  0  0  0  0  0  0  0  0  0  # atno 6907 bound_to 6896
  151.1679  133.4796  159.2601 H   0  0  0  0  0  0  0  0  0  0  0  0  # atno 6908 bound_to 6896
  151.1305  135.0139  159.8635 H   0  0  0  0  0  0  0  0  0  0  0  0  # atno 6909 bound_to 6896
  144.8533  139.6122  143.5964 H   0  0  0  0  0  0  0  0  0  0  0  0  # atno 7974 bound_to 7965
  155.4035  140.0507  157.3035 H   0  0  0  0  0  0  0  0  0  0  0  0  # atno 8008 bound_to 7997
  154.4979  140.2145  155.9368 H   0  0  0  0  0  0  0  0  0  0  0  0  # atno 8009 bound_to 7997
  156.1430  140.3151  155.8530 H   0  0  0  0  0  0  0  0  0  0  0  0  # atno 8010 bound_to 7997
  140.2107  143.3749  152.1053 H   0  0  0  0  0  0  0  0  0  0  0  0  # atno 10167 bound_to 10162
  157.6535  130.9615  150.1032 H   0  0  0  0  0  0  0  0  0  0  0  0  # atno 10718 bound_to 10713
  153.9968  135.6698  153.4757 H   0  0  0  0  0  0  0  0  0  0  0  0  # atno 10763 bound_to 10752
  153.0680  135.4990  154.8239 H   0  0  0  0  0  0  0  0  0  0  0  0  # atno 10764 bound_to 10752
  154.7076  135.3091  154.9209 H   0  0  0  0  0  0  0  0  0  0  0  0  # atno 10765 bound_to 10752
  141.1120  133.8688  157.1558 H   0  0  0  0  0  0  0  0  0  0  0  0  # atno 11005 bound_to 11000
  146.2803  139.6859  142.9234 LP  0  0  0  0  0  0  0  0  0  0  0  0  # atno 17320 bound_to 7965
  145.4456  141.0425  143.2833 LP  0  0  0  0  0  0  0  0  0  0  0  0  # atno 17321 bound_to 7965
  139.5181  144.7001  151.5518 LP  0  0  0  0  0  0  0  0  0  0  0  0  # atno 17342 bound_to 10162
  140.6326  143.9047  150.6618 LP  0  0  0  0  0  0  0  0  0  0  0  0  # atno 17343 bound_to 10162
  156.1949  130.3657  149.8862 LP  0  0  0  0  0  0  0  0  0  0  0  0  # atno 17370 bound_to 10713
  156.6781  130.8847  151.3572 LP  0  0  0  0  0  0  0  0  0  0  0  0  # atno 17371 bound_to 10713
  140.0019  135.0024  157.0208 LP  0  0  0  0  0  0  0  0  0  0  0  0  # atno 17394 bound_to 11000
  140.4750  134.1348  155.7208 LP  0  0  0  0  0  0  0  0  0  0  0  0  # atno 17395 bound_to 11000

$$$$
