AV-unprocessed.smi:3308|AV-procd|sdf|12715|dock1
  -GOLD-   2272019 53D 1   1.00000     0.00000
 Structure written by MMmdl.
 40 41  0  0  0  0  0  0  0  0  1 V2000
  149.4690  138.5469  157.2149 C   0  0  0  0  0  0  0  0  0  0  0  0
  150.2535  139.7855  156.7484 C   0  0  1  0  0  0  0  0  0  0  0  0
  151.5572  139.7113  157.4131 N   0  0  0  0  0  0  0  0  0  0  0  0
  152.0742  141.0002  157.9043 C   0  0  0  0  0  0  0  0  0  0  0  0
  153.1583  140.8606  158.9899 C   0  0  0  0  0  0  0  0  0  0  0  0
  154.0596  140.0395  158.8144 O   0  0  0  0  0  0  0  0  0  0  0  0
  153.0956  141.6248  160.1020 N   0  0  0  0  0  0  0  0  0  0  0  0
  152.0560  142.6292  160.3211 C   0  0  0  0  0  0  0  0  0  0  0  0
  152.5115  143.4436  161.5316 C   0  0  0  0  0  0  0  0  0  0  0  0
  153.4009  142.4845  162.3090 C   0  0  0  0  0  0  0  0  0  0  0  0
  154.0237  141.5961  161.2322 C   0  0  0  0  0  0  0  0  0  0  0  0
  150.4474  139.8429  155.2070 C   0  0  1  0  0  0  0  0  0  0  0  0
  151.2376  138.6422  154.6492 C   0  0  0  0  0  0  0  0  0  0  0  0
  149.1717  139.9642  154.5092 N   0  0  0  0  0  0  0  0  0  0  0  0
  148.5455  139.0291  153.7109 C   0  0  0  0  0  0  0  0  0  0  0  0
  147.3910  139.5922  153.2482 C   0  0  0  0  0  0  0  0  0  0  0  0
  147.3966  140.8941  153.8215 C   0  0  0  0  0  0  0  0  0  0  0  0
  148.4627  141.1150  154.5728 N   0  0  0  0  0  0  0  0  0  0  0  0
  148.4404  138.5649  156.8554 H   0  0  0  0  0  0  0  0  0  0  0  0
  149.4191  138.5004  158.3036 H   0  0  0  0  0  0  0  0  0  0  0  0
  149.9311  137.6236  156.8631 H   0  0  0  0  0  0  0  0  0  0  0  0
  149.6935  140.6660  157.0659 H   0  0  0  0  0  0  0  0  0  0  0  0
  151.5104  139.0349  158.1620 H   0  0  0  0  0  0  0  0  0  0  0  0
  152.5187  141.5318  157.0630 H   0  0  0  0  0  0  0  0  0  0  0  0
  151.2355  141.6108  158.2292 H   0  0  0  0  0  0  0  0  0  0  0  0
  151.9101  143.2678  159.4484 H   0  0  0  0  0  0  0  0  0  0  0  0
  151.1130  142.1229  160.5325 H   0  0  0  0  0  0  0  0  0  0  0  0
  153.1020  144.2975  161.1967 H   0  0  0  0  0  0  0  0  0  0  0  0
  151.6786  143.8242  162.1233 H   0  0  0  0  0  0  0  0  0  0  0  0
  154.1468  142.9970  162.9173 H   0  0  0  0  0  0  0  0  0  0  0  0
  152.7866  141.8769  162.9748 H   0  0  0  0  0  0  0  0  0  0  0  0
  154.1862  140.5855  161.6094 H   0  0  0  0  0  0  0  0  0  0  0  0
  154.9835  142.0045  160.9137 H   0  0  0  0  0  0  0  0  0  0  0  0
  151.0236  140.7390  154.9703 H   0  0  0  0  0  0  0  0  0  0  0  0
  152.2664  138.6363  155.0081 H   0  0  0  0  0  0  0  0  0  0  0  0
  151.2828  138.6772  153.5601 H   0  0  0  0  0  0  0  0  0  0  0  0
  150.7798  137.6938  154.9323 H   0  0  0  0  0  0  0  0  0  0  0  0
  148.9721  138.0523  153.5364 H   0  0  0  0  0  0  0  0  0  0  0  0
  146.6560  139.1436  152.5965 H   0  0  0  0  0  0  0  0  0  0  0  0
  146.6651  141.6810  153.7125 H   0  0  0  0  0  0  0  0  0  0  0  0
  1  2  1  0  0  0  0
  1 19  1  0  0  0  0
  1 20  1  0  0  0  0
  1 21  1  0  0  0  0
  2  3  1  0  0  0  0
  2 12  1  0  0  0  0
  2 22  1  0  0  0  0
  3  4  1  0  0  0  0
  3 23  1  0  0  0  0
  4  5  1  0  0  0  0
  4 24  1  0  0  0  0
  4 25  1  0  0  0  0
  5  6  2  0  0  0  0
  5  7  1  0  0  0  0
  7 11  1  0  0  0  0
  7  8  1  0  0  0  0
  8  9  1  0  0  0  0
  8 26  1  0  0  0  0
  8 27  1  0  0  0  0
  9 10  1  0  0  0  0
  9 28  1  0  0  0  0
  9 29  1  0  0  0  0
 10 11  1  0  0  0  0
 10 30  1  0  0  0  0
 10 31  1  0  0  0  0
 11 32  1  0  0  0  0
 11 33  1  0  0  0  0
 12 13  1  0  0  0  0
 12 14  1  0  0  0  0
 12 34  1  0  0  0  0
 13 35  1  0  0  0  0
 13 36  1  0  0  0  0
 13 37  1  0  0  0  0
 14 18  1  0  0  0  0
 14 15  1  0  0  0  0
 15 16  2  0  0  0  0
 15 38  1  0  0  0  0
 16 17  1  0  0  0  0
 16 39  1  0  0  0  0
 17 18  2  0  0  0  0
 17 40  1  0  0  0  0
M  END
> <s_m_source_file>
AV-unprocessed.smi

> <i_m_source_file_index>
3308

> <i_lp_mmshare_version>
43012

> <i_f3d_flags>
0

> <s_epik_input>
bjFbY0hdW2NIXVtjSF1uMVtDQEBIXShbQ0gzXSlbQ0BIXShbQ0gzXSlbTkhdW0NIMl1DKD1PKU4yW0NIMl1bQ0gyXVtDSDJdW0NIMl0y

> <s_epik_cmdline>
J2VwaWtfcHl0aG9uJywgJy1waCcsICc3LjAnLCAnLXRuJywgJzgnLCAnLW1hJywgJzIwMCcsICctbWV0YWxfYmluZGluZycsICctaW1hZScsICc8aW5maWxlLm1hZT4nLCAnLW9tYWUnLCAnPG91dGZpbGUubWFlPic=

> <r_lp_tautomer_probability>
1

> <r_epik_Ionization_Penalty>
0.918676

> <r_epik_Ionization_Penalty_Charging>
0

> <r_epik_Ionization_Penalty_Neutral>
0.918676

> <r_epik_State_Penalty>
0.958258

> <r_epik_Charging_Adjusted_Penalty>
0.958258

> <i_epik_Tot_Q>
0

> <i_epik_Tot_abs_Q>
0

> <r_epik_Metal_State_Penalty>
0.956879

> <b_epik_Metal_Only>
0

> <s_lp_Force_Field>
OPLS_2005

> <r_lp_Energy>
35.595

> <b_lp_Chiralities_Consistent>
1

> <s_lp_Variant>
AV-unprocessed.smi:3308-8

> <Gold.Version>
5.8.1

> <Gold.Id.Protein>
6NUR|6NUR_protein|mol2

> <Gold.PLP.Fitness>
42.0190

> <Gold.PLP.PLP>
-38.1748

> <Gold.PLP.part.hbond>
-1.0000

> <Gold.PLP.part.metal>
0.0000

> <Gold.PLP.part.buried>
-1.2519

> <Gold.PLP.part.nonpolar>
-35.0811

> <Gold.PLP.part.repulsive>
0.1364

> <Gold.PLP.ligand.clash>
0.0000

> <Gold.PLP.ligand.torsion>
1.1152

> <Gold.PLP.Chemscore.Hbond>
1.0000

> <Gold.PLP.Chemscore.CHOScore>
0.9899

> <Gold.PLP.Chemscore.Metal>
0.0000

> <Gold.Chemscore.Hbonds>
donor molecule, donor type, donor heavy atom, donor atom, acceptor molecule, acceptor atom, score
      P1  H  7997  8009       L1     6  1.00
      L1  C    15    38       P1  7948  1.00

> <Gold.PLP.Chemscore.Internal.Correction>
0.1050

> <Gold.Rescore>
     Score         DG    S(hbond)    S(metal)    S(lipo)     H(rot)  DE(clash)    DE(int)     intcor
     13.52     -14.65       0.94        0.00      89.16       1.72       0.26       0.86       ----

> <Gold.Chemscore.Fitness>
13.5240

> <Gold.Chemscore.DG>
-14.6475

> <Gold.Chemscore.ZeroCoef>
-5.4800

> <Gold.Chemscore.Hbond>
0.9396

> <Gold.Chemscore.Metal>
0.0000

> <Gold.Chemscore.Lipo>
89.1650

> <Gold.Chemscore.Internal_Hbond>
0.0000

> <Gold.Chemscore.DEClash>
0.2620

> <Gold.Chemscore.DEInternal>
0.8616

> <Gold.Chemscore.Rot>
1.7200

> <Gold.Chemscore.Internal.Correction>
   9.000000E+99

> <Gold.Chemscore.Hbonds>
donor molecule, donor type, donor heavy atom, donor atom, acceptor molecule, acceptor atom, score
      P1  H  7997  8009       L1     6  0.92

> <Gold.Chemscore.Hbond.Weighted>
-3.1383

> <Gold.Chemscore.Metal.Weighted>
-0.0000

> <Gold.Chemscore.Lipo.Weighted>
-10.4323

> <Gold.Chemscore.Internal_Hbond.Weighted>
0.0000

> <Gold.Chemscore.DEClash.Weighted>
0.2620

> <Gold.Chemscore.DEInternal.Weighted>
0.8616

> <Gold.Chemscore.Rot.Weighted>
4.4031

> <Gold.Chemscore.Internal.Correction.Weighted>
   9.000000E+99

> <Gold.Protein.RotatedTorsions>
[ 6907 6896 6895 6894 ] final -134.67 input  -60.11 | X-H torsion
[ 7974 7965 7964 7962 ] final -115.00 input  175.53 | X-H torsion
[ 8008 7997 7996 7995 ] final  131.38 input   59.86 | X-H torsion
[ 10167 10162 10161 10158 ] final -108.55 input  -65.29 | X-H torsion
[ 10718 10713 10712 10709 ] final  114.71 input   66.30 | X-H torsion
[ 10763 10752 10751 10750 ] final -146.25 input  -60.55 | X-H torsion
[ 11005 11000 10999 10996 ] final   99.36 input  -57.11 | X-H torsion

> <Gold.Protein.ActiveResidues>
 VAL166  LYS551  ARG553  GLY616  TRP617  ASP618  TYR619  PRO620  LYS621  CYS622 
 ASP623  PHE694  ASN695  SER759  ASP760  ASP761  ALA762  ILE779  LEU786  VAL792 
 PHE793  MET794  SER795  GLU796  ALA797  LYS798  CYS799  TRP800  GLU811  SER814 

> <Gold.Protein.RotatedAtoms>
  150.9886  133.6172  159.2711 H   0  0  0  0  0  0  0  0  0  0  0  0  # atno 6907 bound_to 6896
  151.3401  135.0860  159.9378 H   0  0  0  0  0  0  0  0  0  0  0  0  # atno 6908 bound_to 6896
  152.5239  133.9499  159.7721 H   0  0  0  0  0  0  0  0  0  0  0  0  # atno 6909 bound_to 6896
  145.1136  140.8626  143.3855 H   0  0  0  0  0  0  0  0  0  0  0  0  # atno 7974 bound_to 7965
  156.2969  140.2573  156.2915 H   0  0  0  0  0  0  0  0  0  0  0  0  # atno 8008 bound_to 7997
  154.9504  140.0394  157.2160 H   0  0  0  0  0  0  0  0  0  0  0  0  # atno 8009 bound_to 7997
  154.8041  140.2833  155.5905 H   0  0  0  0  0  0  0  0  0  0  0  0  # atno 8010 bound_to 7997
  140.1650  143.4089  152.1397 H   0  0  0  0  0  0  0  0  0  0  0  0  # atno 10167 bound_to 10162
  157.6265  131.1002  150.7225 H   0  0  0  0  0  0  0  0  0  0  0  0  # atno 10718 bound_to 10713
  154.8345  135.3391  154.6631 H   0  0  0  0  0  0  0  0  0  0  0  0  # atno 10763 bound_to 10752
  153.7247  135.6956  153.5008 H   0  0  0  0  0  0  0  0  0  0  0  0  # atno 10764 bound_to 10752
  153.2355  135.4402  155.0594 H   0  0  0  0  0  0  0  0  0  0  0  0  # atno 10765 bound_to 10752
  139.8771  134.9092  156.4595 H   0  0  0  0  0  0  0  0  0  0  0  0  # atno 11005 bound_to 11000
  145.0819  139.2953  143.5779 LP  0  0  0  0  0  0  0  0  0  0  0  0  # atno 17320 bound_to 7965
  146.3525  140.0328  142.8649 LP  0  0  0  0  0  0  0  0  0  0  0  0  # atno 17321 bound_to 7965
  139.5364  144.7213  151.4880 LP  0  0  0  0  0  0  0  0  0  0  0  0  # atno 17342 bound_to 10162
  140.6619  143.8481  150.6897 LP  0  0  0  0  0  0  0  0  0  0  0  0  # atno 17343 bound_to 10162
  156.7572  130.4787  149.5444 LP  0  0  0  0  0  0  0  0  0  0  0  0  # atno 17370 bound_to 10713
  156.1441  130.6265  151.0507 LP  0  0  0  0  0  0  0  0  0  0  0  0  # atno 17371 bound_to 10713
  140.8874  133.7873  155.9534 LP  0  0  0  0  0  0  0  0  0  0  0  0  # atno 17394 bound_to 11000
  140.8789  134.2635  157.5154 LP  0  0  0  0  0  0  0  0  0  0  0  0  # atno 17395 bound_to 11000

$$$$
