AV-unprocessed.smi:2551|AV-procd|sdf|10014|dock7
  -GOLD-   2272014 63D 1   1.00000     0.00000
 Structure written by MMmdl.
 25 26  0  0  0  0  0  0  0  0  2 V2000
  151.7899  141.3251  157.0483 O   0  0  0  0  0  0  0  0  0  0  0  0
  151.0018  142.1965  156.6834 C   0  0  0  0  0  0  0  0  0  0  0  0
  149.9906  141.9650  155.8051 N   0  5  0  0  0  0  0  0  0  0  0  0
  149.8315  140.7862  155.1754 C   0  0  0  0  0  0  0  0  0  0  0  0
  150.8639  139.9745  154.8954 N   0  0  0  0  0  0  0  0  0  0  0  0
  150.4819  138.8114  154.2410 N   0  0  0  0  0  0  0  0  0  0  0  0
  149.1632  138.7704  154.0527 C   0  0  0  0  0  0  0  0  0  0  0  0
  148.2688  140.1496  154.6554 S   0  0  0  0  0  0  0  0  0  0  0  0
  151.1399  143.4451  157.1710 N   0  0  0  0  0  0  0  0  0  0  0  0
  152.1546  143.8927  158.1218 C   0  0  0  0  0  0  0  0  0  0  0  0
  152.2565  142.9154  159.3085 C   0  0  0  0  0  0  0  0  0  0  0  0
  152.2279  143.7778  160.5713 C   0  0  0  0  0  0  0  0  0  0  0  0
  151.3962  144.9940  160.1773 C   0  0  0  0  0  0  0  0  0  0  0  0
  151.7947  145.2645  158.7263 C   0  0  0  0  0  0  0  0  0  0  0  0
  148.7143  137.9226  153.5571 H   0  0  0  0  0  0  0  0  0  0  0  0
  150.4851  144.1423  156.8484 H   0  0  0  0  0  0  0  0  0  0  0  0
  153.1234  143.9564  157.6230 H   0  0  0  0  0  0  0  0  0  0  0  0
  151.4008  142.2380  159.3234 H   0  0  0  0  0  0  0  0  0  0  0  0
  153.1535  142.2975  159.2568 H   0  0  0  0  0  0  0  0  0  0  0  0
  151.8181  143.2487  161.4320 H   0  0  0  0  0  0  0  0  0  0  0  0
  153.2409  144.0935  160.8244 H   0  0  0  0  0  0  0  0  0  0  0  0
  150.3353  144.7453  160.2270 H   0  0  0  0  0  0  0  0  0  0  0  0
  151.5696  145.8519  160.8276 H   0  0  0  0  0  0  0  0  0  0  0  0
  152.6772  145.9052  158.7087 H   0  0  0  0  0  0  0  0  0  0  0  0
  151.0096  145.7886  158.1791 H   0  0  0  0  0  0  0  0  0  0  0  0
  1  2  2  0  0  0  0
  2  3  1  0  0  0  0
  2  9  1  0  0  0  0
  3  4  1  0  0  0  0
  4  8  1  0  0  0  0
  4  5  2  0  0  0  0
  5  6  1  0  0  0  0
  6  7  2  0  0  0  0
  7  8  1  0  0  0  0
  7 15  1  0  0  0  0
  9 10  1  0  0  0  0
  9 16  1  0  0  0  0
 10 14  1  0  0  0  0
 10 11  1  0  0  0  0
 10 17  1  0  0  0  0
 11 12  1  0  0  0  0
 11 18  1  0  0  0  0
 11 19  1  0  0  0  0
 12 13  1  0  0  0  0
 12 20  1  0  0  0  0
 12 21  1  0  0  0  0
 13 14  1  0  0  0  0
 13 22  1  0  0  0  0
 13 23  1  0  0  0  0
 14 24  1  0  0  0  0
 14 25  1  0  0  0  0
M  CHG  1   3  -1
M  END
> <s_m_source_file>
AV-unprocessed.smi

> <i_m_source_file_index>
2551

> <i_lp_mmshare_version>
43012

> <i_f3d_flags>
0

> <s_epik_input>
W0NIMl0xW0NIMl1bQ0gyXVtDSDJdW0NIXTFbTkhdQyg9TylbTkhdYzJubltjSF1zMg==

> <s_epik_cmdline>
J2VwaWtfcHl0aG9uJywgJy1waCcsICc3LjAnLCAnLXRuJywgJzgnLCAnLW1hJywgJzIwMCcsICctbWV0YWxfYmluZGluZycsICctaW1hZScsICc8aW5maWxlLm1hZT4nLCAnLW9tYWUnLCAnPG91dGZpbGUubWFlPic=

> <r_lp_tautomer_probability>
1

> <r_epik_Ionization_Penalty>
4.51495

> <r_epik_Ionization_Penalty_Charging>
4.46823

> <r_epik_Ionization_Penalty_Neutral>
0.0467187

> <r_epik_State_Penalty>
4.46792

> <r_epik_Charging_Adjusted_Penalty>
8.93614

> <i_epik_Tot_Q>
-1

> <i_epik_Tot_abs_Q>
1

> <r_epik_Metal_State_Penalty>
0.803637

> <b_epik_Metal_Only>
1

> <s_lp_Force_Field>
OPLS_2005

> <r_lp_Energy>
17.7165

> <b_lp_Chiralities_Consistent>
1

> <s_lp_Variant>
AV-unprocessed.smi:2551-2

> <Gold.Version>
5.8.1

> <Gold.Id.Protein>
6NUR|6NUR_protein|mol2

> <Gold.PLP.Fitness>
38.5231

> <Gold.PLP.PLP>
-30.2352

> <Gold.PLP.part.hbond>
-2.0000

> <Gold.PLP.part.metal>
0.0000

> <Gold.PLP.part.buried>
-3.9246

> <Gold.PLP.part.nonpolar>
-25.3560

> <Gold.PLP.part.repulsive>
1.4378

> <Gold.PLP.ligand.clash>
0.0000

> <Gold.PLP.ligand.torsion>
0.3449

> <Gold.PLP.Chemscore.Hbond>
1.9913

> <Gold.PLP.Chemscore.CHOScore>
1.0000

> <Gold.PLP.Chemscore.Metal>
0.0000

> <Gold.Chemscore.Hbonds>
donor molecule, donor type, donor heavy atom, donor atom, acceptor molecule, acceptor atom, score
      L1  H     9    16       P1  8028  0.94
      P1  H  7989  7998       L1     5  1.00
      L1  C     7    15       P1  7948  1.00

> <Gold.PLP.Chemscore.Internal.Correction>
0.0040

> <Gold.Rescore>
     Score         DG    S(hbond)    S(metal)    S(lipo)     H(rot)  DE(clash)    DE(int)     intcor
     13.38     -16.86       1.79        0.00      68.07       1.00       0.06       3.41       ----

> <Gold.Chemscore.Fitness>
13.3827

> <Gold.Chemscore.DG>
-16.8554

> <Gold.Chemscore.ZeroCoef>
-5.4800

> <Gold.Chemscore.Hbond>
1.7879

> <Gold.Chemscore.Metal>
0.0000

> <Gold.Chemscore.Lipo>
68.0672

> <Gold.Chemscore.Internal_Hbond>
0.0000

> <Gold.Chemscore.DEClash>
0.0605

> <Gold.Chemscore.DEInternal>
3.4122

> <Gold.Chemscore.Rot>
1.0000

> <Gold.Chemscore.Internal.Correction>
   9.000000E+99

> <Gold.Chemscore.Hbonds>
donor molecule, donor type, donor heavy atom, donor atom, acceptor molecule, acceptor atom, score
      L1  H     9    16       P1  8028  0.86
      P1  H  7989  7998       L1     5  0.08

> <Gold.Chemscore.Hbond.Weighted>
-5.9715

> <Gold.Chemscore.Metal.Weighted>
-0.0000

> <Gold.Chemscore.Lipo.Weighted>
-7.9639

> <Gold.Chemscore.Internal_Hbond.Weighted>
0.0000

> <Gold.Chemscore.DEClash.Weighted>
0.0605

> <Gold.Chemscore.DEInternal.Weighted>
3.4122

> <Gold.Chemscore.Rot.Weighted>
2.5600

> <Gold.Chemscore.Internal.Correction.Weighted>
   9.000000E+99

> <Gold.Protein.RotatedTorsions>
[ 6907 6896 6895 6894 ] final  -43.56 input  -60.11 | X-H torsion
[ 7974 7965 7964 7962 ] final   17.03 input  175.53 | X-H torsion
[ 8008 7997 7996 7995 ] final  167.00 input   59.86 | X-H torsion
[ 10167 10162 10161 10158 ] final  146.72 input  -65.29 | X-H torsion
[ 10718 10713 10712 10709 ] final  -77.66 input   66.30 | X-H torsion
[ 10763 10752 10751 10750 ] final   33.13 input  -60.55 | X-H torsion
[ 11005 11000 10999 10996 ] final    7.42 input  -57.11 | X-H torsion

> <Gold.Protein.ActiveResidues>
 VAL166  LYS551  ARG553  GLY616  TRP617  ASP618  TYR619  PRO620  LYS621  CYS622 
 ASP623  PHE694  ASN695  SER759  ASP760  ASP761  ALA762  ILE779  LEU786  VAL792 
 PHE793  MET794  SER795  GLU796  ALA797  LYS798  CYS799  TRP800  GLU811  SER814 

> <Gold.Protein.RotatedAtoms>
  150.9426  134.8833  159.7621 H   0  0  0  0  0  0  0  0  0  0  0  0  # atno 6907 bound_to 6896
  152.5086  134.3921  159.9397 H   0  0  0  0  0  0  0  0  0  0  0  0  # atno 6908 bound_to 6896
  151.3941  133.3739  159.2759 H   0  0  0  0  0  0  0  0  0  0  0  0  # atno 6909 bound_to 6896
  146.2231  139.8662  142.8596 H   0  0  0  0  0  0  0  0  0  0  0  0  # atno 7974 bound_to 7965
  156.1671  140.1628  156.8512 H   0  0  0  0  0  0  0  0  0  0  0  0  # atno 8008 bound_to 7997
  154.5219  140.0776  156.8222 H   0  0  0  0  0  0  0  0  0  0  0  0  # atno 8009 bound_to 7997
  155.3588  140.3394  155.4242 H   0  0  0  0  0  0  0  0  0  0  0  0  # atno 8010 bound_to 7997
  139.4902  144.5808  151.6875 H   0  0  0  0  0  0  0  0  0  0  0  0  # atno 10167 bound_to 10162
  156.0139  130.4497  150.3379 H   0  0  0  0  0  0  0  0  0  0  0  0  # atno 10718 bound_to 10713
  153.0227  135.6395  154.1463 H   0  0  0  0  0  0  0  0  0  0  0  0  # atno 10763 bound_to 10752
  154.1196  135.2847  155.3213 H   0  0  0  0  0  0  0  0  0  0  0  0  # atno 10764 bound_to 10752
  154.6273  135.5504  153.7703 H   0  0  0  0  0  0  0  0  0  0  0  0  # atno 10765 bound_to 10752
  140.5484  134.0307  155.7928 H   0  0  0  0  0  0  0  0  0  0  0  0  # atno 11005 bound_to 11000
  145.2655  141.0091  143.3802 LP  0  0  0  0  0  0  0  0  0  0  0  0  # atno 17320 bound_to 7965
  144.9265  139.4349  143.6516 LP  0  0  0  0  0  0  0  0  0  0  0  0  # atno 17321 bound_to 7965
  140.5414  144.0573  150.6090 LP  0  0  0  0  0  0  0  0  0  0  0  0  # atno 17342 bound_to 10162
  140.3596  143.2915  152.0398 LP  0  0  0  0  0  0  0  0  0  0  0  0  # atno 17343 bound_to 10162
  157.1475  131.0312  151.2900 LP  0  0  0  0  0  0  0  0  0  0  0  0  # atno 17370 bound_to 10713
  157.4420  130.7549  149.7077 LP  0  0  0  0  0  0  0  0  0  0  0  0  # atno 17371 bound_to 10713
  141.1186  133.9499  157.2774 LP  0  0  0  0  0  0  0  0  0  0  0  0  # atno 17394 bound_to 11000
  139.9468  135.0182  156.8875 LP  0  0  0  0  0  0  0  0  0  0  0  0  # atno 17395 bound_to 11000

$$$$
