AV-unprocessed.smi:2510|AV-procd|sdf|9885|dock6
  -GOLD-   2272013523D 1   1.00000     0.00000
 Structure written by MMmdl.
 48 49  0  0  0  0  0  0  0  0  1 V2000
  151.1398  142.5075  157.4949 C   0  0  0  0  0  0  0  0  0  0  0  0
  150.6667  142.4084  156.0349 C   0  0  0  0  0  0  0  0  0  0  0  0
  149.8395  141.1449  155.6944 C   0  0  0  0  0  0  0  0  0  0  0  0
  150.8091  140.0454  155.1841 C   0  0  0  0  0  0  0  0  0  0  0  0
  152.0549  139.8161  156.0542 C   0  0  0  0  0  0  0  0  0  0  0  0
  148.8056  140.7589  156.7963 C   0  0  2  0  0  0  0  0  0  0  0  0
  148.4885  139.3319  156.8280 N   0  0  0  0  0  0  0  0  0  0  0  0
  147.5155  138.7754  157.5641 C   0  0  0  0  0  0  0  0  0  0  0  0
  146.6911  139.4245  158.2071 O   0  0  0  0  0  0  0  0  0  0  0  0
  147.4995  137.2477  157.6124 C   0  0  0  0  0  0  0  0  0  0  0  0
  147.9035  136.7727  158.9718 C   0  0  0  0  0  0  0  0  0  0  0  0
  147.2247  136.0533  159.9156 C   0  0  0  0  0  0  0  0  0  0  0  0
  148.1694  135.8727  160.9677 C   0  0  0  0  0  0  0  0  0  0  0  0
  147.9879  135.1301  162.2585 C   0  0  0  0  0  0  0  0  0  0  0  0
  149.3343  136.4465  160.7062 N   0  0  0  0  0  0  0  0  0  0  0  0
  149.1595  136.9945  159.4895 N   0  0  0  0  0  0  0  0  0  0  0  0
  147.7328  141.5673  156.0463 C   0  0  2  0  0  0  0  0  0  0  0  0
  146.2691  141.1302  156.0415 C   0  0  0  0  0  0  0  0  0  0  0  0
  148.6108  141.4322  154.7886 C   0  0  2  0  0  0  0  0  0  0  0  0
  148.2547  140.3027  153.9978 O   0  0  0  0  0  0  0  0  0  0  0  0
  147.1051  140.5213  153.1988 C   0  0  0  0  0  0  0  0  0  0  0  0
  149.9012  137.4982  159.0240 H   0  0  0  0  0  0  0  0  0  0  0  0
  151.5946  143.4802  157.6830 H   0  0  0  0  0  0  0  0  0  0  0  0
  151.8911  141.7544  157.7307 H   0  0  0  0  0  0  0  0  0  0  0  0
  150.3135  142.3903  158.1961 H   0  0  0  0  0  0  0  0  0  0  0  0
  150.0762  143.3012  155.8295 H   0  0  0  0  0  0  0  0  0  0  0  0
  151.5260  142.5002  155.3714 H   0  0  0  0  0  0  0  0  0  0  0  0
  150.2861  139.1008  155.0387 H   0  0  0  0  0  0  0  0  0  0  0  0
  151.1796  140.2990  154.1922 H   0  0  0  0  0  0  0  0  0  0  0  0
  152.7431  139.1321  155.5575 H   0  0  0  0  0  0  0  0  0  0  0  0
  151.8046  139.3747  157.0184 H   0  0  0  0  0  0  0  0  0  0  0  0
  152.5915  140.7478  156.2346 H   0  0  0  0  0  0  0  0  0  0  0  0
  149.0215  141.1814  157.7788 H   0  0  0  0  0  0  0  0  0  0  0  0
  149.1195  138.7174  156.3339 H   0  0  0  0  0  0  0  0  0  0  0  0
  146.5032  136.8802  157.3628 H   0  0  0  0  0  0  0  0  0  0  0  0
  148.1800  136.8542  156.8566 H   0  0  0  0  0  0  0  0  0  0  0  0
  146.2098  135.6893  159.8538 H   0  0  0  0  0  0  0  0  0  0  0  0
  146.9395  134.8846  162.4274 H   0  0  0  0  0  0  0  0  0  0  0  0
  148.3306  135.7227  163.1072 H   0  0  0  0  0  0  0  0  0  0  0  0
  148.5505  134.1963  162.2532 H   0  0  0  0  0  0  0  0  0  0  0  0
  147.7912  142.6010  156.3906 H   0  0  0  0  0  0  0  0  0  0  0  0
  146.1413  140.1282  155.6315 H   0  0  0  0  0  0  0  0  0  0  0  0
  145.6593  141.8080  155.4443 H   0  0  0  0  0  0  0  0  0  0  0  0
  145.8588  141.1254  157.0512 H   0  0  0  0  0  0  0  0  0  0  0  0
  148.7155  142.3519  154.2097 H   0  0  0  0  0  0  0  0  0  0  0  0
  146.8579  139.6081  152.6579 H   0  0  0  0  0  0  0  0  0  0  0  0
  147.2850  141.3081  152.4652 H   0  0  0  0  0  0  0  0  0  0  0  0
  146.2415  140.7998  153.8028 H   0  0  0  0  0  0  0  0  0  0  0  0
  1  2  1  0  0  0  0
  1 23  1  0  0  0  0
  1 24  1  0  0  0  0
  1 25  1  0  0  0  0
  2  3  1  0  0  0  0
  2 26  1  0  0  0  0
  2 27  1  0  0  0  0
  3 19  1  0  0  0  0
  3  4  1  0  0  0  0
  3  6  1  0  0  0  0
  4  5  1  0  0  0  0
  4 28  1  0  0  0  0
  4 29  1  0  0  0  0
  5 30  1  0  0  0  0
  5 31  1  0  0  0  0
  5 32  1  0  0  0  0
  6  7  1  0  0  0  0
  6 17  1  0  0  0  0
  6 33  1  0  0  0  0
  7  8  1  0  0  0  0
  7 34  1  0  0  0  0
  8  9  2  0  0  0  0
  8 10  1  0  0  0  0
 10 35  1  0  0  0  0
 10 36  1  0  0  0  0
 10 11  1  0  0  0  0
 11 16  1  0  0  0  0
 11 12  2  0  0  0  0
 12 13  1  0  0  0  0
 12 37  1  0  0  0  0
 13 14  1  0  0  0  0
 13 15  2  0  0  0  0
 14 38  1  0  0  0  0
 14 39  1  0  0  0  0
 14 40  1  0  0  0  0
 15 16  1  0  0  0  0
 16 22  1  0  0  0  0
 17 18  1  0  0  0  0
 17 19  1  0  0  0  0
 17 41  1  0  0  0  0
 18 42  1  0  0  0  0
 18 43  1  0  0  0  0
 18 44  1  0  0  0  0
 19 20  1  0  0  0  0
 19 45  1  0  0  0  0
 20 21  1  0  0  0  0
 21 46  1  0  0  0  0
 21 47  1  0  0  0  0
 21 48  1  0  0  0  0
M  END
> <s_m_source_file>
AV-unprocessed.smi

> <i_m_source_file_index>
2510

> <i_lp_mmshare_version>
43012

> <i_f3d_flags>
0

> <s_epik_input>
W0NIM11PW0NAQEhdMVtDQEhdKFtDSDNdKVtDQEBIXShDMShbQ0gyXVtDSDNdKVtDSDJdW0NIM10pW05IXUMoPU8pW0NIMl1jMltjSF1jKFtDSDNdKVtuSF1uMg==

> <s_epik_cmdline>
J2VwaWtfcHl0aG9uJywgJy1waCcsICc3LjAnLCAnLXRuJywgJzgnLCAnLW1hJywgJzIwMCcsICctbWV0YWxfYmluZGluZycsICctaW1hZScsICc8aW5maWxlLm1hZT4nLCAnLW9tYWUnLCAnPG91dGZpbGUubWFlPic=

> <r_lp_tautomer_probability>
0.5

> <r_epik_Ionization_Penalty>
0.000134763

> <r_epik_Ionization_Penalty_Charging>
0

> <r_epik_Ionization_Penalty_Neutral>
0.000134763

> <r_epik_State_Penalty>
0.41068

> <r_epik_Charging_Adjusted_Penalty>
0.41068

> <i_epik_Tot_Q>
0

> <i_epik_Tot_abs_Q>
0

> <r_epik_Metal_State_Penalty>
0.410661

> <b_epik_Metal_Only>
0

> <s_lp_Force_Field>
OPLS_2005

> <r_lp_Energy>
25.7229

> <b_lp_Chiralities_Consistent>
1

> <s_lp_Variant>
AV-unprocessed.smi:2510-16

> <Gold.Version>
5.8.1

> <Gold.Id.Protein>
6NUR|6NUR_protein|mol2

> <Gold.PLP.Fitness>
31.4693

> <Gold.PLP.PLP>
-29.8821

> <Gold.PLP.part.hbond>
-2.0000

> <Gold.PLP.part.metal>
0.0000

> <Gold.PLP.part.buried>
-3.5167

> <Gold.PLP.part.nonpolar>
-25.2250

> <Gold.PLP.part.repulsive>
0.5299

> <Gold.PLP.ligand.clash>
0.0000

> <Gold.PLP.ligand.torsion>
1.0243

> <Gold.PLP.Chemscore.Hbond>
1.0000

> <Gold.PLP.Chemscore.CHOScore>
0.0000

> <Gold.PLP.Chemscore.Metal>
0.0000

> <Gold.Chemscore.Hbonds>
donor molecule, donor type, donor heavy atom, donor atom, acceptor molecule, acceptor atom, score
      P1  H  6931  6943       L1    15  0.46

> <Gold.PLP.Chemscore.Internal.Correction>
0.6357

> <Gold.Rescore>
     Score         DG    S(hbond)    S(metal)    S(lipo)     H(rot)  DE(clash)    DE(int)     intcor
      8.15     -11.36       0.15        0.00      85.66       1.81       0.43       2.78       ----

> <Gold.Chemscore.Fitness>
8.1479

> <Gold.Chemscore.DG>
-11.3576

> <Gold.Chemscore.ZeroCoef>
-5.4800

> <Gold.Chemscore.Hbond>
0.1467

> <Gold.Chemscore.Metal>
0.0000

> <Gold.Chemscore.Lipo>
85.6554

> <Gold.Chemscore.Internal_Hbond>
0.0000

> <Gold.Chemscore.DEClash>
0.4251

> <Gold.Chemscore.DEInternal>
2.7847

> <Gold.Chemscore.Rot>
1.8102

> <Gold.Chemscore.Internal.Correction>
   9.000000E+99

> <Gold.Chemscore.Hbonds>
donor molecule, donor type, donor heavy atom, donor atom, acceptor molecule, acceptor atom, score
      P1  H  6931  6943       L1    15  0.02

> <Gold.Chemscore.Hbond.Weighted>
-0.4900

> <Gold.Chemscore.Metal.Weighted>
-0.0000

> <Gold.Chemscore.Lipo.Weighted>
-10.0217

> <Gold.Chemscore.Internal_Hbond.Weighted>
0.0000

> <Gold.Chemscore.DEClash.Weighted>
0.4251

> <Gold.Chemscore.DEInternal.Weighted>
2.7847

> <Gold.Chemscore.Rot.Weighted>
4.6341

> <Gold.Chemscore.Internal.Correction.Weighted>
   9.000000E+99

> <Gold.Protein.RotatedTorsions>
[ 6907 6896 6895 6894 ] final  114.80 input  -60.11 | X-H torsion
[ 7974 7965 7964 7962 ] final -101.75 input  175.53 | X-H torsion
[ 8008 7997 7996 7995 ] final  117.16 input   59.86 | X-H torsion
[ 10167 10162 10161 10158 ] final   99.40 input  -65.29 | X-H torsion
[ 10718 10713 10712 10709 ] final  -50.25 input   66.30 | X-H torsion
[ 10763 10752 10751 10750 ] final -119.31 input  -60.55 | X-H torsion
[ 11005 11000 10999 10996 ] final  -97.15 input  -57.11 | X-H torsion

> <Gold.Protein.ActiveResidues>
 VAL166  LYS551  ARG553  GLY616  TRP617  ASP618  TYR619  PRO620  LYS621  CYS622 
 ASP623  PHE694  ASN695  SER759  ASP760  ASP761  ALA762  ILE779  LEU786  VAL792 
 PHE793  MET794  SER795  GLU796  ALA797  LYS798  CYS799  TRP800  GLU811  SER814 

> <Gold.Protein.RotatedAtoms>
  152.4781  133.8187  159.7041 H   0  0  0  0  0  0  0  0  0  0  0  0  # atno 6907 bound_to 6896
  150.8811  133.7361  159.2938 H   0  0  0  0  0  0  0  0  0  0  0  0  # atno 6908 bound_to 6896
  151.4865  135.1059  159.9844 H   0  0  0  0  0  0  0  0  0  0  0  0  # atno 6909 bound_to 6896
  145.2776  140.9317  143.2950 H   0  0  0  0  0  0  0  0  0  0  0  0  # atno 7974 bound_to 7965
  156.2479  140.2902  156.0635 H   0  0  0  0  0  0  0  0  0  0  0  0  # atno 8008 bound_to 7997
  155.1749  140.0403  157.2888 H   0  0  0  0  0  0  0  0  0  0  0  0  # atno 8009 bound_to 7997
  154.6300  140.2497  155.7452 H   0  0  0  0  0  0  0  0  0  0  0  0  # atno 8010 bound_to 7997
  139.7621  144.6951  151.0277 H   0  0  0  0  0  0  0  0  0  0  0  0  # atno 10167 bound_to 10162
  156.1818  130.4150  149.9496 H   0  0  0  0  0  0  0  0  0  0  0  0  # atno 10718 bound_to 10713
  154.8613  135.4243  154.2278 H   0  0  0  0  0  0  0  0  0  0  0  0  # atno 10763 bound_to 10752
  153.3269  135.6985  153.6987 H   0  0  0  0  0  0  0  0  0  0  0  0  # atno 10764 bound_to 10752
  153.6019  135.3535  155.2922 H   0  0  0  0  0  0  0  0  0  0  0  0  # atno 10765 bound_to 10752
  141.1388  133.8150  157.0668 H   0  0  0  0  0  0  0  0  0  0  0  0  # atno 11005 bound_to 11000
  144.9281  139.4331  143.6508 LP  0  0  0  0  0  0  0  0  0  0  0  0  # atno 17320 bound_to 7965
  146.3227  139.8177  142.8933 LP  0  0  0  0  0  0  0  0  0  0  0  0  # atno 17321 bound_to 7965
  140.7808  143.4685  151.0179 LP  0  0  0  0  0  0  0  0  0  0  0  0  # atno 17342 bound_to 10162
  139.8371  143.7613  152.3180 LP  0  0  0  0  0  0  0  0  0  0  0  0  # atno 17343 bound_to 10162
  156.7264  130.9026  151.3622 LP  0  0  0  0  0  0  0  0  0  0  0  0  # atno 17370 bound_to 10713
  157.6873  130.9198  150.0420 LP  0  0  0  0  0  0  0  0  0  0  0  0  # atno 17371 bound_to 10713
  140.0537  134.9792  157.1181 LP  0  0  0  0  0  0  0  0  0  0  0  0  # atno 17394 bound_to 11000
  140.3952  134.2142  155.7165 LP  0  0  0  0  0  0  0  0  0  0  0  0  # atno 17395 bound_to 11000

$$$$
