AV-unprocessed.smi:1675|AV-procd|sdf|6718|dock3
  -GOLD-   22720 7463D 1   1.00000     0.00000
 Structure written by MMmdl.
 40 42  0  0  0  0  0  0  0  0  1 V2000
  152.3308  138.1630  157.8629 N   0  0  0  0  0  0  0  0  0  0  0  0
  152.2781  137.7092  156.6081 C   0  0  0  0  0  0  0  0  0  0  0  0
  152.0893  136.5233  156.3447 O   0  0  0  0  0  0  0  0  0  0  0  0
  152.4620  138.7332  155.4866 C   0  0  0  0  0  0  0  0  0  0  0  0
  151.2039  139.0084  154.8170 N   0  0  0  0  0  0  0  0  0  0  0  0
  150.4716  138.1680  154.0018 C   0  0  0  0  0  0  0  0  0  0  0  0
  149.3725  138.8850  153.6218 C   0  0  0  0  0  0  0  0  0  0  0  0
  148.2928  138.5011  152.7864 N   0  0  0  0  0  0  0  0  0  0  0  0
  147.2135  139.2324  152.4565 C   0  0  0  0  0  0  0  0  0  0  0  0
  147.0049  140.3776  152.8585 O   0  0  0  0  0  0  0  0  0  0  0  0
  146.2067  138.5381  151.5300 C   0  0  0  0  0  0  0  0  0  0  0  0
  145.6390  137.2105  152.0845 C   0  0  1  0  0  0  0  0  0  0  0  0
  144.1007  137.1997  152.2600 C   0  0  0  0  0  0  0  0  0  0  0  0
  143.6658  135.9624  151.4539 C   0  0  2  0  0  0  0  0  0  0  0  0
  144.1399  134.6853  152.1722 C   0  0  0  0  0  0  0  0  0  0  0  0
  145.6603  134.7027  151.9257 C   0  0  0  0  0  0  0  0  0  0  0  0
  145.8610  136.0102  151.1354 C   0  0  1  0  0  0  0  0  0  0  0  0
  144.6107  136.0268  150.2611 C   0  0  0  0  0  0  0  0  0  0  0  0
  149.5011  140.1513  154.2497 C   0  0  0  0  0  0  0  0  0  0  0  0
  150.6116  140.2199  154.9686 N   0  0  0  0  0  0  0  0  0  0  0  0
  152.2095  137.5219  158.6333 H   0  0  0  0  0  0  0  0  0  0  0  0
  152.4866  139.1452  158.0378 H   0  0  0  0  0  0  0  0  0  0  0  0
  152.8795  139.6646  155.8736 H   0  0  0  0  0  0  0  0  0  0  0  0
  153.1709  138.3453  154.7539 H   0  0  0  0  0  0  0  0  0  0  0  0
  150.7965  137.1625  153.7782 H   0  0  0  0  0  0  0  0  0  0  0  0
  148.3399  137.5665  152.4069 H   0  0  0  0  0  0  0  0  0  0  0  0
  145.3930  139.2307  151.3118 H   0  0  0  0  0  0  0  0  0  0  0  0
  146.7095  138.3469  150.5813 H   0  0  0  0  0  0  0  0  0  0  0  0
  146.1247  137.0019  153.0395 H   0  0  0  0  0  0  0  0  0  0  0  0
  143.8035  137.1391  153.3075 H   0  0  0  0  0  0  0  0  0  0  0  0
  143.6454  138.0979  151.8403 H   0  0  0  0  0  0  0  0  0  0  0  0
  142.6049  135.9548  151.2021 H   0  0  0  0  0  0  0  0  0  0  0  0
  143.8901  134.6932  153.2338 H   0  0  0  0  0  0  0  0  0  0  0  0
  143.6900  133.7964  151.7284 H   0  0  0  0  0  0  0  0  0  0  0  0
  146.2343  134.6803  152.8529 H   0  0  0  0  0  0  0  0  0  0  0  0
  145.9604  133.8407  151.3286 H   0  0  0  0  0  0  0  0  0  0  0  0
  146.8055  136.0434  150.5912 H   0  0  0  0  0  0  0  0  0  0  0  0
  144.5328  135.1613  149.6006 H   0  0  0  0  0  0  0  0  0  0  0  0
  144.5005  136.9368  149.6697 H   0  0  0  0  0  0  0  0  0  0  0  0
  148.8419  141.0057  154.2076 H   0  0  0  0  0  0  0  0  0  0  0  0
  1  2  1  0  0  0  0
  1 21  1  0  0  0  0
  1 22  1  0  0  0  0
  2  3  2  0  0  0  0
  2  4  1  0  0  0  0
  4  5  1  0  0  0  0
  4 23  1  0  0  0  0
  4 24  1  0  0  0  0
  5 20  1  0  0  0  0
  5  6  1  0  0  0  0
  6  7  2  0  0  0  0
  6 25  1  0  0  0  0
  7  8  1  0  0  0  0
  7 19  1  0  0  0  0
  8  9  1  0  0  0  0
  8 26  1  0  0  0  0
  9 10  2  0  0  0  0
  9 11  1  0  0  0  0
 11 12  1  0  0  0  0
 11 27  1  0  0  0  0
 11 28  1  0  0  0  0
 12 17  1  0  0  0  0
 12 13  1  0  0  0  0
 12 29  1  0  0  0  0
 13 14  1  0  0  0  0
 13 30  1  0  0  0  0
 13 31  1  0  0  0  0
 14 18  1  0  0  0  0
 14 15  1  0  0  0  0
 14 32  1  0  0  0  0
 15 16  1  0  0  0  0
 15 33  1  0  0  0  0
 15 34  1  0  0  0  0
 16 17  1  0  0  0  0
 16 35  1  0  0  0  0
 16 36  1  0  0  0  0
 17 18  1  0  0  0  0
 17 37  1  0  0  0  0
 18 38  1  0  0  0  0
 18 39  1  0  0  0  0
 19 20  2  0  0  0  0
 19 40  1  0  0  0  0
M  END
> <s_m_source_file>
AV-unprocessed.smi

> <i_m_source_file_index>
1675

> <i_lp_mmshare_version>
43012

> <i_f3d_flags>
0

> <s_epik_input>
W05IMl1DKD1PKVtDSDJdbjFbY0hdYyhbY0hdbjEpW05IXUMoPU8pW0NIMl1bQ0BIXShbQ0gyXVtDQEBIXTIzKVtDQEBIXShbQ0gyXTMpW0NIMl1bQ0gyXTI=

> <s_epik_cmdline>
J2VwaWtfcHl0aG9uJywgJy1waCcsICc3LjAnLCAnLXRuJywgJzgnLCAnLW1hJywgJzIwMCcsICctbWV0YWxfYmluZGluZycsICctaW1hZScsICc8aW5maWxlLm1hZT4nLCAnLW9tYWUnLCAnPG91dGZpbGUubWFlPic=

> <r_lp_tautomer_probability>
1

> <r_epik_Ionization_Penalty>
2.17494e-05

> <r_epik_Ionization_Penalty_Charging>
0

> <r_epik_Ionization_Penalty_Neutral>
2.17494e-05

> <r_epik_State_Penalty>
-0

> <r_epik_Charging_Adjusted_Penalty>
0

> <i_epik_Tot_Q>
0

> <i_epik_Tot_abs_Q>
0

> <r_epik_Metal_State_Penalty>
-0

> <b_epik_Metal_Only>
0

> <s_lp_Force_Field>
OPLS_2005

> <r_lp_Energy>
53.1529

> <b_lp_Chiralities_Consistent>
1

> <s_lp_Variant>
AV-unprocessed.smi:1675-4

> <Gold.Version>
5.8.1

> <Gold.Id.Protein>
6NUR|6NUR_protein|mol2

> <Gold.PLP.Fitness>
41.0016

> <Gold.PLP.PLP>
-33.5844

> <Gold.PLP.part.hbond>
-3.7838

> <Gold.PLP.part.metal>
0.0000

> <Gold.PLP.part.buried>
3.6964

> <Gold.PLP.part.nonpolar>
-33.6775

> <Gold.PLP.part.repulsive>
0.4102

> <Gold.PLP.ligand.clash>
0.0000

> <Gold.PLP.ligand.torsion>
0.9859

> <Gold.PLP.Chemscore.Hbond>
2.1900

> <Gold.PLP.Chemscore.CHOScore>
0.9256

> <Gold.PLP.Chemscore.Metal>
0.0000

> <Gold.Chemscore.Hbonds>
donor molecule, donor type, donor heavy atom, donor atom, acceptor molecule, acceptor atom, score
      L1  H     8    26       P1  7948  1.00
      P1  H  7989  7998       L1    20  0.29
      P1  H 10752 10765       L1     3  1.00
      L1  C     6    25       P1  7948  0.10
      L1  C     6    25       P1  7949  0.72

> <Gold.PLP.Chemscore.Internal.Correction>
0.0423

> <Gold.Rescore>
     Score         DG    S(hbond)    S(metal)    S(lipo)     H(rot)  DE(clash)    DE(int)     intcor
     11.45     -15.29       1.98        0.00      74.40       2.15       1.62       2.21       ----

> <Gold.Chemscore.Fitness>
11.4533

> <Gold.Chemscore.DG>
-15.2854

> <Gold.Chemscore.ZeroCoef>
-5.4800

> <Gold.Chemscore.Hbond>
1.9764

> <Gold.Chemscore.Metal>
0.0000

> <Gold.Chemscore.Lipo>
74.3994

> <Gold.Chemscore.Internal_Hbond>
0.0000

> <Gold.Chemscore.DEClash>
1.6228

> <Gold.Chemscore.DEInternal>
2.2093

> <Gold.Chemscore.Rot>
2.1486

> <Gold.Chemscore.Internal.Correction>
   9.000000E+99

> <Gold.Chemscore.Hbonds>
donor molecule, donor type, donor heavy atom, donor atom, acceptor molecule, acceptor atom, score
      L1  H     8    26       P1  7948  0.94
      P1  H 10752 10765       L1     3  0.94

> <Gold.Chemscore.Hbond.Weighted>
-6.6010

> <Gold.Chemscore.Metal.Weighted>
-0.0000

> <Gold.Chemscore.Lipo.Weighted>
-8.7047

> <Gold.Chemscore.Internal_Hbond.Weighted>
0.0000

> <Gold.Chemscore.DEClash.Weighted>
1.6228

> <Gold.Chemscore.DEInternal.Weighted>
2.2093

> <Gold.Chemscore.Rot.Weighted>
5.5004

> <Gold.Chemscore.Internal.Correction.Weighted>
   9.000000E+99

> <Gold.Protein.RotatedTorsions>
[ 6907 6896 6895 6894 ] final  152.05 input  -60.11 | X-H torsion
[ 7974 7965 7964 7962 ] final -121.43 input  175.53 | X-H torsion
[ 8008 7997 7996 7995 ] final  -45.73 input   59.86 | X-H torsion
[ 10167 10162 10161 10158 ] final -143.72 input  -65.29 | X-H torsion
[ 10718 10713 10712 10709 ] final   67.47 input   66.30 | X-H torsion
[ 10763 10752 10751 10750 ] final -134.07 input  -60.55 | X-H torsion
[ 11005 11000 10999 10996 ] final   -8.64 input  -57.11 | X-H torsion

> <Gold.Protein.ActiveResidues>
 VAL166  LYS551  ARG553  GLY616  TRP617  ASP618  TYR619  PRO620  LYS621  CYS622 
 ASP623  PHE694  ASN695  SER759  ASP760  ASP761  ALA762  ILE779  LEU786  VAL792 
 PHE793  MET794  SER795  GLU796  ALA797  LYS798  CYS799  TRP800  GLU811  SER814 

> <Gold.Protein.RotatedAtoms>
  152.0921  133.4206  159.4548 H   0  0  0  0  0  0  0  0  0  0  0  0  # atno 6907 bound_to 6896
  150.6862  134.2859  159.4656 H   0  0  0  0  0  0  0  0  0  0  0  0  # atno 6908 bound_to 6896
  152.0711  134.9532  160.0625 H   0  0  0  0  0  0  0  0  0  0  0  0  # atno 6909 bound_to 6896
  145.0405  140.8140  143.4269 H   0  0  0  0  0  0  0  0  0  0  0  0  # atno 7974 bound_to 7965
  154.4002  140.1389  156.3895 H   0  0  0  0  0  0  0  0  0  0  0  0  # atno 8008 bound_to 7997
  155.7927  140.3478  155.5338 H   0  0  0  0  0  0  0  0  0  0  0  0  # atno 8009 bound_to 7997
  155.8563  140.0949  157.1633 H   0  0  0  0  0  0  0  0  0  0  0  0  # atno 8010 bound_to 7997
  139.7966  143.7891  152.2655 H   0  0  0  0  0  0  0  0  0  0  0  0  # atno 10167 bound_to 10162
  157.6232  130.9322  150.0246 H   0  0  0  0  0  0  0  0  0  0  0  0  # atno 10718 bound_to 10713
  154.8724  135.3746  154.4675 H   0  0  0  0  0  0  0  0  0  0  0  0  # atno 10763 bound_to 10752
  153.5338  135.7027  153.5675 H   0  0  0  0  0  0  0  0  0  0  0  0  # atno 10764 bound_to 10752
  153.3867  135.3982  155.1860 H   0  0  0  0  0  0  0  0  0  0  0  0  # atno 10765 bound_to 10752
  140.7257  133.8791  155.8854 H   0  0  0  0  0  0  0  0  0  0  0  0  # atno 11005 bound_to 11000
  145.1654  139.2434  143.5370 LP  0  0  0  0  0  0  0  0  0  0  0  0  # atno 17320 bound_to 7965
  146.3509  140.1392  142.8595 LP  0  0  0  0  0  0  0  0  0  0  0  0  # atno 17321 bound_to 7965
  139.7998  144.7378  150.9840 LP  0  0  0  0  0  0  0  0  0  0  0  0  # atno 17342 bound_to 10162
  140.7820  143.4356  151.0628 LP  0  0  0  0  0  0  0  0  0  0  0  0  # atno 17343 bound_to 10162
  156.1389  130.3642  149.9614 LP  0  0  0  0  0  0  0  0  0  0  0  0  # atno 17370 bound_to 10713
  156.7659  130.9168  151.3643 LP  0  0  0  0  0  0  0  0  0  0  0  0  # atno 17371 bound_to 10713
  140.9965  134.1208  157.4358 LP  0  0  0  0  0  0  0  0  0  0  0  0  # atno 17394 bound_to 11000
  139.8838  135.0056  156.6323 LP  0  0  0  0  0  0  0  0  0  0  0  0  # atno 17395 bound_to 11000

$$$$
