AV-unprocessed.smi:245|AV-procd|sdf|1876|dock6
  -GOLD-   2262020513D 1   1.00000     0.00000
 Structure written by MMmdl.
 54 58  0  0  0  0  0  0  0  0  1 V2000
  147.0218  142.6405  154.1824 O   0  0  0  0  0  0  0  0  0  0  0  0
  147.5172  141.6618  154.7363 C   0  0  0  0  0  0  0  0  0  0  0  0
  147.0702  140.2487  154.3218 C   0  0  0  0  0  0  0  0  0  0  0  0
  147.8148  139.1274  154.9269 N   0  0  0  0  0  0  0  0  0  0  0  0
  147.5035  137.8488  154.5369 C   0  0  0  0  0  0  0  0  0  0  0  0
  148.3206  136.8335  154.9312 N   0  0  0  0  0  0  0  0  0  0  0  0
  148.0780  135.5680  154.5869 C   0  0  0  0  0  0  0  0  0  0  0  0
  147.0766  135.0846  153.8562 N   0  0  0  0  0  0  0  0  0  0  0  0
  146.2376  136.0791  153.4507 C   0  0  0  0  0  0  0  0  0  0  0  0
  146.3714  137.4715  153.7410 C   0  0  0  0  0  0  0  0  0  0  0  0
  145.3129  138.1567  153.1501 N   0  0  0  0  0  0  0  0  0  0  0  0
  144.6076  137.2375  152.5535 C   0  0  0  0  0  0  0  0  0  0  0  0
  145.0902  135.9573  152.6816 N   0  0  0  0  0  0  0  0  0  0  0  0
  144.5056  134.7676  152.1273 C   0  0  0  0  0  0  0  0  0  0  0  0
  145.2810  133.4491  152.0822 C   0  0  0  0  0  0  0  0  0  0  0  0
  144.6673  133.1202  150.7026 C   0  0  0  0  0  0  0  0  0  0  0  0
  145.6741  132.6668  149.6343 C   0  0  0  0  0  0  0  0  0  0  0  0
  146.1924  131.3834  149.9208 O   0  0  0  0  0  0  0  0  0  0  0  0
  143.4929  132.1177  150.6807 C   0  0  0  0  0  0  0  0  0  0  0  0
  142.7862  132.1180  149.4562 O   0  0  0  0  0  0  0  0  0  0  0  0
  144.2872  134.6165  150.6196 C   0  0  0  0  0  0  0  0  0  0  0  0
  149.1324  139.4102  155.5226 C   0  0  1  0  0  0  0  0  0  0  0  0
  150.2286  139.5472  154.4367 C   0  0  0  0  0  0  0  0  0  0  0  0
  151.5898  139.9152  155.0458 C   0  0  0  0  0  0  0  0  0  0  0  0
  151.4930  141.1981  155.8840 C   0  0  0  0  0  0  0  0  0  0  0  0
  150.4262  141.0576  156.9821 C   0  0  0  0  0  0  0  0  0  0  0  0
  149.0471  140.6734  156.4104 C   0  0  1  0  0  0  0  0  0  0  0  0
  148.4531  141.7920  155.6875 N   0  0  0  0  0  0  0  0  0  0  0  0
  146.0225  140.1747  154.6120 H   0  0  0  0  0  0  0  0  0  0  0  0
  147.1256  140.1801  153.2344 H   0  0  0  0  0  0  0  0  0  0  0  0
  148.7882  134.8397  154.9493 H   0  0  0  0  0  0  0  0  0  0  0  0
  143.7095  137.4733  152.0010 H   0  0  0  0  0  0  0  0  0  0  0  0
  143.5602  134.6189  152.6512 H   0  0  0  0  0  0  0  0  0  0  0  0
  146.3615  133.5926  152.0407 H   0  0  0  0  0  0  0  0  0  0  0  0
  145.0170  132.7492  152.8757 H   0  0  0  0  0  0  0  0  0  0  0  0
  145.2188  132.6519  148.6434 H   0  0  0  0  0  0  0  0  0  0  0  0
  146.5156  133.3582  149.5761 H   0  0  0  0  0  0  0  0  0  0  0  0
  147.1355  131.4224  149.8708 H   0  0  0  0  0  0  0  0  0  0  0  0
  143.8486  131.1022  150.8579 H   0  0  0  0  0  0  0  0  0  0  0  0
  142.7745  132.3395  151.4705 H   0  0  0  0  0  0  0  0  0  0  0  0
  142.2395  132.8881  149.4260 H   0  0  0  0  0  0  0  0  0  0  0  0
  143.2641  134.8108  150.2966 H   0  0  0  0  0  0  0  0  0  0  0  0
  144.9915  135.2030  150.0286 H   0  0  0  0  0  0  0  0  0  0  0  0
  149.4227  138.6079  156.2024 H   0  0  0  0  0  0  0  0  0  0  0  0
  150.3242  138.6153  153.8791 H   0  0  0  0  0  0  0  0  0  0  0  0
  149.9474  140.3074  153.7072 H   0  0  0  0  0  0  0  0  0  0  0  0
  151.9454  139.0944  155.6701 H   0  0  0  0  0  0  0  0  0  0  0  0
  152.3275  140.0438  154.2533 H   0  0  0  0  0  0  0  0  0  0  0  0
  152.4609  141.4206  156.3342 H   0  0  0  0  0  0  0  0  0  0  0  0
  151.2524  142.0427  155.2374 H   0  0  0  0  0  0  0  0  0  0  0  0
  150.7445  140.2919  157.6907 H   0  0  0  0  0  0  0  0  0  0  0  0
  150.3535  141.9848  157.5519 H   0  0  0  0  0  0  0  0  0  0  0  0
  148.3801  140.4640  157.2484 H   0  0  0  0  0  0  0  0  0  0  0  0
  148.7513  142.7220  155.9436 H   0  0  0  0  0  0  0  0  0  0  0  0
  1  2  2  0  0  0  0
  2 28  1  0  0  0  0
  2  3  1  0  0  0  0
  3  4  1  0  0  0  0
  3 29  1  0  0  0  0
  3 30  1  0  0  0  0
  4  5  1  0  0  0  0
  4 22  1  0  0  0  0
  5 10  1  0  0  0  0
  5  6  2  0  0  0  0
  6  7  1  0  0  0  0
  7  8  2  0  0  0  0
  7 31  1  0  0  0  0
  8  9  1  0  0  0  0
  9 13  1  0  0  0  0
  9 10  2  0  0  0  0
 10 11  1  0  0  0  0
 11 12  2  0  0  0  0
 12 13  1  0  0  0  0
 12 32  1  0  0  0  0
 13 14  1  0  0  0  0
 14 21  1  0  0  0  0
 14 15  1  0  0  0  0
 14 33  1  0  0  0  0
 15 16  1  0  0  0  0
 15 34  1  0  0  0  0
 15 35  1  0  0  0  0
 16 17  1  0  0  0  0
 16 19  1  0  0  0  0
 16 21  1  0  0  0  0
 17 18  1  0  0  0  0
 17 36  1  0  0  0  0
 17 37  1  0  0  0  0
 18 38  1  0  0  0  0
 19 20  1  0  0  0  0
 19 39  1  0  0  0  0
 19 40  1  0  0  0  0
 20 41  1  0  0  0  0
 21 42  1  0  0  0  0
 21 43  1  0  0  0  0
 22 27  1  0  0  0  0
 22 23  1  0  0  0  0
 22 44  1  0  0  0  0
 23 24  1  0  0  0  0
 23 45  1  0  0  0  0
 23 46  1  0  0  0  0
 24 25  1  0  0  0  0
 24 47  1  0  0  0  0
 24 48  1  0  0  0  0
 25 26  1  0  0  0  0
 25 49  1  0  0  0  0
 25 50  1  0  0  0  0
 26 27  1  0  0  0  0
 26 51  1  0  0  0  0
 26 52  1  0  0  0  0
 27 28  1  0  0  0  0
 27 53  1  0  0  0  0
 28 54  1  0  0  0  0
M  END
> <s_m_source_file>
AV-unprocessed.smi

> <i_m_source_file_index>
245

> <i_lp_mmshare_version>
43012

> <i_f3d_flags>
0

> <s_epik_input>
W0NIMl0xW0NIMl1bQ0gyXVtDSDJdW0NASF0oW0NASF0xMilbTkhdQyg9TylbQ0gyXU4yYyhuW2NIXW4zKWMoYzM0KW5bY0hdbjRbQ0hdKFtDSDJdNSlbQ0gyXUM1KFtDSDJdW09IXSlbQ0gyXVtPSF0=

> <s_epik_cmdline>
J2VwaWtfcHl0aG9uJywgJy1waCcsICc3LjAnLCAnLXRuJywgJzgnLCAnLW1hJywgJzIwMCcsICctbWV0YWxfYmluZGluZycsICctaW1hZScsICc8aW5maWxlLm1hZT4nLCAnLW9tYWUnLCAnPG91dGZpbGUubWFlPic=

> <r_lp_tautomer_probability>
1

> <r_epik_Ionization_Penalty>
0.000702616

> <r_epik_Ionization_Penalty_Charging>
0

> <r_epik_Ionization_Penalty_Neutral>
0.000702616

> <r_epik_State_Penalty>
0.000343985

> <r_epik_Charging_Adjusted_Penalty>
0.000343985

> <i_epik_Tot_Q>
0

> <i_epik_Tot_abs_Q>
0

> <r_epik_Metal_State_Penalty>
-0

> <b_epik_Metal_Only>
0

> <s_lp_Force_Field>
OPLS_2005

> <r_lp_Energy>
53.0031

> <b_lp_Chiralities_Consistent>
1

> <s_lp_Variant>
AV-unprocessed.smi:245-1

> <Gold.Version>
5.8.1

> <Gold.Id.Protein>
6NUR|6NUR_protein|mol2

> <Gold.PLP.Fitness>
50.7520

> <Gold.PLP.PLP>
-36.8055

> <Gold.PLP.part.hbond>
-4.9364

> <Gold.PLP.part.metal>
0.0000

> <Gold.PLP.part.buried>
-6.2625

> <Gold.PLP.part.nonpolar>
-28.0609

> <Gold.PLP.part.repulsive>
2.2270

> <Gold.PLP.ligand.clash>
0.0000

> <Gold.PLP.ligand.torsion>
0.3366

> <Gold.PLP.Chemscore.Hbond>
3.7138

> <Gold.PLP.Chemscore.CHOScore>
1.0000

> <Gold.PLP.Chemscore.Metal>
0.0000

> <Gold.Chemscore.Hbonds>
donor molecule, donor type, donor heavy atom, donor atom, acceptor molecule, acceptor atom, score
      L1  H    18    38       P1 10747  1.00
      L1  H    20    41       P1 10186  1.00
      L1  H    28    54       P1  8028  1.00
      P1  H 10785 10796       L1    20  0.73
      L1  C    12    32       P1 10171  0.82

> <Gold.PLP.Chemscore.Internal.Correction>
0.4784

> <Gold.Rescore>
     Score         DG    S(hbond)    S(metal)    S(lipo)     H(rot)  DE(clash)    DE(int)     intcor
     15.37     -18.99       3.48        0.00      79.95       2.91       1.14       2.48       ----

> <Gold.Chemscore.Fitness>
15.3650

> <Gold.Chemscore.DG>
-18.9867

> <Gold.Chemscore.ZeroCoef>
-5.4800

> <Gold.Chemscore.Hbond>
3.4773

> <Gold.Chemscore.Metal>
0.0000

> <Gold.Chemscore.Lipo>
79.9503

> <Gold.Chemscore.Internal_Hbond>
0.0000

> <Gold.Chemscore.DEClash>
1.1443

> <Gold.Chemscore.DEInternal>
2.4773

> <Gold.Chemscore.Rot>
2.9147

> <Gold.Chemscore.Internal.Correction>
   9.000000E+99

> <Gold.Chemscore.Hbonds>
donor molecule, donor type, donor heavy atom, donor atom, acceptor molecule, acceptor atom, score
      L1  H    18    38       P1 10747  0.97
      L1  H    20    41       P1 10186  0.99
      L1  H    28    54       P1  8028  0.92
      P1  H 10785 10796       L1    20  0.22

> <Gold.Chemscore.Hbond.Weighted>
-11.6142

> <Gold.Chemscore.Metal.Weighted>
-0.0000

> <Gold.Chemscore.Lipo.Weighted>
-9.3542

> <Gold.Chemscore.Internal_Hbond.Weighted>
0.0000

> <Gold.Chemscore.DEClash.Weighted>
1.1443

> <Gold.Chemscore.DEInternal.Weighted>
2.4773

> <Gold.Chemscore.Rot.Weighted>
7.4617

> <Gold.Chemscore.Internal.Correction.Weighted>
   9.000000E+99

> <Gold.Protein.RotatedTorsions>
[ 6907 6896 6895 6894 ] final  111.46 input  -60.11 | X-H torsion
[ 7974 7965 7964 7962 ] final  -46.66 input  175.53 | X-H torsion
[ 8008 7997 7996 7995 ] final -170.53 input   59.86 | X-H torsion
[ 10167 10162 10161 10158 ] final   73.73 input  -65.29 | X-H torsion
[ 10718 10713 10712 10709 ] final  170.78 input   66.30 | X-H torsion
[ 10763 10752 10751 10750 ] final  169.38 input  -60.55 | X-H torsion
[ 11005 11000 10999 10996 ] final   24.36 input  -57.11 | X-H torsion

> <Gold.Protein.ActiveResidues>
 VAL166  LYS551  ARG553  GLY616  TRP617  ASP618  TYR619  PRO620  LYS621  CYS622 
 ASP623  PHE694  ASN695  SER759  ASP760  ASP761  ALA762  ILE779  LEU786  VAL792 
 PHE793  MET794  SER795  GLU796  ALA797  LYS798  CYS799  TRP800  GLU811  SER814 

> <Gold.Protein.RotatedAtoms>
  152.4968  133.8654  159.7271 H   0  0  0  0  0  0  0  0  0  0  0  0  # atno 6907 bound_to 6896
  150.9154  133.6936  159.2851 H   0  0  0  0  0  0  0  0  0  0  0  0  # atno 6908 bound_to 6896
  151.4331  135.1016  159.9700 H   0  0  0  0  0  0  0  0  0  0  0  0  # atno 6909 bound_to 6896
  145.9696  140.7397  142.9417 H   0  0  0  0  0  0  0  0  0  0  0  0  # atno 7974 bound_to 7965
  155.9196  140.1072  157.1217 H   0  0  0  0  0  0  0  0  0  0  0  0  # atno 8008 bound_to 7997
  154.4052  140.1258  156.4727 H   0  0  0  0  0  0  0  0  0  0  0  0  # atno 8009 bound_to 7997
  155.7212  140.3470  155.5019 H   0  0  0  0  0  0  0  0  0  0  0  0  # atno 8010 bound_to 7997
  140.0213  144.5538  150.7579 H   0  0  0  0  0  0  0  0  0  0  0  0  # atno 10167 bound_to 10162
  157.0031  131.0182  151.2825 H   0  0  0  0  0  0  0  0  0  0  0  0  # atno 10718 bound_to 10713
  154.3824  135.2753  155.2204 H   0  0  0  0  0  0  0  0  0  0  0  0  # atno 10763 bound_to 10752
  154.4305  135.5978  153.6069 H   0  0  0  0  0  0  0  0  0  0  0  0  # atno 10764 bound_to 10752
  152.9834  135.5994  154.4068 H   0  0  0  0  0  0  0  0  0  0  0  0  # atno 10765 bound_to 10752
  140.3595  134.2141  155.7673 H   0  0  0  0  0  0  0  0  0  0  0  0  # atno 11005 bound_to 11000
  144.6833  140.2726  143.7303 LP  0  0  0  0  0  0  0  0  0  0  0  0  # atno 17320 bound_to 7965
  145.7925  139.1932  143.2094 LP  0  0  0  0  0  0  0  0  0  0  0  0  # atno 17321 bound_to 7965
  140.7341  143.2725  151.3844 LP  0  0  0  0  0  0  0  0  0  0  0  0  # atno 17342 bound_to 10162
  139.6138  144.1045  152.2325 LP  0  0  0  0  0  0  0  0  0  0  0  0  # atno 17343 bound_to 10162
  157.5376  130.8099  149.7990 LP  0  0  0  0  0  0  0  0  0  0  0  0  # atno 17370 bound_to 10713
  156.0164  130.3812  150.2099 LP  0  0  0  0  0  0  0  0  0  0  0  0  # atno 17371 bound_to 10713
  141.1988  133.8026  157.0564 LP  0  0  0  0  0  0  0  0  0  0  0  0  # atno 17394 bound_to 11000
  140.0638  134.9740  157.1350 LP  0  0  0  0  0  0  0  0  0  0  0  0  # atno 17395 bound_to 11000

$$$$
