AV-unprocessed.smi:1196|AV-procd|sdf|4997|dock3
  -GOLD-   22720 4 03D 1   1.00000     0.00000
 Structure written by MMmdl.
 37 38  0  0  0  0  0  0  0  0  1 V2000
  152.1909  144.3934  156.5802 C   0  0  0  0  0  0  0  0  0  0  0  0
  151.6533  143.1856  157.3638 C   0  0  1  0  0  0  0  0  0  0  0  0
  151.2407  143.5817  158.7948 C   0  0  0  0  0  0  0  0  0  0  0  0
  152.0798  142.9595  159.8039 N   0  0  0  0  0  0  0  0  0  0  0  0
  153.2097  142.1908  159.6205 C   0  0  0  0  0  0  0  0  0  0  0  0
  153.6539  141.8200  160.8573 C   0  0  0  0  0  0  0  0  0  0  0  0
  152.7176  142.4185  161.7462 C   0  0  0  0  0  0  0  0  0  0  0  0
  151.7759  143.0994  161.1129 N   0  0  0  0  0  0  0  0  0  0  0  0
  150.5154  142.5986  156.6595 N   0  0  0  0  0  0  0  0  0  0  0  0
  150.5489  141.4842  155.9134 C   0  0  0  0  0  0  0  0  0  0  0  0
  151.5740  140.8310  155.7176 O   0  0  0  0  0  0  0  0  0  0  0  0
  149.2173  141.0383  155.3046 C   0  0  0  0  0  0  0  0  0  0  0  0
  149.3506  139.7602  154.4555 C   0  0  0  0  0  0  0  0  0  0  0  0
  147.9942  139.0920  154.1591 C   0  0  2  0  0  0  0  0  0  0  0  0
  147.9545  138.4533  152.8545 N   0  0  0  0  0  0  0  0  0  0  0  0
  146.9985  138.9608  152.0645 C   0  0  0  0  0  0  0  0  0  0  0  0
  146.7456  138.6033  150.9165 O   0  0  0  0  0  0  0  0  0  0  0  0
  146.3694  139.9248  152.7451 N   0  0  0  0  0  0  0  0  0  0  0  0
  146.8714  140.0957  153.9668 C   0  0  0  0  0  0  0  0  0  0  0  0
  146.5085  140.9148  154.8086 O   0  0  0  0  0  0  0  0  0  0  0  0
  153.0483  144.8379  157.0862 H   0  0  0  0  0  0  0  0  0  0  0  0
  151.4302  145.1673  156.4724 H   0  0  0  0  0  0  0  0  0  0  0  0
  152.5163  144.1043  155.5804 H   0  0  0  0  0  0  0  0  0  0  0  0
  152.4518  142.4446  157.4362 H   0  0  0  0  0  0  0  0  0  0  0  0
  151.3172  144.6625  158.9195 H   0  0  0  0  0  0  0  0  0  0  0  0
  150.1978  143.3211  158.9839 H   0  0  0  0  0  0  0  0  0  0  0  0
  153.5972  141.9726  158.6362 H   0  0  0  0  0  0  0  0  0  0  0  0
  154.5158  141.2131  161.0916 H   0  0  0  0  0  0  0  0  0  0  0  0
  152.6941  142.3782  162.8253 H   0  0  0  0  0  0  0  0  0  0  0  0
  149.6263  143.0641  156.7717 H   0  0  0  0  0  0  0  0  0  0  0  0
  148.5094  140.8796  156.1186 H   0  0  0  0  0  0  0  0  0  0  0  0
  148.8111  141.8432  154.6898 H   0  0  0  0  0  0  0  0  0  0  0  0
  149.8367  140.0086  153.5102 H   0  0  0  0  0  0  0  0  0  0  0  0
  150.0097  139.0496  154.9582 H   0  0  0  0  0  0  0  0  0  0  0  0
  147.7240  138.3756  154.9358 H   0  0  0  0  0  0  0  0  0  0  0  0
  148.5817  137.7085  152.5873 H   0  0  0  0  0  0  0  0  0  0  0  0
  145.6060  140.4694  152.3709 H   0  0  0  0  0  0  0  0  0  0  0  0
  1  2  1  0  0  0  0
  1 21  1  0  0  0  0
  1 22  1  0  0  0  0
  1 23  1  0  0  0  0
  2  3  1  0  0  0  0
  2  9  1  0  0  0  0
  2 24  1  0  0  0  0
  3  4  1  0  0  0  0
  3 25  1  0  0  0  0
  3 26  1  0  0  0  0
  4  8  1  0  0  0  0
  4  5  1  0  0  0  0
  5  6  2  0  0  0  0
  5 27  1  0  0  0  0
  6  7  1  0  0  0  0
  6 28  1  0  0  0  0
  7  8  2  0  0  0  0
  7 29  1  0  0  0  0
  9 10  1  0  0  0  0
  9 30  1  0  0  0  0
 10 11  2  0  0  0  0
 10 12  1  0  0  0  0
 12 13  1  0  0  0  0
 12 31  1  0  0  0  0
 12 32  1  0  0  0  0
 13 14  1  0  0  0  0
 13 33  1  0  0  0  0
 13 34  1  0  0  0  0
 14 19  1  0  0  0  0
 14 15  1  0  0  0  0
 14 35  1  0  0  0  0
 15 16  1  0  0  0  0
 15 36  1  0  0  0  0
 16 17  2  0  0  0  0
 16 18  1  0  0  0  0
 18 19  1  0  0  0  0
 18 37  1  0  0  0  0
 19 20  2  0  0  0  0
M  END
> <s_m_source_file>
AV-unprocessed.smi

> <i_m_source_file_index>
1196

> <i_lp_mmshare_version>
43012

> <i_f3d_flags>
0

> <s_epik_input>
bjFbY0hdW2NIXVtjSF1uMVtDSDJdW0NAQEhdKFtDSDNdKVtOSF1DKD1PKVtDSDJdW0NIMl1bQ0BASF0yW05IXUMoPU8pW05IXUMyPU8=

> <s_epik_cmdline>
J2VwaWtfcHl0aG9uJywgJy1waCcsICc3LjAnLCAnLXRuJywgJzgnLCAnLW1hJywgJzIwMCcsICctbWV0YWxfYmluZGluZycsICctaW1hZScsICc8aW5maWxlLm1hZT4nLCAnLW9tYWUnLCAnPG91dGZpbGUubWFlPic=

> <r_lp_tautomer_probability>
1

> <r_epik_Ionization_Penalty>
0.00815973

> <r_epik_Ionization_Penalty_Charging>
0

> <r_epik_Ionization_Penalty_Neutral>
0.00815973

> <r_epik_State_Penalty>
0.00583796

> <r_epik_Charging_Adjusted_Penalty>
0.00583796

> <i_epik_Tot_Q>
0

> <i_epik_Tot_abs_Q>
0

> <r_epik_Metal_State_Penalty>
0.409204

> <b_epik_Metal_Only>
0

> <s_lp_Force_Field>
OPLS_2005

> <r_lp_Energy>
16.5203

> <b_lp_Chiralities_Consistent>
1

> <s_lp_Variant>
AV-unprocessed.smi:1196-2

> <Gold.Version>
5.8.1

> <Gold.Id.Protein>
6NUR|6NUR_protein|mol2

> <Gold.PLP.Fitness>
49.3153

> <Gold.PLP.PLP>
-41.0275

> <Gold.PLP.part.hbond>
-6.5482

> <Gold.PLP.part.metal>
0.0000

> <Gold.PLP.part.buried>
-4.4637

> <Gold.PLP.part.nonpolar>
-29.9697

> <Gold.PLP.part.repulsive>
0.7348

> <Gold.PLP.ligand.clash>
0.0000

> <Gold.PLP.ligand.torsion>
1.4055

> <Gold.PLP.Chemscore.Hbond>
3.6797

> <Gold.PLP.Chemscore.CHOScore>
0.0000

> <Gold.PLP.Chemscore.Metal>
0.0000

> <Gold.Chemscore.Hbonds>
donor molecule, donor type, donor heavy atom, donor atom, acceptor molecule, acceptor atom, score
      L1  H     9    30       P1  8028  0.43
      L1  H    15    36       P1  7948  1.00
      L1  H    18    37       P1 10175  0.77
      P1  H  7954  7966       L1    17  0.96
      P1  H  7989  7998       L1    11  0.36

> <Gold.PLP.Chemscore.Internal.Correction>
0.0596

> <Gold.Rescore>
     Score         DG    S(hbond)    S(metal)    S(lipo)     H(rot)  DE(clash)    DE(int)     intcor
     13.38     -18.77       3.20        0.00      86.84       2.96       2.49       2.90       ----

> <Gold.Chemscore.Fitness>
13.3774

> <Gold.Chemscore.DG>
-18.7653

> <Gold.Chemscore.ZeroCoef>
-5.4800

> <Gold.Chemscore.Hbond>
3.2026

> <Gold.Chemscore.Metal>
0.0000

> <Gold.Chemscore.Lipo>
86.8374

> <Gold.Chemscore.Internal_Hbond>
0.0000

> <Gold.Chemscore.DEClash>
2.4854

> <Gold.Chemscore.DEInternal>
2.9025

> <Gold.Chemscore.Rot>
2.9575

> <Gold.Chemscore.Internal.Correction>
   9.000000E+99

> <Gold.Chemscore.Hbonds>
donor molecule, donor type, donor heavy atom, donor atom, acceptor molecule, acceptor atom, score
      L1  H     9    30       P1  8028  0.43
      L1  H    15    36       P1  7948  0.97
      L1  H    18    37       P1 10175  0.31
      P1  H  7954  7966       L1    17  0.88
      P1  H  7989  7998       L1    11  0.09

> <Gold.Chemscore.Hbond.Weighted>
-10.6967

> <Gold.Chemscore.Metal.Weighted>
-0.0000

> <Gold.Chemscore.Lipo.Weighted>
-10.1600

> <Gold.Chemscore.Internal_Hbond.Weighted>
0.0000

> <Gold.Chemscore.DEClash.Weighted>
2.4854

> <Gold.Chemscore.DEInternal.Weighted>
2.9025

> <Gold.Chemscore.Rot.Weighted>
7.5713

> <Gold.Chemscore.Internal.Correction.Weighted>
   9.000000E+99

> <Gold.Protein.RotatedTorsions>
[ 6907 6896 6895 6894 ] final  -59.23 input  -60.11 | X-H torsion
[ 7974 7965 7964 7962 ] final -120.49 input  175.53 | X-H torsion
[ 8008 7997 7996 7995 ] final  102.86 input   59.86 | X-H torsion
[ 10167 10162 10161 10158 ] final -170.37 input  -65.29 | X-H torsion
[ 10718 10713 10712 10709 ] final   66.41 input   66.30 | X-H torsion
[ 10763 10752 10751 10750 ] final  106.60 input  -60.55 | X-H torsion
[ 11005 11000 10999 10996 ] final -119.43 input  -57.11 | X-H torsion

> <Gold.Protein.ActiveResidues>
 VAL166  LYS551  ARG553  GLY616  TRP617  ASP618  TYR619  PRO620  LYS621  CYS622 
 ASP623  PHE694  ASN695  SER759  ASP760  ASP761  ALA762  ILE779  LEU786  VAL792 
 PHE793  MET794  SER795  GLU796  ALA797  LYS798  CYS799  TRP800  GLU811  SER814 

> <Gold.Protein.RotatedAtoms>
  150.7946  134.6995  159.6541 H   0  0  0  0  0  0  0  0  0  0  0  0  # atno 6907 bound_to 6896
  152.4056  134.6209  160.0060 H   0  0  0  0  0  0  0  0  0  0  0  0  # atno 6908 bound_to 6896
  151.6467  133.3286  159.3178 H   0  0  0  0  0  0  0  0  0  0  0  0  # atno 6909 bound_to 6896
  145.0508  140.8217  143.4210 H   0  0  0  0  0  0  0  0  0  0  0  0  # atno 7974 bound_to 7965
  156.1432  140.3174  155.8528 H   0  0  0  0  0  0  0  0  0  0  0  0  # atno 8008 bound_to 7997
  155.4115  140.0506  157.3048 H   0  0  0  0  0  0  0  0  0  0  0  0  # atno 8009 bound_to 7997
  154.4994  140.2123  155.9391 H   0  0  0  0  0  0  0  0  0  0  0  0  # atno 8010 bound_to 7997
  139.5866  144.1306  152.1582 H   0  0  0  0  0  0  0  0  0  0  0  0  # atno 10167 bound_to 10162
  157.6167  130.9266  150.0105 H   0  0  0  0  0  0  0  0  0  0  0  0  # atno 10718 bound_to 10713
  153.3952  135.3872  155.1950 H   0  0  0  0  0  0  0  0  0  0  0  0  # atno 10763 bound_to 10752
  154.8723  135.3758  154.4688 H   0  0  0  0  0  0  0  0  0  0  0  0  # atno 10764 bound_to 10752
  153.5179  135.7087  153.5808 H   0  0  0  0  0  0  0  0  0  0  0  0  # atno 10765 bound_to 10752
  141.0216  134.0116  157.3274 H   0  0  0  0  0  0  0  0  0  0  0  0  # atno 11005 bound_to 11000
  145.1529  139.2503  143.5431 LP  0  0  0  0  0  0  0  0  0  0  0  0  # atno 17320 bound_to 7965
  146.3518  140.1237  142.8599 LP  0  0  0  0  0  0  0  0  0  0  0  0  # atno 17321 bound_to 7965
  140.0871  144.5652  150.7081 LP  0  0  0  0  0  0  0  0  0  0  0  0  # atno 17342 bound_to 10162
  140.7136  143.2525  151.4504 LP  0  0  0  0  0  0  0  0  0  0  0  0  # atno 17343 bound_to 10162
  156.1293  130.3644  149.9758 LP  0  0  0  0  0  0  0  0  0  0  0  0  # atno 17370 bound_to 10713
  156.7823  130.9226  151.3646 LP  0  0  0  0  0  0  0  0  0  0  0  0  # atno 17371 bound_to 10713
  139.9149  135.0195  156.7843 LP  0  0  0  0  0  0  0  0  0  0  0  0  # atno 17394 bound_to 11000
  140.6563  133.9685  155.7781 LP  0  0  0  0  0  0  0  0  0  0  0  0  # atno 17395 bound_to 11000

$$$$
