AV-unprocessed.smi:1333|AV-procd|sdf|5490|dock10
  -GOLD-   22720 5 63D 1   1.00000     0.00000
 Structure written by MMmdl.
 33 34  0  0  0  0  0  0  0  0  1 V2000
  150.6601  140.2071  156.1092 O   0  0  0  0  0  0  0  0  0  0  0  0
  150.2491  141.2692  155.6338 C   0  0  0  0  0  0  0  0  0  0  0  0
  149.5044  141.2780  154.2918 C   0  0  0  0  0  0  0  0  0  0  0  0
  148.4370  140.2939  154.2251 N   0  0  0  0  0  0  0  0  0  0  0  0
  147.6430  139.9902  153.1263 C   0  0  0  0  0  0  0  0  0  0  0  0
  146.7700  139.0062  153.5319 C   0  0  0  0  0  0  0  0  0  0  0  0
  147.0076  138.6899  154.8675 N   0  0  0  0  0  0  0  0  0  0  0  0
  148.0065  139.4930  155.2104 C   0  0  0  0  0  0  0  0  0  0  0  0
  150.3929  142.4901  156.1991 N   0  0  0  0  0  0  0  0  0  0  0  0
  150.9828  142.8723  157.3569 C   0  0  0  0  0  0  0  0  0  0  0  0
  151.4190  142.0328  158.1431 O   0  0  0  0  0  0  0  0  0  0  0  0
  151.0624  144.1943  157.5995 N   0  0  0  0  0  0  0  0  0  0  0  0
  151.9443  144.8265  158.5766 C   0  0  0  0  0  0  0  0  0  0  0  0
  153.2271  144.0003  158.7991 C   0  0  0  0  0  0  0  0  0  0  0  0
  153.0856  143.3691  160.1843 C   0  0  0  0  0  0  0  0  0  0  0  0
  152.2570  144.3798  160.9705 C   0  0  0  0  0  0  0  0  0  0  0  0
  151.2537  144.9227  159.9509 C   0  0  0  0  0  0  0  0  0  0  0  0
  149.0778  142.2669  154.1180 H   0  0  0  0  0  0  0  0  0  0  0  0
  150.2105  141.0838  153.4834 H   0  0  0  0  0  0  0  0  0  0  0  0
  147.7591  140.4879  152.1746 H   0  0  0  0  0  0  0  0  0  0  0  0
  145.9948  138.5066  152.9701 H   0  0  0  0  0  0  0  0  0  0  0  0
  148.4341  139.5003  156.2024 H   0  0  0  0  0  0  0  0  0  0  0  0
  149.9929  143.2497  155.6678 H   0  0  0  0  0  0  0  0  0  0  0  0
  150.4642  144.8074  157.0637 H   0  0  0  0  0  0  0  0  0  0  0  0
  152.2098  145.8277  158.2319 H   0  0  0  0  0  0  0  0  0  0  0  0
  153.4051  143.2511  158.0264 H   0  0  0  0  0  0  0  0  0  0  0  0
  154.0878  144.6703  158.7965 H   0  0  0  0  0  0  0  0  0  0  0  0
  152.5400  142.4277  160.1059 H   0  0  0  0  0  0  0  0  0  0  0  0
  154.0486  143.1599  160.6509 H   0  0  0  0  0  0  0  0  0  0  0  0
  151.7733  143.9395  161.8428 H   0  0  0  0  0  0  0  0  0  0  0  0
  152.9011  145.1882  161.3193 H   0  0  0  0  0  0  0  0  0  0  0  0
  150.9466  145.9423  160.1868 H   0  0  0  0  0  0  0  0  0  0  0  0
  150.3552  144.3035  159.9746 H   0  0  0  0  0  0  0  0  0  0  0  0
  1  2  2  0  0  0  0
  2  3  1  0  0  0  0
  2  9  1  0  0  0  0
  3  4  1  0  0  0  0
  3 18  1  0  0  0  0
  3 19  1  0  0  0  0
  4  8  1  0  0  0  0
  4  5  1  0  0  0  0
  5  6  2  0  0  0  0
  5 20  1  0  0  0  0
  6  7  1  0  0  0  0
  6 21  1  0  0  0  0
  7  8  2  0  0  0  0
  8 22  1  0  0  0  0
  9 10  1  0  0  0  0
  9 23  1  0  0  0  0
 10 11  2  0  0  0  0
 10 12  1  0  0  0  0
 12 13  1  0  0  0  0
 12 24  1  0  0  0  0
 13 17  1  0  0  0  0
 13 14  1  0  0  0  0
 13 25  1  0  0  0  0
 14 15  1  0  0  0  0
 14 26  1  0  0  0  0
 14 27  1  0  0  0  0
 15 16  1  0  0  0  0
 15 28  1  0  0  0  0
 15 29  1  0  0  0  0
 16 17  1  0  0  0  0
 16 30  1  0  0  0  0
 16 31  1  0  0  0  0
 17 32  1  0  0  0  0
 17 33  1  0  0  0  0
M  END
> <s_m_source_file>
AV-unprocessed.smi

> <i_m_source_file_index>
1333

> <i_lp_mmshare_version>
43012

> <i_f3d_flags>
0

> <s_epik_input>
W2NIXTFuW2NIXVtjSF1uMVtDSDJdQyg9TylbTkhdQyg9TylbTkhdW0NIXTJbQ0gyXVtDSDJdW0NIMl1bQ0gyXTI=

> <s_epik_cmdline>
J2VwaWtfcHl0aG9uJywgJy1waCcsICc3LjAnLCAnLXRuJywgJzgnLCAnLW1hJywgJzIwMCcsICctbWV0YWxfYmluZGluZycsICctaW1hZScsICc8aW5maWxlLm1hZT4nLCAnLW9tYWUnLCAnPG91dGZpbGUubWFlPic=

> <r_lp_tautomer_probability>
1

> <r_epik_Ionization_Penalty>
0.171964

> <r_epik_Ionization_Penalty_Charging>
0.171937

> <r_epik_Ionization_Penalty_Neutral>
2.73302e-05

> <r_epik_State_Penalty>
0.161333

> <r_epik_Charging_Adjusted_Penalty>
0.33327

> <i_epik_Tot_Q>
0

> <i_epik_Tot_abs_Q>
0

> <r_epik_Metal_State_Penalty>
0.124658

> <b_epik_Metal_Only>
0

> <s_lp_Force_Field>
OPLS_2005

> <r_lp_Energy>
24.334

> <b_lp_Chiralities_Consistent>
1

> <s_lp_Variant>
AV-unprocessed.smi:1333-1

> <Gold.Version>
5.8.1

> <Gold.Id.Protein>
6NUR|6NUR_protein|mol2

> <Gold.PLP.Fitness>
43.5977

> <Gold.PLP.PLP>
-35.5534

> <Gold.PLP.part.hbond>
-2.0000

> <Gold.PLP.part.metal>
0.0000

> <Gold.PLP.part.buried>
-2.2176

> <Gold.PLP.part.nonpolar>
-30.8950

> <Gold.PLP.part.repulsive>
0.2204

> <Gold.PLP.ligand.clash>
0.0000

> <Gold.PLP.ligand.torsion>
0.5760

> <Gold.PLP.Chemscore.Hbond>
1.6464

> <Gold.PLP.Chemscore.CHOScore>
1.4160

> <Gold.PLP.Chemscore.Metal>
0.0000

> <Gold.Chemscore.Hbonds>
donor molecule, donor type, donor heavy atom, donor atom, acceptor molecule, acceptor atom, score
      L1  H     9    23       P1  8028  0.96
      L1  H    12    24       P1  8028  0.76
      L1  C     5    20       P1  7957  0.71

> <Gold.PLP.Chemscore.Internal.Correction>
0.0091

> <Gold.Rescore>
     Score         DG    S(hbond)    S(metal)    S(lipo)     H(rot)  DE(clash)    DE(int)     intcor
      9.98     -15.57       1.41        0.00      83.68       1.73       0.04       5.55       ----

> <Gold.Chemscore.Fitness>
9.9790

> <Gold.Chemscore.DG>
-15.5711

> <Gold.Chemscore.ZeroCoef>
-5.4800

> <Gold.Chemscore.Hbond>
1.4132

> <Gold.Chemscore.Metal>
0.0000

> <Gold.Chemscore.Lipo>
83.6769

> <Gold.Chemscore.Internal_Hbond>
0.0000

> <Gold.Chemscore.DEClash>
0.0379

> <Gold.Chemscore.DEInternal>
5.5542

> <Gold.Chemscore.Rot>
1.7263

> <Gold.Chemscore.Internal.Correction>
   9.000000E+99

> <Gold.Chemscore.Hbonds>
donor molecule, donor type, donor heavy atom, donor atom, acceptor molecule, acceptor atom, score
      L1  H     9    23       P1  8028  0.92
      L1  H    12    24       P1  8028  0.36

> <Gold.Chemscore.Hbond.Weighted>
-4.7202

> <Gold.Chemscore.Metal.Weighted>
-0.0000

> <Gold.Chemscore.Lipo.Weighted>
-9.7902

> <Gold.Chemscore.Internal_Hbond.Weighted>
0.0000

> <Gold.Chemscore.DEClash.Weighted>
0.0379

> <Gold.Chemscore.DEInternal.Weighted>
5.5542

> <Gold.Chemscore.Rot.Weighted>
4.4193

> <Gold.Chemscore.Internal.Correction.Weighted>
   9.000000E+99

> <Gold.Protein.RotatedTorsions>
[ 6907 6896 6895 6894 ] final   90.00 input  -60.11 | X-H torsion
[ 7974 7965 7964 7962 ] final  157.16 input  175.53 | X-H torsion
[ 8008 7997 7996 7995 ] final   82.39 input   59.86 | X-H torsion
[ 10167 10162 10161 10158 ] final   98.80 input  -65.29 | X-H torsion
[ 10718 10713 10712 10709 ] final  132.52 input   66.30 | X-H torsion
[ 10763 10752 10751 10750 ] final  108.46 input  -60.55 | X-H torsion
[ 11005 11000 10999 10996 ] final  -59.01 input  -57.11 | X-H torsion

> <Gold.Protein.ActiveResidues>
 VAL166  LYS551  ARG553  GLY616  TRP617  ASP618  TYR619  PRO620  LYS621  CYS622 
 ASP623  PHE694  ASN695  SER759  ASP760  ASP761  ALA762  ILE779  LEU786  VAL792 
 PHE793  MET794  SER795  GLU796  ALA797  LYS798  CYS799  TRP800  GLU811  SER814 

> <Gold.Protein.RotatedAtoms>
  152.5441  134.1880  159.8662 H   0  0  0  0  0  0  0  0  0  0  0  0  # atno 6907 bound_to 6896
  151.1877  133.4679  159.2602 H   0  0  0  0  0  0  0  0  0  0  0  0  # atno 6908 bound_to 6896
  151.1114  135.0040  159.8551 H   0  0  0  0  0  0  0  0  0  0  0  0  # atno 6909 bound_to 6896
  144.7920  139.7302  143.6217 H   0  0  0  0  0  0  0  0  0  0  0  0  # atno 7974 bound_to 7965
  155.9100  140.3428  155.6091 H   0  0  0  0  0  0  0  0  0  0  0  0  # atno 8008 bound_to 7997
  155.7399  140.0806  157.2269 H   0  0  0  0  0  0  0  0  0  0  0  0  # atno 8009 bound_to 7997
  154.4054  140.1572  156.2591 H   0  0  0  0  0  0  0  0  0  0  0  0  # atno 8010 bound_to 7997
  139.7676  144.6933  151.0202 H   0  0  0  0  0  0  0  0  0  0  0  0  # atno 10167 bound_to 10162
  157.4863  131.1088  150.9616 H   0  0  0  0  0  0  0  0  0  0  0  0  # atno 10718 bound_to 10713
  153.4210  135.3811  155.2111 H   0  0  0  0  0  0  0  0  0  0  0  0  # atno 10763 bound_to 10752
  154.8744  135.3817  154.4384 H   0  0  0  0  0  0  0  0  0  0  0  0  # atno 10764 bound_to 10752
  153.4905  135.7088  153.5950 H   0  0  0  0  0  0  0  0  0  0  0  0  # atno 10765 bound_to 10752
  141.1231  133.6614  156.5007 H   0  0  0  0  0  0  0  0  0  0  0  0  # atno 11005 bound_to 11000
  146.2175  139.5575  142.9640 LP  0  0  0  0  0  0  0  0  0  0  0  0  # atno 17320 bound_to 7965
  145.5771  141.0387  143.2142 LP  0  0  0  0  0  0  0  0  0  0  0  0  # atno 17321 bound_to 7965
  140.7812  143.4625  151.0258 LP  0  0  0  0  0  0  0  0  0  0  0  0  # atno 17342 bound_to 10162
  139.8310  143.7691  152.3180 LP  0  0  0  0  0  0  0  0  0  0  0  0  # atno 17343 bound_to 10162
  157.0333  130.5720  149.5346 LP  0  0  0  0  0  0  0  0  0  0  0  0  # atno 17370 bound_to 10713
  156.0148  130.5242  150.8102 LP  0  0  0  0  0  0  0  0  0  0  0  0  # atno 17371 bound_to 10713
  140.4448  134.6982  157.5010 LP  0  0  0  0  0  0  0  0  0  0  0  0  # atno 17394 bound_to 11000
  140.0205  134.6555  155.9247 LP  0  0  0  0  0  0  0  0  0  0  0  0  # atno 17395 bound_to 11000

$$$$
