AV-unprocessed.smi:976|AV-procd|sdf|4302|dock1
  -GOLD-   22720 2203D 1   1.00000     0.00000
 Structure written by MMmdl.
 41 42  0  0  0  0  0  0  0  0  1 V2000
  151.9976  140.0419  159.2315 C   0  0  0  0  0  0  0  0  0  0  0  0
  151.3925  141.0794  158.2742 C   0  0  2  0  0  0  0  0  0  0  0  0
  150.8367  142.1244  159.0689 O   0  0  0  0  0  0  0  0  0  0  0  0
  150.8579  143.4217  158.4813 C   0  0  0  0  0  0  0  0  0  0  0  0
  152.0638  144.2028  159.0171 C   0  0  0  0  0  0  0  0  0  0  0  0
  153.0077  143.3436  159.3998 F   0  0  0  0  0  0  0  0  0  0  0  0
  152.5635  144.9906  158.0652 F   0  0  0  0  0  0  0  0  0  0  0  0
  151.7055  144.9405  160.0675 F   0  0  0  0  0  0  0  0  0  0  0  0
  150.3102  140.4525  157.3803 C   0  0  0  0  0  0  0  0  0  0  0  0
  150.0355  139.2583  157.4973 O   0  0  0  0  0  0  0  0  0  0  0  0
  149.7241  141.2866  156.5026 N   0  0  0  0  0  0  0  0  0  0  0  0
  148.7037  140.9949  155.5535 C   0  0  0  0  0  0  0  0  0  0  0  0
  147.6475  141.8964  155.2764 C   0  0  0  0  0  0  0  0  0  0  0  0
  146.7021  141.5644  154.2897 C   0  0  0  0  0  0  0  0  0  0  0  0
  146.8517  140.3458  153.6052 C   0  0  0  0  0  0  0  0  0  0  0  0
  147.8597  139.4833  153.8464 N   0  0  0  0  0  0  0  0  0  0  0  0
  148.7743  139.7931  154.7979 C   0  0  0  0  0  0  0  0  0  0  0  0
  149.8018  138.8589  155.0383 N   0  0  0  0  0  0  0  0  0  0  0  0
  149.3660  137.4718  154.9272 C   0  0  0  0  0  0  0  0  0  0  0  0
  150.4626  136.5332  155.4579 C   0  0  0  0  0  0  0  0  0  0  0  0
  151.6825  136.7792  154.7638 O   0  0  0  0  0  0  0  0  0  0  0  0
  152.1396  138.1176  154.9376 C   0  0  0  0  0  0  0  0  0  0  0  0
  151.0877  139.0974  154.3899 C   0  0  0  0  0  0  0  0  0  0  0  0
  152.4320  139.2041  158.6851 H   0  0  0  0  0  0  0  0  0  0  0  0
  151.2492  139.6437  159.9179 H   0  0  0  0  0  0  0  0  0  0  0  0
  152.7896  140.4882  159.8333 H   0  0  0  0  0  0  0  0  0  0  0  0
  152.1971  141.4834  157.6564 H   0  0  0  0  0  0  0  0  0  0  0  0
  150.9263  143.3372  157.3958 H   0  0  0  0  0  0  0  0  0  0  0  0
  149.9427  143.9697  158.7082 H   0  0  0  0  0  0  0  0  0  0  0  0
  150.1151  142.2159  156.4450 H   0  0  0  0  0  0  0  0  0  0  0  0
  147.5584  142.8426  155.7876 H   0  0  0  0  0  0  0  0  0  0  0  0
  145.8866  142.2333  154.0574 H   0  0  0  0  0  0  0  0  0  0  0  0
  146.1470  140.0580  152.8392 H   0  0  0  0  0  0  0  0  0  0  0  0
  148.4394  137.3075  155.4772 H   0  0  0  0  0  0  0  0  0  0  0  0
  149.1573  137.2473  153.8804 H   0  0  0  0  0  0  0  0  0  0  0  0
  150.6069  136.6729  156.5306 H   0  0  0  0  0  0  0  0  0  0  0  0
  150.1718  135.4936  155.3080 H   0  0  0  0  0  0  0  0  0  0  0  0
  152.3402  138.3110  155.9927 H   0  0  0  0  0  0  0  0  0  0  0  0
  153.0829  138.2425  154.4057 H   0  0  0  0  0  0  0  0  0  0  0  0
  150.9876  138.9635  153.3118 H   0  0  0  0  0  0  0  0  0  0  0  0
  151.4072  140.1257  154.5635 H   0  0  0  0  0  0  0  0  0  0  0  0
  1  2  1  0  0  0  0
  1 24  1  0  0  0  0
  1 25  1  0  0  0  0
  1 26  1  0  0  0  0
  2  3  1  0  0  0  0
  2  9  1  0  0  0  0
  2 27  1  0  0  0  0
  3  4  1  0  0  0  0
  4  5  1  0  0  0  0
  4 28  1  0  0  0  0
  4 29  1  0  0  0  0
  5  6  1  0  0  0  0
  5  7  1  0  0  0  0
  5  8  1  0  0  0  0
  9 10  2  0  0  0  0
  9 11  1  0  0  0  0
 11 12  1  0  0  0  0
 11 30  1  0  0  0  0
 12 17  1  0  0  0  0
 12 13  2  0  0  0  0
 13 14  1  0  0  0  0
 13 31  1  0  0  0  0
 14 15  2  0  0  0  0
 14 32  1  0  0  0  0
 15 16  1  0  0  0  0
 15 33  1  0  0  0  0
 16 17  2  0  0  0  0
 17 18  1  0  0  0  0
 18 23  1  0  0  0  0
 18 19  1  0  0  0  0
 19 20  1  0  0  0  0
 19 34  1  0  0  0  0
 19 35  1  0  0  0  0
 20 21  1  0  0  0  0
 20 36  1  0  0  0  0
 20 37  1  0  0  0  0
 21 22  1  0  0  0  0
 22 23  1  0  0  0  0
 22 38  1  0  0  0  0
 22 39  1  0  0  0  0
 23 40  1  0  0  0  0
 23 41  1  0  0  0  0
M  END
> <s_m_source_file>
AV-unprocessed.smi

> <i_m_source_file_index>
976

> <i_lp_mmshare_version>
43012

> <i_f3d_flags>
0

> <s_epik_input>
RkMoRikoRilbQ0gyXU9bQ0BASF0oW0NIM10pQyg9TylbTkhdYzFbY0hdW2NIXVtjSF1uYzFOMltDSDJdW0NIMl1PW0NIMl1bQ0gyXTI=

> <s_epik_cmdline>
J2VwaWtfcHl0aG9uJywgJy1waCcsICc3LjAnLCAnLXRuJywgJzgnLCAnLW1hJywgJzIwMCcsICctbWV0YWxfYmluZGluZycsICctaW1hZScsICc8aW5maWxlLm1hZT4nLCAnLW9tYWUnLCAnPG91dGZpbGUubWFlPic=

> <r_lp_tautomer_probability>
1

> <r_epik_Ionization_Penalty>
0.000443367

> <r_epik_Ionization_Penalty_Charging>
0

> <r_epik_Ionization_Penalty_Neutral>
0.000443367

> <r_epik_State_Penalty>
0.00027288

> <r_epik_Charging_Adjusted_Penalty>
0.00027288

> <i_epik_Tot_Q>
0

> <i_epik_Tot_abs_Q>
0

> <r_epik_Metal_State_Penalty>
-0

> <b_epik_Metal_Only>
0

> <s_lp_Force_Field>
OPLS_2005

> <r_lp_Energy>
26.1193

> <b_lp_Chiralities_Consistent>
1

> <s_lp_Variant>
AV-unprocessed.smi:976-1

> <Gold.Version>
5.8.1

> <Gold.Id.Protein>
6NUR|6NUR_protein|mol2

> <Gold.PLP.Fitness>
43.7498

> <Gold.PLP.PLP>
-41.9166

> <Gold.PLP.part.hbond>
-1.1980

> <Gold.PLP.part.metal>
0.0000

> <Gold.PLP.part.buried>
-5.5225

> <Gold.PLP.part.nonpolar>
-36.3009

> <Gold.PLP.part.repulsive>
0.4536

> <Gold.PLP.ligand.clash>
0.0000

> <Gold.PLP.ligand.torsion>
2.3108

> <Gold.PLP.Chemscore.Hbond>
1.0000

> <Gold.PLP.Chemscore.CHOScore>
1.0000

> <Gold.PLP.Chemscore.Metal>
0.0000

> <Gold.Chemscore.Hbonds>
donor molecule, donor type, donor heavy atom, donor atom, acceptor molecule, acceptor atom, score
      P1  H 10752 10764       L1    21  1.00
      L1  C    15    33       P1 10175  1.00

> <Gold.PLP.Chemscore.Internal.Correction>
0.4547

> <Gold.Rescore>
     Score         DG    S(hbond)    S(metal)    S(lipo)     H(rot)  DE(clash)    DE(int)     intcor
      6.52     -12.76       0.97        0.00      77.34       1.95       0.04       6.20       ----

> <Gold.Chemscore.Fitness>
6.5229

> <Gold.Chemscore.DG>
-12.7645

> <Gold.Chemscore.ZeroCoef>
-5.4800

> <Gold.Chemscore.Hbond>
0.9657

> <Gold.Chemscore.Metal>
0.0000

> <Gold.Chemscore.Lipo>
77.3413

> <Gold.Chemscore.Internal_Hbond>
0.0000

> <Gold.Chemscore.DEClash>
0.0410

> <Gold.Chemscore.DEInternal>
6.2007

> <Gold.Chemscore.Rot>
1.9491

> <Gold.Chemscore.Internal.Correction>
   9.000000E+99

> <Gold.Chemscore.Hbonds>
donor molecule, donor type, donor heavy atom, donor atom, acceptor molecule, acceptor atom, score
      P1  H 10752 10764       L1    21  0.85

> <Gold.Chemscore.Hbond.Weighted>
-3.2253

> <Gold.Chemscore.Metal.Weighted>
-0.0000

> <Gold.Chemscore.Lipo.Weighted>
-9.0489

> <Gold.Chemscore.Internal_Hbond.Weighted>
0.0000

> <Gold.Chemscore.DEClash.Weighted>
0.0410

> <Gold.Chemscore.DEInternal.Weighted>
6.2007

> <Gold.Chemscore.Rot.Weighted>
4.9897

> <Gold.Chemscore.Internal.Correction.Weighted>
   9.000000E+99

> <Gold.Protein.RotatedTorsions>
[ 6907 6896 6895 6894 ] final  -21.01 input  -60.11 | X-H torsion
[ 7974 7965 7964 7962 ] final   30.57 input  175.53 | X-H torsion
[ 8008 7997 7996 7995 ] final  -37.08 input   59.86 | X-H torsion
[ 10167 10162 10161 10158 ] final  108.71 input  -65.29 | X-H torsion
[ 10718 10713 10712 10709 ] final  -97.41 input   66.30 | X-H torsion
[ 10763 10752 10751 10750 ] final  -52.17 input  -60.55 | X-H torsion
[ 11005 11000 10999 10996 ] final   81.61 input  -57.11 | X-H torsion

> <Gold.Protein.ActiveResidues>
 VAL166  LYS551  ARG553  GLY616  TRP617  ASP618  TYR619  PRO620  LYS621  CYS622 
 ASP623  PHE694  ASN695  SER759  ASP760  ASP761  ALA762  ILE779  LEU786  VAL792 
 PHE793  MET794  SER795  GLU796  ALA797  LYS798  CYS799  TRP800  GLU811  SER814 

> <Gold.Protein.RotatedAtoms>
  151.2397  135.0584  159.9019 H   0  0  0  0  0  0  0  0  0  0  0  0  # atno 6907 bound_to 6896
  152.5394  134.0448  159.8094 H   0  0  0  0  0  0  0  0  0  0  0  0  # atno 6908 bound_to 6896
  151.0640  133.5472  159.2663 H   0  0  0  0  0  0  0  0  0  0  0  0  # atno 6909 bound_to 6896
  146.1604  139.6771  142.9038 H   0  0  0  0  0  0  0  0  0  0  0  0  # atno 7974 bound_to 7965
  154.4060  140.1613  156.2478 H   0  0  0  0  0  0  0  0  0  0  0  0  # atno 8008 bound_to 7997
  155.9145  140.3425  155.6102 H   0  0  0  0  0  0  0  0  0  0  0  0  # atno 8009 bound_to 7997
  155.7296  140.0778  157.2285 H   0  0  0  0  0  0  0  0  0  0  0  0  # atno 8010 bound_to 7997
  139.6825  144.7117  151.1491 H   0  0  0  0  0  0  0  0  0  0  0  0  # atno 10167 bound_to 10162
  156.0083  130.5193  150.6370 H   0  0  0  0  0  0  0  0  0  0  0  0  # atno 10718 bound_to 10713
  154.1383  135.6509  153.4937 H   0  0  0  0  0  0  0  0  0  0  0  0  # atno 10763 bound_to 10752
  153.0173  135.5309  154.6930 H   0  0  0  0  0  0  0  0  0  0  0  0  # atno 10764 bound_to 10752
  154.6185  135.2962  155.0324 H   0  0  0  0  0  0  0  0  0  0  0  0  # atno 10765 bound_to 10752
  139.9092  134.8009  156.2064 H   0  0  0  0  0  0  0  0  0  0  0  0  # atno 11005 bound_to 11000
  145.4603  141.0432  143.2755 LP  0  0  0  0  0  0  0  0  0  0  0  0  # atno 17320 bound_to 7965
  144.8019  139.6125  143.7068 LP  0  0  0  0  0  0  0  0  0  0  0  0  # atno 17321 bound_to 7965
  140.7657  143.5679  150.9028 LP  0  0  0  0  0  0  0  0  0  0  0  0  # atno 17342 bound_to 10162
  139.9351  143.6447  152.3067 LP  0  0  0  0  0  0  0  0  0  0  0  0  # atno 17343 bound_to 10162
  157.4157  131.0830  151.1179 LP  0  0  0  0  0  0  0  0  0  0  0  0  # atno 17370 bound_to 10713
  157.1797  130.6304  149.5667 LP  0  0  0  0  0  0  0  0  0  0  0  0  # atno 17371 bound_to 10713
  141.0493  133.6897  156.1741 LP  0  0  0  0  0  0  0  0  0  0  0  0  # atno 17394 bound_to 11000
  140.6835  134.4741  157.5589 LP  0  0  0  0  0  0  0  0  0  0  0  0  # atno 17395 bound_to 11000

$$$$
