AV-unprocessed.smi:2451|AV-procd|sdf|9683|dock10
  -GOLD-   2272013323D 1   1.00000     0.00000
 Structure written by MMmdl.
 37 38  0  0  0  0  0  0  0  0  2 V2000
  151.7029  145.8468  160.2192 C   0  0  0  0  0  0  0  0  0  0  0  0
  151.6429  144.3334  159.9475 C   0  0  2  0  0  0  0  0  0  0  0  0
  152.7398  143.5768  160.7384 C   0  0  0  0  0  0  0  0  0  0  0  0
  152.6079  142.0564  160.5018 C   0  0  0  0  0  0  0  0  0  0  0  0
  152.5619  141.6706  159.0016 C   0  0  0  0  0  0  0  0  0  0  0  0
  151.4653  142.4327  158.2157 C   0  0  2  0  0  0  0  0  0  0  0  0
  151.4842  142.0744  156.8040 N   0  5  0  0  0  0  0  0  0  0  0  0
  151.1626  140.5505  156.3491 S   0  0  0  0  0  0  0  0  0  0  0  0
  150.4156  140.4744  155.0824 O   0  0  0  0  0  0  0  0  0  0  0  0
  152.3391  139.6770  156.4880 O   0  0  0  0  0  0  0  0  0  0  0  0
  149.9911  140.0334  157.6806 C   0  0  0  0  0  0  0  0  0  0  0  0
  150.5499  138.8731  158.4600 C   0  0  0  0  0  0  0  0  0  0  0  0
  151.8122  138.7647  159.1079 C   0  0  0  0  0  0  0  0  0  0  0  0
  151.7870  137.5136  159.6518 C   0  0  0  0  0  0  0  0  0  0  0  0
  150.6175  136.8916  159.3585 O   0  0  0  0  0  0  0  0  0  0  0  0
  149.8359  137.7657  158.5943 N   0  0  0  0  0  0  0  0  0  0  0  0
  151.6481  143.9733  158.4215 C   0  0  2  0  0  0  0  0  0  0  0  0
  152.8826  144.5673  157.6868 C   0  0  0  0  0  0  0  0  0  0  0  0
  152.6761  146.2683  159.9679 H   0  0  0  0  0  0  0  0  0  0  0  0
  151.5236  146.0574  161.2738 H   0  0  0  0  0  0  0  0  0  0  0  0
  150.9444  146.3798  159.6454 H   0  0  0  0  0  0  0  0  0  0  0  0
  150.6818  144.0161  160.3607 H   0  0  0  0  0  0  0  0  0  0  0  0
  153.7296  143.9143  160.4299 H   0  0  0  0  0  0  0  0  0  0  0  0
  152.6583  143.7929  161.8040 H   0  0  0  0  0  0  0  0  0  0  0  0
  153.4409  141.5423  160.9821 H   0  0  0  0  0  0  0  0  0  0  0  0
  151.7093  141.6924  161.0042 H   0  0  0  0  0  0  0  0  0  0  0  0
  153.5384  141.8595  158.5543 H   0  0  0  0  0  0  0  0  0  0  0  0
  152.4001  140.5956  158.9196 H   0  0  0  0  0  0  0  0  0  0  0  0
  150.5052  142.1685  158.6615 H   0  0  0  0  0  0  0  0  0  0  0  0
  149.8371  140.8949  158.3307 H   0  0  0  0  0  0  0  0  0  0  0  0
  149.0297  139.7910  157.2290 H   0  0  0  0  0  0  0  0  0  0  0  0
  152.6046  139.4958  159.1711 H   0  0  0  0  0  0  0  0  0  0  0  0
  152.4909  136.9478  160.2440 H   0  0  0  0  0  0  0  0  0  0  0  0
  150.7728  144.4521  157.9797 H   0  0  0  0  0  0  0  0  0  0  0  0
  153.8275  144.1870  158.0764 H   0  0  0  0  0  0  0  0  0  0  0  0
  152.9110  145.6520  157.7801 H   0  0  0  0  0  0  0  0  0  0  0  0
  152.8679  144.3699  156.6136 H   0  0  0  0  0  0  0  0  0  0  0  0
  1  2  1  0  0  0  0
  1 19  1  0  0  0  0
  1 20  1  0  0  0  0
  1 21  1  0  0  0  0
  2 17  1  0  0  0  0
  2  3  1  0  0  0  0
  2 22  1  0  0  0  0
  3  4  1  0  0  0  0
  3 23  1  0  0  0  0
  3 24  1  0  0  0  0
  4  5  1  0  0  0  0
  4 25  1  0  0  0  0
  4 26  1  0  0  0  0
  5  6  1  0  0  0  0
  5 27  1  0  0  0  0
  5 28  1  0  0  0  0
  6  7  1  0  0  0  0
  6 17  1  0  0  0  0
  6 29  1  0  0  0  0
  7  8  1  0  0  0  0
  8  9  2  0  0  0  0
  8 10  2  0  0  0  0
  8 11  1  0  0  0  0
 11 12  1  0  0  0  0
 11 30  1  0  0  0  0
 11 31  1  0  0  0  0
 12 16  2  0  0  0  0
 12 13  1  0  0  0  0
 13 14  2  0  0  0  0
 13 32  1  0  0  0  0
 14 15  1  0  0  0  0
 14 33  1  0  0  0  0
 15 16  1  0  0  0  0
 17 18  1  0  0  0  0
 17 34  1  0  0  0  0
 18 35  1  0  0  0  0
 18 36  1  0  0  0  0
 18 37  1  0  0  0  0
M  CHG  1   7  -1
M  END
> <s_m_source_file>
AV-unprocessed.smi

> <i_m_source_file_index>
2451

> <i_lp_mmshare_version>
43012

> <i_f3d_flags>
0

> <s_epik_input>
W0NIM11bQ0BASF0xW0NIMl1bQ0gyXVtDSDJdW0NASF0oW0NASF0xW0NIM10pW05IXVMoPU8pKD1PKVtDSDJdYzJbY0hdW2NIXW9uMg==

> <s_epik_cmdline>
J2VwaWtfcHl0aG9uJywgJy1waCcsICc3LjAnLCAnLXRuJywgJzgnLCAnLW1hJywgJzIwMCcsICctbWV0YWxfYmluZGluZycsICctaW1hZScsICc8aW5maWxlLm1hZT4nLCAnLW9tYWUnLCAnPG91dGZpbGUubWFlPic=

> <r_lp_tautomer_probability>
1

> <r_epik_Ionization_Penalty>
5.22693

> <r_epik_Ionization_Penalty_Charging>
5.22693

> <r_epik_Ionization_Penalty_Neutral>
2.67702e-10

> <r_epik_State_Penalty>
5.22685

> <r_epik_Charging_Adjusted_Penalty>
10.4538

> <i_epik_Tot_Q>
-1

> <i_epik_Tot_abs_Q>
1

> <r_epik_Metal_State_Penalty>
1.28716

> <b_epik_Metal_Only>
1

> <s_lp_Force_Field>
OPLS_2005

> <r_lp_Energy>
15.3168

> <b_lp_Chiralities_Consistent>
1

> <s_lp_Variant>
AV-unprocessed.smi:2451-15

> <Gold.Version>
5.8.1

> <Gold.Id.Protein>
6NUR|6NUR_protein|mol2

> <Gold.PLP.Fitness>
44.6511

> <Gold.PLP.PLP>
-35.9851

> <Gold.PLP.part.hbond>
-3.0000

> <Gold.PLP.part.metal>
0.0000

> <Gold.PLP.part.buried>
-3.0956

> <Gold.PLP.part.nonpolar>
-30.7494

> <Gold.PLP.part.repulsive>
0.1314

> <Gold.PLP.ligand.clash>
0.0000

> <Gold.PLP.ligand.torsion>
0.6639

> <Gold.PLP.Chemscore.Hbond>
3.0000

> <Gold.PLP.Chemscore.CHOScore>
0.0000

> <Gold.PLP.Chemscore.Metal>
0.0000

> <Gold.Chemscore.Hbonds>
donor molecule, donor type, donor heavy atom, donor atom, acceptor molecule, acceptor atom, score
      P1  H  6896  6907       L1    15  1.00
      P1  H  7989  7998       L1     9  0.99
      P1  H  7997  8008       L1    10  0.96

> <Gold.PLP.Chemscore.Internal.Correction>
0.9938

> <Gold.Rescore>
     Score         DG    S(hbond)    S(metal)    S(lipo)     H(rot)  DE(clash)    DE(int)     intcor
     20.15     -23.45       2.77        0.00     105.10       1.40       0.52       2.78       ----

> <Gold.Chemscore.Fitness>
20.1526

> <Gold.Chemscore.DG>
-23.4496

> <Gold.Chemscore.ZeroCoef>
-5.4800

> <Gold.Chemscore.Hbond>
2.7703

> <Gold.Chemscore.Metal>
0.0000

> <Gold.Chemscore.Lipo>
105.1037

> <Gold.Chemscore.Internal_Hbond>
0.0000

> <Gold.Chemscore.DEClash>
0.5215

> <Gold.Chemscore.DEInternal>
2.7755

> <Gold.Chemscore.Rot>
1.3986

> <Gold.Chemscore.Internal.Correction>
   9.000000E+99

> <Gold.Chemscore.Hbonds>
donor molecule, donor type, donor heavy atom, donor atom, acceptor molecule, acceptor atom, score
      P1  H  6896  6907       L1    15  0.39
      P1  H  7989  7998       L1     9  0.68
      P1  H  7997  8008       L1    10  0.91

> <Gold.Chemscore.Hbond.Weighted>
-9.2528

> <Gold.Chemscore.Metal.Weighted>
-0.0000

> <Gold.Chemscore.Lipo.Weighted>
-12.2971

> <Gold.Chemscore.Internal_Hbond.Weighted>
0.0000

> <Gold.Chemscore.DEClash.Weighted>
0.5215

> <Gold.Chemscore.DEInternal.Weighted>
2.7755

> <Gold.Chemscore.Rot.Weighted>
3.5804

> <Gold.Chemscore.Internal.Correction.Weighted>
   9.000000E+99

> <Gold.Protein.RotatedTorsions>
[ 6907 6896 6895 6894 ] final  -36.79 input  -60.11 | X-H torsion
[ 7974 7965 7964 7962 ] final   54.36 input  175.53 | X-H torsion
[ 8008 7997 7996 7995 ] final  -46.91 input   59.86 | X-H torsion
[ 10167 10162 10161 10158 ] final  -89.28 input  -65.29 | X-H torsion
[ 10718 10713 10712 10709 ] final  -21.28 input   66.30 | X-H torsion
[ 10763 10752 10751 10750 ] final -116.32 input  -60.55 | X-H torsion
[ 11005 11000 10999 10996 ] final -115.59 input  -57.11 | X-H torsion

> <Gold.Protein.ActiveResidues>
 VAL166  LYS551  ARG553  GLY616  TRP617  ASP618  TYR619  PRO620  LYS621  CYS622 
 ASP623  PHE694  ASN695  SER759  ASP760  ASP761  ALA762  ILE779  LEU786  VAL792 
 PHE793  MET794  SER795  GLU796  ALA797  LYS798  CYS799  TRP800  GLU811  SER814 

> <Gold.Protein.RotatedAtoms>
  151.0227  134.9481  159.8068 H   0  0  0  0  0  0  0  0  0  0  0  0  # atno 6907 bound_to 6896
  152.5328  134.2882  159.9043 H   0  0  0  0  0  0  0  0  0  0  0  0  # atno 6908 bound_to 6896
  151.2890  133.4132  159.2666 H   0  0  0  0  0  0  0  0  0  0  0  0  # atno 6909 bound_to 6896
  145.9617  139.4065  143.0244 H   0  0  0  0  0  0  0  0  0  0  0  0  # atno 7974 bound_to 7965
  154.4011  140.1359  156.4089 H   0  0  0  0  0  0  0  0  0  0  0  0  # atno 8008 bound_to 7997
  155.7752  140.3483  155.5248 H   0  0  0  0  0  0  0  0  0  0  0  0  # atno 8009 bound_to 7997
  155.8728  140.0974  157.1529 H   0  0  0  0  0  0  0  0  0  0  0  0  # atno 8010 bound_to 7997
  140.3663  143.2816  151.9554 H   0  0  0  0  0  0  0  0  0  0  0  0  # atno 10167 bound_to 10162
  156.5203  130.4631  149.6600 H   0  0  0  0  0  0  0  0  0  0  0  0  # atno 10718 bound_to 10713
  154.8515  135.4350  154.1802 H   0  0  0  0  0  0  0  0  0  0  0  0  # atno 10763 bound_to 10752
  153.2895  135.6960  153.7313 H   0  0  0  0  0  0  0  0  0  0  0  0  # atno 10764 bound_to 10752
  153.6486  135.3455  155.3068 H   0  0  0  0  0  0  0  0  0  0  0  0  # atno 10765 bound_to 10752
  141.0478  133.9735  157.2888 H   0  0  0  0  0  0  0  0  0  0  0  0  # atno 11005 bound_to 11000
  145.8031  140.9761  143.0988 LP  0  0  0  0  0  0  0  0  0  0  0  0  # atno 17320 bound_to 7965
  144.6816  139.9826  143.7483 LP  0  0  0  0  0  0  0  0  0  0  0  0  # atno 17321 bound_to 7965
  139.4808  144.5947  151.7711 LP  0  0  0  0  0  0  0  0  0  0  0  0  # atno 17342 bound_to 10162
  140.5077  144.1072  150.5987 LP  0  0  0  0  0  0  0  0  0  0  0  0  # atno 17343 bound_to 10162
  156.3156  130.7252  151.2154 LP  0  0  0  0  0  0  0  0  0  0  0  0  # atno 17370 bound_to 10713
  157.7438  131.0469  150.4919 LP  0  0  0  0  0  0  0  0  0  0  0  0  # atno 17371 bound_to 10713
  139.9325  135.0199  156.8449 LP  0  0  0  0  0  0  0  0  0  0  0  0  # atno 17394 bound_to 11000
  140.6114  134.0079  155.7578 LP  0  0  0  0  0  0  0  0  0  0  0  0  # atno 17395 bound_to 11000

$$$$
