AV-unprocessed.smi:1772|AV-procd|sdf|7162|dock4
  -GOLD-   22720 8403D 1   1.00000     0.00000
 Structure written by MMmdl.
 34 35  0  0  0  0  0  0  0  0  2 V2000
  146.6586  132.3435  153.8075 O   0  0  0  0  0  0  0  0  0  0  0  0
  147.3506  131.9329  152.8762 C   0  0  0  0  0  0  0  0  0  0  0  0
  148.6044  131.4844  153.0309 N   0  0  0  0  0  0  0  0  0  0  0  0
  149.3234  131.4294  154.3000 C   0  0  0  0  0  0  0  0  0  0  0  0
  149.9500  132.7870  154.6741 C   0  0  1  0  0  0  0  0  0  0  0  0
  148.9751  133.9619  154.4652 C   0  0  0  0  0  0  0  0  0  0  0  0
  149.5763  135.2162  155.1073 C   0  0  0  0  0  0  0  0  0  0  0  0
  150.4988  134.6260  156.5753 S   0  0  0  0  0  0  0  0  0  0  0  0
  151.8826  135.1182  156.5014 O   0  0  0  0  0  0  0  0  0  0  0  0
  149.6849  134.8319  157.7827 O   0  0  0  0  0  0  0  0  0  0  0  0
  150.4554  132.8494  156.1258 C   0  0  0  0  0  0  0  0  0  0  0  0
  146.9609  131.8579  151.5917 N   0  0  0  0  0  0  0  0  0  0  0  0
  145.7154  132.2342  151.0181 C   0  0  0  0  0  0  0  0  0  0  0  0
  144.7170  132.7223  151.8902 C   0  0  0  0  0  0  0  0  0  0  0  0
  143.4604  133.0956  151.3711 C   0  0  0  0  0  0  0  0  0  0  0  0
  143.2168  132.9751  150.0487 N   0  3  0  0  0  0  0  0  0  0  0  0
  144.1334  132.5001  149.1781 C   0  0  0  0  0  0  0  0  0  0  0  0
  145.4078  132.1113  149.6389 C   0  0  0  0  0  0  0  0  0  0  0  0
  149.1013  131.1598  152.2141 H   0  0  0  0  0  0  0  0  0  0  0  0
  148.6526  131.0908  155.0915 H   0  0  0  0  0  0  0  0  0  0  0  0
  150.1015  130.6705  154.2126 H   0  0  0  0  0  0  0  0  0  0  0  0
  150.8063  132.9680  154.0226 H   0  0  0  0  0  0  0  0  0  0  0  0
  148.7555  134.1222  153.4093 H   0  0  0  0  0  0  0  0  0  0  0  0
  148.0277  133.7347  154.9562 H   0  0  0  0  0  0  0  0  0  0  0  0
  150.2868  135.6935  154.4319 H   0  0  0  0  0  0  0  0  0  0  0  0
  148.8255  135.9499  155.4013 H   0  0  0  0  0  0  0  0  0  0  0  0
  149.7621  132.3527  156.8051 H   0  0  0  0  0  0  0  0  0  0  0  0
  151.4438  132.4072  156.2525 H   0  0  0  0  0  0  0  0  0  0  0  0
  147.6161  131.4256  150.9568 H   0  0  0  0  0  0  0  0  0  0  0  0
  144.9101  132.8178  152.9491 H   0  0  0  0  0  0  0  0  0  0  0  0
  142.6489  133.4826  151.9702 H   0  0  0  0  0  0  0  0  0  0  0  0
  143.8201  132.4402  148.1460 H   0  0  0  0  0  0  0  0  0  0  0  0
  146.1168  131.7166  148.9274 H   0  0  0  0  0  0  0  0  0  0  0  0
  142.3006  133.2498  149.6929 H   0  0  0  0  0  0  0  0  0  0  0  0
  1  2  2  0  0  0  0
  2  3  1  0  0  0  0
  2 12  1  0  0  0  0
  3  4  1  0  0  0  0
  3 19  1  0  0  0  0
  4  5  1  0  0  0  0
  4 20  1  0  0  0  0
  4 21  1  0  0  0  0
  5 11  1  0  0  0  0
  5  6  1  0  0  0  0
  5 22  1  0  0  0  0
  6  7  1  0  0  0  0
  6 23  1  0  0  0  0
  6 24  1  0  0  0  0
  7  8  1  0  0  0  0
  7 25  1  0  0  0  0
  7 26  1  0  0  0  0
  8  9  2  0  0  0  0
  8 10  2  0  0  0  0
  8 11  1  0  0  0  0
 11 27  1  0  0  0  0
 11 28  1  0  0  0  0
 12 13  1  0  0  0  0
 12 29  1  0  0  0  0
 13 18  1  0  0  0  0
 13 14  2  0  0  0  0
 14 15  1  0  0  0  0
 14 30  1  0  0  0  0
 15 16  2  0  0  0  0
 15 31  1  0  0  0  0
 16 17  1  0  0  0  0
 16 34  1  0  0  0  0
 17 18  2  0  0  0  0
 17 32  1  0  0  0  0
 18 33  1  0  0  0  0
M  CHG  1  16   1
M  END
> <s_m_source_file>
AV-unprocessed.smi

> <i_m_source_file_index>
1772

> <i_lp_mmshare_version>
43012

> <i_f3d_flags>
0

> <s_epik_input>
W2NIXTFbY0hdbltjSF1bY0hdYzFbTkhdQyg9TylbTkhdW0NIMl1bQ0BASF0oW0NIMl0yKVtDSDJdW0NIMl1TMig9Tyk9Tw==

> <s_epik_cmdline>
J2VwaWtfcHl0aG9uJywgJy1waCcsICc3LjAnLCAnLXRuJywgJzgnLCAnLW1hJywgJzIwMCcsICctbWV0YWxfYmluZGluZycsICctaW1hZScsICc8aW5maWxlLm1hZT4nLCAnLW9tYWUnLCAnPG91dGZpbGUubWFlPic=

> <r_epik_Ionization_Penalty>
1.04917

> <r_epik_Ionization_Penalty_Charging>
1.04915

> <r_epik_Ionization_Penalty_Neutral>
1.90771e-05

> <r_epik_State_Penalty>
1.10185

> <r_epik_Charging_Adjusted_Penalty>
2.151

> <i_epik_Tot_Q>
1

> <i_epik_Tot_abs_Q>
1

> <r_epik_Metal_State_Penalty>
1.19638

> <b_epik_Metal_Only>
0

> <s_lp_Force_Field>
OPLS_2005

> <r_lp_Energy>
14.8117

> <b_lp_Chiralities_Consistent>
1

> <s_lp_Variant>
AV-unprocessed.smi:1772-4

> <Gold.Version>
5.8.1

> <Gold.Id.Protein>
6NUR|6NUR_protein|mol2

> <Gold.PLP.Fitness>
52.1677

> <Gold.PLP.PLP>
-34.8761

> <Gold.PLP.part.hbond>
-5.0000

> <Gold.PLP.part.metal>
0.0000

> <Gold.PLP.part.buried>
-5.8915

> <Gold.PLP.part.nonpolar>
-25.0836

> <Gold.PLP.part.repulsive>
0.1861

> <Gold.PLP.ligand.clash>
0.0000

> <Gold.PLP.ligand.torsion>
0.2482

> <Gold.PLP.Chemscore.Hbond>
5.9280

> <Gold.PLP.Chemscore.CHOScore>
0.0000

> <Gold.PLP.Chemscore.Metal>
0.0000

> <Gold.Chemscore.Hbonds>
donor molecule, donor type, donor heavy atom, donor atom, acceptor molecule, acceptor atom, score
      L1  H     3    19       P1 10747  0.93
      L1  H    12    29       P1 10747  1.00
      L1  H    16    34       P1 10186  2.00
      P1  H  6896  6908       L1    10  1.00
      P1  H 10752 10765       L1     9  1.00

> <Gold.PLP.Chemscore.Internal.Correction>
0.0039

> <Gold.Rescore>
     Score         DG    S(hbond)    S(metal)    S(lipo)     H(rot)  DE(clash)    DE(int)     intcor
     22.54     -25.38       4.48        0.00      70.84       1.32       0.01       2.83       ----

> <Gold.Chemscore.Fitness>
22.5366

> <Gold.Chemscore.DG>
-25.3768

> <Gold.Chemscore.ZeroCoef>
-5.4800

> <Gold.Chemscore.Hbond>
4.4839

> <Gold.Chemscore.Metal>
0.0000

> <Gold.Chemscore.Lipo>
70.8351

> <Gold.Chemscore.Internal_Hbond>
0.0000

> <Gold.Chemscore.DEClash>
0.0073

> <Gold.Chemscore.DEInternal>
2.8329

> <Gold.Chemscore.Rot>
1.3153

> <Gold.Chemscore.Internal.Correction>
   9.000000E+99

> <Gold.Chemscore.Hbonds>
donor molecule, donor type, donor heavy atom, donor atom, acceptor molecule, acceptor atom, score
      L1  H     3    19       P1 10747  0.35
      L1  H    12    29       P1 10747  0.99
      L1  H    16    34       P1 10186  0.95
      P1  H  6896  6908       L1    10  0.74
      P1  H 10752 10765       L1     9  0.93

> <Gold.Chemscore.Hbond.Weighted>
-14.9764

> <Gold.Chemscore.Metal.Weighted>
-0.0000

> <Gold.Chemscore.Lipo.Weighted>
-8.2877

> <Gold.Chemscore.Internal_Hbond.Weighted>
0.0000

> <Gold.Chemscore.DEClash.Weighted>
0.0073

> <Gold.Chemscore.DEInternal.Weighted>
2.8329

> <Gold.Chemscore.Rot.Weighted>
3.3673

> <Gold.Chemscore.Internal.Correction.Weighted>
   9.000000E+99

> <Gold.Protein.RotatedTorsions>
[ 6907 6896 6895 6894 ] final  149.23 input  -60.11 | X-H torsion
[ 7974 7965 7964 7962 ] final  122.44 input  175.53 | X-H torsion
[ 8008 7997 7996 7995 ] final   71.89 input   59.86 | X-H torsion
[ 10167 10162 10161 10158 ] final  -25.41 input  -65.29 | X-H torsion
[ 10718 10713 10712 10709 ] final  -78.35 input   66.30 | X-H torsion
[ 10763 10752 10751 10750 ] final -154.57 input  -60.55 | X-H torsion
[ 11005 11000 10999 10996 ] final   65.10 input  -57.11 | X-H torsion

> <Gold.Protein.ActiveResidues>
 VAL166  LYS551  ARG553  GLY616  TRP617  ASP618  TYR619  PRO620  LYS621  CYS622 
 ASP623  PHE694  ASN695  SER759  ASP760  ASP761  ALA762  ILE779  LEU786  VAL792 
 PHE793  MET794  SER795  GLU796  ALA797  LYS798  CYS799  TRP800  GLU811  SER814 

> <Gold.Protein.RotatedAtoms>
  152.1309  133.4407  159.4719 H   0  0  0  0  0  0  0  0  0  0  0  0  # atno 6907 bound_to 6896
  150.6878  134.2422  159.4486 H   0  0  0  0  0  0  0  0  0  0  0  0  # atno 6908 bound_to 6896
  152.0306  134.9769  160.0623 H   0  0  0  0  0  0  0  0  0  0  0  0  # atno 6909 bound_to 6896
  145.1075  139.3475  143.4780 H   0  0  0  0  0  0  0  0  0  0  0  0  # atno 7974 bound_to 7965
  155.7607  140.3486  155.5196 H   0  0  0  0  0  0  0  0  0  0  0  0  # atno 8008 bound_to 7997
  155.8916  140.1019  157.1435 H   0  0  0  0  0  0  0  0  0  0  0  0  # atno 8009 bound_to 7997
  154.4034  140.1303  156.4311 H   0  0  0  0  0  0  0  0  0  0  0  0  # atno 8010 bound_to 7997
  140.7286  143.4267  151.0865 H   0  0  0  0  0  0  0  0  0  0  0  0  # atno 10167 bound_to 10162
  156.0120  130.4515  150.3483 H   0  0  0  0  0  0  0  0  0  0  0  0  # atno 10718 bound_to 10713
  154.7849  135.3187  154.7908 H   0  0  0  0  0  0  0  0  0  0  0  0  # atno 10763 bound_to 10752
  153.8610  135.6853  153.4787 H   0  0  0  0  0  0  0  0  0  0  0  0  # atno 10764 bound_to 10752
  153.1498  135.4704  154.9558 H   0  0  0  0  0  0  0  0  0  0  0  0  # atno 10765 bound_to 10752
  139.9916  134.6583  156.0081 H   0  0  0  0  0  0  0  0  0  0  0  0  # atno 11005 bound_to 11000
  146.3527  140.0980  142.8609 LP  0  0  0  0  0  0  0  0  0  0  0  0  # atno 17320 bound_to 7965
  145.0884  140.9268  143.4783 LP  0  0  0  0  0  0  0  0  0  0  0  0  # atno 17321 bound_to 7965
  139.7919  143.8206  152.3153 LP  0  0  0  0  0  0  0  0  0  0  0  0  # atno 17342 bound_to 10162
  139.8193  144.7302  150.9594 LP  0  0  0  0  0  0  0  0  0  0  0  0  # atno 17343 bound_to 10162
  157.1576  131.0337  151.2856 LP  0  0  0  0  0  0  0  0  0  0  0  0  # atno 17370 bound_to 10713
  157.4339  130.7506  149.7012 LP  0  0  0  0  0  0  0  0  0  0  0  0  # atno 17371 bound_to 10713
  141.1570  133.6542  156.4194 LP  0  0  0  0  0  0  0  0  0  0  0  0  # atno 17394 bound_to 11000
  140.4898  134.6586  157.5206 LP  0  0  0  0  0  0  0  0  0  0  0  0  # atno 17395 bound_to 11000

$$$$
