AV-unprocessed.smi:3199|AV-procd|sdf|12234|dock3
  -GOLD-   2272018 63D 1   1.00000     0.00000
 Structure written by MMmdl.
 36 37  0  0  0  0  0  0  0  0  2 V2000
  146.6806  139.1099  152.1247 C   0  0  0  0  0  0  0  0  0  0  0  0
  147.7332  139.6522  153.0686 C   0  0  0  0  0  0  0  0  0  0  0  0
  147.6384  140.9360  153.6474 C   0  0  0  0  0  0  0  0  0  0  0  0
  148.6600  141.3783  154.5134 C   0  0  0  0  0  0  0  0  0  0  0  0
  149.7563  140.5299  154.7818 C   0  0  0  0  0  0  0  0  0  0  0  0
  150.8746  140.9812  155.7011 C   0  0  0  0  0  0  0  0  0  0  0  0
  150.3474  141.6236  156.9908 C   0  0  0  0  0  0  0  0  0  0  0  0
  151.4516  141.9610  157.8776 N   0  0  0  0  0  0  0  0  0  0  0  0
  151.3110  142.4958  159.0987 C   0  0  0  0  0  0  0  0  0  0  0  0
  150.2151  142.7574  159.5957 O   0  0  0  0  0  0  0  0  0  0  0  0
  152.6096  142.7552  159.8724 C   0  0  1  0  0  0  0  0  0  0  0  0
  152.4193  143.3507  161.2816 C   0  0  0  0  0  0  0  0  0  0  0  0
  152.8723  142.2379  162.2073 C   0  0  0  0  0  0  0  0  0  0  0  0
  153.8836  141.4996  161.3419 C   0  0  0  0  0  0  0  0  0  0  0  0
  153.2681  141.5050  160.0641 O   0  0  0  0  0  0  0  0  0  0  0  0
  149.7959  139.2550  154.1775 C   0  0  0  0  0  0  0  0  0  0  0  0
  148.7969  138.8680  153.3541 N   0  3  0  0  0  0  0  0  0  0  0  0
  145.8389  139.7978  152.0382 H   0  0  0  0  0  0  0  0  0  0  0  0
  146.3017  138.1527  152.4840 H   0  0  0  0  0  0  0  0  0  0  0  0
  147.1032  138.9630  151.1303 H   0  0  0  0  0  0  0  0  0  0  0  0
  146.7956  141.5769  153.4316 H   0  0  0  0  0  0  0  0  0  0  0  0
  148.6015  142.3587  154.9637 H   0  0  0  0  0  0  0  0  0  0  0  0
  151.5023  140.1217  155.9413 H   0  0  0  0  0  0  0  0  0  0  0  0
  151.5118  141.6865  155.1653 H   0  0  0  0  0  0  0  0  0  0  0  0
  149.7835  142.5288  156.7596 H   0  0  0  0  0  0  0  0  0  0  0  0
  149.6668  140.9385  157.4996 H   0  0  0  0  0  0  0  0  0  0  0  0
  152.3862  141.7687  157.5475 H   0  0  0  0  0  0  0  0  0  0  0  0
  153.2605  143.4096  159.2896 H   0  0  0  0  0  0  0  0  0  0  0  0
  153.0678  144.2194  161.4011 H   0  0  0  0  0  0  0  0  0  0  0  0
  151.4021  143.6759  161.5031 H   0  0  0  0  0  0  0  0  0  0  0  0
  153.2956  142.6041  163.1430 H   0  0  0  0  0  0  0  0  0  0  0  0
  152.0338  141.5811  162.4426 H   0  0  0  0  0  0  0  0  0  0  0  0
  154.8299  142.0412  161.2959 H   0  0  0  0  0  0  0  0  0  0  0  0
  154.0799  140.4856  161.6911 H   0  0  0  0  0  0  0  0  0  0  0  0
  150.5913  138.5386  154.3244 H   0  0  0  0  0  0  0  0  0  0  0  0
  148.8487  137.9426  152.9271 H   0  0  0  0  0  0  0  0  0  0  0  0
  1  2  1  0  0  0  0
  1 18  1  0  0  0  0
  1 19  1  0  0  0  0
  1 20  1  0  0  0  0
  2 17  1  0  0  0  0
  2  3  2  0  0  0  0
  3  4  1  0  0  0  0
  3 21  1  0  0  0  0
  4  5  2  0  0  0  0
  4 22  1  0  0  0  0
  5  6  1  0  0  0  0
  5 16  1  0  0  0  0
  6  7  1  0  0  0  0
  6 23  1  0  0  0  0
  6 24  1  0  0  0  0
  7  8  1  0  0  0  0
  7 25  1  0  0  0  0
  7 26  1  0  0  0  0
  8  9  1  0  0  0  0
  8 27  1  0  0  0  0
  9 10  2  0  0  0  0
  9 11  1  0  0  0  0
 11 15  1  0  0  0  0
 11 12  1  0  0  0  0
 11 28  1  0  0  0  0
 12 13  1  0  0  0  0
 12 29  1  0  0  0  0
 12 30  1  0  0  0  0
 13 14  1  0  0  0  0
 13 31  1  0  0  0  0
 13 32  1  0  0  0  0
 14 15  1  0  0  0  0
 14 33  1  0  0  0  0
 14 34  1  0  0  0  0
 16 17  2  0  0  0  0
 16 35  1  0  0  0  0
 17 36  1  0  0  0  0
M  CHG  1  17   1
M  END
> <s_m_source_file>
AV-unprocessed.smi

> <i_m_source_file_index>
3199

> <i_lp_mmshare_version>
43012

> <i_f3d_flags>
0

> <s_epik_input>
W0NIM11jMVtjSF1bY0hdYyhbY0hdbjEpW0NIMl1bQ0gyXVtOSF1DKD1PKVtDQEBIXTJbQ0gyXVtDSDJdW0NIMl1PMg==

> <s_epik_cmdline>
J2VwaWtfcHl0aG9uJywgJy1waCcsICc3LjAnLCAnLXRuJywgJzgnLCAnLW1hJywgJzIwMCcsICctbWV0YWxfYmluZGluZycsICctaW1hZScsICc8aW5maWxlLm1hZT4nLCAnLW9tYWUnLCAnPG91dGZpbGUubWFlPic=

> <r_epik_Ionization_Penalty>
1.4683

> <r_epik_Ionization_Penalty_Charging>
1.4683

> <r_epik_Ionization_Penalty_Neutral>
5.71603e-08

> <r_epik_State_Penalty>
1.5559

> <r_epik_Charging_Adjusted_Penalty>
3.0242

> <i_epik_Tot_Q>
1

> <i_epik_Tot_abs_Q>
1

> <r_epik_Metal_State_Penalty>
1.60421

> <b_epik_Metal_Only>
0

> <s_lp_Force_Field>
OPLS_2005

> <r_lp_Energy>
24.4706

> <b_lp_Chiralities_Consistent>
1

> <s_lp_Variant>
AV-unprocessed.smi:3199-4

> <Gold.Version>
5.8.1

> <Gold.Id.Protein>
6NUR|6NUR_protein|mol2

> <Gold.PLP.Fitness>
48.0363

> <Gold.PLP.PLP>
-42.3800

> <Gold.PLP.part.hbond>
-3.0000

> <Gold.PLP.part.metal>
0.0000

> <Gold.PLP.part.buried>
0.6814

> <Gold.PLP.part.nonpolar>
-39.3045

> <Gold.PLP.part.repulsive>
0.1838

> <Gold.PLP.ligand.clash>
0.0000

> <Gold.PLP.ligand.torsion>
0.1763

> <Gold.PLP.Chemscore.Hbond>
2.0000

> <Gold.PLP.Chemscore.CHOScore>
0.0000

> <Gold.PLP.Chemscore.Metal>
0.0000

> <Gold.Chemscore.Hbonds>
donor molecule, donor type, donor heavy atom, donor atom, acceptor molecule, acceptor atom, score
      L1  H    17    36       P1  7948  2.00

> <Gold.PLP.Chemscore.Internal.Correction>
0.0089

> <Gold.Rescore>
     Score         DG    S(hbond)    S(metal)    S(lipo)     H(rot)  DE(clash)    DE(int)     intcor
     16.26     -16.79       0.95        0.00     103.62       1.56       0.18       0.35       ----

> <Gold.Chemscore.Fitness>
16.2605

> <Gold.Chemscore.DG>
-16.7920

> <Gold.Chemscore.ZeroCoef>
-5.4800

> <Gold.Chemscore.Hbond>
0.9537

> <Gold.Chemscore.Metal>
0.0000

> <Gold.Chemscore.Lipo>
103.6191

> <Gold.Chemscore.Internal_Hbond>
0.0000

> <Gold.Chemscore.DEClash>
0.1810

> <Gold.Chemscore.DEInternal>
0.3505

> <Gold.Chemscore.Rot>
1.5613

> <Gold.Chemscore.Internal.Correction>
   9.000000E+99

> <Gold.Chemscore.Hbonds>
donor molecule, donor type, donor heavy atom, donor atom, acceptor molecule, acceptor atom, score
      L1  H    17    36       P1  7948  0.97

> <Gold.Chemscore.Hbond.Weighted>
-3.1854

> <Gold.Chemscore.Metal.Weighted>
-0.0000

> <Gold.Chemscore.Lipo.Weighted>
-12.1234

> <Gold.Chemscore.Internal_Hbond.Weighted>
0.0000

> <Gold.Chemscore.DEClash.Weighted>
0.1810

> <Gold.Chemscore.DEInternal.Weighted>
0.3505

> <Gold.Chemscore.Rot.Weighted>
3.9969

> <Gold.Chemscore.Internal.Correction.Weighted>
   9.000000E+99

> <Gold.Protein.RotatedTorsions>
[ 6907 6896 6895 6894 ] final   43.53 input  -60.11 | X-H torsion
[ 7974 7965 7964 7962 ] final  108.37 input  175.53 | X-H torsion
[ 8008 7997 7996 7995 ] final  -45.95 input   59.86 | X-H torsion
[ 10167 10162 10161 10158 ] final  -95.20 input  -65.29 | X-H torsion
[ 10718 10713 10712 10709 ] final   44.77 input   66.30 | X-H torsion
[ 10763 10752 10751 10750 ] final -131.43 input  -60.55 | X-H torsion
[ 11005 11000 10999 10996 ] final   48.71 input  -57.11 | X-H torsion

> <Gold.Protein.ActiveResidues>
 VAL166  LYS551  ARG553  GLY616  TRP617  ASP618  TYR619  PRO620  LYS621  CYS622 
 ASP623  PHE694  ASN695  SER759  ASP760  ASP761  ALA762  ILE779  LEU786  VAL792 
 PHE793  MET794  SER795  GLU796  ALA797  LYS798  CYS799  TRP800  GLU811  SER814 

> <Gold.Protein.RotatedAtoms>
  152.2213  134.8410  160.0485 H   0  0  0  0  0  0  0  0  0  0  0  0  # atno 6907 bound_to 6896
  151.9192  133.3576  159.3899 H   0  0  0  0  0  0  0  0  0  0  0  0  # atno 6908 bound_to 6896
  150.7001  134.4578  159.5410 H   0  0  0  0  0  0  0  0  0  0  0  0  # atno 6909 bound_to 6896
  145.2815  139.2631  143.3913 H   0  0  0  0  0  0  0  0  0  0  0  0  # atno 7974 bound_to 7965
  154.4004  140.1384  156.3932 H   0  0  0  0  0  0  0  0  0  0  0  0  # atno 8008 bound_to 7997
  155.7895  140.3479  155.5321 H   0  0  0  0  0  0  0  0  0  0  0  0  # atno 8009 bound_to 7997
  155.8594  140.0954  157.1614 H   0  0  0  0  0  0  0  0  0  0  0  0  # atno 8010 bound_to 7997
  140.3066  143.3130  152.0192 H   0  0  0  0  0  0  0  0  0  0  0  0  # atno 10167 bound_to 10162
  157.4303  130.8021  149.7597 H   0  0  0  0  0  0  0  0  0  0  0  0  # atno 10718 bound_to 10713
  154.8751  135.3830  154.4245 H   0  0  0  0  0  0  0  0  0  0  0  0  # atno 10763 bound_to 10752
  153.4945  135.7030  153.5871 H   0  0  0  0  0  0  0  0  0  0  0  0  # atno 10764 bound_to 10752
  153.4230  135.3897  155.2090 H   0  0  0  0  0  0  0  0  0  0  0  0  # atno 10765 bound_to 10752
  140.1166  134.4884  155.8632 H   0  0  0  0  0  0  0  0  0  0  0  0  # atno 11005 bound_to 11000
  146.3215  140.3283  142.8638 LP  0  0  0  0  0  0  0  0  0  0  0  0  # atno 17320 bound_to 7965
  144.9249  140.7910  143.5725 LP  0  0  0  0  0  0  0  0  0  0  0  0  # atno 17321 bound_to 7965
  139.4903  144.6416  151.6866 LP  0  0  0  0  0  0  0  0  0  0  0  0  # atno 17342 bound_to 10162
  140.5604  144.0277  150.6167 LP  0  0  0  0  0  0  0  0  0  0  0  0  # atno 17343 bound_to 10162
  155.9911  130.3940  150.2999 LP  0  0  0  0  0  0  0  0  0  0  0  0  # atno 17370 bound_to 10713
  157.1155  131.0233  151.3030 LP  0  0  0  0  0  0  0  0  0  0  0  0  # atno 17371 bound_to 10713
  141.2142  133.6746  156.6809 LP  0  0  0  0  0  0  0  0  0  0  0  0  # atno 17394 bound_to 11000
  140.3020  134.8156  157.4105 LP  0  0  0  0  0  0  0  0  0  0  0  0  # atno 17395 bound_to 11000

$$$$
