AV-unprocessed.smi:748|AV-procd|sdf|3582|dock4
  -GOLD-   22720 0573D 1   1.00000     0.00000
 Structure written by MMmdl.
 50 51  0  0  0  0  0  0  0  0  1 V2000
  146.0395  134.4415  151.8689 C   0  0  0  0  0  0  0  0  0  0  0  0
  145.0849  135.4662  151.2345 C   0  0  0  0  0  0  0  0  0  0  0  0
  144.5267  134.9638  149.8961 C   0  0  0  0  0  0  0  0  0  0  0  0
  145.7623  136.7431  151.0275 N   0  0  0  0  0  0  0  0  0  0  0  0
  146.0677  137.6289  151.9888 C   0  0  0  0  0  0  0  0  0  0  0  0
  145.8047  137.4544  153.1786 O   0  0  0  0  0  0  0  0  0  0  0  0
  146.7742  138.9089  151.5367 C   0  0  0  0  0  0  0  0  0  0  0  0
  146.8035  139.9812  152.6412 C   0  0  0  0  0  0  0  0  0  0  0  0
  148.0163  139.8793  153.4437 N   0  0  0  0  0  0  0  0  0  0  0  0
  148.5674  140.8855  154.1418 C   0  0  0  0  0  0  0  0  0  0  0  0
  148.1053  142.0267  154.1667 O   0  0  0  0  0  0  0  0  0  0  0  0
  149.8491  140.5559  154.8543 C   0  0  0  0  0  0  0  0  0  0  0  0
  150.6119  139.4168  154.5131 C   0  0  0  0  0  0  0  0  0  0  0  0
  151.7882  139.1555  155.2387 C   0  0  0  0  0  0  0  0  0  0  0  0
  152.2242  139.9353  156.2488 N   0  0  0  0  0  0  0  0  0  0  0  0
  151.5008  141.0287  156.5940 C   0  0  0  0  0  0  0  0  0  0  0  0
  151.9666  141.8279  157.6613 N   0  0  0  0  0  0  0  0  0  0  0  0
  151.3471  143.1363  157.8635 C   0  0  0  0  0  0  0  0  0  0  0  0
  152.1804  143.9762  158.8453 C   0  0  0  0  0  0  0  0  0  0  0  0
  152.3602  143.2554  160.0599 O   0  0  0  0  0  0  0  0  0  0  0  0
  153.0666  142.0343  159.8590 C   0  0  1  0  0  0  0  0  0  0  0  0
  153.2938  141.3794  161.2253 C   0  0  0  0  0  0  0  0  0  0  0  0
  152.2579  141.1282  158.9103 C   0  0  0  0  0  0  0  0  0  0  0  0
  150.3020  141.3650  155.9201 C   0  0  0  0  0  0  0  0  0  0  0  0
  145.5394  133.4849  152.0226 H   0  0  0  0  0  0  0  0  0  0  0  0
  146.3987  134.7807  152.8411 H   0  0  0  0  0  0  0  0  0  0  0  0
  146.9096  134.2639  151.2360 H   0  0  0  0  0  0  0  0  0  0  0  0
  144.2417  135.6210  151.9101 H   0  0  0  0  0  0  0  0  0  0  0  0
  143.9871  134.0253  150.0245 H   0  0  0  0  0  0  0  0  0  0  0  0
  145.3241  134.7920  149.1718 H   0  0  0  0  0  0  0  0  0  0  0  0
  143.8325  135.6849  149.4630 H   0  0  0  0  0  0  0  0  0  0  0  0
  146.0143  136.9724  150.0770 H   0  0  0  0  0  0  0  0  0  0  0  0
  147.7931  138.6753  151.2234 H   0  0  0  0  0  0  0  0  0  0  0  0
  146.2571  139.2909  150.6557 H   0  0  0  0  0  0  0  0  0  0  0  0
  146.7181  140.9834  152.2164 H   0  0  0  0  0  0  0  0  0  0  0  0
  145.9500  139.8545  153.3084 H   0  0  0  0  0  0  0  0  0  0  0  0
  148.4779  138.9815  153.4649 H   0  0  0  0  0  0  0  0  0  0  0  0
  150.3106  138.7467  153.7213 H   0  0  0  0  0  0  0  0  0  0  0  0
  152.3944  138.2932  155.0042 H   0  0  0  0  0  0  0  0  0  0  0  0
  151.2643  143.6690  156.9151 H   0  0  0  0  0  0  0  0  0  0  0  0
  150.3370  143.0004  158.2521 H   0  0  0  0  0  0  0  0  0  0  0  0
  153.1496  144.2316  158.4138 H   0  0  0  0  0  0  0  0  0  0  0  0
  151.6713  144.9156  159.0612 H   0  0  0  0  0  0  0  0  0  0  0  0
  154.0393  142.2536  159.4146 H   0  0  0  0  0  0  0  0  0  0  0  0
  153.8399  140.4413  161.1248 H   0  0  0  0  0  0  0  0  0  0  0  0
  152.3474  141.1647  161.7225 H   0  0  0  0  0  0  0  0  0  0  0  0
  153.8729  142.0328  161.8783 H   0  0  0  0  0  0  0  0  0  0  0  0
  151.3148  140.8413  159.3774 H   0  0  0  0  0  0  0  0  0  0  0  0
  152.8164  140.2095  158.7386 H   0  0  0  0  0  0  0  0  0  0  0  0
  149.7222  142.2246  156.2227 H   0  0  0  0  0  0  0  0  0  0  0  0
  1  2  1  0  0  0  0
  1 25  1  0  0  0  0
  1 26  1  0  0  0  0
  1 27  1  0  0  0  0
  2  3  1  0  0  0  0
  2  4  1  0  0  0  0
  2 28  1  0  0  0  0
  3 29  1  0  0  0  0
  3 30  1  0  0  0  0
  3 31  1  0  0  0  0
  4  5  1  0  0  0  0
  4 32  1  0  0  0  0
  5  6  2  0  0  0  0
  5  7  1  0  0  0  0
  7  8  1  0  0  0  0
  7 33  1  0  0  0  0
  7 34  1  0  0  0  0
  8  9  1  0  0  0  0
  8 35  1  0  0  0  0
  8 36  1  0  0  0  0
  9 10  1  0  0  0  0
  9 37  1  0  0  0  0
 10 11  2  0  0  0  0
 10 12  1  0  0  0  0
 12 24  1  0  0  0  0
 12 13  2  0  0  0  0
 13 14  1  0  0  0  0
 13 38  1  0  0  0  0
 14 15  2  0  0  0  0
 14 39  1  0  0  0  0
 15 16  1  0  0  0  0
 16 17  1  0  0  0  0
 16 24  2  0  0  0  0
 17 23  1  0  0  0  0
 17 18  1  0  0  0  0
 18 19  1  0  0  0  0
 18 40  1  0  0  0  0
 18 41  1  0  0  0  0
 19 20  1  0  0  0  0
 19 42  1  0  0  0  0
 19 43  1  0  0  0  0
 20 21  1  0  0  0  0
 21 22  1  0  0  0  0
 21 23  1  0  0  0  0
 21 44  1  0  0  0  0
 22 45  1  0  0  0  0
 22 46  1  0  0  0  0
 22 47  1  0  0  0  0
 23 48  1  0  0  0  0
 23 49  1  0  0  0  0
 24 50  1  0  0  0  0
M  END
> <s_m_source_file>
AV-unprocessed.smi

> <i_m_source_file_index>
748

> <i_lp_mmshare_version>
43012

> <i_f3d_flags>
0

> <s_epik_input>
W0NIM11bQ0hdKFtDSDNdKVtOSF1DKD1PKVtDSDJdW0NIMl1bTkhdQyg9TyljMVtjSF1bY0hdbmMoW2NIXTEpTjJbQ0gyXVtDSDJdT1tDQEBIXShbQ0gzXSlbQ0gyXTI=

> <s_epik_cmdline>
J2VwaWtfcHl0aG9uJywgJy1waCcsICc3LjAnLCAnLXRuJywgJzgnLCAnLW1hJywgJzIwMCcsICctbWV0YWxfYmluZGluZycsICctaW1hZScsICc8aW5maWxlLm1hZT4nLCAnLW9tYWUnLCAnPG91dGZpbGUubWFlPic=

> <r_lp_tautomer_probability>
1

> <r_epik_Ionization_Penalty>
1.38678e-05

> <r_epik_Ionization_Penalty_Charging>
0

> <r_epik_Ionization_Penalty_Neutral>
1.38678e-05

> <r_epik_State_Penalty>
-0

> <r_epik_Charging_Adjusted_Penalty>
0

> <i_epik_Tot_Q>
0

> <i_epik_Tot_abs_Q>
0

> <r_epik_Metal_State_Penalty>
-0

> <b_epik_Metal_Only>
0

> <s_lp_Force_Field>
OPLS_2005

> <r_lp_Energy>
16.8499

> <b_lp_Chiralities_Consistent>
1

> <s_lp_Variant>
AV-unprocessed.smi:748-1

> <Gold.Version>
5.8.1

> <Gold.Id.Protein>
6NUR|6NUR_protein|mol2

> <Gold.PLP.Fitness>
51.2773

> <Gold.PLP.PLP>
-50.1711

> <Gold.PLP.part.hbond>
-4.0229

> <Gold.PLP.part.metal>
0.0000

> <Gold.PLP.part.buried>
1.9209

> <Gold.PLP.part.nonpolar>
-47.9067

> <Gold.PLP.part.repulsive>
0.4966

> <Gold.PLP.ligand.clash>
0.0000

> <Gold.PLP.ligand.torsion>
1.0827

> <Gold.PLP.Chemscore.Hbond>
0.9353

> <Gold.PLP.Chemscore.CHOScore>
0.0000

> <Gold.PLP.Chemscore.Metal>
0.0000

> <Gold.Chemscore.Hbonds>
donor molecule, donor type, donor heavy atom, donor atom, acceptor molecule, acceptor atom, score
      P1  H  7997  8009       L1    15  0.76

> <Gold.PLP.Chemscore.Internal.Correction>
0.4658

> <Gold.Rescore>
     Score         DG    S(hbond)    S(metal)    S(lipo)     H(rot)  DE(clash)    DE(int)     intcor
     14.74     -17.35       0.87        0.00     117.62       1.87       1.40       1.21       ----

> <Gold.Chemscore.Fitness>
14.7372

> <Gold.Chemscore.DG>
-17.3475

> <Gold.Chemscore.ZeroCoef>
-5.4800

> <Gold.Chemscore.Hbond>
0.8655

> <Gold.Chemscore.Metal>
0.0000

> <Gold.Chemscore.Lipo>
117.6223

> <Gold.Chemscore.Internal_Hbond>
0.0000

> <Gold.Chemscore.DEClash>
1.3996

> <Gold.Chemscore.DEInternal>
1.2107

> <Gold.Chemscore.Rot>
1.8692

> <Gold.Chemscore.Internal.Correction>
   9.000000E+99

> <Gold.Chemscore.Hbonds>
donor molecule, donor type, donor heavy atom, donor atom, acceptor molecule, acceptor atom, score
      P1  H  7997  8009       L1    15  0.66

> <Gold.Chemscore.Hbond.Weighted>
-2.8909

> <Gold.Chemscore.Metal.Weighted>
-0.0000

> <Gold.Chemscore.Lipo.Weighted>
-13.7618

> <Gold.Chemscore.Internal_Hbond.Weighted>
0.0000

> <Gold.Chemscore.DEClash.Weighted>
1.3996

> <Gold.Chemscore.DEInternal.Weighted>
1.2107

> <Gold.Chemscore.Rot.Weighted>
4.7852

> <Gold.Chemscore.Internal.Correction.Weighted>
   9.000000E+99

> <Gold.Protein.RotatedTorsions>
[ 6907 6896 6895 6894 ] final -138.02 input  -60.11 | X-H torsion
[ 7974 7965 7964 7962 ] final   16.26 input  175.53 | X-H torsion
[ 8008 7997 7996 7995 ] final -167.14 input   59.86 | X-H torsion
[ 10167 10162 10161 10158 ] final -151.02 input  -65.29 | X-H torsion
[ 10718 10713 10712 10709 ] final -167.01 input   66.30 | X-H torsion
[ 10763 10752 10751 10750 ] final  146.97 input  -60.55 | X-H torsion
[ 11005 11000 10999 10996 ] final  152.09 input  -57.11 | X-H torsion

> <Gold.Protein.ActiveResidues>
 VAL166  LYS551  ARG553  GLY616  TRP617  ASP618  TYR619  PRO620  LYS621  CYS622 
 ASP623  PHE694  ASN695  SER759  ASP760  ASP761  ALA762  ILE779  LEU786  VAL792 
 PHE793  MET794  SER795  GLU796  ALA797  LYS798  CYS799  TRP800  GLU811  SER814 

> <Gold.Protein.RotatedAtoms>
  151.0298  133.5801  159.2661 H   0  0  0  0  0  0  0  0  0  0  0  0  # atno 6907 bound_to 6896
  151.2887  135.0734  159.9206 H   0  0  0  0  0  0  0  0  0  0  0  0  # atno 6908 bound_to 6896
  152.5342  134.0000  159.7944 H   0  0  0  0  0  0  0  0  0  0  0  0  # atno 6909 bound_to 6896
  146.2255  139.8774  142.8577 H   0  0  0  0  0  0  0  0  0  0  0  0  # atno 7974 bound_to 7965
  155.8736  140.0997  157.1533 H   0  0  0  0  0  0  0  0  0  0  0  0  # atno 8008 bound_to 7997
  154.3999  140.1342  156.4172 H   0  0  0  0  0  0  0  0  0  0  0  0  # atno 8009 bound_to 7997
  155.7723  140.3460  155.5255 H   0  0  0  0  0  0  0  0  0  0  0  0  # atno 8010 bound_to 7997
  139.7303  143.8818  152.2532 H   0  0  0  0  0  0  0  0  0  0  0  0  # atno 10167 bound_to 10162
  156.6762  130.9104  151.3051 H   0  0  0  0  0  0  0  0  0  0  0  0  # atno 10718 bound_to 10713
  154.0307  135.2898  155.3369 H   0  0  0  0  0  0  0  0  0  0  0  0  # atno 10763 bound_to 10752
  154.6990  135.5196  153.8502 H   0  0  0  0  0  0  0  0  0  0  0  0  # atno 10764 bound_to 10752
  153.0641  135.6624  154.0520 H   0  0  0  0  0  0  0  0  0  0  0  0  # atno 10765 bound_to 10752
  140.1277  134.8822  157.2160 H   0  0  0  0  0  0  0  0  0  0  0  0  # atno 11005 bound_to 11000
  145.2547  141.0056  143.3861 LP  0  0  0  0  0  0  0  0  0  0  0  0  # atno 17320 bound_to 7965
  144.9346  139.4258  143.6478 LP  0  0  0  0  0  0  0  0  0  0  0  0  # atno 17321 bound_to 7965
  139.8740  144.7053  150.8955 LP  0  0  0  0  0  0  0  0  0  0  0  0  # atno 17342 bound_to 10162
  140.7770  143.3715  151.1640 LP  0  0  0  0  0  0  0  0  0  0  0  0  # atno 17343 bound_to 10162
  157.7060  130.9385  150.0932 LP  0  0  0  0  0  0  0  0  0  0  0  0  # atno 17370 bound_to 10713
  156.1902  130.3654  149.8920 LP  0  0  0  0  0  0  0  0  0  0  0  0  # atno 17371 bound_to 10713
  140.2882  134.3270  155.7323 LP  0  0  0  0  0  0  0  0  0  0  0  0  # atno 17394 bound_to 11000
  141.2164  133.7519  156.9465 LP  0  0  0  0  0  0  0  0  0  0  0  0  # atno 17395 bound_to 11000

$$$$
