AV-unprocessed.smi:160|AV-procd|sdf|1362|dock7
  -GOLD-   2262019 73D 1   1.00000     0.00000
 Structure written by MMmdl.
 28 29  0  0  0  0  0  0  0  0  2 V2000
  151.8779  137.3915  154.0714 N   0  5  0  0  0  0  0  0  0  0  0  0
  152.1173  138.5026  154.8017 C   0  0  0  0  0  0  0  0  0  0  0  0
  153.1375  138.7436  155.4463 O   0  0  0  0  0  0  0  0  0  0  0  0
  150.9940  139.5122  154.7943 C   0  0  0  0  0  0  0  0  0  0  0  0
  151.1029  140.6810  155.4970 N   0  0  0  0  0  0  0  0  0  0  0  0
  149.9254  141.2156  155.2036 C   0  0  0  0  0  0  0  0  0  0  0  0
  149.1618  140.4580  154.4116 N   0  0  0  0  0  0  0  0  0  0  0  0
  147.7933  140.7167  153.8641 C   0  0  1  0  0  0  0  0  0  0  0  0
  147.5867  139.8284  152.8073 O   0  0  0  0  0  0  0  0  0  0  0  0
  146.3207  139.1856  152.9372 C   0  0  1  0  0  0  0  0  0  0  0  0
  146.3232  137.8168  152.2340 C   0  0  0  0  0  0  0  0  0  0  0  0
  146.5091  137.9832  150.8444 O   0  0  0  0  0  0  0  0  0  0  0  0
  146.0707  139.1529  154.4518 C   0  0  1  0  0  0  0  0  0  0  0  0
  146.7023  138.0343  155.0501 O   0  0  0  0  0  0  0  0  0  0  0  0
  146.6731  140.4797  154.8975 C   0  0  1  0  0  0  0  0  0  0  0  0
  147.0667  140.4938  156.2600 O   0  0  0  0  0  0  0  0  0  0  0  0
  149.8540  139.3295  154.1206 N   0  0  0  0  0  0  0  0  0  0  0  0
  147.8335  141.7465  153.5072 H   0  0  0  0  0  0  0  0  0  0  0  0
  145.5657  139.8350  152.4898 H   0  0  0  0  0  0  0  0  0  0  0  0
  145.0067  139.1007  154.6844 H   0  0  0  0  0  0  0  0  0  0  0  0
  145.9333  141.2671  154.7467 H   0  0  0  0  0  0  0  0  0  0  0  0
  150.9232  137.0134  154.0568 H   0  0  0  0  0  0  0  0  0  0  0  0
  149.6107  142.1784  155.5783 H   0  0  0  0  0  0  0  0  0  0  0  0
  147.0936  137.1625  152.6437 H   0  0  0  0  0  0  0  0  0  0  0  0
  145.3634  137.3189  152.3753 H   0  0  0  0  0  0  0  0  0  0  0  0
  145.7256  138.3678  150.4825 H   0  0  0  0  0  0  0  0  0  0  0  0
  146.0451  137.3764  155.2204 H   0  0  0  0  0  0  0  0  0  0  0  0
  146.3610  140.8542  156.7744 H   0  0  0  0  0  0  0  0  0  0  0  0
  1  2  1  0  0  0  0
  1 22  1  0  0  0  0
  2  3  2  0  0  0  0
  2  4  1  0  0  0  0
  4 17  2  0  0  0  0
  4  5  1  0  0  0  0
  5  6  2  0  0  0  0
  6  7  1  0  0  0  0
  6 23  1  0  0  0  0
  7  8  1  0  0  0  0
  7 17  1  0  0  0  0
  8 18  1  0  0  0  0
  8 15  1  0  0  0  0
  8  9  1  0  0  0  0
  9 10  1  0  0  0  0
 10 19  1  0  0  0  0
 10 11  1  0  0  0  0
 10 13  1  0  0  0  0
 11 12  1  0  0  0  0
 11 24  1  0  0  0  0
 11 25  1  0  0  0  0
 12 26  1  0  0  0  0
 13 20  1  0  0  0  0
 13 14  1  0  0  0  0
 13 15  1  0  0  0  0
 14 27  1  0  0  0  0
 15 21  1  0  0  0  0
 15 16  1  0  0  0  0
 16 28  1  0  0  0  0
M  CHG  1   1  -1
M  END
> <s_m_source_file>
AV-unprocessed.smi

> <i_m_source_file_index>
160

> <i_lp_mmshare_version>
43012

> <i_f3d_flags>
0

> <s_epik_input>
W05IMl1DKD1PKWMxbltjSF1uKG4xKVtDQEBIXTJPW0NASF0oW0NIMl1bT0hdKVtDQEBIXShbT0hdKVtDQEhdMltPSF0=

> <s_epik_cmdline>
J2VwaWtfcHl0aG9uJywgJy1waCcsICc3LjAnLCAnLXRuJywgJzgnLCAnLW1hJywgJzIwMCcsICctbWV0YWxfYmluZGluZycsICctaW1hZScsICc8aW5maWxlLm1hZT4nLCAnLW9tYWUnLCAnPG91dGZpbGUubWFlPic=

> <r_lp_tautomer_probability>
1

> <r_epik_Ionization_Penalty>
6.6993

> <r_epik_Ionization_Penalty_Charging>
6.6993

> <r_epik_Ionization_Penalty_Neutral>
6.01698e-06

> <r_epik_State_Penalty>
6.69929

> <r_epik_Charging_Adjusted_Penalty>
13.3986

> <i_epik_Tot_Q>
-1

> <i_epik_Tot_abs_Q>
1

> <r_epik_Metal_State_Penalty>
2.62798

> <b_epik_Metal_Only>
1

> <s_epik_Chemistry_Notes>
This compound contains an acetal/aminal-like group ( X-CH(R)-Y where X, Y are N, S, or O) that may be acid/base labile, releasing an aldehyde.

> <s_lp_Force_Field>
OPLS_2005

> <r_lp_Energy>
51.4857

> <b_lp_Chiralities_Consistent>
1

> <s_lp_Variant>
AV-unprocessed.smi:160-20

> <Gold.Version>
5.8.1

> <Gold.Id.Protein>
6NUR|6NUR_protein|mol2

> <Gold.PLP.Fitness>
40.8126

> <Gold.PLP.PLP>
-24.5016

> <Gold.PLP.part.hbond>
-6.6784

> <Gold.PLP.part.metal>
0.0000

> <Gold.PLP.part.buried>
-1.2152

> <Gold.PLP.part.nonpolar>
-20.5772

> <Gold.PLP.part.repulsive>
4.3194

> <Gold.PLP.ligand.clash>
0.0000

> <Gold.PLP.ligand.torsion>
0.4445

> <Gold.PLP.Chemscore.Hbond>
5.0000

> <Gold.PLP.Chemscore.CHOScore>
0.7319

> <Gold.PLP.Chemscore.Metal>
0.0000

> <Gold.Chemscore.Hbonds>
donor molecule, donor type, donor heavy atom, donor atom, acceptor molecule, acceptor atom, score
      L1  H    12    26       P1 10171  1.00
      P1  H  7954  7966       L1    12  1.00
      P1  H  7997  8010       L1     3  1.00
      P1  H 10752 10765       L1     1  2.00
      L1  C     6    23       P1  8028  0.72

> <Gold.PLP.Chemscore.Internal.Correction>
0.0045

> <Gold.Rescore>
     Score         DG    S(hbond)    S(metal)    S(lipo)     H(rot)  DE(clash)    DE(int)     intcor
      6.60      -9.53       3.61        0.00      19.95       4.04       2.21       0.72       ----

> <Gold.Chemscore.Fitness>
6.5999

> <Gold.Chemscore.DG>
-9.5320

> <Gold.Chemscore.ZeroCoef>
-5.4800

> <Gold.Chemscore.Hbond>
3.6110

> <Gold.Chemscore.Metal>
0.0000

> <Gold.Chemscore.Lipo>
19.9513

> <Gold.Chemscore.Internal_Hbond>
0.0000

> <Gold.Chemscore.DEClash>
2.2079

> <Gold.Chemscore.DEInternal>
0.7242

> <Gold.Chemscore.Rot>
4.0403

> <Gold.Chemscore.Internal.Correction>
   9.000000E+99

> <Gold.Chemscore.Hbonds>
donor molecule, donor type, donor heavy atom, donor atom, acceptor molecule, acceptor atom, score
      L1  H    12    26       P1 10171  0.98
      P1  H  7954  7966       L1    12  0.97
      P1  H  7997  8010       L1     3  0.95
      P1  H 10752 10765       L1     1  0.31

> <Gold.Chemscore.Hbond.Weighted>
-12.0607

> <Gold.Chemscore.Metal.Weighted>
-0.0000

> <Gold.Chemscore.Lipo.Weighted>
-2.3343

> <Gold.Chemscore.Internal_Hbond.Weighted>
0.0000

> <Gold.Chemscore.DEClash.Weighted>
2.2079

> <Gold.Chemscore.DEInternal.Weighted>
0.7242

> <Gold.Chemscore.Rot.Weighted>
10.3431

> <Gold.Chemscore.Internal.Correction.Weighted>
   9.000000E+99

> <Gold.Protein.RotatedTorsions>
[ 6907 6896 6895 6894 ] final -108.92 input  -60.11 | X-H torsion
[ 7974 7965 7964 7962 ] final  126.25 input  175.53 | X-H torsion
[ 8008 7997 7996 7995 ] final   93.74 input   59.86 | X-H torsion
[ 10167 10162 10161 10158 ] final  -17.64 input  -65.29 | X-H torsion
[ 10718 10713 10712 10709 ] final  176.22 input   66.30 | X-H torsion
[ 10763 10752 10751 10750 ] final  148.95 input  -60.55 | X-H torsion
[ 11005 11000 10999 10996 ] final  -58.33 input  -57.11 | X-H torsion

> <Gold.Protein.ActiveResidues>
 VAL166  LYS551  ARG553  GLY616  TRP617  ASP618  TYR619  PRO620  LYS621  CYS622 
 ASP623  PHE694  ASN695  SER759  ASP760  ASP761  ALA762  ILE779  LEU786  VAL792 
 PHE793  MET794  SER795  GLU796  ALA797  LYS798  CYS799  TRP800  GLU811  SER814 

> <Gold.Protein.RotatedAtoms>
  150.7531  133.9605  159.3513 H   0  0  0  0  0  0  0  0  0  0  0  0  # atno 6907 bound_to 6896
  151.7530  135.0826  160.0343 H   0  0  0  0  0  0  0  0  0  0  0  0  # atno 6908 bound_to 6896
  152.3453  133.6078  159.5942 H   0  0  0  0  0  0  0  0  0  0  0  0  # atno 6909 bound_to 6896
  145.0638  139.3784  143.4992 H   0  0  0  0  0  0  0  0  0  0  0  0  # atno 7974 bound_to 7965
  156.0501  140.3309  155.7341 H   0  0  0  0  0  0  0  0  0  0  0  0  # atno 8008 bound_to 7997
  155.5613  140.0619  157.2845 H   0  0  0  0  0  0  0  0  0  0  0  0  # atno 8009 bound_to 7997
  154.4432  140.1877  156.0774 H   0  0  0  0  0  0  0  0  0  0  0  0  # atno 8010 bound_to 7997
  140.7249  143.4996  150.9886 H   0  0  0  0  0  0  0  0  0  0  0  0  # atno 10167 bound_to 10162
  156.9234  130.9948  151.3000 H   0  0  0  0  0  0  0  0  0  0  0  0  # atno 10718 bound_to 10713
  154.0632  135.2872  155.3321 H   0  0  0  0  0  0  0  0  0  0  0  0  # atno 10763 bound_to 10752
  154.6795  135.5269  153.8247 H   0  0  0  0  0  0  0  0  0  0  0  0  # atno 10764 bound_to 10752
  153.0514  135.6578  154.0819 H   0  0  0  0  0  0  0  0  0  0  0  0  # atno 10765 bound_to 10752
  141.1203  133.6612  156.4904 H   0  0  0  0  0  0  0  0  0  0  0  0  # atno 11005 bound_to 11000
  146.3526  140.0349  142.8647 LP  0  0  0  0  0  0  0  0  0  0  0  0  # atno 17320 bound_to 7965
  145.1376  140.9553  143.4507 LP  0  0  0  0  0  0  0  0  0  0  0  0  # atno 17321 bound_to 7965
  139.8704  143.7199  152.3167 LP  0  0  0  0  0  0  0  0  0  0  0  0  # atno 17342 bound_to 10162
  139.7446  144.7550  151.0599 LP  0  0  0  0  0  0  0  0  0  0  0  0  # atno 17343 bound_to 10162
  157.5893  130.8432  149.8636 LP  0  0  0  0  0  0  0  0  0  0  0  0  # atno 17370 bound_to 10713
  156.0480  130.3723  150.1269 LP  0  0  0  0  0  0  0  0  0  0  0  0  # atno 17371 bound_to 10713
  140.4528  134.6913  157.5048 LP  0  0  0  0  0  0  0  0  0  0  0  0  # atno 17394 bound_to 11000
  140.0154  134.6627  155.9317 LP  0  0  0  0  0  0  0  0  0  0  0  0  # atno 17395 bound_to 11000

$$$$
