AV-unprocessed.smi:775|AV-procd|sdf|3696|dock2
  -GOLD-   22720 1113D 1   1.00000     0.00000
 Structure written by MMmdl.
 39 40  0  0  0  0  0  0  0  0  2 V2000
  145.5707  135.9866  150.8005 C   0  0  0  0  0  0  0  0  0  0  0  0
  145.2609  135.3991  152.1906 C   0  0  1  0  0  0  0  0  0  0  0  0
  144.4147  134.1087  152.1202 C   0  0  0  0  0  0  0  0  0  0  0  0
  144.7364  133.2601  150.9836 N   0  0  0  0  0  0  0  0  0  0  0  0
  143.9214  132.8901  149.9336 C   0  0  0  0  0  0  0  0  0  0  0  0
  144.6569  132.0868  149.1106 C   0  0  0  0  0  0  0  0  0  0  0  0
  145.9298  132.0294  149.7437 C   0  0  0  0  0  0  0  0  0  0  0  0
  145.9744  132.7340  150.8630 N   0  0  0  0  0  0  0  0  0  0  0  0
  146.4998  135.1497  152.9620 N   0  3  0  0  0  0  0  0  0  0  0  0
  146.5117  135.6656  154.3487 C   0  0  0  0  0  0  0  0  0  0  0  0
  147.9204  136.0808  154.8024 C   0  0  0  0  0  0  0  0  0  0  0  0
  148.7643  135.2000  154.9797 O   0  0  0  0  0  0  0  0  0  0  0  0
  148.1930  137.3958  154.9939 N   0  0  0  0  0  0  0  0  0  0  0  0
  147.2382  138.4862  154.7700 C   0  0  0  0  0  0  0  0  0  0  0  0
  147.7018  139.2927  153.5444 C   0  0  0  0  0  0  0  0  0  0  0  0
  149.1338  139.5939  153.5906 N   0  0  0  0  0  0  0  0  0  0  0  0
  150.0312  138.9854  154.3880 C   0  0  0  0  0  0  0  0  0  0  0  0
  151.2193  139.2977  154.3779 O   0  0  0  0  0  0  0  0  0  0  0  0
  149.5456  137.8682  155.3321 C   0  0  0  0  0  0  0  0  0  0  0  0
  144.6607  136.0790  150.2070 H   0  0  0  0  0  0  0  0  0  0  0  0
  146.2679  135.3603  150.2434 H   0  0  0  0  0  0  0  0  0  0  0  0
  146.0061  136.9830  150.8716 H   0  0  0  0  0  0  0  0  0  0  0  0
  144.6716  136.1314  152.7445 H   0  0  0  0  0  0  0  0  0  0  0  0
  144.5448  133.5232  153.0315 H   0  0  0  0  0  0  0  0  0  0  0  0
  143.3542  134.3620  152.0729 H   0  0  0  0  0  0  0  0  0  0  0  0
  142.8965  133.2233  149.8604 H   0  0  0  0  0  0  0  0  0  0  0  0
  144.3361  131.6152  148.1935 H   0  0  0  0  0  0  0  0  0  0  0  0
  146.8164  131.5012  149.4252 H   0  0  0  0  0  0  0  0  0  0  0  0
  146.6331  134.1500  153.0168 H   0  0  0  0  0  0  0  0  0  0  0  0
  145.8510  136.5300  154.4159 H   0  0  0  0  0  0  0  0  0  0  0  0
  146.1331  134.8927  155.0183 H   0  0  0  0  0  0  0  0  0  0  0  0
  146.2035  138.1713  154.6462 H   0  0  0  0  0  0  0  0  0  0  0  0
  147.2411  139.1285  155.6523 H   0  0  0  0  0  0  0  0  0  0  0  0
  147.5032  138.7298  152.6317 H   0  0  0  0  0  0  0  0  0  0  0  0
  147.1412  140.2248  153.4700 H   0  0  0  0  0  0  0  0  0  0  0  0
  149.4680  140.3229  152.9766 H   0  0  0  0  0  0  0  0  0  0  0  0
  149.5335  138.2577  156.3506 H   0  0  0  0  0  0  0  0  0  0  0  0
  150.2929  137.0734  155.3185 H   0  0  0  0  0  0  0  0  0  0  0  0
  147.2822  135.5446  152.4596 H   0  0  0  0  0  0  0  0  0  0  0  0
  1  2  1  0  0  0  0
  1 20  1  0  0  0  0
  1 21  1  0  0  0  0
  1 22  1  0  0  0  0
  2  3  1  0  0  0  0
  2  9  1  0  0  0  0
  2 23  1  0  0  0  0
  3  4  1  0  0  0  0
  3 24  1  0  0  0  0
  3 25  1  0  0  0  0
  4  8  1  0  0  0  0
  4  5  1  0  0  0  0
  5  6  2  0  0  0  0
  5 26  1  0  0  0  0
  6  7  1  0  0  0  0
  6 27  1  0  0  0  0
  7  8  2  0  0  0  0
  7 28  1  0  0  0  0
  9 10  1  0  0  0  0
  9 29  1  0  0  0  0
  9 39  1  0  0  0  0
 10 11  1  0  0  0  0
 10 30  1  0  0  0  0
 10 31  1  0  0  0  0
 11 12  2  0  0  0  0
 11 13  1  0  0  0  0
 13 19  1  0  0  0  0
 13 14  1  0  0  0  0
 14 15  1  0  0  0  0
 14 32  1  0  0  0  0
 14 33  1  0  0  0  0
 15 16  1  0  0  0  0
 15 34  1  0  0  0  0
 15 35  1  0  0  0  0
 16 17  1  0  0  0  0
 16 36  1  0  0  0  0
 17 18  2  0  0  0  0
 17 19  1  0  0  0  0
 19 37  1  0  0  0  0
 19 38  1  0  0  0  0
M  CHG  1   9   1
M  END
> <s_m_source_file>
AV-unprocessed.smi

> <i_m_source_file_index>
775

> <i_lp_mmshare_version>
43012

> <i_f3d_flags>
0

> <s_epik_input>
bjFbY0hdW2NIXVtjSF1uMVtDSDJdW0NAQEhdKFtDSDNdKVtOSF1bQ0gyXUMoPU8pTjJbQ0gyXVtDSDJdW05IXUMoPU8pW0NIMl0y

> <s_epik_cmdline>
J2VwaWtfcHl0aG9uJywgJy1waCcsICc3LjAnLCAnLXRuJywgJzgnLCAnLW1hJywgJzIwMCcsICctbWV0YWxfYmluZGluZycsICctaW1hZScsICc8aW5maWxlLm1hZT4nLCAnLW9tYWUnLCAnPG91dGZpbGUubWFlPic=

> <r_lp_tautomer_probability>
1

> <r_epik_Ionization_Penalty>
0.165651

> <r_epik_Ionization_Penalty_Charging>
0.165647

> <r_epik_Ionization_Penalty_Neutral>
3.4358e-06

> <r_epik_State_Penalty>
0.15499

> <r_epik_Charging_Adjusted_Penalty>
0.320637

> <i_epik_Tot_Q>
1

> <i_epik_Tot_abs_Q>
1

> <r_epik_Metal_State_Penalty>
0.155003

> <b_epik_Metal_Only>
0

> <s_lp_Force_Field>
OPLS_2005

> <r_lp_Energy>
22.1436

> <b_lp_Chiralities_Consistent>
1

> <s_lp_Variant>
AV-unprocessed.smi:775-2

> <Gold.Version>
5.8.1

> <Gold.Id.Protein>
6NUR|6NUR_protein|mol2

> <Gold.PLP.Fitness>
41.8422

> <Gold.PLP.PLP>
-27.9572

> <Gold.PLP.part.hbond>
-3.0000

> <Gold.PLP.part.metal>
0.0000

> <Gold.PLP.part.buried>
-2.3988

> <Gold.PLP.part.nonpolar>
-22.6654

> <Gold.PLP.part.repulsive>
0.5404

> <Gold.PLP.ligand.clash>
0.0000

> <Gold.PLP.ligand.torsion>
1.2507

> <Gold.PLP.Chemscore.Hbond>
3.4320

> <Gold.PLP.Chemscore.CHOScore>
2.0000

> <Gold.PLP.Chemscore.Metal>
0.0000

> <Gold.Chemscore.Hbonds>
donor molecule, donor type, donor heavy atom, donor atom, acceptor molecule, acceptor atom, score
      L1  H     9    39       P1  7948  2.00
      L1  H    16    36       P1  7957  0.43
      P1  H  7989  7998       L1    18  1.00
      L1  C     5    26       P1 10186  1.00
      L1  C     7    28       P1 10747  1.00

> <Gold.PLP.Chemscore.Internal.Correction>
0.0904

> <Gold.Rescore>
     Score         DG    S(hbond)    S(metal)    S(lipo)     H(rot)  DE(clash)    DE(int)     intcor
     14.00     -15.54       2.43        0.00      64.24       2.18       0.36       1.18       ----

> <Gold.Chemscore.Fitness>
14.0032

> <Gold.Chemscore.DG>
-15.5399

> <Gold.Chemscore.ZeroCoef>
-5.4800

> <Gold.Chemscore.Hbond>
2.4345

> <Gold.Chemscore.Metal>
0.0000

> <Gold.Chemscore.Lipo>
64.2441

> <Gold.Chemscore.Internal_Hbond>
0.0000

> <Gold.Chemscore.DEClash>
0.3588

> <Gold.Chemscore.DEInternal>
1.1779

> <Gold.Chemscore.Rot>
2.1828

> <Gold.Chemscore.Internal.Correction>
   9.000000E+99

> <Gold.Chemscore.Hbonds>
donor molecule, donor type, donor heavy atom, donor atom, acceptor molecule, acceptor atom, score
      L1  H     9    39       P1  7948  1.00
      L1  H    16    36       P1  7957  0.42
      P1  H  7989  7998       L1    18  0.93

> <Gold.Chemscore.Hbond.Weighted>
-8.1314

> <Gold.Chemscore.Metal.Weighted>
-0.0000

> <Gold.Chemscore.Lipo.Weighted>
-7.5166

> <Gold.Chemscore.Internal_Hbond.Weighted>
0.0000

> <Gold.Chemscore.DEClash.Weighted>
0.3588

> <Gold.Chemscore.DEInternal.Weighted>
1.1779

> <Gold.Chemscore.Rot.Weighted>
5.5880

> <Gold.Chemscore.Internal.Correction.Weighted>
   9.000000E+99

> <Gold.Protein.RotatedTorsions>
[ 6907 6896 6895 6894 ] final  129.17 input  -60.11 | X-H torsion
[ 7974 7965 7964 7962 ] final  -33.44 input  175.53 | X-H torsion
[ 8008 7997 7996 7995 ] final -165.99 input   59.86 | X-H torsion
[ 10167 10162 10161 10158 ] final   39.20 input  -65.29 | X-H torsion
[ 10718 10713 10712 10709 ] final    3.04 input   66.30 | X-H torsion
[ 10763 10752 10751 10750 ] final  144.50 input  -60.55 | X-H torsion
[ 11005 11000 10999 10996 ] final  173.96 input  -57.11 | X-H torsion

> <Gold.Protein.ActiveResidues>
 VAL166  LYS551  ARG553  GLY616  TRP617  ASP618  TYR619  PRO620  LYS621  CYS622 
 ASP623  PHE694  ASN695  SER759  ASP760  ASP761  ALA762  ILE779  LEU786  VAL792 
 PHE793  MET794  SER795  GLU796  ALA797  LYS798  CYS799  TRP800  GLU811  SER814 

> <Gold.Protein.RotatedAtoms>
  152.3649  133.6344  159.6042 H   0  0  0  0  0  0  0  0  0  0  0  0  # atno 6907 bound_to 6896
  150.7627  133.9363  159.3451 H   0  0  0  0  0  0  0  0  0  0  0  0  # atno 6908 bound_to 6896
  151.7196  135.0898  160.0333 H   0  0  0  0  0  0  0  0  0  0  0  0  # atno 6909 bound_to 6896
  146.0910  140.5916  142.8864 H   0  0  0  0  0  0  0  0  0  0  0  0  # atno 7974 bound_to 7965
  155.8576  140.0973  157.1634 H   0  0  0  0  0  0  0  0  0  0  0  0  # atno 8008 bound_to 7997
  154.3988  140.1371  156.3983 H   0  0  0  0  0  0  0  0  0  0  0  0  # atno 8009 bound_to 7997
  155.7893  140.3456  155.5342 H   0  0  0  0  0  0  0  0  0  0  0  0  # atno 8010 bound_to 7997
  140.3863  144.1912  150.6130 H   0  0  0  0  0  0  0  0  0  0  0  0  # atno 10167 bound_to 10162
  156.8719  130.5623  149.5657 H   0  0  0  0  0  0  0  0  0  0  0  0  # atno 10718 bound_to 10713
  153.9900  135.2933  155.3413 H   0  0  0  0  0  0  0  0  0  0  0  0  # atno 10763 bound_to 10752
  154.7220  135.5105  153.8830 H   0  0  0  0  0  0  0  0  0  0  0  0  # atno 10764 bound_to 10752
  153.0814  135.6680  154.0153 H   0  0  0  0  0  0  0  0  0  0  0  0  # atno 10765 bound_to 10752
  140.3462  134.7234  157.4236 H   0  0  0  0  0  0  0  0  0  0  0  0  # atno 11005 bound_to 11000
  144.7360  140.4810  143.6903 LP  0  0  0  0  0  0  0  0  0  0  0  0  # atno 17320 bound_to 7965
  145.6038  139.1506  143.3114 LP  0  0  0  0  0  0  0  0  0  0  0  0  # atno 17321 bound_to 7965
  140.4886  143.2355  151.8852 LP  0  0  0  0  0  0  0  0  0  0  0  0  # atno 17342 bound_to 10162
  139.4792  144.5191  151.8826 LP  0  0  0  0  0  0  0  0  0  0  0  0  # atno 17343 bound_to 10162
  156.0722  130.5752  150.9405 LP  0  0  0  0  0  0  0  0  0  0  0  0  # atno 17370 bound_to 10713
  157.6191  131.0931  150.8656 LP  0  0  0  0  0  0  0  0  0  0  0  0  # atno 17371 bound_to 10713
  140.0740  134.5822  155.8610 LP  0  0  0  0  0  0  0  0  0  0  0  0  # atno 17394 bound_to 11000
  141.2025  133.6625  156.6009 LP  0  0  0  0  0  0  0  0  0  0  0  0  # atno 17395 bound_to 11000

$$$$
