AV-unprocessed.smi:438|AV-procd|sdf|2564|dock7
  -GOLD-   2262022533D 1   1.00000     0.00000
 Structure written by MMmdl.
 48 49  0  0  0  0  0  0  0  0  1 V2000
  145.9886  129.8721  152.2588 C   0  0  0  0  0  0  0  0  0  0  0  0
  146.4175  131.3287  152.2853 C   0  0  0  0  0  0  0  0  0  0  0  0
  147.5528  131.6105  153.0543 N   0  0  0  0  0  0  0  0  0  0  0  0
  147.9997  132.8230  153.1358 C   0  0  0  0  0  0  0  0  0  0  0  0
  149.4485  133.4636  154.0303 S   0  0  0  0  0  0  0  0  0  0  0  0
  148.8019  134.9904  154.7785 C   0  0  0  0  0  0  0  0  0  0  0  0
  149.9180  135.9197  155.2543 C   0  0  0  0  0  0  0  0  0  0  0  0
  151.0852  135.5301  155.2531 O   0  0  0  0  0  0  0  0  0  0  0  0
  149.5386  137.1337  155.6824 N   0  0  0  0  0  0  0  0  0  0  0  0
  150.3969  138.1533  156.2854 C   0  0  1  0  0  0  0  0  0  0  0  0
  150.7218  139.2436  155.2452 C   0  0  0  0  0  0  0  0  0  0  0  0
  149.4909  140.0968  154.8951 C   0  0  0  0  0  0  0  0  0  0  0  0
  148.8622  140.7105  156.1545 C   0  0  0  0  0  0  0  0  0  0  0  0
  148.5172  139.6319  157.1932 C   0  0  0  0  0  0  0  0  0  0  0  0
  149.7457  138.7697  157.5515 C   0  0  1  0  0  0  0  0  0  0  0  0
  149.3996  137.7235  158.6249 C   0  0  0  0  0  0  0  0  0  0  0  0
  147.3537  133.8598  152.4628 N   0  0  0  0  0  0  0  0  0  0  0  0
  146.2635  133.6908  151.6825 C   0  0  0  0  0  0  0  0  0  0  0  0
  145.7642  134.6507  151.0978 O   0  0  0  0  0  0  0  0  0  0  0  0
  145.7579  132.3093  151.6073 C   0  0  0  0  0  0  0  0  0  0  0  0
  144.5305  132.0380  150.7380 C   0  0  0  0  0  0  0  0  0  0  0  0
  144.7305  132.4259  149.2623 C   0  0  0  0  0  0  0  0  0  0  0  0
  144.0515  133.6238  148.9514 O   0  0  0  0  0  0  0  0  0  0  0  0
  144.9414  129.7687  152.5411 H   0  0  0  0  0  0  0  0  0  0  0  0
  146.5789  129.2742  152.9542 H   0  0  0  0  0  0  0  0  0  0  0  0
  146.1224  129.4541  151.2610 H   0  0  0  0  0  0  0  0  0  0  0  0
  148.1194  134.7592  155.5970 H   0  0  0  0  0  0  0  0  0  0  0  0
  148.2128  135.5118  154.0235 H   0  0  0  0  0  0  0  0  0  0  0  0
  148.5538  137.3531  155.6360 H   0  0  0  0  0  0  0  0  0  0  0  0
  151.3431  137.6962  156.5799 H   0  0  0  0  0  0  0  0  0  0  0  0
  151.5042  139.8929  155.6403 H   0  0  0  0  0  0  0  0  0  0  0  0
  151.1321  138.7920  154.3409 H   0  0  0  0  0  0  0  0  0  0  0  0
  149.7726  140.8872  154.1991 H   0  0  0  0  0  0  0  0  0  0  0  0
  148.7536  139.4825  154.3786 H   0  0  0  0  0  0  0  0  0  0  0  0
  149.5542  141.4302  156.5934 H   0  0  0  0  0  0  0  0  0  0  0  0
  147.9643  141.2686  155.8874 H   0  0  0  0  0  0  0  0  0  0  0  0
  148.1227  140.1079  158.0914 H   0  0  0  0  0  0  0  0  0  0  0  0
  147.7168  138.9991  156.8107 H   0  0  0  0  0  0  0  0  0  0  0  0
  150.4868  139.4364  157.9948 H   0  0  0  0  0  0  0  0  0  0  0  0
  148.6028  137.0557  158.2963 H   0  0  0  0  0  0  0  0  0  0  0  0
  149.0640  138.2040  159.5441 H   0  0  0  0  0  0  0  0  0  0  0  0
  150.2680  137.1120  158.8710 H   0  0  0  0  0  0  0  0  0  0  0  0
  147.7282  134.7937  152.5448 H   0  0  0  0  0  0  0  0  0  0  0  0
  143.6835  132.5961  151.1365 H   0  0  0  0  0  0  0  0  0  0  0  0
  144.2334  130.9913  150.8144 H   0  0  0  0  0  0  0  0  0  0  0  0
  145.7913  132.5692  149.0563 H   0  0  0  0  0  0  0  0  0  0  0  0
  144.3802  131.6356  148.5985 H   0  0  0  0  0  0  0  0  0  0  0  0
  144.6067  134.1489  148.3956 H   0  0  0  0  0  0  0  0  0  0  0  0
  1 24  1  0  0  0  0
  1 25  1  0  0  0  0
  1 26  1  0  0  0  0
  1  2  1  0  0  0  0
  2 20  2  0  0  0  0
  2  3  1  0  0  0  0
  3  4  2  0  0  0  0
  4  5  1  0  0  0  0
  4 17  1  0  0  0  0
  5  6  1  0  0  0  0
  6  7  1  0  0  0  0
  6 27  1  0  0  0  0
  6 28  1  0  0  0  0
  7  8  2  0  0  0  0
  7  9  1  0  0  0  0
  9 10  1  0  0  0  0
  9 29  1  0  0  0  0
 10 15  1  0  0  0  0
 10 11  1  0  0  0  0
 10 30  1  0  0  0  0
 11 12  1  0  0  0  0
 11 31  1  0  0  0  0
 11 32  1  0  0  0  0
 12 13  1  0  0  0  0
 12 33  1  0  0  0  0
 12 34  1  0  0  0  0
 13 14  1  0  0  0  0
 13 35  1  0  0  0  0
 13 36  1  0  0  0  0
 14 15  1  0  0  0  0
 14 37  1  0  0  0  0
 14 38  1  0  0  0  0
 15 16  1  0  0  0  0
 15 39  1  0  0  0  0
 16 40  1  0  0  0  0
 16 41  1  0  0  0  0
 16 42  1  0  0  0  0
 17 43  1  0  0  0  0
 17 18  1  0  0  0  0
 18 19  2  0  0  0  0
 18 20  1  0  0  0  0
 20 21  1  0  0  0  0
 21 22  1  0  0  0  0
 21 44  1  0  0  0  0
 21 45  1  0  0  0  0
 22 23  1  0  0  0  0
 22 46  1  0  0  0  0
 22 47  1  0  0  0  0
 23 48  1  0  0  0  0
M  END
> <s_m_source_file>
AV-unprocessed.smi

> <i_m_source_file_index>
438

> <i_lp_mmshare_version>
43012

> <i_f3d_flags>
0

> <s_epik_input>
W09IXVtDSDJdW0NIMl1jMWMoW09IXSluYyhuYzFbQ0gzXSlTW0NIMl1DKD1PKVtOSF1bQ0BASF0yW0NIMl1bQ0gyXVtDSDJdW0NIMl1bQ0BIXTJbQ0gzXQ==

> <s_epik_cmdline>
J2VwaWtfcHl0aG9uJywgJy1waCcsICc3LjAnLCAnLXRuJywgJzgnLCAnLW1hJywgJzIwMCcsICctbWV0YWxfYmluZGluZycsICctaW1hZScsICc8aW5maWxlLm1hZT4nLCAnLW9tYWUnLCAnPG91dGZpbGUubWFlPic=

> <r_lp_tautomer_probability>
0.660323

> <r_epik_Ionization_Penalty>
0.00860626

> <r_epik_Ionization_Penalty_Charging>
0.00860522

> <r_epik_Ionization_Penalty_Neutral>
1.04215e-06

> <r_epik_State_Penalty>
0.156825

> <r_epik_Charging_Adjusted_Penalty>
0.16543

> <i_epik_Tot_Q>
0

> <i_epik_Tot_abs_Q>
0

> <r_epik_Metal_State_Penalty>
0.752038

> <b_epik_Metal_Only>
0

> <s_lp_Force_Field>
OPLS_2005

> <r_lp_Energy>
10.8925

> <b_lp_Chiralities_Consistent>
1

> <s_lp_Variant>
AV-unprocessed.smi:438-2

> <Gold.Version>
5.8.1

> <Gold.Id.Protein>
6NUR|6NUR_protein|mol2

> <Gold.PLP.Fitness>
44.9361

> <Gold.PLP.PLP>
-37.6250

> <Gold.PLP.part.hbond>
-3.5268

> <Gold.PLP.part.metal>
0.0000

> <Gold.PLP.part.buried>
-5.6871

> <Gold.PLP.part.nonpolar>
-28.6836

> <Gold.PLP.part.repulsive>
0.4271

> <Gold.PLP.ligand.clash>
0.0000

> <Gold.PLP.ligand.torsion>
0.8706

> <Gold.PLP.Chemscore.Hbond>
3.0000

> <Gold.PLP.Chemscore.CHOScore>
0.0000

> <Gold.PLP.Chemscore.Metal>
0.0000

> <Gold.Chemscore.Hbonds>
donor molecule, donor type, donor heavy atom, donor atom, acceptor molecule, acceptor atom, score
      L1  H    17    43       P1  7948  0.96
      L1  H    23    48       P1  7921  1.00
      P1  H 10752 10765       L1     8  0.96

> <Gold.PLP.Chemscore.Internal.Correction>
0.0522

> <Gold.Rescore>
     Score         DG    S(hbond)    S(metal)    S(lipo)     H(rot)  DE(clash)    DE(int)     intcor
     16.19     -17.17       2.88        0.00      80.49       2.86       0.19       0.78       ----

> <Gold.Chemscore.Fitness>
16.1919

> <Gold.Chemscore.DG>
-17.1708

> <Gold.Chemscore.ZeroCoef>
-5.4800

> <Gold.Chemscore.Hbond>
2.8761

> <Gold.Chemscore.Metal>
0.0000

> <Gold.Chemscore.Lipo>
80.4942

> <Gold.Chemscore.Internal_Hbond>
0.0000

> <Gold.Chemscore.DEClash>
0.1947

> <Gold.Chemscore.DEInternal>
0.7841

> <Gold.Chemscore.Rot>
2.8645

> <Gold.Chemscore.Internal.Correction>
   9.000000E+99

> <Gold.Chemscore.Hbonds>
donor molecule, donor type, donor heavy atom, donor atom, acceptor molecule, acceptor atom, score
      L1  H    17    43       P1  7948  0.80
      L1  H    23    48       P1  7921  1.00
      P1  H 10752 10765       L1     8  0.89

> <Gold.Chemscore.Hbond.Weighted>
-9.6061

> <Gold.Chemscore.Metal.Weighted>
-0.0000

> <Gold.Chemscore.Lipo.Weighted>
-9.4178

> <Gold.Chemscore.Internal_Hbond.Weighted>
0.0000

> <Gold.Chemscore.DEClash.Weighted>
0.1947

> <Gold.Chemscore.DEInternal.Weighted>
0.7841

> <Gold.Chemscore.Rot.Weighted>
7.3331

> <Gold.Chemscore.Internal.Correction.Weighted>
   9.000000E+99

> <Gold.Protein.RotatedTorsions>
[ 6907 6896 6895 6894 ] final  134.41 input  -60.11 | X-H torsion
[ 7974 7965 7964 7962 ] final   98.59 input  175.53 | X-H torsion
[ 8008 7997 7996 7995 ] final -133.71 input   59.86 | X-H torsion
[ 10167 10162 10161 10158 ] final  -36.77 input  -65.29 | X-H torsion
[ 10718 10713 10712 10709 ] final -115.49 input   66.30 | X-H torsion
[ 10763 10752 10751 10750 ] final  171.20 input  -60.55 | X-H torsion
[ 11005 11000 10999 10996 ] final   77.28 input  -57.11 | X-H torsion

> <Gold.Protein.ActiveResidues>
 VAL166  LYS551  ARG553  GLY616  TRP617  ASP618  TYR619  PRO620  LYS621  CYS622 
 ASP623  PHE694  ASN695  SER759  ASP760  ASP761  ALA762  ILE779  LEU786  VAL792 
 PHE793  MET794  SER795  GLU796  ALA797  LYS798  CYS799  TRP800  GLU811  SER814 

> <Gold.Protein.RotatedAtoms>
  152.3116  133.5759  159.5684 H   0  0  0  0  0  0  0  0  0  0  0  0  # atno 6907 bound_to 6896
  150.7326  134.0144  159.3689 H   0  0  0  0  0  0  0  0  0  0  0  0  # atno 6908 bound_to 6896
  151.8036  135.0702  160.0454 H   0  0  0  0  0  0  0  0  0  0  0  0  # atno 6909 bound_to 6896
  145.4101  139.2335  143.3252 H   0  0  0  0  0  0  0  0  0  0  0  0  # atno 7974 bound_to 7965
  155.3500  140.0477  157.3046 H   0  0  0  0  0  0  0  0  0  0  0  0  # atno 8008 bound_to 7997
  154.5232  140.2232  155.8901 H   0  0  0  0  0  0  0  0  0  0  0  0  # atno 8009 bound_to 7997
  156.1712  140.3095  155.8983 H   0  0  0  0  0  0  0  0  0  0  0  0  # atno 8010 bound_to 7997
  140.7135  143.3386  151.2406 H   0  0  0  0  0  0  0  0  0  0  0  0  # atno 10167 bound_to 10162
  156.0899  130.6083  150.8912 H   0  0  0  0  0  0  0  0  0  0  0  0  # atno 10718 bound_to 10713
  154.4085  135.2756  155.2052 H   0  0  0  0  0  0  0  0  0  0  0  0  # atno 10763 bound_to 10752
  154.4048  135.6036  153.5921 H   0  0  0  0  0  0  0  0  0  0  0  0  # atno 10764 bound_to 10752
  152.9831  135.5935  154.4363 H   0  0  0  0  0  0  0  0  0  0  0  0  # atno 10765 bound_to 10752
  139.9261  134.7670  156.1502 H   0  0  0  0  0  0  0  0  0  0  0  0  # atno 11005 bound_to 11000
  146.2709  140.4812  142.8815 LP  0  0  0  0  0  0  0  0  0  0  0  0  # atno 17320 bound_to 7965
  144.8314  140.6713  143.6288 LP  0  0  0  0  0  0  0  0  0  0  0  0  # atno 17321 bound_to 7965
  139.6888  143.9727  152.2848 LP  0  0  0  0  0  0  0  0  0  0  0  0  # atno 17342 bound_to 10162
  139.9382  144.6698  150.8293 LP  0  0  0  0  0  0  0  0  0  0  0  0  # atno 17343 bound_to 10162
  157.6045  131.0939  150.8903 LP  0  0  0  0  0  0  0  0  0  0  0  0  # atno 17370 bound_to 10713
  156.9054  130.5261  149.5281 LP  0  0  0  0  0  0  0  0  0  0  0  0  # atno 17371 bound_to 10713
  141.0820  133.6750  156.2355 LP  0  0  0  0  0  0  0  0  0  0  0  0  # atno 17394 bound_to 11000
  140.6332  134.5242  157.5562 LP  0  0  0  0  0  0  0  0  0  0  0  0  # atno 17395 bound_to 11000

$$$$
