AV-unprocessed.smi:2119|AV-procd|sdf|8635|dock2
  -GOLD-   2272011383D 1   1.00000     0.00000
 Structure written by MMmdl.
 48 50  0  0  0  0  0  0  0  0  2 V2000
  144.4750  136.7828  151.9611 O   0  0  0  0  0  0  0  0  0  0  0  0
  145.6664  136.4803  151.8997 C   0  0  0  0  0  0  0  0  0  0  0  0
  146.6583  137.3281  152.2049 N   0  0  0  0  0  0  0  0  0  0  0  0
  146.4751  138.7034  152.6532 C   0  0  0  0  0  0  0  0  0  0  0  0
  147.7199  139.3083  153.3651 C   0  0  1  0  0  0  0  0  0  0  0  0
  147.3746  140.3260  154.4902 C   0  0  2  0  0  0  0  0  0  0  0  0
  146.3807  141.4194  154.1211 C   0  0  0  0  0  0  0  0  0  0  0  0
  146.6781  142.5353  155.1236 C   0  0  0  0  0  0  0  0  0  0  0  0
  147.9754  142.2696  155.6444 O   0  0  0  0  0  0  0  0  0  0  0  0
  148.5585  141.1933  154.9276 C   0  0  0  0  0  0  0  0  0  0  0  0
  148.6201  138.2430  153.9011 N   0  3  0  0  0  0  0  0  0  0  0  0
  150.0136  138.6568  154.2053 C   0  0  0  0  0  0  0  0  0  0  0  0
  150.8581  137.4231  154.5644 C   0  0  0  0  0  0  0  0  0  0  0  0
  150.2667  136.7478  155.6683 O   0  0  0  0  0  0  0  0  0  0  0  0
  148.9557  136.2804  155.3724 C   0  0  0  0  0  0  0  0  0  0  0  0
  148.0441  137.4712  155.0295 C   0  0  0  0  0  0  0  0  0  0  0  0
  146.1506  135.2867  151.5174 N   0  0  0  0  0  0  0  0  0  0  0  0
  145.4332  134.1143  151.1580 C   0  0  0  0  0  0  0  0  0  0  0  0
  146.0076  132.9970  150.5050 C   0  0  0  0  0  0  0  0  0  0  0  0
  145.1833  131.9026  150.1800 C   0  0  0  0  0  0  0  0  0  0  0  0
  143.8166  131.9669  150.5136 C   0  0  0  0  0  0  0  0  0  0  0  0
  143.2534  133.0302  151.1250 N   0  0  0  0  0  0  0  0  0  0  0  0
  144.0494  134.0763  151.4320 C   0  0  0  0  0  0  0  0  0  0  0  0
  147.6090  136.9988  152.1196 H   0  0  0  0  0  0  0  0  0  0  0  0
  146.2226  139.2912  151.7708 H   0  0  0  0  0  0  0  0  0  0  0  0
  145.5989  138.7351  153.3015 H   0  0  0  0  0  0  0  0  0  0  0  0
  148.3053  139.8532  152.6234 H   0  0  0  0  0  0  0  0  0  0  0  0
  146.9902  139.7989  155.3645 H   0  0  0  0  0  0  0  0  0  0  0  0
  146.5698  141.7782  153.1082 H   0  0  0  0  0  0  0  0  0  0  0  0
  145.3420  141.0942  154.1759 H   0  0  0  0  0  0  0  0  0  0  0  0
  146.6425  143.5180  154.6522 H   0  0  0  0  0  0  0  0  0  0  0  0
  145.9614  142.5281  155.9452 H   0  0  0  0  0  0  0  0  0  0  0  0
  149.2733  140.6543  155.5500 H   0  0  0  0  0  0  0  0  0  0  0  0
  149.0915  141.5910  154.0621 H   0  0  0  0  0  0  0  0  0  0  0  0
  150.4587  139.1646  153.3501 H   0  0  0  0  0  0  0  0  0  0  0  0
  150.0283  139.3566  155.0416 H   0  0  0  0  0  0  0  0  0  0  0  0
  150.9454  136.7479  153.7117 H   0  0  0  0  0  0  0  0  0  0  0  0
  151.8694  137.7262  154.8360 H   0  0  0  0  0  0  0  0  0  0  0  0
  148.9898  135.5663  154.5479 H   0  0  0  0  0  0  0  0  0  0  0  0
  148.5665  135.7466  156.2397 H   0  0  0  0  0  0  0  0  0  0  0  0
  147.9296  138.1101  155.9053 H   0  0  0  0  0  0  0  0  0  0  0  0
  147.0512  137.1051  154.7662 H   0  0  0  0  0  0  0  0  0  0  0  0
  147.1543  135.2205  151.4319 H   0  0  0  0  0  0  0  0  0  0  0  0
  147.0515  132.9627  150.2346 H   0  0  0  0  0  0  0  0  0  0  0  0
  145.5892  131.0349  149.6811 H   0  0  0  0  0  0  0  0  0  0  0  0
  143.1568  131.1451  150.2770 H   0  0  0  0  0  0  0  0  0  0  0  0
  143.5639  134.9110  151.9167 H   0  0  0  0  0  0  0  0  0  0  0  0
  148.6966  137.5738  153.1484 H   0  0  0  0  0  0  0  0  0  0  0  0
  1  2  2  0  0  0  0
  2  3  1  0  0  0  0
  2 17  1  0  0  0  0
  3  4  1  0  0  0  0
  3 24  1  0  0  0  0
  4  5  1  0  0  0  0
  4 25  1  0  0  0  0
  4 26  1  0  0  0  0
  5  6  1  0  0  0  0
  5 11  1  0  0  0  0
  5 27  1  0  0  0  0
  6 10  1  0  0  0  0
  6  7  1  0  0  0  0
  6 28  1  0  0  0  0
  7  8  1  0  0  0  0
  7 29  1  0  0  0  0
  7 30  1  0  0  0  0
  8  9  1  0  0  0  0
  8 31  1  0  0  0  0
  8 32  1  0  0  0  0
  9 10  1  0  0  0  0
 10 33  1  0  0  0  0
 10 34  1  0  0  0  0
 11 16  1  0  0  0  0
 11 12  1  0  0  0  0
 11 48  1  0  0  0  0
 12 13  1  0  0  0  0
 12 35  1  0  0  0  0
 12 36  1  0  0  0  0
 13 14  1  0  0  0  0
 13 37  1  0  0  0  0
 13 38  1  0  0  0  0
 14 15  1  0  0  0  0
 15 16  1  0  0  0  0
 15 39  1  0  0  0  0
 15 40  1  0  0  0  0
 16 41  1  0  0  0  0
 16 42  1  0  0  0  0
 17 18  1  0  0  0  0
 17 43  1  0  0  0  0
 18 23  1  0  0  0  0
 18 19  2  0  0  0  0
 19 20  1  0  0  0  0
 19 44  1  0  0  0  0
 20 21  2  0  0  0  0
 20 45  1  0  0  0  0
 21 22  1  0  0  0  0
 21 46  1  0  0  0  0
 22 23  2  0  0  0  0
 23 47  1  0  0  0  0
M  CHG  1  11   1
M  END
> <s_m_source_file>
AV-unprocessed.smi

> <i_m_source_file_index>
2119

> <i_lp_mmshare_version>
43012

> <i_f3d_flags>
0

> <s_epik_input>
W2NIXTFuW2NIXVtjSF1bY0hdYzFbTkhdQyg9TylbTkhdW0NIMl1bQ0BIXShbQ0BASF0yW0NIMl1bQ0gyXU9bQ0gyXTIpTjNbQ0gyXVtDSDJdT1tDSDJdW0NIMl0z

> <s_epik_cmdline>
J2VwaWtfcHl0aG9uJywgJy1waCcsICc3LjAnLCAnLXRuJywgJzgnLCAnLW1hJywgJzIwMCcsICctbWV0YWxfYmluZGluZycsICctaW1hZScsICc8aW5maWxlLm1hZT4nLCAnLW9tYWUnLCAnPG91dGZpbGUubWFlPic=

> <r_epik_Ionization_Penalty>
0.987463

> <r_epik_Ionization_Penalty_Charging>
0.98326

> <r_epik_Ionization_Penalty_Neutral>
0.00420251

> <r_epik_State_Penalty>
1.01721

> <r_epik_Charging_Adjusted_Penalty>
2.00047

> <i_epik_Tot_Q>
1

> <i_epik_Tot_abs_Q>
1

> <r_epik_Metal_State_Penalty>
1.01439

> <b_epik_Metal_Only>
0

> <s_lp_Force_Field>
OPLS_2005

> <r_lp_Energy>
39.9972

> <b_lp_Chiralities_Consistent>
1

> <s_lp_Variant>
AV-unprocessed.smi:2119-6

> <Gold.Version>
5.8.1

> <Gold.Id.Protein>
6NUR|6NUR_protein|mol2

> <Gold.PLP.Fitness>
46.4176

> <Gold.PLP.PLP>
-33.8334

> <Gold.PLP.part.hbond>
-3.0000

> <Gold.PLP.part.metal>
0.0000

> <Gold.PLP.part.buried>
-5.4336

> <Gold.PLP.part.nonpolar>
-31.6058

> <Gold.PLP.part.repulsive>
5.7114

> <Gold.PLP.ligand.clash>
0.0000

> <Gold.PLP.ligand.torsion>
0.8919

> <Gold.PLP.Chemscore.Hbond>
3.8882

> <Gold.PLP.Chemscore.CHOScore>
0.8044

> <Gold.PLP.Chemscore.Metal>
0.0000

> <Gold.Chemscore.Hbonds>
donor molecule, donor type, donor heavy atom, donor atom, acceptor molecule, acceptor atom, score
      L1  H     3    24       P1  7948  1.00
      L1  H    11    48       P1  7948  2.00
      L1  H    17    43       P1  7948  0.83
      L1  C    21    46       P1 10952  0.90

> <Gold.PLP.Chemscore.Internal.Correction>
0.2903

> <Gold.Rescore>
     Score         DG    S(hbond)    S(metal)    S(lipo)     H(rot)  DE(clash)    DE(int)     intcor
     17.23     -21.21       2.79        0.00      91.96       1.70       1.46       2.52       ----

> <Gold.Chemscore.Fitness>
17.2273

> <Gold.Chemscore.DG>
-21.2112

> <Gold.Chemscore.ZeroCoef>
-5.4800

> <Gold.Chemscore.Hbond>
2.7933

> <Gold.Chemscore.Metal>
0.0000

> <Gold.Chemscore.Lipo>
91.9584

> <Gold.Chemscore.Internal_Hbond>
0.0000

> <Gold.Chemscore.DEClash>
1.4618

> <Gold.Chemscore.DEInternal>
2.5221

> <Gold.Chemscore.Rot>
1.7021

> <Gold.Chemscore.Internal.Correction>
   9.000000E+99

> <Gold.Chemscore.Hbonds>
donor molecule, donor type, donor heavy atom, donor atom, acceptor molecule, acceptor atom, score
      L1  H     3    24       P1  7948  0.95
      L1  H    11    48       P1  7948  1.00
      L1  H    17    43       P1  7948  0.69

> <Gold.Chemscore.Hbond.Weighted>
-9.3295

> <Gold.Chemscore.Metal.Weighted>
-0.0000

> <Gold.Chemscore.Lipo.Weighted>
-10.7591

> <Gold.Chemscore.Internal_Hbond.Weighted>
0.0000

> <Gold.Chemscore.DEClash.Weighted>
1.4618

> <Gold.Chemscore.DEInternal.Weighted>
2.5221

> <Gold.Chemscore.Rot.Weighted>
4.3575

> <Gold.Chemscore.Internal.Correction.Weighted>
   9.000000E+99

> <Gold.Protein.RotatedTorsions>
[ 6907 6896 6895 6894 ] final   73.14 input  -60.11 | X-H torsion
[ 7974 7965 7964 7962 ] final   -2.09 input  175.53 | X-H torsion
[ 8008 7997 7996 7995 ] final  -82.96 input   59.86 | X-H torsion
[ 10167 10162 10161 10158 ] final -124.89 input  -65.29 | X-H torsion
[ 10718 10713 10712 10709 ] final   -8.96 input   66.30 | X-H torsion
[ 10763 10752 10751 10750 ] final  112.90 input  -60.55 | X-H torsion
[ 11005 11000 10999 10996 ] final  -71.82 input  -57.11 | X-H torsion

> <Gold.Protein.ActiveResidues>
 VAL166  LYS551  ARG553  GLY616  TRP617  ASP618  TYR619  PRO620  LYS621  CYS622 
 ASP623  PHE694  ASN695  SER759  ASP760  ASP761  ALA762  ILE779  LEU786  VAL792 
 PHE793  MET794  SER795  GLU796  ALA797  LYS798  CYS799  TRP800  GLU811  SER814 

> <Gold.Protein.RotatedAtoms>
  152.4907  134.4466  159.9560 H   0  0  0  0  0  0  0  0  0  0  0  0  # atno 6907 bound_to 6896
  151.4453  133.3626  159.2795 H   0  0  0  0  0  0  0  0  0  0  0  0  # atno 6908 bound_to 6896
  150.9059  134.8497  159.7452 H   0  0  0  0  0  0  0  0  0  0  0  0  # atno 6909 bound_to 6896
  146.2409  140.1519  142.8334 H   0  0  0  0  0  0  0  0  0  0  0  0  # atno 7974 bound_to 7965
  154.6141  140.0625  156.9531 H   0  0  0  0  0  0  0  0  0  0  0  0  # atno 8008 bound_to 7997
  155.1925  140.3308  155.4338 H   0  0  0  0  0  0  0  0  0  0  0  0  # atno 8009 bound_to 7997
  156.2394  140.1878  156.7014 H   0  0  0  0  0  0  0  0  0  0  0  0  # atno 8010 bound_to 7997
  139.9880  143.5672  152.2353 H   0  0  0  0  0  0  0  0  0  0  0  0  # atno 10167 bound_to 10162
  156.6950  130.5076  149.5933 H   0  0  0  0  0  0  0  0  0  0  0  0  # atno 10718 bound_to 10713
  153.4846  135.3672  155.2460 H   0  0  0  0  0  0  0  0  0  0  0  0  # atno 10763 bound_to 10752
  154.8754  135.3962  154.3660 H   0  0  0  0  0  0  0  0  0  0  0  0  # atno 10764 bound_to 10752
  153.4270  135.7081  153.6321 H   0  0  0  0  0  0  0  0  0  0  0  0  # atno 10765 bound_to 10752
  141.1598  133.6828  156.6965 H   0  0  0  0  0  0  0  0  0  0  0  0  # atno 11005 bound_to 11000
  145.0161  140.8754  143.5195 LP  0  0  0  0  0  0  0  0  0  0  0  0  # atno 17320 bound_to 7965
  145.1560  139.2486  143.5416 LP  0  0  0  0  0  0  0  0  0  0  0  0  # atno 17321 bound_to 7965
  139.6361  144.7650  151.2435 LP  0  0  0  0  0  0  0  0  0  0  0  0  # atno 17342 bound_to 10162
  140.7465  143.6396  150.8347 LP  0  0  0  0  0  0  0  0  0  0  0  0  # atno 17343 bound_to 10162
  156.1770  130.6474  151.0906 LP  0  0  0  0  0  0  0  0  0  0  0  0  # atno 17370 bound_to 10713
  157.6994  131.0781  150.6866 LP  0  0  0  0  0  0  0  0  0  0  0  0  # atno 17371 bound_to 10713
  140.2991  134.8178  157.4082 LP  0  0  0  0  0  0  0  0  0  0  0  0  # atno 17394 bound_to 11000
  140.1278  134.5135  155.8130 LP  0  0  0  0  0  0  0  0  0  0  0  0  # atno 17395 bound_to 11000

$$$$
