AV-unprocessed.smi:295|AV-procd|sdf|2256|dock1
  -GOLD-   2262022143D 1   1.00000     0.00000
 Structure written by MMmdl.
 35 36  0  0  0  0  0  0  0  0  1 V2000
  153.3702  141.6052  160.7231 C   0  0  0  0  0  0  0  0  0  0  0  0
  153.1349  143.0233  160.1729 C   0  0  2  0  0  0  0  0  0  0  0  0
  152.0442  143.7608  160.9778 C   0  0  0  0  0  0  0  0  0  0  0  0
  151.8397  145.1967  160.4702 C   0  0  0  0  0  0  0  0  0  0  0  0
  151.5137  145.2182  158.9697 C   0  0  0  0  0  0  0  0  0  0  0  0
  152.5946  144.4865  158.1544 C   0  0  0  0  0  0  0  0  0  0  0  0
  152.8279  143.0460  158.6526 C   0  0  2  0  0  0  0  0  0  0  0  0
  151.6662  142.2163  158.3368 N   0  0  0  0  0  0  0  0  0  0  0  0
  151.6799  140.9188  157.9936 C   0  0  0  0  0  0  0  0  0  0  0  0
  152.7072  140.2704  157.7981 O   0  0  0  0  0  0  0  0  0  0  0  0
  150.3138  140.2407  157.8914 C   0  0  0  0  0  0  0  0  0  0  0  0
  150.4702  138.8014  157.7768 N   0  0  0  0  0  0  0  0  0  0  0  0
  150.2977  137.8352  158.6849 C   0  0  0  0  0  0  0  0  0  0  0  0
  150.4834  136.6096  158.2102 N   0  0  0  0  0  0  0  0  0  0  0  0
  150.7876  136.9265  156.9181 C   0  0  0  0  0  0  0  0  0  0  0  0
  151.0702  135.8994  155.9303 C   0  0  0  0  0  0  0  0  0  0  0  0
  151.2948  135.0809  155.1438 N   0  0  0  0  0  0  0  0  0  0  0  0
  150.8018  138.2185  156.5981 N   0  0  0  0  0  0  0  0  0  0  0  0
  152.4608  141.0042  160.6971 H   0  0  0  0  0  0  0  0  0  0  0  0
  153.7073  141.6412  161.7593 H   0  0  0  0  0  0  0  0  0  0  0  0
  154.1330  141.0816  160.1466 H   0  0  0  0  0  0  0  0  0  0  0  0
  154.0670  143.5721  160.3154 H   0  0  0  0  0  0  0  0  0  0  0  0
  151.1018  143.2144  160.9178 H   0  0  0  0  0  0  0  0  0  0  0  0
  152.3151  143.7853  162.0338 H   0  0  0  0  0  0  0  0  0  0  0  0
  151.0385  145.6781  161.0314 H   0  0  0  0  0  0  0  0  0  0  0  0
  152.7418  145.7810  160.6564 H   0  0  0  0  0  0  0  0  0  0  0  0
  150.5419  144.7532  158.7998 H   0  0  0  0  0  0  0  0  0  0  0  0
  151.4245  146.2487  158.6247 H   0  0  0  0  0  0  0  0  0  0  0  0
  152.3253  144.4809  157.0974 H   0  0  0  0  0  0  0  0  0  0  0  0
  153.5297  145.0433  158.2246 H   0  0  0  0  0  0  0  0  0  0  0  0
  153.7010  142.6583  158.1249 H   0  0  0  0  0  0  0  0  0  0  0  0
  150.7633  142.6503  158.4655 H   0  0  0  0  0  0  0  0  0  0  0  0
  149.7112  140.4754  158.7701 H   0  0  0  0  0  0  0  0  0  0  0  0
  149.7738  140.6080  157.0175 H   0  0  0  0  0  0  0  0  0  0  0  0
  150.0161  138.0327  159.7089 H   0  0  0  0  0  0  0  0  0  0  0  0
  1  2  1  0  0  0  0
  1 19  1  0  0  0  0
  1 20  1  0  0  0  0
  1 21  1  0  0  0  0
  2  7  1  0  0  0  0
  2  3  1  0  0  0  0
  2 22  1  0  0  0  0
  3  4  1  0  0  0  0
  3 23  1  0  0  0  0
  3 24  1  0  0  0  0
  4  5  1  0  0  0  0
  4 25  1  0  0  0  0
  4 26  1  0  0  0  0
  5  6  1  0  0  0  0
  5 27  1  0  0  0  0
  5 28  1  0  0  0  0
  6  7  1  0  0  0  0
  6 29  1  0  0  0  0
  6 30  1  0  0  0  0
  7  8  1  0  0  0  0
  7 31  1  0  0  0  0
  8  9  1  0  0  0  0
  8 32  1  0  0  0  0
  9 10  2  0  0  0  0
  9 11  1  0  0  0  0
 11 12  1  0  0  0  0
 11 33  1  0  0  0  0
 11 34  1  0  0  0  0
 12 18  1  0  0  0  0
 12 13  1  0  0  0  0
 13 14  2  0  0  0  0
 13 35  1  0  0  0  0
 14 15  1  0  0  0  0
 15 16  1  0  0  0  0
 15 18  2  0  0  0  0
 16 17  3  0  0  0  0
M  END
> <s_m_source_file>
AV-unprocessed.smi

> <i_m_source_file_index>
295

> <i_lp_mmshare_version>
43012

> <i_f3d_flags>
0

> <s_epik_input>
W0NIM11bQ0BASF0xW0NIMl1bQ0gyXVtDSDJdW0NIMl1bQ0BIXTFbTkhdQyg9TylbQ0gyXW4yW2NIXW5jKG4yKUMjTg==

> <s_epik_cmdline>
J2VwaWtfcHl0aG9uJywgJy1waCcsICc3LjAnLCAnLXRuJywgJzgnLCAnLW1hJywgJzIwMCcsICctbWV0YWxfYmluZGluZycsICctaW1hZScsICc8aW5maWxlLm1hZT4nLCAnLW9tYWUnLCAnPG91dGZpbGUubWFlPic=

> <r_lp_tautomer_probability>
1

> <r_epik_Ionization_Penalty>
5.31112e-08

> <r_epik_Ionization_Penalty_Charging>
0

> <r_epik_Ionization_Penalty_Neutral>
5.31112e-08

> <r_epik_State_Penalty>
-0

> <r_epik_Charging_Adjusted_Penalty>
0

> <i_epik_Tot_Q>
0

> <i_epik_Tot_abs_Q>
0

> <r_epik_Metal_State_Penalty>
-0

> <b_epik_Metal_Only>
0

> <s_lp_Force_Field>
OPLS_2005

> <r_lp_Energy>
12.1326

> <b_lp_Chiralities_Consistent>
1

> <s_lp_Variant>
AV-unprocessed.smi:295-3

> <Gold.Version>
5.8.1

> <Gold.Id.Protein>
6NUR|6NUR_protein|mol2

> <Gold.PLP.Fitness>
44.7496

> <Gold.PLP.PLP>
-37.7696

> <Gold.PLP.part.hbond>
-3.0000

> <Gold.PLP.part.metal>
0.0000

> <Gold.PLP.part.buried>
-3.6697

> <Gold.PLP.part.nonpolar>
-30.2492

> <Gold.PLP.part.repulsive>
0.1253

> <Gold.PLP.ligand.clash>
0.0000

> <Gold.PLP.ligand.torsion>
0.7033

> <Gold.PLP.Chemscore.Hbond>
2.7911

> <Gold.PLP.Chemscore.CHOScore>
0.0000

> <Gold.PLP.Chemscore.Metal>
0.0000

> <Gold.Chemscore.Hbonds>
donor molecule, donor type, donor heavy atom, donor atom, acceptor molecule, acceptor atom, score
      P1  H  6896  6908       L1    14  0.29
      P1  H  7997  8009       L1    10  0.96
      P1  H 10752 10764       L1    17  0.82

> <Gold.PLP.Chemscore.Internal.Correction>
0.0134

> <Gold.Rescore>
     Score         DG    S(hbond)    S(metal)    S(lipo)     H(rot)  DE(clash)    DE(int)     intcor
     17.22     -19.44       2.50        0.00      90.65       1.95       0.30       1.92       ----

> <Gold.Chemscore.Fitness>
17.2218

> <Gold.Chemscore.DG>
-19.4386

> <Gold.Chemscore.ZeroCoef>
-5.4800

> <Gold.Chemscore.Hbond>
2.4965

> <Gold.Chemscore.Metal>
0.0000

> <Gold.Chemscore.Lipo>
90.6458

> <Gold.Chemscore.Internal_Hbond>
0.0000

> <Gold.Chemscore.DEClash>
0.2979

> <Gold.Chemscore.DEInternal>
1.9190

> <Gold.Chemscore.Rot>
1.9474

> <Gold.Chemscore.Internal.Correction>
   9.000000E+99

> <Gold.Chemscore.Hbonds>
donor molecule, donor type, donor heavy atom, donor atom, acceptor molecule, acceptor atom, score
      P1  H  6896  6908       L1    14  0.26
      P1  H  7997  8009       L1    10  0.89
      P1  H 10752 10764       L1    17  0.18

> <Gold.Chemscore.Hbond.Weighted>
-8.3383

> <Gold.Chemscore.Metal.Weighted>
-0.0000

> <Gold.Chemscore.Lipo.Weighted>
-10.6056

> <Gold.Chemscore.Internal_Hbond.Weighted>
0.0000

> <Gold.Chemscore.DEClash.Weighted>
0.2979

> <Gold.Chemscore.DEInternal.Weighted>
1.9190

> <Gold.Chemscore.Rot.Weighted>
4.9852

> <Gold.Chemscore.Internal.Correction.Weighted>
   9.000000E+99

> <Gold.Protein.RotatedTorsions>
[ 6907 6896 6895 6894 ] final -154.17 input  -60.11 | X-H torsion
[ 7974 7965 7964 7962 ] final  108.02 input  175.53 | X-H torsion
[ 8008 7997 7996 7995 ] final  164.85 input   59.86 | X-H torsion
[ 10167 10162 10161 10158 ] final  -37.21 input  -65.29 | X-H torsion
[ 10718 10713 10712 10709 ] final  116.73 input   66.30 | X-H torsion
[ 10763 10752 10751 10750 ] final  -45.57 input  -60.55 | X-H torsion
[ 11005 11000 10999 10996 ] final    9.68 input  -57.11 | X-H torsion

> <Gold.Protein.ActiveResidues>
 VAL166  LYS551  ARG553  GLY616  TRP617  ASP618  TYR619  PRO620  LYS621  CYS622 
 ASP623  PHE694  ASN695  SER759  ASP760  ASP761  ALA762  ILE779  LEU786  VAL792 
 PHE793  MET794  SER795  GLU796  ALA797  LYS798  CYS799  TRP800  GLU811  SER814 

> <Gold.Protein.RotatedAtoms>
  151.2534  133.4338  159.2612 H   0  0  0  0  0  0  0  0  0  0  0  0  # atno 6907 bound_to 6896
  151.0596  134.9728  159.8264 H   0  0  0  0  0  0  0  0  0  0  0  0  # atno 6908 bound_to 6896
  152.5396  134.2485  159.8942 H   0  0  0  0  0  0  0  0  0  0  0  0  # atno 6909 bound_to 6896
  145.2861  139.2616  143.3890 H   0  0  0  0  0  0  0  0  0  0  0  0  # atno 7974 bound_to 7965
  156.1847  140.1685  156.8207 H   0  0  0  0  0  0  0  0  0  0  0  0  # atno 8008 bound_to 7997
  154.5400  140.0738  156.8527 H   0  0  0  0  0  0  0  0  0  0  0  0  # atno 8009 bound_to 7997
  155.3233  140.3374  155.4243 H   0  0  0  0  0  0  0  0  0  0  0  0  # atno 8010 bound_to 7997
  140.7124  143.3357  151.2468 H   0  0  0  0  0  0  0  0  0  0  0  0  # atno 10167 bound_to 10162
  157.6142  131.1029  150.7515 H   0  0  0  0  0  0  0  0  0  0  0  0  # atno 10718 bound_to 10713
  154.0307  135.6657  153.4780 H   0  0  0  0  0  0  0  0  0  0  0  0  # atno 10763 bound_to 10752
  153.0541  135.5066  154.7935 H   0  0  0  0  0  0  0  0  0  0  0  0  # atno 10764 bound_to 10752
  154.6880  135.3056  154.9485 H   0  0  0  0  0  0  0  0  0  0  0  0  # atno 10765 bound_to 10752
  140.5231  134.0540  155.7850 H   0  0  0  0  0  0  0  0  0  0  0  0  # atno 11005 bound_to 11000
  146.3200  140.3341  142.8642 LP  0  0  0  0  0  0  0  0  0  0  0  0  # atno 17320 bound_to 7965
  144.9212  140.7870  143.5747 LP  0  0  0  0  0  0  0  0  0  0  0  0  # atno 17321 bound_to 7965
  139.6851  143.9787  152.2830 LP  0  0  0  0  0  0  0  0  0  0  0  0  # atno 17342 bound_to 10162
  139.9430  144.6669  150.8247 LP  0  0  0  0  0  0  0  0  0  0  0  0  # atno 17343 bound_to 10162
  156.7886  130.4882  149.5388 LP  0  0  0  0  0  0  0  0  0  0  0  0  # atno 17370 bound_to 10713
  156.1256  130.6141  151.0259 LP  0  0  0  0  0  0  0  0  0  0  0  0  # atno 17371 bound_to 10713
  141.1323  133.9280  157.2508 LP  0  0  0  0  0  0  0  0  0  0  0  0  # atno 17394 bound_to 11000
  139.9595  135.0157  156.9222 LP  0  0  0  0  0  0  0  0  0  0  0  0  # atno 17395 bound_to 11000

$$$$
