AV-unprocessed.smi:3041|AV-procd|sdf|11597|dock5
  -GOLD-   2272016573D 1   1.00000     0.00000
 Structure written by MMmdl.
 38 39  0  0  0  0  0  0  0  0  1 V2000
  143.6049  132.6032  148.3294 C   0  0  0  0  0  0  0  0  0  0  0  0
  144.3770  132.7327  149.5466 N   0  0  0  0  0  0  0  0  0  0  0  0
  144.0760  133.4485  150.6856 C   0  0  0  0  0  0  0  0  0  0  0  0
  145.1053  133.2687  151.5663 C   0  0  0  0  0  0  0  0  0  0  0  0
  145.2699  133.8275  152.9520 C   0  0  0  0  0  0  0  0  0  0  0  0
  146.5720  133.3377  153.6061 C   0  0  0  0  0  0  0  0  0  0  0  0
  147.5793  134.3912  153.6524 N   0  0  0  0  0  0  0  0  0  0  0  0
  148.4357  134.5885  154.6645 C   0  0  0  0  0  0  0  0  0  0  0  0
  148.4732  133.8961  155.6819 O   0  0  0  0  0  0  0  0  0  0  0  0
  149.2486  135.6286  154.4338 N   0  0  0  0  0  0  0  0  0  0  0  0
  150.2898  136.0958  155.3432 C   0  0  0  0  0  0  0  0  0  0  0  0
  151.0798  137.2843  154.7622 C   0  0  2  0  0  0  0  0  0  0  0  0
  152.1012  137.8681  155.7160 C   0  0  0  0  0  0  0  0  0  0  0  0
  152.3610  139.2378  155.0971 C   0  0  0  0  0  0  0  0  0  0  0  0
  151.1345  139.6261  154.4849 O   0  0  0  0  0  0  0  0  0  0  0  0
  150.2377  138.5199  154.4390 C   0  0  0  0  0  0  0  0  0  0  0  0
  145.9992  132.4145  150.8599 C   0  0  0  0  0  0  0  0  0  0  0  0
  145.5617  132.0968  149.6524 N   0  0  0  0  0  0  0  0  0  0  0  0
  142.6284  133.0718  148.4538 H   0  0  0  0  0  0  0  0  0  0  0  0
  143.4632  131.5485  148.0906 H   0  0  0  0  0  0  0  0  0  0  0  0
  144.1301  133.0894  147.5068 H   0  0  0  0  0  0  0  0  0  0  0  0
  143.1635  134.0193  150.7758 H   0  0  0  0  0  0  0  0  0  0  0  0
  145.2656  134.9178  152.9213 H   0  0  0  0  0  0  0  0  0  0  0  0
  144.4229  133.5467  153.5794 H   0  0  0  0  0  0  0  0  0  0  0  0
  146.3754  133.0128  154.6282 H   0  0  0  0  0  0  0  0  0  0  0  0
  146.9642  132.4688  153.0744 H   0  0  0  0  0  0  0  0  0  0  0  0
  147.6267  135.0128  152.8582 H   0  0  0  0  0  0  0  0  0  0  0  0
  149.1392  136.1363  153.5680 H   0  0  0  0  0  0  0  0  0  0  0  0
  149.8117  136.3847  156.2795 H   0  0  0  0  0  0  0  0  0  0  0  0
  150.9670  135.2748  155.5842 H   0  0  0  0  0  0  0  0  0  0  0  0
  151.6003  136.9706  153.8557 H   0  0  0  0  0  0  0  0  0  0  0  0
  151.6717  137.9844  156.7123 H   0  0  0  0  0  0  0  0  0  0  0  0
  153.0043  137.2632  155.8021 H   0  0  0  0  0  0  0  0  0  0  0  0
  152.6895  139.9718  155.8332 H   0  0  0  0  0  0  0  0  0  0  0  0
  153.1277  139.1663  154.3245 H   0  0  0  0  0  0  0  0  0  0  0  0
  149.7471  138.4469  153.4682 H   0  0  0  0  0  0  0  0  0  0  0  0
  149.4670  138.6720  155.1958 H   0  0  0  0  0  0  0  0  0  0  0  0
  146.9482  132.0177  151.1889 H   0  0  0  0  0  0  0  0  0  0  0  0
  1  2  1  0  0  0  0
  1 19  1  0  0  0  0
  1 20  1  0  0  0  0
  1 21  1  0  0  0  0
  2 18  1  0  0  0  0
  2  3  1  0  0  0  0
  3  4  2  0  0  0  0
  3 22  1  0  0  0  0
  4  5  1  0  0  0  0
  4 17  1  0  0  0  0
  5  6  1  0  0  0  0
  5 23  1  0  0  0  0
  5 24  1  0  0  0  0
  6  7  1  0  0  0  0
  6 25  1  0  0  0  0
  6 26  1  0  0  0  0
  7  8  1  0  0  0  0
  7 27  1  0  0  0  0
  8  9  2  0  0  0  0
  8 10  1  0  0  0  0
 10 11  1  0  0  0  0
 10 28  1  0  0  0  0
 11 12  1  0  0  0  0
 11 29  1  0  0  0  0
 11 30  1  0  0  0  0
 12 16  1  0  0  0  0
 12 13  1  0  0  0  0
 12 31  1  0  0  0  0
 13 14  1  0  0  0  0
 13 32  1  0  0  0  0
 13 33  1  0  0  0  0
 14 15  1  0  0  0  0
 14 34  1  0  0  0  0
 14 35  1  0  0  0  0
 15 16  1  0  0  0  0
 16 36  1  0  0  0  0
 16 37  1  0  0  0  0
 17 18  2  0  0  0  0
 17 38  1  0  0  0  0
M  END
> <s_m_source_file>
AV-unprocessed.smi

> <i_m_source_file_index>
3041

> <i_lp_mmshare_version>
43012

> <i_f3d_flags>
0

> <s_epik_input>
W0NIM11uMVtjSF1jKFtjSF1uMSlbQ0gyXVtDSDJdW05IXUMoPU8pW05IXVtDSDJdW0NAQEhdMltDSDJdW0NIMl1PW0NIMl0y

> <s_epik_cmdline>
J2VwaWtfcHl0aG9uJywgJy1waCcsICc3LjAnLCAnLXRuJywgJzgnLCAnLW1hJywgJzIwMCcsICctbWV0YWxfYmluZGluZycsICctaW1hZScsICc8aW5maWxlLm1hZT4nLCAnLW9tYWUnLCAnPG91dGZpbGUubWFlPic=

> <r_lp_tautomer_probability>
1

> <r_epik_Ionization_Penalty>
0.000557811

> <r_epik_Ionization_Penalty_Charging>
0

> <r_epik_Ionization_Penalty_Neutral>
0.000557811

> <r_epik_State_Penalty>
-0

> <r_epik_Charging_Adjusted_Penalty>
0

> <i_epik_Tot_Q>
0

> <i_epik_Tot_abs_Q>
0

> <r_epik_Metal_State_Penalty>
-0

> <b_epik_Metal_Only>
0

> <s_lp_Force_Field>
OPLS_2005

> <r_lp_Energy>
13.0487

> <b_lp_Chiralities_Consistent>
1

> <s_lp_Variant>
AV-unprocessed.smi:3041-1

> <Gold.Version>
5.8.1

> <Gold.Id.Protein>
6NUR|6NUR_protein|mol2

> <Gold.PLP.Fitness>
46.8182

> <Gold.PLP.PLP>
-33.3545

> <Gold.PLP.part.hbond>
-3.0000

> <Gold.PLP.part.metal>
0.0000

> <Gold.PLP.part.buried>
-4.3498

> <Gold.PLP.part.nonpolar>
-26.6490

> <Gold.PLP.part.repulsive>
0.3102

> <Gold.PLP.ligand.clash>
0.0000

> <Gold.PLP.ligand.torsion>
0.4958

> <Gold.PLP.Chemscore.Hbond>
2.8160

> <Gold.PLP.Chemscore.CHOScore>
1.9959

> <Gold.PLP.Chemscore.Metal>
0.0000

> <Gold.Chemscore.Hbonds>
donor molecule, donor type, donor heavy atom, donor atom, acceptor molecule, acceptor atom, score
      L1  H     7    27       P1  7948  0.81
      L1  H    10    28       P1  7948  1.00
      P1  H  7989  7998       L1    15  1.00
      L1  C     3    22       P1 10186  1.00
      L1  C    17    38       P1 10747  1.00

> <Gold.PLP.Chemscore.Internal.Correction>
0.0195

> <Gold.Rescore>
     Score         DG    S(hbond)    S(metal)    S(lipo)     H(rot)  DE(clash)    DE(int)     intcor
     18.16     -18.73       2.71        0.00      76.57       1.85       0.00       0.57       ----

> <Gold.Chemscore.Fitness>
18.1572

> <Gold.Chemscore.DG>
-18.7318

> <Gold.Chemscore.ZeroCoef>
-5.4800

> <Gold.Chemscore.Hbond>
2.7056

> <Gold.Chemscore.Metal>
0.0000

> <Gold.Chemscore.Lipo>
76.5666

> <Gold.Chemscore.Internal_Hbond>
0.0000

> <Gold.Chemscore.DEClash>
0.0042

> <Gold.Chemscore.DEInternal>
0.5704

> <Gold.Chemscore.Rot>
1.8528

> <Gold.Chemscore.Internal.Correction>
   9.000000E+99

> <Gold.Chemscore.Hbonds>
donor molecule, donor type, donor heavy atom, donor atom, acceptor molecule, acceptor atom, score
      L1  H     7    27       P1  7948  0.75
      L1  H    10    28       P1  7948  0.89
      P1  H  7989  7998       L1    15  0.30

> <Gold.Chemscore.Hbond.Weighted>
-9.0368

> <Gold.Chemscore.Metal.Weighted>
-0.0000

> <Gold.Chemscore.Lipo.Weighted>
-8.9583

> <Gold.Chemscore.Internal_Hbond.Weighted>
0.0000

> <Gold.Chemscore.DEClash.Weighted>
0.0042

> <Gold.Chemscore.DEInternal.Weighted>
0.5704

> <Gold.Chemscore.Rot.Weighted>
4.7433

> <Gold.Chemscore.Internal.Correction.Weighted>
   9.000000E+99

> <Gold.Protein.RotatedTorsions>
[ 6907 6896 6895 6894 ] final  -76.79 input  -60.11 | X-H torsion
[ 7974 7965 7964 7962 ] final -142.62 input  175.53 | X-H torsion
[ 8008 7997 7996 7995 ] final   78.27 input   59.86 | X-H torsion
[ 10167 10162 10161 10158 ] final   40.21 input  -65.29 | X-H torsion
[ 10718 10713 10712 10709 ] final -136.00 input   66.30 | X-H torsion
[ 10763 10752 10751 10750 ] final -103.30 input  -60.55 | X-H torsion
[ 11005 11000 10999 10996 ] final -179.27 input  -57.11 | X-H torsion

> <Gold.Protein.ActiveResidues>
 VAL166  LYS551  ARG553  GLY616  TRP617  ASP618  TYR619  PRO620  LYS621  CYS622 
 ASP623  PHE694  ASN695  SER759  ASP760  ASP761  ALA762  ILE779  LEU786  VAL792 
 PHE793  MET794  SER795  GLU796  ALA797  LYS798  CYS799  TRP800  GLU811  SER814 

> <Gold.Protein.RotatedAtoms>
  150.7017  134.4520  159.5340 H   0  0  0  0  0  0  0  0  0  0  0  0  # atno 6907 bound_to 6896
  152.2211  134.8409  160.0495 H   0  0  0  0  0  0  0  0  0  0  0  0  # atno 6908 bound_to 6896
  151.9260  133.3563  159.3950 H   0  0  0  0  0  0  0  0  0  0  0  0  # atno 6909 bound_to 6896
  144.8430  140.5935  143.5440 H   0  0  0  0  0  0  0  0  0  0  0  0  # atno 7974 bound_to 7965
  155.8533  140.3457  155.5708 H   0  0  0  0  0  0  0  0  0  0  0  0  # atno 8008 bound_to 7997
  155.8014  140.0885  157.1975 H   0  0  0  0  0  0  0  0  0  0  0  0  # atno 8009 bound_to 7997
  154.4008  140.1465  156.3266 H   0  0  0  0  0  0  0  0  0  0  0  0  # atno 8010 bound_to 7997
  140.3764  144.2038  150.6131 H   0  0  0  0  0  0  0  0  0  0  0  0  # atno 10167 bound_to 10162
  156.2722  130.7272  151.1243 H   0  0  0  0  0  0  0  0  0  0  0  0  # atno 10718 bound_to 10713
  154.7797  135.4828  153.9818 H   0  0  0  0  0  0  0  0  0  0  0  0  # atno 10763 bound_to 10752
  153.1477  135.6785  153.8937 H   0  0  0  0  0  0  0  0  0  0  0  0  # atno 10764 bound_to 10752
  153.8591  135.3157  155.3415 H   0  0  0  0  0  0  0  0  0  0  0  0  # atno 10765 bound_to 10752
  140.4205  134.6610  157.4661 H   0  0  0  0  0  0  0  0  0  0  0  0  # atno 11005 bound_to 11000
  145.4656  139.1508  143.3842 LP  0  0  0  0  0  0  0  0  0  0  0  0  # atno 17320 bound_to 7965
  146.2719  140.4787  142.8811 LP  0  0  0  0  0  0  0  0  0  0  0  0  # atno 17321 bound_to 7965
  140.4982  143.2326  151.8718 LP  0  0  0  0  0  0  0  0  0  0  0  0  # atno 17342 bound_to 10162
  139.4799  144.5089  151.8959 LP  0  0  0  0  0  0  0  0  0  0  0  0  # atno 17343 bound_to 10162
  157.7288  131.0629  150.5805 LP  0  0  0  0  0  0  0  0  0  0  0  0  # atno 17370 bound_to 10713
  156.5902  130.4327  149.5939 LP  0  0  0  0  0  0  0  0  0  0  0  0  # atno 17371 bound_to 10713
  140.0203  134.6557  155.9249 LP  0  0  0  0  0  0  0  0  0  0  0  0  # atno 17394 bound_to 11000
  141.1786  133.6543  156.4927 LP  0  0  0  0  0  0  0  0  0  0  0  0  # atno 17395 bound_to 11000

$$$$
