AV-unprocessed.smi:249|AV-procd|sdf|1899|dock4
  -GOLD-   2262020573D 1   1.00000     0.00000
 Structure written by MMmdl.
 64 67  0  0  0  0  0  0  0  0  2 V2000
  145.4221  131.4246  151.6105 C   0  0  0  0  0  0  0  0  0  0  0  0
  145.2528  132.8532  152.1493 C   0  0  0  0  0  0  0  0  0  0  0  0
  145.1650  132.9139  153.6390 N   0  3  1  0  0  0  0  0  0  0  0  0
  146.3332  132.3166  154.3451 C   0  0  0  0  0  0  0  0  0  0  0  0
  147.5895  133.1987  154.2193 C   0  0  0  0  0  0  0  0  0  0  0  0
  147.3240  134.6289  154.7414 C   0  0  1  0  0  0  0  0  0  0  0  0
  148.4963  135.5126  154.6627 N   0  0  0  0  0  0  0  0  0  0  0  0
  149.8074  134.9160  154.8878 C   0  0  0  0  0  0  0  0  0  0  0  0
  148.3631  136.7583  155.1767 C   0  0  0  0  0  0  0  0  0  0  0  0
  147.2330  137.0274  155.8772 N   0  0  0  0  0  0  0  0  0  0  0  0
  147.0654  138.2257  156.4441 C   0  0  0  0  0  0  0  0  0  0  0  0
  147.8933  139.2721  156.4424 N   0  0  0  0  0  0  0  0  0  0  0  0
  149.0250  139.0091  155.7284 C   0  0  0  0  0  0  0  0  0  0  0  0
  149.3304  137.7958  155.0508 C   0  0  0  0  0  0  0  0  0  0  0  0
  150.5652  137.9039  154.4208 N   0  0  0  0  0  0  0  0  0  0  0  0
  150.9746  139.1049  154.7238 C   0  0  0  0  0  0  0  0  0  0  0  0
  150.1280  139.8229  155.5380 N   0  0  0  0  0  0  0  0  0  0  0  0
  150.3518  141.1611  156.0523 C   0  0  0  0  0  0  0  0  0  0  0  0
  151.5701  141.2993  157.0098 C   0  0  2  0  0  0  0  0  0  0  0  0
  151.7561  139.9674  157.7775 C   0  0  0  0  0  0  0  0  0  0  0  0
  153.1164  139.7293  158.0761 O   0  0  0  0  0  0  0  0  0  0  0  0
  151.4682  142.5116  157.9878 C   0  0  2  0  0  0  0  0  0  0  0  0
  151.5371  143.8971  157.3550 C   0  0  0  0  0  0  0  0  0  0  0  0
  151.9200  144.8005  158.5226 C   0  0  0  0  0  0  0  0  0  0  0  0
  152.6381  143.9812  159.4338 O   0  0  0  0  0  0  0  0  0  0  0  0
  152.6369  142.6360  158.9746 C   0  0  0  0  0  0  0  0  0  0  0  0
  146.0659  135.2143  154.0592 C   0  0  0  0  0  0  0  0  0  0  0  0
  144.8594  134.2643  154.2013 C   0  0  1  0  0  0  0  0  0  0  0  0
  143.5584  134.8790  153.6540 C   0  0  0  0  0  0  0  0  0  0  0  0
  145.3290  131.4144  150.5243 H   0  0  0  0  0  0  0  0  0  0  0  0
  144.6592  130.7568  152.0114 H   0  0  0  0  0  0  0  0  0  0  0  0
  146.4004  131.0078  151.8474 H   0  0  0  0  0  0  0  0  0  0  0  0
  146.0550  133.4893  151.7762 H   0  0  0  0  0  0  0  0  0  0  0  0
  144.3340  133.2384  151.7113 H   0  0  0  0  0  0  0  0  0  0  0  0
  146.0781  132.2041  155.3997 H   0  0  0  0  0  0  0  0  0  0  0  0
  146.5380  131.3079  153.9904 H   0  0  0  0  0  0  0  0  0  0  0  0
  148.4084  132.7482  154.7814 H   0  0  0  0  0  0  0  0  0  0  0  0
  147.9089  133.2139  153.1778 H   0  0  0  0  0  0  0  0  0  0  0  0
  147.0975  134.5364  155.8046 H   0  0  0  0  0  0  0  0  0  0  0  0
  150.6013  135.6500  154.7415 H   0  0  0  0  0  0  0  0  0  0  0  0
  149.9741  134.1026  154.1813 H   0  0  0  0  0  0  0  0  0  0  0  0
  149.8977  134.5109  155.8955 H   0  0  0  0  0  0  0  0  0  0  0  0
  146.1408  138.3623  156.9854 H   0  0  0  0  0  0  0  0  0  0  0  0
  151.9239  139.4915  154.3819 H   0  0  0  0  0  0  0  0  0  0  0  0
  150.4705  141.8394  155.2063 H   0  0  0  0  0  0  0  0  0  0  0  0
  149.4324  141.4616  156.5556 H   0  0  0  0  0  0  0  0  0  0  0  0
  152.4677  141.4424  156.4073 H   0  0  0  0  0  0  0  0  0  0  0  0
  151.2320  139.9765  158.7319 H   0  0  0  0  0  0  0  0  0  0  0  0
  151.3605  139.1298  157.2025 H   0  0  0  0  0  0  0  0  0  0  0  0
  153.1742  138.9619  158.6246 H   0  0  0  0  0  0  0  0  0  0  0  0
  150.5441  142.4338  158.5627 H   0  0  0  0  0  0  0  0  0  0  0  0
  152.3142  143.9291  156.5899 H   0  0  0  0  0  0  0  0  0  0  0  0
  150.6028  144.2259  156.9051 H   0  0  0  0  0  0  0  0  0  0  0  0
  152.5163  145.6554  158.2045 H   0  0  0  0  0  0  0  0  0  0  0  0
  151.0281  145.1777  159.0241 H   0  0  0  0  0  0  0  0  0  0  0  0
  152.5533  141.9479  159.8161 H   0  0  0  0  0  0  0  0  0  0  0  0
  153.5867  142.4446  158.4733 H   0  0  0  0  0  0  0  0  0  0  0  0
  145.8177  136.1792  154.5017 H   0  0  0  0  0  0  0  0  0  0  0  0
  146.2533  135.4013  153.0024 H   0  0  0  0  0  0  0  0  0  0  0  0
  144.6876  134.1145  155.2686 H   0  0  0  0  0  0  0  0  0  0  0  0
  143.2723  135.7524  154.2405 H   0  0  0  0  0  0  0  0  0  0  0  0
  142.7326  134.1687  153.7033 H   0  0  0  0  0  0  0  0  0  0  0  0
  143.6611  135.2135  152.6218 H   0  0  0  0  0  0  0  0  0  0  0  0
  144.3725  132.3353  153.8787 H   0  0  0  0  0  0  0  0  0  0  0  0
  1  2  1  0  0  0  0
  1 30  1  0  0  0  0
  1 31  1  0  0  0  0
  1 32  1  0  0  0  0
  2  3  1  0  0  0  0
  2 33  1  0  0  0  0
  2 34  1  0  0  0  0
  3 28  1  0  0  0  0
  3  4  1  0  0  0  0
  3 64  1  0  0  0  0
  4  5  1  0  0  0  0
  4 35  1  0  0  0  0
  4 36  1  0  0  0  0
  5  6  1  0  0  0  0
  5 37  1  0  0  0  0
  5 38  1  0  0  0  0
  6  7  1  0  0  0  0
  6 27  1  0  0  0  0
  6 39  1  0  0  0  0
  7  8  1  0  0  0  0
  7  9  1  0  0  0  0
  8 40  1  0  0  0  0
  8 41  1  0  0  0  0
  8 42  1  0  0  0  0
  9 14  1  0  0  0  0
  9 10  2  0  0  0  0
 10 11  1  0  0  0  0
 11 12  2  0  0  0  0
 11 43  1  0  0  0  0
 12 13  1  0  0  0  0
 13 17  1  0  0  0  0
 13 14  2  0  0  0  0
 14 15  1  0  0  0  0
 15 16  2  0  0  0  0
 16 17  1  0  0  0  0
 16 44  1  0  0  0  0
 17 18  1  0  0  0  0
 18 19  1  0  0  0  0
 18 45  1  0  0  0  0
 18 46  1  0  0  0  0
 19 20  1  0  0  0  0
 19 22  1  0  0  0  0
 19 47  1  0  0  0  0
 20 21  1  0  0  0  0
 20 48  1  0  0  0  0
 20 49  1  0  0  0  0
 21 50  1  0  0  0  0
 22 26  1  0  0  0  0
 22 23  1  0  0  0  0
 22 51  1  0  0  0  0
 23 24  1  0  0  0  0
 23 52  1  0  0  0  0
 23 53  1  0  0  0  0
 24 25  1  0  0  0  0
 24 54  1  0  0  0  0
 24 55  1  0  0  0  0
 25 26  1  0  0  0  0
 26 56  1  0  0  0  0
 26 57  1  0  0  0  0
 27 28  1  0  0  0  0
 27 58  1  0  0  0  0
 27 59  1  0  0  0  0
 28 29  1  0  0  0  0
 28 60  1  0  0  0  0
 29 61  1  0  0  0  0
 29 62  1  0  0  0  0
 29 63  1  0  0  0  0
M  CHG  1   3   1
M  END
> <s_m_source_file>
AV-unprocessed.smi

> <i_m_source_file_index>
249

> <i_lp_mmshare_version>
43012

> <i_f3d_flags>
0

> <s_epik_input>
W0NIM11bQ0gyXU4xW0NIMl1bQ0gyXVtDQEhdKFtDSDJdW0NASF0xW0NIM10pTihbQ0gzXSljKG5bY0hdbjIpYyhjMjMpbltjSF1uM1tDSDJdW0NASF0oW0NIMl1bT0hdKVtDQEBIXTRbQ0gyXVtDSDJdT1tDSDJdNA==

> <s_epik_cmdline>
J2VwaWtfcHl0aG9uJywgJy1waCcsICc3LjAnLCAnLXRuJywgJzgnLCAnLW1hJywgJzIwMCcsICctbWV0YWxfYmluZGluZycsICctaW1hZScsICc8aW5maWxlLm1hZT4nLCAnLW9tYWUnLCAnPG91dGZpbGUubWFlPic=

> <r_lp_tautomer_probability>
1

> <r_epik_Ionization_Penalty>
0.00294688

> <r_epik_Ionization_Penalty_Charging>
0.00169971

> <r_epik_Ionization_Penalty_Neutral>
0.00124717

> <r_epik_State_Penalty>
-0

> <r_epik_Charging_Adjusted_Penalty>
0.00169971

> <i_epik_Tot_Q>
1

> <i_epik_Tot_abs_Q>
1

> <r_epik_Metal_State_Penalty>
-0

> <b_epik_Metal_Only>
0

> <s_lp_Force_Field>
OPLS_2005

> <r_lp_Energy>
54.564

> <b_lp_Chiralities_Consistent>
1

> <s_lp_Variant>
AV-unprocessed.smi:249-2

> <Gold.Version>
5.8.1

> <Gold.Id.Protein>
6NUR|6NUR_protein|mol2

> <Gold.PLP.Fitness>
46.4220

> <Gold.PLP.PLP>
-38.6366

> <Gold.PLP.part.hbond>
-2.0000

> <Gold.PLP.part.metal>
0.0000

> <Gold.PLP.part.buried>
-7.2895

> <Gold.PLP.part.nonpolar>
-31.3731

> <Gold.PLP.part.repulsive>
1.6689

> <Gold.PLP.ligand.clash>
0.0000

> <Gold.PLP.ligand.torsion>
1.1939

> <Gold.PLP.Chemscore.Hbond>
3.0000

> <Gold.PLP.Chemscore.CHOScore>
0.0000

> <Gold.PLP.Chemscore.Metal>
0.0000

> <Gold.Chemscore.Hbonds>
donor molecule, donor type, donor heavy atom, donor atom, acceptor molecule, acceptor atom, score
      L1  H     3    64       P1 10957  2.00
      P1  H  7997  8008       L1    21  1.00

> <Gold.PLP.Chemscore.Internal.Correction>
1.1731

> <Gold.Rescore>
     Score         DG    S(hbond)    S(metal)    S(lipo)     H(rot)  DE(clash)    DE(int)     intcor
     12.95     -15.95       1.91        0.00      98.45       2.90       0.19       2.81       ----

> <Gold.Chemscore.Fitness>
12.9473

> <Gold.Chemscore.DG>
-15.9542

> <Gold.Chemscore.ZeroCoef>
-5.4800

> <Gold.Chemscore.Hbond>
1.9105

> <Gold.Chemscore.Metal>
0.0000

> <Gold.Chemscore.Lipo>
98.4508

> <Gold.Chemscore.Internal_Hbond>
0.0000

> <Gold.Chemscore.DEClash>
0.1942

> <Gold.Chemscore.DEInternal>
2.8127

> <Gold.Chemscore.Rot>
2.9006

> <Gold.Chemscore.Internal.Correction>
   9.000000E+99

> <Gold.Chemscore.Hbonds>
donor molecule, donor type, donor heavy atom, donor atom, acceptor molecule, acceptor atom, score
      L1  H     3    64       P1 10957  0.29
      P1  H  7997  8008       L1    21  0.88

> <Gold.Chemscore.Hbond.Weighted>
-6.3811

> <Gold.Chemscore.Metal.Weighted>
-0.0000

> <Gold.Chemscore.Lipo.Weighted>
-11.5187

> <Gold.Chemscore.Internal_Hbond.Weighted>
0.0000

> <Gold.Chemscore.DEClash.Weighted>
0.1942

> <Gold.Chemscore.DEInternal.Weighted>
2.8127

> <Gold.Chemscore.Rot.Weighted>
7.4256

> <Gold.Chemscore.Internal.Correction.Weighted>
   9.000000E+99

> <Gold.Protein.RotatedTorsions>
[ 6907 6896 6895 6894 ] final   41.04 input  -60.11 | X-H torsion
[ 7974 7965 7964 7962 ] final  166.21 input  175.53 | X-H torsion
[ 8008 7997 7996 7995 ] final  -89.26 input   59.86 | X-H torsion
[ 10167 10162 10161 10158 ] final   50.57 input  -65.29 | X-H torsion
[ 10718 10713 10712 10709 ] final  -93.83 input   66.30 | X-H torsion
[ 10763 10752 10751 10750 ] final   27.18 input  -60.55 | X-H torsion
[ 11005 11000 10999 10996 ] final -142.77 input  -57.11 | X-H torsion

> <Gold.Protein.ActiveResidues>
 VAL166  LYS551  ARG553  GLY616  TRP617  ASP618  TYR619  PRO620  LYS621  CYS622 
 ASP623  PHE694  ASN695  SER759  ASP760  ASP761  ALA762  ILE779  LEU786  VAL792 
 PHE793  MET794  SER795  GLU796  ALA797  LYS798  CYS799  TRP800  GLU811  SER814 

> <Gold.Protein.RotatedAtoms>
  152.1902  134.8679  160.0518 H   0  0  0  0  0  0  0  0  0  0  0  0  # atno 6907 bound_to 6896
  151.9571  133.3678  159.4029 H   0  0  0  0  0  0  0  0  0  0  0  0  # atno 6908 bound_to 6896
  150.6933  134.4203  159.5246 H   0  0  0  0  0  0  0  0  0  0  0  0  # atno 6909 bound_to 6896
  144.7471  139.8582  143.6378 H   0  0  0  0  0  0  0  0  0  0  0  0  # atno 7974 bound_to 7965
  154.6845  140.0544  157.0300 H   0  0  0  0  0  0  0  0  0  0  0  0  # atno 8008 bound_to 7997
  155.0904  140.3218  155.4556 H   0  0  0  0  0  0  0  0  0  0  0  0  # atno 8009 bound_to 7997
  156.2706  140.2049  156.6031 H   0  0  0  0  0  0  0  0  0  0  0  0  # atno 8010 bound_to 7997
  140.2710  144.3265  150.6290 H   0  0  0  0  0  0  0  0  0  0  0  0  # atno 10167 bound_to 10162
  156.0018  130.5043  150.5836 H   0  0  0  0  0  0  0  0  0  0  0  0  # atno 10718 bound_to 10713
  153.0573  135.6543  154.0547 H   0  0  0  0  0  0  0  0  0  0  0  0  # atno 10763 bound_to 10752
  154.0222  135.2919  155.3381 H   0  0  0  0  0  0  0  0  0  0  0  0  # atno 10764 bound_to 10752
  154.6894  135.5288  153.8439 H   0  0  0  0  0  0  0  0  0  0  0  0  # atno 10765 bound_to 10752
  140.8192  134.2652  157.4908 H   0  0  0  0  0  0  0  0  0  0  0  0  # atno 11005 bound_to 11000
  146.1367  139.4414  143.0135 LP  0  0  0  0  0  0  0  0  0  0  0  0  # atno 17320 bound_to 7965
  145.7081  141.0115  143.1468 LP  0  0  0  0  0  0  0  0  0  0  0  0  # atno 17321 bound_to 7965
  140.5889  143.2169  151.7290 LP  0  0  0  0  0  0  0  0  0  0  0  0  # atno 17342 bound_to 10162
  139.4989  144.3969  152.0222 LP  0  0  0  0  0  0  0  0  0  0  0  0  # atno 17343 bound_to 10162
  157.3712  131.0766  151.1556 LP  0  0  0  0  0  0  0  0  0  0  0  0  # atno 17370 bound_to 10713
  157.2309  130.6524  149.5849 LP  0  0  0  0  0  0  0  0  0  0  0  0  # atno 17371 bound_to 10713
  139.8709  134.9526  156.4119 LP  0  0  0  0  0  0  0  0  0  0  0  0  # atno 17394 bound_to 11000
  140.9117  133.7707  155.9799 LP  0  0  0  0  0  0  0  0  0  0  0  0  # atno 17395 bound_to 11000

$$$$
