AV-unprocessed.smi:710|AV-procd|sdf|3463|dock3
  -GOLD-   22720 0453D 1   1.00000     0.00000
 Structure written by MMmdl.
 40 41  0  0  0  0  0  0  0  0  1 V2000
  151.9002  138.2527  154.4963 C   0  0  0  0  0  0  0  0  0  0  0  0
  151.0676  139.4129  154.9629 C   0  0  0  0  0  0  0  0  0  0  0  0
  151.6435  140.3696  155.6704 N   0  0  0  0  0  0  0  0  0  0  0  0
  150.6575  141.2496  155.9316 N   0  0  0  0  0  0  0  0  0  0  0  0
  150.9760  142.4374  156.7011 C   0  0  0  0  0  0  0  0  0  0  0  0
  149.4513  140.8467  155.3875 C   0  0  0  0  0  0  0  0  0  0  0  0
  148.1976  141.6494  155.5293 C   0  0  0  0  0  0  0  0  0  0  0  0
  149.6780  139.6551  154.7502 C   0  0  0  0  0  0  0  0  0  0  0  0
  148.7020  138.7899  153.9929 C   0  0  0  0  0  0  0  0  0  0  0  0
  148.2230  137.6492  154.8906 C   0  0  0  0  0  0  0  0  0  0  0  0
  147.7398  137.8972  155.9947 O   0  0  0  0  0  0  0  0  0  0  0  0
  148.3692  136.4066  154.4065 N   0  0  0  0  0  0  0  0  0  0  0  0
  147.9911  135.1792  155.1012 C   0  0  0  0  0  0  0  0  0  0  0  0
  147.9940  133.9323  154.1832 C   0  0  2  0  0  0  0  0  0  0  0  0
  147.4256  134.3014  152.9393 O   0  0  0  0  0  0  0  0  0  0  0  0
  147.1193  132.8012  154.7508 C   0  0  0  0  0  0  0  0  0  0  0  0
  147.4077  131.5309  153.9433 C   0  0  0  0  0  0  0  0  0  0  0  0
  149.1493  131.5787  153.4504 S   0  0  0  0  0  0  0  0  0  0  0  0
  149.3813  133.3060  153.9507 C   0  0  0  0  0  0  0  0  0  0  0  0
  151.4130  137.7114  153.6857 H   0  0  0  0  0  0  0  0  0  0  0  0
  152.0753  137.5469  155.3082 H   0  0  0  0  0  0  0  0  0  0  0  0
  152.8713  138.5852  154.1286 H   0  0  0  0  0  0  0  0  0  0  0  0
  150.0759  143.0085  156.9262 H   0  0  0  0  0  0  0  0  0  0  0  0
  151.6603  143.0686  156.1336 H   0  0  0  0  0  0  0  0  0  0  0  0
  151.4515  142.1514  157.6399 H   0  0  0  0  0  0  0  0  0  0  0  0
  147.3579  141.1674  155.0299 H   0  0  0  0  0  0  0  0  0  0  0  0
  148.3206  142.6396  155.0902 H   0  0  0  0  0  0  0  0  0  0  0  0
  147.9330  141.7731  156.5795 H   0  0  0  0  0  0  0  0  0  0  0  0
  147.8369  139.3650  153.6613 H   0  0  0  0  0  0  0  0  0  0  0  0
  149.1467  138.3768  153.0869 H   0  0  0  0  0  0  0  0  0  0  0  0
  148.7808  136.3028  153.4907 H   0  0  0  0  0  0  0  0  0  0  0  0
  148.7333  135.0472  155.8889 H   0  0  0  0  0  0  0  0  0  0  0  0
  147.0338  135.2924  155.6136 H   0  0  0  0  0  0  0  0  0  0  0  0
  147.9253  135.0196  152.5823 H   0  0  0  0  0  0  0  0  0  0  0  0
  147.3942  132.6187  155.7907 H   0  0  0  0  0  0  0  0  0  0  0  0
  146.0578  133.0526  154.7452 H   0  0  0  0  0  0  0  0  0  0  0  0
  147.1847  130.6263  154.5094 H   0  0  0  0  0  0  0  0  0  0  0  0
  146.7988  131.5132  153.0391 H   0  0  0  0  0  0  0  0  0  0  0  0
  149.9725  133.8513  153.2139 H   0  0  0  0  0  0  0  0  0  0  0  0
  149.9470  133.2988  154.8830 H   0  0  0  0  0  0  0  0  0  0  0  0
  1  2  1  0  0  0  0
  1 20  1  0  0  0  0
  1 21  1  0  0  0  0
  1 22  1  0  0  0  0
  2  8  1  0  0  0  0
  2  3  2  0  0  0  0
  3  4  1  0  0  0  0
  4  5  1  0  0  0  0
  4  6  1  0  0  0  0
  5 23  1  0  0  0  0
  5 24  1  0  0  0  0
  5 25  1  0  0  0  0
  6  7  1  0  0  0  0
  6  8  2  0  0  0  0
  7 26  1  0  0  0  0
  7 27  1  0  0  0  0
  7 28  1  0  0  0  0
  8  9  1  0  0  0  0
  9 10  1  0  0  0  0
  9 29  1  0  0  0  0
  9 30  1  0  0  0  0
 10 11  2  0  0  0  0
 10 12  1  0  0  0  0
 12 13  1  0  0  0  0
 12 31  1  0  0  0  0
 13 14  1  0  0  0  0
 13 32  1  0  0  0  0
 13 33  1  0  0  0  0
 14 19  1  0  0  0  0
 14 15  1  0  0  0  0
 14 16  1  0  0  0  0
 15 34  1  0  0  0  0
 16 17  1  0  0  0  0
 16 35  1  0  0  0  0
 16 36  1  0  0  0  0
 17 18  1  0  0  0  0
 17 37  1  0  0  0  0
 17 38  1  0  0  0  0
 18 19  1  0  0  0  0
 19 39  1  0  0  0  0
 19 40  1  0  0  0  0
M  END
> <s_m_source_file>
AV-unprocessed.smi

> <i_m_source_file_index>
710

> <i_lp_mmshare_version>
43012

> <i_f3d_flags>
0

> <s_epik_input>
W0NIM11jMW5uKFtDSDNdKWMoW0NIM10pYzFbQ0gyXUMoPU8pW05IXVtDSDJdW0NAQF0yKFtPSF0pW0NIMl1bQ0gyXVNbQ0gyXTI=

> <s_epik_cmdline>
J2VwaWtfcHl0aG9uJywgJy1waCcsICc3LjAnLCAnLXRuJywgJzgnLCAnLW1hJywgJzIwMCcsICctbWV0YWxfYmluZGluZycsICctaW1hZScsICc8aW5maWxlLm1hZT4nLCAnLW9tYWUnLCAnPG91dGZpbGUubWFlPic=

> <r_lp_tautomer_probability>
1

> <r_epik_Ionization_Penalty>
0.00343686

> <r_epik_Ionization_Penalty_Charging>
0

> <r_epik_Ionization_Penalty_Neutral>
0.00343686

> <r_epik_State_Penalty>
0.00243544

> <r_epik_Charging_Adjusted_Penalty>
0.00243544

> <i_epik_Tot_Q>
0

> <i_epik_Tot_abs_Q>
0

> <r_epik_Metal_State_Penalty>
-0

> <b_epik_Metal_Only>
0

> <s_lp_Force_Field>
OPLS_2005

> <r_lp_Energy>
11.3483

> <b_lp_Chiralities_Consistent>
1

> <s_lp_Variant>
AV-unprocessed.smi:710-2

> <Gold.Version>
5.8.1

> <Gold.Id.Protein>
6NUR|6NUR_protein|mol2

> <Gold.PLP.Fitness>
35.3966

> <Gold.PLP.PLP>
-30.7686

> <Gold.PLP.part.hbond>
-2.9914

> <Gold.PLP.part.metal>
0.0000

> <Gold.PLP.part.buried>
-1.3921

> <Gold.PLP.part.nonpolar>
-26.2525

> <Gold.PLP.part.repulsive>
0.0183

> <Gold.PLP.ligand.clash>
0.0000

> <Gold.PLP.ligand.torsion>
0.6937

> <Gold.PLP.Chemscore.Hbond>
2.0000

> <Gold.PLP.Chemscore.CHOScore>
0.0000

> <Gold.PLP.Chemscore.Metal>
0.0000

> <Gold.Chemscore.Hbonds>
donor molecule, donor type, donor heavy atom, donor atom, acceptor molecule, acceptor atom, score
      L1  H    12    31       P1  7948  1.00
      L1  H    15    34       P1  7948  1.00

> <Gold.PLP.Chemscore.Internal.Correction>
0.0155

> <Gold.Rescore>
     Score         DG    S(hbond)    S(metal)    S(lipo)     H(rot)  DE(clash)    DE(int)     intcor
     14.77     -15.51       1.97        0.00      74.74       2.07       0.04       0.70       ----

> <Gold.Chemscore.Fitness>
14.7720

> <Gold.Chemscore.DG>
-15.5060

> <Gold.Chemscore.ZeroCoef>
-5.4800

> <Gold.Chemscore.Hbond>
1.9739

> <Gold.Chemscore.Metal>
0.0000

> <Gold.Chemscore.Lipo>
74.7436

> <Gold.Chemscore.Internal_Hbond>
0.0000

> <Gold.Chemscore.DEClash>
0.0372

> <Gold.Chemscore.DEInternal>
0.6968

> <Gold.Chemscore.Rot>
2.0750

> <Gold.Chemscore.Internal.Correction>
   9.000000E+99

> <Gold.Chemscore.Hbonds>
donor molecule, donor type, donor heavy atom, donor atom, acceptor molecule, acceptor atom, score
      L1  H    12    31       P1  7948  0.99
      L1  H    15    34       P1  7948  0.93

> <Gold.Chemscore.Hbond.Weighted>
-6.5930

> <Gold.Chemscore.Metal.Weighted>
-0.0000

> <Gold.Chemscore.Lipo.Weighted>
-8.7450

> <Gold.Chemscore.Internal_Hbond.Weighted>
0.0000

> <Gold.Chemscore.DEClash.Weighted>
0.0372

> <Gold.Chemscore.DEInternal.Weighted>
0.6968

> <Gold.Chemscore.Rot.Weighted>
5.3120

> <Gold.Chemscore.Internal.Correction.Weighted>
   9.000000E+99

> <Gold.Protein.RotatedTorsions>
[ 6907 6896 6895 6894 ] final   26.91 input  -60.11 | X-H torsion
[ 7974 7965 7964 7962 ] final  -29.03 input  175.53 | X-H torsion
[ 8008 7997 7996 7995 ] final  -14.44 input   59.86 | X-H torsion
[ 10167 10162 10161 10158 ] final  -21.23 input  -65.29 | X-H torsion
[ 10718 10713 10712 10709 ] final  -13.32 input   66.30 | X-H torsion
[ 10763 10752 10751 10750 ] final -163.53 input  -60.55 | X-H torsion
[ 11005 11000 10999 10996 ] final  136.71 input  -57.11 | X-H torsion

> <Gold.Protein.ActiveResidues>
 VAL166  LYS551  ARG553  GLY616  TRP617  ASP618  TYR619  PRO620  LYS621  CYS622 
 ASP623  PHE694  ASN695  SER759  ASP760  ASP761  ALA762  ILE779  LEU786  VAL792 
 PHE793  MET794  SER795  GLU796  ALA797  LYS798  CYS799  TRP800  GLU811  SER814 

> <Gold.Protein.RotatedAtoms>
  151.9945  134.9961  160.0562 H   0  0  0  0  0  0  0  0  0  0  0  0  # atno 6907 bound_to 6896
  152.1577  133.4557  159.4853 H   0  0  0  0  0  0  0  0  0  0  0  0  # atno 6908 bound_to 6896
  150.6883  134.2028  159.4372 H   0  0  0  0  0  0  0  0  0  0  0  0  # atno 6909 bound_to 6896
  146.1246  140.5359  142.8720 H   0  0  0  0  0  0  0  0  0  0  0  0  # atno 7974 bound_to 7965
  154.5210  140.2223  155.8976 H   0  0  0  0  0  0  0  0  0  0  0  0  # atno 8008 bound_to 7997
  156.1661  140.3132  155.8857 H   0  0  0  0  0  0  0  0  0  0  0  0  # atno 8009 bound_to 7997
  155.3653  140.0463  157.3036 H   0  0  0  0  0  0  0  0  0  0  0  0  # atno 8010 bound_to 7997
  140.7281  143.4648  151.0329 H   0  0  0  0  0  0  0  0  0  0  0  0  # atno 10167 bound_to 10162
  156.6320  130.4904  149.6126 H   0  0  0  0  0  0  0  0  0  0  0  0  # atno 10718 bound_to 10713
  154.7113  135.3007  154.9192 H   0  0  0  0  0  0  0  0  0  0  0  0  # atno 10763 bound_to 10752
  154.0092  135.6697  153.4768 H   0  0  0  0  0  0  0  0  0  0  0  0  # atno 10764 bound_to 10752
  153.0758  135.5036  154.8314 H   0  0  0  0  0  0  0  0  0  0  0  0  # atno 10765 bound_to 10752
  140.0064  134.9457  157.0185 H   0  0  0  0  0  0  0  0  0  0  0  0  # atno 11005 bound_to 11000
  144.7630  140.5465  143.6722 LP  0  0  0  0  0  0  0  0  0  0  0  0  # atno 17320 bound_to 7965
  145.5393  139.1475  143.3456 LP  0  0  0  0  0  0  0  0  0  0  0  0  # atno 17321 bound_to 7965
  139.8335  143.7659  152.3180 LP  0  0  0  0  0  0  0  0  0  0  0  0  # atno 17342 bound_to 10162
  139.7783  144.7453  151.0125 LP  0  0  0  0  0  0  0  0  0  0  0  0  # atno 17343 bound_to 10162
  156.2227  130.6747  151.1385 LP  0  0  0  0  0  0  0  0  0  0  0  0  # atno 17370 bound_to 10713
  157.7197  131.0689  150.6186 LP  0  0  0  0  0  0  0  0  0  0  0  0  # atno 17371 bound_to 10713
  140.4633  134.1462  155.7194 LP  0  0  0  0  0  0  0  0  0  0  0  0  # atno 17394 bound_to 11000
  141.1680  133.8665  157.1657 LP  0  0  0  0  0  0  0  0  0  0  0  0  # atno 17395 bound_to 11000

$$$$
