AV-unprocessed.smi:1544|AV-procd|sdf|6212|dock3
  -GOLD-   22720 6383D 1   1.00000     0.00000
 Structure written by MMmdl.
 41 42  0  0  0  0  0  0  0  0  1 V2000
  146.5758  137.2971  155.3557 O   0  0  0  0  0  0  0  0  0  0  0  0
  147.2829  137.1069  154.3664 C   0  0  0  0  0  0  0  0  0  0  0  0
  148.4750  137.6863  154.1429 N   0  0  0  0  0  0  0  0  0  0  0  0
  149.1492  138.6456  154.9456 C   0  0  0  0  0  0  0  0  0  0  0  0
  148.7964  138.9498  156.2818 C   0  0  0  0  0  0  0  0  0  0  0  0
  149.5292  139.9346  156.9712 C   0  0  0  0  0  0  0  0  0  0  0  0
  150.5845  140.5898  156.3065 C   0  0  0  0  0  0  0  0  0  0  0  0
  151.2997  141.5496  156.9922 O   0  0  0  0  0  0  0  0  0  0  0  0
  150.6463  142.2706  158.0334 C   0  0  0  0  0  0  0  0  0  0  0  0
  151.5512  143.4191  158.4949 C   0  0  0  0  0  0  0  0  0  0  0  0
  151.8651  144.1799  157.4472 F   0  0  0  0  0  0  0  0  0  0  0  0
  150.9187  144.1713  159.3952 F   0  0  0  0  0  0  0  0  0  0  0  0
  152.6749  142.9366  159.0253 F   0  0  0  0  0  0  0  0  0  0  0  0
  150.9182  140.3148  155.0213 N   0  0  0  0  0  0  0  0  0  0  0  0
  150.2105  139.3708  154.3654 C   0  0  0  0  0  0  0  0  0  0  0  0
  146.9585  136.2638  153.3753 N   0  0  0  0  0  0  0  0  0  0  0  0
  145.7470  135.4500  153.3235 C   0  0  2  0  0  0  0  0  0  0  0  0
  145.9987  134.2041  152.4524 C   0  0  0  0  0  0  0  0  0  0  0  0
  144.7337  133.3392  152.3281 C   0  0  0  0  0  0  0  0  0  0  0  0
  143.5525  134.1599  151.7828 C   0  0  1  0  0  0  0  0  0  0  0  0
  142.3940  133.3535  151.7521 O   0  0  0  0  0  0  0  0  0  0  0  0
  143.2926  135.4004  152.6543 C   0  0  0  0  0  0  0  0  0  0  0  0
  144.5566  136.2665  152.7768 C   0  0  0  0  0  0  0  0  0  0  0  0
  148.9854  137.3595  153.3356 H   0  0  0  0  0  0  0  0  0  0  0  0
  147.9756  138.4610  156.7835 H   0  0  0  0  0  0  0  0  0  0  0  0
  149.2835  140.1848  157.9929 H   0  0  0  0  0  0  0  0  0  0  0  0
  149.6968  142.6731  157.6764 H   0  0  0  0  0  0  0  0  0  0  0  0
  150.4345  141.6094  158.8756 H   0  0  0  0  0  0  0  0  0  0  0  0
  150.5076  139.1846  153.3436 H   0  0  0  0  0  0  0  0  0  0  0  0
  147.6027  136.1674  152.6041 H   0  0  0  0  0  0  0  0  0  0  0  0
  145.5087  135.1131  154.3345 H   0  0  0  0  0  0  0  0  0  0  0  0
  146.3259  134.5084  151.4571 H   0  0  0  0  0  0  0  0  0  0  0  0
  146.8088  133.6088  152.8754 H   0  0  0  0  0  0  0  0  0  0  0  0
  144.9310  132.4875  151.6759 H   0  0  0  0  0  0  0  0  0  0  0  0
  144.4795  132.9278  153.3061 H   0  0  0  0  0  0  0  0  0  0  0  0
  143.7708  134.4742  150.7613 H   0  0  0  0  0  0  0  0  0  0  0  0
  141.8404  133.6490  151.0454 H   0  0  0  0  0  0  0  0  0  0  0  0
  142.4792  135.9926  152.2335 H   0  0  0  0  0  0  0  0  0  0  0  0
  142.9694  135.0930  153.6501 H   0  0  0  0  0  0  0  0  0  0  0  0
  144.3501  137.1175  153.4269 H   0  0  0  0  0  0  0  0  0  0  0  0
  144.8083  136.6795  151.7988 H   0  0  0  0  0  0  0  0  0  0  0  0
  1  2  2  0  0  0  0
  2  3  1  0  0  0  0
  2 16  1  0  0  0  0
  3  4  1  0  0  0  0
  3 24  1  0  0  0  0
  4 15  1  0  0  0  0
  4  5  2  0  0  0  0
  5  6  1  0  0  0  0
  5 25  1  0  0  0  0
  6  7  2  0  0  0  0
  6 26  1  0  0  0  0
  7  8  1  0  0  0  0
  7 14  1  0  0  0  0
  8  9  1  0  0  0  0
  9 10  1  0  0  0  0
  9 27  1  0  0  0  0
  9 28  1  0  0  0  0
 10 11  1  0  0  0  0
 10 12  1  0  0  0  0
 10 13  1  0  0  0  0
 14 15  2  0  0  0  0
 15 29  1  0  0  0  0
 16 17  1  0  0  0  0
 16 30  1  0  0  0  0
 17 23  1  0  0  0  0
 17 18  1  0  0  0  0
 17 31  1  0  0  0  0
 18 19  1  0  0  0  0
 18 32  1  0  0  0  0
 18 33  1  0  0  0  0
 19 20  1  0  0  0  0
 19 34  1  0  0  0  0
 19 35  1  0  0  0  0
 20 21  1  0  0  0  0
 20 22  1  0  0  0  0
 20 36  1  0  0  0  0
 21 37  1  0  0  0  0
 22 23  1  0  0  0  0
 22 38  1  0  0  0  0
 22 39  1  0  0  0  0
 23 40  1  0  0  0  0
 23 41  1  0  0  0  0
M  END
> <s_m_source_file>
AV-unprocessed.smi

> <i_m_source_file_index>
1544

> <i_lp_mmshare_version>
43012

> <i_f3d_flags>
0

> <s_epik_input>
W0NIMl0xW0NIMl1bQ0BIXShbT0hdKVtDSDJdW0NIMl1bQ0BIXTFbTkhdQyg9TylbTkhdYzJbY0hdW2NIXWMobltjSF0yKU9bQ0gyXUMoRikoRilG

> <s_epik_cmdline>
J2VwaWtfcHl0aG9uJywgJy1waCcsICc3LjAnLCAnLXRuJywgJzgnLCAnLW1hJywgJzIwMCcsICctbWV0YWxfYmluZGluZycsICctaW1hZScsICc8aW5maWxlLm1hZT4nLCAnLW9tYWUnLCAnPG91dGZpbGUubWFlPic=

> <r_lp_tautomer_probability>
1

> <r_epik_Ionization_Penalty>
4.43219e-05

> <r_epik_Ionization_Penalty_Charging>
0

> <r_epik_Ionization_Penalty_Neutral>
4.43219e-05

> <r_epik_State_Penalty>
-0

> <r_epik_Charging_Adjusted_Penalty>
0

> <i_epik_Tot_Q>
0

> <i_epik_Tot_abs_Q>
0

> <r_epik_Metal_State_Penalty>
-0

> <b_epik_Metal_Only>
0

> <s_lp_Force_Field>
OPLS_2005

> <r_lp_Energy>
9.52155

> <b_lp_Chiralities_Consistent>
1

> <s_lp_Variant>
AV-unprocessed.smi:1544-1

> <Gold.Version>
5.8.1

> <Gold.Id.Protein>
6NUR|6NUR_protein|mol2

> <Gold.PLP.Fitness>
47.1357

> <Gold.PLP.PLP>
-35.0904

> <Gold.PLP.part.hbond>
-3.9013

> <Gold.PLP.part.metal>
0.0000

> <Gold.PLP.part.buried>
-5.1219

> <Gold.PLP.part.nonpolar>
-26.9514

> <Gold.PLP.part.repulsive>
0.1276

> <Gold.PLP.ligand.clash>
0.0000

> <Gold.PLP.ligand.torsion>
0.7990

> <Gold.PLP.Chemscore.Hbond>
3.5440

> <Gold.PLP.Chemscore.CHOScore>
1.0000

> <Gold.PLP.Chemscore.Metal>
0.0000

> <Gold.Chemscore.Hbonds>
donor molecule, donor type, donor heavy atom, donor atom, acceptor molecule, acceptor atom, score
      L1  H     3    24       P1  7948  0.94
      L1  H    16    30       P1  7948  1.00
      L1  H    21    37       P1 10186  1.00
      P1  H  7989  7998       L1    14  0.55
      L1  C    15    29       P1  7957  1.00

> <Gold.PLP.Chemscore.Internal.Correction>
0.0112

> <Gold.Rescore>
     Score         DG    S(hbond)    S(metal)    S(lipo)     H(rot)  DE(clash)    DE(int)     intcor
     15.08     -17.89       3.38        0.00      60.15       2.31       0.79       2.02       ----

> <Gold.Chemscore.Fitness>
15.0821

> <Gold.Chemscore.DG>
-17.8857

> <Gold.Chemscore.ZeroCoef>
-5.4800

> <Gold.Chemscore.Hbond>
3.3785

> <Gold.Chemscore.Metal>
0.0000

> <Gold.Chemscore.Lipo>
60.1488

> <Gold.Chemscore.Internal_Hbond>
0.0000

> <Gold.Chemscore.DEClash>
0.7874

> <Gold.Chemscore.DEInternal>
2.0162

> <Gold.Chemscore.Rot>
2.3109

> <Gold.Chemscore.Internal.Correction>
   9.000000E+99

> <Gold.Chemscore.Hbonds>
donor molecule, donor type, donor heavy atom, donor atom, acceptor molecule, acceptor atom, score
      L1  H     3    24       P1  7948  0.91
      L1  H    16    30       P1  7948  0.93
      L1  H    21    37       P1 10186  0.35
      P1  H  7989  7998       L1    14  0.03

> <Gold.Chemscore.Hbond.Weighted>
-11.2841

> <Gold.Chemscore.Metal.Weighted>
-0.0000

> <Gold.Chemscore.Lipo.Weighted>
-7.0374

> <Gold.Chemscore.Internal_Hbond.Weighted>
0.0000

> <Gold.Chemscore.DEClash.Weighted>
0.7874

> <Gold.Chemscore.DEInternal.Weighted>
2.0162

> <Gold.Chemscore.Rot.Weighted>
5.9158

> <Gold.Chemscore.Internal.Correction.Weighted>
   9.000000E+99

> <Gold.Protein.RotatedTorsions>
[ 6907 6896 6895 6894 ] final -157.41 input  -60.11 | X-H torsion
[ 7974 7965 7964 7962 ] final  -17.27 input  175.53 | X-H torsion
[ 8008 7997 7996 7995 ] final  -79.79 input   59.86 | X-H torsion
[ 10167 10162 10161 10158 ] final  168.04 input  -65.29 | X-H torsion
[ 10718 10713 10712 10709 ] final  142.85 input   66.30 | X-H torsion
[ 10763 10752 10751 10750 ] final    8.75 input  -60.55 | X-H torsion
[ 11005 11000 10999 10996 ] final  135.99 input  -57.11 | X-H torsion

> <Gold.Protein.ActiveResidues>
 VAL166  LYS551  ARG553  GLY616  TRP617  ASP618  TYR619  PRO620  LYS621  CYS622 
 ASP623  PHE694  ASN695  SER759  ASP760  ASP761  ALA762  ILE779  LEU786  VAL792 
 PHE793  MET794  SER795  GLU796  ALA797  LYS798  CYS799  TRP800  GLU811  SER814 

> <Gold.Protein.RotatedAtoms>
  151.3025  133.4116  159.2640 H   0  0  0  0  0  0  0  0  0  0  0  0  # atno 6907 bound_to 6896
  151.0183  134.9450  159.8056 H   0  0  0  0  0  0  0  0  0  0  0  0  # atno 6908 bound_to 6896
  152.5318  134.2988  159.9123 H   0  0  0  0  0  0  0  0  0  0  0  0  # atno 6909 bound_to 6896
  146.1949  140.3755  142.8444 H   0  0  0  0  0  0  0  0  0  0  0  0  # atno 7974 bound_to 7965
  154.5819  140.0673  156.9116 H   0  0  0  0  0  0  0  0  0  0  0  0  # atno 8008 bound_to 7997
  155.2447  140.3347  155.4270 H   0  0  0  0  0  0  0  0  0  0  0  0  # atno 8009 bound_to 7997
  156.2195  140.1793  156.7495 H   0  0  0  0  0  0  0  0  0  0  0  0  # atno 8010 bound_to 7997
  139.4959  144.3857  151.9573 H   0  0  0  0  0  0  0  0  0  0  0  0  # atno 10167 bound_to 10162
  157.3758  131.0985  151.0785 H   0  0  0  0  0  0  0  0  0  0  0  0  # atno 10718 bound_to 10713
  153.2215  135.6882  153.7994 H   0  0  0  0  0  0  0  0  0  0  0  0  # atno 10763 bound_to 10752
  153.7191  135.3270  155.3264 H   0  0  0  0  0  0  0  0  0  0  0  0  # atno 10764 bound_to 10752
  154.8272  135.4609  154.1065 H   0  0  0  0  0  0  0  0  0  0  0  0  # atno 10765 bound_to 10752
  140.0016  134.9476  157.0085 H   0  0  0  0  0  0  0  0  0  0  0  0  # atno 11005 bound_to 11000
  144.8560  140.7071  143.6138 LP  0  0  0  0  0  0  0  0  0  0  0  0  # atno 17320 bound_to 7965
  145.3676  139.1666  143.4349 LP  0  0  0  0  0  0  0  0  0  0  0  0  # atno 17321 bound_to 7965
  140.3294  144.3335  150.5991 LP  0  0  0  0  0  0  0  0  0  0  0  0  # atno 17342 bound_to 10162
  140.5658  143.2186  151.7686 LP  0  0  0  0  0  0  0  0  0  0  0  0  # atno 17343 bound_to 10162
  157.1872  130.6336  149.5692 LP  0  0  0  0  0  0  0  0  0  0  0  0  # atno 17370 bound_to 10713
  155.9765  130.4734  150.6532 LP  0  0  0  0  0  0  0  0  0  0  0  0  # atno 17371 bound_to 10713
  140.4717  134.1380  155.7204 LP  0  0  0  0  0  0  0  0  0  0  0  0  # atno 17394 bound_to 11000
  141.1646  133.8727  157.1750 LP  0  0  0  0  0  0  0  0  0  0  0  0  # atno 17395 bound_to 11000

$$$$
