AV-unprocessed.smi:615|AV-procd|sdf|3071|dock1
  -GOLD-   2262023593D 1   1.00000     0.00000
 Structure written by MMmdl.
 25 26  0  0  0  0  0  0  0  0  2 V2000
  146.6946  142.1299  153.8313 C   0  0  0  0  0  0  0  0  0  0  0  0
  147.2152  140.8246  153.2147 C   0  0  0  0  0  0  0  0  0  0  0  0
  148.6213  140.6031  153.5342 N   0  0  0  0  0  0  0  0  0  0  0  0
  149.1878  140.7569  154.7400 C   0  0  0  0  0  0  0  0  0  0  0  0
  148.5027  141.1153  155.7008 O   0  0  0  0  0  0  0  0  0  0  0  0
  150.5124  140.4831  154.7587 N   0  5  0  0  0  0  0  0  0  0  0  0
  151.2119  140.6303  155.8959 C   0  0  0  0  0  0  0  0  0  0  0  0
  152.1215  139.7329  156.3014 N   0  0  0  0  0  0  0  0  0  0  0  0
  152.7271  140.0758  157.5014 N   0  0  0  0  0  0  0  0  0  0  0  0
  152.2592  141.2265  157.9911 C   0  0  0  0  0  0  0  0  0  0  0  0
  152.7550  141.8106  159.2716 C   0  0  0  0  0  0  0  0  0  0  0  0
  152.0695  142.9931  159.9209 C   0  0  0  0  0  0  0  0  0  0  0  0
  153.4295  143.1629  159.2937 C   0  0  0  0  0  0  0  0  0  0  0  0
  151.0171  141.9851  157.0076 S   0  0  0  0  0  0  0  0  0  0  0  0
  145.6351  142.2649  153.6139 H   0  0  0  0  0  0  0  0  0  0  0  0
  147.2265  142.9958  153.4362 H   0  0  0  0  0  0  0  0  0  0  0  0
  146.8144  142.1284  154.9151 H   0  0  0  0  0  0  0  0  0  0  0  0
  146.6433  139.9817  153.6028 H   0  0  0  0  0  0  0  0  0  0  0  0
  147.0667  140.8281  152.1336 H   0  0  0  0  0  0  0  0  0  0  0  0
  149.2202  140.3087  152.7769 H   0  0  0  0  0  0  0  0  0  0  0  0
  153.1500  141.0322  159.9212 H   0  0  0  0  0  0  0  0  0  0  0  0
  151.2249  143.4463  159.4057 H   0  0  0  0  0  0  0  0  0  0  0  0
  152.0123  143.0038  161.0074 H   0  0  0  0  0  0  0  0  0  0  0  0
  154.2801  143.2878  159.9606 H   0  0  0  0  0  0  0  0  0  0  0  0
  153.4856  143.7143  158.3571 H   0  0  0  0  0  0  0  0  0  0  0  0
  1  2  1  0  0  0  0
  1 15  1  0  0  0  0
  1 16  1  0  0  0  0
  1 17  1  0  0  0  0
  2  3  1  0  0  0  0
  2 18  1  0  0  0  0
  2 19  1  0  0  0  0
  3  4  1  0  0  0  0
  3 20  1  0  0  0  0
  4  5  2  0  0  0  0
  4  6  1  0  0  0  0
  6  7  1  0  0  0  0
  7 14  1  0  0  0  0
  7  8  2  0  0  0  0
  8  9  1  0  0  0  0
  9 10  2  0  0  0  0
 10 11  1  0  0  0  0
 10 14  1  0  0  0  0
 11 13  1  0  0  0  0
 11 12  1  0  0  0  0
 11 21  1  0  0  0  0
 12 13  1  0  0  0  0
 12 22  1  0  0  0  0
 12 23  1  0  0  0  0
 13 24  1  0  0  0  0
 13 25  1  0  0  0  0
M  CHG  1   6  -1
M  END
> <s_m_source_file>
AV-unprocessed.smi

> <i_m_source_file_index>
615

> <i_lp_mmshare_version>
43012

> <i_f3d_flags>
0

> <s_epik_input>
W0NIM11bQ0gyXVtOSF1DKD1PKVtOSF1jMW5uYyhzMSlbQ0hdMltDSDJdW0NIMl0y

> <s_epik_cmdline>
J2VwaWtfcHl0aG9uJywgJy1waCcsICc3LjAnLCAnLXRuJywgJzgnLCAnLW1hJywgJzIwMCcsICctbWV0YWxfYmluZGluZycsICctaW1hZScsICc8aW5maWxlLm1hZT4nLCAnLW9tYWUnLCAnPG91dGZpbGUubWFlPic=

> <r_lp_tautomer_probability>
1

> <r_epik_Ionization_Penalty>
3.99003

> <r_epik_Ionization_Penalty_Charging>
3.83446

> <r_epik_Ionization_Penalty_Neutral>
0.155577

> <r_epik_State_Penalty>
3.83354

> <r_epik_Charging_Adjusted_Penalty>
7.668

> <i_epik_Tot_Q>
-1

> <i_epik_Tot_abs_Q>
1

> <r_epik_Metal_State_Penalty>
0.575872

> <b_epik_Metal_Only>
1

> <s_lp_Force_Field>
OPLS_2005

> <r_lp_Energy>
-1.25132

> <b_lp_Chiralities_Consistent>
1

> <s_lp_Variant>
AV-unprocessed.smi:615-2

> <Gold.Version>
5.8.1

> <Gold.Id.Protein>
6NUR|6NUR_protein|mol2

> <Gold.PLP.Fitness>
38.6374

> <Gold.PLP.PLP>
-30.7408

> <Gold.PLP.part.hbond>
-3.2708

> <Gold.PLP.part.metal>
0.0000

> <Gold.PLP.part.buried>
-3.9116

> <Gold.PLP.part.nonpolar>
-22.3729

> <Gold.PLP.part.repulsive>
0.3293

> <Gold.PLP.ligand.clash>
0.0000

> <Gold.PLP.ligand.torsion>
0.5233

> <Gold.PLP.Chemscore.Hbond>
2.9280

> <Gold.PLP.Chemscore.CHOScore>
0.0000

> <Gold.PLP.Chemscore.Metal>
0.0000

> <Gold.Chemscore.Hbonds>
donor molecule, donor type, donor heavy atom, donor atom, acceptor molecule, acceptor atom, score
      L1  H     3    20       P1  7957  1.00
      P1  H  7989  7998       L1     6  1.00
      P1  H  7997  8009       L1     9  0.91

> <Gold.PLP.Chemscore.Internal.Correction>
0.1591

> <Gold.Rescore>
     Score         DG    S(hbond)    S(metal)    S(lipo)     H(rot)  DE(clash)    DE(int)     intcor
     13.62     -15.77       1.72        0.00      65.84       1.23       0.07       2.09       ----

> <Gold.Chemscore.Fitness>
13.6180

> <Gold.Chemscore.DG>
-15.7718

> <Gold.Chemscore.ZeroCoef>
-5.4800

> <Gold.Chemscore.Hbond>
1.7168

> <Gold.Chemscore.Metal>
0.0000

> <Gold.Chemscore.Lipo>
65.8410

> <Gold.Chemscore.Internal_Hbond>
0.0000

> <Gold.Chemscore.DEClash>
0.0668

> <Gold.Chemscore.DEInternal>
2.0870

> <Gold.Chemscore.Rot>
1.2288

> <Gold.Chemscore.Internal.Correction>
   9.000000E+99

> <Gold.Chemscore.Hbonds>
donor molecule, donor type, donor heavy atom, donor atom, acceptor molecule, acceptor atom, score
      L1  H     3    20       P1  7957  0.98
      P1  H  7989  7998       L1     6  0.48
      P1  H  7997  8009       L1     9  0.21

> <Gold.Chemscore.Hbond.Weighted>
-5.7341

> <Gold.Chemscore.Metal.Weighted>
-0.0000

> <Gold.Chemscore.Lipo.Weighted>
-7.7034

> <Gold.Chemscore.Internal_Hbond.Weighted>
0.0000

> <Gold.Chemscore.DEClash.Weighted>
0.0668

> <Gold.Chemscore.DEInternal.Weighted>
2.0870

> <Gold.Chemscore.Rot.Weighted>
3.1456

> <Gold.Chemscore.Internal.Correction.Weighted>
   9.000000E+99

> <Gold.Protein.RotatedTorsions>
[ 6907 6896 6895 6894 ] final  -50.63 input  -60.11 | X-H torsion
[ 7974 7965 7964 7962 ] final  153.16 input  175.53 | X-H torsion
[ 8008 7997 7996 7995 ] final  157.19 input   59.86 | X-H torsion
[ 10167 10162 10161 10158 ] final  176.66 input  -65.29 | X-H torsion
[ 10718 10713 10712 10709 ] final  -94.76 input   66.30 | X-H torsion
[ 10763 10752 10751 10750 ] final  175.84 input  -60.55 | X-H torsion
[ 11005 11000 10999 10996 ] final -131.92 input  -57.11 | X-H torsion

> <Gold.Protein.ActiveResidues>
 VAL166  LYS551  ARG553  GLY616  TRP617  ASP618  TYR619  PRO620  LYS621  CYS622 
 ASP623  PHE694  ASN695  SER759  ASP760  ASP761  ALA762  ILE779  LEU786  VAL792 
 PHE793  MET794  SER795  GLU796  ALA797  LYS798  CYS799  TRP800  GLU811  SER814 

> <Gold.Protein.RotatedAtoms>
  150.8689  134.8058  159.7139 H   0  0  0  0  0  0  0  0  0  0  0  0  # atno 6907 bound_to 6896
  152.4700  134.4979  159.9725 H   0  0  0  0  0  0  0  0  0  0  0  0  # atno 6908 bound_to 6896
  151.5071  133.3454  159.2914 H   0  0  0  0  0  0  0  0  0  0  0  0  # atno 6909 bound_to 6896
  144.8173  139.6763  143.6115 H   0  0  0  0  0  0  0  0  0  0  0  0  # atno 7974 bound_to 7965
  156.2379  140.1892  156.7070 H   0  0  0  0  0  0  0  0  0  0  0  0  # atno 8008 bound_to 7997
  154.6140  140.0618  156.9558 H   0  0  0  0  0  0  0  0  0  0  0  0  # atno 8009 bound_to 7997
  155.1969  140.3289  155.4352 H   0  0  0  0  0  0  0  0  0  0  0  0  # atno 8010 bound_to 7997
  139.5223  144.2889  152.0481 H   0  0  0  0  0  0  0  0  0  0  0  0  # atno 10167 bound_to 10162
  156.0032  130.5081  150.5975 H   0  0  0  0  0  0  0  0  0  0  0  0  # atno 10718 bound_to 10713
  154.4730  135.2772  155.1628 H   0  0  0  0  0  0  0  0  0  0  0  0  # atno 10763 bound_to 10752
  154.3369  135.6178  153.5581 H   0  0  0  0  0  0  0  0  0  0  0  0  # atno 10764 bound_to 10752
  152.9866  135.5779  154.5115 H   0  0  0  0  0  0  0  0  0  0  0  0  # atno 10765 bound_to 10752
  140.9216  134.1437  157.4309 H   0  0  0  0  0  0  0  0  0  0  0  0  # atno 11005 bound_to 11000
  146.2477  139.6133  142.9448 LP  0  0  0  0  0  0  0  0  0  0  0  0  # atno 17320 bound_to 7965
  145.5184  141.0433  143.2449 LP  0  0  0  0  0  0  0  0  0  0  0  0  # atno 17321 bound_to 7965
  140.2341  144.4337  150.6287 LP  0  0  0  0  0  0  0  0  0  0  0  0  # atno 17342 bound_to 10162
  140.6335  143.2191  151.6445 LP  0  0  0  0  0  0  0  0  0  0  0  0  # atno 17343 bound_to 10162
  157.3829  131.0784  151.1461 LP  0  0  0  0  0  0  0  0  0  0  0  0  # atno 17370 bound_to 10713
  157.2178  130.6467  149.5799 LP  0  0  0  0  0  0  0  0  0  0  0  0  # atno 17371 bound_to 10713
  139.8776  134.9973  156.5841 LP  0  0  0  0  0  0  0  0  0  0  0  0  # atno 17394 bound_to 11000
  140.7981  133.8528  155.8703 LP  0  0  0  0  0  0  0  0  0  0  0  0  # atno 17395 bound_to 11000

$$$$
