AV-unprocessed.smi:1899|AV-procd|sdf|7707|dock2
  -GOLD-   22720 9443D 1   1.00000     0.00000
 Structure written by MMmdl.
 33 34  0  0  0  0  0  0  0  0  1 V2000
  152.7546  140.1376  157.7929 O   0  0  0  0  0  0  0  0  0  0  0  0
  151.7791  140.8763  157.6547 C   0  0  0  0  0  0  0  0  0  0  0  0
  150.7860  140.6302  156.7854 N   0  0  0  0  0  0  0  0  0  0  0  0
  150.6823  139.4461  155.9374 C   0  0  0  0  0  0  0  0  0  0  0  0
  150.4598  139.8182  154.4594 C   0  0  0  0  0  0  0  0  0  0  0  0
  149.1438  140.3797  154.2159 N   0  0  0  0  0  0  0  0  0  0  0  0
  148.0511  139.7380  153.6469 C   0  0  0  0  0  0  0  0  0  0  0  0
  147.0311  140.6610  153.6049 C   0  0  0  0  0  0  0  0  0  0  0  0
  147.4683  141.8676  154.1464 N   0  0  0  0  0  0  0  0  0  0  0  0
  148.7276  141.6243  154.4866 C   0  0  0  0  0  0  0  0  0  0  0  0
  151.6365  142.1355  158.5186 C   0  0  2  0  0  0  0  0  0  0  0  0
  151.4514  143.4005  157.6488 C   0  0  0  0  0  0  0  0  0  0  0  0
  151.5784  144.6779  158.4608 C   0  0  0  0  0  0  0  0  0  0  0  0
  152.1137  144.7212  159.6930 C   0  0  0  0  0  0  0  0  0  0  0  0
  152.6569  143.4987  160.4117 C   0  0  0  0  0  0  0  0  0  0  0  0
  152.8453  142.3013  159.4615 C   0  0  0  0  0  0  0  0  0  0  0  0
  150.0256  141.2930  156.7367 H   0  0  0  0  0  0  0  0  0  0  0  0
  151.6167  138.8925  156.0310 H   0  0  0  0  0  0  0  0  0  0  0  0
  149.8973  138.7738  156.2879 H   0  0  0  0  0  0  0  0  0  0  0  0
  151.2147  140.5321  154.1270 H   0  0  0  0  0  0  0  0  0  0  0  0
  150.5706  138.9320  153.8335 H   0  0  0  0  0  0  0  0  0  0  0  0
  148.0916  138.7096  153.3196 H   0  0  0  0  0  0  0  0  0  0  0  0
  146.0246  140.5505  153.2293 H   0  0  0  0  0  0  0  0  0  0  0  0
  149.3645  142.3710  154.9376 H   0  0  0  0  0  0  0  0  0  0  0  0
  150.7470  142.0223  159.1414 H   0  0  0  0  0  0  0  0  0  0  0  0
  152.1856  143.4421  156.8429 H   0  0  0  0  0  0  0  0  0  0  0  0
  150.4668  143.3839  157.1802 H   0  0  0  0  0  0  0  0  0  0  0  0
  151.2244  145.5870  157.9973 H   0  0  0  0  0  0  0  0  0  0  0  0
  152.1633  145.6603  160.2244 H   0  0  0  0  0  0  0  0  0  0  0  0
  153.6063  143.7507  160.8848 H   0  0  0  0  0  0  0  0  0  0  0  0
  151.9618  143.2398  161.2108 H   0  0  0  0  0  0  0  0  0  0  0  0
  153.0111  141.3938  160.0439 H   0  0  0  0  0  0  0  0  0  0  0  0
  153.7493  142.4550  158.8698 H   0  0  0  0  0  0  0  0  0  0  0  0
  1  2  2  0  0  0  0
  2  3  1  0  0  0  0
  2 11  1  0  0  0  0
  3  4  1  0  0  0  0
  3 17  1  0  0  0  0
  4  5  1  0  0  0  0
  4 18  1  0  0  0  0
  4 19  1  0  0  0  0
  5  6  1  0  0  0  0
  5 20  1  0  0  0  0
  5 21  1  0  0  0  0
  6 10  1  0  0  0  0
  6  7  1  0  0  0  0
  7  8  2  0  0  0  0
  7 22  1  0  0  0  0
  8  9  1  0  0  0  0
  8 23  1  0  0  0  0
  9 10  2  0  0  0  0
 10 24  1  0  0  0  0
 11 16  1  0  0  0  0
 11 12  1  0  0  0  0
 11 25  1  0  0  0  0
 12 13  1  0  0  0  0
 12 26  1  0  0  0  0
 12 27  1  0  0  0  0
 13 14  2  0  0  0  0
 13 28  1  0  0  0  0
 14 15  1  0  0  0  0
 14 29  1  0  0  0  0
 15 16  1  0  0  0  0
 15 30  1  0  0  0  0
 15 31  1  0  0  0  0
 16 32  1  0  0  0  0
 16 33  1  0  0  0  0
M  END
> <s_m_source_file>
AV-unprocessed.smi

> <i_m_source_file_index>
1899

> <i_lp_mmshare_version>
43012

> <i_f3d_flags>
0

> <s_epik_input>
W0NIMl0xW0NIMl1bQ0hdPVtDSF1bQ0gyXVtDQEhdMUMoPU8pW05IXVtDSDJdW0NIMl1uMltjSF1bY0hdbltjSF0y

> <s_epik_cmdline>
J2VwaWtfcHl0aG9uJywgJy1waCcsICc3LjAnLCAnLXRuJywgJzgnLCAnLW1hJywgJzIwMCcsICctbWV0YWxfYmluZGluZycsICctaW1hZScsICc8aW5maWxlLm1hZT4nLCAnLW9tYWUnLCAnPG91dGZpbGUubWFlPic=

> <r_lp_tautomer_probability>
1

> <r_epik_Ionization_Penalty>
0.598506

> <r_epik_Ionization_Penalty_Charging>
0.598506

> <r_epik_Ionization_Penalty_Neutral>
1.57027e-08

> <r_epik_State_Penalty>
0.612686

> <r_epik_Charging_Adjusted_Penalty>
1.21119

> <i_epik_Tot_Q>
0

> <i_epik_Tot_abs_Q>
0

> <r_epik_Metal_State_Penalty>
0.300712

> <b_epik_Metal_Only>
0

> <s_lp_Force_Field>
OPLS_2005

> <r_lp_Energy>
9.97921

> <b_lp_Chiralities_Consistent>
1

> <s_lp_Variant>
AV-unprocessed.smi:1899-3

> <Gold.Version>
5.8.1

> <Gold.Id.Protein>
6NUR|6NUR_protein|mol2

> <Gold.PLP.Fitness>
44.9714

> <Gold.PLP.PLP>
-36.5517

> <Gold.PLP.part.hbond>
-1.0000

> <Gold.PLP.part.metal>
0.0000

> <Gold.PLP.part.buried>
-1.6856

> <Gold.PLP.part.nonpolar>
-33.9700

> <Gold.PLP.part.repulsive>
0.2113

> <Gold.PLP.ligand.clash>
0.0000

> <Gold.PLP.ligand.torsion>
0.3139

> <Gold.PLP.Chemscore.Hbond>
1.0000

> <Gold.PLP.Chemscore.CHOScore>
2.0000

> <Gold.PLP.Chemscore.Metal>
0.0000

> <Gold.Chemscore.Hbonds>
donor molecule, donor type, donor heavy atom, donor atom, acceptor molecule, acceptor atom, score
      P1  H  7997  8008       L1     1  1.00
      L1  C     8    23       P1 10175  1.00
      L1  C    10    24       P1  8028  1.00

> <Gold.PLP.Chemscore.Internal.Correction>
0.0474

> <Gold.Rescore>
     Score         DG    S(hbond)    S(metal)    S(lipo)     H(rot)  DE(clash)    DE(int)     intcor
     15.25     -15.39       0.96        0.00      96.71       1.80       0.02       0.12       ----

> <Gold.Chemscore.Fitness>
15.2515

> <Gold.Chemscore.DG>
-15.3879

> <Gold.Chemscore.ZeroCoef>
-5.4800

> <Gold.Chemscore.Hbond>
0.9619

> <Gold.Chemscore.Metal>
0.0000

> <Gold.Chemscore.Lipo>
96.7126

> <Gold.Chemscore.Internal_Hbond>
0.0000

> <Gold.Chemscore.DEClash>
0.0196

> <Gold.Chemscore.DEInternal>
0.1167

> <Gold.Chemscore.Rot>
1.8048

> <Gold.Chemscore.Internal.Correction>
   9.000000E+99

> <Gold.Chemscore.Hbonds>
donor molecule, donor type, donor heavy atom, donor atom, acceptor molecule, acceptor atom, score
      P1  H  7997  8008       L1     1  0.94

> <Gold.Chemscore.Hbond.Weighted>
-3.2128

> <Gold.Chemscore.Metal.Weighted>
-0.0000

> <Gold.Chemscore.Lipo.Weighted>
-11.3154

> <Gold.Chemscore.Internal_Hbond.Weighted>
0.0000

> <Gold.Chemscore.DEClash.Weighted>
0.0196

> <Gold.Chemscore.DEInternal.Weighted>
0.1167

> <Gold.Chemscore.Rot.Weighted>
4.6203

> <Gold.Chemscore.Internal.Correction.Weighted>
   9.000000E+99

> <Gold.Protein.RotatedTorsions>
[ 6907 6896 6895 6894 ] final  -23.12 input  -60.11 | X-H torsion
[ 7974 7965 7964 7962 ] final -159.13 input  175.53 | X-H torsion
[ 8008 7997 7996 7995 ] final  -78.38 input   59.86 | X-H torsion
[ 10167 10162 10161 10158 ] final -162.76 input  -65.29 | X-H torsion
[ 10718 10713 10712 10709 ] final -152.47 input   66.30 | X-H torsion
[ 10763 10752 10751 10750 ] final   76.43 input  -60.55 | X-H torsion
[ 11005 11000 10999 10996 ] final -165.12 input  -57.11 | X-H torsion

> <Gold.Protein.ActiveResidues>
 VAL166  LYS551  ARG553  GLY616  TRP617  ASP618  TYR619  PRO620  LYS621  CYS622 
 ASP623  PHE694  ASN695  SER759  ASP760  ASP761  ALA762  ILE779  LEU786  VAL792 
 PHE793  MET794  SER795  GLU796  ALA797  LYS798  CYS799  TRP800  GLU811  SER814 

> <Gold.Protein.RotatedAtoms>
  151.2086  135.0472  159.8901 H   0  0  0  0  0  0  0  0  0  0  0  0  # atno 6907 bound_to 6896
  152.5426  134.0770  159.8229 H   0  0  0  0  0  0  0  0  0  0  0  0  # atno 6908 bound_to 6896
  151.0920  133.5260  159.2646 H   0  0  0  0  0  0  0  0  0  0  0  0  # atno 6909 bound_to 6896
  144.7477  140.3729  143.6072 H   0  0  0  0  0  0  0  0  0  0  0  0  # atno 7974 bound_to 7965
  154.5684  140.0695  156.8926 H   0  0  0  0  0  0  0  0  0  0  0  0  # atno 8008 bound_to 7997
  155.2680  140.3363  155.4249 H   0  0  0  0  0  0  0  0  0  0  0  0  # atno 8009 bound_to 7997
  156.2099  140.1755  156.7704 H   0  0  0  0  0  0  0  0  0  0  0  0  # atno 8010 bound_to 7997
  139.6369  144.0333  152.2061 H   0  0  0  0  0  0  0  0  0  0  0  0  # atno 10167 bound_to 10162
  156.4730  130.8267  151.2496 H   0  0  0  0  0  0  0  0  0  0  0  0  # atno 10718 bound_to 10713
  153.0725  135.4952  154.8334 H   0  0  0  0  0  0  0  0  0  0  0  0  # atno 10763 bound_to 10752
  154.7042  135.3007  154.9298 H   0  0  0  0  0  0  0  0  0  0  0  0  # atno 10764 bound_to 10752
  154.0012  135.6766  153.4812 H   0  0  0  0  0  0  0  0  0  0  0  0  # atno 10765 bound_to 10752
  140.5793  134.5158  157.5175 H   0  0  0  0  0  0  0  0  0  0  0  0  # atno 11005 bound_to 11000
  145.7059  139.1672  143.2566 LP  0  0  0  0  0  0  0  0  0  0  0  0  # atno 17320 bound_to 7965
  146.1382  140.7094  142.9379 LP  0  0  0  0  0  0  0  0  0  0  0  0  # atno 17321 bound_to 7965
  140.0013  144.6291  150.7727 LP  0  0  0  0  0  0  0  0  0  0  0  0  # atno 17342 bound_to 10162
  140.7470  143.2899  151.3359 LP  0  0  0  0  0  0  0  0  0  0  0  0  # atno 17343 bound_to 10162
  157.7490  131.0070  150.3173 LP  0  0  0  0  0  0  0  0  0  0  0  0  # atno 17370 bound_to 10713
  156.3599  130.3845  149.7260 LP  0  0  0  0  0  0  0  0  0  0  0  0  # atno 17371 bound_to 10713
  139.9325  134.7937  156.0892 LP  0  0  0  0  0  0  0  0  0  0  0  0  # atno 17394 bound_to 11000
  141.1006  133.6678  156.2747 LP  0  0  0  0  0  0  0  0  0  0  0  0  # atno 17395 bound_to 11000

$$$$
