AV-unprocessed.smi:2124|AV-procd|sdf|8658|dock3
  -GOLD-   2272011403D 1   1.00000     0.00000
 Structure written by MMmdl.
 47 49  0  0  0  0  0  0  0  0  1 V2000
  145.1475  137.5165  153.7081 C   0  0  0  0  0  0  0  0  0  0  0  0
  146.2825  138.4356  154.1041 C   0  0  0  0  0  0  0  0  0  0  0  0
  145.9951  139.7795  153.9325 N   0  0  0  0  0  0  0  0  0  0  0  0
  146.9634  140.6997  154.2928 C   0  0  0  0  0  0  0  0  0  0  0  0
  146.5585  142.1499  154.0938 C   0  0  0  0  0  0  0  0  0  0  0  0
  148.1644  140.3003  154.7835 C   0  0  0  0  0  0  0  0  0  0  0  0
  149.2542  141.2845  155.2039 C   0  0  0  0  0  0  0  0  0  0  0  0
  149.4544  141.4387  156.7125 C   0  0  0  0  0  0  0  0  0  0  0  0
  149.8687  140.4902  157.3783 O   0  0  0  0  0  0  0  0  0  0  0  0
  149.1591  142.6392  157.2353 N   0  0  0  0  0  0  0  0  0  0  0  0
  149.2821  143.0107  158.6430 C   0  0  2  0  0  0  0  0  0  0  0  0
  147.8808  143.2164  159.2418 C   0  0  0  0  0  0  0  0  0  0  0  0
  150.1677  144.2736  158.7617 C   0  0  2  0  0  0  0  0  0  0  0  0
  151.4752  144.2262  157.9380 C   0  0  0  0  0  0  0  0  0  0  0  0
  152.5459  144.6497  158.9603 C   0  0  2  0  0  0  0  0  0  0  0  0
  152.7915  143.4878  159.9399 C   0  0  0  0  0  0  0  0  0  0  0  0
  151.5152  143.4972  160.8007 C   0  0  0  0  0  0  0  0  0  0  0  0
  150.6877  144.6394  160.1749 C   0  0  1  0  0  0  0  0  0  0  0  0
  151.7856  145.6419  159.8329 C   0  0  0  0  0  0  0  0  0  0  0  0
  148.4234  138.8473  154.9196 C   0  0  0  0  0  0  0  0  0  0  0  0
  149.5011  138.4201  155.3319 O   0  0  0  0  0  0  0  0  0  0  0  0
  147.3997  137.9560  154.5597 N   0  0  0  0  0  0  0  0  0  0  0  0
  145.1149  140.1194  153.5728 H   0  0  0  0  0  0  0  0  0  0  0  0
  145.4137  136.4722  153.8765 H   0  0  0  0  0  0  0  0  0  0  0  0
  144.9075  137.6417  152.6519 H   0  0  0  0  0  0  0  0  0  0  0  0
  144.2564  137.7391  154.2958 H   0  0  0  0  0  0  0  0  0  0  0  0
  146.5711  142.6850  155.0433 H   0  0  0  0  0  0  0  0  0  0  0  0
  145.5544  142.2335  153.6765 H   0  0  0  0  0  0  0  0  0  0  0  0
  147.2452  142.6452  153.4083 H   0  0  0  0  0  0  0  0  0  0  0  0
  149.0635  142.2729  154.7848 H   0  0  0  0  0  0  0  0  0  0  0  0
  150.1937  140.9717  154.7468 H   0  0  0  0  0  0  0  0  0  0  0  0
  148.8255  143.3559  156.6070 H   0  0  0  0  0  0  0  0  0  0  0  0
  149.7679  142.1906  159.1725 H   0  0  0  0  0  0  0  0  0  0  0  0
  147.9335  143.4384  160.3076 H   0  0  0  0  0  0  0  0  0  0  0  0
  147.2688  142.3209  159.1293 H   0  0  0  0  0  0  0  0  0  0  0  0
  147.3580  144.0402  158.7547 H   0  0  0  0  0  0  0  0  0  0  0  0
  149.5796  145.1217  158.4052 H   0  0  0  0  0  0  0  0  0  0  0  0
  151.6850  143.2378  157.5270 H   0  0  0  0  0  0  0  0  0  0  0  0
  151.4272  144.9277  157.1042 H   0  0  0  0  0  0  0  0  0  0  0  0
  153.4575  145.0369  158.5046 H   0  0  0  0  0  0  0  0  0  0  0  0
  152.9403  142.5370  159.4267 H   0  0  0  0  0  0  0  0  0  0  0  0
  153.6712  143.6762  160.5564 H   0  0  0  0  0  0  0  0  0  0  0  0
  151.0002  142.5376  160.8063 H   0  0  0  0  0  0  0  0  0  0  0  0
  151.7631  143.7338  161.8363 H   0  0  0  0  0  0  0  0  0  0  0  0
  149.9147  145.0307  160.8369 H   0  0  0  0  0  0  0  0  0  0  0  0
  152.3537  145.9775  160.7026 H   0  0  0  0  0  0  0  0  0  0  0  0
  151.4245  146.5137  159.2842 H   0  0  0  0  0  0  0  0  0  0  0  0
  1 24  1  0  0  0  0
  1 25  1  0  0  0  0
  1 26  1  0  0  0  0
  1  2  1  0  0  0  0
  2  3  1  0  0  0  0
  2 22  2  0  0  0  0
  3  4  1  0  0  0  0
  3 23  1  0  0  0  0
  4  6  2  0  0  0  0
  4  5  1  0  0  0  0
  5 27  1  0  0  0  0
  5 28  1  0  0  0  0
  5 29  1  0  0  0  0
  6 20  1  0  0  0  0
  6  7  1  0  0  0  0
  7  8  1  0  0  0  0
  7 30  1  0  0  0  0
  7 31  1  0  0  0  0
  8  9  2  0  0  0  0
  8 10  1  0  0  0  0
 10 11  1  0  0  0  0
 10 32  1  0  0  0  0
 11 12  1  0  0  0  0
 11 13  1  0  0  0  0
 11 33  1  0  0  0  0
 12 34  1  0  0  0  0
 12 35  1  0  0  0  0
 12 36  1  0  0  0  0
 13 18  1  0  0  0  0
 13 14  1  0  0  0  0
 13 37  1  0  0  0  0
 14 15  1  0  0  0  0
 14 38  1  0  0  0  0
 14 39  1  0  0  0  0
 15 19  1  0  0  0  0
 15 16  1  0  0  0  0
 15 40  1  0  0  0  0
 16 17  1  0  0  0  0
 16 41  1  0  0  0  0
 16 42  1  0  0  0  0
 17 18  1  0  0  0  0
 17 43  1  0  0  0  0
 17 44  1  0  0  0  0
 18 19  1  0  0  0  0
 18 45  1  0  0  0  0
 19 46  1  0  0  0  0
 19 47  1  0  0  0  0
 20 21  2  0  0  0  0
 20 22  1  0  0  0  0
M  END
> <s_m_source_file>
AV-unprocessed.smi

> <i_m_source_file_index>
2124

> <i_lp_mmshare_version>
43012

> <i_f3d_flags>
0

> <s_epik_input>
W0NIM11jMW5jKFtDSDNdKWMoYyg9TylbbkhdMSlbQ0gyXUMoPU8pW05IXVtDQEhdKFtDSDNdKVtDQEhdKFtDSDJdW0NASF0yMylbQ0BIXShbQ0gyXTMpW0NIMl1bQ0gyXTI=

> <s_epik_cmdline>
J2VwaWtfcHl0aG9uJywgJy1waCcsICc3LjAnLCAnLXRuJywgJzgnLCAnLW1hJywgJzIwMCcsICctbWV0YWxfYmluZGluZycsICctaW1hZScsICc8aW5maWxlLm1hZT4nLCAnLW9tYWUnLCAnPG91dGZpbGUubWFlPic=

> <r_lp_tautomer_probability>
0.156392

> <r_epik_Ionization_Penalty>
0.0139374

> <r_epik_Ionization_Penalty_Charging>
0.0138122

> <r_epik_Ionization_Penalty_Neutral>
0.000125146

> <r_epik_State_Penalty>
1.15342

> <r_epik_Charging_Adjusted_Penalty>
1.16723

> <i_epik_Tot_Q>
0

> <i_epik_Tot_abs_Q>
0

> <r_epik_Metal_State_Penalty>
1.3173

> <b_epik_Metal_Only>
0

> <s_lp_Force_Field>
OPLS_2005

> <r_lp_Energy>
55.868

> <b_lp_Chiralities_Consistent>
1

> <s_lp_Variant>
AV-unprocessed.smi:2124-9

> <Gold.Version>
5.8.1

> <Gold.Id.Protein>
6NUR|6NUR_protein|mol2

> <Gold.PLP.Fitness>
49.1518

> <Gold.PLP.PLP>
-43.9337

> <Gold.PLP.part.hbond>
-1.9091

> <Gold.PLP.part.metal>
0.0000

> <Gold.PLP.part.buried>
-5.5426

> <Gold.PLP.part.nonpolar>
-39.7022

> <Gold.PLP.part.repulsive>
1.4790

> <Gold.PLP.ligand.clash>
0.0000

> <Gold.PLP.ligand.torsion>
0.4017

> <Gold.PLP.Chemscore.Hbond>
2.0000

> <Gold.PLP.Chemscore.CHOScore>
0.0000

> <Gold.PLP.Chemscore.Metal>
0.0000

> <Gold.Chemscore.Hbonds>
donor molecule, donor type, donor heavy atom, donor atom, acceptor molecule, acceptor atom, score
      L1  H     3    23       P1 10175  1.00
      L1  H    10    32       P1  8028  1.00

> <Gold.PLP.Chemscore.Internal.Correction>
0.0216

> <Gold.Rescore>
     Score         DG    S(hbond)    S(metal)    S(lipo)     H(rot)  DE(clash)    DE(int)     intcor
     21.11     -21.57       1.97        0.00     117.39       1.65       0.05       0.41       ----

> <Gold.Chemscore.Fitness>
21.1107

> <Gold.Chemscore.DG>
-21.5714

> <Gold.Chemscore.ZeroCoef>
-5.4800

> <Gold.Chemscore.Hbond>
1.9730

> <Gold.Chemscore.Metal>
0.0000

> <Gold.Chemscore.Lipo>
117.3868

> <Gold.Chemscore.Internal_Hbond>
0.0000

> <Gold.Chemscore.DEClash>
0.0465

> <Gold.Chemscore.DEInternal>
0.4142

> <Gold.Chemscore.Rot>
1.6534

> <Gold.Chemscore.Internal.Correction>
   9.000000E+99

> <Gold.Chemscore.Hbonds>
donor molecule, donor type, donor heavy atom, donor atom, acceptor molecule, acceptor atom, score
      L1  H     3    23       P1 10175  1.00
      L1  H    10    32       P1  8028  0.84

> <Gold.Chemscore.Hbond.Weighted>
-6.5897

> <Gold.Chemscore.Metal.Weighted>
-0.0000

> <Gold.Chemscore.Lipo.Weighted>
-13.7343

> <Gold.Chemscore.Internal_Hbond.Weighted>
0.0000

> <Gold.Chemscore.DEClash.Weighted>
0.0465

> <Gold.Chemscore.DEInternal.Weighted>
0.4142

> <Gold.Chemscore.Rot.Weighted>
4.2326

> <Gold.Chemscore.Internal.Correction.Weighted>
   9.000000E+99

> <Gold.Protein.RotatedTorsions>
[ 6907 6896 6895 6894 ] final  135.38 input  -60.11 | X-H torsion
[ 7974 7965 7964 7962 ] final  115.91 input  175.53 | X-H torsion
[ 8008 7997 7996 7995 ] final  159.96 input   59.86 | X-H torsion
[ 10167 10162 10161 10158 ] final   41.45 input  -65.29 | X-H torsion
[ 10718 10713 10712 10709 ] final  106.01 input   66.30 | X-H torsion
[ 10763 10752 10751 10750 ] final  105.75 input  -60.55 | X-H torsion
[ 11005 11000 10999 10996 ] final  140.18 input  -57.11 | X-H torsion

> <Gold.Protein.ActiveResidues>
 VAL166  LYS551  ARG553  GLY616  TRP617  ASP618  TYR619  PRO620  LYS621  CYS622 
 ASP623  PHE694  ASN695  SER759  ASP760  ASP761  ALA762  ILE779  LEU786  VAL792 
 PHE793  MET794  SER795  GLU796  ALA797  LYS798  CYS799  TRP800  GLU811  SER814 

> <Gold.Protein.RotatedAtoms>
  152.3010  133.5656  159.5618 H   0  0  0  0  0  0  0  0  0  0  0  0  # atno 6907 bound_to 6896
  150.7278  134.0291  159.3736 H   0  0  0  0  0  0  0  0  0  0  0  0  # atno 6908 bound_to 6896
  151.8190  135.0658  160.0473 H   0  0  0  0  0  0  0  0  0  0  0  0  # atno 6909 bound_to 6896
  145.1861  139.3024  143.4392 H   0  0  0  0  0  0  0  0  0  0  0  0  # atno 7974 bound_to 7965
  156.2204  140.1817  156.7490 H   0  0  0  0  0  0  0  0  0  0  0  0  # atno 8008 bound_to 7997
  154.5857  140.0659  156.9196 H   0  0  0  0  0  0  0  0  0  0  0  0  # atno 8009 bound_to 7997
  155.2425  140.3323  155.4293 H   0  0  0  0  0  0  0  0  0  0  0  0  # atno 8010 bound_to 7997
  140.3642  144.2189  150.6136 H   0  0  0  0  0  0  0  0  0  0  0  0  # atno 10167 bound_to 10162
  157.6684  131.0841  150.5943 H   0  0  0  0  0  0  0  0  0  0  0  0  # atno 10718 bound_to 10713
  153.3836  135.3899  155.1874 H   0  0  0  0  0  0  0  0  0  0  0  0  # atno 10763 bound_to 10752
  154.8711  135.3731  154.4825 H   0  0  0  0  0  0  0  0  0  0  0  0  # atno 10764 bound_to 10752
  153.5305  135.7086  153.5747 H   0  0  0  0  0  0  0  0  0  0  0  0  # atno 10765 bound_to 10752
  140.0309  134.9352  157.0660 H   0  0  0  0  0  0  0  0  0  0  0  0  # atno 11005 bound_to 11000
  146.3444  140.2058  142.8589 LP  0  0  0  0  0  0  0  0  0  0  0  0  # atno 17320 bound_to 7965
  145.0087  140.8695  143.5237 LP  0  0  0  0  0  0  0  0  0  0  0  0  # atno 17321 bound_to 7965
  140.5097  143.2294  151.8553 LP  0  0  0  0  0  0  0  0  0  0  0  0  # atno 17342 bound_to 10162
  139.4810  144.4964  151.9119 LP  0  0  0  0  0  0  0  0  0  0  0  0  # atno 17343 bound_to 10162
  156.6244  130.4414  149.5810 LP  0  0  0  0  0  0  0  0  0  0  0  0  # atno 17370 bound_to 10713
  156.2331  130.6806  151.1483 LP  0  0  0  0  0  0  0  0  0  0  0  0  # atno 17371 bound_to 10713
  140.4228  134.1863  155.7165 LP  0  0  0  0  0  0  0  0  0  0  0  0  # atno 17394 bound_to 11000
  141.1830  133.8373  157.1189 LP  0  0  0  0  0  0  0  0  0  0  0  0  # atno 17395 bound_to 11000

$$$$
