AV-unprocessed.smi:2822|AV-procd|sdf|10879|dock5
  -GOLD-   2272015323D 1   1.00000     0.00000
 Structure written by MMmdl.
 40 42  0  0  0  0  0  0  0  0  2 V2000
  147.0889  142.2517  154.2426 Cl  0  0  0  0  0  0  0  0  0  0  0  0
  148.1712  140.9032  154.2462 C   0  0  0  0  0  0  0  0  0  0  0  0
  147.8184  139.7356  153.5384 C   0  0  0  0  0  0  0  0  0  0  0  0
  148.6510  138.6731  153.5292 N   0  3  0  0  0  0  0  0  0  0  0  0
  149.8339  138.6686  154.1794 C   0  0  0  0  0  0  0  0  0  0  0  0
  150.2418  139.8062  154.9050 C   0  0  0  0  0  0  0  0  0  0  0  0
  149.4035  140.9486  154.9445 C   0  0  0  0  0  0  0  0  0  0  0  0
  149.7522  142.1104  155.6498 N   0  0  0  0  0  0  0  0  0  0  0  0
  151.0700  142.2618  156.2480 C   0  0  0  0  0  0  0  0  0  0  0  0
  150.9753  142.5314  157.7556 C   0  0  1  0  0  0  0  0  0  0  0  0
  152.1851  141.9565  158.5153 C   0  0  0  0  0  0  0  0  0  0  0  0
  152.1326  142.2719  159.9369 N   0  0  0  0  0  0  0  0  0  0  0  0
  153.2869  141.7233  160.6467 C   0  0  0  0  0  0  0  0  0  0  0  0
  153.2381  142.0113  162.1554 C   0  0  0  0  0  0  0  0  0  0  0  0
  153.1264  143.5219  162.4070 C   0  0  0  0  0  0  0  0  0  0  0  0
  151.9454  144.1042  161.6148 C   0  0  0  0  0  0  0  0  0  0  0  0
  152.0396  143.7233  160.1226 C   0  0  2  0  0  0  0  0  0  0  0  0
  150.8454  144.3020  159.3361 C   0  0  0  0  0  0  0  0  0  0  0  0
  150.9476  143.9414  157.9621 O   0  0  0  0  0  0  0  0  0  0  0  0
  146.8994  139.6210  152.9822 H   0  0  0  0  0  0  0  0  0  0  0  0
  150.4151  137.7613  154.1016 H   0  0  0  0  0  0  0  0  0  0  0  0
  151.1900  139.7827  155.4210 H   0  0  0  0  0  0  0  0  0  0  0  0
  149.1661  142.9303  155.5725 H   0  0  0  0  0  0  0  0  0  0  0  0
  151.6319  141.3421  156.0809 H   0  0  0  0  0  0  0  0  0  0  0  0
  151.6123  143.0698  155.7550 H   0  0  0  0  0  0  0  0  0  0  0  0
  150.0586  142.0864  158.1476 H   0  0  0  0  0  0  0  0  0  0  0  0
  152.2176  140.8746  158.3812 H   0  0  0  0  0  0  0  0  0  0  0  0
  153.1061  142.3517  158.0836 H   0  0  0  0  0  0  0  0  0  0  0  0
  153.3318  140.6446  160.4923 H   0  0  0  0  0  0  0  0  0  0  0  0
  154.2078  142.1334  160.2291 H   0  0  0  0  0  0  0  0  0  0  0  0
  152.3832  141.4990  162.5990 H   0  0  0  0  0  0  0  0  0  0  0  0
  154.1284  141.6139  162.6431 H   0  0  0  0  0  0  0  0  0  0  0  0
  153.0048  143.7217  163.4719 H   0  0  0  0  0  0  0  0  0  0  0  0
  154.0505  144.0129  162.0993 H   0  0  0  0  0  0  0  0  0  0  0  0
  151.0087  143.7321  162.0321 H   0  0  0  0  0  0  0  0  0  0  0  0
  151.9266  145.1888  161.7272 H   0  0  0  0  0  0  0  0  0  0  0  0
  152.9460  144.1806  159.7217 H   0  0  0  0  0  0  0  0  0  0  0  0
  149.8991  143.9393  159.7404 H   0  0  0  0  0  0  0  0  0  0  0  0
  150.8292  145.3895  159.4122 H   0  0  0  0  0  0  0  0  0  0  0  0
  148.3743  137.8394  153.0099 H   0  0  0  0  0  0  0  0  0  0  0  0
  1  2  1  0  0  0  0
  2  7  1  0  0  0  0
  2  3  2  0  0  0  0
  3  4  1  0  0  0  0
  3 20  1  0  0  0  0
  4  5  2  0  0  0  0
  4 40  1  0  0  0  0
  5  6  1  0  0  0  0
  5 21  1  0  0  0  0
  6  7  2  0  0  0  0
  6 22  1  0  0  0  0
  7  8  1  0  0  0  0
  8  9  1  0  0  0  0
  8 23  1  0  0  0  0
  9 10  1  0  0  0  0
  9 24  1  0  0  0  0
  9 25  1  0  0  0  0
 10 19  1  0  0  0  0
 10 11  1  0  0  0  0
 10 26  1  0  0  0  0
 11 12  1  0  0  0  0
 11 27  1  0  0  0  0
 11 28  1  0  0  0  0
 12 17  1  0  0  0  0
 12 13  1  0  0  0  0
 13 14  1  0  0  0  0
 13 29  1  0  0  0  0
 13 30  1  0  0  0  0
 14 15  1  0  0  0  0
 14 31  1  0  0  0  0
 14 32  1  0  0  0  0
 15 16  1  0  0  0  0
 15 33  1  0  0  0  0
 15 34  1  0  0  0  0
 16 17  1  0  0  0  0
 16 35  1  0  0  0  0
 16 36  1  0  0  0  0
 17 18  1  0  0  0  0
 17 37  1  0  0  0  0
 18 19  1  0  0  0  0
 18 38  1  0  0  0  0
 18 39  1  0  0  0  0
M  CHG  1   4   1
M  END
> <s_m_source_file>
AV-unprocessed.smi

> <i_m_source_file_index>
2822

> <i_lp_mmshare_version>
43012

> <i_f3d_flags>
0

> <s_epik_input>
Q2xjMVtjSF1uW2NIXVtjSF1jMVtOSF1bQ0gyXVtDQEhdKFtDSDJdMilPW0NIMl1bQ0BASF0oTjIzKVtDSDJdW0NIMl1bQ0gyXVtDSDJdMw==

> <s_epik_cmdline>
J2VwaWtfcHl0aG9uJywgJy1waCcsICc3LjAnLCAnLXRuJywgJzgnLCAnLW1hJywgJzIwMCcsICctbWV0YWxfYmluZGluZycsICctaW1hZScsICc8aW5maWxlLm1hZT4nLCAnLW9tYWUnLCAnPG91dGZpbGUubWFlPic=

> <r_epik_Ionization_Penalty>
1.37653

> <r_epik_Ionization_Penalty_Charging>
0.152973

> <r_epik_Ionization_Penalty_Neutral>
1.22356

> <r_epik_State_Penalty>
1.42693

> <r_epik_Charging_Adjusted_Penalty>
1.5799

> <i_epik_Tot_Q>
1

> <i_epik_Tot_abs_Q>
1

> <r_epik_Metal_State_Penalty>
4.59822

> <b_epik_Metal_Only>
0

> <s_lp_Force_Field>
OPLS_2005

> <r_lp_Energy>
43.1838

> <b_lp_Chiralities_Consistent>
1

> <s_lp_Variant>
AV-unprocessed.smi:2822-20

> <Gold.Version>
5.8.1

> <Gold.Id.Protein>
6NUR|6NUR_protein|mol2

> <Gold.PLP.Fitness>
52.7627

> <Gold.PLP.PLP>
-44.6021

> <Gold.PLP.part.hbond>
-3.0000

> <Gold.PLP.part.metal>
0.0000

> <Gold.PLP.part.buried>
-3.6224

> <Gold.PLP.part.nonpolar>
-37.8319

> <Gold.PLP.part.repulsive>
0.3887

> <Gold.PLP.ligand.clash>
0.0000

> <Gold.PLP.ligand.torsion>
0.4200

> <Gold.PLP.Chemscore.Hbond>
3.0000

> <Gold.PLP.Chemscore.CHOScore>
0.0000

> <Gold.PLP.Chemscore.Metal>
0.0000

> <Gold.Chemscore.Hbonds>
donor molecule, donor type, donor heavy atom, donor atom, acceptor molecule, acceptor atom, score
      L1  H     4    40       P1  7948  1.84
      L1  H     8    23       P1  8028  1.00

> <Gold.PLP.Chemscore.Internal.Correction>
0.0006

> <Gold.Rescore>
     Score         DG    S(hbond)    S(metal)    S(lipo)     H(rot)  DE(clash)    DE(int)     intcor
     22.42     -24.99       1.95        0.00     136.79       1.18       2.16       0.40       ----

> <Gold.Chemscore.Fitness>
22.4246

> <Gold.Chemscore.DG>
-24.9877

> <Gold.Chemscore.ZeroCoef>
-5.4800

> <Gold.Chemscore.Hbond>
1.9524

> <Gold.Chemscore.Metal>
0.0000

> <Gold.Chemscore.Lipo>
136.7890

> <Gold.Chemscore.Internal_Hbond>
0.0000

> <Gold.Chemscore.DEClash>
2.1602

> <Gold.Chemscore.DEInternal>
0.4030

> <Gold.Chemscore.Rot>
1.1788

> <Gold.Chemscore.Internal.Correction>
   9.000000E+99

> <Gold.Chemscore.Hbonds>
donor molecule, donor type, donor heavy atom, donor atom, acceptor molecule, acceptor atom, score
      L1  H     4    40       P1  7948  0.83
      L1  H     8    23       P1  8028  0.97

> <Gold.Chemscore.Hbond.Weighted>
-6.5211

> <Gold.Chemscore.Metal.Weighted>
-0.0000

> <Gold.Chemscore.Lipo.Weighted>
-16.0043

> <Gold.Chemscore.Internal_Hbond.Weighted>
0.0000

> <Gold.Chemscore.DEClash.Weighted>
2.1602

> <Gold.Chemscore.DEInternal.Weighted>
0.4030

> <Gold.Chemscore.Rot.Weighted>
3.0177

> <Gold.Chemscore.Internal.Correction.Weighted>
   9.000000E+99

> <Gold.Protein.RotatedTorsions>
[ 6907 6896 6895 6894 ] final  -54.87 input  -60.11 | X-H torsion
[ 7974 7965 7964 7962 ] final -162.70 input  175.53 | X-H torsion
[ 8008 7997 7996 7995 ] final -165.37 input   59.86 | X-H torsion
[ 10167 10162 10161 10158 ] final -150.49 input  -65.29 | X-H torsion
[ 10718 10713 10712 10709 ] final  179.82 input   66.30 | X-H torsion
[ 10763 10752 10751 10750 ] final  -44.81 input  -60.55 | X-H torsion
[ 11005 11000 10999 10996 ] final  -37.75 input  -57.11 | X-H torsion

> <Gold.Protein.ActiveResidues>
 VAL166  LYS551  ARG553  GLY616  TRP617  ASP618  TYR619  PRO620  LYS621  CYS622 
 ASP623  PHE694  ASN695  SER759  ASP760  ASP761  ALA762  ILE779  LEU786  VAL792 
 PHE793  MET794  SER795  GLU796  ALA797  LYS798  CYS799  TRP800  GLU811  SER814 

> <Gold.Protein.RotatedAtoms>
  150.8300  134.7549  159.6845 H   0  0  0  0  0  0  0  0  0  0  0  0  # atno 6907 bound_to 6896
  152.4406  134.5595  159.9900 H   0  0  0  0  0  0  0  0  0  0  0  0  # atno 6908 bound_to 6896
  151.5758  133.3346  159.3034 H   0  0  0  0  0  0  0  0  0  0  0  0  # atno 6909 bound_to 6896
  144.7349  140.3215  143.6170 H   0  0  0  0  0  0  0  0  0  0  0  0  # atno 7974 bound_to 7965
  155.8488  140.0960  157.1688 H   0  0  0  0  0  0  0  0  0  0  0  0  # atno 8008 bound_to 7997
  154.3984  140.1387  156.3880 H   0  0  0  0  0  0  0  0  0  0  0  0  # atno 8009 bound_to 7997
  155.7984  140.3453  155.5391 H   0  0  0  0  0  0  0  0  0  0  0  0  # atno 8010 bound_to 7997
  139.7350  143.8750  152.2546 H   0  0  0  0  0  0  0  0  0  0  0  0  # atno 10167 bound_to 10162
  156.8701  130.9781  151.3074 H   0  0  0  0  0  0  0  0  0  0  0  0  # atno 10718 bound_to 10713
  154.0182  135.6672  153.4770 H   0  0  0  0  0  0  0  0  0  0  0  0  # atno 10763 bound_to 10752
  153.0591  135.5038  154.8048 H   0  0  0  0  0  0  0  0  0  0  0  0  # atno 10764 bound_to 10752
  154.6954  135.3069  154.9384 H   0  0  0  0  0  0  0  0  0  0  0  0  # atno 10765 bound_to 10752
  140.9975  133.6972  156.1962 H   0  0  0  0  0  0  0  0  0  0  0  0  # atno 11005 bound_to 11000
  145.7564  139.1810  143.2292 LP  0  0  0  0  0  0  0  0  0  0  0  0  # atno 17320 bound_to 7965
  146.1021  140.7531  142.9544 LP  0  0  0  0  0  0  0  0  0  0  0  0  # atno 17321 bound_to 7965
  139.8684  144.7081  150.9016 LP  0  0  0  0  0  0  0  0  0  0  0  0  # atno 17342 bound_to 10162
  140.7777  143.3759  151.1565 LP  0  0  0  0  0  0  0  0  0  0  0  0  # atno 17343 bound_to 10162
  157.6201  130.8648  149.9093 LP  0  0  0  0  0  0  0  0  0  0  0  0  # atno 17370 bound_to 10713
  156.0731  130.3682  150.0734 LP  0  0  0  0  0  0  0  0  0  0  0  0  # atno 17371 bound_to 10713
  140.6942  134.4633  157.5588 LP  0  0  0  0  0  0  0  0  0  0  0  0  # atno 17394 bound_to 11000
  139.9022  134.8530  156.1849 LP  0  0  0  0  0  0  0  0  0  0  0  0  # atno 17395 bound_to 11000

$$$$
