AV-unprocessed.smi:2253|AV-procd|sdf|9122|dock5
  -GOLD-   2272012323D 1   1.00000     0.00000
 Structure written by MMmdl.
 51 53  0  0  0  0  0  0  0  0  2 V2000
  141.1680  137.4845  155.0884 C   0  0  0  0  0  0  0  0  0  0  0  0
  141.5766  136.7367  153.9075 N   0  0  0  0  0  0  0  0  0  0  0  0
  141.4105  135.3083  154.1594 C   0  0  0  0  0  0  0  0  0  0  0  0
  141.7652  134.5048  152.8970 C   0  0  0  0  0  0  0  0  0  0  0  0
  143.2173  134.7633  152.4266 C   0  0  0  0  0  0  0  0  0  0  0  0
  143.5383  134.0867  151.1245 N   0  3  2  0  0  0  0  0  0  0  0  0
  143.6792  132.6032  151.1790 C   0  0  0  0  0  0  0  0  0  0  0  0
  144.9780  132.1799  151.8899 C   0  0  0  0  0  0  0  0  0  0  0  0
  146.2055  132.7796  151.1827 C   0  0  2  0  0  0  0  0  0  0  0  0
  147.4195  132.4440  151.9214 N   0  0  0  0  0  0  0  0  0  0  0  0
  147.7256  132.8986  153.1457 C   0  0  0  0  0  0  0  0  0  0  0  0
  146.9822  133.6336  153.7942 O   0  0  0  0  0  0  0  0  0  0  0  0
  148.9265  132.4440  153.5444 N   0  0  0  0  0  0  0  0  0  0  0  0
  149.6475  132.7020  154.7449 C   0  0  0  0  0  0  0  0  0  0  0  0
  149.6808  133.9473  155.4203 C   0  0  0  0  0  0  0  0  0  0  0  0
  150.4442  134.0561  156.6003 C   0  0  0  0  0  0  0  0  0  0  0  0
  151.1508  133.0345  157.1277 N   0  0  0  0  0  0  0  0  0  0  0  0
  151.1179  131.8499  156.4826 C   0  0  0  0  0  0  0  0  0  0  0  0
  150.3874  131.6343  155.2969 C   0  0  0  0  0  0  0  0  0  0  0  0
  150.4003  130.4179  154.6995 F   0  0  0  0  0  0  0  0  0  0  0  0
  146.0450  134.3064  151.0401 C   0  0  0  0  0  0  0  0  0  0  0  0
  144.6965  134.6672  150.3850 C   0  0  0  0  0  0  0  0  0  0  0  0
  143.4109  136.2956  152.3322 C   0  0  0  0  0  0  0  0  0  0  0  0
  142.9799  137.0184  153.6196 C   0  0  0  0  0  0  0  0  0  0  0  0
  140.1200  137.2918  155.3200 H   0  0  0  0  0  0  0  0  0  0  0  0
  141.2770  138.5562  154.9190 H   0  0  0  0  0  0  0  0  0  0  0  0
  141.7662  137.2135  155.9597 H   0  0  0  0  0  0  0  0  0  0  0  0
  142.0345  134.9952  154.9984 H   0  0  0  0  0  0  0  0  0  0  0  0
  140.3753  135.1062  154.4378 H   0  0  0  0  0  0  0  0  0  0  0  0
  141.6170  133.4522  153.1362 H   0  0  0  0  0  0  0  0  0  0  0  0
  141.0629  134.7514  152.0993 H   0  0  0  0  0  0  0  0  0  0  0  0
  143.8841  134.3802  153.1992 H   0  0  0  0  0  0  0  0  0  0  0  0
  142.8104  132.1220  151.6240 H   0  0  0  0  0  0  0  0  0  0  0  0
  143.7014  132.2290  150.1541 H   0  0  0  0  0  0  0  0  0  0  0  0
  144.9511  132.4929  152.9345 H   0  0  0  0  0  0  0  0  0  0  0  0
  145.0522  131.0916  151.8992 H   0  0  0  0  0  0  0  0  0  0  0  0
  146.2657  132.3388  150.1853 H   0  0  0  0  0  0  0  0  0  0  0  0
  148.0836  131.8402  151.4590 H   0  0  0  0  0  0  0  0  0  0  0  0
  149.4022  131.8368  152.8928 H   0  0  0  0  0  0  0  0  0  0  0  0
  149.1491  134.8176  155.0710 H   0  0  0  0  0  0  0  0  0  0  0  0
  150.4886  134.9929  157.1358 H   0  0  0  0  0  0  0  0  0  0  0  0
  151.6928  131.0494  156.9241 H   0  0  0  0  0  0  0  0  0  0  0  0
  146.1284  134.7866  152.0155 H   0  0  0  0  0  0  0  0  0  0  0  0
  146.8583  134.7110  150.4362 H   0  0  0  0  0  0  0  0  0  0  0  0
  144.6815  134.2679  149.3700 H   0  0  0  0  0  0  0  0  0  0  0  0
  144.6072  135.7441  150.2613 H   0  0  0  0  0  0  0  0  0  0  0  0
  144.4539  136.5509  152.1542 H   0  0  0  0  0  0  0  0  0  0  0  0
  142.8446  136.6906  151.4871 H   0  0  0  0  0  0  0  0  0  0  0  0
  143.1158  138.0934  153.4934 H   0  0  0  0  0  0  0  0  0  0  0  0
  143.6090  136.7124  154.4574 H   0  0  0  0  0  0  0  0  0  0  0  0
  142.7288  134.2553  150.5440 H   0  0  0  0  0  0  0  0  0  0  0  0
  1  2  1  0  0  0  0
  1 25  1  0  0  0  0
  1 26  1  0  0  0  0
  1 27  1  0  0  0  0
  2 24  1  0  0  0  0
  2  3  1  0  0  0  0
  3  4  1  0  0  0  0
  3 28  1  0  0  0  0
  3 29  1  0  0  0  0
  4  5  1  0  0  0  0
  4 30  1  0  0  0  0
  4 31  1  0  0  0  0
  5  6  1  0  0  0  0
  5 23  1  0  0  0  0
  5 32  1  0  0  0  0
  6 22  1  0  0  0  0
  6  7  1  0  0  0  0
  6 51  1  0  0  0  0
  7  8  1  0  0  0  0
  7 33  1  0  0  0  0
  7 34  1  0  0  0  0
  8  9  1  0  0  0  0
  8 35  1  0  0  0  0
  8 36  1  0  0  0  0
  9 10  1  0  0  0  0
  9 21  1  0  0  0  0
  9 37  1  0  0  0  0
 10 11  1  0  0  0  0
 10 38  1  0  0  0  0
 11 12  2  0  0  0  0
 11 13  1  0  0  0  0
 13 14  1  0  0  0  0
 13 39  1  0  0  0  0
 14 19  1  0  0  0  0
 14 15  2  0  0  0  0
 15 16  1  0  0  0  0
 15 40  1  0  0  0  0
 16 17  2  0  0  0  0
 16 41  1  0  0  0  0
 17 18  1  0  0  0  0
 18 19  2  0  0  0  0
 18 42  1  0  0  0  0
 19 20  1  0  0  0  0
 21 22  1  0  0  0  0
 21 43  1  0  0  0  0
 21 44  1  0  0  0  0
 22 45  1  0  0  0  0
 22 46  1  0  0  0  0
 23 24  1  0  0  0  0
 23 47  1  0  0  0  0
 23 48  1  0  0  0  0
 24 49  1  0  0  0  0
 24 50  1  0  0  0  0
M  CHG  1   6   1
M  END
> <s_m_source_file>
AV-unprocessed.smi

> <i_m_source_file_index>
2253

> <i_lp_mmshare_version>
43012

> <i_f3d_flags>
0

> <s_epik_input>
W0NIM11OMVtDSDJdW0NIMl1bQ0hdKFtDSDJdW0NIMl0xKU4yW0NIMl1bQ0gyXVtDSF0oW0NIMl1bQ0gyXTIpW05IXUMoPU8pW05IXWMzW2NIXVtjSF1uW2NIXWMzRg==

> <s_epik_cmdline>
J2VwaWtfcHl0aG9uJywgJy1waCcsICc3LjAnLCAnLXRuJywgJzgnLCAnLW1hJywgJzIwMCcsICctbWV0YWxfYmluZGluZycsICctaW1hZScsICc8aW5maWxlLm1hZT4nLCAnLW9tYWUnLCAnPG91dGZpbGUubWFlPic=

> <r_epik_Ionization_Penalty>
1.37522

> <r_epik_Ionization_Penalty_Charging>
0.00081195

> <r_epik_Ionization_Penalty_Neutral>
1.3744

> <r_epik_State_Penalty>
1.55149

> <r_epik_Charging_Adjusted_Penalty>
1.5523

> <i_epik_Tot_Q>
1

> <i_epik_Tot_abs_Q>
1

> <r_epik_Metal_State_Penalty>
1.55158

> <b_epik_Metal_Only>
0

> <s_lp_Force_Field>
OPLS_2005

> <r_lp_Energy>
38.6229

> <b_lp_Chiralities_Consistent>
1

> <s_lp_Variant>
AV-unprocessed.smi:2253-8

> <Gold.Version>
5.8.1

> <Gold.Id.Protein>
6NUR|6NUR_protein|mol2

> <Gold.PLP.Fitness>
51.1844

> <Gold.PLP.PLP>
-41.1464

> <Gold.PLP.part.hbond>
-3.0000

> <Gold.PLP.part.metal>
0.0000

> <Gold.PLP.part.buried>
-5.4523

> <Gold.PLP.part.nonpolar>
-33.7617

> <Gold.PLP.part.repulsive>
0.1609

> <Gold.PLP.ligand.clash>
0.0000

> <Gold.PLP.ligand.torsion>
0.5983

> <Gold.PLP.Chemscore.Hbond>
3.7280

> <Gold.PLP.Chemscore.CHOScore>
0.0000

> <Gold.PLP.Chemscore.Metal>
0.0000

> <Gold.Chemscore.Hbonds>
donor molecule, donor type, donor heavy atom, donor atom, acceptor molecule, acceptor atom, score
      L1  H     6    51       P1 10186  2.00
      L1  H    10    38       P1 10747  1.00
      P1  H  6896  6909       L1    17  0.73

> <Gold.PLP.Chemscore.Internal.Correction>
0.0506

> <Gold.Rescore>
     Score         DG    S(hbond)    S(metal)    S(lipo)     H(rot)  DE(clash)    DE(int)     intcor
     18.47     -20.59       2.46        0.00      85.90       1.24       0.39       1.73       ----

> <Gold.Chemscore.Fitness>
18.4747

> <Gold.Chemscore.DG>
-20.5947

> <Gold.Chemscore.ZeroCoef>
-5.4800

> <Gold.Chemscore.Hbond>
2.4648

> <Gold.Chemscore.Metal>
0.0000

> <Gold.Chemscore.Lipo>
85.9048

> <Gold.Chemscore.Internal_Hbond>
0.0000

> <Gold.Chemscore.DEClash>
0.3867

> <Gold.Chemscore.DEInternal>
1.7333

> <Gold.Chemscore.Rot>
1.2377

> <Gold.Chemscore.Internal.Correction>
   9.000000E+99

> <Gold.Chemscore.Hbonds>
donor molecule, donor type, donor heavy atom, donor atom, acceptor molecule, acceptor atom, score
      L1  H     6    51       P1 10186  0.64
      L1  H    10    38       P1 10747  1.00
      P1  H  6896  6909       L1    17  0.42

> <Gold.Chemscore.Hbond.Weighted>
-8.2324

> <Gold.Chemscore.Metal.Weighted>
-0.0000

> <Gold.Chemscore.Lipo.Weighted>
-10.0509

> <Gold.Chemscore.Internal_Hbond.Weighted>
0.0000

> <Gold.Chemscore.DEClash.Weighted>
0.3867

> <Gold.Chemscore.DEInternal.Weighted>
1.7333

> <Gold.Chemscore.Rot.Weighted>
3.1685

> <Gold.Chemscore.Internal.Correction.Weighted>
   9.000000E+99

> <Gold.Protein.RotatedTorsions>
[ 6907 6896 6895 6894 ] final  -37.01 input  -60.11 | X-H torsion
[ 7974 7965 7964 7962 ] final  151.48 input  175.53 | X-H torsion
[ 8008 7997 7996 7995 ] final   -2.92 input   59.86 | X-H torsion
[ 10167 10162 10161 10158 ] final   77.48 input  -65.29 | X-H torsion
[ 10718 10713 10712 10709 ] final    5.99 input   66.30 | X-H torsion
[ 10763 10752 10751 10750 ] final -149.02 input  -60.55 | X-H torsion
[ 11005 11000 10999 10996 ] final  121.73 input  -57.11 | X-H torsion

> <Gold.Protein.ActiveResidues>
 VAL166  LYS551  ARG553  GLY616  TRP617  ASP618  TYR619  PRO620  LYS621  CYS622 
 ASP623  PHE694  ASN695  SER759  ASP760  ASP761  ALA762  ILE779  LEU786  VAL792 
 PHE793  MET794  SER795  GLU796  ALA797  LYS798  CYS799  TRP800  GLU811  SER814 

> <Gold.Protein.RotatedAtoms>
  151.0200  134.9462  159.8054 H   0  0  0  0  0  0  0  0  0  0  0  0  # atno 6907 bound_to 6896
  152.5323  134.2916  159.9055 H   0  0  0  0  0  0  0  0  0  0  0  0  # atno 6908 bound_to 6896
  151.2923  133.4118  159.2668 H   0  0  0  0  0  0  0  0  0  0  0  0  # atno 6909 bound_to 6896
  144.8289  139.6544  143.6067 H   0  0  0  0  0  0  0  0  0  0  0  0  # atno 7974 bound_to 7965
  154.6304  140.2522  155.7440 H   0  0  0  0  0  0  0  0  0  0  0  0  # atno 8008 bound_to 7997
  156.2476  140.2908  156.0573 H   0  0  0  0  0  0  0  0  0  0  0  0  # atno 8009 bound_to 7997
  155.1753  140.0387  157.2861 H   0  0  0  0  0  0  0  0  0  0  0  0  # atno 8010 bound_to 7997
  139.9812  144.5825  150.7899 H   0  0  0  0  0  0  0  0  0  0  0  0  # atno 10167 bound_to 10162
  156.9156  130.5772  149.5647 H   0  0  0  0  0  0  0  0  0  0  0  0  # atno 10718 bound_to 10713
  154.8200  135.3319  154.7065 H   0  0  0  0  0  0  0  0  0  0  0  0  # atno 10763 bound_to 10752
  153.7699  135.6926  153.4913 H   0  0  0  0  0  0  0  0  0  0  0  0  # atno 10764 bound_to 10752
  153.2052  135.4502  155.0263 H   0  0  0  0  0  0  0  0  0  0  0  0  # atno 10765 bound_to 10752
  139.9238  134.9639  156.8002 H   0  0  0  0  0  0  0  0  0  0  0  0  # atno 11005 bound_to 11000
  146.2593  139.6374  142.9373 LP  0  0  0  0  0  0  0  0  0  0  0  0  # atno 17320 bound_to 7965
  145.4939  141.0438  143.2578 LP  0  0  0  0  0  0  0  0  0  0  0  0  # atno 17321 bound_to 7965
  140.7488  143.2929  151.3283 LP  0  0  0  0  0  0  0  0  0  0  0  0  # atno 17342 bound_to 10162
  139.6409  144.0542  152.2553 LP  0  0  0  0  0  0  0  0  0  0  0  0  # atno 17343 bound_to 10162
  156.0515  130.5584  150.9000 LP  0  0  0  0  0  0  0  0  0  0  0  0  # atno 17370 bound_to 10713
  157.5940  131.0943  150.9071 LP  0  0  0  0  0  0  0  0  0  0  0  0  # atno 17371 bound_to 10713
  140.6396  133.9830  155.7701 LP  0  0  0  0  0  0  0  0  0  0  0  0  # atno 17394 bound_to 11000
  141.0780  134.0106  157.3429 LP  0  0  0  0  0  0  0  0  0  0  0  0  # atno 17395 bound_to 11000

$$$$
