AV-unprocessed.smi:1831|AV-procd|sdf|7460|dock8
  -GOLD-   22720 9153D 1   1.00000     0.00000
 Structure written by MMmdl.
 40 41  0  0  0  0  0  0  0  0  3 V2000
  153.3081  142.9729  162.3402 C   0  0  0  0  0  0  0  0  0  0  0  0
  152.4015  143.2606  161.1932 C   0  0  0  0  0  0  0  0  0  0  0  0
  151.3220  144.0382  161.3048 N   0  0  0  0  0  0  0  0  0  0  0  0
  150.6385  144.1597  160.1035 N   0  0  0  0  0  0  0  0  0  0  0  0
  151.2130  143.4804  159.1013 C   0  0  0  0  0  0  0  0  0  0  0  0
  150.7092  143.4677  157.8563 N   0  5  0  0  0  0  0  0  0  0  0  0
  150.8070  142.3508  157.1025 C   0  0  0  0  0  0  0  0  0  0  0  0
  151.4968  141.3600  157.3513 O   0  0  0  0  0  0  0  0  0  0  0  0
  150.0221  142.3669  156.0156 N   0  0  0  0  0  0  0  0  0  0  0  0
  149.8091  141.2624  155.0804 C   0  0  0  0  0  0  0  0  0  0  0  0
  148.3429  140.7609  155.0469 C   0  0  2  0  0  0  0  0  0  0  0  0
  147.6965  140.8360  153.6555 C   0  0  0  0  0  0  0  0  0  0  0  0
  146.7365  142.0350  153.6973 C   0  0  0  0  0  0  0  0  0  0  0  0
  146.8555  142.6381  155.0443 N   0  3  1  0  0  0  0  0  0  0  0  0
  145.6470  143.3509  155.5417 C   0  0  0  0  0  0  0  0  0  0  0  0
  145.7361  143.6083  157.0576 C   0  0  0  0  0  0  0  0  0  0  0  0
  144.3618  142.5634  155.2262 C   0  0  0  0  0  0  0  0  0  0  0  0
  147.3856  141.5756  155.9240 C   0  0  0  0  0  0  0  0  0  0  0  0
  152.6648  142.6050  159.5860 S   0  0  0  0  0  0  0  0  0  0  0  0
  153.8156  143.8855  162.6529 H   0  0  0  0  0  0  0  0  0  0  0  0
  154.0585  142.2351  162.0558 H   0  0  0  0  0  0  0  0  0  0  0  0
  152.7361  142.5817  163.1818 H   0  0  0  0  0  0  0  0  0  0  0  0
  149.4925  143.2097  155.8463 H   0  0  0  0  0  0  0  0  0  0  0  0
  150.0864  141.6214  154.0890 H   0  0  0  0  0  0  0  0  0  0  0  0
  150.4876  140.4356  155.2958 H   0  0  0  0  0  0  0  0  0  0  0  0
  148.3487  139.7266  155.3933 H   0  0  0  0  0  0  0  0  0  0  0  0
  148.4363  140.9342  152.8601 H   0  0  0  0  0  0  0  0  0  0  0  0
  147.1335  139.9237  153.4543 H   0  0  0  0  0  0  0  0  0  0  0  0
  146.9808  142.7729  152.9324 H   0  0  0  0  0  0  0  0  0  0  0  0
  145.7160  141.6920  153.5208 H   0  0  0  0  0  0  0  0  0  0  0  0
  145.5877  144.3157  155.0356 H   0  0  0  0  0  0  0  0  0  0  0  0
  144.8318  144.0932  157.4262 H   0  0  0  0  0  0  0  0  0  0  0  0
  146.5710  144.2606  157.3134 H   0  0  0  0  0  0  0  0  0  0  0  0
  145.8598  142.6770  157.6111 H   0  0  0  0  0  0  0  0  0  0  0  0
  143.4866  143.0570  155.6500 H   0  0  0  0  0  0  0  0  0  0  0  0
  144.4038  141.5544  155.6384 H   0  0  0  0  0  0  0  0  0  0  0  0
  144.1874  142.4801  154.1536 H   0  0  0  0  0  0  0  0  0  0  0  0
  146.5611  140.9406  156.2529 H   0  0  0  0  0  0  0  0  0  0  0  0
  147.8729  141.9721  156.8146 H   0  0  0  0  0  0  0  0  0  0  0  0
  147.5956  143.3236  154.9738 H   0  0  0  0  0  0  0  0  0  0  0  0
  1  2  1  0  0  0  0
  1 20  1  0  0  0  0
  1 21  1  0  0  0  0
  1 22  1  0  0  0  0
  2 19  1  0  0  0  0
  2  3  2  0  0  0  0
  3  4  1  0  0  0  0
  4  5  2  0  0  0  0
  5  6  1  0  0  0  0
  5 19  1  0  0  0  0
  6  7  1  0  0  0  0
  7  8  2  0  0  0  0
  7  9  1  0  0  0  0
  9 10  1  0  0  0  0
  9 23  1  0  0  0  0
 10 11  1  0  0  0  0
 10 24  1  0  0  0  0
 10 25  1  0  0  0  0
 11 18  1  0  0  0  0
 11 12  1  0  0  0  0
 11 26  1  0  0  0  0
 12 13  1  0  0  0  0
 12 27  1  0  0  0  0
 12 28  1  0  0  0  0
 13 14  1  0  0  0  0
 13 29  1  0  0  0  0
 13 30  1  0  0  0  0
 14 15  1  0  0  0  0
 14 18  1  0  0  0  0
 14 40  1  0  0  0  0
 15 16  1  0  0  0  0
 15 17  1  0  0  0  0
 15 31  1  0  0  0  0
 16 32  1  0  0  0  0
 16 33  1  0  0  0  0
 16 34  1  0  0  0  0
 17 35  1  0  0  0  0
 17 36  1  0  0  0  0
 17 37  1  0  0  0  0
 18 38  1  0  0  0  0
 18 39  1  0  0  0  0
M  CHG  1   6  -1
M  CHG  1  14   1
M  END
> <s_m_source_file>
AV-unprocessed.smi

> <i_m_source_file_index>
1831

> <i_lp_mmshare_version>
43012

> <i_f3d_flags>
0

> <s_epik_input>
W0NIM11jMW5uYyhzMSlbTkhdQyg9TylbTkhdW0NIMl1bQ0BASF0yW0NIMl1bQ0gyXU4oW0NIMl0yKVtDSF0oW0NIM10pW0NIM10=

> <s_epik_cmdline>
J2VwaWtfcHl0aG9uJywgJy1waCcsICc3LjAnLCAnLXRuJywgJzgnLCAnLW1hJywgJzIwMCcsICctbWV0YWxfYmluZGluZycsICctaW1hZScsICc8aW5maWxlLm1hZT4nLCAnLW9tYWUnLCAnPG91dGZpbGUubWFlPic=

> <r_lp_tautomer_probability>
1

> <r_epik_Ionization_Penalty>
4.24531

> <r_epik_Ionization_Penalty_Charging>
4.11954

> <r_epik_Ionization_Penalty_Neutral>
0.125766

> <r_epik_State_Penalty>
4.11879

> <r_epik_Charging_Adjusted_Penalty>
8.23833

> <i_epik_Tot_Q>
0

> <i_epik_Tot_abs_Q>
2

> <r_epik_Metal_State_Penalty>
0.659341

> <b_epik_Metal_Only>
1

> <s_lp_Force_Field>
OPLS_2005

> <r_lp_Energy>
22.0545

> <b_lp_Chiralities_Consistent>
1

> <s_lp_Variant>
AV-unprocessed.smi:1831-5

> <Gold.Version>
5.8.1

> <Gold.Id.Protein>
6NUR|6NUR_protein|mol2

> <Gold.PLP.Fitness>
42.9111

> <Gold.PLP.PLP>
-36.6089

> <Gold.PLP.part.hbond>
-3.4288

> <Gold.PLP.part.metal>
0.0000

> <Gold.PLP.part.buried>
-6.3948

> <Gold.PLP.part.nonpolar>
-26.8315

> <Gold.PLP.part.repulsive>
0.6506

> <Gold.PLP.ligand.clash>
0.0000

> <Gold.PLP.ligand.torsion>
1.3728

> <Gold.PLP.Chemscore.Hbond>
3.0000

> <Gold.PLP.Chemscore.CHOScore>
0.0000

> <Gold.PLP.Chemscore.Metal>
0.0000

> <Gold.Chemscore.Hbonds>
donor molecule, donor type, donor heavy atom, donor atom, acceptor molecule, acceptor atom, score
      L1  H     9    23       P1  8028  1.00
      L1  H    14    40       P1  8028  2.00

> <Gold.PLP.Chemscore.Internal.Correction>
0.0477

> <Gold.Rescore>
     Score         DG    S(hbond)    S(metal)    S(lipo)     H(rot)  DE(clash)    DE(int)     intcor
     12.10     -14.88       1.34        0.00      75.17       1.51       0.08       2.69       ----

> <Gold.Chemscore.Fitness>
12.1046

> <Gold.Chemscore.DG>
-14.8786

> <Gold.Chemscore.ZeroCoef>
-5.4800

> <Gold.Chemscore.Hbond>
1.3404

> <Gold.Chemscore.Metal>
0.0000

> <Gold.Chemscore.Lipo>
75.1716

> <Gold.Chemscore.Internal_Hbond>
0.0000

> <Gold.Chemscore.DEClash>
0.0846

> <Gold.Chemscore.DEInternal>
2.6895

> <Gold.Chemscore.Rot>
1.5131

> <Gold.Chemscore.Internal.Correction>
   9.000000E+99

> <Gold.Chemscore.Hbonds>
donor molecule, donor type, donor heavy atom, donor atom, acceptor molecule, acceptor atom, score
      L1  H     9    23       P1  8028  1.00
      L1  H    14    40       P1  8028  0.33

> <Gold.Chemscore.Hbond.Weighted>
-4.4770

> <Gold.Chemscore.Metal.Weighted>
-0.0000

> <Gold.Chemscore.Lipo.Weighted>
-8.7951

> <Gold.Chemscore.Internal_Hbond.Weighted>
0.0000

> <Gold.Chemscore.DEClash.Weighted>
0.0846

> <Gold.Chemscore.DEInternal.Weighted>
2.6895

> <Gold.Chemscore.Rot.Weighted>
3.8735

> <Gold.Chemscore.Internal.Correction.Weighted>
   9.000000E+99

> <Gold.Protein.RotatedTorsions>
[ 6907 6896 6895 6894 ] final  -47.81 input  -60.11 | X-H torsion
[ 7974 7965 7964 7962 ] final  -31.99 input  175.53 | X-H torsion
[ 8008 7997 7996 7995 ] final  -93.14 input   59.86 | X-H torsion
[ 10167 10162 10161 10158 ] final   71.05 input  -65.29 | X-H torsion
[ 10718 10713 10712 10709 ] final  -99.65 input   66.30 | X-H torsion
[ 10763 10752 10751 10750 ] final -141.71 input  -60.55 | X-H torsion
[ 11005 11000 10999 10996 ] final   -7.00 input  -57.11 | X-H torsion

> <Gold.Protein.ActiveResidues>
 VAL166  LYS551  ARG553  GLY616  TRP617  ASP618  TYR619  PRO620  LYS621  CYS622 
 ASP623  PHE694  ASN695  SER759  ASP760  ASP761  ALA762  ILE779  LEU786  VAL792 
 PHE793  MET794  SER795  GLU796  ALA797  LYS798  CYS799  TRP800  GLU811  SER814 

> <Gold.Protein.RotatedAtoms>
  150.8969  134.8378  159.7332 H   0  0  0  0  0  0  0  0  0  0  0  0  # atno 6907 bound_to 6896
  152.4870  134.4562  159.9600 H   0  0  0  0  0  0  0  0  0  0  0  0  # atno 6908 bound_to 6896
  151.4618  133.3552  159.2845 H   0  0  0  0  0  0  0  0  0  0  0  0  # atno 6909 bound_to 6896
  146.1025  140.5737  142.8815 H   0  0  0  0  0  0  0  0  0  0  0  0  # atno 7974 bound_to 7965
  154.7319  140.0502  157.0734 H   0  0  0  0  0  0  0  0  0  0  0  0  # atno 8008 bound_to 7997
  155.0290  140.3156  155.4746 H   0  0  0  0  0  0  0  0  0  0  0  0  # atno 8009 bound_to 7997
  156.2843  140.2153  156.5411 H   0  0  0  0  0  0  0  0  0  0  0  0  # atno 8010 bound_to 7997
  140.0503  144.5317  150.7368 H   0  0  0  0  0  0  0  0  0  0  0  0  # atno 10167 bound_to 10162
  156.0140  130.5292  150.6701 H   0  0  0  0  0  0  0  0  0  0  0  0  # atno 10718 bound_to 10713
  154.8535  135.3517  154.5911 H   0  0  0  0  0  0  0  0  0  0  0  0  # atno 10763 bound_to 10752
  153.6520  135.6993  153.5210 H   0  0  0  0  0  0  0  0  0  0  0  0  # atno 10764 bound_to 10752
  153.2886  135.4241  155.1104 H   0  0  0  0  0  0  0  0  0  0  0  0  # atno 10765 bound_to 10752
  140.7080  133.8932  155.8730 H   0  0  0  0  0  0  0  0  0  0  0  0  # atno 11005 bound_to 11000
  144.7444  140.5028  143.6846 LP  0  0  0  0  0  0  0  0  0  0  0  0  # atno 17320 bound_to 7965
  145.5827  139.1490  143.3226 LP  0  0  0  0  0  0  0  0  0  0  0  0  # atno 17321 bound_to 7965
  140.7220  143.2598  151.4248 LP  0  0  0  0  0  0  0  0  0  0  0  0  # atno 17342 bound_to 10162
  139.5957  144.1402  152.2141 LP  0  0  0  0  0  0  0  0  0  0  0  0  # atno 17343 bound_to 10162
  157.4426  131.0863  151.0928 LP  0  0  0  0  0  0  0  0  0  0  0  0  # atno 17370 bound_to 10713
  157.1468  130.6167  149.5571 LP  0  0  0  0  0  0  0  0  0  0  0  0  # atno 17371 bound_to 10713
  141.0108  134.1023  157.4223 LP  0  0  0  0  0  0  0  0  0  0  0  0  # atno 17394 bound_to 11000
  139.8879  135.0093  156.6588 LP  0  0  0  0  0  0  0  0  0  0  0  0  # atno 17395 bound_to 11000

$$$$
