AV-unprocessed.smi:1088|AV-procd|sdf|4730|dock3
  -GOLD-   22720 3263D 1   1.00000     0.00000
 Structure written by MMmdl.
 48 49  0  0  0  0  0  0  0  0  2 V2000
  141.7189  141.7726  156.1027 C   0  0  0  0  0  0  0  0  0  0  0  0
  142.9977  141.7952  156.7124 O   0  0  0  0  0  0  0  0  0  0  0  0
  144.0493  141.8757  155.7653 C   0  0  0  0  0  0  0  0  0  0  0  0
  144.5572  140.4589  155.4635 C   0  0  0  0  0  0  0  0  0  0  0  0
  145.6440  140.4625  154.4532 N   0  3  2  0  0  0  0  0  0  0  0  0
  146.4150  139.2033  154.3300 C   0  0  0  0  0  0  0  0  0  0  0  0
  147.8290  139.5954  153.8790 C   0  0  0  0  0  0  0  0  0  0  0  0
  147.7567  141.0983  153.6116 C   0  0  0  0  0  0  0  0  0  0  0  0
  146.6162  141.5801  154.5161 C   0  0  2  0  0  0  0  0  0  0  0  0
  147.0865  141.9083  155.9582 C   0  0  0  0  0  0  0  0  0  0  0  0
  148.5072  142.2307  156.0145 N   0  0  0  0  0  0  0  0  0  0  0  0
  149.4799  141.3978  156.4214 C   0  0  0  0  0  0  0  0  0  0  0  0
  149.2559  140.2435  156.7838 O   0  0  0  0  0  0  0  0  0  0  0  0
  150.9255  141.9230  156.4453 C   0  0  0  0  0  0  0  0  0  0  0  0
  151.4127  142.3268  157.7730 N   0  0  0  0  0  0  0  0  0  0  0  0
  150.9805  143.5191  158.3250 C   0  0  0  0  0  0  0  0  0  0  0  0
  151.3919  143.9755  159.5280 C   0  0  0  0  0  0  0  0  0  0  0  0
  152.3372  143.2135  160.3350 C   0  0  0  0  0  0  0  0  0  0  0  0
  152.7549  143.6041  161.4256 O   0  0  0  0  0  0  0  0  0  0  0  0
  152.7501  141.9900  159.7548 N   0  0  0  0  0  0  0  0  0  0  0  0
  153.7022  141.1672  160.4718 C   0  0  0  0  0  0  0  0  0  0  0  0
  152.3284  141.5260  158.4889 C   0  0  0  0  0  0  0  0  0  0  0  0
  152.7481  140.4705  158.0087 O   0  0  0  0  0  0  0  0  0  0  0  0
  140.9483  141.7102  156.8708 H   0  0  0  0  0  0  0  0  0  0  0  0
  141.6101  140.9085  155.4461 H   0  0  0  0  0  0  0  0  0  0  0  0
  141.5423  142.6788  155.5219 H   0  0  0  0  0  0  0  0  0  0  0  0
  143.6772  142.3308  154.8464 H   0  0  0  0  0  0  0  0  0  0  0  0
  144.8556  142.5102  156.1355 H   0  0  0  0  0  0  0  0  0  0  0  0
  144.9266  140.0125  156.3877 H   0  0  0  0  0  0  0  0  0  0  0  0
  143.7307  139.8369  155.1175 H   0  0  0  0  0  0  0  0  0  0  0  0
  146.4607  138.6760  155.2842 H   0  0  0  0  0  0  0  0  0  0  0  0
  145.9310  138.5454  153.6075 H   0  0  0  0  0  0  0  0  0  0  0  0
  148.5413  139.3945  154.6803 H   0  0  0  0  0  0  0  0  0  0  0  0
  148.1557  139.0387  153.0002 H   0  0  0  0  0  0  0  0  0  0  0  0
  148.7073  141.6047  153.7809 H   0  0  0  0  0  0  0  0  0  0  0  0
  147.4839  141.2654  152.5686 H   0  0  0  0  0  0  0  0  0  0  0  0
  146.1492  142.4672  154.0864 H   0  0  0  0  0  0  0  0  0  0  0  0
  146.5283  142.7478  156.3746 H   0  0  0  0  0  0  0  0  0  0  0  0
  146.9083  141.0616  156.6218 H   0  0  0  0  0  0  0  0  0  0  0  0
  148.7760  143.1604  155.7259 H   0  0  0  0  0  0  0  0  0  0  0  0
  151.5736  141.1419  156.0455 H   0  0  0  0  0  0  0  0  0  0  0  0
  151.0085  142.7526  155.7412 H   0  0  0  0  0  0  0  0  0  0  0  0
  150.2822  144.1227  157.7634 H   0  0  0  0  0  0  0  0  0  0  0  0
  151.0192  144.9197  159.8974 H   0  0  0  0  0  0  0  0  0  0  0  0
  153.3889  140.1252  160.3874 H   0  0  0  0  0  0  0  0  0  0  0  0
  153.7215  141.4328  161.5286 H   0  0  0  0  0  0  0  0  0  0  0  0
  154.6755  141.3316  160.0076 H   0  0  0  0  0  0  0  0  0  0  0  0
  145.1868  140.5802  153.5599 H   0  0  0  0  0  0  0  0  0  0  0  0
  1  2  1  0  0  0  0
  1 24  1  0  0  0  0
  1 25  1  0  0  0  0
  1 26  1  0  0  0  0
  2  3  1  0  0  0  0
  3  4  1  0  0  0  0
  3 27  1  0  0  0  0
  3 28  1  0  0  0  0
  4  5  1  0  0  0  0
  4 29  1  0  0  0  0
  4 30  1  0  0  0  0
  5  9  1  0  0  0  0
  5  6  1  0  0  0  0
  5 48  1  0  0  0  0
  6  7  1  0  0  0  0
  6 31  1  0  0  0  0
  6 32  1  0  0  0  0
  7  8  1  0  0  0  0
  7 33  1  0  0  0  0
  7 34  1  0  0  0  0
  8  9  1  0  0  0  0
  8 35  1  0  0  0  0
  8 36  1  0  0  0  0
  9 10  1  0  0  0  0
  9 37  1  0  0  0  0
 10 11  1  0  0  0  0
 10 38  1  0  0  0  0
 10 39  1  0  0  0  0
 11 12  1  0  0  0  0
 11 40  1  0  0  0  0
 12 13  2  0  0  0  0
 12 14  1  0  0  0  0
 14 15  1  0  0  0  0
 14 41  1  0  0  0  0
 14 42  1  0  0  0  0
 15 22  1  0  0  0  0
 15 16  1  0  0  0  0
 16 17  2  0  0  0  0
 16 43  1  0  0  0  0
 17 18  1  0  0  0  0
 17 44  1  0  0  0  0
 18 19  2  0  0  0  0
 18 20  1  0  0  0  0
 20 21  1  0  0  0  0
 20 22  1  0  0  0  0
 21 45  1  0  0  0  0
 21 46  1  0  0  0  0
 21 47  1  0  0  0  0
 22 23  2  0  0  0  0
M  CHG  1   5   1
M  END
> <s_m_source_file>
AV-unprocessed.smi

> <i_m_source_file_index>
1088

> <i_lp_mmshare_version>
43012

> <i_f3d_flags>
0

> <s_epik_input>
W0NIM11PW0NIMl1bQ0gyXU4xW0NIMl1bQ0gyXVtDSDJdW0NASF0xW0NIMl1bTkhdQyg9TylbQ0gyXW4yW2NIXVtjSF1jKD1PKW4oW0NIM10pYzI9Tw==

> <s_epik_cmdline>
J2VwaWtfcHl0aG9uJywgJy1waCcsICc3LjAnLCAnLXRuJywgJzgnLCAnLW1hJywgJzIwMCcsICctbWV0YWxfYmluZGluZycsICctaW1hZScsICc8aW5maWxlLm1hZT4nLCAnLW9tYWUnLCAnPG91dGZpbGUubWFlPic=

> <r_lp_tautomer_probability>
1

> <r_epik_Ionization_Penalty>
0.0127388

> <r_epik_Ionization_Penalty_Charging>
0.0127387

> <r_epik_Ionization_Penalty_Neutral>
8.26414e-08

> <r_epik_State_Penalty>
0.00987716

> <r_epik_Charging_Adjusted_Penalty>
0.0226159

> <i_epik_Tot_Q>
1

> <i_epik_Tot_abs_Q>
1

> <r_epik_Metal_State_Penalty>
0.00987836

> <b_epik_Metal_Only>
0

> <s_lp_Force_Field>
OPLS_2005

> <r_lp_Energy>
40.6263

> <b_lp_Chiralities_Consistent>
1

> <s_lp_Variant>
AV-unprocessed.smi:1088-3

> <Gold.Version>
5.8.1

> <Gold.Id.Protein>
6NUR|6NUR_protein|mol2

> <Gold.PLP.Fitness>
47.1981

> <Gold.PLP.PLP>
-35.4049

> <Gold.PLP.part.hbond>
-3.0000

> <Gold.PLP.part.metal>
0.0000

> <Gold.PLP.part.buried>
-2.2710

> <Gold.PLP.part.nonpolar>
-29.4395

> <Gold.PLP.part.repulsive>
0.2126

> <Gold.PLP.ligand.clash>
0.0000

> <Gold.PLP.ligand.torsion>
1.5039

> <Gold.PLP.Chemscore.Hbond>
3.8723

> <Gold.PLP.Chemscore.CHOScore>
0.9962

> <Gold.PLP.Chemscore.Metal>
0.0000

> <Gold.Chemscore.Hbonds>
donor molecule, donor type, donor heavy atom, donor atom, acceptor molecule, acceptor atom, score
      L1  H     5    48       P1 10175  2.00
      L1  H    11    40       P1  8028  1.00
      P1  H  7997  8010       L1    23  0.69
      L1  C    16    43       P1  8028  0.91

> <Gold.PLP.Chemscore.Internal.Correction>
0.1955

> <Gold.Rescore>
     Score         DG    S(hbond)    S(metal)    S(lipo)     H(rot)  DE(clash)    DE(int)     intcor
     14.64     -16.00       2.93        0.00      62.41       2.57       0.03       1.33       ----

> <Gold.Chemscore.Fitness>
14.6374

> <Gold.Chemscore.DG>
-15.9990

> <Gold.Chemscore.ZeroCoef>
-5.4800

> <Gold.Chemscore.Hbond>
2.9324

> <Gold.Chemscore.Metal>
0.0000

> <Gold.Chemscore.Lipo>
62.4090

> <Gold.Chemscore.Internal_Hbond>
0.0000

> <Gold.Chemscore.DEClash>
0.0300

> <Gold.Chemscore.DEInternal>
1.3316

> <Gold.Chemscore.Rot>
2.5692

> <Gold.Chemscore.Internal.Correction>
   9.000000E+99

> <Gold.Chemscore.Hbonds>
donor molecule, donor type, donor heavy atom, donor atom, acceptor molecule, acceptor atom, score
      L1  H     5    48       P1 10175  0.93
      L1  H    11    40       P1  8028  0.96
      P1  H  7997  8010       L1    23  0.67

> <Gold.Chemscore.Hbond.Weighted>
-9.7943

> <Gold.Chemscore.Metal.Weighted>
-0.0000

> <Gold.Chemscore.Lipo.Weighted>
-7.3019

> <Gold.Chemscore.Internal_Hbond.Weighted>
0.0000

> <Gold.Chemscore.DEClash.Weighted>
0.0300

> <Gold.Chemscore.DEInternal.Weighted>
1.3316

> <Gold.Chemscore.Rot.Weighted>
6.5772

> <Gold.Chemscore.Internal.Correction.Weighted>
   9.000000E+99

> <Gold.Protein.RotatedTorsions>
[ 6907 6896 6895 6894 ] final  101.49 input  -60.11 | X-H torsion
[ 7974 7965 7964 7962 ] final   54.64 input  175.53 | X-H torsion
[ 8008 7997 7996 7995 ] final   49.01 input   59.86 | X-H torsion
[ 10167 10162 10161 10158 ] final  157.37 input  -65.29 | X-H torsion
[ 10718 10713 10712 10709 ] final  -85.04 input   66.30 | X-H torsion
[ 10763 10752 10751 10750 ] final    9.91 input  -60.55 | X-H torsion
[ 11005 11000 10999 10996 ] final -143.69 input  -57.11 | X-H torsion

> <Gold.Protein.ActiveResidues>
 VAL166  LYS551  ARG553  GLY616  TRP617  ASP618  TYR619  PRO620  LYS621  CYS622 
 ASP623  PHE694  ASN695  SER759  ASP760  ASP761  ALA762  ILE779  LEU786  VAL792 
 PHE793  MET794  SER795  GLU796  ALA797  LYS798  CYS799  TRP800  GLU811  SER814 

> <Gold.Protein.RotatedAtoms>
  152.5348  134.0118  159.7941 H   0  0  0  0  0  0  0  0  0  0  0  0  # atno 6907 bound_to 6896
  151.0319  133.5774  159.2667 H   0  0  0  0  0  0  0  0  0  0  0  0  # atno 6908 bound_to 6896
  151.2776  135.0711  159.9211 H   0  0  0  0  0  0  0  0  0  0  0  0  # atno 6909 bound_to 6896
  145.9587  139.4039  143.0261 H   0  0  0  0  0  0  0  0  0  0  0  0  # atno 7974 bound_to 7965
  155.3952  140.3435  155.4253 H   0  0  0  0  0  0  0  0  0  0  0  0  # atno 8008 bound_to 7997
  156.1535  140.1578  156.8763 H   0  0  0  0  0  0  0  0  0  0  0  0  # atno 8009 bound_to 7997
  154.5074  140.0799  156.7902 H   0  0  0  0  0  0  0  0  0  0  0  0  # atno 8010 bound_to 7997
  139.4823  144.4924  151.8289 H   0  0  0  0  0  0  0  0  0  0  0  0  # atno 10167 bound_to 10162
  156.0000  130.4718  150.4502 H   0  0  0  0  0  0  0  0  0  0  0  0  # atno 10718 bound_to 10713
  153.2088  135.6866  153.8139 H   0  0  0  0  0  0  0  0  0  0  0  0  # atno 10763 bound_to 10752
  153.7379  135.3242  155.3299 H   0  0  0  0  0  0  0  0  0  0  0  0  # atno 10764 bound_to 10752
  154.8211  135.4651  154.0887 H   0  0  0  0  0  0  0  0  0  0  0  0  # atno 10765 bound_to 10752
  140.8099  134.2756  157.4945 H   0  0  0  0  0  0  0  0  0  0  0  0  # atno 11005 bound_to 11000
  145.8070  140.9744  143.0969 LP  0  0  0  0  0  0  0  0  0  0  0  0  # atno 17320 bound_to 7965
  144.6810  139.9873  143.7484 LP  0  0  0  0  0  0  0  0  0  0  0  0  # atno 17321 bound_to 7965
  140.4409  144.1987  150.5891 LP  0  0  0  0  0  0  0  0  0  0  0  0  # atno 17342 bound_to 10162
  140.4684  143.2422  151.9124 LP  0  0  0  0  0  0  0  0  0  0  0  0  # atno 17343 bound_to 10162
  157.2535  131.0551  151.2364 LP  0  0  0  0  0  0  0  0  0  0  0  0  # atno 17370 bound_to 10713
  157.3505  130.7079  149.6437 LP  0  0  0  0  0  0  0  0  0  0  0  0  # atno 17371 bound_to 10713
  139.8715  134.9477  156.3976 LP  0  0  0  0  0  0  0  0  0  0  0  0  # atno 17394 bound_to 11000
  140.9208  133.7646  155.9904 LP  0  0  0  0  0  0  0  0  0  0  0  0  # atno 17395 bound_to 11000

$$$$
