AV-unprocessed.smi:381|AV-procd|sdf|2462|dock8
  -GOLD-   2262022403D 1   1.00000     0.00000
 Structure written by MMmdl.
 46 47  0  0  0  0  0  0  0  0  2 V2000
  147.0766  135.6985  155.6489 O   0  0  0  0  0  0  0  0  0  0  0  0
  147.5114  135.8664  154.5112 C   0  0  0  0  0  0  0  0  0  0  0  0
  148.3614  136.8538  154.1864 N   0  0  0  0  0  0  0  0  0  0  0  0
  148.8847  137.8301  155.1312 C   0  0  0  0  0  0  0  0  0  0  0  0
  149.6557  138.9366  154.3993 C   0  0  0  0  0  0  0  0  0  0  0  0
  150.1370  140.0173  155.3480 C   0  0  0  0  0  0  0  0  0  0  0  0
  151.1148  139.7294  156.3261 C   0  0  0  0  0  0  0  0  0  0  0  0
  151.5530  140.7552  157.1893 C   0  0  0  0  0  0  0  0  0  0  0  0
  151.0020  142.0460  157.0566 C   0  0  0  0  0  0  0  0  0  0  0  0
  150.0674  142.2840  156.1100 N   0  3  0  0  0  0  0  0  0  0  0  0
  149.6228  141.3294  155.2631 C   0  0  0  0  0  0  0  0  0  0  0  0
  147.1660  135.0573  153.4932 N   0  0  0  0  0  0  0  0  0  0  0  0
  146.2692  133.8974  153.5029 C   0  0  0  0  0  0  0  0  0  0  0  0
  147.0540  132.6779  152.9652 C   0  0  0  0  0  0  0  0  0  0  0  0
  146.2497  131.3809  152.7589 C   0  0  0  0  0  0  0  0  0  0  0  0
  145.7041  131.1617  151.3293 C   0  0  0  0  0  0  0  0  0  0  0  0
  144.3071  131.7490  151.0549 C   0  0  0  0  0  0  0  0  0  0  0  0
  144.2637  133.1817  150.4821 C   0  0  0  0  0  0  0  0  0  0  0  0
  145.0892  134.2532  151.2169 C   0  0  0  0  0  0  0  0  0  0  0  0
  144.9576  134.2230  152.7522 C   0  0  0  0  0  0  0  0  0  0  0  0
  148.6721  136.9219  153.2282 H   0  0  0  0  0  0  0  0  0  0  0  0
  148.0630  138.2647  155.7030 H   0  0  0  0  0  0  0  0  0  0  0  0
  149.5384  137.3209  155.8409 H   0  0  0  0  0  0  0  0  0  0  0  0
  150.5119  138.5117  153.8734 H   0  0  0  0  0  0  0  0  0  0  0  0
  149.0223  139.3939  153.6378 H   0  0  0  0  0  0  0  0  0  0  0  0
  151.5284  138.7348  156.4117 H   0  0  0  0  0  0  0  0  0  0  0  0
  152.3024  140.5544  157.9411 H   0  0  0  0  0  0  0  0  0  0  0  0
  151.2792  142.8889  157.6725 H   0  0  0  0  0  0  0  0  0  0  0  0
  148.8769  141.6438  154.5477 H   0  0  0  0  0  0  0  0  0  0  0  0
  147.5759  135.2763  152.5966 H   0  0  0  0  0  0  0  0  0  0  0  0
  146.0058  133.6667  154.5364 H   0  0  0  0  0  0  0  0  0  0  0  0
  147.5890  132.9259  152.0481 H   0  0  0  0  0  0  0  0  0  0  0  0
  147.8420  132.4646  153.6891 H   0  0  0  0  0  0  0  0  0  0  0  0
  146.9338  130.5552  152.9594 H   0  0  0  0  0  0  0  0  0  0  0  0
  145.4617  131.2828  153.5063 H   0  0  0  0  0  0  0  0  0  0  0  0
  146.4204  131.4898  150.5754 H   0  0  0  0  0  0  0  0  0  0  0  0
  145.6213  130.0829  151.1903 H   0  0  0  0  0  0  0  0  0  0  0  0
  143.8121  131.1064  150.3258 H   0  0  0  0  0  0  0  0  0  0  0  0
  143.6885  131.6696  151.9487 H   0  0  0  0  0  0  0  0  0  0  0  0
  144.5860  133.1582  149.4404 H   0  0  0  0  0  0  0  0  0  0  0  0
  143.2213  133.5010  150.4570 H   0  0  0  0  0  0  0  0  0  0  0  0
  146.1319  134.1784  150.9119 H   0  0  0  0  0  0  0  0  0  0  0  0
  144.7734  135.2327  150.8563 H   0  0  0  0  0  0  0  0  0  0  0  0
  144.1845  133.5226  153.0624 H   0  0  0  0  0  0  0  0  0  0  0  0
  144.5795  135.1891  153.0883 H   0  0  0  0  0  0  0  0  0  0  0  0
  149.6823  143.2254  156.0299 H   0  0  0  0  0  0  0  0  0  0  0  0
  1  2  2  0  0  0  0
  2  3  1  0  0  0  0
  2 12  1  0  0  0  0
  3  4  1  0  0  0  0
  3 21  1  0  0  0  0
  4  5  1  0  0  0  0
  4 22  1  0  0  0  0
  4 23  1  0  0  0  0
  5  6  1  0  0  0  0
  5 24  1  0  0  0  0
  5 25  1  0  0  0  0
  6 11  1  0  0  0  0
  6  7  2  0  0  0  0
  7  8  1  0  0  0  0
  7 26  1  0  0  0  0
  8  9  2  0  0  0  0
  8 27  1  0  0  0  0
  9 10  1  0  0  0  0
  9 28  1  0  0  0  0
 10 11  2  0  0  0  0
 10 46  1  0  0  0  0
 11 29  1  0  0  0  0
 12 13  1  0  0  0  0
 12 30  1  0  0  0  0
 13 20  1  0  0  0  0
 13 14  1  0  0  0  0
 13 31  1  0  0  0  0
 14 15  1  0  0  0  0
 14 32  1  0  0  0  0
 14 33  1  0  0  0  0
 15 16  1  0  0  0  0
 15 34  1  0  0  0  0
 15 35  1  0  0  0  0
 16 17  1  0  0  0  0
 16 36  1  0  0  0  0
 16 37  1  0  0  0  0
 17 18  1  0  0  0  0
 17 38  1  0  0  0  0
 17 39  1  0  0  0  0
 18 19  1  0  0  0  0
 18 40  1  0  0  0  0
 18 41  1  0  0  0  0
 19 20  1  0  0  0  0
 19 42  1  0  0  0  0
 19 43  1  0  0  0  0
 20 44  1  0  0  0  0
 20 45  1  0  0  0  0
M  CHG  1  10   1
M  END
> <s_m_source_file>
AV-unprocessed.smi

> <i_m_source_file_index>
381

> <i_lp_mmshare_version>
43012

> <i_f3d_flags>
0

> <s_epik_input>
W0NIMl0xW0NIMl1bQ0gyXVtDSDJdW0NIMl1bQ0gyXVtDSDJdW0NIXTFbTkhdQyg9TylbTkhdW0NIMl1bQ0gyXWMyW2NIXVtjSF1bY0hdbltjSF0y

> <s_epik_cmdline>
J2VwaWtfcHl0aG9uJywgJy1waCcsICc3LjAnLCAnLXRuJywgJzgnLCAnLW1hJywgJzIwMCcsICctbWV0YWxfYmluZGluZycsICctaW1hZScsICc8aW5maWxlLm1hZT4nLCAnLW9tYWUnLCAnPG91dGZpbGUubWFlPic=

> <r_epik_Ionization_Penalty>
2.21063

> <r_epik_Ionization_Penalty_Charging>
2.21057

> <r_epik_Ionization_Penalty_Neutral>
5.85974e-05

> <r_epik_State_Penalty>
2.35476

> <r_epik_Charging_Adjusted_Penalty>
4.56533

> <i_epik_Tot_Q>
1

> <i_epik_Tot_abs_Q>
1

> <r_epik_Metal_State_Penalty>
2.36886

> <b_epik_Metal_Only>
0

> <s_lp_Force_Field>
OPLS_2005

> <r_lp_Energy>
36.9097

> <b_lp_Chiralities_Consistent>
1

> <s_lp_Variant>
AV-unprocessed.smi:381-2

> <Gold.Version>
5.8.1

> <Gold.Id.Protein>
6NUR|6NUR_protein|mol2

> <Gold.PLP.Fitness>
44.2197

> <Gold.PLP.PLP>
-32.9431

> <Gold.PLP.part.hbond>
-2.7610

> <Gold.PLP.part.metal>
0.0000

> <Gold.PLP.part.buried>
-4.7084

> <Gold.PLP.part.nonpolar>
-26.5853

> <Gold.PLP.part.repulsive>
0.1622

> <Gold.PLP.ligand.clash>
0.0000

> <Gold.PLP.ligand.torsion>
0.1372

> <Gold.PLP.Chemscore.Hbond>
3.8400

> <Gold.PLP.Chemscore.CHOScore>
0.0000

> <Gold.PLP.Chemscore.Metal>
0.0000

> <Gold.Chemscore.Hbonds>
donor molecule, donor type, donor heavy atom, donor atom, acceptor molecule, acceptor atom, score
      L1  H     3    21       P1  7948  0.99
      L1  H    10    46       P1  8028  2.00
      L1  H    12    30       P1  7948  0.85

> <Gold.PLP.Chemscore.Internal.Correction>
0.0309

> <Gold.Rescore>
     Score         DG    S(hbond)    S(metal)    S(lipo)     H(rot)  DE(clash)    DE(int)     intcor
     21.38     -21.49       2.85        0.00      88.49       1.51       0.03       0.07       ----

> <Gold.Chemscore.Fitness>
21.3812

> <Gold.Chemscore.DG>
-21.4852

> <Gold.Chemscore.ZeroCoef>
-5.4800

> <Gold.Chemscore.Hbond>
2.8483

> <Gold.Chemscore.Metal>
0.0000

> <Gold.Chemscore.Lipo>
88.4925

> <Gold.Chemscore.Internal_Hbond>
0.0000

> <Gold.Chemscore.DEClash>
0.0329

> <Gold.Chemscore.DEInternal>
0.0711

> <Gold.Chemscore.Rot>
1.5085

> <Gold.Chemscore.Internal.Correction>
   9.000000E+99

> <Gold.Chemscore.Hbonds>
donor molecule, donor type, donor heavy atom, donor atom, acceptor molecule, acceptor atom, score
      L1  H     3    21       P1  7948  0.90
      L1  H    10    46       P1  8028  1.00
      L1  H    12    30       P1  7948  0.83

> <Gold.Chemscore.Hbond.Weighted>
-9.5133

> <Gold.Chemscore.Metal.Weighted>
-0.0000

> <Gold.Chemscore.Lipo.Weighted>
-10.3536

> <Gold.Chemscore.Internal_Hbond.Weighted>
0.0000

> <Gold.Chemscore.DEClash.Weighted>
0.0329

> <Gold.Chemscore.DEInternal.Weighted>
0.0711

> <Gold.Chemscore.Rot.Weighted>
3.8617

> <Gold.Chemscore.Internal.Correction.Weighted>
   9.000000E+99

> <Gold.Protein.RotatedTorsions>
[ 6907 6896 6895 6894 ] final -174.87 input  -60.11 | X-H torsion
[ 7974 7965 7964 7962 ] final  171.98 input  175.53 | X-H torsion
[ 8008 7997 7996 7995 ] final   22.42 input   59.86 | X-H torsion
[ 10167 10162 10161 10158 ] final   79.38 input  -65.29 | X-H torsion
[ 10718 10713 10712 10709 ] final  -58.15 input   66.30 | X-H torsion
[ 10763 10752 10751 10750 ] final   70.30 input  -60.55 | X-H torsion
[ 11005 11000 10999 10996 ] final -177.96 input  -57.11 | X-H torsion

> <Gold.Protein.ActiveResidues>
 VAL166  LYS551  ARG553  GLY616  TRP617  ASP618  TYR619  PRO620  LYS621  CYS622 
 ASP623  PHE694  ASN695  SER759  ASP760  ASP761  ALA762  ILE779  LEU786  VAL792 
 PHE793  MET794  SER795  GLU796  ALA797  LYS798  CYS799  TRP800  GLU811  SER814 

> <Gold.Protein.RotatedAtoms>
  151.5794  133.3379  159.3005 H   0  0  0  0  0  0  0  0  0  0  0  0  # atno 6907 bound_to 6896
  150.8322  134.7583  159.6874 H   0  0  0  0  0  0  0  0  0  0  0  0  # atno 6908 bound_to 6896
  152.4404  134.5609  159.9945 H   0  0  0  0  0  0  0  0  0  0  0  0  # atno 6909 bound_to 6896
  144.7280  139.9431  143.6429 H   0  0  0  0  0  0  0  0  0  0  0  0  # atno 7974 bound_to 7965
  154.9654  140.3083  155.5012 H   0  0  0  0  0  0  0  0  0  0  0  0  # atno 8008 bound_to 7997
  156.2972  140.2293  156.4681 H   0  0  0  0  0  0  0  0  0  0  0  0  # atno 8009 bound_to 7997
  154.7926  140.0439  157.1201 H   0  0  0  0  0  0  0  0  0  0  0  0  # atno 8010 bound_to 7997
  139.9609  144.5961  150.8073 H   0  0  0  0  0  0  0  0  0  0  0  0  # atno 10167 bound_to 10162
  156.1157  130.4170  150.0538 H   0  0  0  0  0  0  0  0  0  0  0  0  # atno 10718 bound_to 10713
  153.0334  135.5179  154.7420 H   0  0  0  0  0  0  0  0  0  0  0  0  # atno 10763 bound_to 10752
  154.6417  135.2913  155.0098 H   0  0  0  0  0  0  0  0  0  0  0  0  # atno 10764 bound_to 10752
  154.1014  135.6636  153.4921 H   0  0  0  0  0  0  0  0  0  0  0  0  # atno 10765 bound_to 10752
  140.4351  134.6483  157.4731 H   0  0  0  0  0  0  0  0  0  0  0  0  # atno 11005 bound_to 11000
  146.0769  139.3757  143.0488 LP  0  0  0  0  0  0  0  0  0  0  0  0  # atno 17320 bound_to 7965
  145.7892  140.9822  143.1058 LP  0  0  0  0  0  0  0  0  0  0  0  0  # atno 17321 bound_to 7965
  140.7553  143.3044  151.2998 LP  0  0  0  0  0  0  0  0  0  0  0  0  # atno 17342 bound_to 10162
  139.6555  144.0284  152.2656 LP  0  0  0  0  0  0  0  0  0  0  0  0  # atno 17343 bound_to 10162
  156.8489  130.9452  151.3627 LP  0  0  0  0  0  0  0  0  0  0  0  0  # atno 17370 bound_to 10713
  157.6340  130.8752  149.9325 LP  0  0  0  0  0  0  0  0  0  0  0  0  # atno 17371 bound_to 10713
  140.0108  134.6694  155.9384 LP  0  0  0  0  0  0  0  0  0  0  0  0  # atno 17394 bound_to 11000
  141.1729  133.6538  156.4719 LP  0  0  0  0  0  0  0  0  0  0  0  0  # atno 17395 bound_to 11000

$$$$
