AV-unprocessed.smi:176|AV-procd|sdf|1434|dock6
  -GOLD-   2262019213D 1   1.00000     0.00000
 Structure written by MMmdl.
 57 61  0  0  0  0  0  0  0  0  1 V2000
  144.6145  136.1824  150.5259 O   0  0  0  0  0  0  0  0  0  0  0  0
  144.4557  134.9984  149.7710 C   0  0  0  0  0  0  0  0  0  0  0  0
  144.6958  133.7510  150.6368 C   0  0  0  0  0  0  0  0  0  0  0  0
  144.5184  132.4887  149.7691 C   0  0  0  0  0  0  0  0  0  0  0  0
  143.2286  132.4342  149.1932 O   0  0  0  0  0  0  0  0  0  0  0  0
  145.9736  133.7795  151.5056 C   0  0  0  0  0  0  0  0  0  0  0  0
  145.1883  133.1733  152.6704 C   0  0  0  0  0  0  0  0  0  0  0  0
  145.5033  133.5121  154.0269 N   0  0  0  0  0  0  0  0  0  0  0  0
  145.8376  132.6403  155.0389 C   0  0  0  0  0  0  0  0  0  0  0  0
  146.1227  133.1988  156.1832 N   0  0  0  0  0  0  0  0  0  0  0  0
  146.0077  134.5610  155.9330 C   0  0  0  0  0  0  0  0  0  0  0  0
  146.1913  135.7306  156.7222 C   0  0  0  0  0  0  0  0  0  0  0  0
  146.5238  135.6773  158.0359 N   0  0  0  0  0  0  0  0  0  0  0  0
  145.9198  136.7240  158.8572 C   0  0  0  0  0  0  0  0  0  0  0  0
  145.9767  136.3533  160.3491 C   0  0  0  0  0  0  0  0  0  0  0  0
  147.4084  135.9828  160.8058 C   0  0  1  0  0  0  0  0  0  0  0  0
  148.1911  137.1621  160.7436 O   0  0  0  0  0  0  0  0  0  0  0  0
  147.4593  135.5169  162.2802 C   0  0  0  0  0  0  0  0  0  0  0  0
  146.8679  134.1128  162.4873 C   0  0  0  0  0  0  0  0  0  0  0  0
  147.5451  133.0892  161.5664 C   0  0  0  0  0  0  0  0  0  0  0  0
  147.4377  133.5148  160.0951 C   0  0  0  0  0  0  0  0  0  0  0  0
  148.0342  134.9205  159.8586 C   0  0  1  0  0  0  0  0  0  0  0  0
  147.9058  135.3386  158.3777 C   0  0  0  0  0  0  0  0  0  0  0  0
  146.0200  136.9328  156.1100 N   0  0  0  0  0  0  0  0  0  0  0  0
  145.6811  136.9892  154.8185 C   0  0  0  0  0  0  0  0  0  0  0  0
  145.4667  135.9842  153.9672 N   0  0  0  0  0  0  0  0  0  0  0  0
  145.6418  134.7756  154.5745 C   0  0  0  0  0  0  0  0  0  0  0  0
  143.9402  133.7326  151.9835 C   0  0  0  0  0  0  0  0  0  0  0  0
  144.3319  136.9142  149.9990 H   0  0  0  0  0  0  0  0  0  0  0  0
  143.4621  134.9932  149.3226 H   0  0  0  0  0  0  0  0  0  0  0  0
  145.1638  135.0358  148.9427 H   0  0  0  0  0  0  0  0  0  0  0  0
  145.2452  132.4638  148.9572 H   0  0  0  0  0  0  0  0  0  0  0  0
  144.6827  131.5800  150.3487 H   0  0  0  0  0  0  0  0  0  0  0  0
  142.7020  133.1217  149.5715 H   0  0  0  0  0  0  0  0  0  0  0  0
  146.7938  133.1575  151.1460 H   0  0  0  0  0  0  0  0  0  0  0  0
  146.3211  134.7914  151.7228 H   0  0  0  0  0  0  0  0  0  0  0  0
  145.2031  132.0833  152.6194 H   0  0  0  0  0  0  0  0  0  0  0  0
  145.8568  131.5684  154.9054 H   0  0  0  0  0  0  0  0  0  0  0  0
  146.4565  137.6574  158.6825 H   0  0  0  0  0  0  0  0  0  0  0  0
  144.8839  136.9062  158.5728 H   0  0  0  0  0  0  0  0  0  0  0  0
  145.5869  137.1772  160.9483 H   0  0  0  0  0  0  0  0  0  0  0  0
  145.3005  135.5155  160.5174 H   0  0  0  0  0  0  0  0  0  0  0  0
  148.6454  137.1770  159.9153 H   0  0  0  0  0  0  0  0  0  0  0  0
  148.4964  135.4999  162.6195 H   0  0  0  0  0  0  0  0  0  0  0  0
  146.9447  136.2334  162.9219 H   0  0  0  0  0  0  0  0  0  0  0  0
  146.9920  133.8114  163.5277 H   0  0  0  0  0  0  0  0  0  0  0  0
  145.7939  134.1247  162.3005 H   0  0  0  0  0  0  0  0  0  0  0  0
  148.5952  132.9852  161.8424 H   0  0  0  0  0  0  0  0  0  0  0  0
  147.0904  132.1077  161.7037 H   0  0  0  0  0  0  0  0  0  0  0  0
  147.9514  132.7848  159.4688 H   0  0  0  0  0  0  0  0  0  0  0  0
  146.3911  133.4909  159.7894 H   0  0  0  0  0  0  0  0  0  0  0  0
  149.0991  134.8470  160.0861 H   0  0  0  0  0  0  0  0  0  0  0  0
  148.2672  134.5328  157.7370 H   0  0  0  0  0  0  0  0  0  0  0  0
  148.5386  136.2055  158.1816 H   0  0  0  0  0  0  0  0  0  0  0  0
  145.5623  137.9816  154.4096 H   0  0  0  0  0  0  0  0  0  0  0  0
  143.6803  134.7327  152.3365 H   0  0  0  0  0  0  0  0  0  0  0  0
  143.0736  133.0715  152.0139 H   0  0  0  0  0  0  0  0  0  0  0  0
  1  2  1  0  0  0  0
  1 29  1  0  0  0  0
  2  3  1  0  0  0  0
  2 30  1  0  0  0  0
  2 31  1  0  0  0  0
  3 28  1  0  0  0  0
  3  4  1  0  0  0  0
  3  6  1  0  0  0  0
  4  5  1  0  0  0  0
  4 32  1  0  0  0  0
  4 33  1  0  0  0  0
  5 34  1  0  0  0  0
  6  7  1  0  0  0  0
  6 35  1  0  0  0  0
  6 36  1  0  0  0  0
  7  8  1  0  0  0  0
  7 28  1  0  0  0  0
  7 37  1  0  0  0  0
  8 27  1  0  0  0  0
  8  9  1  0  0  0  0
  9 10  2  0  0  0  0
  9 38  1  0  0  0  0
 10 11  1  0  0  0  0
 11 27  2  0  0  0  0
 11 12  1  0  0  0  0
 12 13  1  0  0  0  0
 12 24  2  0  0  0  0
 13 23  1  0  0  0  0
 13 14  1  0  0  0  0
 14 15  1  0  0  0  0
 14 39  1  0  0  0  0
 14 40  1  0  0  0  0
 15 16  1  0  0  0  0
 15 41  1  0  0  0  0
 15 42  1  0  0  0  0
 16 22  1  0  0  0  0
 16 17  1  0  0  0  0
 16 18  1  0  0  0  0
 17 43  1  0  0  0  0
 18 19  1  0  0  0  0
 18 44  1  0  0  0  0
 18 45  1  0  0  0  0
 19 20  1  0  0  0  0
 19 46  1  0  0  0  0
 19 47  1  0  0  0  0
 20 21  1  0  0  0  0
 20 48  1  0  0  0  0
 20 49  1  0  0  0  0
 21 22  1  0  0  0  0
 21 50  1  0  0  0  0
 21 51  1  0  0  0  0
 22 23  1  0  0  0  0
 22 52  1  0  0  0  0
 23 53  1  0  0  0  0
 23 54  1  0  0  0  0
 24 25  1  0  0  0  0
 25 26  2  0  0  0  0
 25 55  1  0  0  0  0
 26 27  1  0  0  0  0
 28 56  1  0  0  0  0
 28 57  1  0  0  0  0
M  END
> <s_m_source_file>
AV-unprocessed.smi

> <i_m_source_file_index>
176

> <i_lp_mmshare_version>
43012

> <i_f3d_flags>
0

> <s_epik_input>
W09IXVtDSDJdQzEoW0NIMl1bT0hdKVtDSDJdW0NIXShbQ0gyXTEpbihbY0hdbjIpYyhjMjMpbltjSF1uYzNOKFtDSDJdW0NIMl00KVtDSDJdW0NAQEhdKFtDQF00NVtPSF0pW0NIMl1bQ0gyXVtDSDJdW0NIMl01

> <s_epik_cmdline>
J2VwaWtfcHl0aG9uJywgJy1waCcsICc3LjAnLCAnLXRuJywgJzgnLCAnLW1hJywgJzIwMCcsICctbWV0YWxfYmluZGluZycsICctaW1hZScsICc8aW5maWxlLm1hZT4nLCAnLW9tYWUnLCAnPG91dGZpbGUubWFlPic=

> <r_lp_tautomer_probability>
1

> <r_epik_Ionization_Penalty>
0.00642876

> <r_epik_Ionization_Penalty_Charging>
0

> <r_epik_Ionization_Penalty_Neutral>
0.00642876

> <r_epik_State_Penalty>
0.00467813

> <r_epik_Charging_Adjusted_Penalty>
0.00467813

> <i_epik_Tot_Q>
0

> <i_epik_Tot_abs_Q>
0

> <r_epik_Metal_State_Penalty>
-0

> <b_epik_Metal_Only>
0

> <s_lp_Force_Field>
OPLS_2005

> <r_lp_Energy>
50.7593

> <b_lp_Chiralities_Consistent>
1

> <s_lp_Variant>
AV-unprocessed.smi:176-2

> <Gold.Version>
5.8.1

> <Gold.Id.Protein>
6NUR|6NUR_protein|mol2

> <Gold.PLP.Fitness>
46.4861

> <Gold.PLP.PLP>
-36.5369

> <Gold.PLP.part.hbond>
-4.8760

> <Gold.PLP.part.metal>
0.0000

> <Gold.PLP.part.buried>
-4.0738

> <Gold.PLP.part.nonpolar>
-27.8103

> <Gold.PLP.part.repulsive>
0.0970

> <Gold.PLP.ligand.clash>
0.0000

> <Gold.PLP.ligand.torsion>
0.7868

> <Gold.PLP.Chemscore.Hbond>
3.5474

> <Gold.PLP.Chemscore.CHOScore>
0.0000

> <Gold.PLP.Chemscore.Metal>
0.0000

> <Gold.Chemscore.Hbonds>
donor molecule, donor type, donor heavy atom, donor atom, acceptor molecule, acceptor atom, score
      L1  H     1    29       P1 10171  1.00
      L1  H     5    34       P1 10186  0.75
      P1  H  6931  6943       L1    17  0.86
      P1  H  6934  6947       L1    17  0.52
      P1  H 10785 10796       L1     5  0.22

> <Gold.PLP.Chemscore.Internal.Correction>
0.8806

> <Gold.Rescore>
     Score         DG    S(hbond)    S(metal)    S(lipo)     H(rot)  DE(clash)    DE(int)     intcor
     14.82     -16.08       3.04        0.00      85.13       3.71       0.31       0.95       ----

> <Gold.Chemscore.Fitness>
14.8180

> <Gold.Chemscore.DG>
-16.0789

> <Gold.Chemscore.ZeroCoef>
-5.4800

> <Gold.Chemscore.Hbond>
3.0354

> <Gold.Chemscore.Metal>
0.0000

> <Gold.Chemscore.Lipo>
85.1331

> <Gold.Chemscore.Internal_Hbond>
0.0000

> <Gold.Chemscore.DEClash>
0.3064

> <Gold.Chemscore.DEInternal>
0.9545

> <Gold.Chemscore.Rot>
3.7109

> <Gold.Chemscore.Internal.Correction>
   9.000000E+99

> <Gold.Chemscore.Hbonds>
donor molecule, donor type, donor heavy atom, donor atom, acceptor molecule, acceptor atom, score
      L1  H     1    29       P1 10171  0.97
      L1  H     5    34       P1 10186  0.71
      P1  H  6931  6943       L1    17  0.59
      P1  H  6934  6947       L1    17  0.31
      P1  H 10785 10796       L1     5  0.04

> <Gold.Chemscore.Hbond.Weighted>
-10.1383

> <Gold.Chemscore.Metal.Weighted>
-0.0000

> <Gold.Chemscore.Lipo.Weighted>
-9.9606

> <Gold.Chemscore.Internal_Hbond.Weighted>
0.0000

> <Gold.Chemscore.DEClash.Weighted>
0.3064

> <Gold.Chemscore.DEInternal.Weighted>
0.9545

> <Gold.Chemscore.Rot.Weighted>
9.5000

> <Gold.Chemscore.Internal.Correction.Weighted>
   9.000000E+99

> <Gold.Protein.RotatedTorsions>
[ 6907 6896 6895 6894 ] final   56.35 input  -60.11 | X-H torsion
[ 7974 7965 7964 7962 ] final   53.85 input  175.53 | X-H torsion
[ 8008 7997 7996 7995 ] final  128.94 input   59.86 | X-H torsion
[ 10167 10162 10161 10158 ] final   94.53 input  -65.29 | X-H torsion
[ 10718 10713 10712 10709 ] final  -13.59 input   66.30 | X-H torsion
[ 10763 10752 10751 10750 ] final  -67.90 input  -60.55 | X-H torsion
[ 11005 11000 10999 10996 ] final -158.04 input  -57.11 | X-H torsion

> <Gold.Protein.ActiveResidues>
 VAL166  LYS551  ARG553  GLY616  TRP617  ASP618  TYR619  PRO620  LYS621  CYS622 
 ASP623  PHE694  ASN695  SER759  ASP760  ASP761  ALA762  ILE779  LEU786  VAL792 
 PHE793  MET794  SER795  GLU796  ALA797  LYS798  CYS799  TRP800  GLU811  SER814 

> <Gold.Protein.RotatedAtoms>
  152.3627  134.6848  160.0201 H   0  0  0  0  0  0  0  0  0  0  0  0  # atno 6907 bound_to 6896
  151.7166  133.3308  159.3312 H   0  0  0  0  0  0  0  0  0  0  0  0  # atno 6908 bound_to 6896
  150.7616  134.6419  159.6286 H   0  0  0  0  0  0  0  0  0  0  0  0  # atno 6909 bound_to 6896
  145.9669  139.4112  143.0214 H   0  0  0  0  0  0  0  0  0  0  0  0  # atno 7974 bound_to 7965
  156.2926  140.2632  156.2517 H   0  0  0  0  0  0  0  0  0  0  0  0  # atno 8008 bound_to 7997
  154.9876  140.0389  157.2324 H   0  0  0  0  0  0  0  0  0  0  0  0  # atno 8009 bound_to 7997
  154.7715  140.2779  155.6139 H   0  0  0  0  0  0  0  0  0  0  0  0  # atno 8010 bound_to 7997
  139.8075  144.6788  150.9684 H   0  0  0  0  0  0  0  0  0  0  0  0  # atno 10167 bound_to 10162
  156.6281  130.4894  149.6139 H   0  0  0  0  0  0  0  0  0  0  0  0  # atno 10718 bound_to 10713
  154.3812  135.6074  153.5792 H   0  0  0  0  0  0  0  0  0  0  0  0  # atno 10763 bound_to 10752
  152.9788  135.5861  154.4408 H   0  0  0  0  0  0  0  0  0  0  0  0  # atno 10764 bound_to 10752
  154.4178  135.2845  155.1973 H   0  0  0  0  0  0  0  0  0  0  0  0  # atno 10765 bound_to 10752
  140.6579  134.4380  157.5235 H   0  0  0  0  0  0  0  0  0  0  0  0  # atno 11005 bound_to 11000
  145.7961  140.9792  143.1023 LP  0  0  0  0  0  0  0  0  0  0  0  0  # atno 17320 bound_to 7965
  144.6827  139.9743  143.7482 LP  0  0  0  0  0  0  0  0  0  0  0  0  # atno 17321 bound_to 7965
  140.7819  143.4219  151.0829 LP  0  0  0  0  0  0  0  0  0  0  0  0  # atno 17342 bound_to 10162
  139.7887  143.8250  152.3148 LP  0  0  0  0  0  0  0  0  0  0  0  0  # atno 17343 bound_to 10162
  156.2257  130.6764  151.1413 LP  0  0  0  0  0  0  0  0  0  0  0  0  # atno 17370 bound_to 10713
  157.7208  131.0682  150.6143 LP  0  0  0  0  0  0  0  0  0  0  0  0  # atno 17371 bound_to 10713
  139.9023  134.8528  156.1846 LP  0  0  0  0  0  0  0  0  0  0  0  0  # atno 17394 bound_to 11000
  141.0487  133.6900  156.1731 LP  0  0  0  0  0  0  0  0  0  0  0  0  # atno 17395 bound_to 11000

$$$$
