AV-unprocessed.smi:481|AV-procd|sdf|2681|dock4
  -GOLD-   2262023103D 1   1.00000     0.00000
 Structure written by MMmdl.
 43 45  0  0  0  0  0  0  0  0  1 V2000
  151.4041  138.1157  154.4307 C   0  0  0  0  0  0  0  0  0  0  0  0
  151.3994  136.7642  154.8628 O   0  0  0  0  0  0  0  0  0  0  0  0
  151.0606  136.5949  156.2322 C   0  0  0  0  0  0  0  0  0  0  0  0
  149.6564  137.1383  156.5454 C   0  0  0  0  0  0  0  0  0  0  0  0
  149.3058  136.9308  157.9459 N   0  0  0  0  0  0  0  0  0  0  0  0
  149.7848  137.5926  159.0298 C   0  0  0  0  0  0  0  0  0  0  0  0
  150.7337  138.6092  158.8517 N   0  0  0  0  0  0  0  0  0  0  0  0
  151.1972  138.9648  157.6526 N   0  0  0  0  0  0  0  0  0  0  0  0
  151.7313  140.1239  157.4383 C   0  0  0  0  0  0  0  0  0  0  0  0
  152.0440  141.1700  158.4362 C   0  0  0  0  0  0  0  0  0  0  0  0
  151.7248  142.5347  158.2373 C   0  0  0  0  0  0  0  0  0  0  0  0
  152.0448  143.4936  159.2178 C   0  0  0  0  0  0  0  0  0  0  0  0
  152.6752  143.0974  160.4120 C   0  0  0  0  0  0  0  0  0  0  0  0
  152.9790  141.7400  160.6272 C   0  0  0  0  0  0  0  0  0  0  0  0
  152.6599  140.7812  159.6458 C   0  0  0  0  0  0  0  0  0  0  0  0
  149.2760  137.1806  160.1980 N   0  0  0  0  0  0  0  0  0  0  0  0
  148.4024  136.1713  159.8227 C   0  0  0  0  0  0  0  0  0  0  0  0
  148.4015  136.0110  158.4752 C   0  0  0  0  0  0  0  0  0  0  0  0
  147.5582  135.0182  157.7986 C   0  0  0  0  0  0  0  0  0  0  0  0
  147.5333  134.8692  156.5789 O   0  0  0  0  0  0  0  0  0  0  0  0
  146.8079  134.2860  158.6579 N   0  0  0  0  0  0  0  0  0  0  0  0
  146.7645  134.3914  160.0215 C   0  0  0  0  0  0  0  0  0  0  0  0
  146.0277  133.6510  160.6727 O   0  0  0  0  0  0  0  0  0  0  0  0
  147.5607  135.3386  160.6137 N   0  0  0  0  0  0  0  0  0  0  0  0
  147.5510  135.4977  162.0690 C   0  0  0  0  0  0  0  0  0  0  0  0
  146.2107  133.5847  158.2448 H   0  0  0  0  0  0  0  0  0  0  0  0
  151.6184  138.1530  153.3627 H   0  0  0  0  0  0  0  0  0  0  0  0
  152.1672  138.7034  154.9405 H   0  0  0  0  0  0  0  0  0  0  0  0
  150.4334  138.5857  154.5925 H   0  0  0  0  0  0  0  0  0  0  0  0
  151.1554  135.5492  156.5292 H   0  0  0  0  0  0  0  0  0  0  0  0
  151.7960  137.1482  156.8171 H   0  0  0  0  0  0  0  0  0  0  0  0
  149.5983  138.2020  156.3178 H   0  0  0  0  0  0  0  0  0  0  0  0
  148.9033  136.6653  155.9166 H   0  0  0  0  0  0  0  0  0  0  0  0
  151.3027  138.7913  159.6657 H   0  0  0  0  0  0  0  0  0  0  0  0
  151.9718  140.3677  156.4034 H   0  0  0  0  0  0  0  0  0  0  0  0
  151.2296  142.8586  157.3339 H   0  0  0  0  0  0  0  0  0  0  0  0
  151.8035  144.5335  159.0540 H   0  0  0  0  0  0  0  0  0  0  0  0
  152.9204  143.8327  161.1642 H   0  0  0  0  0  0  0  0  0  0  0  0
  153.4577  141.4333  161.5454 H   0  0  0  0  0  0  0  0  0  0  0  0
  152.9025  139.7435  159.8256 H   0  0  0  0  0  0  0  0  0  0  0  0
  146.5521  135.7639  162.4174 H   0  0  0  0  0  0  0  0  0  0  0  0
  148.2331  136.2760  162.4111 H   0  0  0  0  0  0  0  0  0  0  0  0
  147.8462  134.5685  162.5580 H   0  0  0  0  0  0  0  0  0  0  0  0
  1  2  1  0  0  0  0
  1 27  1  0  0  0  0
  1 28  1  0  0  0  0
  1 29  1  0  0  0  0
  2  3  1  0  0  0  0
  3  4  1  0  0  0  0
  3 30  1  0  0  0  0
  3 31  1  0  0  0  0
  4  5  1  0  0  0  0
  4 32  1  0  0  0  0
  4 33  1  0  0  0  0
  5 18  1  0  0  0  0
  5  6  1  0  0  0  0
  6  7  1  0  0  0  0
  6 16  2  0  0  0  0
  7  8  1  0  0  0  0
  7 34  1  0  0  0  0
  8  9  2  0  0  0  0
  9 10  1  0  0  0  0
  9 35  1  0  0  0  0
 10 15  1  0  0  0  0
 10 11  2  0  0  0  0
 11 12  1  0  0  0  0
 11 36  1  0  0  0  0
 12 13  2  0  0  0  0
 12 37  1  0  0  0  0
 13 14  1  0  0  0  0
 13 38  1  0  0  0  0
 14 15  2  0  0  0  0
 14 39  1  0  0  0  0
 15 40  1  0  0  0  0
 16 17  1  0  0  0  0
 17 24  1  0  0  0  0
 17 18  2  0  0  0  0
 18 19  1  0  0  0  0
 19 20  2  0  0  0  0
 19 21  1  0  0  0  0
 21 26  1  0  0  0  0
 21 22  1  0  0  0  0
 22 23  2  0  0  0  0
 22 24  1  0  0  0  0
 24 25  1  0  0  0  0
 25 41  1  0  0  0  0
 25 42  1  0  0  0  0
 25 43  1  0  0  0  0
M  END
> <s_m_source_file>
AV-unprocessed.smi

> <i_m_source_file_index>
481

> <i_lp_mmshare_version>
43012

> <i_f3d_flags>
0

> <s_epik_input>
W0NIM11uMWMoPU8pW25IXWMoPU8pYyhjMTIpbihbQ0gyXVtDSDJdT1tDSDNdKWMobjIpW05IXS9OPVtDSF0vYzNbY0hdW2NIXVtjSF1bY0hdW2NIXTM=

> <s_epik_cmdline>
J2VwaWtfcHl0aG9uJywgJy1waCcsICc3LjAnLCAnLXRuJywgJzgnLCAnLW1hJywgJzIwMCcsICctbWV0YWxfYmluZGluZycsICctaW1hZScsICc8aW5maWxlLm1hZT4nLCAnLW9tYWUnLCAnPG91dGZpbGUubWFlPic=

> <r_epik_Ionization_Penalty>
0.000595515

> <r_epik_Ionization_Penalty_Charging>
0.000305988

> <r_epik_Ionization_Penalty_Neutral>
0.000289528

> <r_epik_State_Penalty>
0.000184189

> <r_epik_Charging_Adjusted_Penalty>
0.000490177

> <i_epik_Tot_Q>
0

> <i_epik_Tot_abs_Q>
0

> <r_epik_Metal_State_Penalty>
0.173754

> <b_epik_Metal_Only>
0

> <s_epik_Chemistry_Notes>
This compound has an imine and may undergo hydrolysis.

> <s_lp_Force_Field>
OPLS_2005

> <r_lp_Energy>
46.456

> <b_lp_Chiralities_Consistent>
1

> <s_lp_Variant>
AV-unprocessed.smi:481-2

> <Gold.Version>
5.8.1

> <Gold.Id.Protein>
6NUR|6NUR_protein|mol2

> <Gold.PLP.Fitness>
38.7626

> <Gold.PLP.PLP>
-39.2247

> <Gold.PLP.part.hbond>
-2.0000

> <Gold.PLP.part.metal>
0.0000

> <Gold.PLP.part.buried>
-6.3905

> <Gold.PLP.part.nonpolar>
-32.0867

> <Gold.PLP.part.repulsive>
0.3135

> <Gold.PLP.ligand.clash>
4.1457

> <Gold.PLP.ligand.torsion>
0.5834

> <Gold.PLP.Chemscore.Hbond>
1.4320

> <Gold.PLP.Chemscore.CHOScore>
0.0000

> <Gold.PLP.Chemscore.Metal>
0.0000

> <Gold.Chemscore.Hbonds>
donor molecule, donor type, donor heavy atom, donor atom, acceptor molecule, acceptor atom, score
      P1  H  6931  6943       L1    16  0.45
      P1  H 10752 10764       L1     2  1.00

> <Gold.PLP.Chemscore.Internal.Correction>
0.5544

> <Gold.Rescore>
     Score         DG    S(hbond)    S(metal)    S(lipo)     H(rot)  DE(clash)    DE(int)     intcor
     13.19     -16.95       1.24        0.00      96.29       1.54       0.06       3.70       ----

> <Gold.Chemscore.Fitness>
13.1947

> <Gold.Chemscore.DG>
-16.9536

> <Gold.Chemscore.ZeroCoef>
-5.4800

> <Gold.Chemscore.Hbond>
1.2431

> <Gold.Chemscore.Metal>
0.0000

> <Gold.Chemscore.Lipo>
96.2881

> <Gold.Chemscore.Internal_Hbond>
0.0000

> <Gold.Chemscore.DEClash>
0.0551

> <Gold.Chemscore.DEInternal>
3.7039

> <Gold.Chemscore.Rot>
1.5406

> <Gold.Chemscore.Internal.Correction>
   9.000000E+99

> <Gold.Chemscore.Hbonds>
donor molecule, donor type, donor heavy atom, donor atom, acceptor molecule, acceptor atom, score
      P1  H  6931  6943       L1    16  0.44
      P1  H 10752 10764       L1     2  0.49

> <Gold.Chemscore.Hbond.Weighted>
-4.1519

> <Gold.Chemscore.Metal.Weighted>
-0.0000

> <Gold.Chemscore.Lipo.Weighted>
-11.2657

> <Gold.Chemscore.Internal_Hbond.Weighted>
0.0000

> <Gold.Chemscore.DEClash.Weighted>
0.0551

> <Gold.Chemscore.DEInternal.Weighted>
3.7039

> <Gold.Chemscore.Rot.Weighted>
3.9440

> <Gold.Chemscore.Internal.Correction.Weighted>
   9.000000E+99

> <Gold.Protein.RotatedTorsions>
[ 6907 6896 6895 6894 ] final  -27.19 input  -60.11 | X-H torsion
[ 7974 7965 7964 7962 ] final  -91.37 input  175.53 | X-H torsion
[ 8008 7997 7996 7995 ] final -145.79 input   59.86 | X-H torsion
[ 10167 10162 10161 10158 ] final  -12.90 input  -65.29 | X-H torsion
[ 10718 10713 10712 10709 ] final -101.47 input   66.30 | X-H torsion
[ 10763 10752 10751 10750 ] final  -59.99 input  -60.55 | X-H torsion
[ 11005 11000 10999 10996 ] final -113.75 input  -57.11 | X-H torsion

> <Gold.Protein.ActiveResidues>
 VAL166  LYS551  ARG553  GLY616  TRP617  ASP618  TYR619  PRO620  LYS621  CYS622 
 ASP623  PHE694  ASN695  SER759  ASP760  ASP761  ALA762  ILE779  LEU786  VAL792 
 PHE793  MET794  SER795  GLU796  ALA797  LYS798  CYS799  TRP800  GLU811  SER814 

> <Gold.Protein.RotatedAtoms>
  151.1504  135.0224  159.8665 H   0  0  0  0  0  0  0  0  0  0  0  0  # atno 6907 bound_to 6896
  152.5453  134.1396  159.8483 H   0  0  0  0  0  0  0  0  0  0  0  0  # atno 6908 bound_to 6896
  151.1480  133.4880  159.2628 H   0  0  0  0  0  0  0  0  0  0  0  0  # atno 6909 bound_to 6896
  145.4140  140.9547  143.2218 H   0  0  0  0  0  0  0  0  0  0  0  0  # atno 7974 bound_to 7965
  155.5489  140.0615  157.2854 H   0  0  0  0  0  0  0  0  0  0  0  0  # atno 8008 bound_to 7997
  154.4427  140.1906  156.0711 H   0  0  0  0  0  0  0  0  0  0  0  0  # atno 8009 bound_to 7997
  156.0530  140.3282  155.7377 H   0  0  0  0  0  0  0  0  0  0  0  0  # atno 8010 bound_to 7997
  140.7171  143.5483  150.9330 H   0  0  0  0  0  0  0  0  0  0  0  0  # atno 10167 bound_to 10162
  156.0196  130.5375  150.6967 H   0  0  0  0  0  0  0  0  0  0  0  0  # atno 10718 bound_to 10713
  154.2623  135.6306  153.5279 H   0  0  0  0  0  0  0  0  0  0  0  0  # atno 10763 bound_to 10752
  152.9893  135.5590  154.5690 H   0  0  0  0  0  0  0  0  0  0  0  0  # atno 10764 bound_to 10752
  154.5242  135.2884  155.1211 H   0  0  0  0  0  0  0  0  0  0  0  0  # atno 10765 bound_to 10752
  141.0595  133.9559  157.2694 H   0  0  0  0  0  0  0  0  0  0  0  0  # atno 11005 bound_to 11000
  144.8290  139.5661  143.6952 LP  0  0  0  0  0  0  0  0  0  0  0  0  # atno 17320 bound_to 7965
  146.2690  139.6590  142.9309 LP  0  0  0  0  0  0  0  0  0  0  0  0  # atno 17321 bound_to 7965
  139.9207  143.6610  152.3097 LP  0  0  0  0  0  0  0  0  0  0  0  0  # atno 17342 bound_to 10162
  139.7026  144.7633  151.1248 LP  0  0  0  0  0  0  0  0  0  0  0  0  # atno 17343 bound_to 10162
  157.4637  131.0886  151.0718 LP  0  0  0  0  0  0  0  0  0  0  0  0  # atno 17370 bound_to 10713
  157.1199  130.6057  149.5502 LP  0  0  0  0  0  0  0  0  0  0  0  0  # atno 17371 bound_to 10713
  139.9419  135.0190  156.8736 LP  0  0  0  0  0  0  0  0  0  0  0  0  # atno 17394 bound_to 11000
  140.5898  134.0273  155.7495 LP  0  0  0  0  0  0  0  0  0  0  0  0  # atno 17395 bound_to 11000

$$$$
