AV-unprocessed.smi:256|AV-procd|sdf|1961|dock10
  -GOLD-   2262021113D 1   1.00000     0.00000
 Structure written by MMmdl.
 61 64  0  0  0  0  0  0  0  0  1 V2000
  147.0657  136.6489  162.6993 C   0  0  0  0  0  0  0  0  0  0  0  0
  147.2691  135.1923  162.2488 C   0  0  0  0  0  0  0  0  0  0  0  0
  147.9692  135.0201  160.8800 C   0  0  2  0  0  0  0  0  0  0  0  0
  148.7398  136.3210  160.5429 C   0  0  0  0  0  0  0  0  0  0  0  0
  149.5071  136.1757  159.3081 N   0  0  0  0  0  0  0  0  0  0  0  0
  150.4289  137.1276  159.0109 C   0  0  0  0  0  0  0  0  0  0  0  0
  151.7556  136.8515  159.1329 N   0  0  0  0  0  0  0  0  0  0  0  0
  152.6697  137.7831  158.8474 C   0  0  0  0  0  0  0  0  0  0  0  0
  152.4817  139.0357  158.4291 N   0  0  0  0  0  0  0  0  0  0  0  0
  151.1543  139.3193  158.2991 C   0  0  0  0  0  0  0  0  0  0  0  0
  150.0724  138.4315  158.5624 C   0  0  0  0  0  0  0  0  0  0  0  0
  148.8655  139.0675  158.2949 N   0  0  0  0  0  0  0  0  0  0  0  0
  149.2134  140.2637  157.9069 C   0  0  0  0  0  0  0  0  0  0  0  0
  150.5686  140.5044  157.8893 N   0  0  0  0  0  0  0  0  0  0  0  0
  151.2280  141.7427  157.5026 C   0  0  0  0  0  0  0  0  0  0  0  0
  151.2235  142.8316  158.6045 C   0  0  0  0  0  0  0  0  0  0  0  0
  151.5742  142.2104  159.8288 O   0  0  0  0  0  0  0  0  0  0  0  0
  152.2754  143.9150  158.2913 C   0  0  0  0  0  0  0  0  0  0  0  0
  152.1913  145.1050  159.2633 C   0  0  0  0  0  0  0  0  0  0  0  0
  150.8754  145.6450  159.2575 O   0  0  0  0  0  0  0  0  0  0  0  0
  149.8989  144.7180  159.7155 C   0  0  0  0  0  0  0  0  0  0  0  0
  149.8417  143.5004  158.7763 C   0  0  0  0  0  0  0  0  0  0  0  0
  148.6781  135.7487  158.1877 C   0  0  0  0  0  0  0  0  0  0  0  0
  147.9430  134.4538  158.5577 C   0  0  0  0  0  0  0  0  0  0  0  0
  147.1056  134.5834  159.7560 N   0  0  0  0  0  0  0  0  0  0  0  0
  146.4239  133.3027  159.9982 C   0  0  0  0  0  0  0  0  0  0  0  0
  147.2998  132.1807  160.5801 C   0  0  0  0  0  0  0  0  0  0  0  0
  146.4493  131.2151  161.1755 O   0  0  0  0  0  0  0  0  0  0  0  0
  145.4994  130.6892  160.2648 C   0  0  0  0  0  0  0  0  0  0  0  0
  146.4764  136.6881  163.6153 H   0  0  0  0  0  0  0  0  0  0  0  0
  146.5438  137.2377  161.9453 H   0  0  0  0  0  0  0  0  0  0  0  0
  148.0152  137.1419  162.9061 H   0  0  0  0  0  0  0  0  0  0  0  0
  147.8633  134.6847  163.0097 H   0  0  0  0  0  0  0  0  0  0  0  0
  146.3193  134.6607  162.2540 H   0  0  0  0  0  0  0  0  0  0  0  0
  148.7253  134.2470  161.0288 H   0  0  0  0  0  0  0  0  0  0  0  0
  148.0480  137.1559  160.4263 H   0  0  0  0  0  0  0  0  0  0  0  0
  149.4142  136.5699  161.3637 H   0  0  0  0  0  0  0  0  0  0  0  0
  153.6992  137.4814  158.9715 H   0  0  0  0  0  0  0  0  0  0  0  0
  148.4855  141.0112  157.6261 H   0  0  0  0  0  0  0  0  0  0  0  0
  152.2511  141.5086  157.2040 H   0  0  0  0  0  0  0  0  0  0  0  0
  150.7313  142.1179  156.6070 H   0  0  0  0  0  0  0  0  0  0  0  0
  150.9277  141.5506  160.0279 H   0  0  0  0  0  0  0  0  0  0  0  0
  153.2800  143.4901  158.3058 H   0  0  0  0  0  0  0  0  0  0  0  0
  152.1180  144.2880  157.2784 H   0  0  0  0  0  0  0  0  0  0  0  0
  152.4722  144.8092  160.2752 H   0  0  0  0  0  0  0  0  0  0  0  0
  152.8900  145.8841  158.9583 H   0  0  0  0  0  0  0  0  0  0  0  0
  150.1211  144.4149  160.7398 H   0  0  0  0  0  0  0  0  0  0  0  0
  148.9287  145.2144  159.7388 H   0  0  0  0  0  0  0  0  0  0  0  0
  149.4795  143.8309  157.8020 H   0  0  0  0  0  0  0  0  0  0  0  0
  149.1067  142.7869  159.1509 H   0  0  0  0  0  0  0  0  0  0  0  0
  147.9605  136.5353  157.9505 H   0  0  0  0  0  0  0  0  0  0  0  0
  149.2718  135.5816  157.2901 H   0  0  0  0  0  0  0  0  0  0  0  0
  147.3242  134.1613  157.7085 H   0  0  0  0  0  0  0  0  0  0  0  0
  148.6712  133.6531  158.6979 H   0  0  0  0  0  0  0  0  0  0  0  0
  145.6229  133.4518  160.7241 H   0  0  0  0  0  0  0  0  0  0  0  0
  145.9229  132.9628  159.0908 H   0  0  0  0  0  0  0  0  0  0  0  0
  147.9126  131.6975  159.8232 H   0  0  0  0  0  0  0  0  0  0  0  0
  147.9738  132.5923  161.3331 H   0  0  0  0  0  0  0  0  0  0  0  0
  144.8795  129.9475  160.7687 H   0  0  0  0  0  0  0  0  0  0  0  0
  145.9891  130.2004  159.4215 H   0  0  0  0  0  0  0  0  0  0  0  0
  144.8436  131.4726  159.8831 H   0  0  0  0  0  0  0  0  0  0  0  0
  1  2  1  0  0  0  0
  1 30  1  0  0  0  0
  1 31  1  0  0  0  0
  1 32  1  0  0  0  0
  2  3  1  0  0  0  0
  2 33  1  0  0  0  0
  2 34  1  0  0  0  0
  3 25  1  0  0  0  0
  3  4  1  0  0  0  0
  3 35  1  0  0  0  0
  4  5  1  0  0  0  0
  4 36  1  0  0  0  0
  4 37  1  0  0  0  0
  5  6  1  0  0  0  0
  5 23  1  0  0  0  0
  6 11  1  0  0  0  0
  6  7  2  0  0  0  0
  7  8  1  0  0  0  0
  8  9  2  0  0  0  0
  8 38  1  0  0  0  0
  9 10  1  0  0  0  0
 10 14  1  0  0  0  0
 10 11  2  0  0  0  0
 11 12  1  0  0  0  0
 12 13  2  0  0  0  0
 13 14  1  0  0  0  0
 13 39  1  0  0  0  0
 14 15  1  0  0  0  0
 15 16  1  0  0  0  0
 15 40  1  0  0  0  0
 15 41  1  0  0  0  0
 16 22  1  0  0  0  0
 16 17  1  0  0  0  0
 16 18  1  0  0  0  0
 17 42  1  0  0  0  0
 18 19  1  0  0  0  0
 18 43  1  0  0  0  0
 18 44  1  0  0  0  0
 19 20  1  0  0  0  0
 19 45  1  0  0  0  0
 19 46  1  0  0  0  0
 20 21  1  0  0  0  0
 21 22  1  0  0  0  0
 21 47  1  0  0  0  0
 21 48  1  0  0  0  0
 22 49  1  0  0  0  0
 22 50  1  0  0  0  0
 23 24  1  0  0  0  0
 23 51  1  0  0  0  0
 23 52  1  0  0  0  0
 24 25  1  0  0  0  0
 24 53  1  0  0  0  0
 24 54  1  0  0  0  0
 25 26  1  0  0  0  0
 26 27  1  0  0  0  0
 26 55  1  0  0  0  0
 26 56  1  0  0  0  0
 27 28  1  0  0  0  0
 27 57  1  0  0  0  0
 27 58  1  0  0  0  0
 28 29  1  0  0  0  0
 29 59  1  0  0  0  0
 29 60  1  0  0  0  0
 29 61  1  0  0  0  0
M  END
> <s_m_source_file>
AV-unprocessed.smi

> <i_m_source_file_index>
256

> <i_lp_mmshare_version>
43012

> <i_f3d_flags>
0

> <s_epik_input>
W0NIM11PW0NIMl1bQ0gyXU4xW0NIMl1bQ0gyXU4oW0NIMl1bQ0BIXTFbQ0gyXVtDSDNdKWMobltjSF1uMiljKGMyMyluW2NIXW4zW0NIMl1DNChbT0hdKVtDSDJdW0NIMl1PW0NIMl1bQ0gyXTQ=

> <s_epik_cmdline>
J2VwaWtfcHl0aG9uJywgJy1waCcsICc3LjAnLCAnLXRuJywgJzgnLCAnLW1hJywgJzIwMCcsICctbWV0YWxfYmluZGluZycsICctaW1hZScsICc8aW5maWxlLm1hZT4nLCAnLW9tYWUnLCAnPG91dGZpbGUubWFlPic=

> <r_lp_tautomer_probability>
1

> <r_epik_Ionization_Penalty>
0.676279

> <r_epik_Ionization_Penalty_Charging>
0

> <r_epik_Ionization_Penalty_Neutral>
0.676279

> <r_epik_State_Penalty>
0.6855

> <r_epik_Charging_Adjusted_Penalty>
0.6855

> <i_epik_Tot_Q>
0

> <i_epik_Tot_abs_Q>
0

> <r_epik_Metal_State_Penalty>
0.678557

> <b_epik_Metal_Only>
0

> <s_lp_Force_Field>
OPLS_2005

> <r_lp_Energy>
62.0394

> <b_lp_Chiralities_Consistent>
1

> <s_lp_Variant>
AV-unprocessed.smi:256-5

> <Gold.Version>
5.8.1

> <Gold.Id.Protein>
6NUR|6NUR_protein|mol2

> <Gold.PLP.Fitness>
45.8194

> <Gold.PLP.PLP>
-44.9640

> <Gold.PLP.part.hbond>
-4.6999

> <Gold.PLP.part.metal>
0.0000

> <Gold.PLP.part.buried>
-7.4713

> <Gold.PLP.part.nonpolar>
-33.7845

> <Gold.PLP.part.repulsive>
0.2225

> <Gold.PLP.ligand.clash>
0.0127

> <Gold.PLP.ligand.torsion>
1.4192

> <Gold.PLP.Chemscore.Hbond>
1.1034

> <Gold.PLP.Chemscore.CHOScore>
0.0000

> <Gold.PLP.Chemscore.Metal>
0.0000

> <Gold.Chemscore.Hbonds>
donor molecule, donor type, donor heavy atom, donor atom, acceptor molecule, acceptor atom, score
      P1  H  6896  6907       L1     7  0.25
      P1  H  6896  6909       L1     5  0.79

> <Gold.PLP.Chemscore.Internal.Correction>
0.3962

> <Gold.Rescore>
     Score         DG    S(hbond)    S(metal)    S(lipo)     H(rot)  DE(clash)    DE(int)     intcor
     11.75     -13.18       0.62        0.00     111.03       2.87       0.08       1.36       ----

> <Gold.Chemscore.Fitness>
11.7458

> <Gold.Chemscore.DG>
-13.1845

> <Gold.Chemscore.ZeroCoef>
-5.4800

> <Gold.Chemscore.Hbond>
0.6171

> <Gold.Chemscore.Metal>
0.0000

> <Gold.Chemscore.Lipo>
111.0302

> <Gold.Chemscore.Internal_Hbond>
0.0000

> <Gold.Chemscore.DEClash>
0.0802

> <Gold.Chemscore.DEInternal>
1.3586

> <Gold.Chemscore.Rot>
2.8700

> <Gold.Chemscore.Internal.Correction>
   9.000000E+99

> <Gold.Chemscore.Hbonds>
donor molecule, donor type, donor heavy atom, donor atom, acceptor molecule, acceptor atom, score
      P1  H  6896  6907       L1     7  0.22
      P1  H  6896  6909       L1     5  0.03

> <Gold.Chemscore.Hbond.Weighted>
-2.0612

> <Gold.Chemscore.Metal.Weighted>
-0.0000

> <Gold.Chemscore.Lipo.Weighted>
-12.9905

> <Gold.Chemscore.Internal_Hbond.Weighted>
0.0000

> <Gold.Chemscore.DEClash.Weighted>
0.0802

> <Gold.Chemscore.DEInternal.Weighted>
1.3586

> <Gold.Chemscore.Rot.Weighted>
7.3472

> <Gold.Chemscore.Internal.Correction.Weighted>
   9.000000E+99

> <Gold.Protein.RotatedTorsions>
[ 6907 6896 6895 6894 ] final   42.54 input  -60.11 | X-H torsion
[ 7974 7965 7964 7962 ] final    0.02 input  175.53 | X-H torsion
[ 8008 7997 7996 7995 ] final   81.92 input   59.86 | X-H torsion
[ 10167 10162 10161 10158 ] final  -43.31 input  -65.29 | X-H torsion
[ 10718 10713 10712 10709 ] final   40.71 input   66.30 | X-H torsion
[ 10763 10752 10751 10750 ] final  164.48 input  -60.55 | X-H torsion
[ 11005 11000 10999 10996 ] final  137.74 input  -57.11 | X-H torsion

> <Gold.Protein.ActiveResidues>
 VAL166  LYS551  ARG553  GLY616  TRP617  ASP618  TYR619  PRO620  LYS621  CYS622 
 ASP623  PHE694  ASN695  SER759  ASP760  ASP761  ALA762  ILE779  LEU786  VAL792 
 PHE793  MET794  SER795  GLU796  ALA797  LYS798  CYS799  TRP800  GLU811  SER814 

> <Gold.Protein.RotatedAtoms>
  152.2092  134.8517  160.0499 H   0  0  0  0  0  0  0  0  0  0  0  0  # atno 6907 bound_to 6896
  151.9342  133.3614  159.3950 H   0  0  0  0  0  0  0  0  0  0  0  0  # atno 6908 bound_to 6896
  150.6972  134.4430  159.5345 H   0  0  0  0  0  0  0  0  0  0  0  0  # atno 6909 bound_to 6896
  146.2431  140.1201  142.8341 H   0  0  0  0  0  0  0  0  0  0  0  0  # atno 7974 bound_to 7965
  155.9037  140.3432  155.6046 H   0  0  0  0  0  0  0  0  0  0  0  0  # atno 8008 bound_to 7997
  155.7470  140.0815  157.2238 H   0  0  0  0  0  0  0  0  0  0  0  0  # atno 8009 bound_to 7997
  154.4047  140.1560  156.2668 H   0  0  0  0  0  0  0  0  0  0  0  0  # atno 8010 bound_to 7997
  140.6938  143.2989  151.3334 H   0  0  0  0  0  0  0  0  0  0  0  0  # atno 10167 bound_to 10162
  157.3852  130.7776  149.7225 H   0  0  0  0  0  0  0  0  0  0  0  0  # atno 10718 bound_to 10713
  154.3096  135.2757  155.2572 H   0  0  0  0  0  0  0  0  0  0  0  0  # atno 10763 bound_to 10752
  154.4973  135.5817  153.6508 H   0  0  0  0  0  0  0  0  0  0  0  0  # atno 10764 bound_to 10752
  152.9890  135.6149  154.3272 H   0  0  0  0  0  0  0  0  0  0  0  0  # atno 10765 bound_to 10752
  140.0135  134.9428  157.0327 H   0  0  0  0  0  0  0  0  0  0  0  0  # atno 11005 bound_to 11000
  145.0413  140.8948  143.5050 LP  0  0  0  0  0  0  0  0  0  0  0  0  # atno 17320 bound_to 7965
  145.1282  139.2649  143.5553 LP  0  0  0  0  0  0  0  0  0  0  0  0  # atno 17321 bound_to 7965
  139.6370  144.0612  152.2523 LP  0  0  0  0  0  0  0  0  0  0  0  0  # atno 17342 bound_to 10162
  140.0105  144.6227  150.7651 LP  0  0  0  0  0  0  0  0  0  0  0  0  # atno 17343 bound_to 10162
  155.9785  130.4050  150.3645 LP  0  0  0  0  0  0  0  0  0  0  0  0  # atno 17370 bound_to 10713
  157.1754  131.0379  151.2775 LP  0  0  0  0  0  0  0  0  0  0  0  0  # atno 17371 bound_to 10713
  140.4512  134.1580  155.7182 LP  0  0  0  0  0  0  0  0  0  0  0  0  # atno 17394 bound_to 11000
  141.1727  133.8576  157.1520 LP  0  0  0  0  0  0  0  0  0  0  0  0  # atno 17395 bound_to 11000

$$$$
