AV-unprocessed.smi:1005|AV-procd|sdf|4383|dock8
  -GOLD-   22720 2303D 1   1.00000     0.00000
 Structure written by MMmdl.
 58 60  0  0  0  0  0  0  0  0  4 V2000
  152.3503  143.4104  160.7969 C   0  0  0  0  0  0  0  0  0  0  0  0
  152.0902  142.4806  159.6239 C   0  0  0  0  0  0  0  0  0  0  0  0
  151.2180  142.9137  158.6000 C   0  0  0  0  0  0  0  0  0  0  0  0
  151.0015  142.0417  157.5399 C   0  0  0  0  0  0  0  0  0  0  0  0
  150.2131  142.1742  156.3954 N   0  3  0  0  0  0  0  0  0  0  0  0
  150.3209  141.0491  155.6363 C   0  0  0  0  0  0  0  0  0  0  0  0
  151.1678  140.1984  156.2780 N   0  0  0  0  0  0  0  0  0  0  0  0
  151.6236  138.8562  155.8856 C   0  0  0  0  0  0  0  0  0  0  0  0
  150.7975  138.2567  154.7295 C   0  0  1  0  0  0  0  0  0  0  0  0
  151.4279  137.0833  154.2530 O   0  0  0  0  0  0  0  0  0  0  0  0
  149.3614  137.9038  155.1679 C   0  0  0  0  0  0  0  0  0  0  0  0
  148.3976  137.9431  154.0344 N   0  3  1  0  0  0  0  0  0  0  0  0
  147.1387  137.2025  154.2918 C   0  0  0  0  0  0  0  0  0  0  0  0
  146.1786  138.0262  155.1662 C   0  0  0  0  0  0  0  0  0  0  0  0
  145.9190  139.2717  154.5303 O   0  0  0  0  0  0  0  0  0  0  0  0
  147.0921  140.0658  154.3824 C   0  0  2  0  0  0  0  0  0  0  0  0
  146.6826  141.4021  153.7329 C   0  0  0  0  0  0  0  0  0  0  0  0
  145.4472  141.9833  154.3200 N   0  3  0  0  0  0  0  0  0  0  0  0
  145.2854  143.4114  153.9668 C   0  0  0  0  0  0  0  0  0  0  0  0
  145.3271  141.7707  155.7812 C   0  0  0  0  0  0  0  0  0  0  0  0
  148.1078  139.3003  153.5026 C   0  0  0  0  0  0  0  0  0  0  0  0
  151.6155  140.7754  157.4738 C   0  0  0  0  0  0  0  0  0  0  0  0
  152.4759  140.3329  158.4766 C   0  0  0  0  0  0  0  0  0  0  0  0
  152.7115  141.2066  159.5622 C   0  0  0  0  0  0  0  0  0  0  0  0
  153.6492  140.7519  160.6678 C   0  0  0  0  0  0  0  0  0  0  0  0
  151.8065  144.3496  160.6903 H   0  0  0  0  0  0  0  0  0  0  0  0
  153.4118  143.6477  160.8711 H   0  0  0  0  0  0  0  0  0  0  0  0
  152.0327  142.9460  161.7309 H   0  0  0  0  0  0  0  0  0  0  0  0
  150.7415  143.8825  158.6398 H   0  0  0  0  0  0  0  0  0  0  0  0
  149.8241  140.8671  154.6943 H   0  0  0  0  0  0  0  0  0  0  0  0
  152.6856  138.8924  155.6421 H   0  0  0  0  0  0  0  0  0  0  0  0
  151.5367  138.2215  156.7685 H   0  0  0  0  0  0  0  0  0  0  0  0
  150.7754  138.9791  153.9141 H   0  0  0  0  0  0  0  0  0  0  0  0
  151.0430  136.8455  153.4231 H   0  0  0  0  0  0  0  0  0  0  0  0
  149.3744  136.9039  155.6047 H   0  0  0  0  0  0  0  0  0  0  0  0
  149.0315  138.5728  155.9627 H   0  0  0  0  0  0  0  0  0  0  0  0
  146.6618  136.9947  153.3329 H   0  0  0  0  0  0  0  0  0  0  0  0
  147.3441  136.2322  154.7451 H   0  0  0  0  0  0  0  0  0  0  0  0
  145.2363  137.4925  155.2912 H   0  0  0  0  0  0  0  0  0  0  0  0
  146.5878  138.1857  156.1650 H   0  0  0  0  0  0  0  0  0  0  0  0
  147.5314  140.2523  155.3619 H   0  0  0  0  0  0  0  0  0  0  0  0
  147.4937  142.1282  153.8063 H   0  0  0  0  0  0  0  0  0  0  0  0
  146.5235  141.2280  152.6676 H   0  0  0  0  0  0  0  0  0  0  0  0
  146.0921  144.0122  154.3887 H   0  0  0  0  0  0  0  0  0  0  0  0
  144.3381  143.7984  154.3438 H   0  0  0  0  0  0  0  0  0  0  0  0
  145.2865  143.5471  152.8849 H   0  0  0  0  0  0  0  0  0  0  0  0
  146.1613  142.2285  156.3141 H   0  0  0  0  0  0  0  0  0  0  0  0
  145.2992  140.7114  156.0322 H   0  0  0  0  0  0  0  0  0  0  0  0
  144.4036  142.2124  156.1571 H   0  0  0  0  0  0  0  0  0  0  0  0
  149.0239  139.8778  153.3843 H   0  0  0  0  0  0  0  0  0  0  0  0
  147.6964  139.1796  152.4993 H   0  0  0  0  0  0  0  0  0  0  0  0
  152.9520  139.3652  158.4330 H   0  0  0  0  0  0  0  0  0  0  0  0
  154.0468  139.7561  160.4700 H   0  0  0  0  0  0  0  0  0  0  0  0
  153.1259  140.7176  161.6236 H   0  0  0  0  0  0  0  0  0  0  0  0
  154.4940  141.4348  160.7590 H   0  0  0  0  0  0  0  0  0  0  0  0
  144.6697  141.5035  153.8889 H   0  0  0  0  0  0  0  0  0  0  0  0
  148.8613  137.4379  153.2920 H   0  0  0  0  0  0  0  0  0  0  0  0
  149.6428  142.9733  156.1487 H   0  0  0  0  0  0  0  0  0  0  0  0
  1  2  1  0  0  0  0
  1 26  1  0  0  0  0
  1 27  1  0  0  0  0
  1 28  1  0  0  0  0
  2 24  1  0  0  0  0
  2  3  2  0  0  0  0
  3  4  1  0  0  0  0
  3 29  1  0  0  0  0
  4 22  2  0  0  0  0
  4  5  1  0  0  0  0
  5  6  2  0  0  0  0
  5 58  1  0  0  0  0
  6  7  1  0  0  0  0
  6 30  1  0  0  0  0
  7  8  1  0  0  0  0
  7 22  1  0  0  0  0
  8  9  1  0  0  0  0
  8 31  1  0  0  0  0
  8 32  1  0  0  0  0
  9 10  1  0  0  0  0
  9 11  1  0  0  0  0
  9 33  1  0  0  0  0
 10 34  1  0  0  0  0
 11 12  1  0  0  0  0
 11 35  1  0  0  0  0
 11 36  1  0  0  0  0
 12 21  1  0  0  0  0
 12 13  1  0  0  0  0
 12 57  1  0  0  0  0
 13 14  1  0  0  0  0
 13 37  1  0  0  0  0
 13 38  1  0  0  0  0
 14 15  1  0  0  0  0
 14 39  1  0  0  0  0
 14 40  1  0  0  0  0
 15 16  1  0  0  0  0
 16 17  1  0  0  0  0
 16 21  1  0  0  0  0
 16 41  1  0  0  0  0
 17 18  1  0  0  0  0
 17 42  1  0  0  0  0
 17 43  1  0  0  0  0
 18 19  1  0  0  0  0
 18 20  1  0  0  0  0
 18 56  1  0  0  0  0
 19 44  1  0  0  0  0
 19 45  1  0  0  0  0
 19 46  1  0  0  0  0
 20 47  1  0  0  0  0
 20 48  1  0  0  0  0
 20 49  1  0  0  0  0
 21 50  1  0  0  0  0
 21 51  1  0  0  0  0
 22 23  1  0  0  0  0
 23 24  2  0  0  0  0
 23 52  1  0  0  0  0
 24 25  1  0  0  0  0
 25 53  1  0  0  0  0
 25 54  1  0  0  0  0
 25 55  1  0  0  0  0
M  CHG  1   5   1
M  CHG  1  12   1
M  CHG  1  18   1
M  END
> <s_m_source_file>
AV-unprocessed.smi

> <i_m_source_file_index>
1005

> <i_lp_mmshare_version>
43012

> <i_f3d_flags>
0

> <s_epik_input>
W0NIM11jKFtjSF0xKWMoW0NIM10pW2NIXWMoYzEyKW4oW2NIXW4yKVtDSDJdW0NASF0oW09IXSlbQ0gyXU4zW0NIMl1bQ0gyXU9bQ0BIXShbQ0gyXTMpW0NIMl1OKFtDSDNdKVtDSDNd

> <s_epik_cmdline>
J2VwaWtfcHl0aG9uJywgJy1waCcsICc3LjAnLCAnLXRuJywgJzgnLCAnLW1hJywgJzIwMCcsICctbWV0YWxfYmluZGluZycsICctaW1hZScsICc8aW5maWxlLm1hZT4nLCAnLW9tYWUnLCAnPG91dGZpbGUubWFlPic=

> <r_epik_Ionization_Penalty>
2.30802

> <r_epik_Ionization_Penalty_Charging>
2.30798

> <r_epik_Ionization_Penalty_Neutral>
3.4851e-05

> <r_epik_State_Penalty>
2.52618

> <r_epik_Charging_Adjusted_Penalty>
4.83416

> <i_epik_Tot_Q>
3

> <i_epik_Tot_abs_Q>
3

> <r_epik_Metal_State_Penalty>
6.53149

> <b_epik_Metal_Only>
0

> <s_lp_Force_Field>
OPLS_2005

> <r_lp_Energy>
46.6994

> <b_lp_Chiralities_Consistent>
1

> <s_lp_Variant>
AV-unprocessed.smi:1005-22

> <Gold.Version>
5.8.1

> <Gold.Id.Protein>
6NUR|6NUR_protein|mol2

> <Gold.PLP.Fitness>
66.8484

> <Gold.PLP.PLP>
-45.1637

> <Gold.PLP.part.hbond>
-5.0000

> <Gold.PLP.part.metal>
0.0000

> <Gold.PLP.part.buried>
-2.8985

> <Gold.PLP.part.nonpolar>
-38.8203

> <Gold.PLP.part.repulsive>
0.1864

> <Gold.PLP.ligand.clash>
0.0000

> <Gold.PLP.ligand.torsion>
0.9226

> <Gold.PLP.Chemscore.Hbond>
7.7836

> <Gold.PLP.Chemscore.CHOScore>
0.0000

> <Gold.PLP.Chemscore.Metal>
0.0000

> <Gold.Chemscore.Hbonds>
donor molecule, donor type, donor heavy atom, donor atom, acceptor molecule, acceptor atom, score
      L1  H     5    58       P1  8028  2.00
      L1  H    10    34       P1  7949  0.78
      L1  H    12    57       P1  7948  2.00
      L1  H    18    56       P1 10175  1.90
      P1  H 10752 10764       L1    10  0.58

> <Gold.PLP.Chemscore.Internal.Correction>
0.1790

> <Gold.Rescore>
     Score         DG    S(hbond)    S(metal)    S(lipo)     H(rot)  DE(clash)    DE(int)     intcor
     20.82     -23.49       3.22        0.00     117.85       2.56       0.50       2.17       ----

> <Gold.Chemscore.Fitness>
20.8239

> <Gold.Chemscore.DG>
-23.4904

> <Gold.Chemscore.ZeroCoef>
-5.4800

> <Gold.Chemscore.Hbond>
3.2237

> <Gold.Chemscore.Metal>
0.0000

> <Gold.Chemscore.Lipo>
117.8476

> <Gold.Chemscore.Internal_Hbond>
0.0000

> <Gold.Chemscore.DEClash>
0.4952

> <Gold.Chemscore.DEInternal>
2.1713

> <Gold.Chemscore.Rot>
2.5566

> <Gold.Chemscore.Internal.Correction>
   9.000000E+99

> <Gold.Chemscore.Hbonds>
donor molecule, donor type, donor heavy atom, donor atom, acceptor molecule, acceptor atom, score
      L1  H     5    58       P1  8028  0.98
      L1  H    10    34       P1  7949  0.26
      L1  H    12    57       P1  7948  0.98
      L1  H    18    56       P1 10175  0.21
      P1  H 10752 10764       L1    10  0.06

> <Gold.Chemscore.Hbond.Weighted>
-10.7672

> <Gold.Chemscore.Metal.Weighted>
-0.0000

> <Gold.Chemscore.Lipo.Weighted>
-13.7882

> <Gold.Chemscore.Internal_Hbond.Weighted>
0.0000

> <Gold.Chemscore.DEClash.Weighted>
0.4952

> <Gold.Chemscore.DEInternal.Weighted>
2.1713

> <Gold.Chemscore.Rot.Weighted>
6.5450

> <Gold.Chemscore.Internal.Correction.Weighted>
   9.000000E+99

> <Gold.Protein.RotatedTorsions>
[ 6907 6896 6895 6894 ] final   63.40 input  -60.11 | X-H torsion
[ 7974 7965 7964 7962 ] final -145.67 input  175.53 | X-H torsion
[ 8008 7997 7996 7995 ] final -107.49 input   59.86 | X-H torsion
[ 10167 10162 10161 10158 ] final  131.05 input  -65.29 | X-H torsion
[ 10718 10713 10712 10709 ] final  150.84 input   66.30 | X-H torsion
[ 10763 10752 10751 10750 ] final  -90.02 input  -60.55 | X-H torsion
[ 11005 11000 10999 10996 ] final  -48.71 input  -57.11 | X-H torsion

> <Gold.Protein.ActiveResidues>
 VAL166  LYS551  ARG553  GLY616  TRP617  ASP618  TYR619  PRO620  LYS621  CYS622 
 ASP623  PHE694  ASN695  SER759  ASP760  ASP761  ALA762  ILE779  LEU786  VAL792 
 PHE793  MET794  SER795  GLU796  ALA797  LYS798  CYS799  TRP800  GLU811  SER814 

> <Gold.Protein.RotatedAtoms>
  152.4249  134.5886  159.9967 H   0  0  0  0  0  0  0  0  0  0  0  0  # atno 6907 bound_to 6896
  151.6025  133.3349  159.3058 H   0  0  0  0  0  0  0  0  0  0  0  0  # atno 6908 bound_to 6896
  150.8139  134.7346  159.6778 H   0  0  0  0  0  0  0  0  0  0  0  0  # atno 6909 bound_to 6896
  144.8212  140.5555  143.5577 H   0  0  0  0  0  0  0  0  0  0  0  0  # atno 7974 bound_to 7965
  154.9301  140.0405  157.2043 H   0  0  0  0  0  0  0  0  0  0  0  0  # atno 8008 bound_to 7997
  154.8169  140.2877  155.5792 H   0  0  0  0  0  0  0  0  0  0  0  0  # atno 8009 bound_to 7997
  156.2976  140.2526  156.3069 H   0  0  0  0  0  0  0  0  0  0  0  0  # atno 8010 bound_to 7997
  139.5401  144.6722  151.4652 H   0  0  0  0  0  0  0  0  0  0  0  0  # atno 10167 bound_to 10162
  157.2783  131.0830  151.1550 H   0  0  0  0  0  0  0  0  0  0  0  0  # atno 10718 bound_to 10713
  154.6614  135.5320  153.8022 H   0  0  0  0  0  0  0  0  0  0  0  0  # atno 10763 bound_to 10752
  153.0444  135.6506  154.0866 H   0  0  0  0  0  0  0  0  0  0  0  0  # atno 10764 bound_to 10752
  154.0775  135.2949  155.3276 H   0  0  0  0  0  0  0  0  0  0  0  0  # atno 10765 bound_to 10752
  141.0717  133.6677  156.3481 H   0  0  0  0  0  0  0  0  0  0  0  0  # atno 11005 bound_to 11000
  145.5101  139.1479  143.3609 LP  0  0  0  0  0  0  0  0  0  0  0  0  # atno 17320 bound_to 7965
  146.2517  140.5242  142.8890 LP  0  0  0  0  0  0  0  0  0  0  0  0  # atno 17321 bound_to 7965
  140.6628  143.8463  150.6907 LP  0  0  0  0  0  0  0  0  0  0  0  0  # atno 17342 bound_to 10162
  140.1863  143.4073  152.1896 LP  0  0  0  0  0  0  0  0  0  0  0  0  # atno 17343 bound_to 10162
  157.2994  130.6835  149.6156 LP  0  0  0  0  0  0  0  0  0  0  0  0  # atno 17370 bound_to 10713
  155.9664  130.4396  150.5267 LP  0  0  0  0  0  0  0  0  0  0  0  0  # atno 17371 bound_to 10713
  140.5660  134.5887  157.5446 LP  0  0  0  0  0  0  0  0  0  0  0  0  # atno 17394 bound_to 11000
  139.9530  134.7584  156.0405 LP  0  0  0  0  0  0  0  0  0  0  0  0  # atno 17395 bound_to 11000

$$$$
