AV-unprocessed.smi:3274|AV-procd|sdf|12527|dock7
  -GOLD-   2272018443D 1   1.00000     0.00000
 Structure written by MMmdl.
 43 44  0  0  0  0  0  0  0  0  2 V2000
  152.3056  143.9332  157.2529 C   0  0  0  0  0  0  0  0  0  0  0  0
  152.0986  143.9206  158.7584 C   0  0  0  0  0  0  0  0  0  0  0  0
  151.2762  144.8215  159.3292 C   0  0  0  0  0  0  0  0  0  0  0  0
  151.0504  144.9456  160.8187 C   0  0  0  0  0  0  0  0  0  0  0  0
  152.1975  144.3053  161.6043 C   0  0  0  0  0  0  0  0  0  0  0  0
  152.5038  142.8872  161.0955 C   0  0  2  0  0  0  0  0  0  0  0  0
  153.5984  142.2514  161.9755 C   0  0  0  0  0  0  0  0  0  0  0  0
  152.8714  142.8684  159.5793 C   0  0  1  0  0  0  0  0  0  0  0  0
  152.7146  141.4337  159.0118 C   0  0  0  0  0  0  0  0  0  0  0  0
  151.3055  140.9819  158.9736 N   0  3  0  0  0  0  0  0  0  0  0  0
  150.9765  139.9970  157.9166 C   0  0  1  0  0  0  0  0  0  0  0  0
  149.4507  139.8966  157.7868 C   0  0  0  0  0  0  0  0  0  0  0  0
  151.6076  140.3813  156.5589 C   0  0  0  0  0  0  0  0  0  0  0  0
  151.4692  139.3552  155.5417 N   0  0  0  0  0  0  0  0  0  0  0  0
  152.0433  138.1555  155.4357 C   0  0  0  0  0  0  0  0  0  0  0  0
  151.6739  137.4796  154.3573 N   0  0  0  0  0  0  0  0  0  0  0  0
  150.8253  138.3908  153.7949 C   0  0  0  0  0  0  0  0  0  0  0  0
  150.6705  139.5338  154.4633 N   0  0  0  0  0  0  0  0  0  0  0  0
  153.3690  143.9495  157.0136 H   0  0  0  0  0  0  0  0  0  0  0  0
  151.8512  144.8141  156.7975 H   0  0  0  0  0  0  0  0  0  0  0  0
  151.8502  143.0580  156.7901 H   0  0  0  0  0  0  0  0  0  0  0  0
  150.7364  145.5260  158.7129 H   0  0  0  0  0  0  0  0  0  0  0  0
  150.9672  146.0004  161.0818 H   0  0  0  0  0  0  0  0  0  0  0  0
  150.0986  144.4762  161.0688 H   0  0  0  0  0  0  0  0  0  0  0  0
  153.0905  144.9260  161.5151 H   0  0  0  0  0  0  0  0  0  0  0  0
  151.9412  144.2847  162.6644 H   0  0  0  0  0  0  0  0  0  0  0  0
  151.5921  142.3024  161.2290 H   0  0  0  0  0  0  0  0  0  0  0  0
  154.5468  142.7794  161.8701 H   0  0  0  0  0  0  0  0  0  0  0  0
  153.7748  141.2046  161.7331 H   0  0  0  0  0  0  0  0  0  0  0  0
  153.3200  142.2872  163.0292 H   0  0  0  0  0  0  0  0  0  0  0  0
  153.9216  143.1541  159.5007 H   0  0  0  0  0  0  0  0  0  0  0  0
  153.1108  141.3783  158.0023 H   0  0  0  0  0  0  0  0  0  0  0  0
  153.3072  140.7371  159.6062 H   0  0  0  0  0  0  0  0  0  0  0  0
  151.1200  140.5415  159.8636 H   0  0  0  0  0  0  0  0  0  0  0  0
  151.3348  139.0121  158.2209 H   0  0  0  0  0  0  0  0  0  0  0  0
  149.1673  139.1504  157.0438 H   0  0  0  0  0  0  0  0  0  0  0  0
  149.0128  140.8489  157.4849 H   0  0  0  0  0  0  0  0  0  0  0  0
  148.9939  139.6046  158.7330 H   0  0  0  0  0  0  0  0  0  0  0  0
  151.1399  141.2886  156.1740 H   0  0  0  0  0  0  0  0  0  0  0  0
  152.6673  140.6093  156.6823 H   0  0  0  0  0  0  0  0  0  0  0  0
  152.7378  137.7643  156.1647 H   0  0  0  0  0  0  0  0  0  0  0  0
  150.3054  138.2057  152.8664 H   0  0  0  0  0  0  0  0  0  0  0  0
  150.6948  141.7812  158.8826 H   0  0  0  0  0  0  0  0  0  0  0  0
  1  2  1  0  0  0  0
  1 19  1  0  0  0  0
  1 20  1  0  0  0  0
  1 21  1  0  0  0  0
  2  8  1  0  0  0  0
  2  3  2  0  0  0  0
  3  4  1  0  0  0  0
  3 22  1  0  0  0  0
  4  5  1  0  0  0  0
  4 23  1  0  0  0  0
  4 24  1  0  0  0  0
  5  6  1  0  0  0  0
  5 25  1  0  0  0  0
  5 26  1  0  0  0  0
  6  7  1  0  0  0  0
  6  8  1  0  0  0  0
  6 27  1  0  0  0  0
  7 28  1  0  0  0  0
  7 29  1  0  0  0  0
  7 30  1  0  0  0  0
  8  9  1  0  0  0  0
  8 31  1  0  0  0  0
  9 10  1  0  0  0  0
  9 32  1  0  0  0  0
  9 33  1  0  0  0  0
 10 11  1  0  0  0  0
 10 34  1  0  0  0  0
 10 43  1  0  0  0  0
 11 12  1  0  0  0  0
 11 13  1  0  0  0  0
 11 35  1  0  0  0  0
 12 36  1  0  0  0  0
 12 37  1  0  0  0  0
 12 38  1  0  0  0  0
 13 14  1  0  0  0  0
 13 39  1  0  0  0  0
 13 40  1  0  0  0  0
 14 18  1  0  0  0  0
 14 15  1  0  0  0  0
 15 16  2  0  0  0  0
 15 41  1  0  0  0  0
 16 17  1  0  0  0  0
 17 18  2  0  0  0  0
 17 42  1  0  0  0  0
M  CHG  1  10   1
M  END
> <s_m_source_file>
AV-unprocessed.smi

> <i_m_source_file_index>
3274

> <i_lp_mmshare_version>
43012

> <i_f3d_flags>
0

> <s_epik_input>
W0NIM11DMT1bQ0hdW0NIMl1bQ0gyXVtDQEBIXShbQ0gzXSlbQ0BIXTFbQ0gyXVtOSF1bQ0BIXShbQ0gzXSlbQ0gyXW4yW2NIXW5bY0hdbjI=

> <s_epik_cmdline>
J2VwaWtfcHl0aG9uJywgJy1waCcsICc3LjAnLCAnLXRuJywgJzgnLCAnLW1hJywgJzIwMCcsICctbWV0YWxfYmluZGluZycsICctaW1hZScsICc8aW5maWxlLm1hZT4nLCAnLW9tYWUnLCAnPG91dGZpbGUubWFlPic=

> <r_lp_tautomer_probability>
1

> <r_epik_Ionization_Penalty>
0.0017527

> <r_epik_Ionization_Penalty_Charging>
0.00175191

> <r_epik_Ionization_Penalty_Neutral>
7.94565e-07

> <r_epik_State_Penalty>
0.00118605

> <r_epik_Charging_Adjusted_Penalty>
0.00293796

> <i_epik_Tot_Q>
1

> <i_epik_Tot_abs_Q>
1

> <r_epik_Metal_State_Penalty>
-0

> <b_epik_Metal_Only>
0

> <s_lp_Force_Field>
OPLS_2005

> <r_lp_Energy>
18.4066

> <b_lp_Chiralities_Consistent>
1

> <s_lp_Variant>
AV-unprocessed.smi:3274-6

> <Gold.Version>
5.8.1

> <Gold.Id.Protein>
6NUR|6NUR_protein|mol2

> <Gold.PLP.Fitness>
50.0066

> <Gold.PLP.PLP>
-41.3760

> <Gold.PLP.part.hbond>
-1.6401

> <Gold.PLP.part.metal>
0.0000

> <Gold.PLP.part.buried>
-4.5736

> <Gold.PLP.part.nonpolar>
-35.8729

> <Gold.PLP.part.repulsive>
0.4731

> <Gold.PLP.ligand.clash>
0.0000

> <Gold.PLP.ligand.torsion>
0.4092

> <Gold.PLP.Chemscore.Hbond>
1.5525

> <Gold.PLP.Chemscore.CHOScore>
1.5788

> <Gold.PLP.Chemscore.Metal>
0.0000

> <Gold.Chemscore.Hbonds>
donor molecule, donor type, donor heavy atom, donor atom, acceptor molecule, acceptor atom, score
      P1  H  7989  7998       L1    18  1.00
      P1  H 10752 10765       L1    16  0.55
      L1  C    17    42       P1  7948  0.77
      L1  C    17    42       P1  7949  0.11
      L1  C    17    42       P1  7957  0.69

> <Gold.PLP.Chemscore.Internal.Correction>
0.0550

> <Gold.Rescore>
     Score         DG    S(hbond)    S(metal)    S(lipo)     H(rot)  DE(clash)    DE(int)     intcor
     17.56     -19.57       1.91        0.00     117.54       2.36       1.60       0.42       ----

> <Gold.Chemscore.Fitness>
17.5589

> <Gold.Chemscore.DG>
-19.5718

> <Gold.Chemscore.ZeroCoef>
-5.4800

> <Gold.Chemscore.Hbond>
1.9116

> <Gold.Chemscore.Metal>
0.0000

> <Gold.Chemscore.Lipo>
117.5418

> <Gold.Chemscore.Internal_Hbond>
0.0000

> <Gold.Chemscore.DEClash>
1.5964

> <Gold.Chemscore.DEInternal>
0.4165

> <Gold.Chemscore.Rot>
2.3615

> <Gold.Chemscore.Internal.Correction>
   9.000000E+99

> <Gold.Chemscore.Hbonds>
donor molecule, donor type, donor heavy atom, donor atom, acceptor molecule, acceptor atom, score
      P1  H  7989  7998       L1    18  0.19
      P1  H 10752 10765       L1    16  0.29

> <Gold.Chemscore.Hbond.Weighted>
-6.3848

> <Gold.Chemscore.Metal.Weighted>
-0.0000

> <Gold.Chemscore.Lipo.Weighted>
-13.7524

> <Gold.Chemscore.Internal_Hbond.Weighted>
0.0000

> <Gold.Chemscore.DEClash.Weighted>
1.5964

> <Gold.Chemscore.DEInternal.Weighted>
0.4165

> <Gold.Chemscore.Rot.Weighted>
6.0454

> <Gold.Chemscore.Internal.Correction.Weighted>
   9.000000E+99

> <Gold.Protein.RotatedTorsions>
[ 6907 6896 6895 6894 ] final  105.55 input  -60.11 | X-H torsion
[ 7974 7965 7964 7962 ] final  -98.73 input  175.53 | X-H torsion
[ 8008 7997 7996 7995 ] final  -79.10 input   59.86 | X-H torsion
[ 10167 10162 10161 10158 ] final  131.54 input  -65.29 | X-H torsion
[ 10718 10713 10712 10709 ] final -172.67 input   66.30 | X-H torsion
[ 10763 10752 10751 10750 ] final  162.28 input  -60.55 | X-H torsion
[ 11005 11000 10999 10996 ] final  -94.44 input  -57.11 | X-H torsion

> <Gold.Protein.ActiveResidues>
 VAL166  LYS551  ARG553  GLY616  TRP617  ASP618  TYR619  PRO620  LYS621  CYS622 
 ASP623  PHE694  ASN695  SER759  ASP760  ASP761  ALA762  ILE779  LEU786  VAL792 
 PHE793  MET794  SER795  GLU796  ALA797  LYS798  CYS799  TRP800  GLU811  SER814 

> <Gold.Protein.RotatedAtoms>
  152.5226  133.9512  159.7672 H   0  0  0  0  0  0  0  0  0  0  0  0  # atno 6907 bound_to 6896
  150.9822  133.6226  159.2728 H   0  0  0  0  0  0  0  0  0  0  0  0  # atno 6908 bound_to 6896
  151.3399  135.0867  159.9420 H   0  0  0  0  0  0  0  0  0  0  0  0  # atno 6909 bound_to 6896
  145.3168  140.9413  143.2738 H   0  0  0  0  0  0  0  0  0  0  0  0  # atno 7974 bound_to 7965
  154.5752  140.0684  156.9024 H   0  0  0  0  0  0  0  0  0  0  0  0  # atno 8008 bound_to 7997
  155.2561  140.3355  155.4259 H   0  0  0  0  0  0  0  0  0  0  0  0  # atno 8009 bound_to 7997
  156.2149  140.1774  156.7597 H   0  0  0  0  0  0  0  0  0  0  0  0  # atno 8010 bound_to 7997
  139.5379  144.6701  151.4723 H   0  0  0  0  0  0  0  0  0  0  0  0  # atno 10167 bound_to 10162
  156.7591  130.9406  151.3117 H   0  0  0  0  0  0  0  0  0  0  0  0  # atno 10718 bound_to 10713
  154.2760  135.2764  155.2718 H   0  0  0  0  0  0  0  0  0  0  0  0  # atno 10763 bound_to 10752
  154.5260  135.5743  153.6723 H   0  0  0  0  0  0  0  0  0  0  0  0  # atno 10764 bound_to 10752
  152.9937  135.6216  154.2917 H   0  0  0  0  0  0  0  0  0  0  0  0  # atno 10765 bound_to 10752
  141.1470  133.7956  157.0298 H   0  0  0  0  0  0  0  0  0  0  0  0  # atno 11005 bound_to 11000
  144.8971  139.4697  143.6650 LP  0  0  0  0  0  0  0  0  0  0  0  0  # atno 17320 bound_to 7965
  146.3097  139.7704  142.9029 LP  0  0  0  0  0  0  0  0  0  0  0  0  # atno 17321 bound_to 7965
  140.6595  143.8529  150.6872 LP  0  0  0  0  0  0  0  0  0  0  0  0  # atno 17342 bound_to 10162
  140.1919  143.4030  152.1857 LP  0  0  0  0  0  0  0  0  0  0  0  0  # atno 17343 bound_to 10162
  157.6743  130.9080  150.0113 LP  0  0  0  0  0  0  0  0  0  0  0  0  # atno 17370 bound_to 10713
  156.1351  130.3643  149.9670 LP  0  0  0  0  0  0  0  0  0  0  0  0  # atno 17371 bound_to 10713
  140.0761  134.9674  157.1548 LP  0  0  0  0  0  0  0  0  0  0  0  0  # atno 17394 bound_to 11000
  140.3641  134.2461  155.7184 LP  0  0  0  0  0  0  0  0  0  0  0  0  # atno 17395 bound_to 11000

$$$$
