AV-unprocessed.smi:2696|AV-procd|sdf|10413|dock3
  -GOLD-   2272014453D 1   1.00000     0.00000
 Structure written by MMmdl.
 43 44  0  0  0  0  0  0  0  0  1 V2000
  148.8883  133.8574  154.0124 C   0  0  0  0  0  0  0  0  0  0  0  0
  150.1430  133.8699  154.8987 C   0  0  0  0  0  0  0  0  0  0  0  0
  150.1970  132.6441  155.8246 C   0  0  0  0  0  0  0  0  0  0  0  0
  150.2605  135.1703  155.6825 C   0  0  0  0  0  0  0  0  0  0  0  0
  150.1103  135.2231  157.0278 C   0  0  0  0  0  0  0  0  0  0  0  0
  150.2532  136.4874  157.7490 C   0  0  0  0  0  0  0  0  0  0  0  0
  150.0960  136.5738  158.9666 O   0  0  0  0  0  0  0  0  0  0  0  0
  150.5846  137.5598  156.9721 N   0  0  0  0  0  0  0  0  0  0  0  0
  150.8350  138.8869  157.5738 C   0  0  0  0  0  0  0  0  0  0  0  0
  152.3408  139.2811  157.6838 C   0  0  1  0  0  0  0  0  0  0  0  0
  153.1919  138.0331  158.0013 C   0  0  0  0  0  0  0  0  0  0  0  0
  152.7742  139.6230  156.3790 O   0  0  0  0  0  0  0  0  0  0  0  0
  152.5966  140.4029  158.7030 C   0  0  0  0  0  0  0  0  0  0  0  0
  153.4165  140.1882  159.8363 C   0  0  0  0  0  0  0  0  0  0  0  0
  153.6763  141.2350  160.7402 C   0  0  0  0  0  0  0  0  0  0  0  0
  153.1243  142.5097  160.5210 C   0  0  0  0  0  0  0  0  0  0  0  0
  152.3111  142.7470  159.3943 C   0  0  0  0  0  0  0  0  0  0  0  0
  151.7302  144.1348  159.1664 C   0  0  0  0  0  0  0  0  0  0  0  0
  151.9043  144.9267  160.2252 F   0  0  0  0  0  0  0  0  0  0  0  0
  152.3258  144.6939  158.1138 F   0  0  0  0  0  0  0  0  0  0  0  0
  150.4228  144.0441  158.9224 F   0  0  0  0  0  0  0  0  0  0  0  0
  152.0480  141.6902  158.4955 C   0  0  0  0  0  0  0  0  0  0  0  0
  150.6901  137.4579  155.5690 C   0  0  0  0  0  0  0  0  0  0  0  0
  150.5432  136.3292  154.9524 N   0  0  0  0  0  0  0  0  0  0  0  0
  148.8789  134.7130  153.3365 H   0  0  0  0  0  0  0  0  0  0  0  0
  147.9752  133.8918  154.6073 H   0  0  0  0  0  0  0  0  0  0  0  0
  148.8506  132.9554  153.4010 H   0  0  0  0  0  0  0  0  0  0  0  0
  151.0073  133.8079  154.2352 H   0  0  0  0  0  0  0  0  0  0  0  0
  151.1004  132.6548  156.4354 H   0  0  0  0  0  0  0  0  0  0  0  0
  150.2013  131.7189  155.2477 H   0  0  0  0  0  0  0  0  0  0  0  0
  149.3398  132.6085  156.4974 H   0  0  0  0  0  0  0  0  0  0  0  0
  149.8920  134.3236  157.5846 H   0  0  0  0  0  0  0  0  0  0  0  0
  150.3324  139.6434  156.9679 H   0  0  0  0  0  0  0  0  0  0  0  0
  150.3394  138.9689  158.5434 H   0  0  0  0  0  0  0  0  0  0  0  0
  152.9299  137.5867  158.9602 H   0  0  0  0  0  0  0  0  0  0  0  0
  154.2551  138.2757  158.0334 H   0  0  0  0  0  0  0  0  0  0  0  0
  153.0551  137.2561  157.2478 H   0  0  0  0  0  0  0  0  0  0  0  0
  152.0192  139.6713  155.8128 H   0  0  0  0  0  0  0  0  0  0  0  0
  153.8677  139.2246  160.0207 H   0  0  0  0  0  0  0  0  0  0  0  0
  154.3055  141.0603  161.6004 H   0  0  0  0  0  0  0  0  0  0  0  0
  153.3306  143.3091  161.2175 H   0  0  0  0  0  0  0  0  0  0  0  0
  151.4375  141.8749  157.6251 H   0  0  0  0  0  0  0  0  0  0  0  0
  150.9157  138.3876  155.0442 H   0  0  0  0  0  0  0  0  0  0  0  0
  1  2  1  0  0  0  0
  1 25  1  0  0  0  0
  1 26  1  0  0  0  0
  1 27  1  0  0  0  0
  2  3  1  0  0  0  0
  2  4  1  0  0  0  0
  2 28  1  0  0  0  0
  3 29  1  0  0  0  0
  3 30  1  0  0  0  0
  3 31  1  0  0  0  0
  4 24  1  0  0  0  0
  4  5  2  0  0  0  0
  5  6  1  0  0  0  0
  5 32  1  0  0  0  0
  6  7  2  0  0  0  0
  6  8  1  0  0  0  0
  8  9  1  0  0  0  0
  8 23  1  0  0  0  0
  9 10  1  0  0  0  0
  9 33  1  0  0  0  0
  9 34  1  0  0  0  0
 10 11  1  0  0  0  0
 10 12  1  0  0  0  0
 10 13  1  0  0  0  0
 11 35  1  0  0  0  0
 11 36  1  0  0  0  0
 11 37  1  0  0  0  0
 12 38  1  0  0  0  0
 13 22  1  0  0  0  0
 13 14  2  0  0  0  0
 14 15  1  0  0  0  0
 14 39  1  0  0  0  0
 15 16  2  0  0  0  0
 15 40  1  0  0  0  0
 16 17  1  0  0  0  0
 16 41  1  0  0  0  0
 17 18  1  0  0  0  0
 17 22  2  0  0  0  0
 18 19  1  0  0  0  0
 18 20  1  0  0  0  0
 18 21  1  0  0  0  0
 22 42  1  0  0  0  0
 23 24  2  0  0  0  0
 23 43  1  0  0  0  0
M  END
> <s_m_source_file>
AV-unprocessed.smi

> <i_m_source_file_index>
2696

> <i_lp_mmshare_version>
43012

> <i_f3d_flags>
0

> <s_epik_input>
W0NIM11bQ0hdKFtDSDNdKWMxW2NIXWMoPU8pbihbY0hdbjEpW0NIMl1bQ0BAXShbQ0gzXSkoW09IXSljMltjSF1bY0hdW2NIXWMoQyhGKShGKUYpW2NIXTI=

> <s_epik_cmdline>
J2VwaWtfcHl0aG9uJywgJy1waCcsICc3LjAnLCAnLXRuJywgJzgnLCAnLW1hJywgJzIwMCcsICctbWV0YWxfYmluZGluZycsICctaW1hZScsICc8aW5maWxlLm1hZT4nLCAnLW9tYWUnLCAnPG91dGZpbGUubWFlPic=

> <r_lp_tautomer_probability>
1

> <r_epik_Ionization_Penalty>
2.71388e-05

> <r_epik_Ionization_Penalty_Charging>
4.19927e-06

> <r_epik_Ionization_Penalty_Neutral>
2.29395e-05

> <r_epik_State_Penalty>
-0

> <r_epik_Charging_Adjusted_Penalty>
4.19927e-06

> <i_epik_Tot_Q>
0

> <i_epik_Tot_abs_Q>
0

> <r_epik_Metal_State_Penalty>
-0

> <b_epik_Metal_Only>
0

> <s_lp_Force_Field>
OPLS_2005

> <r_lp_Energy>
19.4026

> <b_lp_Chiralities_Consistent>
1

> <s_lp_Variant>
AV-unprocessed.smi:2696-1

> <Gold.Version>
5.8.1

> <Gold.Id.Protein>
6NUR|6NUR_protein|mol2

> <Gold.PLP.Fitness>
51.8765

> <Gold.PLP.PLP>
-48.7093

> <Gold.PLP.part.hbond>
-2.0000

> <Gold.PLP.part.metal>
0.0000

> <Gold.PLP.part.buried>
-6.7599

> <Gold.PLP.part.nonpolar>
-40.4871

> <Gold.PLP.part.repulsive>
0.1559

> <Gold.PLP.ligand.clash>
0.9575

> <Gold.PLP.ligand.torsion>
1.1196

> <Gold.PLP.Chemscore.Hbond>
2.0000

> <Gold.PLP.Chemscore.CHOScore>
0.0000

> <Gold.PLP.Chemscore.Metal>
0.0000

> <Gold.Chemscore.Hbonds>
donor molecule, donor type, donor heavy atom, donor atom, acceptor molecule, acceptor atom, score
      P1  H  6896  6909       L1     7  1.00
      P1  H  7997  8008       L1    12  1.00

> <Gold.PLP.Chemscore.Internal.Correction>
0.3639

> <Gold.Rescore>
     Score         DG    S(hbond)    S(metal)    S(lipo)     H(rot)  DE(clash)    DE(int)     intcor
     17.14     -18.13       1.91        0.00     102.46       2.23       0.02       0.96       ----

> <Gold.Chemscore.Fitness>
17.1440

> <Gold.Chemscore.DG>
-18.1257

> <Gold.Chemscore.ZeroCoef>
-5.4800

> <Gold.Chemscore.Hbond>
1.9070

> <Gold.Chemscore.Metal>
0.0000

> <Gold.Chemscore.Lipo>
102.4617

> <Gold.Chemscore.Internal_Hbond>
0.0000

> <Gold.Chemscore.DEClash>
0.0186

> <Gold.Chemscore.DEInternal>
0.9631

> <Gold.Chemscore.Rot>
2.2312

> <Gold.Chemscore.Internal.Correction>
   9.000000E+99

> <Gold.Chemscore.Hbonds>
donor molecule, donor type, donor heavy atom, donor atom, acceptor molecule, acceptor atom, score
      P1  H  6896  6909       L1     7  0.59
      P1  H  7997  8008       L1    12  0.88

> <Gold.Chemscore.Hbond.Weighted>
-6.3695

> <Gold.Chemscore.Metal.Weighted>
-0.0000

> <Gold.Chemscore.Lipo.Weighted>
-11.9880

> <Gold.Chemscore.Internal_Hbond.Weighted>
0.0000

> <Gold.Chemscore.DEClash.Weighted>
0.0186

> <Gold.Chemscore.DEInternal.Weighted>
0.9631

> <Gold.Chemscore.Rot.Weighted>
5.7118

> <Gold.Chemscore.Internal.Correction.Weighted>
   9.000000E+99

> <Gold.Protein.RotatedTorsions>
[ 6907 6896 6895 6894 ] final   79.84 input  -60.11 | X-H torsion
[ 7974 7965 7964 7962 ] final  -56.12 input  175.53 | X-H torsion
[ 8008 7997 7996 7995 ] final  -41.20 input   59.86 | X-H torsion
[ 10167 10162 10161 10158 ] final  -27.65 input  -65.29 | X-H torsion
[ 10718 10713 10712 10709 ] final  101.08 input   66.30 | X-H torsion
[ 10763 10752 10751 10750 ] final  144.13 input  -60.55 | X-H torsion
[ 11005 11000 10999 10996 ] final  112.19 input  -57.11 | X-H torsion

> <Gold.Protein.ActiveResidues>
 VAL166  LYS551  ARG553  GLY616  TRP617  ASP618  TYR619  PRO620  LYS621  CYS622 
 ASP623  PHE694  ASN695  SER759  ASP760  ASP761  ALA762  ILE779  LEU786  VAL792 
 PHE793  MET794  SER795  GLU796  ALA797  LYS798  CYS799  TRP800  GLU811  SER814 

> <Gold.Protein.RotatedAtoms>
  152.5213  134.3450  159.9230 H   0  0  0  0  0  0  0  0  0  0  0  0  # atno 6907 bound_to 6896
  151.3400  133.3960  159.2678 H   0  0  0  0  0  0  0  0  0  0  0  0  # atno 6908 bound_to 6896
  150.9811  134.9184  159.7902 H   0  0  0  0  0  0  0  0  0  0  0  0  # atno 6909 bound_to 6896
  145.8663  140.8249  142.9911 H   0  0  0  0  0  0  0  0  0  0  0  0  # atno 7974 bound_to 7965
  154.4006  140.1505  156.3151 H   0  0  0  0  0  0  0  0  0  0  0  0  # atno 8008 bound_to 7997
  155.8580  140.3455  155.5716 H   0  0  0  0  0  0  0  0  0  0  0  0  # atno 8009 bound_to 7997
  155.7911  140.0857  157.1998 H   0  0  0  0  0  0  0  0  0  0  0  0  # atno 8010 bound_to 7997
  140.7276  143.4076  151.1160 H   0  0  0  0  0  0  0  0  0  0  0  0  # atno 10167 bound_to 10162
  157.6838  131.0716  150.5197 H   0  0  0  0  0  0  0  0  0  0  0  0  # atno 10718 bound_to 10713
  153.9839  135.2938  155.3418 H   0  0  0  0  0  0  0  0  0  0  0  0  # atno 10763 bound_to 10752
  154.7253  135.5091  153.8880 H   0  0  0  0  0  0  0  0  0  0  0  0  # atno 10764 bound_to 10752
  153.0841  135.6688  154.0099 H   0  0  0  0  0  0  0  0  0  0  0  0  # atno 10765 bound_to 10752
  139.8921  134.9524  156.6547 H   0  0  0  0  0  0  0  0  0  0  0  0  # atno 11005 bound_to 11000
  144.6726  140.1171  143.7452 LP  0  0  0  0  0  0  0  0  0  0  0  0  # atno 17320 bound_to 7965
  145.9189  139.2533  143.1393 LP  0  0  0  0  0  0  0  0  0  0  0  0  # atno 17321 bound_to 7965
  139.7704  143.8502  152.3119 LP  0  0  0  0  0  0  0  0  0  0  0  0  # atno 17342 bound_to 10162
  139.8419  144.7206  150.9321 LP  0  0  0  0  0  0  0  0  0  0  0  0  # atno 17343 bound_to 10162
  156.5511  130.4232  149.6107 LP  0  0  0  0  0  0  0  0  0  0  0  0  # atno 17370 bound_to 10713
  156.2902  130.7119  151.1966 LP  0  0  0  0  0  0  0  0  0  0  0  0  # atno 17371 bound_to 10713
  140.7493  133.8911  155.8335 LP  0  0  0  0  0  0  0  0  0  0  0  0  # atno 17394 bound_to 11000
  141.0013  134.1146  157.4314 LP  0  0  0  0  0  0  0  0  0  0  0  0  # atno 17395 bound_to 11000

$$$$
