AV-unprocessed.smi:3132|AV-procd|sdf|11933|dock3
  -GOLD-   2272017323D 1   1.00000     0.00000
 Structure written by MMmdl.
 33 34  0  0  0  0  0  0  0  0  1 V2000
  150.9964  140.9129  157.9721 C   0  0  0  0  0  0  0  0  0  0  0  0
  150.5555  142.2391  157.3384 C   0  0  2  0  0  0  0  0  0  0  0  0
  149.8759  143.1599  158.3738 C   0  0  0  0  0  0  0  0  0  0  0  0
  150.8167  144.0435  159.0386 N   0  0  0  0  0  0  0  0  0  0  0  0
  151.8067  143.6866  159.9454 C   0  0  0  0  0  0  0  0  0  0  0  0
  152.4369  144.8524  160.3176 C   0  0  0  0  0  0  0  0  0  0  0  0
  151.8597  145.9309  159.6513 N   0  0  0  0  0  0  0  0  0  0  0  0
  150.9085  145.3743  158.9126 C   0  0  0  0  0  0  0  0  0  0  0  0
  149.6479  141.9573  156.2273 N   0  0  0  0  0  0  0  0  0  0  0  0
  149.8674  141.0765  155.2384 C   0  0  0  0  0  0  0  0  0  0  0  0
  150.8650  140.3566  155.1807 O   0  0  0  0  0  0  0  0  0  0  0  0
  148.8124  141.0371  154.1275 C   0  0  2  0  0  0  0  0  0  0  0  0
  147.6860  142.0754  154.2843 C   0  0  0  0  0  0  0  0  0  0  0  0
  146.4942  141.2438  154.7136 C   0  0  0  0  0  0  0  0  0  0  0  0
  146.7771  139.9199  154.0184 C   0  0  0  0  0  0  0  0  0  0  0  0
  148.1787  139.7591  154.1743 O   0  0  0  0  0  0  0  0  0  0  0  0
  151.6926  141.0836  158.7937 H   0  0  0  0  0  0  0  0  0  0  0  0
  151.4999  140.2775  157.2425 H   0  0  0  0  0  0  0  0  0  0  0  0
  150.1452  140.3577  158.3675 H   0  0  0  0  0  0  0  0  0  0  0  0
  151.4560  142.7335  156.9689 H   0  0  0  0  0  0  0  0  0  0  0  0
  149.1007  143.7643  157.9008 H   0  0  0  0  0  0  0  0  0  0  0  0
  149.3809  142.5620  159.1399 H   0  0  0  0  0  0  0  0  0  0  0  0
  151.9698  142.6633  160.2497 H   0  0  0  0  0  0  0  0  0  0  0  0
  153.2543  144.9966  161.0084 H   0  0  0  0  0  0  0  0  0  0  0  0
  150.2588  145.9488  158.2687 H   0  0  0  0  0  0  0  0  0  0  0  0
  148.8030  142.5085  156.1830 H   0  0  0  0  0  0  0  0  0  0  0  0
  149.2930  141.1628  153.1557 H   0  0  0  0  0  0  0  0  0  0  0  0
  147.9075  142.8756  154.9918 H   0  0  0  0  0  0  0  0  0  0  0  0
  147.4834  142.5429  153.3199 H   0  0  0  0  0  0  0  0  0  0  0  0
  146.4995  141.1078  155.7960 H   0  0  0  0  0  0  0  0  0  0  0  0
  145.5388  141.6827  154.4255 H   0  0  0  0  0  0  0  0  0  0  0  0
  146.2263  139.0867  154.4546 H   0  0  0  0  0  0  0  0  0  0  0  0
  146.5339  139.9787  152.9566 H   0  0  0  0  0  0  0  0  0  0  0  0
  1  2  1  0  0  0  0
  1 17  1  0  0  0  0
  1 18  1  0  0  0  0
  1 19  1  0  0  0  0
  2  3  1  0  0  0  0
  2  9  1  0  0  0  0
  2 20  1  0  0  0  0
  3  4  1  0  0  0  0
  3 21  1  0  0  0  0
  3 22  1  0  0  0  0
  4  8  1  0  0  0  0
  4  5  1  0  0  0  0
  5  6  2  0  0  0  0
  5 23  1  0  0  0  0
  6  7  1  0  0  0  0
  6 24  1  0  0  0  0
  7  8  2  0  0  0  0
  8 25  1  0  0  0  0
  9 10  1  0  0  0  0
  9 26  1  0  0  0  0
 10 11  2  0  0  0  0
 10 12  1  0  0  0  0
 12 16  1  0  0  0  0
 12 13  1  0  0  0  0
 12 27  1  0  0  0  0
 13 14  1  0  0  0  0
 13 28  1  0  0  0  0
 13 29  1  0  0  0  0
 14 15  1  0  0  0  0
 14 30  1  0  0  0  0
 14 31  1  0  0  0  0
 15 16  1  0  0  0  0
 15 32  1  0  0  0  0
 15 33  1  0  0  0  0
M  END
> <s_m_source_file>
AV-unprocessed.smi

> <i_m_source_file_index>
3132

> <i_lp_mmshare_version>
43012

> <i_f3d_flags>
0

> <s_epik_input>
W2NIXTFuW2NIXVtjSF1uMVtDSDJdW0NAQEhdKFtDSDNdKVtOSF1DKD1PKVtDQEBIXTJbQ0gyXVtDSDJdW0NIMl1PMg==

> <s_epik_cmdline>
J2VwaWtfcHl0aG9uJywgJy1waCcsICc3LjAnLCAnLXRuJywgJzgnLCAnLW1hJywgJzIwMCcsICctbWV0YWxfYmluZGluZycsICctaW1hZScsICc8aW5maWxlLm1hZT4nLCAnLW9tYWUnLCAnPG91dGZpbGUubWFlPic=

> <r_lp_tautomer_probability>
1

> <r_epik_Ionization_Penalty>
0.630322

> <r_epik_Ionization_Penalty_Charging>
0.630322

> <r_epik_Ionization_Penalty_Neutral>
3.82652e-08

> <r_epik_State_Penalty>
0.647117

> <r_epik_Charging_Adjusted_Penalty>
1.27744

> <i_epik_Tot_Q>
0

> <i_epik_Tot_abs_Q>
0

> <r_epik_Metal_State_Penalty>
0.309095

> <b_epik_Metal_Only>
0

> <s_lp_Force_Field>
OPLS_2005

> <r_lp_Energy>
19.5701

> <b_lp_Chiralities_Consistent>
1

> <s_lp_Variant>
AV-unprocessed.smi:3132-5

> <Gold.Version>
5.8.1

> <Gold.Id.Protein>
6NUR|6NUR_protein|mol2

> <Gold.PLP.Fitness>
37.6593

> <Gold.PLP.PLP>
-32.5762

> <Gold.PLP.part.hbond>
-3.2089

> <Gold.PLP.part.metal>
0.0000

> <Gold.PLP.part.buried>
-4.3599

> <Gold.PLP.part.nonpolar>
-25.4581

> <Gold.PLP.part.repulsive>
0.4606

> <Gold.PLP.ligand.clash>
0.0000

> <Gold.PLP.ligand.torsion>
0.6171

> <Gold.PLP.Chemscore.Hbond>
1.0928

> <Gold.PLP.Chemscore.CHOScore>
1.0000

> <Gold.PLP.Chemscore.Metal>
0.0000

> <Gold.Chemscore.Hbonds>
donor molecule, donor type, donor heavy atom, donor atom, acceptor molecule, acceptor atom, score
      L1  H     9    26       P1  8028  0.18
      P1  H  7989  7998       L1    11  1.00
      L1  C     8    25       P1  8029  0.99

> <Gold.PLP.Chemscore.Internal.Correction>
0.0389

> <Gold.Rescore>
     Score         DG    S(hbond)    S(metal)    S(lipo)     H(rot)  DE(clash)    DE(int)     intcor
      9.92     -11.55       0.99        0.00      64.34       1.86       0.19       1.44       ----

> <Gold.Chemscore.Fitness>
9.9243

> <Gold.Chemscore.DG>
-11.5528

> <Gold.Chemscore.ZeroCoef>
-5.4800

> <Gold.Chemscore.Hbond>
0.9927

> <Gold.Chemscore.Metal>
0.0000

> <Gold.Chemscore.Lipo>
64.3419

> <Gold.Chemscore.Internal_Hbond>
0.0000

> <Gold.Chemscore.DEClash>
0.1868

> <Gold.Chemscore.DEInternal>
1.4416

> <Gold.Chemscore.Rot>
1.8636

> <Gold.Chemscore.Internal.Correction>
   9.000000E+99

> <Gold.Chemscore.Hbonds>
donor molecule, donor type, donor heavy atom, donor atom, acceptor molecule, acceptor atom, score
      L1  H     9    26       P1  8028  0.16
      P1  H  7989  7998       L1    11  0.34

> <Gold.Chemscore.Hbond.Weighted>
-3.3156

> <Gold.Chemscore.Metal.Weighted>
-0.0000

> <Gold.Chemscore.Lipo.Weighted>
-7.5280

> <Gold.Chemscore.Internal_Hbond.Weighted>
0.0000

> <Gold.Chemscore.DEClash.Weighted>
0.1868

> <Gold.Chemscore.DEInternal.Weighted>
1.4416

> <Gold.Chemscore.Rot.Weighted>
4.7709

> <Gold.Chemscore.Internal.Correction.Weighted>
   9.000000E+99

> <Gold.Protein.RotatedTorsions>
[ 6907 6896 6895 6894 ] final -167.72 input  -60.11 | X-H torsion
[ 7974 7965 7964 7962 ] final    9.83 input  175.53 | X-H torsion
[ 8008 7997 7996 7995 ] final  -66.53 input   59.86 | X-H torsion
[ 10167 10162 10161 10158 ] final -145.25 input  -65.29 | X-H torsion
[ 10718 10713 10712 10709 ] final -154.86 input   66.30 | X-H torsion
[ 10763 10752 10751 10750 ] final  -84.59 input  -60.55 | X-H torsion
[ 11005 11000 10999 10996 ] final  -90.75 input  -57.11 | X-H torsion

> <Gold.Protein.ActiveResidues>
 VAL166  LYS551  ARG553  GLY616  TRP617  ASP618  TYR619  PRO620  LYS621  CYS622 
 ASP623  PHE694  ASN695  SER759  ASP760  ASP761  ALA762  ILE779  LEU786  VAL792 
 PHE793  MET794  SER795  GLU796  ALA797  LYS798  CYS799  TRP800  GLU811  SER814 

> <Gold.Protein.RotatedAtoms>
  151.4641  133.3585  159.2813 H   0  0  0  0  0  0  0  0  0  0  0  0  # atno 6907 bound_to 6896
  150.9005  134.8419  159.7368 H   0  0  0  0  0  0  0  0  0  0  0  0  # atno 6908 bound_to 6896
  152.4877  134.4561  159.9642 H   0  0  0  0  0  0  0  0  0  0  0  0  # atno 6909 bound_to 6896
  146.2398  139.9725  142.8445 H   0  0  0  0  0  0  0  0  0  0  0  0  # atno 7974 bound_to 7965
  154.4740  140.0911  156.7217 H   0  0  0  0  0  0  0  0  0  0  0  0  # atno 8008 bound_to 7997
  155.4645  140.3462  155.4299 H   0  0  0  0  0  0  0  0  0  0  0  0  # atno 8009 bound_to 7997
  156.1087  140.1442  156.9357 H   0  0  0  0  0  0  0  0  0  0  0  0  # atno 8010 bound_to 7997
  139.7823  143.8084  152.2640 H   0  0  0  0  0  0  0  0  0  0  0  0  # atno 10167 bound_to 10162
  156.5050  130.8409  151.2624 H   0  0  0  0  0  0  0  0  0  0  0  0  # atno 10718 bound_to 10713
  154.6012  135.5515  153.7377 H   0  0  0  0  0  0  0  0  0  0  0  0  # atno 10763 bound_to 10752
  153.0155  135.6367  154.1711 H   0  0  0  0  0  0  0  0  0  0  0  0  # atno 10764 bound_to 10752
  154.1651  135.2895  155.3077 H   0  0  0  0  0  0  0  0  0  0  0  0  # atno 10765 bound_to 10752
  141.1559  133.7711  156.9781 H   0  0  0  0  0  0  0  0  0  0  0  0  # atno 11005 bound_to 11000
  145.1667  140.9700  143.4345 LP  0  0  0  0  0  0  0  0  0  0  0  0  # atno 17320 bound_to 7965
  145.0066  139.3549  143.6141 LP  0  0  0  0  0  0  0  0  0  0  0  0  # atno 17321 bound_to 7965
  139.8150  144.7320  150.9647 LP  0  0  0  0  0  0  0  0  0  0  0  0  # atno 17342 bound_to 10162
  140.7818  143.4214  151.0836 LP  0  0  0  0  0  0  0  0  0  0  0  0  # atno 17343 bound_to 10162
  157.7458  130.9969  150.2796 LP  0  0  0  0  0  0  0  0  0  0  0  0  # atno 17370 bound_to 10713
  156.3296  130.3798  149.7503 LP  0  0  0  0  0  0  0  0  0  0  0  0  # atno 17371 bound_to 10713
  140.1084  134.9492  157.2029 LP  0  0  0  0  0  0  0  0  0  0  0  0  # atno 17394 bound_to 11000
  140.3226  134.2899  155.7243 LP  0  0  0  0  0  0  0  0  0  0  0  0  # atno 17395 bound_to 11000

$$$$
