AV-unprocessed.smi:2671|AV-procd|sdf|10352|dock5
  -GOLD-   2272014373D 1   1.00000     0.00000
 Structure written by MMmdl.
 29 30  0  0  0  0  0  0  0  0  1 V2000
  150.1960  138.4274  153.2059 O   0  0  0  0  0  0  0  0  0  0  0  0
  150.7020  138.8298  154.4060 C   0  0  0  0  0  0  0  0  0  0  0  0
  151.2903  137.8823  155.2699 C   0  0  0  0  0  0  0  0  0  0  0  0
  151.7935  138.3702  156.4983 C   0  0  0  0  0  0  0  0  0  0  0  0
  152.4522  137.4577  157.5216 C   0  0  0  0  0  0  0  0  0  0  0  0
  152.4382  136.1852  157.1236 F   0  0  0  0  0  0  0  0  0  0  0  0
  153.7195  137.8287  157.7057 F   0  0  0  0  0  0  0  0  0  0  0  0
  151.8049  137.5439  158.6839 F   0  0  0  0  0  0  0  0  0  0  0  0
  151.7118  139.6816  156.8222 N   0  0  0  0  0  0  0  0  0  0  0  0
  151.1345  140.4790  155.9231 C   0  0  0  0  0  0  0  0  0  0  0  0
  151.0274  142.1953  156.3552 S   0  0  0  0  0  0  0  0  0  0  0  0
  151.7644  142.1244  158.0110 C   0  0  0  0  0  0  0  0  0  0  0  0
  151.3490  143.3234  158.8741 C   0  0  2  0  0  0  0  0  0  0  0  0
  151.6517  144.6919  158.2539 C   0  0  0  0  0  0  0  0  0  0  0  0
  151.9961  145.5772  159.4444 C   0  0  0  0  0  0  0  0  0  0  0  0
  151.9280  144.6343  160.6452 C   0  0  0  0  0  0  0  0  0  0  0  0
  152.0950  143.3436  160.0809 O   0  0  0  0  0  0  0  0  0  0  0  0
  150.6250  140.1361  154.7388 N   0  0  0  0  0  0  0  0  0  0  0  0
  150.0706  139.1457  152.6050 H   0  0  0  0  0  0  0  0  0  0  0  0
  151.3494  136.8382  154.9995 H   0  0  0  0  0  0  0  0  0  0  0  0
  151.4474  141.1970  158.4887 H   0  0  0  0  0  0  0  0  0  0  0  0
  152.8498  142.0782  157.9180 H   0  0  0  0  0  0  0  0  0  0  0  0
  150.2896  143.2556  159.1285 H   0  0  0  0  0  0  0  0  0  0  0  0
  152.5081  144.6347  157.5810 H   0  0  0  0  0  0  0  0  0  0  0  0
  150.8049  145.0726  157.6818 H   0  0  0  0  0  0  0  0  0  0  0  0
  153.0026  145.9811  159.3300 H   0  0  0  0  0  0  0  0  0  0  0  0
  151.3085  146.4164  159.5528 H   0  0  0  0  0  0  0  0  0  0  0  0
  152.6920  144.8481  161.3931 H   0  0  0  0  0  0  0  0  0  0  0  0
  150.9512  144.6937  161.1278 H   0  0  0  0  0  0  0  0  0  0  0  0
  1  2  1  0  0  0  0
  1 19  1  0  0  0  0
  2 18  1  0  0  0  0
  2  3  2  0  0  0  0
  3  4  1  0  0  0  0
  3 20  1  0  0  0  0
  4  5  1  0  0  0  0
  4  9  2  0  0  0  0
  5  6  1  0  0  0  0
  5  7  1  0  0  0  0
  5  8  1  0  0  0  0
  9 10  1  0  0  0  0
 10 11  1  0  0  0  0
 10 18  2  0  0  0  0
 11 12  1  0  0  0  0
 12 13  1  0  0  0  0
 12 21  1  0  0  0  0
 12 22  1  0  0  0  0
 13 17  1  0  0  0  0
 13 14  1  0  0  0  0
 13 23  1  0  0  0  0
 14 15  1  0  0  0  0
 14 24  1  0  0  0  0
 14 25  1  0  0  0  0
 15 16  1  0  0  0  0
 15 26  1  0  0  0  0
 15 27  1  0  0  0  0
 16 17  1  0  0  0  0
 16 28  1  0  0  0  0
 16 29  1  0  0  0  0
M  END
> <s_m_source_file>
AV-unprocessed.smi

> <i_m_source_file_index>
2671

> <i_lp_mmshare_version>
43012

> <i_f3d_flags>
0

> <s_epik_input>
W09IXWMxW2NIXWMoQyhGKShGKUYpbmMobjEpU1tDSDJdW0NAQEhdMltDSDJdW0NIMl1bQ0gyXU8y

> <s_epik_cmdline>
J2VwaWtfcHl0aG9uJywgJy1waCcsICc3LjAnLCAnLXRuJywgJzgnLCAnLW1hJywgJzIwMCcsICctbWV0YWxfYmluZGluZycsICctaW1hZScsICc8aW5maWxlLm1hZT4nLCAnLW9tYWUnLCAnPG91dGZpbGUubWFlPic=

> <r_lp_tautomer_probability>
0.0660145

> <r_epik_Ionization_Penalty>
3.60098

> <r_epik_Ionization_Penalty_Charging>
0

> <r_epik_Ionization_Penalty_Neutral>
3.60098

> <r_epik_State_Penalty>
2.71709

> <r_epik_Charging_Adjusted_Penalty>
2.71709

> <i_epik_Tot_Q>
0

> <i_epik_Tot_abs_Q>
0

> <r_epik_Metal_State_Penalty>
3.44057

> <b_epik_Metal_Only>
0

> <s_lp_Force_Field>
OPLS_2005

> <r_lp_Energy>
11.8845

> <b_lp_Chiralities_Consistent>
1

> <s_lp_Variant>
AV-unprocessed.smi:2671-7

> <Gold.Version>
5.8.1

> <Gold.Id.Protein>
6NUR|6NUR_protein|mol2

> <Gold.PLP.Fitness>
41.5321

> <Gold.PLP.PLP>
-35.8327

> <Gold.PLP.part.hbond>
-3.6154

> <Gold.PLP.part.metal>
0.0000

> <Gold.PLP.part.buried>
-3.3588

> <Gold.PLP.part.nonpolar>
-26.7560

> <Gold.PLP.part.repulsive>
0.0898

> <Gold.PLP.ligand.clash>
0.0000

> <Gold.PLP.ligand.torsion>
0.1535

> <Gold.PLP.Chemscore.Hbond>
2.0000

> <Gold.PLP.Chemscore.CHOScore>
0.0000

> <Gold.PLP.Chemscore.Metal>
0.0000

> <Gold.Chemscore.Hbonds>
donor molecule, donor type, donor heavy atom, donor atom, acceptor molecule, acceptor atom, score
      L1  H     1    19       P1  7957  1.00
      P1  H  7989  7998       L1    18  1.00

> <Gold.PLP.Chemscore.Internal.Correction>
0.0065

> <Gold.Rescore>
     Score         DG    S(hbond)    S(metal)    S(lipo)     H(rot)  DE(clash)    DE(int)     intcor
     13.02     -13.17       1.16        0.00      82.20       2.27       0.03       0.12       ----

> <Gold.Chemscore.Fitness>
13.0204

> <Gold.Chemscore.DG>
-13.1728

> <Gold.Chemscore.ZeroCoef>
-5.4800

> <Gold.Chemscore.Hbond>
1.1598

> <Gold.Chemscore.Metal>
0.0000

> <Gold.Chemscore.Lipo>
82.2010

> <Gold.Chemscore.Internal_Hbond>
0.0000

> <Gold.Chemscore.DEClash>
0.0343

> <Gold.Chemscore.DEInternal>
0.1180

> <Gold.Chemscore.Rot>
2.2650

> <Gold.Chemscore.Internal.Correction>
   9.000000E+99

> <Gold.Chemscore.Hbonds>
donor molecule, donor type, donor heavy atom, donor atom, acceptor molecule, acceptor atom, score
      L1  H     1    19       P1  7957  0.70
      P1  H  7989  7998       L1    18  0.23

> <Gold.Chemscore.Hbond.Weighted>
-3.8737

> <Gold.Chemscore.Metal.Weighted>
-0.0000

> <Gold.Chemscore.Lipo.Weighted>
-9.6175

> <Gold.Chemscore.Internal_Hbond.Weighted>
0.0000

> <Gold.Chemscore.DEClash.Weighted>
0.0343

> <Gold.Chemscore.DEInternal.Weighted>
0.1180

> <Gold.Chemscore.Rot.Weighted>
5.7984

> <Gold.Chemscore.Internal.Correction.Weighted>
   9.000000E+99

> <Gold.Protein.RotatedTorsions>
[ 6907 6896 6895 6894 ] final  124.89 input  -60.11 | X-H torsion
[ 7974 7965 7964 7962 ] final  162.32 input  175.53 | X-H torsion
[ 8008 7997 7996 7995 ] final  151.60 input   59.86 | X-H torsion
[ 10167 10162 10161 10158 ] final -102.19 input  -65.29 | X-H torsion
[ 10718 10713 10712 10709 ] final  -45.80 input   66.30 | X-H torsion
[ 10763 10752 10751 10750 ] final   49.89 input  -60.55 | X-H torsion
[ 11005 11000 10999 10996 ] final -161.23 input  -57.11 | X-H torsion

> <Gold.Protein.ActiveResidues>
 VAL166  LYS551  ARG553  GLY616  TRP617  ASP618  TYR619  PRO620  LYS621  CYS622 
 ASP623  PHE694  ASN695  SER759  ASP760  ASP761  ALA762  ILE779  LEU786  VAL792 
 PHE793  MET794  SER795  GLU796  ALA797  LYS798  CYS799  TRP800  GLU811  SER814 

> <Gold.Protein.RotatedAtoms>
  152.4040  133.6860  159.6339 H   0  0  0  0  0  0  0  0  0  0  0  0  # atno 6907 bound_to 6896
  150.7927  133.8742  159.3276 H   0  0  0  0  0  0  0  0  0  0  0  0  # atno 6908 bound_to 6896
  151.6501  135.1004  160.0210 H   0  0  0  0  0  0  0  0  0  0  0  0  # atno 6909 bound_to 6896
  144.7642  139.8022  143.6321 H   0  0  0  0  0  0  0  0  0  0  0  0  # atno 7974 bound_to 7965
  156.2667  140.2043  156.6201 H   0  0  0  0  0  0  0  0  0  0  0  0  # atno 8008 bound_to 7997
  154.6764  140.0544  157.0244 H   0  0  0  0  0  0  0  0  0  0  0  0  # atno 8009 bound_to 7997
  155.1063  140.3211  155.4536 H   0  0  0  0  0  0  0  0  0  0  0  0  # atno 8010 bound_to 7997
  140.2333  143.3591  152.0867 H   0  0  0  0  0  0  0  0  0  0  0  0  # atno 10167 bound_to 10162
  156.2247  130.4168  149.8949 H   0  0  0  0  0  0  0  0  0  0  0  0  # atno 10718 bound_to 10713
  152.9785  135.5897  154.4164 H   0  0  0  0  0  0  0  0  0  0  0  0  # atno 10763 bound_to 10752
  154.3793  135.2767  155.2222 H   0  0  0  0  0  0  0  0  0  0  0  0  # atno 10764 bound_to 10752
  154.4143  135.6074  153.6026 H   0  0  0  0  0  0  0  0  0  0  0  0  # atno 10765 bound_to 10752
  140.6227  134.4733  157.5224 H   0  0  0  0  0  0  0  0  0  0  0  0  # atno 11005 bound_to 11000
  146.1735  139.4896  142.9912 LP  0  0  0  0  0  0  0  0  0  0  0  0  # atno 17320 bound_to 7965
  145.6521  141.0260  143.1755 LP  0  0  0  0  0  0  0  0  0  0  0  0  # atno 17321 bound_to 7965
  139.5102  144.6881  151.5834 LP  0  0  0  0  0  0  0  0  0  0  0  0  # atno 17342 bound_to 10162
  140.6169  143.9332  150.6495 LP  0  0  0  0  0  0  0  0  0  0  0  0  # atno 17343 bound_to 10162
  156.6583  130.8772  151.3543 LP  0  0  0  0  0  0  0  0  0  0  0  0  # atno 17370 bound_to 10713
  157.7105  130.9434  150.1072 LP  0  0  0  0  0  0  0  0  0  0  0  0  # atno 17371 bound_to 10713
  139.9147  134.8271  156.1408 LP  0  0  0  0  0  0  0  0  0  0  0  0  # atno 17394 bound_to 11000
  141.0731  133.6788  156.2180 LP  0  0  0  0  0  0  0  0  0  0  0  0  # atno 17395 bound_to 11000

$$$$
