AV-unprocessed.smi:16|AV-procd|sdf|88|dock6
  -GOLD-   2262015223D 1   1.00000     0.00000
 Structure written by MMmdl.
 60 64  0  0  0  0  0  0  0  0  2 V2000
  151.5093  145.0357  159.4022 C   0  0  0  0  0  0  0  0  0  0  0  0
  151.3861  144.3207  158.0484 C   0  0  0  0  0  0  0  0  0  0  0  0
  151.2117  142.8540  158.1979 N   0  3  2  0  0  0  0  0  0  0  0  0
  152.0695  142.2859  159.2697 C   0  0  0  0  0  0  0  0  0  0  0  0
  151.7444  140.8027  159.5070 C   0  0  0  0  0  0  0  0  0  0  0  0
  151.8703  139.9889  158.2012 C   0  0  1  0  0  0  0  0  0  0  0  0
  151.5386  138.6093  158.3721 O   0  0  0  0  0  0  0  0  0  0  0  0
  150.1556  138.3506  158.6073 C   0  0  0  0  0  0  0  0  0  0  0  0
  149.3040  138.9501  157.4783 C   0  0  0  0  0  0  0  0  0  0  0  0
  149.6053  140.3671  157.3170 N   0  0  0  0  0  0  0  0  0  0  0  0
  148.7467  140.9864  156.4788 C   0  0  0  0  0  0  0  0  0  0  0  0
  149.1303  141.3023  155.2145 N   0  0  0  0  0  0  0  0  0  0  0  0
  148.2830  141.9477  154.4064 C   0  0  0  0  0  0  0  0  0  0  0  0
  147.0425  142.3711  154.6635 N   0  0  0  0  0  0  0  0  0  0  0  0
  146.6620  142.0557  155.9352 C   0  0  0  0  0  0  0  0  0  0  0  0
  147.4449  141.3603  156.8966 C   0  0  0  0  0  0  0  0  0  0  0  0
  146.7331  141.2067  158.0785 N   0  0  0  0  0  0  0  0  0  0  0  0
  145.5842  141.7735  157.8263 C   0  0  0  0  0  0  0  0  0  0  0  0
  145.4703  142.3425  156.5770 N   0  0  0  0  0  0  0  0  0  0  0  0
  144.3188  143.0037  156.0380 C   0  0  0  0  0  0  0  0  0  0  0  0
  144.4114  143.8293  154.7527 C   0  0  0  0  0  0  0  0  0  0  0  0
  143.3253  144.7851  155.2970 C   0  0  0  0  0  0  0  0  0  0  0  0
  143.5719  146.2820  155.0483 C   0  0  0  0  0  0  0  0  0  0  0  0
  143.3968  146.6059  153.6841 O   0  0  0  0  0  0  0  0  0  0  0  0
  141.8782  144.4366  154.8937 C   0  0  0  0  0  0  0  0  0  0  0  0
  141.6459  144.6971  153.5243 O   0  0  0  0  0  0  0  0  0  0  0  0
  143.7611  144.2723  156.6872 C   0  0  0  0  0  0  0  0  0  0  0  0
  151.0285  140.6154  157.0669 C   0  0  1  0  0  0  0  0  0  0  0  0
  151.3916  142.1150  156.9202 C   0  0  0  0  0  0  0  0  0  0  0  0
  152.9179  140.0140  157.8987 H   0  0  0  0  0  0  0  0  0  0  0  0
  151.2869  140.1114  156.1342 H   0  0  0  0  0  0  0  0  0  0  0  0
  151.6584  146.1057  159.2576 H   0  0  0  0  0  0  0  0  0  0  0  0
  152.3635  144.6616  159.9660 H   0  0  0  0  0  0  0  0  0  0  0  0
  150.6198  144.9123  160.0196 H   0  0  0  0  0  0  0  0  0  0  0  0
  150.5643  144.7376  157.4645 H   0  0  0  0  0  0  0  0  0  0  0  0
  152.2971  144.5243  157.4840 H   0  0  0  0  0  0  0  0  0  0  0  0
  153.1205  142.4060  159.0017 H   0  0  0  0  0  0  0  0  0  0  0  0
  151.9134  142.8358  160.1985 H   0  0  0  0  0  0  0  0  0  0  0  0
  152.4099  140.3919  160.2666 H   0  0  0  0  0  0  0  0  0  0  0  0
  150.7358  140.7372  159.9141 H   0  0  0  0  0  0  0  0  0  0  0  0
  150.0058  137.2719  158.6522 H   0  0  0  0  0  0  0  0  0  0  0  0
  149.8480  138.7420  159.5766 H   0  0  0  0  0  0  0  0  0  0  0  0
  149.5061  138.4234  156.5443 H   0  0  0  0  0  0  0  0  0  0  0  0
  148.2447  138.8145  157.7013 H   0  0  0  0  0  0  0  0  0  0  0  0
  148.6531  142.1614  153.4144 H   0  0  0  0  0  0  0  0  0  0  0  0
  144.7879  141.8042  158.5560 H   0  0  0  0  0  0  0  0  0  0  0  0
  143.5442  142.2398  155.9514 H   0  0  0  0  0  0  0  0  0  0  0  0
  145.3850  144.3091  154.6370 H   0  0  0  0  0  0  0  0  0  0  0  0
  144.1394  143.2826  153.8493 H   0  0  0  0  0  0  0  0  0  0  0  0
  142.8755  146.8905  155.6261 H   0  0  0  0  0  0  0  0  0  0  0  0
  144.5718  146.5843  155.3602 H   0  0  0  0  0  0  0  0  0  0  0  0
  143.0175  147.4695  153.6266 H   0  0  0  0  0  0  0  0  0  0  0  0
  141.6620  143.3831  155.0713 H   0  0  0  0  0  0  0  0  0  0  0  0
  141.1534  144.9967  155.4847 H   0  0  0  0  0  0  0  0  0  0  0  0
  141.8612  143.9209  153.0302 H   0  0  0  0  0  0  0  0  0  0  0  0
  142.9446  144.1002  157.3891 H   0  0  0  0  0  0  0  0  0  0  0  0
  144.5411  144.8883  157.1392 H   0  0  0  0  0  0  0  0  0  0  0  0
  150.8098  142.5736  156.1219 H   0  0  0  0  0  0  0  0  0  0  0  0
  152.4337  142.2039  156.6087 H   0  0  0  0  0  0  0  0  0  0  0  0
  150.2565  142.7093  158.4939 H   0  0  0  0  0  0  0  0  0  0  0  0
  1  2  1  0  0  0  0
  1 32  1  0  0  0  0
  1 33  1  0  0  0  0
  1 34  1  0  0  0  0
  2  3  1  0  0  0  0
  2 35  1  0  0  0  0
  2 36  1  0  0  0  0
  3 29  1  0  0  0  0
  3  4  1  0  0  0  0
  3 60  1  0  0  0  0
  4  5  1  0  0  0  0
  4 37  1  0  0  0  0
  4 38  1  0  0  0  0
  5  6  1  0  0  0  0
  5 39  1  0  0  0  0
  5 40  1  0  0  0  0
  6 30  1  0  0  0  0
  6 28  1  0  0  0  0
  6  7  1  0  0  0  0
  7  8  1  0  0  0  0
  8  9  1  0  0  0  0
  8 41  1  0  0  0  0
  8 42  1  0  0  0  0
  9 10  1  0  0  0  0
  9 43  1  0  0  0  0
  9 44  1  0  0  0  0
 10 11  1  0  0  0  0
 10 28  1  0  0  0  0
 11 16  1  0  0  0  0
 11 12  2  0  0  0  0
 12 13  1  0  0  0  0
 13 14  2  0  0  0  0
 13 45  1  0  0  0  0
 14 15  1  0  0  0  0
 15 19  1  0  0  0  0
 15 16  2  0  0  0  0
 16 17  1  0  0  0  0
 17 18  2  0  0  0  0
 18 19  1  0  0  0  0
 18 46  1  0  0  0  0
 19 20  1  0  0  0  0
 20 27  1  0  0  0  0
 20 21  1  0  0  0  0
 20 47  1  0  0  0  0
 21 22  1  0  0  0  0
 21 48  1  0  0  0  0
 21 49  1  0  0  0  0
 22 23  1  0  0  0  0
 22 25  1  0  0  0  0
 22 27  1  0  0  0  0
 23 24  1  0  0  0  0
 23 50  1  0  0  0  0
 23 51  1  0  0  0  0
 24 52  1  0  0  0  0
 25 26  1  0  0  0  0
 25 53  1  0  0  0  0
 25 54  1  0  0  0  0
 26 55  1  0  0  0  0
 27 56  1  0  0  0  0
 27 57  1  0  0  0  0
 28 31  1  0  0  0  0
 28 29  1  0  0  0  0
 29 58  1  0  0  0  0
 29 59  1  0  0  0  0
M  CHG  1   3   1
M  END
> <s_m_source_file>
AV-unprocessed.smi

> <i_m_source_file_index>
16

> <i_lp_mmshare_version>
43012

> <i_f3d_flags>
0

> <s_epik_input>
W0NIM11bQ0gyXU4oW0NIMl1bQ0gyXTEpW0NIMl1bQ0BASF0oW0NAQEhdMTIpTihbQ0gyXVtDSDJdTzIpYyhuW2NIXW4zKWMoYzM0KW5bY0hdbjRbQ0hdKFtDSDJdNSlbQ0gyXUM1KFtDSDJdW09IXSlbQ0gyXVtPSF0=

> <s_epik_cmdline>
J2VwaWtfcHl0aG9uJywgJy1waCcsICc3LjAnLCAnLXRuJywgJzgnLCAnLW1hJywgJzIwMCcsICctbWV0YWxfYmluZGluZycsICctaW1hZScsICc8aW5maWxlLm1hZT4nLCAnLW9tYWUnLCAnPG91dGZpbGUubWFlPic=

> <r_lp_tautomer_probability>
1

> <r_epik_Ionization_Penalty>
0.0135603

> <r_epik_Ionization_Penalty_Charging>
0.0131385

> <r_epik_Ionization_Penalty_Neutral>
0.000421734

> <r_epik_State_Penalty>
0.0102091

> <r_epik_Charging_Adjusted_Penalty>
0.0233476

> <i_epik_Tot_Q>
1

> <i_epik_Tot_abs_Q>
1

> <r_epik_Metal_State_Penalty>
0.0103746

> <b_epik_Metal_Only>
0

> <s_lp_Force_Field>
OPLS_2005

> <r_lp_Energy>
60.5416

> <b_lp_Chiralities_Consistent>
1

> <s_lp_Variant>
AV-unprocessed.smi:16-2

> <Gold.Version>
5.8.1

> <Gold.Id.Protein>
6NUR|6NUR_protein|mol2

> <Gold.PLP.Fitness>
46.1352

> <Gold.PLP.PLP>
-44.5506

> <Gold.PLP.part.hbond>
-5.3212

> <Gold.PLP.part.metal>
0.0000

> <Gold.PLP.part.buried>
-8.4902

> <Gold.PLP.part.nonpolar>
-31.6005

> <Gold.PLP.part.repulsive>
0.3355

> <Gold.PLP.ligand.clash>
0.0000

> <Gold.PLP.ligand.torsion>
1.0510

> <Gold.PLP.Chemscore.Hbond>
1.0000

> <Gold.PLP.Chemscore.CHOScore>
0.0000

> <Gold.PLP.Chemscore.Metal>
0.0000

> <Gold.Chemscore.Hbonds>
donor molecule, donor type, donor heavy atom, donor atom, acceptor molecule, acceptor atom, score
      L1  H    26    55       P1 10174  1.00

> <Gold.PLP.Chemscore.Internal.Correction>
0.6867

> <Gold.Rescore>
     Score         DG    S(hbond)    S(metal)    S(lipo)     H(rot)  DE(clash)    DE(int)     intcor
      9.34     -11.18       1.00        0.00      92.89       3.33       0.28       1.55       ----

> <Gold.Chemscore.Fitness>
9.3421

> <Gold.Chemscore.DG>
-11.1752

> <Gold.Chemscore.ZeroCoef>
-5.4800

> <Gold.Chemscore.Hbond>
0.9997

> <Gold.Chemscore.Metal>
0.0000

> <Gold.Chemscore.Lipo>
92.8924

> <Gold.Chemscore.Internal_Hbond>
0.0000

> <Gold.Chemscore.DEClash>
0.2842

> <Gold.Chemscore.DEInternal>
1.5489

> <Gold.Chemscore.Rot>
3.3251

> <Gold.Chemscore.Internal.Correction>
   9.000000E+99

> <Gold.Chemscore.Hbonds>
donor molecule, donor type, donor heavy atom, donor atom, acceptor molecule, acceptor atom, score
      L1  H    26    55       P1 10174  1.00

> <Gold.Chemscore.Hbond.Weighted>
-3.3390

> <Gold.Chemscore.Metal.Weighted>
-0.0000

> <Gold.Chemscore.Lipo.Weighted>
-10.8684

> <Gold.Chemscore.Internal_Hbond.Weighted>
0.0000

> <Gold.Chemscore.DEClash.Weighted>
0.2842

> <Gold.Chemscore.DEInternal.Weighted>
1.5489

> <Gold.Chemscore.Rot.Weighted>
8.5122

> <Gold.Chemscore.Internal.Correction.Weighted>
   9.000000E+99

> <Gold.Protein.RotatedTorsions>
[ 6907 6896 6895 6894 ] final   79.87 input  -60.11 | X-H torsion
[ 7974 7965 7964 7962 ] final   94.27 input  175.53 | X-H torsion
[ 8008 7997 7996 7995 ] final  -68.26 input   59.86 | X-H torsion
[ 10167 10162 10161 10158 ] final -139.60 input  -65.29 | X-H torsion
[ 10718 10713 10712 10709 ] final -105.15 input   66.30 | X-H torsion
[ 10763 10752 10751 10750 ] final  -31.89 input  -60.55 | X-H torsion
[ 11005 11000 10999 10996 ] final -126.68 input  -57.11 | X-H torsion

> <Gold.Protein.ActiveResidues>
 VAL166  LYS551  ARG553  GLY616  TRP617  ASP618  TYR619  PRO620  LYS621  CYS622 
 ASP623  PHE694  ASN695  SER759  ASP760  ASP761  ALA762  ILE779  LEU786  VAL792 
 PHE793  MET794  SER795  GLU796  ALA797  LYS798  CYS799  TRP800  GLU811  SER814 

> <Gold.Protein.RotatedAtoms>
  152.5214  134.3445  159.9228 H   0  0  0  0  0  0  0  0  0  0  0  0  # atno 6907 bound_to 6896
  151.3395  133.3962  159.2677 H   0  0  0  0  0  0  0  0  0  0  0  0  # atno 6908 bound_to 6896
  150.9815  134.9187  159.7904 H   0  0  0  0  0  0  0  0  0  0  0  0  # atno 6909 bound_to 6896
  145.4678  139.2283  143.2952 H   0  0  0  0  0  0  0  0  0  0  0  0  # atno 7974 bound_to 7965
  154.4856  140.0876  156.7478 H   0  0  0  0  0  0  0  0  0  0  0  0  # atno 8008 bound_to 7997
  155.4359  140.3451  155.4266 H   0  0  0  0  0  0  0  0  0  0  0  0  # atno 8009 bound_to 7997
  156.1256  140.1486  156.9129 H   0  0  0  0  0  0  0  0  0  0  0  0  # atno 8010 bound_to 7997
  139.8363  143.7380  152.2664 H   0  0  0  0  0  0  0  0  0  0  0  0  # atno 10167 bound_to 10162
  156.0334  130.5549  150.7498 H   0  0  0  0  0  0  0  0  0  0  0  0  # atno 10718 bound_to 10713
  153.8047  135.6887  153.4850 H   0  0  0  0  0  0  0  0  0  0  0  0  # atno 10763 bound_to 10752
  153.1666  135.4559  154.9844 H   0  0  0  0  0  0  0  0  0  0  0  0  # atno 10764 bound_to 10752
  154.7992  135.3331  154.7533 H   0  0  0  0  0  0  0  0  0  0  0  0  # atno 10765 bound_to 10752
  140.9661  134.0869  157.3918 H   0  0  0  0  0  0  0  0  0  0  0  0  # atno 11005 bound_to 11000
  146.2414  140.5453  142.8932 LP  0  0  0  0  0  0  0  0  0  0  0  0  # atno 17320 bound_to 7965
  144.7963  140.6130  143.6507 LP  0  0  0  0  0  0  0  0  0  0  0  0  # atno 17321 bound_to 7965
  139.7603  144.7508  151.0373 LP  0  0  0  0  0  0  0  0  0  0  0  0  # atno 17342 bound_to 10162
  140.7802  143.4758  151.0084 LP  0  0  0  0  0  0  0  0  0  0  0  0  # atno 17343 bound_to 10162
  157.5045  131.0921  151.0274 LP  0  0  0  0  0  0  0  0  0  0  0  0  # atno 17370 bound_to 10713
  157.0645  130.5839  149.5391 LP  0  0  0  0  0  0  0  0  0  0  0  0  # atno 17371 bound_to 10713
  139.8895  135.0105  156.6683 LP  0  0  0  0  0  0  0  0  0  0  0  0  # atno 17394 bound_to 11000
  140.7397  133.8988  155.8269 LP  0  0  0  0  0  0  0  0  0  0  0  0  # atno 17395 bound_to 11000

$$$$
