AV-unprocessed.smi:2340|AV-procd|sdf|9345|dock1
  -GOLD-   2272012563D 1   1.00000     0.00000
 Structure written by MMmdl.
 40 41  0  0  0  0  0  0  0  0  1 V2000
  147.0598  140.5857  154.1247 C   0  0  0  0  0  0  0  0  0  0  0  0
  148.4752  140.4830  154.5991 C   0  0  0  0  0  0  0  0  0  0  0  0
  149.1247  141.3397  155.4521 C   0  0  0  0  0  0  0  0  0  0  0  0
  150.7682  140.8416  155.7456 S   0  0  0  0  0  0  0  0  0  0  0  0
  150.5096  139.4628  154.6822 C   0  0  0  0  0  0  0  0  0  0  0  0
  151.5683  138.4475  154.3862 C   0  0  1  0  0  0  0  0  0  0  0  0
  152.9791  139.0171  154.6167 C   0  0  0  0  0  0  0  0  0  0  0  0
  151.2952  137.1144  155.1166 C   0  0  0  0  0  0  0  0  0  0  0  0
  150.4269  136.2202  154.3572 N   0  0  0  0  0  0  0  0  0  0  0  0
  150.0413  135.0009  154.7572 C   0  0  0  0  0  0  0  0  0  0  0  0
  150.3900  134.4805  155.8169 O   0  0  0  0  0  0  0  0  0  0  0  0
  149.2215  134.4239  153.8686 N   0  0  0  0  0  0  0  0  0  0  0  0
  148.6012  133.1127  154.0300 C   0  0  2  0  0  0  0  0  0  0  0  0
  149.6381  132.0173  154.1709 C   0  0  0  0  0  0  0  0  0  0  0  0
  148.8647  130.7817  153.7202 C   0  0  0  0  0  0  0  0  0  0  0  0
  147.8833  131.2411  152.7956 O   0  0  0  0  0  0  0  0  0  0  0  0
  147.8575  132.6649  152.7658 C   0  0  1  0  0  0  0  0  0  0  0  0
  146.4115  133.1662  152.6662 C   0  0  0  0  0  0  0  0  0  0  0  0
  149.2765  139.4225  154.1668 N   0  0  0  0  0  0  0  0  0  0  0  0
  146.5808  141.4936  154.4924 H   0  0  0  0  0  0  0  0  0  0  0  0
  146.4675  139.7382  154.4699 H   0  0  0  0  0  0  0  0  0  0  0  0
  147.0089  140.6047  153.0358 H   0  0  0  0  0  0  0  0  0  0  0  0
  148.7377  142.2302  155.9247 H   0  0  0  0  0  0  0  0  0  0  0  0
  151.4943  138.2444  153.3170 H   0  0  0  0  0  0  0  0  0  0  0  0
  153.1283  139.9320  154.0427 H   0  0  0  0  0  0  0  0  0  0  0  0
  153.7528  138.3130  154.3103 H   0  0  0  0  0  0  0  0  0  0  0  0
  153.1424  139.2539  155.6684 H   0  0  0  0  0  0  0  0  0  0  0  0
  152.2342  136.5914  155.3004 H   0  0  0  0  0  0  0  0  0  0  0  0
  150.8530  137.3044  156.0962 H   0  0  0  0  0  0  0  0  0  0  0  0
  150.0873  136.5609  153.4697 H   0  0  0  0  0  0  0  0  0  0  0  0
  148.9946  134.9347  153.0280 H   0  0  0  0  0  0  0  0  0  0  0  0
  147.9364  133.0851  154.8960 H   0  0  0  0  0  0  0  0  0  0  0  0
  150.4756  132.1918  153.4933 H   0  0  0  0  0  0  0  0  0  0  0  0
  150.0326  131.9265  155.1833 H   0  0  0  0  0  0  0  0  0  0  0  0
  149.5125  130.0280  153.2721 H   0  0  0  0  0  0  0  0  0  0  0  0
  148.3519  130.3254  154.5677 H   0  0  0  0  0  0  0  0  0  0  0  0
  148.4152  132.9755  151.8805 H   0  0  0  0  0  0  0  0  0  0  0  0
  146.3746  134.2544  152.6180 H   0  0  0  0  0  0  0  0  0  0  0  0
  145.8225  132.8480  153.5269 H   0  0  0  0  0  0  0  0  0  0  0  0
  145.9276  132.7789  151.7694 H   0  0  0  0  0  0  0  0  0  0  0  0
  1  2  1  0  0  0  0
  1 20  1  0  0  0  0
  1 21  1  0  0  0  0
  1 22  1  0  0  0  0
  2 19  1  0  0  0  0
  2  3  2  0  0  0  0
  3  4  1  0  0  0  0
  3 23  1  0  0  0  0
  4  5  1  0  0  0  0
  5  6  1  0  0  0  0
  5 19  2  0  0  0  0
  6  7  1  0  0  0  0
  6  8  1  0  0  0  0
  6 24  1  0  0  0  0
  7 25  1  0  0  0  0
  7 26  1  0  0  0  0
  7 27  1  0  0  0  0
  8  9  1  0  0  0  0
  8 28  1  0  0  0  0
  8 29  1  0  0  0  0
  9 10  1  0  0  0  0
  9 30  1  0  0  0  0
 10 11  2  0  0  0  0
 10 12  1  0  0  0  0
 12 13  1  0  0  0  0
 12 31  1  0  0  0  0
 13 17  1  0  0  0  0
 13 14  1  0  0  0  0
 13 32  1  0  0  0  0
 14 15  1  0  0  0  0
 14 33  1  0  0  0  0
 14 34  1  0  0  0  0
 15 16  1  0  0  0  0
 15 35  1  0  0  0  0
 15 36  1  0  0  0  0
 16 17  1  0  0  0  0
 17 18  1  0  0  0  0
 17 37  1  0  0  0  0
 18 38  1  0  0  0  0
 18 39  1  0  0  0  0
 18 40  1  0  0  0  0
M  END
> <s_m_source_file>
AV-unprocessed.smi

> <i_m_source_file_index>
2340

> <i_lp_mmshare_version>
43012

> <i_f3d_flags>
0

> <s_epik_input>
W0NIM11jMVtjSF1zYyhuMSlbQ0BIXShbQ0gzXSlbQ0gyXVtOSF1DKD1PKVtOSF1bQ0BASF0yW0NIMl1bQ0gyXU9bQ0BIXTJbQ0gzXQ==

> <s_epik_cmdline>
J2VwaWtfcHl0aG9uJywgJy1waCcsICc3LjAnLCAnLXRuJywgJzgnLCAnLW1hJywgJzIwMCcsICctbWV0YWxfYmluZGluZycsICctaW1hZScsICc8aW5maWxlLm1hZT4nLCAnLW9tYWUnLCAnPG91dGZpbGUubWFlPic=

> <r_epik_Ionization_Penalty>
0.00156622

> <r_epik_Ionization_Penalty_Charging>
0

> <r_epik_Ionization_Penalty_Neutral>
0.00156622

> <r_epik_State_Penalty>
0.00101902

> <r_epik_Charging_Adjusted_Penalty>
0.00101902

> <i_epik_Tot_Q>
0

> <i_epik_Tot_abs_Q>
0

> <r_epik_Metal_State_Penalty>
-0

> <b_epik_Metal_Only>
0

> <s_lp_Force_Field>
OPLS_2005

> <r_lp_Energy>
4.85076

> <b_lp_Chiralities_Consistent>
1

> <s_lp_Variant>
AV-unprocessed.smi:2340-2

> <Gold.Version>
5.8.1

> <Gold.Id.Protein>
6NUR|6NUR_protein|mol2

> <Gold.PLP.Fitness>
42.3616

> <Gold.PLP.PLP>
-35.4704

> <Gold.PLP.part.hbond>
-2.7266

> <Gold.PLP.part.metal>
0.0000

> <Gold.PLP.part.buried>
-2.9986

> <Gold.PLP.part.nonpolar>
-32.1621

> <Gold.PLP.part.repulsive>
2.3180

> <Gold.PLP.ligand.clash>
0.0000

> <Gold.PLP.ligand.torsion>
0.9146

> <Gold.PLP.Chemscore.Hbond>
1.8500

> <Gold.PLP.Chemscore.CHOScore>
1.0000

> <Gold.PLP.Chemscore.Metal>
0.0000

> <Gold.Chemscore.Hbonds>
donor molecule, donor type, donor heavy atom, donor atom, acceptor molecule, acceptor atom, score
      L1  H     9    30       P1  7948  0.67
      L1  H    12    31       P1  7948  0.75
      L1  C     3    23       P1  8028  1.00

> <Gold.PLP.Chemscore.Internal.Correction>
0.1704

> <Gold.Rescore>
     Score         DG    S(hbond)    S(metal)    S(lipo)     H(rot)  DE(clash)    DE(int)     intcor
     14.79     -15.52       1.51        0.00      76.11       1.53       0.05       0.68       ----

> <Gold.Chemscore.Fitness>
14.7897

> <Gold.Chemscore.DG>
-15.5185

> <Gold.Chemscore.ZeroCoef>
-5.4800

> <Gold.Chemscore.Hbond>
1.5140

> <Gold.Chemscore.Metal>
0.0000

> <Gold.Chemscore.Lipo>
76.1101

> <Gold.Chemscore.Internal_Hbond>
0.0000

> <Gold.Chemscore.DEClash>
0.0519

> <Gold.Chemscore.DEInternal>
0.6769

> <Gold.Chemscore.Rot>
1.5325

> <Gold.Chemscore.Internal.Correction>
   9.000000E+99

> <Gold.Chemscore.Hbonds>
donor molecule, donor type, donor heavy atom, donor atom, acceptor molecule, acceptor atom, score
      L1  H     9    30       P1  7948  0.07
      L1  H    12    31       P1  7948  0.09

> <Gold.Chemscore.Hbond.Weighted>
-5.0569

> <Gold.Chemscore.Metal.Weighted>
-0.0000

> <Gold.Chemscore.Lipo.Weighted>
-8.9049

> <Gold.Chemscore.Internal_Hbond.Weighted>
0.0000

> <Gold.Chemscore.DEClash.Weighted>
0.0519

> <Gold.Chemscore.DEInternal.Weighted>
0.6769

> <Gold.Chemscore.Rot.Weighted>
3.9233

> <Gold.Chemscore.Internal.Correction.Weighted>
   9.000000E+99

> <Gold.Protein.RotatedTorsions>
[ 6907 6896 6895 6894 ] final  153.97 input  -60.11 | X-H torsion
[ 7974 7965 7964 7962 ] final  -65.86 input  175.53 | X-H torsion
[ 8008 7997 7996 7995 ] final  103.86 input   59.86 | X-H torsion
[ 10167 10162 10161 10158 ] final   14.55 input  -65.29 | X-H torsion
[ 10718 10713 10712 10709 ] final  -28.05 input   66.30 | X-H torsion
[ 10763 10752 10751 10750 ] final -165.85 input  -60.55 | X-H torsion
[ 11005 11000 10999 10996 ] final -113.96 input  -57.11 | X-H torsion

> <Gold.Protein.ActiveResidues>
 VAL166  LYS551  ARG553  GLY616  TRP617  ASP618  TYR619  PRO620  LYS621  CYS622 
 ASP623  PHE694  ASN695  SER759  ASP760  ASP761  ALA762  ILE779  LEU786  VAL792 
 PHE793  MET794  SER795  GLU796  ALA797  LYS798  CYS799  TRP800  GLU811  SER814 

> <Gold.Protein.RotatedAtoms>
  152.0651  133.4080  159.4434 H   0  0  0  0  0  0  0  0  0  0  0  0  # atno 6907 bound_to 6896
  150.6865  134.3155  159.4774 H   0  0  0  0  0  0  0  0  0  0  0  0  # atno 6908 bound_to 6896
  152.0981  134.9360  160.0621 H   0  0  0  0  0  0  0  0  0  0  0  0  # atno 6909 bound_to 6896
  145.7490  140.8917  143.0490 H   0  0  0  0  0  0  0  0  0  0  0  0  # atno 7974 bound_to 7965
  156.1522  140.3157  155.8667 H   0  0  0  0  0  0  0  0  0  0  0  0  # atno 8008 bound_to 7997
  155.3949  140.0496  157.3056 H   0  0  0  0  0  0  0  0  0  0  0  0  # atno 8009 bound_to 7997
  154.5069  140.2150  155.9245 H   0  0  0  0  0  0  0  0  0  0  0  0  # atno 8010 bound_to 7997
  140.5928  143.8761  150.6889 H   0  0  0  0  0  0  0  0  0  0  0  0  # atno 10167 bound_to 10162
  156.4302  130.4443  149.7122 H   0  0  0  0  0  0  0  0  0  0  0  0  # atno 10718 bound_to 10713
  154.6891  135.2967  154.9505 H   0  0  0  0  0  0  0  0  0  0  0  0  # atno 10763 bound_to 10752
  154.0474  135.6649  153.4800 H   0  0  0  0  0  0  0  0  0  0  0  0  # atno 10764 bound_to 10752
  153.0599  135.5122  154.7974 H   0  0  0  0  0  0  0  0  0  0  0  0  # atno 10765 bound_to 10752
  141.0582  133.9579  157.2716 H   0  0  0  0  0  0  0  0  0  0  0  0  # atno 11005 bound_to 11000
  144.6854  139.9565  143.7479 LP  0  0  0  0  0  0  0  0  0  0  0  0  # atno 17320 bound_to 7965
  146.0375  139.3390  143.0718 LP  0  0  0  0  0  0  0  0  0  0  0  0  # atno 17321 bound_to 7965
  140.2288  143.3751  152.1582 LP  0  0  0  0  0  0  0  0  0  0  0  0  # atno 17342 bound_to 10162
  139.5238  144.7076  151.5305 LP  0  0  0  0  0  0  0  0  0  0  0  0  # atno 17343 bound_to 10162
  156.4028  130.7683  151.2692 LP  0  0  0  0  0  0  0  0  0  0  0  0  # atno 17370 bound_to 10713
  157.7508  131.0234  150.3835 LP  0  0  0  0  0  0  0  0  0  0  0  0  # atno 17371 bound_to 10713
  139.9408  135.0191  156.8703 LP  0  0  0  0  0  0  0  0  0  0  0  0  # atno 17394 bound_to 11000
  140.5922  134.0251  155.7504 LP  0  0  0  0  0  0  0  0  0  0  0  0  # atno 17395 bound_to 11000

$$$$
