AV-unprocessed.smi:2767|AV-procd|sdf|10647|dock4
  -GOLD-   2272015 93D 1   1.00000     0.00000
 Structure written by MMmdl.
 34 36  0  0  0  0  0  0  0  0  1 V2000
  150.8795  140.8780  156.9684 O   0  0  0  0  0  0  0  0  0  0  0  0
  150.4295  141.9745  156.6350 C   0  0  0  0  0  0  0  0  0  0  0  0
  149.7476  142.1793  155.4991 N   0  0  0  0  0  0  0  0  0  0  0  0
  149.4104  141.1429  154.5300 C   0  0  0  0  0  0  0  0  0  0  0  0
  147.9230  140.8629  154.3523 C   0  0  0  0  0  0  0  0  0  0  0  0
  147.5790  139.4185  153.9970 C   0  0  0  0  0  0  0  0  0  0  0  0
  146.9144  139.1018  152.6773 C   0  0  0  0  0  0  0  0  0  0  0  0
  146.1718  138.8578  153.9693 C   0  0  0  0  0  0  0  0  0  0  0  0
  146.9716  141.5724  155.2956 C   0  0  0  0  0  0  0  0  0  0  0  0
  147.0576  142.0126  153.8595 C   0  0  0  0  0  0  0  0  0  0  0  0
  150.5420  143.1106  157.3456 N   0  0  0  0  0  0  0  0  0  0  0  0
  151.1551  143.2964  158.6133 C   0  0  0  0  0  0  0  0  0  0  0  0
  151.0275  144.5959  159.1545 C   0  0  0  0  0  0  0  0  0  0  0  0
  151.5978  144.8833  160.4099 C   0  0  0  0  0  0  0  0  0  0  0  0
  152.2819  143.8610  161.0911 C   0  0  0  0  0  0  0  0  0  0  0  0
  152.8468  144.0900  162.3003 F   0  0  0  0  0  0  0  0  0  0  0  0
  152.3639  142.5944  160.4835 C   0  0  0  0  0  0  0  0  0  0  0  0
  151.8174  142.3178  159.2804 N   0  0  0  0  0  0  0  0  0  0  0  0
  149.4154  143.1118  155.3021 H   0  0  0  0  0  0  0  0  0  0  0  0
  149.8101  141.4591  153.5662 H   0  0  0  0  0  0  0  0  0  0  0  0
  149.9371  140.2210  154.7834 H   0  0  0  0  0  0  0  0  0  0  0  0
  148.3331  138.7020  154.3174 H   0  0  0  0  0  0  0  0  0  0  0  0
  146.5880  139.9380  152.0619 H   0  0  0  0  0  0  0  0  0  0  0  0
  147.2784  138.2349  152.1299 H   0  0  0  0  0  0  0  0  0  0  0  0
  146.0415  137.8231  154.2787 H   0  0  0  0  0  0  0  0  0  0  0  0
  145.3340  139.5110  154.1984 H   0  0  0  0  0  0  0  0  0  0  0  0
  146.0705  141.0449  155.6019 H   0  0  0  0  0  0  0  0  0  0  0  0
  147.3991  142.2327  156.0476 H   0  0  0  0  0  0  0  0  0  0  0  0
  147.5449  142.9653  153.6613 H   0  0  0  0  0  0  0  0  0  0  0  0
  146.2111  141.7977  153.2132 H   0  0  0  0  0  0  0  0  0  0  0  0
  150.1256  143.9355  156.9396 H   0  0  0  0  0  0  0  0  0  0  0  0
  150.4980  145.3688  158.6162 H   0  0  0  0  0  0  0  0  0  0  0  0
  151.5110  145.8696  160.8410 H   0  0  0  0  0  0  0  0  0  0  0  0
  152.8805  141.7828  160.9741 H   0  0  0  0  0  0  0  0  0  0  0  0
  1  2  2  0  0  0  0
  2  3  1  0  0  0  0
  2 11  1  0  0  0  0
  3  4  1  0  0  0  0
  3 19  1  0  0  0  0
  4  5  1  0  0  0  0
  4 20  1  0  0  0  0
  4 21  1  0  0  0  0
  5 10  1  0  0  0  0
  5  6  1  0  0  0  0
  5  9  1  0  0  0  0
  6  8  1  0  0  0  0
  6  7  1  0  0  0  0
  6 22  1  0  0  0  0
  7  8  1  0  0  0  0
  7 23  1  0  0  0  0
  7 24  1  0  0  0  0
  8 25  1  0  0  0  0
  8 26  1  0  0  0  0
  9 10  1  0  0  0  0
  9 27  1  0  0  0  0
  9 28  1  0  0  0  0
 10 29  1  0  0  0  0
 10 30  1  0  0  0  0
 11 12  1  0  0  0  0
 11 31  1  0  0  0  0
 12 18  1  0  0  0  0
 12 13  2  0  0  0  0
 13 14  1  0  0  0  0
 13 32  1  0  0  0  0
 14 15  2  0  0  0  0
 14 33  1  0  0  0  0
 15 16  1  0  0  0  0
 15 17  1  0  0  0  0
 17 18  2  0  0  0  0
 17 34  1  0  0  0  0
M  END
> <s_m_source_file>
AV-unprocessed.smi

> <i_m_source_file_index>
2767

> <i_lp_mmshare_version>
43012

> <i_f3d_flags>
0

> <s_epik_input>
W0NIMl0xW0NIMl1bQ0hdMUMyKFtDSDJdW0NIMl0yKVtDSDJdW05IXUMoPU8pW05IXWMzW2NIXVtjSF1jKEYpW2NIXW4z

> <s_epik_cmdline>
J2VwaWtfcHl0aG9uJywgJy1waCcsICc3LjAnLCAnLXRuJywgJzgnLCAnLW1hJywgJzIwMCcsICctbWV0YWxfYmluZGluZycsICctaW1hZScsICc8aW5maWxlLm1hZT4nLCAnLW9tYWUnLCAnPG91dGZpbGUubWFlPic=

> <r_lp_tautomer_probability>
1

> <r_epik_Ionization_Penalty>
3.94364e-05

> <r_epik_Ionization_Penalty_Charging>
0

> <r_epik_Ionization_Penalty_Neutral>
3.94364e-05

> <r_epik_State_Penalty>
-0

> <r_epik_Charging_Adjusted_Penalty>
0

> <i_epik_Tot_Q>
0

> <i_epik_Tot_abs_Q>
0

> <r_epik_Metal_State_Penalty>
-0

> <b_epik_Metal_Only>
0

> <s_lp_Force_Field>
OPLS_2005

> <r_lp_Energy>
31.6765

> <b_lp_Chiralities_Consistent>
1

> <s_lp_Variant>
AV-unprocessed.smi:2767-1

> <Gold.Version>
5.8.1

> <Gold.Id.Protein>
6NUR|6NUR_protein|mol2

> <Gold.PLP.Fitness>
44.0849

> <Gold.PLP.PLP>
-39.0114

> <Gold.PLP.part.hbond>
-2.0000

> <Gold.PLP.part.metal>
0.0000

> <Gold.PLP.part.buried>
-5.6775

> <Gold.PLP.part.nonpolar>
-31.1355

> <Gold.PLP.part.repulsive>
0.2086

> <Gold.PLP.ligand.clash>
0.0000

> <Gold.PLP.ligand.torsion>
1.7263

> <Gold.PLP.Chemscore.Hbond>
2.0000

> <Gold.PLP.Chemscore.CHOScore>
0.0000

> <Gold.PLP.Chemscore.Metal>
0.0000

> <Gold.Chemscore.Hbonds>
donor molecule, donor type, donor heavy atom, donor atom, acceptor molecule, acceptor atom, score
      L1  H     3    19       P1  8028  1.00
      L1  H    11    31       P1  8028  1.00

> <Gold.PLP.Chemscore.Internal.Correction>
2.5261

> <Gold.Rescore>
     Score         DG    S(hbond)    S(metal)    S(lipo)     H(rot)  DE(clash)    DE(int)     intcor
     14.66     -18.31       1.94        0.00      86.40       1.46       0.66       2.99       ----

> <Gold.Chemscore.Fitness>
14.6627

> <Gold.Chemscore.DG>
-18.3127

> <Gold.Chemscore.ZeroCoef>
-5.4800

> <Gold.Chemscore.Hbond>
1.9351

> <Gold.Chemscore.Metal>
0.0000

> <Gold.Chemscore.Lipo>
86.4007

> <Gold.Chemscore.Internal_Hbond>
0.0000

> <Gold.Chemscore.DEClash>
0.6648

> <Gold.Chemscore.DEInternal>
2.9852

> <Gold.Chemscore.Rot>
1.4608

> <Gold.Chemscore.Internal.Correction>
   9.000000E+99

> <Gold.Chemscore.Hbonds>
donor molecule, donor type, donor heavy atom, donor atom, acceptor molecule, acceptor atom, score
      L1  H     3    19       P1  8028  0.99
      L1  H    11    31       P1  8028  0.92

> <Gold.Chemscore.Hbond.Weighted>
-6.4634

> <Gold.Chemscore.Metal.Weighted>
-0.0000

> <Gold.Chemscore.Lipo.Weighted>
-10.1089

> <Gold.Chemscore.Internal_Hbond.Weighted>
0.0000

> <Gold.Chemscore.DEClash.Weighted>
0.6648

> <Gold.Chemscore.DEInternal.Weighted>
2.9852

> <Gold.Chemscore.Rot.Weighted>
3.7396

> <Gold.Chemscore.Internal.Correction.Weighted>
   9.000000E+99

> <Gold.Protein.RotatedTorsions>
[ 6907 6896 6895 6894 ] final   79.06 input  -60.11 | X-H torsion
[ 7974 7965 7964 7962 ] final   11.08 input  175.53 | X-H torsion
[ 8008 7997 7996 7995 ] final  -44.07 input   59.86 | X-H torsion
[ 10167 10162 10161 10158 ] final   95.09 input  -65.29 | X-H torsion
[ 10718 10713 10712 10709 ] final  -89.60 input   66.30 | X-H torsion
[ 10763 10752 10751 10750 ] final  -82.71 input  -60.55 | X-H torsion
[ 11005 11000 10999 10996 ] final    0.19 input  -57.11 | X-H torsion

> <Gold.Protein.ActiveResidues>
 VAL166  LYS551  ARG553  GLY616  TRP617  ASP618  TYR619  PRO620  LYS621  CYS622 
 ASP623  PHE694  ASN695  SER759  ASP760  ASP761  ALA762  ILE779  LEU786  VAL792 
 PHE793  MET794  SER795  GLU796  ALA797  LYS798  CYS799  TRP800  GLU811  SER814 

> <Gold.Protein.RotatedAtoms>
  152.5184  134.3569  159.9270 H   0  0  0  0  0  0  0  0  0  0  0  0  # atno 6907 bound_to 6896
  151.3520  133.3915  159.2689 H   0  0  0  0  0  0  0  0  0  0  0  0  # atno 6908 bound_to 6896
  150.9719  134.9109  159.7851 H   0  0  0  0  0  0  0  0  0  0  0  0  # atno 6909 bound_to 6896
  146.2377  139.9538  142.8467 H   0  0  0  0  0  0  0  0  0  0  0  0  # atno 7974 bound_to 7965
  154.3997  140.1431  156.3623 H   0  0  0  0  0  0  0  0  0  0  0  0  # atno 8008 bound_to 7997
  155.8170  140.3471  155.5470 H   0  0  0  0  0  0  0  0  0  0  0  0  # atno 8009 bound_to 7997
  155.8328  140.0915  157.1773 H   0  0  0  0  0  0  0  0  0  0  0  0  # atno 8010 bound_to 7997
  139.8021  144.6809  150.9751 H   0  0  0  0  0  0  0  0  0  0  0  0  # atno 10167 bound_to 10162
  155.9985  130.4878  150.5195 H   0  0  0  0  0  0  0  0  0  0  0  0  # atno 10718 bound_to 10713
  154.5790  135.5582  153.7167 H   0  0  0  0  0  0  0  0  0  0  0  0  # atno 10763 bound_to 10752
  153.0074  135.6315  154.2009 H   0  0  0  0  0  0  0  0  0  0  0  0  # atno 10764 bound_to 10752
  154.1950  135.2880  155.2989 H   0  0  0  0  0  0  0  0  0  0  0  0  # atno 10765 bound_to 10752
  140.6293  133.9590  155.8265 H   0  0  0  0  0  0  0  0  0  0  0  0  # atno 11005 bound_to 11000
  145.1836  140.9779  143.4252 LP  0  0  0  0  0  0  0  0  0  0  0  0  # atno 17320 bound_to 7965
  144.9920  139.3680  143.6210 LP  0  0  0  0  0  0  0  0  0  0  0  0  # atno 17321 bound_to 7965
  140.7820  143.4271  151.0752 LP  0  0  0  0  0  0  0  0  0  0  0  0  # atno 17342 bound_to 10162
  139.7942  143.8175  152.3155 LP  0  0  0  0  0  0  0  0  0  0  0  0  # atno 17343 bound_to 10162
  157.3159  131.0672  151.1967 LP  0  0  0  0  0  0  0  0  0  0  0  0  # atno 17370 bound_to 10713
  157.2898  130.6790  149.6108 LP  0  0  0  0  0  0  0  0  0  0  0  0  # atno 17371 bound_to 10713
  141.0687  134.0238  157.3557 LP  0  0  0  0  0  0  0  0  0  0  0  0  # atno 17394 bound_to 11000
  139.9122  135.0192  156.7739 LP  0  0  0  0  0  0  0  0  0  0  0  0  # atno 17395 bound_to 11000

$$$$
