AV-unprocessed.smi:2442|AV-procd|sdf|9625|dock10
  -GOLD-   2272013253D 1   1.00000     0.00000
 Structure written by MMmdl.
 46 47  0  0  0  0  0  0  0  0  1 V2000
  149.1450  141.2967  154.3643 C   0  0  0  0  0  0  0  0  0  0  0  0
  149.8106  140.0550  154.1975 O   0  0  0  0  0  0  0  0  0  0  0  0
  150.0519  139.3496  155.4118 C   0  0  2  0  0  0  0  0  0  0  0  0
  151.2395  139.9720  156.1768 C   0  0  0  0  0  0  0  0  0  0  0  0
  152.5588  139.8212  155.4017 C   0  0  0  0  0  0  0  0  0  0  0  0
  152.8404  138.3491  155.0645 C   0  0  0  0  0  0  0  0  0  0  0  0
  151.6675  137.7177  154.2981 C   0  0  0  0  0  0  0  0  0  0  0  0
  150.3416  137.8683  155.0700 C   0  0  2  0  0  0  0  0  0  0  0  0
  149.2480  137.2816  154.2994 N   0  0  0  0  0  0  0  0  0  0  0  0
  147.9605  137.2658  154.6711 C   0  0  0  0  0  0  0  0  0  0  0  0
  147.5414  137.7252  155.7337 O   0  0  0  0  0  0  0  0  0  0  0  0
  147.1817  136.7012  153.7399 N   0  0  0  0  0  0  0  0  0  0  0  0
  145.7342  136.5820  153.8434 C   0  0  0  0  0  0  0  0  0  0  0  0
  145.3246  135.1113  154.0032 C   0  0  0  0  0  0  0  0  0  0  0  0
  145.2442  134.3882  152.6678 C   0  0  0  0  0  0  0  0  0  0  0  0
  144.0942  134.5417  151.8652 C   0  0  0  0  0  0  0  0  0  0  0  0
  144.0349  133.8696  150.6290 C   0  0  0  0  0  0  0  0  0  0  0  0
  145.0266  133.0801  150.1671 N   0  0  0  0  0  0  0  0  0  0  0  0
  146.1266  132.9361  150.9357 C   0  0  0  0  0  0  0  0  0  0  0  0
  146.2926  133.5634  152.1896 C   0  0  0  0  0  0  0  0  0  0  0  0
  147.5702  133.3413  152.9795 C   0  0  0  0  0  0  0  0  0  0  0  0
  148.9893  141.7576  153.3890 H   0  0  0  0  0  0  0  0  0  0  0  0
  149.7248  141.9920  154.9706 H   0  0  0  0  0  0  0  0  0  0  0  0
  148.1669  141.1592  154.8271 H   0  0  0  0  0  0  0  0  0  0  0  0
  149.1612  139.3928  156.0415 H   0  0  0  0  0  0  0  0  0  0  0  0
  151.0545  141.0227  156.3966 H   0  0  0  0  0  0  0  0  0  0  0  0
  151.3370  139.4785  157.1446 H   0  0  0  0  0  0  0  0  0  0  0  0
  152.5126  140.4059  154.4821 H   0  0  0  0  0  0  0  0  0  0  0  0
  153.3822  140.2323  155.9863 H   0  0  0  0  0  0  0  0  0  0  0  0
  153.7544  138.2715  154.4751 H   0  0  0  0  0  0  0  0  0  0  0  0
  153.0181  137.7910  155.9847 H   0  0  0  0  0  0  0  0  0  0  0  0
  151.5827  138.1873  153.3169 H   0  0  0  0  0  0  0  0  0  0  0  0
  151.8762  136.6626  154.1170 H   0  0  0  0  0  0  0  0  0  0  0  0
  150.4378  137.3111  156.0042 H   0  0  0  0  0  0  0  0  0  0  0  0
  149.4894  136.8827  153.4043 H   0  0  0  0  0  0  0  0  0  0  0  0
  147.6149  136.3499  152.8985 H   0  0  0  0  0  0  0  0  0  0  0  0
  145.3830  137.1658  154.6957 H   0  0  0  0  0  0  0  0  0  0  0  0
  145.2719  137.0059  152.9507 H   0  0  0  0  0  0  0  0  0  0  0  0
  146.0180  134.5940  154.6665 H   0  0  0  0  0  0  0  0  0  0  0  0
  144.3506  135.0530  154.4913 H   0  0  0  0  0  0  0  0  0  0  0  0
  143.2720  135.1636  152.1868 H   0  0  0  0  0  0  0  0  0  0  0  0
  143.1672  133.9691  149.9936 H   0  0  0  0  0  0  0  0  0  0  0  0
  146.8999  132.2980  150.5333 H   0  0  0  0  0  0  0  0  0  0  0  0
  148.2984  132.7728  152.4005 H   0  0  0  0  0  0  0  0  0  0  0  0
  147.3612  132.7858  153.8938 H   0  0  0  0  0  0  0  0  0  0  0  0
  148.0289  134.2927  153.2483 H   0  0  0  0  0  0  0  0  0  0  0  0
  1  2  1  0  0  0  0
  1 22  1  0  0  0  0
  1 23  1  0  0  0  0
  1 24  1  0  0  0  0
  2  3  1  0  0  0  0
  3  8  1  0  0  0  0
  3  4  1  0  0  0  0
  3 25  1  0  0  0  0
  4  5  1  0  0  0  0
  4 26  1  0  0  0  0
  4 27  1  0  0  0  0
  5  6  1  0  0  0  0
  5 28  1  0  0  0  0
  5 29  1  0  0  0  0
  6  7  1  0  0  0  0
  6 30  1  0  0  0  0
  6 31  1  0  0  0  0
  7  8  1  0  0  0  0
  7 32  1  0  0  0  0
  7 33  1  0  0  0  0
  8  9  1  0  0  0  0
  8 34  1  0  0  0  0
  9 10  1  0  0  0  0
  9 35  1  0  0  0  0
 10 11  2  0  0  0  0
 10 12  1  0  0  0  0
 12 13  1  0  0  0  0
 12 36  1  0  0  0  0
 13 14  1  0  0  0  0
 13 37  1  0  0  0  0
 13 38  1  0  0  0  0
 14 15  1  0  0  0  0
 14 39  1  0  0  0  0
 14 40  1  0  0  0  0
 15 20  1  0  0  0  0
 15 16  2  0  0  0  0
 16 17  1  0  0  0  0
 16 41  1  0  0  0  0
 17 18  2  0  0  0  0
 17 42  1  0  0  0  0
 18 19  1  0  0  0  0
 19 20  2  0  0  0  0
 19 43  1  0  0  0  0
 20 21  1  0  0  0  0
 21 44  1  0  0  0  0
 21 45  1  0  0  0  0
 21 46  1  0  0  0  0
M  END
> <s_m_source_file>
AV-unprocessed.smi

> <i_m_source_file_index>
2442

> <i_lp_mmshare_version>
43012

> <i_f3d_flags>
0

> <s_epik_input>
W0NIM11PW0NAQEhdMVtDSDJdW0NIMl1bQ0gyXVtDSDJdW0NASF0xW05IXUMoPU8pW05IXVtDSDJdW0NIMl1jMltjSF1bY0hdbltjSF1jMltDSDNd

> <s_epik_cmdline>
J2VwaWtfcHl0aG9uJywgJy1waCcsICc3LjAnLCAnLXRuJywgJzgnLCAnLW1hJywgJzIwMCcsICctbWV0YWxfYmluZGluZycsICctaW1hZScsICc8aW5maWxlLm1hZT4nLCAnLW9tYWUnLCAnPG91dGZpbGUubWFlPic=

> <r_epik_Ionization_Penalty>
0.106136

> <r_epik_Ionization_Penalty_Charging>
0

> <r_epik_Ionization_Penalty_Neutral>
0.106136

> <r_epik_State_Penalty>
0.0959393

> <r_epik_Charging_Adjusted_Penalty>
0.0959393

> <i_epik_Tot_Q>
0

> <i_epik_Tot_abs_Q>
0

> <r_epik_Metal_State_Penalty>
0.0812517

> <b_epik_Metal_Only>
0

> <s_lp_Force_Field>
OPLS_2005

> <r_lp_Energy>
9.91993

> <b_lp_Chiralities_Consistent>
1

> <s_lp_Variant>
AV-unprocessed.smi:2442-3

> <Gold.Version>
5.8.1

> <Gold.Id.Protein>
6NUR|6NUR_protein|mol2

> <Gold.PLP.Fitness>
42.9747

> <Gold.PLP.PLP>
-30.4730

> <Gold.PLP.part.hbond>
-2.9542

> <Gold.PLP.part.metal>
0.0000

> <Gold.PLP.part.buried>
-1.4658

> <Gold.PLP.part.nonpolar>
-26.9330

> <Gold.PLP.part.repulsive>
0.7401

> <Gold.PLP.ligand.clash>
0.0000

> <Gold.PLP.ligand.torsion>
0.6079

> <Gold.PLP.Chemscore.Hbond>
2.5591

> <Gold.PLP.Chemscore.CHOScore>
2.0000

> <Gold.PLP.Chemscore.Metal>
0.0000

> <Gold.Chemscore.Hbonds>
donor molecule, donor type, donor heavy atom, donor atom, acceptor molecule, acceptor atom, score
      L1  H     9    35       P1  7948  1.00
      L1  H    12    36       P1  7948  1.00
      P1  H  7989  7998       L1     2  0.59
      L1  C    17    42       P1 10186  1.00
      L1  C    19    43       P1 10747  0.99

> <Gold.PLP.Chemscore.Internal.Correction>
0.0401

> <Gold.Rescore>
     Score         DG    S(hbond)    S(metal)    S(lipo)     H(rot)  DE(clash)    DE(int)     intcor
     15.71     -17.40       1.90        0.00      83.49       1.64       0.33       1.36       ----

> <Gold.Chemscore.Fitness>
15.7069

> <Gold.Chemscore.DG>
-17.4004

> <Gold.Chemscore.ZeroCoef>
-5.4800

> <Gold.Chemscore.Hbond>
1.9000

> <Gold.Chemscore.Metal>
0.0000

> <Gold.Chemscore.Lipo>
83.4851

> <Gold.Chemscore.Internal_Hbond>
0.0000

> <Gold.Chemscore.DEClash>
0.3350

> <Gold.Chemscore.DEInternal>
1.3586

> <Gold.Chemscore.Rot>
1.6380

> <Gold.Chemscore.Internal.Correction>
   9.000000E+99

> <Gold.Chemscore.Hbonds>
donor molecule, donor type, donor heavy atom, donor atom, acceptor molecule, acceptor atom, score
      L1  H     9    35       P1  7948  0.78
      L1  H    12    36       P1  7948  0.95
      P1  H  7989  7998       L1     2  0.06

> <Gold.Chemscore.Hbond.Weighted>
-6.3461

> <Gold.Chemscore.Metal.Weighted>
-0.0000

> <Gold.Chemscore.Lipo.Weighted>
-9.7678

> <Gold.Chemscore.Internal_Hbond.Weighted>
0.0000

> <Gold.Chemscore.DEClash.Weighted>
0.3350

> <Gold.Chemscore.DEInternal.Weighted>
1.3586

> <Gold.Chemscore.Rot.Weighted>
4.1934

> <Gold.Chemscore.Internal.Correction.Weighted>
   9.000000E+99

> <Gold.Protein.RotatedTorsions>
[ 6907 6896 6895 6894 ] final  165.12 input  -60.11 | X-H torsion
[ 7974 7965 7964 7962 ] final -114.63 input  175.53 | X-H torsion
[ 8008 7997 7996 7995 ] final  168.21 input   59.86 | X-H torsion
[ 10167 10162 10161 10158 ] final -122.18 input  -65.29 | X-H torsion
[ 10718 10713 10712 10709 ] final  134.67 input   66.30 | X-H torsion
[ 10763 10752 10751 10750 ] final   98.94 input  -60.55 | X-H torsion
[ 11005 11000 10999 10996 ] final -118.76 input  -57.11 | X-H torsion

> <Gold.Protein.ActiveResidues>
 VAL166  LYS551  ARG553  GLY616  TRP617  ASP618  TYR619  PRO620  LYS621  CYS622 
 ASP623  PHE694  ASN695  SER759  ASP760  ASP761  ALA762  ILE779  LEU786  VAL792 
 PHE793  MET794  SER795  GLU796  ALA797  LYS798  CYS799  TRP800  GLU811  SER814 

> <Gold.Protein.RotatedAtoms>
  151.8994  133.3534  159.3825 H   0  0  0  0  0  0  0  0  0  0  0  0  # atno 6907 bound_to 6896
  150.7084  134.4843  159.5495 H   0  0  0  0  0  0  0  0  0  0  0  0  # atno 6908 bound_to 6896
  152.2429  134.8211  160.0508 H   0  0  0  0  0  0  0  0  0  0  0  0  # atno 6909 bound_to 6896
  145.1179  140.8651  143.3831 H   0  0  0  0  0  0  0  0  0  0  0  0  # atno 7974 bound_to 7965
  156.1567  140.1596  156.8681 H   0  0  0  0  0  0  0  0  0  0  0  0  # atno 8008 bound_to 7997
  154.5121  140.0798  156.8047 H   0  0  0  0  0  0  0  0  0  0  0  0  # atno 8009 bound_to 7997
  155.3789  140.3404  155.4248 H   0  0  0  0  0  0  0  0  0  0  0  0  # atno 8010 bound_to 7997
  140.0171  143.5382  152.2237 H   0  0  0  0  0  0  0  0  0  0  0  0  # atno 10167 bound_to 10162
  157.4649  131.1076  150.9875 H   0  0  0  0  0  0  0  0  0  0  0  0  # atno 10718 bound_to 10713
  153.2952  135.4131  155.1203 H   0  0  0  0  0  0  0  0  0  0  0  0  # atno 10763 bound_to 10752
  154.8533  135.3528  154.5927 H   0  0  0  0  0  0  0  0  0  0  0  0  # atno 10764 bound_to 10752
  153.6350  135.7059  153.5320 H   0  0  0  0  0  0  0  0  0  0  0  0  # atno 10765 bound_to 10752
  141.0263  134.0049  157.3210 H   0  0  0  0  0  0  0  0  0  0  0  0  # atno 11005 bound_to 11000
  145.0773  139.2986  143.5801 LP  0  0  0  0  0  0  0  0  0  0  0  0  # atno 17320 bound_to 7965
  146.3523  140.0268  142.8654 LP  0  0  0  0  0  0  0  0  0  0  0  0  # atno 17321 bound_to 7965
  139.6165  144.7620  151.2834 LP  0  0  0  0  0  0  0  0  0  0  0  0  # atno 17342 bound_to 10162
  140.7358  143.6727  150.8068 LP  0  0  0  0  0  0  0  0  0  0  0  0  # atno 17343 bound_to 10162
  157.0660  130.5844  149.5394 LP  0  0  0  0  0  0  0  0  0  0  0  0  # atno 17370 bound_to 10713
  156.0045  130.5130  150.7783 LP  0  0  0  0  0  0  0  0  0  0  0  0  # atno 17371 bound_to 10713
  139.9178  135.0198  156.7949 LP  0  0  0  0  0  0  0  0  0  0  0  0  # atno 17394 bound_to 11000
  140.6486  133.9752  155.7743 LP  0  0  0  0  0  0  0  0  0  0  0  0  # atno 17395 bound_to 11000

$$$$
