AV-unprocessed.smi:1232|AV-procd|sdf|5170|dock4
  -GOLD-   22720 4243D 1   1.00000     0.00000
 Structure written by MMmdl.
 53 54  0  0  0  0  0  0  0  0  1 V2000
  148.4417  132.6962  153.2446 C   0  0  0  0  0  0  0  0  0  0  0  0
  148.1079  133.5988  154.4272 C   0  0  0  0  0  0  0  0  0  0  0  0
  147.5733  133.1232  155.4273 O   0  0  0  0  0  0  0  0  0  0  0  0
  148.4277  134.8976  154.2842 N   0  0  0  0  0  0  0  0  0  0  0  0
  148.2667  135.9973  155.2463 C   0  0  1  0  0  0  0  0  0  0  0  0
  149.5188  136.8928  155.2807 C   0  0  0  0  0  0  0  0  0  0  0  0
  150.1499  137.0441  156.3271 O   0  0  0  0  0  0  0  0  0  0  0  0
  149.8810  137.4652  154.1214 N   0  0  0  0  0  0  0  0  0  0  0  0
  151.0410  138.3328  153.9443 C   0  0  0  0  0  0  0  0  0  0  0  0
  151.3000  139.2848  155.1038 C   0  0  0  0  0  0  0  0  0  0  0  0
  150.5227  140.4434  155.3122 C   0  0  0  0  0  0  0  0  0  0  0  0
  150.8232  141.2818  156.4024 C   0  0  0  0  0  0  0  0  0  0  0  0
  151.8965  140.9430  157.2606 C   0  0  0  0  0  0  0  0  0  0  0  0
  152.2143  141.7660  158.3637 N   0  0  0  0  0  0  0  0  0  0  0  0
  152.2619  141.1492  159.6881 C   0  0  0  0  0  0  0  0  0  0  0  0
  152.8993  142.1104  160.7047 C   0  0  0  0  0  0  0  0  0  0  0  0
  152.1987  143.3496  160.6970 O   0  0  0  0  0  0  0  0  0  0  0  0
  152.2604  143.9926  159.4270 C   0  0  2  0  0  0  0  0  0  0  0  0
  151.5632  145.3524  159.5424 C   0  0  0  0  0  0  0  0  0  0  0  0
  151.5980  143.0909  158.3667 C   0  0  0  0  0  0  0  0  0  0  0  0
  152.6500  139.8360  157.0472 N   0  0  0  0  0  0  0  0  0  0  0  0
  152.3572  139.0351  156.0010 C   0  0  0  0  0  0  0  0  0  0  0  0
  146.9041  136.7518  155.1400 C   0  0  0  0  0  0  0  0  0  0  0  0
  146.7808  137.9090  156.1510 C   0  0  0  0  0  0  0  0  0  0  0  0
  145.7004  135.8040  155.3079 C   0  0  0  0  0  0  0  0  0  0  0  0
  148.1234  133.1539  152.3074 H   0  0  0  0  0  0  0  0  0  0  0  0
  147.9399  131.7327  153.3397 H   0  0  0  0  0  0  0  0  0  0  0  0
  149.5166  132.5196  153.1967 H   0  0  0  0  0  0  0  0  0  0  0  0
  148.8492  135.1573  153.4045 H   0  0  0  0  0  0  0  0  0  0  0  0
  148.2454  135.4848  156.2097 H   0  0  0  0  0  0  0  0  0  0  0  0
  149.3164  137.2829  153.3042 H   0  0  0  0  0  0  0  0  0  0  0  0
  151.9277  137.7236  153.7602 H   0  0  0  0  0  0  0  0  0  0  0  0
  150.8848  138.9276  153.0441 H   0  0  0  0  0  0  0  0  0  0  0  0
  149.7095  140.6957  154.6482 H   0  0  0  0  0  0  0  0  0  0  0  0
  150.2392  142.1766  156.5566 H   0  0  0  0  0  0  0  0  0  0  0  0
  151.2496  140.8909  160.0028 H   0  0  0  0  0  0  0  0  0  0  0  0
  152.8402  140.2249  159.6552 H   0  0  0  0  0  0  0  0  0  0  0  0
  152.8521  141.6821  161.7058 H   0  0  0  0  0  0  0  0  0  0  0  0
  153.9541  142.2740  160.4778 H   0  0  0  0  0  0  0  0  0  0  0  0
  153.3059  144.1613  159.1625 H   0  0  0  0  0  0  0  0  0  0  0  0
  151.5935  145.8906  158.5948 H   0  0  0  0  0  0  0  0  0  0  0  0
  152.0476  145.9758  160.2942 H   0  0  0  0  0  0  0  0  0  0  0  0
  150.5176  145.2366  159.8287 H   0  0  0  0  0  0  0  0  0  0  0  0
  151.6773  143.5738  157.3939 H   0  0  0  0  0  0  0  0  0  0  0  0
  150.5335  142.9806  158.5787 H   0  0  0  0  0  0  0  0  0  0  0  0
  152.9878  138.1668  155.8792 H   0  0  0  0  0  0  0  0  0  0  0  0
  146.8277  137.2062  154.1526 H   0  0  0  0  0  0  0  0  0  0  0  0
  146.8973  137.5545  157.1754 H   0  0  0  0  0  0  0  0  0  0  0  0
  145.8057  138.3910  156.0772 H   0  0  0  0  0  0  0  0  0  0  0  0
  147.5279  138.6836  155.9767 H   0  0  0  0  0  0  0  0  0  0  0  0
  145.7176  135.3123  156.2809 H   0  0  0  0  0  0  0  0  0  0  0  0
  145.6804  135.0277  154.5437 H   0  0  0  0  0  0  0  0  0  0  0  0
  144.7592  136.3485  155.2301 H   0  0  0  0  0  0  0  0  0  0  0  0
  1  2  1  0  0  0  0
  1 26  1  0  0  0  0
  1 27  1  0  0  0  0
  1 28  1  0  0  0  0
  2  3  2  0  0  0  0
  2  4  1  0  0  0  0
  4  5  1  0  0  0  0
  4 29  1  0  0  0  0
  5  6  1  0  0  0  0
  5 23  1  0  0  0  0
  5 30  1  0  0  0  0
  6  7  2  0  0  0  0
  6  8  1  0  0  0  0
  8  9  1  0  0  0  0
  8 31  1  0  0  0  0
  9 10  1  0  0  0  0
  9 32  1  0  0  0  0
  9 33  1  0  0  0  0
 10 22  1  0  0  0  0
 10 11  2  0  0  0  0
 11 12  1  0  0  0  0
 11 34  1  0  0  0  0
 12 13  2  0  0  0  0
 12 35  1  0  0  0  0
 13 14  1  0  0  0  0
 13 21  1  0  0  0  0
 14 20  1  0  0  0  0
 14 15  1  0  0  0  0
 15 16  1  0  0  0  0
 15 36  1  0  0  0  0
 15 37  1  0  0  0  0
 16 17  1  0  0  0  0
 16 38  1  0  0  0  0
 16 39  1  0  0  0  0
 17 18  1  0  0  0  0
 18 19  1  0  0  0  0
 18 20  1  0  0  0  0
 18 40  1  0  0  0  0
 19 41  1  0  0  0  0
 19 42  1  0  0  0  0
 19 43  1  0  0  0  0
 20 44  1  0  0  0  0
 20 45  1  0  0  0  0
 21 22  2  0  0  0  0
 22 46  1  0  0  0  0
 23 24  1  0  0  0  0
 23 25  1  0  0  0  0
 23 47  1  0  0  0  0
 24 48  1  0  0  0  0
 24 49  1  0  0  0  0
 24 50  1  0  0  0  0
 25 51  1  0  0  0  0
 25 52  1  0  0  0  0
 25 53  1  0  0  0  0
M  END
> <s_m_source_file>
AV-unprocessed.smi

> <i_m_source_file_index>
1232

> <i_lp_mmshare_version>
43012

> <i_f3d_flags>
0

> <s_epik_input>
W0NIM11DKD1PKVtOSF1bQ0BASF0oW0NIXShbQ0gzXSlbQ0gzXSlDKD1PKVtOSF1bQ0gyXWMxW2NIXVtjSF1jKG5bY0hdMSlOMltDSDJdW0NIMl1PW0NAQEhdKFtDSDNdKVtDSDJdMg==

> <s_epik_cmdline>
J2VwaWtfcHl0aG9uJywgJy1waCcsICc3LjAnLCAnLXRuJywgJzgnLCAnLW1hJywgJzIwMCcsICctbWV0YWxfYmluZGluZycsICctaW1hZScsICc8aW5maWxlLm1hZT4nLCAnLW9tYWUnLCAnPG91dGZpbGUubWFlPic=

> <r_lp_tautomer_probability>
1

> <r_epik_Ionization_Penalty>
0.00557618

> <r_epik_Ionization_Penalty_Charging>
0

> <r_epik_Ionization_Penalty_Neutral>
0.00557618

> <r_epik_State_Penalty>
0.00408363

> <r_epik_Charging_Adjusted_Penalty>
0.00408363

> <i_epik_Tot_Q>
0

> <i_epik_Tot_abs_Q>
0

> <r_epik_Metal_State_Penalty>
-0

> <b_epik_Metal_Only>
0

> <s_lp_Force_Field>
OPLS_2005

> <r_lp_Energy>
20.9167

> <b_lp_Chiralities_Consistent>
1

> <s_lp_Variant>
AV-unprocessed.smi:1232-4

> <Gold.Version>
5.8.1

> <Gold.Id.Protein>
6NUR|6NUR_protein|mol2

> <Gold.PLP.Fitness>
50.1102

> <Gold.PLP.PLP>
-42.4226

> <Gold.PLP.part.hbond>
-3.3197

> <Gold.PLP.part.metal>
0.0000

> <Gold.PLP.part.buried>
-4.0486

> <Gold.PLP.part.nonpolar>
-33.6514

> <Gold.PLP.part.repulsive>
0.1153

> <Gold.PLP.ligand.clash>
0.0000

> <Gold.PLP.ligand.torsion>
1.0444

> <Gold.PLP.Chemscore.Hbond>
2.9920

> <Gold.PLP.Chemscore.CHOScore>
0.0000

> <Gold.PLP.Chemscore.Metal>
0.0000

> <Gold.Chemscore.Hbonds>
donor molecule, donor type, donor heavy atom, donor atom, acceptor molecule, acceptor atom, score
      L1  H     4    29       P1  7948  1.00
      L1  H     8    31       P1  7948  0.96
      P1  H  7997  8009       L1    21  1.00

> <Gold.PLP.Chemscore.Internal.Correction>
0.8004

> <Gold.Rescore>
     Score         DG    S(hbond)    S(metal)    S(lipo)     H(rot)  DE(clash)    DE(int)     intcor
     17.52     -19.94       2.44        0.00     100.59       2.13       0.14       2.28       ----

> <Gold.Chemscore.Fitness>
17.5213

> <Gold.Chemscore.DG>
-19.9367

> <Gold.Chemscore.ZeroCoef>
-5.4800

> <Gold.Chemscore.Hbond>
2.4385

> <Gold.Chemscore.Metal>
0.0000

> <Gold.Chemscore.Lipo>
100.5925

> <Gold.Chemscore.Internal_Hbond>
0.0000

> <Gold.Chemscore.DEClash>
0.1403

> <Gold.Chemscore.DEInternal>
2.2751

> <Gold.Chemscore.Rot>
2.1317

> <Gold.Chemscore.Internal.Correction>
   9.000000E+99

> <Gold.Chemscore.Hbonds>
donor molecule, donor type, donor heavy atom, donor atom, acceptor molecule, acceptor atom, score
      L1  H     4    29       P1  7948  0.59
      L1  H     8    31       P1  7948  0.89
      P1  H  7997  8009       L1    21  0.28

> <Gold.Chemscore.Hbond.Weighted>
-8.1445

> <Gold.Chemscore.Metal.Weighted>
-0.0000

> <Gold.Chemscore.Lipo.Weighted>
-11.7693

> <Gold.Chemscore.Internal_Hbond.Weighted>
0.0000

> <Gold.Chemscore.DEClash.Weighted>
0.1403

> <Gold.Chemscore.DEInternal.Weighted>
2.2751

> <Gold.Chemscore.Rot.Weighted>
5.4572

> <Gold.Chemscore.Internal.Correction.Weighted>
   9.000000E+99

> <Gold.Protein.RotatedTorsions>
[ 6907 6896 6895 6894 ] final -114.23 input  -60.11 | X-H torsion
[ 7974 7965 7964 7962 ] final  -85.81 input  175.53 | X-H torsion
[ 8008 7997 7996 7995 ] final  168.72 input   59.86 | X-H torsion
[ 10167 10162 10161 10158 ] final  147.14 input  -65.29 | X-H torsion
[ 10718 10713 10712 10709 ] final  -38.43 input   66.30 | X-H torsion
[ 10763 10752 10751 10750 ] final   67.67 input  -60.55 | X-H torsion
[ 11005 11000 10999 10996 ] final   17.53 input  -57.11 | X-H torsion

> <Gold.Protein.ActiveResidues>
 VAL166  LYS551  ARG553  GLY616  TRP617  ASP618  TYR619  PRO620  LYS621  CYS622 
 ASP623  PHE694  ASN695  SER759  ASP760  ASP761  ALA762  ILE779  LEU786  VAL792 
 PHE793  MET794  SER795  GLU796  ALA797  LYS798  CYS799  TRP800  GLU811  SER814 

> <Gold.Protein.RotatedAtoms>
  150.7887  133.8831  159.3291 H   0  0  0  0  0  0  0  0  0  0  0  0  # atno 6907 bound_to 6896
  151.6674  135.0979  160.0201 H   0  0  0  0  0  0  0  0  0  0  0  0  # atno 6908 bound_to 6896
  152.3956  133.6704  159.6309 H   0  0  0  0  0  0  0  0  0  0  0  0  # atno 6909 bound_to 6896
  145.4883  140.9554  143.1826 H   0  0  0  0  0  0  0  0  0  0  0  0  # atno 7974 bound_to 7965
  156.1522  140.1583  156.8751 H   0  0  0  0  0  0  0  0  0  0  0  0  # atno 8008 bound_to 7997
  154.5081  140.0808  156.7972 H   0  0  0  0  0  0  0  0  0  0  0  0  # atno 8009 bound_to 7997
  155.3874  140.3408  155.4252 H   0  0  0  0  0  0  0  0  0  0  0  0  # atno 8010 bound_to 7997
  139.4895  144.5778  151.6932 H   0  0  0  0  0  0  0  0  0  0  0  0  # atno 10167 bound_to 10162
  156.3039  130.4243  149.8116 H   0  0  0  0  0  0  0  0  0  0  0  0  # atno 10718 bound_to 10713
  153.0197  135.5275  154.7015 H   0  0  0  0  0  0  0  0  0  0  0  0  # atno 10763 bound_to 10752
  154.6123  135.2879  155.0421 H   0  0  0  0  0  0  0  0  0  0  0  0  # atno 10764 bound_to 10752
  154.1438  135.6574  153.5000 H   0  0  0  0  0  0  0  0  0  0  0  0  # atno 10765 bound_to 10752
  140.4349  134.1381  155.7684 H   0  0  0  0  0  0  0  0  0  0  0  0  # atno 11005 bound_to 11000
  144.7848  139.6449  143.7138 LP  0  0  0  0  0  0  0  0  0  0  0  0  # atno 17320 bound_to 7965
  146.2299  139.5794  142.9562 LP  0  0  0  0  0  0  0  0  0  0  0  0  # atno 17321 bound_to 7965
  140.5378  144.0628  150.6077 LP  0  0  0  0  0  0  0  0  0  0  0  0  # atno 17342 bound_to 10162
  140.3640  143.2892  152.0352 LP  0  0  0  0  0  0  0  0  0  0  0  0  # atno 17343 bound_to 10162
  156.5484  130.8331  151.3292 LP  0  0  0  0  0  0  0  0  0  0  0  0  # atno 17370 bound_to 10713
  157.7375  130.9796  150.2195 LP  0  0  0  0  0  0  0  0  0  0  0  0  # atno 17371 bound_to 10713
  141.1730  133.8571  157.1511 LP  0  0  0  0  0  0  0  0  0  0  0  0  # atno 17394 bound_to 11000
  140.0109  134.9988  157.0392 LP  0  0  0  0  0  0  0  0  0  0  0  0  # atno 17395 bound_to 11000

$$$$
