AV-unprocessed.smi:224|AV-procd|sdf|1715|dock6
  -GOLD-   2262020183D 1   1.00000     0.00000
 Structure written by MMmdl.
 56 59  0  0  0  0  0  0  0  0  2 V2000
  146.1852  131.7725  148.9290 C   0  0  0  0  0  0  0  0  0  0  0  0
  145.4067  131.5217  150.2270 C   0  0  2  0  0  0  0  0  0  0  0  0
  144.0348  131.7289  149.9557 O   0  0  0  0  0  0  0  0  0  0  0  0
  145.8615  132.4717  151.3546 C   0  0  0  0  0  0  0  0  0  0  0  0
  145.0720  133.7313  151.4454 N   0  3  2  0  0  0  0  0  0  0  0  0
  145.8894  134.9238  151.0986 C   0  0  0  0  0  0  0  0  0  0  0  0
  145.0288  136.1985  151.0462 C   0  0  0  0  0  0  0  0  0  0  0  0
  144.2658  136.3716  152.2798 N   0  0  0  0  0  0  0  0  0  0  0  0
  144.8049  137.0850  153.3056 C   0  0  0  0  0  0  0  0  0  0  0  0
  144.4535  136.7911  154.5863 N   0  0  0  0  0  0  0  0  0  0  0  0
  144.9476  137.4982  155.6060 C   0  0  0  0  0  0  0  0  0  0  0  0
  145.7993  138.5233  155.5729 N   0  0  0  0  0  0  0  0  0  0  0  0
  146.1762  138.8122  154.2951 C   0  0  0  0  0  0  0  0  0  0  0  0
  145.7322  138.1502  153.1146 C   0  0  0  0  0  0  0  0  0  0  0  0
  146.3419  138.7184  152.0015 N   0  0  0  0  0  0  0  0  0  0  0  0
  147.0892  139.6681  152.4933 C   0  0  0  0  0  0  0  0  0  0  0  0
  147.0541  139.7911  153.8636 N   0  0  0  0  0  0  0  0  0  0  0  0
  147.7850  140.7560  154.6703 C   0  0  0  0  0  0  0  0  0  0  0  0
  149.3201  140.5860  154.5943 C   0  0  1  0  0  0  0  0  0  0  0  0
  149.7647  140.9745  153.3063 O   0  0  0  0  0  0  0  0  0  0  0  0
  150.0908  141.3933  155.6352 C   0  0  0  0  0  0  0  0  0  0  0  0
  151.3048  140.5181  155.9129 C   0  0  0  0  0  0  0  0  0  0  0  0
  150.7516  139.2135  155.9021 O   0  0  0  0  0  0  0  0  0  0  0  0
  149.7869  139.1402  154.8572 C   0  0  0  0  0  0  0  0  0  0  0  0
  143.4408  135.2178  152.6315 C   0  0  0  0  0  0  0  0  0  0  0  0
  144.2662  133.9121  152.6946 C   0  0  2  0  0  0  0  0  0  0  0  0
  145.1019  133.8143  153.9889 C   0  0  0  0  0  0  0  0  0  0  0  0
  147.2535  131.6088  149.0757 H   0  0  0  0  0  0  0  0  0  0  0  0
  146.0516  132.7951  148.5737 H   0  0  0  0  0  0  0  0  0  0  0  0
  145.8559  131.0992  148.1367 H   0  0  0  0  0  0  0  0  0  0  0  0
  145.5557  130.4799  150.5078 H   0  0  0  0  0  0  0  0  0  0  0  0
  143.9377  132.5137  149.4390 H   0  0  0  0  0  0  0  0  0  0  0  0
  145.8411  131.9559  152.3151 H   0  0  0  0  0  0  0  0  0  0  0  0
  146.9081  132.7290  151.1832 H   0  0  0  0  0  0  0  0  0  0  0  0
  146.6977  135.0368  151.8214 H   0  0  0  0  0  0  0  0  0  0  0  0
  146.3620  134.7760  150.1270 H   0  0  0  0  0  0  0  0  0  0  0  0
  145.6439  137.0739  150.8346 H   0  0  0  0  0  0  0  0  0  0  0  0
  144.3202  136.1256  150.2203 H   0  0  0  0  0  0  0  0  0  0  0  0
  144.6105  137.2019  156.5885 H   0  0  0  0  0  0  0  0  0  0  0  0
  147.6940  140.3062  151.8655 H   0  0  0  0  0  0  0  0  0  0  0  0
  147.5033  141.7553  154.3356 H   0  0  0  0  0  0  0  0  0  0  0  0
  147.4447  140.6731  155.7034 H   0  0  0  0  0  0  0  0  0  0  0  0
  149.5462  140.2890  152.6936 H   0  0  0  0  0  0  0  0  0  0  0  0
  150.3504  142.4016  155.3094 H   0  0  0  0  0  0  0  0  0  0  0  0
  149.5073  141.4805  156.5526 H   0  0  0  0  0  0  0  0  0  0  0  0
  152.0485  140.6118  155.1200 H   0  0  0  0  0  0  0  0  0  0  0  0
  151.7817  140.7464  156.8662 H   0  0  0  0  0  0  0  0  0  0  0  0
  148.9697  138.4913  155.1742 H   0  0  0  0  0  0  0  0  0  0  0  0
  150.2384  138.6863  153.9734 H   0  0  0  0  0  0  0  0  0  0  0  0
  142.9044  135.3584  153.5682 H   0  0  0  0  0  0  0  0  0  0  0  0
  142.6727  135.1208  151.8636 H   0  0  0  0  0  0  0  0  0  0  0  0
  143.5315  133.1092  152.7347 H   0  0  0  0  0  0  0  0  0  0  0  0
  144.4832  134.0155  154.8637 H   0  0  0  0  0  0  0  0  0  0  0  0
  145.9263  134.5261  154.0038 H   0  0  0  0  0  0  0  0  0  0  0  0
  145.5219  132.8179  154.1248 H   0  0  0  0  0  0  0  0  0  0  0  0
  144.3909  133.6672  150.7027 H   0  0  0  0  0  0  0  0  0  0  0  0
  1  2  1  0  0  0  0
  1 28  1  0  0  0  0
  1 29  1  0  0  0  0
  1 30  1  0  0  0  0
  2  3  1  0  0  0  0
  2  4  1  0  0  0  0
  2 31  1  0  0  0  0
  3 32  1  0  0  0  0
  4  5  1  0  0  0  0
  4 33  1  0  0  0  0
  4 34  1  0  0  0  0
  5 26  1  0  0  0  0
  5  6  1  0  0  0  0
  5 56  1  0  0  0  0
  6  7  1  0  0  0  0
  6 35  1  0  0  0  0
  6 36  1  0  0  0  0
  7  8  1  0  0  0  0
  7 37  1  0  0  0  0
  7 38  1  0  0  0  0
  8  9  1  0  0  0  0
  8 25  1  0  0  0  0
  9 14  1  0  0  0  0
  9 10  2  0  0  0  0
 10 11  1  0  0  0  0
 11 12  2  0  0  0  0
 11 39  1  0  0  0  0
 12 13  1  0  0  0  0
 13 17  1  0  0  0  0
 13 14  2  0  0  0  0
 14 15  1  0  0  0  0
 15 16  2  0  0  0  0
 16 17  1  0  0  0  0
 16 40  1  0  0  0  0
 17 18  1  0  0  0  0
 18 19  1  0  0  0  0
 18 41  1  0  0  0  0
 18 42  1  0  0  0  0
 19 24  1  0  0  0  0
 19 20  1  0  0  0  0
 19 21  1  0  0  0  0
 20 43  1  0  0  0  0
 21 22  1  0  0  0  0
 21 44  1  0  0  0  0
 21 45  1  0  0  0  0
 22 23  1  0  0  0  0
 22 46  1  0  0  0  0
 22 47  1  0  0  0  0
 23 24  1  0  0  0  0
 24 48  1  0  0  0  0
 24 49  1  0  0  0  0
 25 26  1  0  0  0  0
 25 50  1  0  0  0  0
 25 51  1  0  0  0  0
 26 27  1  0  0  0  0
 26 52  1  0  0  0  0
 27 53  1  0  0  0  0
 27 54  1  0  0  0  0
 27 55  1  0  0  0  0
M  CHG  1   5   1
M  END
> <s_m_source_file>
AV-unprocessed.smi

> <i_m_source_file_index>
224

> <i_lp_mmshare_version>
43012

> <i_f3d_flags>
0

> <s_epik_input>
W0NIM11bQ0BIXShbT0hdKVtDSDJdTjFbQ0gyXVtDSDJdTihbQ0gyXVtDQEhdMVtDSDNdKWMobltjSF1uMiljKGMyMyluW2NIXW4zW0NIMl1bQ0BAXTQoW09IXSlbQ0gyXVtDSDJdT1tDSDJdNA==

> <s_epik_cmdline>
J2VwaWtfcHl0aG9uJywgJy1waCcsICc3LjAnLCAnLXRuJywgJzgnLCAnLW1hJywgJzIwMCcsICctbWV0YWxfYmluZGluZycsICctaW1hZScsICc8aW5maWxlLm1hZT4nLCAnLW9tYWUnLCAnPG91dGZpbGUubWFlPic=

> <r_lp_tautomer_probability>
1

> <r_epik_Ionization_Penalty>
0.00516958

> <r_epik_Ionization_Penalty_Charging>
0.00509693

> <r_epik_Ionization_Penalty_Neutral>
7.26542e-05

> <r_epik_State_Penalty>
-0

> <r_epik_Charging_Adjusted_Penalty>
0.00509693

> <i_epik_Tot_Q>
1

> <i_epik_Tot_abs_Q>
1

> <r_epik_Metal_State_Penalty>
-0

> <b_epik_Metal_Only>
0

> <s_lp_Force_Field>
OPLS_2005

> <r_lp_Energy>
50.3788

> <b_lp_Chiralities_Consistent>
1

> <s_lp_Variant>
AV-unprocessed.smi:224-9

> <Gold.Version>
5.8.1

> <Gold.Id.Protein>
6NUR|6NUR_protein|mol2

> <Gold.PLP.Fitness>
44.7108

> <Gold.PLP.PLP>
-36.8321

> <Gold.PLP.part.hbond>
-2.8101

> <Gold.PLP.part.metal>
0.0000

> <Gold.PLP.part.buried>
1.0998

> <Gold.PLP.part.nonpolar>
-34.7029

> <Gold.PLP.part.repulsive>
0.4140

> <Gold.PLP.ligand.clash>
0.0000

> <Gold.PLP.ligand.torsion>
1.4384

> <Gold.PLP.Chemscore.Hbond>
2.4623

> <Gold.PLP.Chemscore.CHOScore>
1.0000

> <Gold.PLP.Chemscore.Metal>
0.0000

> <Gold.Chemscore.Hbonds>
donor molecule, donor type, donor heavy atom, donor atom, acceptor molecule, acceptor atom, score
      L1  H    20    43       P1  7957  0.75
      P1  H  7989  7998       L1    20  0.19
      P1  H  8011  8017       L1    20  1.00
      P1  H 10785 10796       L1     3  0.50
      L1  C    16    40       P1  7957  0.99

> <Gold.PLP.Chemscore.Internal.Correction>
0.3686

> <Gold.Rescore>
     Score         DG    S(hbond)    S(metal)    S(lipo)     H(rot)  DE(clash)    DE(int)     intcor
      9.90     -13.02       1.40        0.00      90.50       3.02       0.81       2.30       ----

> <Gold.Chemscore.Fitness>
9.9032

> <Gold.Chemscore.DG>
-13.0214

> <Gold.Chemscore.ZeroCoef>
-5.4800

> <Gold.Chemscore.Hbond>
1.4048

> <Gold.Chemscore.Metal>
0.0000

> <Gold.Chemscore.Lipo>
90.4996

> <Gold.Chemscore.Internal_Hbond>
0.0000

> <Gold.Chemscore.DEClash>
0.8141

> <Gold.Chemscore.DEInternal>
2.3041

> <Gold.Chemscore.Rot>
3.0231

> <Gold.Chemscore.Internal.Correction>
   9.000000E+99

> <Gold.Chemscore.Hbonds>
donor molecule, donor type, donor heavy atom, donor atom, acceptor molecule, acceptor atom, score
      L1  H    20    43       P1  7957  0.72
      P1  H  7989  7998       L1    20  0.05
      P1  H  8011  8017       L1    20  0.44
      P1  H 10785 10796       L1     3  0.21

> <Gold.Chemscore.Hbond.Weighted>
-4.6920

> <Gold.Chemscore.Metal.Weighted>
-0.0000

> <Gold.Chemscore.Lipo.Weighted>
-10.5885

> <Gold.Chemscore.Internal_Hbond.Weighted>
0.0000

> <Gold.Chemscore.DEClash.Weighted>
0.8141

> <Gold.Chemscore.DEInternal.Weighted>
2.3041

> <Gold.Chemscore.Rot.Weighted>
7.7391

> <Gold.Chemscore.Internal.Correction.Weighted>
   9.000000E+99

> <Gold.Protein.RotatedTorsions>
[ 6907 6896 6895 6894 ] final -153.41 input  -60.11 | X-H torsion
[ 7974 7965 7964 7962 ] final  -28.67 input  175.53 | X-H torsion
[ 8008 7997 7996 7995 ] final -170.01 input   59.86 | X-H torsion
[ 10167 10162 10161 10158 ] final  -22.90 input  -65.29 | X-H torsion
[ 10718 10713 10712 10709 ] final -134.25 input   66.30 | X-H torsion
[ 10763 10752 10751 10750 ] final  123.27 input  -60.55 | X-H torsion
[ 11005 11000 10999 10996 ] final   88.24 input  -57.11 | X-H torsion

> <Gold.Protein.ActiveResidues>
 VAL166  LYS551  ARG553  GLY616  TRP617  ASP618  TYR619  PRO620  LYS621  CYS622 
 ASP623  PHE694  ASN695  SER759  ASP760  ASP761  ALA762  ILE779  LEU786  VAL792 
 PHE793  MET794  SER795  GLU796  ALA797  LYS798  CYS799  TRP800  GLU811  SER814 

> <Gold.Protein.RotatedAtoms>
  151.2421  133.4394  159.2607 H   0  0  0  0  0  0  0  0  0  0  0  0  # atno 6907 bound_to 6896
  151.0695  134.9789  159.8312 H   0  0  0  0  0  0  0  0  0  0  0  0  # atno 6908 bound_to 6896
  152.5410  134.2367  159.8899 H   0  0  0  0  0  0  0  0  0  0  0  0  # atno 6909 bound_to 6896
  146.1272  140.5313  142.8709 H   0  0  0  0  0  0  0  0  0  0  0  0  # atno 7974 bound_to 7965
  155.9127  140.1060  157.1267 H   0  0  0  0  0  0  0  0  0  0  0  0  # atno 8008 bound_to 7997
  154.4042  140.1271  156.4642 H   0  0  0  0  0  0  0  0  0  0  0  0  # atno 8009 bound_to 7997
  155.7291  140.3468  155.5053 H   0  0  0  0  0  0  0  0  0  0  0  0  # atno 8010 bound_to 7997
  140.7287  143.4493  151.0541 H   0  0  0  0  0  0  0  0  0  0  0  0  # atno 10167 bound_to 10162
  156.2535  130.7167  151.1075 H   0  0  0  0  0  0  0  0  0  0  0  0  # atno 10718 bound_to 10713
  153.6429  135.3376  155.3077 H   0  0  0  0  0  0  0  0  0  0  0  0  # atno 10763 bound_to 10752
  154.8555  135.4322  154.1986 H   0  0  0  0  0  0  0  0  0  0  0  0  # atno 10764 bound_to 10752
  153.2909  135.7017  153.7368 H   0  0  0  0  0  0  0  0  0  0  0  0  # atno 10765 bound_to 10752
  139.8901  134.8475  156.2973 H   0  0  0  0  0  0  0  0  0  0  0  0  # atno 11005 bound_to 11000
  144.7654  140.5517  143.6707 LP  0  0  0  0  0  0  0  0  0  0  0  0  # atno 17320 bound_to 7965
  145.5340  139.1475  143.3483 LP  0  0  0  0  0  0  0  0  0  0  0  0  # atno 17321 bound_to 7965
  139.8167  143.7876  152.3174 LP  0  0  0  0  0  0  0  0  0  0  0  0  # atno 17342 bound_to 10162
  139.7944  144.7398  150.9910 LP  0  0  0  0  0  0  0  0  0  0  0  0  # atno 17343 bound_to 10162
  157.7223  131.0673  150.6081 LP  0  0  0  0  0  0  0  0  0  0  0  0  # atno 17370 bound_to 10713
  156.6163  130.4393  149.5839 LP  0  0  0  0  0  0  0  0  0  0  0  0  # atno 17371 bound_to 10713
  140.9937  133.7193  156.0852 LP  0  0  0  0  0  0  0  0  0  0  0  0  # atno 17394 bound_to 11000
  140.7591  134.3959  157.5528 LP  0  0  0  0  0  0  0  0  0  0  0  0  # atno 17395 bound_to 11000

$$$$
