AV-unprocessed.smi:1900|AV-procd|sdf|7713|dock1
  -GOLD-   22720 9453D 1   1.00000     0.00000
 Structure written by MMmdl.
 43 44  0  0  0  0  0  0  0  0  1 V2000
  151.7937  138.4621  154.4905 C   0  0  0  0  0  0  0  0  0  0  0  0
  150.5411  139.1873  154.9926 C   0  0  2  0  0  0  0  0  0  0  0  0
  149.3709  139.0774  153.9984 C   0  0  0  0  0  0  0  0  0  0  0  0
  148.2107  139.8400  154.4389 N   0  0  0  0  0  0  0  0  0  0  0  0
  147.0870  139.6762  153.5166 C   0  0  0  0  0  0  0  0  0  0  0  0
  147.2176  138.5090  152.5209 C   0  0  0  0  0  0  0  0  0  0  0  0
  145.8982  137.7436  152.3145 C   0  0  0  0  0  0  0  0  0  0  0  0
  146.1357  136.3737  151.8752 N   0  0  0  0  0  0  0  0  0  0  0  0
  145.1735  135.5003  151.5440 C   0  0  0  0  0  0  0  0  0  0  0  0
  143.9722  135.7691  151.5708 O   0  0  0  0  0  0  0  0  0  0  0  0
  145.6917  134.3149  151.1837 N   0  0  0  0  0  0  0  0  0  0  0  0
  144.9823  133.1591  150.7719 C   0  0  0  0  0  0  0  0  0  0  0  0
  145.4860  131.9082  150.3082 C   0  0  0  0  0  0  0  0  0  0  0  0
  144.4993  131.0722  150.0168 N   0  0  0  0  0  0  0  0  0  0  0  0
  143.3761  131.7737  150.2886 N   0  0  0  0  0  0  0  0  0  0  0  0
  143.6242  133.0479  150.7496 C   0  0  0  0  0  0  0  0  0  0  0  0
  148.5994  141.2372  154.6183 C   0  0  0  0  0  0  0  0  0  0  0  0
  149.7883  141.4011  155.5853 C   0  0  1  0  0  0  0  0  0  0  0  0
  149.4043  141.1784  157.0583 C   0  0  0  0  0  0  0  0  0  0  0  0
  150.8731  140.5614  155.1853 O   0  0  0  0  0  0  0  0  0  0  0  0
  142.4583  131.3734  150.1557 H   0  0  0  0  0  0  0  0  0  0  0  0
  151.5971  137.4013  154.3334 H   0  0  0  0  0  0  0  0  0  0  0  0
  152.6071  138.5464  155.2113 H   0  0  0  0  0  0  0  0  0  0  0  0
  152.1404  138.8823  153.5461 H   0  0  0  0  0  0  0  0  0  0  0  0
  150.2500  138.7482  155.9473 H   0  0  0  0  0  0  0  0  0  0  0  0
  149.6908  139.4280  153.0157 H   0  0  0  0  0  0  0  0  0  0  0  0
  149.0988  138.0278  153.8812 H   0  0  0  0  0  0  0  0  0  0  0  0
  146.1638  139.5586  154.0858 H   0  0  0  0  0  0  0  0  0  0  0  0
  146.9646  140.5933  152.9386 H   0  0  0  0  0  0  0  0  0  0  0  0
  147.6046  138.8661  151.5670 H   0  0  0  0  0  0  0  0  0  0  0  0
  147.9707  137.8158  152.8969 H   0  0  0  0  0  0  0  0  0  0  0  0
  145.3367  137.7127  153.2484 H   0  0  0  0  0  0  0  0  0  0  0  0
  145.2628  138.2549  151.5892 H   0  0  0  0  0  0  0  0  0  0  0  0
  147.0970  136.0701  151.8241 H   0  0  0  0  0  0  0  0  0  0  0  0
  146.6973  134.2306  151.2056 H   0  0  0  0  0  0  0  0  0  0  0  0
  146.5049  131.5774  150.1734 H   0  0  0  0  0  0  0  0  0  0  0  0
  142.8371  133.7389  151.0126 H   0  0  0  0  0  0  0  0  0  0  0  0
  148.8674  141.6656  153.6515 H   0  0  0  0  0  0  0  0  0  0  0  0
  147.7625  141.8242  154.9947 H   0  0  0  0  0  0  0  0  0  0  0  0
  150.1483  142.4269  155.5026 H   0  0  0  0  0  0  0  0  0  0  0  0
  148.6520  141.9011  157.3753 H   0  0  0  0  0  0  0  0  0  0  0  0
  150.2708  141.2959  157.7090 H   0  0  0  0  0  0  0  0  0  0  0  0
  148.9900  140.1849  157.2280 H   0  0  0  0  0  0  0  0  0  0  0  0
  1  2  1  0  0  0  0
  1 22  1  0  0  0  0
  1 23  1  0  0  0  0
  1 24  1  0  0  0  0
  2 20  1  0  0  0  0
  2  3  1  0  0  0  0
  2 25  1  0  0  0  0
  3  4  1  0  0  0  0
  3 26  1  0  0  0  0
  3 27  1  0  0  0  0
  4  5  1  0  0  0  0
  4 17  1  0  0  0  0
  5  6  1  0  0  0  0
  5 28  1  0  0  0  0
  5 29  1  0  0  0  0
  6  7  1  0  0  0  0
  6 30  1  0  0  0  0
  6 31  1  0  0  0  0
  7  8  1  0  0  0  0
  7 32  1  0  0  0  0
  7 33  1  0  0  0  0
  8  9  1  0  0  0  0
  8 34  1  0  0  0  0
  9 10  2  0  0  0  0
  9 11  1  0  0  0  0
 11 12  1  0  0  0  0
 11 35  1  0  0  0  0
 12 16  2  0  0  0  0
 12 13  1  0  0  0  0
 13 14  2  0  0  0  0
 13 36  1  0  0  0  0
 14 15  1  0  0  0  0
 15 21  1  0  0  0  0
 15 16  1  0  0  0  0
 16 37  1  0  0  0  0
 17 18  1  0  0  0  0
 17 38  1  0  0  0  0
 17 39  1  0  0  0  0
 18 19  1  0  0  0  0
 18 20  1  0  0  0  0
 18 40  1  0  0  0  0
 19 41  1  0  0  0  0
 19 42  1  0  0  0  0
 19 43  1  0  0  0  0
M  END
> <s_m_source_file>
AV-unprocessed.smi

> <i_m_source_file_index>
1900

> <i_lp_mmshare_version>
43012

> <i_f3d_flags>
0

> <s_epik_input>
W0NIM11bQ0BASF0xW0NIMl1OKFtDSDJdW0NASF0oTzEpW0NIM10pW0NIMl1bQ0gyXVtDSDJdW05IXUMoPU8pW05IXWMyW2NIXW5bbkhdW2NIXTI=

> <s_epik_cmdline>
J2VwaWtfcHl0aG9uJywgJy1waCcsICc3LjAnLCAnLXRuJywgJzgnLCAnLW1hJywgJzIwMCcsICctbWV0YWxfYmluZGluZycsICctaW1hZScsICc8aW5maWxlLm1hZT4nLCAnLW9tYWUnLCAnPG91dGZpbGUubWFlPic=

> <r_lp_tautomer_probability>
0.5

> <r_epik_Ionization_Penalty>
0.594715

> <r_epik_Ionization_Penalty_Charging>
0

> <r_epik_Ionization_Penalty_Neutral>
0.594715

> <r_epik_State_Penalty>
0.608529

> <r_epik_Charging_Adjusted_Penalty>
0.608529

> <i_epik_Tot_Q>
0

> <i_epik_Tot_abs_Q>
0

> <r_epik_Metal_State_Penalty>
0.608528

> <b_epik_Metal_Only>
0

> <s_lp_Force_Field>
OPLS_2005

> <r_lp_Energy>
27.7437

> <b_lp_Chiralities_Consistent>
1

> <s_lp_Variant>
AV-unprocessed.smi:1900-5

> <Gold.Version>
5.8.1

> <Gold.Id.Protein>
6NUR|6NUR_protein|mol2

> <Gold.PLP.Fitness>
42.0793

> <Gold.PLP.PLP>
-32.0557

> <Gold.PLP.part.hbond>
-3.9852

> <Gold.PLP.part.metal>
0.0000

> <Gold.PLP.part.buried>
2.1653

> <Gold.PLP.part.nonpolar>
-31.9700

> <Gold.PLP.part.repulsive>
0.6980

> <Gold.PLP.ligand.clash>
2.7781

> <Gold.PLP.ligand.torsion>
1.0567

> <Gold.PLP.Chemscore.Hbond>
2.9679

> <Gold.PLP.Chemscore.CHOScore>
1.9842

> <Gold.PLP.Chemscore.Metal>
0.0000

> <Gold.Chemscore.Hbonds>
donor molecule, donor type, donor heavy atom, donor atom, acceptor molecule, acceptor atom, score
      L1  H     8    34       P1  7948  1.00
      L1  H    15    21       P1 10952  1.00
      P1  H  7989  7998       L1    20  0.86
      P1  H 10785 10796       L1    14  0.03
      L1  C    13    36       P1 10747  0.91
      L1  C    16    37       P1 10186  0.92

> <Gold.PLP.Chemscore.Internal.Correction>
0.0586

> <Gold.Rescore>
     Score         DG    S(hbond)    S(metal)    S(lipo)     H(rot)  DE(clash)    DE(int)     intcor
     13.80     -17.20       2.02        0.00      83.69       1.88       0.97       2.43       ----

> <Gold.Chemscore.Fitness>
13.8019

> <Gold.Chemscore.DG>
-17.2024

> <Gold.Chemscore.ZeroCoef>
-5.4800

> <Gold.Chemscore.Hbond>
2.0189

> <Gold.Chemscore.Metal>
0.0000

> <Gold.Chemscore.Lipo>
83.6903

> <Gold.Chemscore.Internal_Hbond>
0.0000

> <Gold.Chemscore.DEClash>
0.9714

> <Gold.Chemscore.DEInternal>
2.4291

> <Gold.Chemscore.Rot>
1.8799

> <Gold.Chemscore.Internal.Correction>
   9.000000E+99

> <Gold.Chemscore.Hbonds>
donor molecule, donor type, donor heavy atom, donor atom, acceptor molecule, acceptor atom, score
      L1  H     8    34       P1  7948  0.99
      L1  H    15    21       P1 10952  0.78
      P1  H  7989  7998       L1    20  0.16

> <Gold.Chemscore.Hbond.Weighted>
-6.7432

> <Gold.Chemscore.Metal.Weighted>
-0.0000

> <Gold.Chemscore.Lipo.Weighted>
-9.7918

> <Gold.Chemscore.Internal_Hbond.Weighted>
0.0000

> <Gold.Chemscore.DEClash.Weighted>
0.9714

> <Gold.Chemscore.DEInternal.Weighted>
2.4291

> <Gold.Chemscore.Rot.Weighted>
4.8126

> <Gold.Chemscore.Internal.Correction.Weighted>
   9.000000E+99

> <Gold.Protein.RotatedTorsions>
[ 6907 6896 6895 6894 ] final  -98.12 input  -60.11 | X-H torsion
[ 7974 7965 7964 7962 ] final   79.91 input  175.53 | X-H torsion
[ 8008 7997 7996 7995 ] final    2.36 input   59.86 | X-H torsion
[ 10167 10162 10161 10158 ] final  138.18 input  -65.29 | X-H torsion
[ 10718 10713 10712 10709 ] final  -15.62 input   66.30 | X-H torsion
[ 10763 10752 10751 10750 ] final   54.45 input  -60.55 | X-H torsion
[ 11005 11000 10999 10996 ] final -165.76 input  -57.11 | X-H torsion

> <Gold.Protein.ActiveResidues>
 VAL166  LYS551  ARG553  GLY616  TRP617  ASP618  TYR619  PRO620  LYS621  CYS622 
 ASP623  PHE694  ASN695  SER759  ASP760  ASP761  ALA762  ILE779  LEU786  VAL792 
 PHE793  MET794  SER795  GLU796  ALA797  LYS798  CYS799  TRP800  GLU811  SER814 

> <Gold.Protein.RotatedAtoms>
  150.7037  134.1244  159.4046 H   0  0  0  0  0  0  0  0  0  0  0  0  # atno 6907 bound_to 6896
  151.9230  135.0287  160.0533 H   0  0  0  0  0  0  0  0  0  0  0  0  # atno 6908 bound_to 6896
  152.2240  133.4970  159.5215 H   0  0  0  0  0  0  0  0  0  0  0  0  # atno 6909 bound_to 6896
  145.6581  139.2464  143.1938 H   0  0  0  0  0  0  0  0  0  0  0  0  # atno 7974 bound_to 7965
  154.6907  140.2652  155.6815 H   0  0  0  0  0  0  0  0  0  0  0  0  # atno 8008 bound_to 7997
  156.2731  140.2791  156.1407 H   0  0  0  0  0  0  0  0  0  0  0  0  # atno 8009 bound_to 7997
  155.0901  140.0373  157.2656 H   0  0  0  0  0  0  0  0  0  0  0  0  # atno 8010 bound_to 7997
  139.5119  144.6368  151.5675 H   0  0  0  0  0  0  0  0  0  0  0  0  # atno 10167 bound_to 10162
  156.5991  130.4819  149.6247 H   0  0  0  0  0  0  0  0  0  0  0  0  # atno 10718 bound_to 10713
  152.9805  135.5744  154.4906 H   0  0  0  0  0  0  0  0  0  0  0  0  # atno 10763 bound_to 10752
  154.4441  135.2776  155.1829 H   0  0  0  0  0  0  0  0  0  0  0  0  # atno 10764 bound_to 10752
  154.3485  135.6214  153.5684 H   0  0  0  0  0  0  0  0  0  0  0  0  # atno 10765 bound_to 10752
  140.5720  134.5228  157.5163 H   0  0  0  0  0  0  0  0  0  0  0  0  # atno 11005 bound_to 11000
  146.1148  140.7383  142.9486 LP  0  0  0  0  0  0  0  0  0  0  0  0  # atno 17320 bound_to 7965
  144.7099  140.3997  143.7089 LP  0  0  0  0  0  0  0  0  0  0  0  0  # atno 17321 bound_to 7965
  140.6120  143.9419  150.6460 LP  0  0  0  0  0  0  0  0  0  0  0  0  # atno 17342 bound_to 10162
  140.2664  143.3487  152.1277 LP  0  0  0  0  0  0  0  0  0  0  0  0  # atno 17343 bound_to 10162
  156.2484  130.6892  151.1622 LP  0  0  0  0  0  0  0  0  0  0  0  0  # atno 17370 bound_to 10713
  157.7284  131.0632  150.5822 LP  0  0  0  0  0  0  0  0  0  0  0  0  # atno 17371 bound_to 10713
  139.9357  134.7880  156.0809 LP  0  0  0  0  0  0  0  0  0  0  0  0  # atno 17394 bound_to 11000
  141.1050  133.6663  156.2842 LP  0  0  0  0  0  0  0  0  0  0  0  0  # atno 17395 bound_to 11000

$$$$
