AV-unprocessed.smi:3164|AV-procd|sdf|12084|dock10
  -GOLD-   2272017513D 1   1.00000     0.00000
 Structure written by MMmdl.
 39 40  0  0  0  0  0  0  0  0  2 V2000
  151.2793  139.3856  154.8093 C   0  0  0  0  0  0  0  0  0  0  0  0
  150.0814  139.9357  154.1927 N   0  0  0  0  0  0  0  0  0  0  0  0
  149.5960  141.1053  154.9135 C   0  0  0  0  0  0  0  0  0  0  0  0
  148.3221  141.6794  154.2712 C   0  0  0  0  0  0  0  0  0  0  0  0
  147.3284  140.6613  154.1914 O   0  0  0  0  0  0  0  0  0  0  0  0
  147.7483  139.5234  153.4421 C   0  0  2  0  0  0  0  0  0  0  0  0
  146.5833  138.5229  153.4132 C   0  0  0  0  0  0  0  0  0  0  0  0
  146.6157  137.6901  152.1945 N   0  3  0  0  0  0  0  0  0  0  0  0
  145.5837  136.6343  152.1585 C   0  0  0  0  0  0  0  0  0  0  0  0
  145.5941  135.8765  150.8212 C   0  0  0  0  0  0  0  0  0  0  0  0
  145.1787  134.4223  150.9600 C   0  0  0  0  0  0  0  0  0  0  0  0
  143.8925  134.0804  151.4305 C   0  0  0  0  0  0  0  0  0  0  0  0
  143.5611  132.7162  151.5452 C   0  0  0  0  0  0  0  0  0  0  0  0
  144.5241  131.7523  151.1896 C   0  0  0  0  0  0  0  0  0  0  0  0
  145.7805  132.1965  150.7317 C   0  0  0  0  0  0  0  0  0  0  0  0
  146.1083  133.5021  150.6186 N   0  0  0  0  0  0  0  0  0  0  0  0
  149.0194  138.9432  154.0987 C   0  0  0  0  0  0  0  0  0  0  0  0
  152.0748  140.1310  154.8396 H   0  0  0  0  0  0  0  0  0  0  0  0
  151.6481  138.5301  154.2426 H   0  0  0  0  0  0  0  0  0  0  0  0
  151.0825  139.0571  155.8309 H   0  0  0  0  0  0  0  0  0  0  0  0
  149.3866  140.8400  155.9511 H   0  0  0  0  0  0  0  0  0  0  0  0
  150.3694  141.8740  154.9377 H   0  0  0  0  0  0  0  0  0  0  0  0
  147.9376  142.5080  154.8660 H   0  0  0  0  0  0  0  0  0  0  0  0
  148.5337  142.0703  153.2748 H   0  0  0  0  0  0  0  0  0  0  0  0
  147.9697  139.8444  152.4221 H   0  0  0  0  0  0  0  0  0  0  0  0
  146.6044  137.8877  154.2999 H   0  0  0  0  0  0  0  0  0  0  0  0
  145.6378  139.0667  153.4326 H   0  0  0  0  0  0  0  0  0  0  0  0
  146.4833  138.2912  151.3932 H   0  0  0  0  0  0  0  0  0  0  0  0
  145.7624  135.9354  152.9762 H   0  0  0  0  0  0  0  0  0  0  0  0
  144.6025  137.0800  152.3283 H   0  0  0  0  0  0  0  0  0  0  0  0
  144.9386  136.3753  150.1059 H   0  0  0  0  0  0  0  0  0  0  0  0
  146.5950  135.9130  150.3889 H   0  0  0  0  0  0  0  0  0  0  0  0
  143.1737  134.8418  151.6957 H   0  0  0  0  0  0  0  0  0  0  0  0
  142.5863  132.4148  151.8995 H   0  0  0  0  0  0  0  0  0  0  0  0
  144.3048  130.6973  151.2641 H   0  0  0  0  0  0  0  0  0  0  0  0
  146.5426  131.4850  150.4500 H   0  0  0  0  0  0  0  0  0  0  0  0
  149.3719  138.0867  153.5228 H   0  0  0  0  0  0  0  0  0  0  0  0
  148.7760  138.5699  155.0949 H   0  0  0  0  0  0  0  0  0  0  0  0
  147.5243  137.2544  152.1251 H   0  0  0  0  0  0  0  0  0  0  0  0
  1  2  1  0  0  0  0
  1 18  1  0  0  0  0
  1 19  1  0  0  0  0
  1 20  1  0  0  0  0
  2 17  1  0  0  0  0
  2  3  1  0  0  0  0
  3  4  1  0  0  0  0
  3 21  1  0  0  0  0
  3 22  1  0  0  0  0
  4  5  1  0  0  0  0
  4 23  1  0  0  0  0
  4 24  1  0  0  0  0
  5  6  1  0  0  0  0
  6  7  1  0  0  0  0
  6 17  1  0  0  0  0
  6 25  1  0  0  0  0
  7  8  1  0  0  0  0
  7 26  1  0  0  0  0
  7 27  1  0  0  0  0
  8  9  1  0  0  0  0
  8 28  1  0  0  0  0
  8 39  1  0  0  0  0
  9 10  1  0  0  0  0
  9 29  1  0  0  0  0
  9 30  1  0  0  0  0
 10 11  1  0  0  0  0
 10 31  1  0  0  0  0
 10 32  1  0  0  0  0
 11 16  1  0  0  0  0
 11 12  2  0  0  0  0
 12 13  1  0  0  0  0
 12 33  1  0  0  0  0
 13 14  2  0  0  0  0
 13 34  1  0  0  0  0
 14 15  1  0  0  0  0
 14 35  1  0  0  0  0
 15 16  2  0  0  0  0
 15 36  1  0  0  0  0
 17 37  1  0  0  0  0
 17 38  1  0  0  0  0
M  CHG  1   8   1
M  END
> <s_m_source_file>
AV-unprocessed.smi

> <i_m_source_file_index>
3164

> <i_lp_mmshare_version>
43012

> <i_f3d_flags>
0

> <s_epik_input>
W0NIM11OMVtDSDJdW0NIMl1PW0NASF0oW0NIMl0xKVtDSDJdW05IXVtDSDJdW0NIMl1jMltjSF1bY0hdW2NIXVtjSF1uMg==

> <s_epik_cmdline>
J2VwaWtfcHl0aG9uJywgJy1waCcsICc3LjAnLCAnLXRuJywgJzgnLCAnLW1hJywgJzIwMCcsICctbWV0YWxfYmluZGluZycsICctaW1hZScsICc8aW5maWxlLm1hZT4nLCAnLW9tYWUnLCAnPG91dGZpbGUubWFlPic=

> <r_epik_Ionization_Penalty>
0.584284

> <r_epik_Ionization_Penalty_Charging>
0.00270218

> <r_epik_Ionization_Penalty_Neutral>
0.581582

> <r_epik_State_Penalty>
0.593163

> <r_epik_Charging_Adjusted_Penalty>
0.595865

> <i_epik_Tot_Q>
1

> <i_epik_Tot_abs_Q>
1

> <r_epik_Metal_State_Penalty>
0.593163

> <b_epik_Metal_Only>
0

> <s_lp_Force_Field>
OPLS_2005

> <r_lp_Energy>
23.4824

> <b_lp_Chiralities_Consistent>
1

> <s_lp_Variant>
AV-unprocessed.smi:3164-6

> <Gold.Version>
5.8.1

> <Gold.Id.Protein>
6NUR|6NUR_protein|mol2

> <Gold.PLP.Fitness>
43.0075

> <Gold.PLP.PLP>
-35.1038

> <Gold.PLP.part.hbond>
-2.0000

> <Gold.PLP.part.metal>
0.0000

> <Gold.PLP.part.buried>
-3.8208

> <Gold.PLP.part.nonpolar>
-30.2211

> <Gold.PLP.part.repulsive>
0.5620

> <Gold.PLP.ligand.clash>
0.0000

> <Gold.PLP.ligand.torsion>
0.5631

> <Gold.PLP.Chemscore.Hbond>
2.0000

> <Gold.PLP.Chemscore.CHOScore>
1.0000

> <Gold.PLP.Chemscore.Metal>
0.0000

> <Gold.Chemscore.Hbonds>
donor molecule, donor type, donor heavy atom, donor atom, acceptor molecule, acceptor atom, score
      L1  H     8    39       P1  7948  2.00
      L1  C    15    36       P1 10747  1.00

> <Gold.PLP.Chemscore.Internal.Correction>
0.0299

> <Gold.Rescore>
     Score         DG    S(hbond)    S(metal)    S(lipo)     H(rot)  DE(clash)    DE(int)     intcor
     14.99     -15.54       1.00        0.00      91.84       1.57       0.12       0.43       ----

> <Gold.Chemscore.Fitness>
14.9864

> <Gold.Chemscore.DG>
-15.5394

> <Gold.Chemscore.ZeroCoef>
-5.4800

> <Gold.Chemscore.Hbond>
0.9998

> <Gold.Chemscore.Metal>
0.0000

> <Gold.Chemscore.Lipo>
91.8447

> <Gold.Chemscore.Internal_Hbond>
0.0000

> <Gold.Chemscore.DEClash>
0.1201

> <Gold.Chemscore.DEInternal>
0.4330

> <Gold.Chemscore.Rot>
1.5726

> <Gold.Chemscore.Internal.Correction>
   9.000000E+99

> <Gold.Chemscore.Hbonds>
donor molecule, donor type, donor heavy atom, donor atom, acceptor molecule, acceptor atom, score
      L1  H     8    39       P1  7948  1.00

> <Gold.Chemscore.Hbond.Weighted>
-3.3395

> <Gold.Chemscore.Metal.Weighted>
-0.0000

> <Gold.Chemscore.Lipo.Weighted>
-10.7458

> <Gold.Chemscore.Internal_Hbond.Weighted>
0.0000

> <Gold.Chemscore.DEClash.Weighted>
0.1201

> <Gold.Chemscore.DEInternal.Weighted>
0.4330

> <Gold.Chemscore.Rot.Weighted>
4.0259

> <Gold.Chemscore.Internal.Correction.Weighted>
   9.000000E+99

> <Gold.Protein.RotatedTorsions>
[ 6907 6896 6895 6894 ] final  102.56 input  -60.11 | X-H torsion
[ 7974 7965 7964 7962 ] final -144.27 input  175.53 | X-H torsion
[ 8008 7997 7996 7995 ] final  152.57 input   59.86 | X-H torsion
[ 10167 10162 10161 10158 ] final   73.94 input  -65.29 | X-H torsion
[ 10718 10713 10712 10709 ] final -177.02 input   66.30 | X-H torsion
[ 10763 10752 10751 10750 ] final  153.86 input  -60.55 | X-H torsion
[ 11005 11000 10999 10996 ] final  172.43 input  -57.11 | X-H torsion

> <Gold.Protein.ActiveResidues>
 VAL166  LYS551  ARG553  GLY616  TRP617  ASP618  TYR619  PRO620  LYS621  CYS622 
 ASP623  PHE694  ASN695  SER759  ASP760  ASP761  ALA762  ILE779  LEU786  VAL792 
 PHE793  MET794  SER795  GLU796  ALA797  LYS798  CYS799  TRP800  GLU811  SER814 

> <Gold.Protein.RotatedAtoms>
  152.5320  133.9957  159.7871 H   0  0  0  0  0  0  0  0  0  0  0  0  # atno 6907 bound_to 6896
  151.0185  133.5891  159.2681 H   0  0  0  0  0  0  0  0  0  0  0  0  # atno 6908 bound_to 6896
  151.2939  135.0756  159.9267 H   0  0  0  0  0  0  0  0  0  0  0  0  # atno 6909 bound_to 6896
  144.8309  140.5731  143.5515 H   0  0  0  0  0  0  0  0  0  0  0  0  # atno 7974 bound_to 7965
  156.2623  140.2017  156.6354 H   0  0  0  0  0  0  0  0  0  0  0  0  # atno 8008 bound_to 7997
  154.6650  140.0556  157.0129 H   0  0  0  0  0  0  0  0  0  0  0  0  # atno 8009 bound_to 7997
  155.1220  140.3225  155.4498 H   0  0  0  0  0  0  0  0  0  0  0  0  # atno 8010 bound_to 7997
  140.0190  144.5555  150.7597 H   0  0  0  0  0  0  0  0  0  0  0  0  # atno 10167 bound_to 10162
  156.8233  130.9627  151.3110 H   0  0  0  0  0  0  0  0  0  0  0  0  # atno 10718 bound_to 10713
  154.1431  135.2819  155.3155 H   0  0  0  0  0  0  0  0  0  0  0  0  # atno 10763 bound_to 10752
  154.6272  135.5447  153.7644 H   0  0  0  0  0  0  0  0  0  0  0  0  # atno 10764 bound_to 10752
  153.0244  135.6454  154.1577 H   0  0  0  0  0  0  0  0  0  0  0  0  # atno 10765 bound_to 10752
  140.3296  134.7368  157.4124 H   0  0  0  0  0  0  0  0  0  0  0  0  # atno 11005 bound_to 11000
  145.4897  139.1489  143.3716 LP  0  0  0  0  0  0  0  0  0  0  0  0  # atno 17320 bound_to 7965
  146.2612  140.5035  142.8852 LP  0  0  0  0  0  0  0  0  0  0  0  0  # atno 17321 bound_to 7965
  140.7350  143.2736  151.3812 LP  0  0  0  0  0  0  0  0  0  0  0  0  # atno 17342 bound_to 10162
  139.6152  144.1017  152.2339 LP  0  0  0  0  0  0  0  0  0  0  0  0  # atno 17343 bound_to 10162
  157.6445  130.8833  149.9512 LP  0  0  0  0  0  0  0  0  0  0  0  0  # atno 17370 bound_to 10713
  156.0976  130.3658  150.0278 LP  0  0  0  0  0  0  0  0  0  0  0  0  # atno 17371 bound_to 10713
  140.0872  134.5651  155.8480 LP  0  0  0  0  0  0  0  0  0  0  0  0  # atno 17394 bound_to 11000
  141.2066  133.6657  156.6256 LP  0  0  0  0  0  0  0  0  0  0  0  0  # atno 17395 bound_to 11000

$$$$
