AV-unprocessed.smi:625|AV-procd|sdf|3101|dock9
  -GOLD-   22720 0 23D 1   1.00000     0.00000
 Structure written by MMmdl.
 49 51  0  0  0  0  0  0  0  0  1 V2000
  143.1322  145.8110  153.7767 C   0  0  0  0  0  0  0  0  0  0  0  0
  143.9099  144.6076  154.0312 N   0  0  0  0  0  0  0  0  0  0  0  0
  144.6269  144.3862  155.1451 C   0  0  0  0  0  0  0  0  0  0  0  0
  144.6776  145.2135  156.0571 O   0  0  0  0  0  0  0  0  0  0  0  0
  145.3164  143.0938  155.1581 C   0  0  0  0  0  0  0  0  0  0  0  0
  144.7342  141.8851  155.7221 C   0  0  0  0  0  0  0  0  0  0  0  0
  145.4316  140.7321  155.7396 C   0  0  0  0  0  0  0  0  0  0  0  0
  146.7909  140.6429  155.1985 C   0  0  0  0  0  0  0  0  0  0  0  0
  147.4431  139.5998  155.2405 O   0  0  0  0  0  0  0  0  0  0  0  0
  147.2897  141.7941  154.6549 N   0  0  0  0  0  0  0  0  0  0  0  0
  148.6563  141.8457  154.1035 C   0  0  0  0  0  0  0  0  0  0  0  0
  149.7480  141.3380  155.0619 C   0  0  0  0  0  0  0  0  0  0  0  0
  150.4870  140.4234  154.7002 O   0  0  0  0  0  0  0  0  0  0  0  0
  149.8585  141.9353  156.2606 N   0  0  0  0  0  0  0  0  0  0  0  0
  150.8779  141.6712  157.2701 C   0  0  2  0  0  0  0  0  0  0  0  0
  150.7530  140.2232  157.7732 C   0  0  0  0  0  0  0  0  0  0  0  0
  150.7223  142.7074  158.4083 C   0  0  2  0  0  0  0  0  0  0  0  0
  150.8411  144.1846  157.9641 C   0  0  0  0  0  0  0  0  0  0  0  0
  151.8352  144.7725  158.9823 C   0  0  2  0  0  0  0  0  0  0  0  0
  153.2510  144.2671  158.6499 C   0  0  0  0  0  0  0  0  0  0  0  0
  153.1934  142.7914  159.0852 C   0  0  0  0  0  0  0  0  0  0  0  0
  151.7386  142.6338  159.5746 C   0  0  1  0  0  0  0  0  0  0  0  0
  151.5087  143.9846  160.2463 C   0  0  0  0  0  0  0  0  0  0  0  0
  146.5581  142.9982  154.6446 C   0  0  0  0  0  0  0  0  0  0  0  0
  142.6363  145.7353  152.8093 H   0  0  0  0  0  0  0  0  0  0  0  0
  143.7746  146.6925  153.7629 H   0  0  0  0  0  0  0  0  0  0  0  0
  142.3672  145.9488  154.5420 H   0  0  0  0  0  0  0  0  0  0  0  0
  143.9039  143.8947  153.3161 H   0  0  0  0  0  0  0  0  0  0  0  0
  143.7367  141.8820  156.1362 H   0  0  0  0  0  0  0  0  0  0  0  0
  144.9785  139.8481  156.1636 H   0  0  0  0  0  0  0  0  0  0  0  0
  148.7270  141.2851  153.1700 H   0  0  0  0  0  0  0  0  0  0  0  0
  148.8982  142.8738  153.8305 H   0  0  0  0  0  0  0  0  0  0  0  0
  149.2028  142.6731  156.4727 H   0  0  0  0  0  0  0  0  0  0  0  0
  151.8542  141.7973  156.8016 H   0  0  0  0  0  0  0  0  0  0  0  0
  151.5330  139.9877  158.4972 H   0  0  0  0  0  0  0  0  0  0  0  0
  150.8482  139.5102  156.9537 H   0  0  0  0  0  0  0  0  0  0  0  0
  149.7889  140.0515  158.2533 H   0  0  0  0  0  0  0  0  0  0  0  0
  149.7282  142.5713  158.8389 H   0  0  0  0  0  0  0  0  0  0  0  0
  151.2019  144.2971  156.9406 H   0  0  0  0  0  0  0  0  0  0  0  0
  149.8720  144.6816  158.0267 H   0  0  0  0  0  0  0  0  0  0  0  0
  151.7700  145.8564  159.0818 H   0  0  0  0  0  0  0  0  0  0  0  0
  153.4942  144.3805  157.5928 H   0  0  0  0  0  0  0  0  0  0  0  0
  154.0031  144.8074  159.2261 H   0  0  0  0  0  0  0  0  0  0  0  0
  153.4623  142.1025  158.2858 H   0  0  0  0  0  0  0  0  0  0  0  0
  153.8894  142.6158  159.9066 H   0  0  0  0  0  0  0  0  0  0  0  0
  151.5896  141.7758  160.2307 H   0  0  0  0  0  0  0  0  0  0  0  0
  152.1968  144.1831  161.0699 H   0  0  0  0  0  0  0  0  0  0  0  0
  150.4844  144.1305  160.5946 H   0  0  0  0  0  0  0  0  0  0  0  0
  147.0898  143.8346  154.2116 H   0  0  0  0  0  0  0  0  0  0  0  0
  1  2  1  0  0  0  0
  1 25  1  0  0  0  0
  1 26  1  0  0  0  0
  1 27  1  0  0  0  0
  2  3  1  0  0  0  0
  2 28  1  0  0  0  0
  3  4  2  0  0  0  0
  3  5  1  0  0  0  0
  5 24  2  0  0  0  0
  5  6  1  0  0  0  0
  6  7  2  0  0  0  0
  6 29  1  0  0  0  0
  7  8  1  0  0  0  0
  7 30  1  0  0  0  0
  8  9  2  0  0  0  0
  8 10  1  0  0  0  0
 10 11  1  0  0  0  0
 10 24  1  0  0  0  0
 11 12  1  0  0  0  0
 11 31  1  0  0  0  0
 11 32  1  0  0  0  0
 12 13  2  0  0  0  0
 12 14  1  0  0  0  0
 14 15  1  0  0  0  0
 14 33  1  0  0  0  0
 15 16  1  0  0  0  0
 15 17  1  0  0  0  0
 15 34  1  0  0  0  0
 16 35  1  0  0  0  0
 16 36  1  0  0  0  0
 16 37  1  0  0  0  0
 17 22  1  0  0  0  0
 17 18  1  0  0  0  0
 17 38  1  0  0  0  0
 18 19  1  0  0  0  0
 18 39  1  0  0  0  0
 18 40  1  0  0  0  0
 19 23  1  0  0  0  0
 19 20  1  0  0  0  0
 19 41  1  0  0  0  0
 20 21  1  0  0  0  0
 20 42  1  0  0  0  0
 20 43  1  0  0  0  0
 21 22  1  0  0  0  0
 21 44  1  0  0  0  0
 21 45  1  0  0  0  0
 22 23  1  0  0  0  0
 22 46  1  0  0  0  0
 23 47  1  0  0  0  0
 23 48  1  0  0  0  0
 24 49  1  0  0  0  0
M  END
> <s_m_source_file>
AV-unprocessed.smi

> <i_m_source_file_index>
625

> <i_lp_mmshare_version>
43012

> <i_f3d_flags>
0

> <s_epik_input>
W0NIM11bTkhdQyg9TyljMVtjSF1bY0hdYyg9TyluKFtjSF0xKVtDSDJdQyg9TylbTkhdW0NASF0oW0NIM10pW0NASF0oW0NIMl1bQ0BIXTIzKVtDQEhdKFtDSDJdMylbQ0gyXVtDSDJdMg==

> <s_epik_cmdline>
J2VwaWtfcHl0aG9uJywgJy1waCcsICc3LjAnLCAnLXRuJywgJzgnLCAnLW1hJywgJzIwMCcsICctbWV0YWxfYmluZGluZycsICctaW1hZScsICc8aW5maWxlLm1hZT4nLCAnLW9tYWUnLCAnPG91dGZpbGUubWFlPic=

> <r_lp_tautomer_probability>
1

> <r_epik_Ionization_Penalty>
3.7129e-07

> <r_epik_Ionization_Penalty_Charging>
5.04114e-08

> <r_epik_Ionization_Penalty_Neutral>
3.20879e-07

> <r_epik_State_Penalty>
-0

> <r_epik_Charging_Adjusted_Penalty>
5.04114e-08

> <i_epik_Tot_Q>
0

> <i_epik_Tot_abs_Q>
0

> <r_epik_Metal_State_Penalty>
-0

> <b_epik_Metal_Only>
0

> <s_lp_Force_Field>
OPLS_2005

> <r_lp_Energy>
63.5822

> <b_lp_Chiralities_Consistent>
1

> <s_lp_Variant>
AV-unprocessed.smi:625-1

> <Gold.Version>
5.8.1

> <Gold.Id.Protein>
6NUR|6NUR_protein|mol2

> <Gold.PLP.Fitness>
46.7392

> <Gold.PLP.PLP>
-42.6187

> <Gold.PLP.part.hbond>
-2.9333

> <Gold.PLP.part.metal>
0.0000

> <Gold.PLP.part.buried>
-3.1252

> <Gold.PLP.part.nonpolar>
-37.0542

> <Gold.PLP.part.repulsive>
0.3280

> <Gold.PLP.ligand.clash>
0.0000

> <Gold.PLP.ligand.torsion>
1.5875

> <Gold.PLP.Chemscore.Hbond>
2.1376

> <Gold.PLP.Chemscore.CHOScore>
0.2633

> <Gold.PLP.Chemscore.Metal>
0.0000

> <Gold.Chemscore.Hbonds>
donor molecule, donor type, donor heavy atom, donor atom, acceptor molecule, acceptor atom, score
      L1  H     2    28       P1 10174  0.53
      L1  H    14    33       P1  8028  0.35
      P1  H  7989  7998       L1    13  1.00
      L1  C    24    49       P1  8028  0.32

> <Gold.PLP.Chemscore.Internal.Correction>
0.0928

> <Gold.Rescore>
     Score         DG    S(hbond)    S(metal)    S(lipo)     H(rot)  DE(clash)    DE(int)     intcor
     17.81     -21.41       2.00        0.00     115.69       1.67       0.62       2.98       ----

> <Gold.Chemscore.Fitness>
17.8090

> <Gold.Chemscore.DG>
-21.4072

> <Gold.Chemscore.ZeroCoef>
-5.4800

> <Gold.Chemscore.Hbond>
1.9968

> <Gold.Chemscore.Metal>
0.0000

> <Gold.Chemscore.Lipo>
115.6863

> <Gold.Chemscore.Internal_Hbond>
0.0000

> <Gold.Chemscore.DEClash>
0.6161

> <Gold.Chemscore.DEInternal>
2.9821

> <Gold.Chemscore.Rot>
1.6709

> <Gold.Chemscore.Internal.Correction>
   9.000000E+99

> <Gold.Chemscore.Hbonds>
donor molecule, donor type, donor heavy atom, donor atom, acceptor molecule, acceptor atom, score
      L1  H     2    28       P1 10174  0.40
      L1  H    14    33       P1  8028  0.35
      P1  H  7989  7998       L1    13  0.85

> <Gold.Chemscore.Hbond.Weighted>
-6.6693

> <Gold.Chemscore.Metal.Weighted>
-0.0000

> <Gold.Chemscore.Lipo.Weighted>
-13.5353

> <Gold.Chemscore.Internal_Hbond.Weighted>
0.0000

> <Gold.Chemscore.DEClash.Weighted>
0.6161

> <Gold.Chemscore.DEInternal.Weighted>
2.9821

> <Gold.Chemscore.Rot.Weighted>
4.2774

> <Gold.Chemscore.Internal.Correction.Weighted>
   9.000000E+99

> <Gold.Protein.RotatedTorsions>
[ 6907 6896 6895 6894 ] final  -97.82 input  -60.11 | X-H torsion
[ 7974 7965 7964 7962 ] final -141.84 input  175.53 | X-H torsion
[ 8008 7997 7996 7995 ] final   13.79 input   59.86 | X-H torsion
[ 10167 10162 10161 10158 ] final  113.15 input  -65.29 | X-H torsion
[ 10718 10713 10712 10709 ] final  140.01 input   66.30 | X-H torsion
[ 10763 10752 10751 10750 ] final -141.24 input  -60.55 | X-H torsion
[ 11005 11000 10999 10996 ] final  -94.16 input  -57.11 | X-H torsion

> <Gold.Protein.ActiveResidues>
 VAL166  LYS551  ARG553  GLY616  TRP617  ASP618  TYR619  PRO620  LYS621  CYS622 
 ASP623  PHE694  ASN695  SER759  ASP760  ASP761  ALA762  ILE779  LEU786  VAL792 
 PHE793  MET794  SER795  GLU796  ALA797  LYS798  CYS799  TRP800  GLU811  SER814 

> <Gold.Protein.RotatedAtoms>
  150.7027  134.1290  159.4062 H   0  0  0  0  0  0  0  0  0  0  0  0  # atno 6907 bound_to 6896
  151.9276  135.0268  160.0536 H   0  0  0  0  0  0  0  0  0  0  0  0  # atno 6908 bound_to 6896
  152.2203  133.4943  159.5195 H   0  0  0  0  0  0  0  0  0  0  0  0  # atno 6909 bound_to 6896
  144.8488  140.6030  143.5403 H   0  0  0  0  0  0  0  0  0  0  0  0  # atno 7974 bound_to 7965
  154.8394  140.2912  155.5669 H   0  0  0  0  0  0  0  0  0  0  0  0  # atno 8008 bound_to 7997
  156.3011  140.2517  156.3265 H   0  0  0  0  0  0  0  0  0  0  0  0  # atno 8009 bound_to 7997
  154.9142  140.0387  157.1952 H   0  0  0  0  0  0  0  0  0  0  0  0  # atno 8010 bound_to 7997
  139.6483  144.7127  151.2099 H   0  0  0  0  0  0  0  0  0  0  0  0  # atno 10167 bound_to 10162
  157.4080  131.1024  151.0483 H   0  0  0  0  0  0  0  0  0  0  0  0  # atno 10718 bound_to 10713
  154.8552  135.3530  154.5837 H   0  0  0  0  0  0  0  0  0  0  0  0  # atno 10763 bound_to 10752
  153.6447  135.6997  153.5234 H   0  0  0  0  0  0  0  0  0  0  0  0  # atno 10764 bound_to 10752
  153.2942  135.4225  155.1153 H   0  0  0  0  0  0  0  0  0  0  0  0  # atno 10765 bound_to 10752
  141.1478  133.7937  157.0260 H   0  0  0  0  0  0  0  0  0  0  0  0  # atno 11005 bound_to 11000
  145.4541  139.1520  143.3902 LP  0  0  0  0  0  0  0  0  0  0  0  0  # atno 17320 bound_to 7965
  146.2767  140.4669  142.8792 LP  0  0  0  0  0  0  0  0  0  0  0  0  # atno 17321 bound_to 7965
  140.7525  143.6193  150.8528 LP  0  0  0  0  0  0  0  0  0  0  0  0  # atno 17342 bound_to 10162
  139.9839  143.5921  152.2933 LP  0  0  0  0  0  0  0  0  0  0  0  0  # atno 17343 bound_to 10162
  157.1458  130.6163  149.5568 LP  0  0  0  0  0  0  0  0  0  0  0  0  # atno 17370 bound_to 10713
  155.9842  130.4866  150.6972 LP  0  0  0  0  0  0  0  0  0  0  0  0  # atno 17371 bound_to 10713
  140.0785  134.9662  157.1585 LP  0  0  0  0  0  0  0  0  0  0  0  0  # atno 17394 bound_to 11000
  140.3610  134.2494  155.7187 LP  0  0  0  0  0  0  0  0  0  0  0  0  # atno 17395 bound_to 11000

$$$$
