AV-unprocessed.smi:1999|AV-procd|sdf|8096|dock8
  -GOLD-   2272010313D 1   1.00000     0.00000
 Structure written by MMmdl.
 37 38  0  0  0  0  0  0  0  0  2 V2000
  151.7676  141.6508  154.4056 C   0  0  0  0  0  0  0  0  0  0  0  0
  151.9039  140.1670  154.4315 C   0  0  0  0  0  0  0  0  0  0  0  0
  152.8364  139.5143  153.7336 N   0  0  0  0  0  0  0  0  0  0  0  0
  152.7656  138.1418  153.9232 N   0  0  0  0  0  0  0  0  0  0  0  0
  151.7909  137.7769  154.7682 C   0  0  0  0  0  0  0  0  0  0  0  0
  151.5561  136.4929  155.0853 N   0  5  0  0  0  0  0  0  0  0  0  0
  150.4490  135.8730  154.6166 C   0  0  0  0  0  0  0  0  0  0  0  0
  149.5396  136.3954  153.9679 O   0  0  0  0  0  0  0  0  0  0  0  0
  150.3927  134.5676  154.9182 N   0  0  0  0  0  0  0  0  0  0  0  0
  149.3331  133.6366  154.5331 C   0  0  2  0  0  0  0  0  0  0  0  0
  149.5703  132.2674  155.1888 C   0  0  0  0  0  0  0  0  0  0  0  0
  149.2721  133.5150  152.9964 C   0  0  0  0  0  0  0  0  0  0  0  0
  147.9954  133.0576  152.4434 N   0  0  0  0  0  0  0  0  0  0  0  0
  147.7209  131.6527  152.7361 C   0  0  0  0  0  0  0  0  0  0  0  0
  146.3876  131.1894  152.1238 C   0  0  0  0  0  0  0  0  0  0  0  0
  146.3959  131.4258  150.7197 O   0  0  0  0  0  0  0  0  0  0  0  0
  146.6113  132.7957  150.3969 C   0  0  0  0  0  0  0  0  0  0  0  0
  147.9475  133.2620  151.0001 C   0  0  0  0  0  0  0  0  0  0  0  0
  150.8531  139.1358  155.3878 S   0  0  0  0  0  0  0  0  0  0  0  0
  152.4528  142.0992  155.1249 H   0  0  0  0  0  0  0  0  0  0  0  0
  150.7488  141.9408  154.6632 H   0  0  0  0  0  0  0  0  0  0  0  0
  151.9984  142.0360  153.4121 H   0  0  0  0  0  0  0  0  0  0  0  0
  151.1623  134.1833  155.4464 H   0  0  0  0  0  0  0  0  0  0  0  0
  148.3735  134.0101  154.8922 H   0  0  0  0  0  0  0  0  0  0  0  0
  148.7847  131.5621  154.9170 H   0  0  0  0  0  0  0  0  0  0  0  0
  149.5775  132.3458  156.2762 H   0  0  0  0  0  0  0  0  0  0  0  0
  150.5245  131.8392  154.8798 H   0  0  0  0  0  0  0  0  0  0  0  0
  149.5013  134.4960  152.5773 H   0  0  0  0  0  0  0  0  0  0  0  0
  150.0715  132.8546  152.6572 H   0  0  0  0  0  0  0  0  0  0  0  0
  148.5308  131.0293  152.3544 H   0  0  0  0  0  0  0  0  0  0  0  0
  147.6802  131.4908  153.8127 H   0  0  0  0  0  0  0  0  0  0  0  0
  146.2365  130.1254  152.3055 H   0  0  0  0  0  0  0  0  0  0  0  0
  145.5491  131.7155  152.5831 H   0  0  0  0  0  0  0  0  0  0  0  0
  146.6248  132.9085  149.3129 H   0  0  0  0  0  0  0  0  0  0  0  0
  145.7852  133.4009  150.7730 H   0  0  0  0  0  0  0  0  0  0  0  0
  148.0959  134.3177  150.7709 H   0  0  0  0  0  0  0  0  0  0  0  0
  148.7661  132.7212  150.5227 H   0  0  0  0  0  0  0  0  0  0  0  0
  1  2  1  0  0  0  0
  1 20  1  0  0  0  0
  1 21  1  0  0  0  0
  1 22  1  0  0  0  0
  2 19  1  0  0  0  0
  2  3  2  0  0  0  0
  3  4  1  0  0  0  0
  4  5  2  0  0  0  0
  5  6  1  0  0  0  0
  5 19  1  0  0  0  0
  6  7  1  0  0  0  0
  7  8  2  0  0  0  0
  7  9  1  0  0  0  0
  9 10  1  0  0  0  0
  9 23  1  0  0  0  0
 10 11  1  0  0  0  0
 10 12  1  0  0  0  0
 10 24  1  0  0  0  0
 11 25  1  0  0  0  0
 11 26  1  0  0  0  0
 11 27  1  0  0  0  0
 12 13  1  0  0  0  0
 12 28  1  0  0  0  0
 12 29  1  0  0  0  0
 13 18  1  0  0  0  0
 13 14  1  0  0  0  0
 14 15  1  0  0  0  0
 14 30  1  0  0  0  0
 14 31  1  0  0  0  0
 15 16  1  0  0  0  0
 15 32  1  0  0  0  0
 15 33  1  0  0  0  0
 16 17  1  0  0  0  0
 17 18  1  0  0  0  0
 17 34  1  0  0  0  0
 17 35  1  0  0  0  0
 18 36  1  0  0  0  0
 18 37  1  0  0  0  0
M  CHG  1   6  -1
M  END
> <s_m_source_file>
AV-unprocessed.smi

> <i_m_source_file_index>
1999

> <i_lp_mmshare_version>
43012

> <i_f3d_flags>
0

> <s_epik_input>
W0NIM11jMW5uYyhzMSlbTkhdQyg9TylbTkhdW0NASF0oW0NIM10pW0NIMl1OMltDSDJdW0NIMl1PW0NIMl1bQ0gyXTI=

> <s_epik_cmdline>
J2VwaWtfcHl0aG9uJywgJy1waCcsICc3LjAnLCAnLXRuJywgJzgnLCAnLW1hJywgJzIwMCcsICctbWV0YWxfYmluZGluZycsICctaW1hZScsICc8aW5maWxlLm1hZT4nLCAnLW9tYWUnLCAnPG91dGZpbGUubWFlPic=

> <r_lp_tautomer_probability>
1

> <r_epik_Ionization_Penalty>
3.74165

> <r_epik_Ionization_Penalty_Charging>
3.28066

> <r_epik_Ionization_Penalty_Neutral>
0.460988

> <r_epik_State_Penalty>
3.48767

> <r_epik_Charging_Adjusted_Penalty>
6.76834

> <i_epik_Tot_Q>
-1

> <i_epik_Tot_abs_Q>
1

> <r_epik_Metal_State_Penalty>
0.700129

> <b_epik_Metal_Only>
1

> <s_lp_Force_Field>
OPLS_2005

> <r_lp_Energy>
23.1925

> <b_lp_Chiralities_Consistent>
1

> <s_lp_Variant>
AV-unprocessed.smi:1999-5

> <Gold.Version>
5.8.1

> <Gold.Id.Protein>
6NUR|6NUR_protein|mol2

> <Gold.PLP.Fitness>
36.0150

> <Gold.PLP.PLP>
-29.2110

> <Gold.PLP.part.hbond>
-2.0000

> <Gold.PLP.part.metal>
0.0000

> <Gold.PLP.part.buried>
-4.6391

> <Gold.PLP.part.nonpolar>
-22.7100

> <Gold.PLP.part.repulsive>
0.7589

> <Gold.PLP.ligand.clash>
0.0000

> <Gold.PLP.ligand.torsion>
0.9734

> <Gold.PLP.Chemscore.Hbond>
2.8960

> <Gold.PLP.Chemscore.CHOScore>
0.0000

> <Gold.PLP.Chemscore.Metal>
0.0000

> <Gold.Chemscore.Hbonds>
donor molecule, donor type, donor heavy atom, donor atom, acceptor molecule, acceptor atom, score
      P1  H 10752 10765       L1     6  2.00

> <Gold.PLP.Chemscore.Internal.Correction>
0.0628

> <Gold.Rescore>
     Score         DG    S(hbond)    S(metal)    S(lipo)     H(rot)  DE(clash)    DE(int)     intcor
     12.94     -14.54       1.89        0.00      57.51       1.56       0.13       1.47       ----

> <Gold.Chemscore.Fitness>
12.9434

> <Gold.Chemscore.DG>
-14.5383

> <Gold.Chemscore.ZeroCoef>
-5.4800

> <Gold.Chemscore.Hbond>
1.8897

> <Gold.Chemscore.Metal>
0.0000

> <Gold.Chemscore.Lipo>
57.5117

> <Gold.Chemscore.Internal_Hbond>
0.0000

> <Gold.Chemscore.DEClash>
0.1258

> <Gold.Chemscore.DEInternal>
1.4691

> <Gold.Chemscore.Rot>
1.5556

> <Gold.Chemscore.Internal.Correction>
   9.000000E+99

> <Gold.Chemscore.Hbonds>
donor molecule, donor type, donor heavy atom, donor atom, acceptor molecule, acceptor atom, score
      P1  H 10752 10765       L1     6  0.55

> <Gold.Chemscore.Hbond.Weighted>
-6.3117

> <Gold.Chemscore.Metal.Weighted>
-0.0000

> <Gold.Chemscore.Lipo.Weighted>
-6.7289

> <Gold.Chemscore.Internal_Hbond.Weighted>
0.0000

> <Gold.Chemscore.DEClash.Weighted>
0.1258

> <Gold.Chemscore.DEInternal.Weighted>
1.4691

> <Gold.Chemscore.Rot.Weighted>
3.9823

> <Gold.Chemscore.Internal.Correction.Weighted>
   9.000000E+99

> <Gold.Protein.RotatedTorsions>
[ 6907 6896 6895 6894 ] final -173.02 input  -60.11 | X-H torsion
[ 7974 7965 7964 7962 ] final  120.23 input  175.53 | X-H torsion
[ 8008 7997 7996 7995 ] final  -96.52 input   59.86 | X-H torsion
[ 10167 10162 10161 10158 ] final  103.37 input  -65.29 | X-H torsion
[ 10718 10713 10712 10709 ] final   -6.48 input   66.30 | X-H torsion
[ 10763 10752 10751 10750 ] final -169.92 input  -60.55 | X-H torsion
[ 11005 11000 10999 10996 ] final -159.20 input  -57.11 | X-H torsion

> <Gold.Protein.ActiveResidues>
 VAL166  LYS551  ARG553  GLY616  TRP617  ASP618  TYR619  PRO620  LYS621  CYS622 
 ASP623  PHE694  ASN695  SER759  ASP760  ASP761  ALA762  ILE779  LEU786  VAL792 
 PHE793  MET794  SER795  GLU796  ALA797  LYS798  CYS799  TRP800  GLU811  SER814 

> <Gold.Protein.RotatedAtoms>
  151.5493  133.3420  159.2949 H   0  0  0  0  0  0  0  0  0  0  0  0  # atno 6907 bound_to 6896
  150.8488  134.7809  159.7003 H   0  0  0  0  0  0  0  0  0  0  0  0  # atno 6908 bound_to 6896
  152.4539  134.5341  159.9871 H   0  0  0  0  0  0  0  0  0  0  0  0  # atno 6909 bound_to 6896
  145.1337  139.3311  143.4652 H   0  0  0  0  0  0  0  0  0  0  0  0  # atno 7974 bound_to 7965
  154.7755  140.0470  157.1086 H   0  0  0  0  0  0  0  0  0  0  0  0  # atno 8008 bound_to 7997
  154.9768  140.3096  155.4944 H   0  0  0  0  0  0  0  0  0  0  0  0  # atno 8009 bound_to 7997
  156.2928  140.2243  156.4864 H   0  0  0  0  0  0  0  0  0  0  0  0  # atno 8010 bound_to 7997
  139.7268  144.7045  151.0784 H   0  0  0  0  0  0  0  0  0  0  0  0  # atno 10167 bound_to 10162
  156.7313  130.5181  149.5845 H   0  0  0  0  0  0  0  0  0  0  0  0  # atno 10718 bound_to 10713
  154.6471  135.2906  155.0033 H   0  0  0  0  0  0  0  0  0  0  0  0  # atno 10763 bound_to 10752
  154.1139  135.6558  153.4894 H   0  0  0  0  0  0  0  0  0  0  0  0  # atno 10764 bound_to 10752
  153.0356  135.5271  154.7363 H   0  0  0  0  0  0  0  0  0  0  0  0  # atno 10765 bound_to 10752
  140.6452  134.4509  157.5234 H   0  0  0  0  0  0  0  0  0  0  0  0  # atno 11005 bound_to 11000
  146.3511  140.1346  142.8596 LP  0  0  0  0  0  0  0  0  0  0  0  0  # atno 17320 bound_to 7965
  145.0608  140.9086  143.4940 LP  0  0  0  0  0  0  0  0  0  0  0  0  # atno 17321 bound_to 7965
  140.7764  143.5094  150.9671 LP  0  0  0  0  0  0  0  0  0  0  0  0  # atno 17342 bound_to 10162
  139.8782  143.7106  152.3160 LP  0  0  0  0  0  0  0  0  0  0  0  0  # atno 17343 bound_to 10162
  156.1527  130.6321  151.0617 LP  0  0  0  0  0  0  0  0  0  0  0  0  # atno 17370 bound_to 10713
  157.6858  131.0825  150.7247 LP  0  0  0  0  0  0  0  0  0  0  0  0  # atno 17371 bound_to 10713
  139.9065  134.8437  156.1685 LP  0  0  0  0  0  0  0  0  0  0  0  0  # atno 17394 bound_to 11000
  141.0577  133.6857  156.1892 LP  0  0  0  0  0  0  0  0  0  0  0  0  # atno 17395 bound_to 11000

$$$$
