AV-unprocessed.smi:865|AV-procd|sdf|3990|dock5
  -GOLD-   22720 1463D 1   1.00000     0.00000
 Structure written by MMmdl.
 36 36  0  0  0  0  0  0  0  0  1 V2000
  152.7409  142.8622  161.4769 C   0  0  0  0  0  0  0  0  0  0  0  0
  153.6130  142.5483  160.2519 C   0  0  0  0  0  0  0  0  0  0  0  0
  152.8288  142.4277  158.9192 C   0  0  0  0  0  0  0  0  0  0  0  0
  151.7390  143.5239  158.7997 C   0  0  0  0  0  0  0  0  0  0  0  0
  152.2796  144.9517  158.6286 C   0  0  0  0  0  0  0  0  0  0  0  0
  152.2564  140.9992  158.6961 C   0  0  2  0  0  0  0  0  0  0  0  0
  153.3288  140.0800  158.6087 O   0  0  0  0  0  0  0  0  0  0  0  0
  151.3833  140.8748  157.4267 C   0  0  0  0  0  0  0  0  0  0  0  0
  151.7595  139.7108  156.6329 N   0  0  0  0  0  0  0  0  0  0  0  0
  151.4028  139.4974  155.3571 C   0  0  0  0  0  0  0  0  0  0  0  0
  150.6535  140.2409  154.7247 O   0  0  0  0  0  0  0  0  0  0  0  0
  151.9968  138.2611  154.6835 C   0  0  0  0  0  0  0  0  0  0  0  0
  151.4209  137.0503  155.2375 N   0  0  0  0  0  0  0  0  0  0  0  0
  150.2428  136.4611  155.0220 C   0  0  0  0  0  0  0  0  0  0  0  0
  150.1179  135.3467  155.7266 N   0  0  0  0  0  0  0  0  0  0  0  0
  151.3185  135.2718  156.4131 N   0  0  0  0  0  0  0  0  0  0  0  0
  152.0959  136.2796  156.1266 N   0  0  0  0  0  0  0  0  0  0  0  0
  153.3639  143.0329  162.3551 H   0  0  0  0  0  0  0  0  0  0  0  0
  152.0632  142.0445  161.7190 H   0  0  0  0  0  0  0  0  0  0  0  0
  152.1444  143.7606  161.3172 H   0  0  0  0  0  0  0  0  0  0  0  0
  154.3505  143.3461  160.1765 H   0  0  0  0  0  0  0  0  0  0  0  0
  154.1811  141.6358  160.4356 H   0  0  0  0  0  0  0  0  0  0  0  0
  153.5430  142.6061  158.1140 H   0  0  0  0  0  0  0  0  0  0  0  0
  151.0582  143.2916  157.9804 H   0  0  0  0  0  0  0  0  0  0  0  0
  151.1253  143.5259  159.6992 H   0  0  0  0  0  0  0  0  0  0  0  0
  151.4674  145.6768  158.6834 H   0  0  0  0  0  0  0  0  0  0  0  0
  152.7681  145.0919  157.6649 H   0  0  0  0  0  0  0  0  0  0  0  0
  152.9959  145.1997  159.4123 H   0  0  0  0  0  0  0  0  0  0  0  0
  151.6438  140.7249  159.5545 H   0  0  0  0  0  0  0  0  0  0  0  0
  153.2153  139.4223  159.2777 H   0  0  0  0  0  0  0  0  0  0  0  0
  150.3432  140.7172  157.7132 H   0  0  0  0  0  0  0  0  0  0  0  0
  151.3980  141.7879  156.8288 H   0  0  0  0  0  0  0  0  0  0  0  0
  152.3766  139.0419  157.0706 H   0  0  0  0  0  0  0  0  0  0  0  0
  151.8175  138.2936  153.6077 H   0  0  0  0  0  0  0  0  0  0  0  0
  153.0771  138.2351  154.8318 H   0  0  0  0  0  0  0  0  0  0  0  0
  149.4871  136.8425  154.3514 H   0  0  0  0  0  0  0  0  0  0  0  0
  1  2  1  0  0  0  0
  1 18  1  0  0  0  0
  1 19  1  0  0  0  0
  1 20  1  0  0  0  0
  2  3  1  0  0  0  0
  2 21  1  0  0  0  0
  2 22  1  0  0  0  0
  3  4  1  0  0  0  0
  3  6  1  0  0  0  0
  3 23  1  0  0  0  0
  4  5  1  0  0  0  0
  4 24  1  0  0  0  0
  4 25  1  0  0  0  0
  5 26  1  0  0  0  0
  5 27  1  0  0  0  0
  5 28  1  0  0  0  0
  6  7  1  0  0  0  0
  6  8  1  0  0  0  0
  6 29  1  0  0  0  0
  7 30  1  0  0  0  0
  8  9  1  0  0  0  0
  8 31  1  0  0  0  0
  8 32  1  0  0  0  0
  9 10  1  0  0  0  0
  9 33  1  0  0  0  0
 10 11  2  0  0  0  0
 10 12  1  0  0  0  0
 12 13  1  0  0  0  0
 12 34  1  0  0  0  0
 12 35  1  0  0  0  0
 13 17  1  0  0  0  0
 13 14  1  0  0  0  0
 14 15  2  0  0  0  0
 14 36  1  0  0  0  0
 15 16  1  0  0  0  0
 16 17  2  0  0  0  0
M  END
> <s_m_source_file>
AV-unprocessed.smi

> <i_m_source_file_index>
865

> <i_lp_mmshare_version>
43012

> <i_f3d_flags>
0

> <s_epik_input>
W0NIM11bQ0gyXVtDSF0oW0NIMl1bQ0gzXSlbQ0BIXShbT0hdKVtDSDJdW05IXUMoPU8pW0NIMl1uMVtjSF1ubm4x

> <s_epik_cmdline>
J2VwaWtfcHl0aG9uJywgJy1waCcsICc3LjAnLCAnLXRuJywgJzgnLCAnLW1hJywgJzIwMCcsICctbWV0YWxfYmluZGluZycsICctaW1hZScsICc8aW5maWxlLm1hZT4nLCAnLW9tYWUnLCAnPG91dGZpbGUubWFlPic=

> <r_lp_tautomer_probability>
1

> <r_epik_Ionization_Penalty>
9.39891e-07

> <r_epik_Ionization_Penalty_Charging>
0

> <r_epik_Ionization_Penalty_Neutral>
9.39891e-07

> <r_epik_State_Penalty>
-0

> <r_epik_Charging_Adjusted_Penalty>
0

> <i_epik_Tot_Q>
0

> <i_epik_Tot_abs_Q>
0

> <r_epik_Metal_State_Penalty>
-0

> <b_epik_Metal_Only>
0

> <s_lp_Force_Field>
OPLS_2005

> <r_lp_Energy>
13.4574

> <b_lp_Chiralities_Consistent>
1

> <s_lp_Variant>
AV-unprocessed.smi:865-1

> <Gold.Version>
5.8.1

> <Gold.Id.Protein>
6NUR|6NUR_protein|mol2

> <Gold.PLP.Fitness>
45.8814

> <Gold.PLP.PLP>
-36.7545

> <Gold.PLP.part.hbond>
-3.1274

> <Gold.PLP.part.metal>
0.0000

> <Gold.PLP.part.buried>
-4.3072

> <Gold.PLP.part.nonpolar>
-29.3307

> <Gold.PLP.part.repulsive>
0.3062

> <Gold.PLP.ligand.clash>
0.0000

> <Gold.PLP.ligand.torsion>
1.4767

> <Gold.PLP.Chemscore.Hbond>
3.0000

> <Gold.PLP.Chemscore.CHOScore>
0.9257

> <Gold.PLP.Chemscore.Metal>
0.0000

> <Gold.Chemscore.Hbonds>
donor molecule, donor type, donor heavy atom, donor atom, acceptor molecule, acceptor atom, score
      P1  H  7989  7998       L1    11  1.00
      P1  H  7997  8008       L1     7  1.00
      P1  H 10752 10765       L1    17  0.81
      L1  C    14    36       P1  7948  0.83

> <Gold.PLP.Chemscore.Internal.Correction>
0.3031

> <Gold.Rescore>
     Score         DG    S(hbond)    S(metal)    S(lipo)     H(rot)  DE(clash)    DE(int)     intcor
     11.22     -12.59       2.28        0.00      78.66       3.80       0.01       1.37       ----

> <Gold.Chemscore.Fitness>
11.2161

> <Gold.Chemscore.DG>
-12.5872

> <Gold.Chemscore.ZeroCoef>
-5.4800

> <Gold.Chemscore.Hbond>
2.2823

> <Gold.Chemscore.Metal>
0.0000

> <Gold.Chemscore.Lipo>
78.6602

> <Gold.Chemscore.Internal_Hbond>
0.0000

> <Gold.Chemscore.DEClash>
0.0060

> <Gold.Chemscore.DEInternal>
1.3651

> <Gold.Chemscore.Rot>
3.7964

> <Gold.Chemscore.Internal.Correction>
   9.000000E+99

> <Gold.Chemscore.Hbonds>
donor molecule, donor type, donor heavy atom, donor atom, acceptor molecule, acceptor atom, score
      P1  H  7989  7998       L1    11  0.50
      P1  H  7997  8008       L1     7  0.90
      P1  H 10752 10765       L1    17  0.03

> <Gold.Chemscore.Hbond.Weighted>
-7.6228

> <Gold.Chemscore.Metal.Weighted>
-0.0000

> <Gold.Chemscore.Lipo.Weighted>
-9.2032

> <Gold.Chemscore.Internal_Hbond.Weighted>
0.0000

> <Gold.Chemscore.DEClash.Weighted>
0.0060

> <Gold.Chemscore.DEInternal.Weighted>
1.3651

> <Gold.Chemscore.Rot.Weighted>
9.7188

> <Gold.Chemscore.Internal.Correction.Weighted>
   9.000000E+99

> <Gold.Protein.RotatedTorsions>
[ 6907 6896 6895 6894 ] final   61.92 input  -60.11 | X-H torsion
[ 7974 7965 7964 7962 ] final -141.39 input  175.53 | X-H torsion
[ 8008 7997 7996 7995 ] final  -87.62 input   59.86 | X-H torsion
[ 10167 10162 10161 10158 ] final   30.79 input  -65.29 | X-H torsion
[ 10718 10713 10712 10709 ] final -160.98 input   66.30 | X-H torsion
[ 10763 10752 10751 10750 ] final -153.48 input  -60.55 | X-H torsion
[ 11005 11000 10999 10996 ] final   -4.74 input  -57.11 | X-H torsion

> <Gold.Protein.ActiveResidues>
 VAL166  LYS551  ARG553  GLY616  TRP617  ASP618  TYR619  PRO620  LYS621  CYS622 
 ASP623  PHE694  ASN695  SER759  ASP760  ASP761  ALA762  ILE779  LEU786  VAL792 
 PHE793  MET794  SER795  GLU796  ALA797  LYS798  CYS799  TRP800  GLU811  SER814 

> <Gold.Protein.RotatedAtoms>
  152.4129  134.6092  160.0020 H   0  0  0  0  0  0  0  0  0  0  0  0  # atno 6907 bound_to 6896
  151.6264  133.3329  159.3107 H   0  0  0  0  0  0  0  0  0  0  0  0  # atno 6908 bound_to 6896
  150.8019  134.7159  159.6675 H   0  0  0  0  0  0  0  0  0  0  0  0  # atno 6909 bound_to 6896
  144.8523  140.6085  143.5382 H   0  0  0  0  0  0  0  0  0  0  0  0  # atno 7974 bound_to 7965
  154.6653  140.0563  157.0107 H   0  0  0  0  0  0  0  0  0  0  0  0  # atno 8008 bound_to 7997
  155.1168  140.3243  155.4489 H   0  0  0  0  0  0  0  0  0  0  0  0  # atno 8009 bound_to 7997
  156.2635  140.2004  156.6291 H   0  0  0  0  0  0  0  0  0  0  0  0  # atno 8010 bound_to 7997
  140.4647  144.0854  150.6221 H   0  0  0  0  0  0  0  0  0  0  0  0  # atno 10167 bound_to 10162
  156.5897  130.8765  151.2886 H   0  0  0  0  0  0  0  0  0  0  0  0  # atno 10718 bound_to 10713
  154.7925  135.3212  154.7744 H   0  0  0  0  0  0  0  0  0  0  0  0  # atno 10763 bound_to 10752
  153.8430  135.6869  153.4805 H   0  0  0  0  0  0  0  0  0  0  0  0  # atno 10764 bound_to 10752
  153.1601  135.4664  154.9701 H   0  0  0  0  0  0  0  0  0  0  0  0  # atno 10765 bound_to 10752
  140.6836  133.9132  155.8571 H   0  0  0  0  0  0  0  0  0  0  0  0  # atno 11005 bound_to 11000
  145.4476  139.1527  143.3936 LP  0  0  0  0  0  0  0  0  0  0  0  0  # atno 17320 bound_to 7965
  146.2795  140.4600  142.8782 LP  0  0  0  0  0  0  0  0  0  0  0  0  # atno 17321 bound_to 7965
  140.4051  143.2684  151.9901 LP  0  0  0  0  0  0  0  0  0  0  0  0  # atno 17342 bound_to 10162
  139.4810  144.5964  151.7683 LP  0  0  0  0  0  0  0  0  0  0  0  0  # atno 17343 bound_to 10162
  157.7306  130.9688  150.1843 LP  0  0  0  0  0  0  0  0  0  0  0  0  # atno 17370 bound_to 10713
  156.2560  130.3705  149.8181 LP  0  0  0  0  0  0  0  0  0  0  0  0  # atno 17371 bound_to 10713
  141.0298  134.0772  157.4027 LP  0  0  0  0  0  0  0  0  0  0  0  0  # atno 17394 bound_to 11000
  139.8944  135.0136  156.6950 LP  0  0  0  0  0  0  0  0  0  0  0  0  # atno 17395 bound_to 11000

$$$$
