AV-unprocessed.smi:1575|AV-procd|sdf|6340|dock5
  -GOLD-   22720 6553D 1   1.00000     0.00000
 Structure written by MMmdl.
 41 41  0  0  0  0  0  0  0  0  1 V2000
  150.0785  133.7832  154.5186 C   0  0  0  0  0  0  0  0  0  0  0  0
  149.6421  135.1536  154.3015 N   0  0  0  0  0  0  0  0  0  0  0  0
  149.4871  136.0597  155.2773 C   0  0  0  0  0  0  0  0  0  0  0  0
  149.6940  135.8091  156.4661 O   0  0  0  0  0  0  0  0  0  0  0  0
  149.0046  137.4537  154.8400 C   0  0  1  0  0  0  0  0  0  0  0  0
  150.2190  138.2139  154.2556 C   0  0  0  0  0  0  0  0  0  0  0  0
  151.1487  138.8706  155.3019 C   0  0  0  0  0  0  0  0  0  0  0  0
  150.6567  140.2836  155.6495 C   0  0  0  0  0  0  0  0  0  0  0  0
  152.6148  138.9140  154.8396 C   0  0  0  0  0  0  0  0  0  0  0  0
  147.9845  137.3261  153.7989 N   0  0  0  0  0  0  0  0  0  0  0  0
  146.6598  137.4086  153.9960 C   0  0  0  0  0  0  0  0  0  0  0  0
  146.1554  137.6456  155.0946 O   0  0  0  0  0  0  0  0  0  0  0  0
  145.7785  137.2112  152.7550 C   0  0  0  0  0  0  0  0  0  0  0  0
  144.5498  136.4579  153.0440 N   0  0  0  0  0  0  0  0  0  0  0  0
  143.3065  137.0159  152.7824 C   0  0  0  0  0  0  0  0  0  0  0  0
  142.1367  136.3838  153.0388 C   0  0  0  0  0  0  0  0  0  0  0  0
  142.1322  135.0458  153.6204 C   0  0  0  0  0  0  0  0  0  0  0  0
  141.1264  134.3923  153.8882 O   0  0  0  0  0  0  0  0  0  0  0  0
  143.4020  134.5191  153.8700 N   0  0  0  0  0  0  0  0  0  0  0  0
  144.6113  135.1653  153.6090 C   0  0  0  0  0  0  0  0  0  0  0  0
  145.6780  134.6107  153.8714 O   0  0  0  0  0  0  0  0  0  0  0  0
  143.4492  133.5954  154.2747 H   0  0  0  0  0  0  0  0  0  0  0  0
  150.0752  133.2383  153.5746 H   0  0  0  0  0  0  0  0  0  0  0  0
  149.4127  133.2674  155.2117 H   0  0  0  0  0  0  0  0  0  0  0  0
  151.0908  133.7589  154.9240 H   0  0  0  0  0  0  0  0  0  0  0  0
  149.4498  135.4329  153.3504 H   0  0  0  0  0  0  0  0  0  0  0  0
  148.6014  137.9840  155.7042 H   0  0  0  0  0  0  0  0  0  0  0  0
  150.8138  137.5350  153.6422 H   0  0  0  0  0  0  0  0  0  0  0  0
  149.8588  138.9868  153.5739 H   0  0  0  0  0  0  0  0  0  0  0  0
  151.1072  138.2872  156.2222 H   0  0  0  0  0  0  0  0  0  0  0  0
  150.6790  140.9374  154.7769 H   0  0  0  0  0  0  0  0  0  0  0  0
  151.2783  140.7379  156.4219 H   0  0  0  0  0  0  0  0  0  0  0  0
  149.6332  140.2637  156.0247 H   0  0  0  0  0  0  0  0  0  0  0  0
  152.7167  139.4462  153.8932 H   0  0  0  0  0  0  0  0  0  0  0  0
  153.0259  137.9134  154.7075 H   0  0  0  0  0  0  0  0  0  0  0  0
  153.2417  139.4212  155.5736 H   0  0  0  0  0  0  0  0  0  0  0  0
  148.3129  137.1267  152.8653 H   0  0  0  0  0  0  0  0  0  0  0  0
  145.5367  138.1960  152.3525 H   0  0  0  0  0  0  0  0  0  0  0  0
  146.3470  136.7100  151.9685 H   0  0  0  0  0  0  0  0  0  0  0  0
  143.2610  138.0076  152.3555 H   0  0  0  0  0  0  0  0  0  0  0  0
  141.1993  136.8712  152.8134 H   0  0  0  0  0  0  0  0  0  0  0  0
  1  2  1  0  0  0  0
  1 23  1  0  0  0  0
  1 24  1  0  0  0  0
  1 25  1  0  0  0  0
  2  3  1  0  0  0  0
  2 26  1  0  0  0  0
  3  4  2  0  0  0  0
  3  5  1  0  0  0  0
  5  6  1  0  0  0  0
  5 10  1  0  0  0  0
  5 27  1  0  0  0  0
  6  7  1  0  0  0  0
  6 28  1  0  0  0  0
  6 29  1  0  0  0  0
  7  8  1  0  0  0  0
  7  9  1  0  0  0  0
  7 30  1  0  0  0  0
  8 31  1  0  0  0  0
  8 32  1  0  0  0  0
  8 33  1  0  0  0  0
  9 34  1  0  0  0  0
  9 35  1  0  0  0  0
  9 36  1  0  0  0  0
 10 11  1  0  0  0  0
 10 37  1  0  0  0  0
 11 12  2  0  0  0  0
 11 13  1  0  0  0  0
 13 14  1  0  0  0  0
 13 38  1  0  0  0  0
 13 39  1  0  0  0  0
 14 20  1  0  0  0  0
 14 15  1  0  0  0  0
 15 16  2  0  0  0  0
 15 40  1  0  0  0  0
 16 17  1  0  0  0  0
 16 41  1  0  0  0  0
 17 18  2  0  0  0  0
 17 19  1  0  0  0  0
 19 22  1  0  0  0  0
 19 20  1  0  0  0  0
 20 21  2  0  0  0  0
M  END
> <s_m_source_file>
AV-unprocessed.smi

> <i_m_source_file_index>
1575

> <i_lp_mmshare_version>
43012

> <i_f3d_flags>
0

> <s_epik_input>
W0NIM11bTkhdQyg9TylbQ0BIXShbQ0gyXVtDSF0oW0NIM10pW0NIM10pW05IXUMoPU8pW0NIMl1uMVtjSF1bY0hdYyg9TylbbkhdYzE9Tw==

> <s_epik_cmdline>
J2VwaWtfcHl0aG9uJywgJy1waCcsICc3LjAnLCAnLXRuJywgJzgnLCAnLW1hJywgJzIwMCcsICctbWV0YWxfYmluZGluZycsICctaW1hZScsICc8aW5maWxlLm1hZT4nLCAnLW9tYWUnLCAnPG91dGZpbGUubWFlPic=

> <r_lp_tautomer_probability>
0.999537

> <r_epik_Ionization_Penalty>
0.00357166

> <r_epik_Ionization_Penalty_Charging>
0.00357161

> <r_epik_Ionization_Penalty_Neutral>
5.44484e-08

> <r_epik_State_Penalty>
0.00253761

> <r_epik_Charging_Adjusted_Penalty>
0.00610921

> <i_epik_Tot_Q>
0

> <i_epik_Tot_abs_Q>
0

> <r_epik_Metal_State_Penalty>
0.368734

> <b_epik_Metal_Only>
0

> <s_lp_Force_Field>
OPLS_2005

> <r_lp_Energy>
5.11716

> <b_lp_Chiralities_Consistent>
1

> <s_lp_Variant>
AV-unprocessed.smi:1575-2

> <Gold.Version>
5.8.1

> <Gold.Id.Protein>
6NUR|6NUR_protein|mol2

> <Gold.PLP.Fitness>
43.4393

> <Gold.PLP.PLP>
-29.3128

> <Gold.PLP.part.hbond>
-4.8753

> <Gold.PLP.part.metal>
0.0000

> <Gold.PLP.part.buried>
-6.6291

> <Gold.PLP.part.nonpolar>
-20.4446

> <Gold.PLP.part.repulsive>
0.3705

> <Gold.PLP.ligand.clash>
0.0000

> <Gold.PLP.ligand.torsion>
1.7129

> <Gold.PLP.Chemscore.Hbond>
3.8288

> <Gold.PLP.Chemscore.CHOScore>
1.9998

> <Gold.PLP.Chemscore.Metal>
0.0000

> <Gold.Chemscore.Hbonds>
donor molecule, donor type, donor heavy atom, donor atom, acceptor molecule, acceptor atom, score
      L1  H     2    26       P1  7948  0.75
      L1  H    10    37       P1  7948  0.88
      L1  H    19    22       P1 10957  0.94
      P1  H 11000 11005       L1    18  1.00
      L1  C    15    40       P1 10171  0.61
      L1  C    15    40       P1 10175  1.00

> <Gold.PLP.Chemscore.Internal.Correction>
0.0667

> <Gold.Rescore>
     Score         DG    S(hbond)    S(metal)    S(lipo)     H(rot)  DE(clash)    DE(int)     intcor
     13.27     -15.98       3.60        0.00      48.32       2.81       0.03       2.68       ----

> <Gold.Chemscore.Fitness>
13.2710

> <Gold.Chemscore.DG>
-15.9820

> <Gold.Chemscore.ZeroCoef>
-5.4800

> <Gold.Chemscore.Hbond>
3.6033

> <Gold.Chemscore.Metal>
0.0000

> <Gold.Chemscore.Lipo>
48.3208

> <Gold.Chemscore.Internal_Hbond>
0.0000

> <Gold.Chemscore.DEClash>
0.0331

> <Gold.Chemscore.DEInternal>
2.6779

> <Gold.Chemscore.Rot>
2.8072

> <Gold.Chemscore.Internal.Correction>
   9.000000E+99

> <Gold.Chemscore.Hbonds>
donor molecule, donor type, donor heavy atom, donor atom, acceptor molecule, acceptor atom, score
      L1  H     2    26       P1  7948  0.09
      L1  H    10    37       P1  7948  0.83
      L1  H    19    22       P1 10957  0.88
      P1  H 11000 11005       L1    18  0.95

> <Gold.Chemscore.Hbond.Weighted>
-12.0349

> <Gold.Chemscore.Metal.Weighted>
-0.0000

> <Gold.Chemscore.Lipo.Weighted>
-5.6535

> <Gold.Chemscore.Internal_Hbond.Weighted>
0.0000

> <Gold.Chemscore.DEClash.Weighted>
0.0331

> <Gold.Chemscore.DEInternal.Weighted>
2.6779

> <Gold.Chemscore.Rot.Weighted>
7.1864

> <Gold.Chemscore.Internal.Correction.Weighted>
   9.000000E+99

> <Gold.Protein.RotatedTorsions>
[ 6907 6896 6895 6894 ] final   57.21 input  -60.11 | X-H torsion
[ 7974 7965 7964 7962 ] final  102.57 input  175.53 | X-H torsion
[ 8008 7997 7996 7995 ] final   13.75 input   59.86 | X-H torsion
[ 10167 10162 10161 10158 ] final -121.57 input  -65.29 | X-H torsion
[ 10718 10713 10712 10709 ] final  -11.33 input   66.30 | X-H torsion
[ 10763 10752 10751 10750 ] final   56.52 input  -60.55 | X-H torsion
[ 11005 11000 10999 10996 ] final    0.12 input  -57.11 | X-H torsion

> <Gold.Protein.ActiveResidues>
 VAL166  LYS551  ARG553  GLY616  TRP617  ASP618  TYR619  PRO620  LYS621  CYS622 
 ASP623  PHE694  ASN695  SER759  ASP760  ASP761  ALA762  ILE779  LEU786  VAL792 
 PHE793  MET794  SER795  GLU796  ALA797  LYS798  CYS799  TRP800  GLU811  SER814 

> <Gold.Protein.RotatedAtoms>
  152.3710  134.6734  160.0175 H   0  0  0  0  0  0  0  0  0  0  0  0  # atno 6907 bound_to 6896
  151.7027  133.3306  159.3279 H   0  0  0  0  0  0  0  0  0  0  0  0  # atno 6908 bound_to 6896
  150.7673  134.6536  159.6346 H   0  0  0  0  0  0  0  0  0  0  0  0  # atno 6909 bound_to 6896
  145.3574  139.2425  143.3525 H   0  0  0  0  0  0  0  0  0  0  0  0  # atno 7974 bound_to 7965
  154.8389  140.2911  155.5672 H   0  0  0  0  0  0  0  0  0  0  0  0  # atno 8008 bound_to 7997
  156.3010  140.2518  156.3259 H   0  0  0  0  0  0  0  0  0  0  0  0  # atno 8009 bound_to 7997
  154.9148  140.0387  157.1955 H   0  0  0  0  0  0  0  0  0  0  0  0  # atno 8010 bound_to 7997
  140.0236  143.5319  152.2209 H   0  0  0  0  0  0  0  0  0  0  0  0  # atno 10167 bound_to 10162
  156.6606  130.4981  149.6032 H   0  0  0  0  0  0  0  0  0  0  0  0  # atno 10718 bound_to 10713
  152.9833  135.5673  154.5243 H   0  0  0  0  0  0  0  0  0  0  0  0  # atno 10763 bound_to 10752
  154.4725  135.2785  155.1634 H   0  0  0  0  0  0  0  0  0  0  0  0  # atno 10764 bound_to 10752
  154.3176  135.6275  153.5546 H   0  0  0  0  0  0  0  0  0  0  0  0  # atno 10765 bound_to 10752
  140.6301  133.9583  155.8270 H   0  0  0  0  0  0  0  0  0  0  0  0  # atno 11005 bound_to 11000
  146.2942  140.4202  142.8728 LP  0  0  0  0  0  0  0  0  0  0  0  0  # atno 17320 bound_to 7965
  144.8672  140.7222  143.6070 LP  0  0  0  0  0  0  0  0  0  0  0  0  # atno 17321 bound_to 7965
  139.6123  144.7611  151.2925 LP  0  0  0  0  0  0  0  0  0  0  0  0  # atno 17342 bound_to 10162
  140.7332  143.6802  150.8007 LP  0  0  0  0  0  0  0  0  0  0  0  0  # atno 17343 bound_to 10162
  156.2014  130.6622  151.1171 LP  0  0  0  0  0  0  0  0  0  0  0  0  # atno 17370 bound_to 10713
  157.7111  131.0734  150.6498 LP  0  0  0  0  0  0  0  0  0  0  0  0  # atno 17371 bound_to 10713
  141.0681  134.0246  157.3565 LP  0  0  0  0  0  0  0  0  0  0  0  0  # atno 17394 bound_to 11000
  139.9119  135.0191  156.7727 LP  0  0  0  0  0  0  0  0  0  0  0  0  # atno 17395 bound_to 11000

$$$$
