AV-unprocessed.smi:1829|AV-procd|sdf|7430|dock9
  -GOLD-   22720 9113D 1   1.00000     0.00000
 Structure written by MMmdl.
 46 48  0  0  0  0  0  0  0  0  2 V2000
  137.5335  140.1830  154.9325 C   0  0  0  0  0  0  0  0  0  0  0  0
  137.4536  138.9451  154.0258 C   0  0  0  0  0  0  0  0  0  0  0  0
  136.3637  137.9668  154.4922 C   0  0  0  0  0  0  0  0  0  0  0  0
  138.8099  138.2644  153.8963 C   0  0  0  0  0  0  0  0  0  0  0  0
  138.9335  136.8835  154.1587 C   0  0  0  0  0  0  0  0  0  0  0  0
  140.1794  136.2429  154.0229 C   0  0  0  0  0  0  0  0  0  0  0  0
  141.3176  136.9744  153.6238 C   0  0  0  0  0  0  0  0  0  0  0  0
  142.6476  136.2584  153.4353 C   0  0  2  0  0  0  0  0  0  0  0  0
  143.6769  136.8146  154.2265 O   0  0  0  0  0  0  0  0  0  0  0  0
  143.1120  136.2710  151.9638 C   0  0  0  0  0  0  0  0  0  0  0  0
  144.4396  135.6625  151.7791 N   0  0  0  0  0  0  0  0  0  0  0  0
  145.6856  136.2191  151.8249 C   0  0  0  0  0  0  0  0  0  0  0  0
  146.0276  137.6450  152.1053 C   0  0  0  0  0  0  0  0  0  0  0  0
  146.4933  138.3201  150.9585 O   0  0  0  0  0  0  0  0  0  0  0  0
  146.5810  135.2240  151.5701 N   0  3  0  0  0  0  0  0  0  0  0  0
  145.9055  134.0211  151.3628 C   0  0  0  0  0  0  0  0  0  0  0  0
  146.3818  132.7464  151.0727 C   0  0  0  0  0  0  0  0  0  0  0  0
  145.4164  131.7292  150.9238 C   0  0  0  0  0  0  0  0  0  0  0  0
  144.0390  131.9973  151.0649 C   0  0  0  0  0  0  0  0  0  0  0  0
  143.5681  133.2941  151.3588 C   0  0  0  0  0  0  0  0  0  0  0  0
  144.5293  134.2941  151.5016 C   0  0  0  0  0  0  0  0  0  0  0  0
  141.1976  138.3576  153.3695 C   0  0  0  0  0  0  0  0  0  0  0  0
  139.9508  138.9976  153.5026 C   0  0  0  0  0  0  0  0  0  0  0  0
  138.2689  140.8955  154.5571 H   0  0  0  0  0  0  0  0  0  0  0  0
  137.8174  139.9175  155.9512 H   0  0  0  0  0  0  0  0  0  0  0  0
  136.5732  140.6969  154.9803 H   0  0  0  0  0  0  0  0  0  0  0  0
  137.1631  139.2934  153.0335 H   0  0  0  0  0  0  0  0  0  0  0  0
  136.2889  137.1140  153.8167 H   0  0  0  0  0  0  0  0  0  0  0  0
  135.3879  138.4523  154.5175 H   0  0  0  0  0  0  0  0  0  0  0  0
  136.5650  137.5829  155.4926 H   0  0  0  0  0  0  0  0  0  0  0  0
  138.0711  136.3059  154.4583 H   0  0  0  0  0  0  0  0  0  0  0  0
  140.2552  135.1825  154.2131 H   0  0  0  0  0  0  0  0  0  0  0  0
  142.5320  135.2269  153.7691 H   0  0  0  0  0  0  0  0  0  0  0  0
  143.9527  136.1673  154.8578 H   0  0  0  0  0  0  0  0  0  0  0  0
  142.4036  135.7306  151.3348 H   0  0  0  0  0  0  0  0  0  0  0  0
  143.1506  137.2898  151.5755 H   0  0  0  0  0  0  0  0  0  0  0  0
  145.1451  138.1604  152.4851 H   0  0  0  0  0  0  0  0  0  0  0  0
  146.7860  137.6974  152.8849 H   0  0  0  0  0  0  0  0  0  0  0  0
  145.7497  138.6781  150.4979 H   0  0  0  0  0  0  0  0  0  0  0  0
  147.4363  132.5384  150.9652 H   0  0  0  0  0  0  0  0  0  0  0  0
  145.7388  130.7231  150.6973 H   0  0  0  0  0  0  0  0  0  0  0  0
  143.3287  131.1921  150.9450 H   0  0  0  0  0  0  0  0  0  0  0  0
  142.5112  133.4896  151.4647 H   0  0  0  0  0  0  0  0  0  0  0  0
  142.0574  138.9304  153.0540 H   0  0  0  0  0  0  0  0  0  0  0  0
  139.8737  140.0541  153.2922 H   0  0  0  0  0  0  0  0  0  0  0  0
  147.5832  135.3625  151.5440 H   0  0  0  0  0  0  0  0  0  0  0  0
  1  2  1  0  0  0  0
  1 24  1  0  0  0  0
  1 25  1  0  0  0  0
  1 26  1  0  0  0  0
  2  3  1  0  0  0  0
  2  4  1  0  0  0  0
  2 27  1  0  0  0  0
  3 28  1  0  0  0  0
  3 29  1  0  0  0  0
  3 30  1  0  0  0  0
  4 23  1  0  0  0  0
  4  5  2  0  0  0  0
  5  6  1  0  0  0  0
  5 31  1  0  0  0  0
  6  7  2  0  0  0  0
  6 32  1  0  0  0  0
  7  8  1  0  0  0  0
  7 22  1  0  0  0  0
  8  9  1  0  0  0  0
  8 10  1  0  0  0  0
  8 33  1  0  0  0  0
  9 34  1  0  0  0  0
 10 11  1  0  0  0  0
 10 35  1  0  0  0  0
 10 36  1  0  0  0  0
 11 21  1  0  0  0  0
 11 12  1  0  0  0  0
 12 13  1  0  0  0  0
 12 15  2  0  0  0  0
 13 14  1  0  0  0  0
 13 37  1  0  0  0  0
 13 38  1  0  0  0  0
 14 39  1  0  0  0  0
 15 16  1  0  0  0  0
 15 46  1  0  0  0  0
 16 21  2  0  0  0  0
 16 17  1  0  0  0  0
 17 18  2  0  0  0  0
 17 40  1  0  0  0  0
 18 19  1  0  0  0  0
 18 41  1  0  0  0  0
 19 20  2  0  0  0  0
 19 42  1  0  0  0  0
 20 21  1  0  0  0  0
 20 43  1  0  0  0  0
 22 23  2  0  0  0  0
 22 44  1  0  0  0  0
 23 45  1  0  0  0  0
M  CHG  1  15   1
M  END
> <s_m_source_file>
AV-unprocessed.smi

> <i_m_source_file_index>
1829

> <i_lp_mmshare_version>
43012

> <i_f3d_flags>
0

> <s_epik_input>
W0NIM11bQ0hdKFtDSDNdKWMxW2NIXVtjSF1jKFtjSF1bY0hdMSlbQ0BIXShbT0hdKVtDSDJdbihjKG4yKVtDSDJdW09IXSljKGMyMylbY0hdW2NIXVtjSF1bY0hdMw==

> <s_epik_cmdline>
J2VwaWtfcHl0aG9uJywgJy1waCcsICc3LjAnLCAnLXRuJywgJzgnLCAnLW1hJywgJzIwMCcsICctbWV0YWxfYmluZGluZycsICctaW1hZScsICc8aW5maWxlLm1hZT4nLCAnLW9tYWUnLCAnPG91dGZpbGUubWFlPic=

> <r_epik_Ionization_Penalty>
1.35642

> <r_epik_Ionization_Penalty_Charging>
1.35557

> <r_epik_Ionization_Penalty_Neutral>
0.000856322

> <r_epik_State_Penalty>
1.43401

> <r_epik_Charging_Adjusted_Penalty>
2.78958

> <i_epik_Tot_Q>
1

> <i_epik_Tot_abs_Q>
1

> <r_epik_Metal_State_Penalty>
5.47166

> <b_epik_Metal_Only>
0

> <s_lp_Force_Field>
OPLS_2005

> <r_lp_Energy>
15.3194

> <b_lp_Chiralities_Consistent>
1

> <s_lp_Variant>
AV-unprocessed.smi:1829-3

> <Gold.Version>
5.8.1

> <Gold.Id.Protein>
6NUR|6NUR_protein|mol2

> <Gold.PLP.Fitness>
55.3463

> <Gold.PLP.PLP>
-44.4244

> <Gold.PLP.part.hbond>
-3.2216

> <Gold.PLP.part.metal>
0.0000

> <Gold.PLP.part.buried>
-5.0895

> <Gold.PLP.part.nonpolar>
-37.2304

> <Gold.PLP.part.repulsive>
0.0808

> <Gold.PLP.ligand.clash>
0.0000

> <Gold.PLP.ligand.torsion>
0.5991

> <Gold.PLP.Chemscore.Hbond>
4.0000

> <Gold.PLP.Chemscore.CHOScore>
0.0000

> <Gold.PLP.Chemscore.Metal>
0.0000

> <Gold.Chemscore.Hbonds>
donor molecule, donor type, donor heavy atom, donor atom, acceptor molecule, acceptor atom, score
      L1  H    14    39       P1 10171  1.00
      L1  H    15    46       P1  7948  2.00
      P1  H  7954  7966       L1    14  1.00

> <Gold.PLP.Chemscore.Internal.Correction>
0.1201

> <Gold.Rescore>
     Score         DG    S(hbond)    S(metal)    S(lipo)     H(rot)  DE(clash)    DE(int)     intcor
     19.99     -20.98       2.70        0.00     115.63       2.75       0.43       0.56       ----

> <Gold.Chemscore.Fitness>
19.9903

> <Gold.Chemscore.DG>
-20.9782

> <Gold.Chemscore.ZeroCoef>
-5.4800

> <Gold.Chemscore.Hbond>
2.7012

> <Gold.Chemscore.Metal>
0.0000

> <Gold.Chemscore.Lipo>
115.6322

> <Gold.Chemscore.Internal_Hbond>
0.0000

> <Gold.Chemscore.DEClash>
0.4324

> <Gold.Chemscore.DEInternal>
0.5555

> <Gold.Chemscore.Rot>
2.7550

> <Gold.Chemscore.Internal.Correction>
   9.000000E+99

> <Gold.Chemscore.Hbonds>
donor molecule, donor type, donor heavy atom, donor atom, acceptor molecule, acceptor atom, score
      L1  H    14    39       P1 10171  0.95
      L1  H    15    46       P1  7948  0.83
      P1  H  7954  7966       L1    14  0.87

> <Gold.Chemscore.Hbond.Weighted>
-9.0219

> <Gold.Chemscore.Metal.Weighted>
-0.0000

> <Gold.Chemscore.Lipo.Weighted>
-13.5290

> <Gold.Chemscore.Internal_Hbond.Weighted>
0.0000

> <Gold.Chemscore.DEClash.Weighted>
0.4324

> <Gold.Chemscore.DEInternal.Weighted>
0.5555

> <Gold.Chemscore.Rot.Weighted>
7.0527

> <Gold.Chemscore.Internal.Correction.Weighted>
   9.000000E+99

> <Gold.Protein.RotatedTorsions>
[ 6907 6896 6895 6894 ] final   10.11 input  -60.11 | X-H torsion
[ 7974 7965 7964 7962 ] final  -37.56 input  175.53 | X-H torsion
[ 8008 7997 7996 7995 ] final -106.63 input   59.86 | X-H torsion
[ 10167 10162 10161 10158 ] final -137.06 input  -65.29 | X-H torsion
[ 10718 10713 10712 10709 ] final  -18.11 input   66.30 | X-H torsion
[ 10763 10752 10751 10750 ] final  -74.55 input  -60.55 | X-H torsion
[ 11005 11000 10999 10996 ] final   93.38 input  -57.11 | X-H torsion

> <Gold.Protein.ActiveResidues>
 VAL166  LYS551  ARG553  GLY616  TRP617  ASP618  TYR619  PRO620  LYS621  CYS622 
 ASP623  PHE694  ASN695  SER759  ASP760  ASP761  ALA762  ILE779  LEU786  VAL792 
 PHE793  MET794  SER795  GLU796  ALA797  LYS798  CYS799  TRP800  GLU811  SER814 

> <Gold.Protein.RotatedAtoms>
  151.7331  135.0870  160.0303 H   0  0  0  0  0  0  0  0  0  0  0  0  # atno 6907 bound_to 6896
  152.3528  133.6196  159.5966 H   0  0  0  0  0  0  0  0  0  0  0  0  # atno 6908 bound_to 6896
  150.7551  133.9463  159.3513 H   0  0  0  0  0  0  0  0  0  0  0  0  # atno 6909 bound_to 6896
  146.0564  140.6410  142.9018 H   0  0  0  0  0  0  0  0  0  0  0  0  # atno 7974 bound_to 7965
  154.9174  140.0408  157.1979 H   0  0  0  0  0  0  0  0  0  0  0  0  # atno 8008 bound_to 7997
  154.8288  140.2895  155.5715 H   0  0  0  0  0  0  0  0  0  0  0  0  # atno 8009 bound_to 7997
  156.2985  140.2505  156.3209 H   0  0  0  0  0  0  0  0  0  0  0  0  # atno 8010 bound_to 7997
  139.8615  143.7071  152.2649 H   0  0  0  0  0  0  0  0  0  0  0  0  # atno 10167 bound_to 10162
  156.5642  130.4733  149.6393 H   0  0  0  0  0  0  0  0  0  0  0  0  # atno 10718 bound_to 10713
  154.4746  135.5860  153.6346 H   0  0  0  0  0  0  0  0  0  0  0  0  # atno 10763 bound_to 10752
  152.9839  135.6075  154.3323 H   0  0  0  0  0  0  0  0  0  0  0  0  # atno 10764 bound_to 10752
  154.3209  135.2843  155.2499 H   0  0  0  0  0  0  0  0  0  0  0  0  # atno 10765 bound_to 10752
  139.8811  134.8787  156.3710 H   0  0  0  0  0  0  0  0  0  0  0  0  # atno 11005 bound_to 11000
  144.7150  140.4178  143.7051 LP  0  0  0  0  0  0  0  0  0  0  0  0  # atno 17320 bound_to 7965
  145.6636  139.1586  143.2794 LP  0  0  0  0  0  0  0  0  0  0  0  0  # atno 17321 bound_to 7965
  139.7369  144.7569  151.0714 LP  0  0  0  0  0  0  0  0  0  0  0  0  # atno 17342 bound_to 10162
  140.7774  143.5020  150.9760 LP  0  0  0  0  0  0  0  0  0  0  0  0  # atno 17343 bound_to 10162
  156.2772  130.7050  151.1864 LP  0  0  0  0  0  0  0  0  0  0  0  0  # atno 17370 bound_to 10713
  157.7362  131.0564  150.5426 LP  0  0  0  0  0  0  0  0  0  0  0  0  # atno 17371 bound_to 10713
  140.9464  133.7480  156.0214 LP  0  0  0  0  0  0  0  0  0  0  0  0  # atno 17394 bound_to 11000
  140.8158  134.3346  157.5397 LP  0  0  0  0  0  0  0  0  0  0  0  0  # atno 17395 bound_to 11000

$$$$
