AV-unprocessed.smi:427|AV-procd|sdf|2542|dock10
  -GOLD-   2262022503D 1   1.00000     0.00000
 Structure written by MMmdl.
 51 52  0  0  0  0  0  0  0  0  1 V2000
  148.9595  133.5402  157.3882 C   0  0  0  0  0  0  0  0  0  0  0  0
  148.6265  134.6263  158.3947 C   0  0  0  0  0  0  0  0  0  0  0  0
  147.9372  134.2903  159.5787 C   0  0  0  0  0  0  0  0  0  0  0  0
  147.6045  135.2787  160.5364 C   0  0  0  0  0  0  0  0  0  0  0  0
  146.8518  134.9475  161.8396 C   0  0  0  0  0  0  0  0  0  0  0  0
  147.6071  135.5563  163.0387 C   0  0  0  0  0  0  0  0  0  0  0  0
  146.7175  133.4285  162.0906 C   0  0  0  0  0  0  0  0  0  0  0  0
  145.4267  135.5371  161.7823 C   0  0  0  0  0  0  0  0  0  0  0  0
  147.9875  136.6136  160.2731 C   0  0  0  0  0  0  0  0  0  0  0  0
  148.6736  136.9553  159.0933 C   0  0  0  0  0  0  0  0  0  0  0  0
  148.9992  135.9636  158.1374 C   0  0  0  0  0  0  0  0  0  0  0  0
  149.6667  136.2243  156.9594 O   0  0  0  0  0  0  0  0  0  0  0  0
  150.1362  137.5446  156.7212 C   0  0  0  0  0  0  0  0  0  0  0  0
  151.0992  137.5059  155.5256 C   0  0  2  0  0  0  0  0  0  0  0  0
  151.7755  136.2661  155.5712 O   0  0  0  0  0  0  0  0  0  0  0  0
  152.1420  138.6454  155.5833 C   0  0  0  0  0  0  0  0  0  0  0  0
  151.6006  139.8855  156.1115 N   0  0  0  0  0  0  0  0  0  0  0  0
  150.5702  140.5260  155.3801 C   0  0  0  0  0  0  0  0  0  0  0  0
  150.1285  140.0662  154.3264 O   0  0  0  0  0  0  0  0  0  0  0  0
  150.0688  141.7568  155.9823 C   0  0  0  0  0  0  0  0  0  0  0  0
  150.5630  142.2075  157.1559 C   0  0  0  0  0  0  0  0  0  0  0  0
  151.5548  141.5466  157.8539 N   0  0  0  0  0  0  0  0  0  0  0  0
  152.0627  142.0227  159.1081 C   0  0  0  0  0  0  0  0  0  0  0  0
  152.1058  140.3488  157.3500 C   0  0  0  0  0  0  0  0  0  0  0  0
  152.9787  139.7350  157.9705 O   0  0  0  0  0  0  0  0  0  0  0  0
  148.6956  132.5509  157.7629 H   0  0  0  0  0  0  0  0  0  0  0  0
  150.0266  133.5417  157.1638 H   0  0  0  0  0  0  0  0  0  0  0  0
  148.4131  133.7082  156.4599 H   0  0  0  0  0  0  0  0  0  0  0  0
  147.6704  133.2562  159.7298 H   0  0  0  0  0  0  0  0  0  0  0  0
  147.1081  135.3262  163.9806 H   0  0  0  0  0  0  0  0  0  0  0  0
  147.6768  136.6421  162.9712 H   0  0  0  0  0  0  0  0  0  0  0  0
  148.6234  135.1657  163.1026 H   0  0  0  0  0  0  0  0  0  0  0  0
  147.6914  132.9461  162.1834 H   0  0  0  0  0  0  0  0  0  0  0  0
  146.1693  132.9344  161.2873 H   0  0  0  0  0  0  0  0  0  0  0  0
  146.1758  133.2274  163.0157 H   0  0  0  0  0  0  0  0  0  0  0  0
  144.8617  135.2973  162.6839 H   0  0  0  0  0  0  0  0  0  0  0  0
  144.8701  135.1398  160.9326 H   0  0  0  0  0  0  0  0  0  0  0  0
  145.4327  136.6233  161.6916 H   0  0  0  0  0  0  0  0  0  0  0  0
  147.7578  137.3967  160.9800 H   0  0  0  0  0  0  0  0  0  0  0  0
  148.9416  137.9904  158.9468 H   0  0  0  0  0  0  0  0  0  0  0  0
  149.3054  138.2209  156.5115 H   0  0  0  0  0  0  0  0  0  0  0  0
  150.6582  137.9093  157.6076 H   0  0  0  0  0  0  0  0  0  0  0  0
  150.5184  137.5500  154.6032 H   0  0  0  0  0  0  0  0  0  0  0  0
  151.1935  135.6208  155.9431 H   0  0  0  0  0  0  0  0  0  0  0  0
  152.9850  138.3853  156.2261 H   0  0  0  0  0  0  0  0  0  0  0  0
  152.6057  138.8441  154.6154 H   0  0  0  0  0  0  0  0  0  0  0  0
  149.2884  142.3123  155.4830 H   0  0  0  0  0  0  0  0  0  0  0  0
  150.1589  143.1222  157.5646 H   0  0  0  0  0  0  0  0  0  0  0  0
  153.1340  142.1932  158.9874 H   0  0  0  0  0  0  0  0  0  0  0  0
  151.8487  141.2606  159.8597 H   0  0  0  0  0  0  0  0  0  0  0  0
  151.5491  142.9546  159.3475 H   0  0  0  0  0  0  0  0  0  0  0  0
  1  2  1  0  0  0  0
  1 26  1  0  0  0  0
  1 27  1  0  0  0  0
  1 28  1  0  0  0  0
  2 11  1  0  0  0  0
  2  3  2  0  0  0  0
  3  4  1  0  0  0  0
  3 29  1  0  0  0  0
  4  5  1  0  0  0  0
  4  9  2  0  0  0  0
  5  6  1  0  0  0  0
  5  7  1  0  0  0  0
  5  8  1  0  0  0  0
  6 30  1  0  0  0  0
  6 31  1  0  0  0  0
  6 32  1  0  0  0  0
  7 33  1  0  0  0  0
  7 34  1  0  0  0  0
  7 35  1  0  0  0  0
  8 36  1  0  0  0  0
  8 37  1  0  0  0  0
  8 38  1  0  0  0  0
  9 10  1  0  0  0  0
  9 39  1  0  0  0  0
 10 11  2  0  0  0  0
 10 40  1  0  0  0  0
 11 12  1  0  0  0  0
 12 13  1  0  0  0  0
 13 14  1  0  0  0  0
 13 41  1  0  0  0  0
 13 42  1  0  0  0  0
 14 15  1  0  0  0  0
 14 16  1  0  0  0  0
 14 43  1  0  0  0  0
 15 44  1  0  0  0  0
 16 17  1  0  0  0  0
 16 45  1  0  0  0  0
 16 46  1  0  0  0  0
 17 24  1  0  0  0  0
 17 18  1  0  0  0  0
 18 19  2  0  0  0  0
 18 20  1  0  0  0  0
 20 21  2  0  0  0  0
 20 47  1  0  0  0  0
 21 22  1  0  0  0  0
 21 48  1  0  0  0  0
 22 23  1  0  0  0  0
 22 24  1  0  0  0  0
 23 49  1  0  0  0  0
 23 50  1  0  0  0  0
 23 51  1  0  0  0  0
 24 25  2  0  0  0  0
M  END
> <s_m_source_file>
AV-unprocessed.smi

> <i_m_source_file_index>
427

> <i_lp_mmshare_version>
43012

> <i_f3d_flags>
0

> <s_epik_input>
W0NIM11jMVtjSF1jKEMoW0NIM10pKFtDSDNdKVtDSDNdKVtjSF1bY0hdYzFPW0NIMl1bQ0BIXShbT0hdKVtDSDJdbjJjKD1PKVtjSF1bY0hdbihbQ0gzXSljMj1P

> <s_epik_cmdline>
J2VwaWtfcHl0aG9uJywgJy1waCcsICc3LjAnLCAnLXRuJywgJzgnLCAnLW1hJywgJzIwMCcsICctbWV0YWxfYmluZGluZycsICctaW1hZScsICc8aW5maWxlLm1hZT4nLCAnLW9tYWUnLCAnPG91dGZpbGUubWFlPic=

> <r_lp_tautomer_probability>
1

> <r_epik_Ionization_Penalty>
2.02112e-07

> <r_epik_Ionization_Penalty_Charging>
8.49383e-08

> <r_epik_Ionization_Penalty_Neutral>
1.17174e-07

> <r_epik_State_Penalty>
-0

> <r_epik_Charging_Adjusted_Penalty>
8.49383e-08

> <i_epik_Tot_Q>
0

> <i_epik_Tot_abs_Q>
0

> <r_epik_Metal_State_Penalty>
-0

> <b_epik_Metal_Only>
0

> <s_lp_Force_Field>
OPLS_2005

> <r_lp_Energy>
25.5029

> <b_lp_Chiralities_Consistent>
1

> <s_lp_Variant>
AV-unprocessed.smi:427-1

> <Gold.Version>
5.8.1

> <Gold.Id.Protein>
6NUR|6NUR_protein|mol2

> <Gold.PLP.Fitness>
49.8192

> <Gold.PLP.PLP>
-42.6111

> <Gold.PLP.part.hbond>
-3.0000

> <Gold.PLP.part.metal>
0.0000

> <Gold.PLP.part.buried>
-4.0441

> <Gold.PLP.part.nonpolar>
-36.6132

> <Gold.PLP.part.repulsive>
0.0871

> <Gold.PLP.ligand.clash>
0.0000

> <Gold.PLP.ligand.torsion>
0.9161

> <Gold.PLP.Chemscore.Hbond>
2.9920

> <Gold.PLP.Chemscore.CHOScore>
0.0000

> <Gold.PLP.Chemscore.Metal>
0.0000

> <Gold.Chemscore.Hbonds>
donor molecule, donor type, donor heavy atom, donor atom, acceptor molecule, acceptor atom, score
      P1  H  7989  7998       L1    19  0.35
      P1  H  7997  8009       L1    25  0.77
      P1  H 10752 10764       L1    15  1.00
      L1  C    21    48       P1  8028  0.25

> <Gold.PLP.Chemscore.Internal.Correction>
0.0643

> <Gold.Rescore>
     Score         DG    S(hbond)    S(metal)    S(lipo)     H(rot)  DE(clash)    DE(int)     intcor
     16.29     -17.57       1.97        0.00     101.61       2.49       0.09       1.19       ----

> <Gold.Chemscore.Fitness>
16.2931

> <Gold.Chemscore.DG>
-17.5692

> <Gold.Chemscore.ZeroCoef>
-5.4800

> <Gold.Chemscore.Hbond>
1.9682

> <Gold.Chemscore.Metal>
0.0000

> <Gold.Chemscore.Lipo>
101.6101

> <Gold.Chemscore.Internal_Hbond>
0.0000

> <Gold.Chemscore.DEClash>
0.0875

> <Gold.Chemscore.DEInternal>
1.1886

> <Gold.Chemscore.Rot>
2.4894

> <Gold.Chemscore.Internal.Correction>
   9.000000E+99

> <Gold.Chemscore.Hbonds>
donor molecule, donor type, donor heavy atom, donor atom, acceptor molecule, acceptor atom, score
      P1  H  7989  7998       L1    19  0.01
      P1  H  7997  8009       L1    25  0.60
      P1  H 10752 10764       L1    15  0.69

> <Gold.Chemscore.Hbond.Weighted>
-6.5736

> <Gold.Chemscore.Metal.Weighted>
-0.0000

> <Gold.Chemscore.Lipo.Weighted>
-11.8884

> <Gold.Chemscore.Internal_Hbond.Weighted>
0.0000

> <Gold.Chemscore.DEClash.Weighted>
0.0875

> <Gold.Chemscore.DEInternal.Weighted>
1.1886

> <Gold.Chemscore.Rot.Weighted>
6.3728

> <Gold.Chemscore.Internal.Correction.Weighted>
   9.000000E+99

> <Gold.Protein.RotatedTorsions>
[ 6907 6896 6895 6894 ] final   -7.24 input  -60.11 | X-H torsion
[ 7974 7965 7964 7962 ] final  -97.58 input  175.53 | X-H torsion
[ 8008 7997 7996 7995 ] final  134.78 input   59.86 | X-H torsion
[ 10167 10162 10161 10158 ] final -115.90 input  -65.29 | X-H torsion
[ 10718 10713 10712 10709 ] final -174.68 input   66.30 | X-H torsion
[ 10763 10752 10751 10750 ] final  -38.72 input  -60.55 | X-H torsion
[ 11005 11000 10999 10996 ] final -105.38 input  -57.11 | X-H torsion

> <Gold.Protein.ActiveResidues>
 VAL166  LYS551  ARG553  GLY616  TRP617  ASP618  TYR619  PRO620  LYS621  CYS622 
 ASP623  PHE694  ASN695  SER759  ASP760  ASP761  ALA762  ILE779  LEU786  VAL792 
 PHE793  MET794  SER795  GLU796  ALA797  LYS798  CYS799  TRP800  GLU811  SER814 

> <Gold.Protein.RotatedAtoms>
  151.4528  135.1031  159.9702 H   0  0  0  0  0  0  0  0  0  0  0  0  # atno 6907 bound_to 6896
  152.4882  133.8425  159.7170 H   0  0  0  0  0  0  0  0  0  0  0  0  # atno 6908 bound_to 6896
  150.9010  133.7058  159.2906 H   0  0  0  0  0  0  0  0  0  0  0  0  # atno 6909 bound_to 6896
  145.3319  140.9443  143.2657 H   0  0  0  0  0  0  0  0  0  0  0  0  # atno 7974 bound_to 7965
  156.3000  140.2487  156.3473 H   0  0  0  0  0  0  0  0  0  0  0  0  # atno 8008 bound_to 7997
  154.8999  140.0406  157.1906 H   0  0  0  0  0  0  0  0  0  0  0  0  # atno 8009 bound_to 7997
  154.8512  140.2906  155.5601 H   0  0  0  0  0  0  0  0  0  0  0  0  # atno 8010 bound_to 7997
  140.0851  143.4751  152.1903 H   0  0  0  0  0  0  0  0  0  0  0  0  # atno 10167 bound_to 10162
  156.7886  130.9510  151.3120 H   0  0  0  0  0  0  0  0  0  0  0  0  # atno 10718 bound_to 10713
  153.9175  135.6786  153.4749 H   0  0  0  0  0  0  0  0  0  0  0  0  # atno 10763 bound_to 10752
  153.1046  135.4811  154.8925 H   0  0  0  0  0  0  0  0  0  0  0  0  # atno 10764 bound_to 10752
  154.7495  135.3181  154.8539 H   0  0  0  0  0  0  0  0  0  0  0  0  # atno 10765 bound_to 10752
  141.1056  133.8803  157.1727 H   0  0  0  0  0  0  0  0  0  0  0  0  # atno 11005 bound_to 11000
  144.8858  139.4842  143.6701 LP  0  0  0  0  0  0  0  0  0  0  0  0  # atno 17320 bound_to 7965
  146.3042  139.7525  142.9068 LP  0  0  0  0  0  0  0  0  0  0  0  0  # atno 17321 bound_to 7965
  139.5757  144.7486  151.3772 LP  0  0  0  0  0  0  0  0  0  0  0  0  # atno 17342 bound_to 10162
  140.7058  143.7518  150.7479 LP  0  0  0  0  0  0  0  0  0  0  0  0  # atno 17343 bound_to 10162
  157.6611  130.8967  149.9833 LP  0  0  0  0  0  0  0  0  0  0  0  0  # atno 17370 bound_to 10713
  156.1173  130.3647  149.9947 LP  0  0  0  0  0  0  0  0  0  0  0  0  # atno 17371 bound_to 10713
  139.9925  135.0059  157.0008 LP  0  0  0  0  0  0  0  0  0  0  0  0  # atno 17394 bound_to 11000
  140.4910  134.1193  155.7233 LP  0  0  0  0  0  0  0  0  0  0  0  0  # atno 17395 bound_to 11000

$$$$
