AV-unprocessed.smi:1244|AV-procd|sdf|5226|dock8
  -GOLD-   22720 4323D 1   1.00000     0.00000
 Structure written by MMmdl.
 55 57  0  0  0  0  0  0  0  0  2 V2000
  143.3478  147.0566  156.5035 C   0  0  0  0  0  0  0  0  0  0  0  0
  143.6751  145.5694  156.3322 C   0  0  2  0  0  0  0  0  0  0  0  0
  143.7720  145.1651  154.8470 C   0  0  0  0  0  0  0  0  0  0  0  0
  144.0091  143.7085  154.6996 N   0  3  1  0  0  0  0  0  0  0  0  0
  145.4138  143.3035  154.9698 C   0  0  0  0  0  0  0  0  0  0  0  0
  145.5458  141.7913  155.2304 C   0  0  0  0  0  0  0  0  0  0  0  0
  146.7978  141.4763  155.9082 N   0  0  0  0  0  0  0  0  0  0  0  0
  147.7708  140.7092  155.3965 C   0  0  0  0  0  0  0  0  0  0  0  0
  147.7041  140.1841  154.2849 O   0  0  0  0  0  0  0  0  0  0  0  0
  148.8079  140.6089  156.2446 N   0  0  0  0  0  0  0  0  0  0  0  0
  150.0494  139.9391  156.0486 C   0  0  0  0  0  0  0  0  0  0  0  0
  150.2766  139.0980  154.9315 C   0  0  0  0  0  0  0  0  0  0  0  0
  151.4976  138.4107  154.8219 C   0  0  0  0  0  0  0  0  0  0  0  0
  152.4469  138.5748  155.8442 C   0  0  0  0  0  0  0  0  0  0  0  0
  152.2407  139.3584  156.9213 N   0  0  0  0  0  0  0  0  0  0  0  0
  151.0737  140.0392  157.0337 C   0  0  0  0  0  0  0  0  0  0  0  0
  150.9190  140.8590  158.1747 N   0  0  0  0  0  0  0  0  0  0  0  0
  151.8055  140.7043  159.3232 C   0  0  0  0  0  0  0  0  0  0  0  0
  151.6030  141.9708  160.1499 C   0  0  0  0  0  0  0  0  0  0  0  0
  151.3927  143.0310  159.0731 C   0  0  0  0  0  0  0  0  0  0  0  0
  150.6520  142.2787  157.9620 C   0  0  0  0  0  0  0  0  0  0  0  0
  142.9859  142.9398  155.4539 C   0  0  0  0  0  0  0  0  0  0  0  0
  142.8820  143.4120  156.9209 C   0  0  2  0  0  0  0  0  0  0  0  0
  141.7395  142.7162  157.6686 C   0  0  0  0  0  0  0  0  0  0  0  0
  142.6367  144.8142  156.9467 O   0  0  0  0  0  0  0  0  0  0  0  0
  144.1205  147.6825  156.0565 H   0  0  0  0  0  0  0  0  0  0  0  0
  143.2765  147.3208  157.5589 H   0  0  0  0  0  0  0  0  0  0  0  0
  142.3975  147.3093  156.0323 H   0  0  0  0  0  0  0  0  0  0  0  0
  144.6193  145.3655  156.8397 H   0  0  0  0  0  0  0  0  0  0  0  0
  142.8366  145.4103  154.3417 H   0  0  0  0  0  0  0  0  0  0  0  0
  144.5509  145.7333  154.3369 H   0  0  0  0  0  0  0  0  0  0  0  0
  146.0289  143.5465  154.1022 H   0  0  0  0  0  0  0  0  0  0  0  0
  145.8230  143.8796  155.7997 H   0  0  0  0  0  0  0  0  0  0  0  0
  144.7133  141.4110  155.8230 H   0  0  0  0  0  0  0  0  0  0  0  0
  145.5253  141.2484  154.2851 H   0  0  0  0  0  0  0  0  0  0  0  0
  146.9357  141.8737  156.8263 H   0  0  0  0  0  0  0  0  0  0  0  0
  148.7494  141.1644  157.0858 H   0  0  0  0  0  0  0  0  0  0  0  0
  149.5284  138.9493  154.1681 H   0  0  0  0  0  0  0  0  0  0  0  0
  151.6963  137.7637  153.9804 H   0  0  0  0  0  0  0  0  0  0  0  0
  153.3943  138.0585  155.8002 H   0  0  0  0  0  0  0  0  0  0  0  0
  151.5651  139.8054  159.8920 H   0  0  0  0  0  0  0  0  0  0  0  0
  152.8471  140.6423  159.0054 H   0  0  0  0  0  0  0  0  0  0  0  0
  150.7049  141.8786  160.7624 H   0  0  0  0  0  0  0  0  0  0  0  0
  152.4446  142.1883  160.8081 H   0  0  0  0  0  0  0  0  0  0  0  0
  150.8452  143.9025  159.4332 H   0  0  0  0  0  0  0  0  0  0  0  0
  152.3604  143.3719  158.7027 H   0  0  0  0  0  0  0  0  0  0  0  0
  150.9702  142.6140  156.9737 H   0  0  0  0  0  0  0  0  0  0  0  0
  149.5792  142.4518  158.0487 H   0  0  0  0  0  0  0  0  0  0  0  0
  142.0250  143.0885  154.9590 H   0  0  0  0  0  0  0  0  0  0  0  0
  143.1858  141.8698  155.4086 H   0  0  0  0  0  0  0  0  0  0  0  0
  143.8102  143.2020  157.4537 H   0  0  0  0  0  0  0  0  0  0  0  0
  141.8827  141.6354  157.6858 H   0  0  0  0  0  0  0  0  0  0  0  0
  140.7767  142.9191  157.1983 H   0  0  0  0  0  0  0  0  0  0  0  0
  141.6843  143.0597  158.7019 H   0  0  0  0  0  0  0  0  0  0  0  0
  143.8610  143.5047  153.7213 H   0  0  0  0  0  0  0  0  0  0  0  0
  1  2  1  0  0  0  0
  1 26  1  0  0  0  0
  1 27  1  0  0  0  0
  1 28  1  0  0  0  0
  2 25  1  0  0  0  0
  2  3  1  0  0  0  0
  2 29  1  0  0  0  0
  3  4  1  0  0  0  0
  3 30  1  0  0  0  0
  3 31  1  0  0  0  0
  4  5  1  0  0  0  0
  4 22  1  0  0  0  0
  4 55  1  0  0  0  0
  5  6  1  0  0  0  0
  5 32  1  0  0  0  0
  5 33  1  0  0  0  0
  6  7  1  0  0  0  0
  6 34  1  0  0  0  0
  6 35  1  0  0  0  0
  7  8  1  0  0  0  0
  7 36  1  0  0  0  0
  8  9  2  0  0  0  0
  8 10  1  0  0  0  0
 10 11  1  0  0  0  0
 10 37  1  0  0  0  0
 11 16  1  0  0  0  0
 11 12  2  0  0  0  0
 12 13  1  0  0  0  0
 12 38  1  0  0  0  0
 13 14  2  0  0  0  0
 13 39  1  0  0  0  0
 14 15  1  0  0  0  0
 14 40  1  0  0  0  0
 15 16  2  0  0  0  0
 16 17  1  0  0  0  0
 17 21  1  0  0  0  0
 17 18  1  0  0  0  0
 18 19  1  0  0  0  0
 18 41  1  0  0  0  0
 18 42  1  0  0  0  0
 19 20  1  0  0  0  0
 19 43  1  0  0  0  0
 19 44  1  0  0  0  0
 20 21  1  0  0  0  0
 20 45  1  0  0  0  0
 20 46  1  0  0  0  0
 21 47  1  0  0  0  0
 21 48  1  0  0  0  0
 22 23  1  0  0  0  0
 22 49  1  0  0  0  0
 22 50  1  0  0  0  0
 23 24  1  0  0  0  0
 23 25  1  0  0  0  0
 23 51  1  0  0  0  0
 24 52  1  0  0  0  0
 24 53  1  0  0  0  0
 24 54  1  0  0  0  0
M  CHG  1   4   1
M  END
> <s_m_source_file>
AV-unprocessed.smi

> <i_m_source_file_index>
1244

> <i_lp_mmshare_version>
43012

> <i_f3d_flags>
0

> <s_epik_input>
W0NIM11bQ0BASF0xW0NIMl1OKFtDSDJdW0NASF0oTzEpW0NIM10pW0NIMl1bQ0gyXVtOSF1DKD1PKVtOSF1jMltjSF1bY0hdW2NIXW5jMk4zW0NIMl1bQ0gyXVtDSDJdW0NIMl0z

> <s_epik_cmdline>
J2VwaWtfcHl0aG9uJywgJy1waCcsICc3LjAnLCAnLXRuJywgJzgnLCAnLW1hJywgJzIwMCcsICctbWV0YWxfYmluZGluZycsICctaW1hZScsICc8aW5maWxlLm1hZT4nLCAnLW9tYWUnLCAnPG91dGZpbGUubWFlPic=

> <r_lp_tautomer_probability>
1

> <r_epik_Ionization_Penalty>
0.684913

> <r_epik_Ionization_Penalty_Charging>
0.602531

> <r_epik_Ionization_Penalty_Neutral>
0.0823829

> <r_epik_State_Penalty>
0.678827

> <r_epik_Charging_Adjusted_Penalty>
1.28136

> <i_epik_Tot_Q>
1

> <i_epik_Tot_abs_Q>
1

> <r_epik_Metal_State_Penalty>
0.67806

> <b_epik_Metal_Only>
0

> <s_lp_Force_Field>
OPLS_2005

> <r_lp_Energy>
44.826

> <b_lp_Chiralities_Consistent>
1

> <s_lp_Variant>
AV-unprocessed.smi:1244-6

> <Gold.Version>
5.8.1

> <Gold.Id.Protein>
6NUR|6NUR_protein|mol2

> <Gold.PLP.Fitness>
50.4756

> <Gold.PLP.PLP>
-42.1533

> <Gold.PLP.part.hbond>
-2.0000

> <Gold.PLP.part.metal>
0.0000

> <Gold.PLP.part.buried>
-4.3989

> <Gold.PLP.part.nonpolar>
-36.2438

> <Gold.PLP.part.repulsive>
0.2812

> <Gold.PLP.ligand.clash>
0.0000

> <Gold.PLP.ligand.torsion>
0.5164

> <Gold.PLP.Chemscore.Hbond>
3.0000

> <Gold.PLP.Chemscore.CHOScore>
0.0000

> <Gold.PLP.Chemscore.Metal>
0.0000

> <Gold.Chemscore.Hbonds>
donor molecule, donor type, donor heavy atom, donor atom, acceptor molecule, acceptor atom, score
      L1  H     4    55       P1 10174  1.03
      P1  H  7997  8009       L1    15  0.12

> <Gold.PLP.Chemscore.Internal.Correction>
0.3550

> <Gold.Rescore>
     Score         DG    S(hbond)    S(metal)    S(lipo)     H(rot)  DE(clash)    DE(int)     intcor
     15.83     -18.26       1.37        0.00     104.93       1.60       0.17       2.25       ----

> <Gold.Chemscore.Fitness>
15.8321

> <Gold.Chemscore.DG>
-18.2563

> <Gold.Chemscore.ZeroCoef>
-5.4800

> <Gold.Chemscore.Hbond>
1.3743

> <Gold.Chemscore.Metal>
0.0000

> <Gold.Chemscore.Lipo>
104.9283

> <Gold.Chemscore.Internal_Hbond>
0.0000

> <Gold.Chemscore.DEClash>
0.1720

> <Gold.Chemscore.DEInternal>
2.2522

> <Gold.Chemscore.Rot>
1.5978

> <Gold.Chemscore.Internal.Correction>
   9.000000E+99

> <Gold.Chemscore.Hbonds>
donor molecule, donor type, donor heavy atom, donor atom, acceptor molecule, acceptor atom, score
      L1  H     4    55       P1 10174  0.27

> <Gold.Chemscore.Hbond.Weighted>
-4.5902

> <Gold.Chemscore.Metal.Weighted>
-0.0000

> <Gold.Chemscore.Lipo.Weighted>
-12.2766

> <Gold.Chemscore.Internal_Hbond.Weighted>
0.0000

> <Gold.Chemscore.DEClash.Weighted>
0.1720

> <Gold.Chemscore.DEInternal.Weighted>
2.2522

> <Gold.Chemscore.Rot.Weighted>
4.0905

> <Gold.Chemscore.Internal.Correction.Weighted>
   9.000000E+99

> <Gold.Protein.RotatedTorsions>
[ 6907 6896 6895 6894 ] final -112.44 input  -60.11 | X-H torsion
[ 7974 7965 7964 7962 ] final  -37.93 input  175.53 | X-H torsion
[ 8008 7997 7996 7995 ] final -178.26 input   59.86 | X-H torsion
[ 10167 10162 10161 10158 ] final  -19.32 input  -65.29 | X-H torsion
[ 10718 10713 10712 10709 ] final   93.12 input   66.30 | X-H torsion
[ 10763 10752 10751 10750 ] final   19.32 input  -60.55 | X-H torsion
[ 11005 11000 10999 10996 ] final  -21.87 input  -57.11 | X-H torsion

> <Gold.Protein.ActiveResidues>
 VAL166  LYS551  ARG553  GLY616  TRP617  ASP618  TYR619  PRO620  LYS621  CYS622 
 ASP623  PHE694  ASN695  SER759  ASP760  ASP761  ALA762  ILE779  LEU786  VAL792 
 PHE793  MET794  SER795  GLU796  ALA797  LYS798  CYS799  TRP800  GLU811  SER814 

> <Gold.Protein.RotatedAtoms>
  150.7759  133.9089  159.3363 H   0  0  0  0  0  0  0  0  0  0  0  0  # atno 6907 bound_to 6896
  151.6964  135.0936  160.0252 H   0  0  0  0  0  0  0  0  0  0  0  0  # atno 6908 bound_to 6896
  152.3794  133.6487  159.6185 H   0  0  0  0  0  0  0  0  0  0  0  0  # atno 6909 bound_to 6896
  146.0531  140.6453  142.9032 H   0  0  0  0  0  0  0  0  0  0  0  0  # atno 7974 bound_to 7965
  156.0167  140.1252  157.0399 H   0  0  0  0  0  0  0  0  0  0  0  0  # atno 8008 bound_to 7997
  154.4296  140.1077  156.5976 H   0  0  0  0  0  0  0  0  0  0  0  0  # atno 8009 bound_to 7997
  155.6003  140.3470  155.4594 H   0  0  0  0  0  0  0  0  0  0  0  0  # atno 8010 bound_to 7997
  140.7267  143.4830  151.0092 H   0  0  0  0  0  0  0  0  0  0  0  0  # atno 10167 bound_to 10162
  157.6956  131.0467  150.3986 H   0  0  0  0  0  0  0  0  0  0  0  0  # atno 10718 bound_to 10713
  153.1172  135.6711  153.9397 H   0  0  0  0  0  0  0  0  0  0  0  0  # atno 10763 bound_to 10752
  153.8923  135.3045  155.3449 H   0  0  0  0  0  0  0  0  0  0  0  0  # atno 10764 bound_to 10752
  154.7587  135.4998  153.9502 H   0  0  0  0  0  0  0  0  0  0  0  0  # atno 10765 bound_to 10752
  140.8602  133.7793  156.0066 H   0  0  0  0  0  0  0  0  0  0  0  0  # atno 11005 bound_to 11000
  144.7133  140.4120  143.7063 LP  0  0  0  0  0  0  0  0  0  0  0  0  # atno 17320 bound_to 7965
  145.6690  139.1595  143.2765 LP  0  0  0  0  0  0  0  0  0  0  0  0  # atno 17321 bound_to 7965
  139.8530  143.7414  152.3177 LP  0  0  0  0  0  0  0  0  0  0  0  0  # atno 17342 bound_to 10162
  139.7602  144.7508  151.0375 LP  0  0  0  0  0  0  0  0  0  0  0  0  # atno 17343 bound_to 10162
  156.4382  130.3986  149.6715 LP  0  0  0  0  0  0  0  0  0  0  0  0  # atno 17370 bound_to 10713
  156.3908  130.7626  151.2627 LP  0  0  0  0  0  0  0  0  0  0  0  0  # atno 17371 bound_to 10713
  140.8691  134.2748  157.5199 LP  0  0  0  0  0  0  0  0  0  0  0  0  # atno 17394 bound_to 11000
  139.8706  134.9558  156.4218 LP  0  0  0  0  0  0  0  0  0  0  0  0  # atno 17395 bound_to 11000

$$$$
