AV-unprocessed.smi:1080|AV-procd|sdf|4708|dock3
  -GOLD-   22720 3233D 1   1.00000     0.00000
 Structure written by MMmdl.
 49 51  0  0  0  0  0  0  0  0  2 V2000
  150.9374  134.9601  156.3749 O   0  0  0  0  0  0  0  0  0  0  0  0
  150.4981  135.5905  155.4135 C   0  0  0  0  0  0  0  0  0  0  0  0
  149.7426  135.0770  154.4268 N   0  0  0  0  0  0  0  0  0  0  0  0
  149.3145  133.7338  154.2413 C   0  0  0  0  0  0  0  0  0  0  0  0
  149.9422  132.7368  155.0211 C   0  0  0  0  0  0  0  0  0  0  0  0
  149.5426  131.3917  154.8851 C   0  0  0  0  0  0  0  0  0  0  0  0
  148.5591  131.0669  154.0191 N   0  3  0  0  0  0  0  0  0  0  0  0
  147.9204  131.9849  153.2626 C   0  0  0  0  0  0  0  0  0  0  0  0
  148.2764  133.3460  153.3558 C   0  0  0  0  0  0  0  0  0  0  0  0
  150.7048  136.9032  155.2332 N   0  0  0  0  0  0  0  0  0  0  0  0
  151.4839  137.7634  156.1193 C   0  0  2  0  0  0  0  0  0  0  0  0
  150.9592  137.6775  157.5670 C   0  0  0  0  0  0  0  0  0  0  0  0
  151.7170  138.6380  158.4980 C   0  0  0  0  0  0  0  0  0  0  0  0
  151.6483  140.0920  157.9869 C   0  0  1  0  0  0  0  0  0  0  0  0
  152.4095  141.0399  158.9398 C   0  0  0  0  0  0  0  0  0  0  0  0
  153.0274  140.5437  159.8835 O   0  0  0  0  0  0  0  0  0  0  0  0
  152.4130  142.3774  158.7085 N   0  0  0  0  0  0  0  0  0  0  0  0
  151.5365  143.0015  157.7093 C   0  0  0  0  0  0  0  0  0  0  0  0
  150.3318  143.6322  158.4294 C   0  0  0  0  0  0  0  0  0  0  0  0
  150.8624  144.9422  159.5783 S   0  0  0  0  0  0  0  0  0  0  0  0
  152.1817  144.0588  160.4699 C   0  0  0  0  0  0  0  0  0  0  0  0
  153.1484  143.3841  159.4834 C   0  0  0  0  0  0  0  0  0  0  0  0
  152.1956  140.1651  156.5432 C   0  0  0  0  0  0  0  0  0  0  0  0
  151.4315  139.2146  155.6076 C   0  0  0  0  0  0  0  0  0  0  0  0
  149.3912  135.7398  153.7513 H   0  0  0  0  0  0  0  0  0  0  0  0
  150.7280  132.9963  155.7159 H   0  0  0  0  0  0  0  0  0  0  0  0
  149.9758  130.5724  155.4400 H   0  0  0  0  0  0  0  0  0  0  0  0
  147.1438  131.6073  152.6134 H   0  0  0  0  0  0  0  0  0  0  0  0
  147.7378  134.0628  152.7554 H   0  0  0  0  0  0  0  0  0  0  0  0
  150.3010  137.3422  154.4188 H   0  0  0  0  0  0  0  0  0  0  0  0
  152.5260  137.4378  156.1026 H   0  0  0  0  0  0  0  0  0  0  0  0
  149.8951  137.9165  157.5903 H   0  0  0  0  0  0  0  0  0  0  0  0
  151.0544  136.6581  157.9429 H   0  0  0  0  0  0  0  0  0  0  0  0
  151.3005  138.5688  159.5037 H   0  0  0  0  0  0  0  0  0  0  0  0
  152.7575  138.3186  158.5755 H   0  0  0  0  0  0  0  0  0  0  0  0
  150.6060  140.4004  157.9204 H   0  0  0  0  0  0  0  0  0  0  0  0
  152.0820  143.7619  157.1487 H   0  0  0  0  0  0  0  0  0  0  0  0
  151.1864  142.2889  156.9614 H   0  0  0  0  0  0  0  0  0  0  0  0
  149.6377  144.0608  157.7063 H   0  0  0  0  0  0  0  0  0  0  0  0
  149.7830  142.8720  158.9866 H   0  0  0  0  0  0  0  0  0  0  0  0
  152.7147  144.7706  161.1002 H   0  0  0  0  0  0  0  0  0  0  0  0
  151.7315  143.3183  161.1321 H   0  0  0  0  0  0  0  0  0  0  0  0
  154.0107  142.9714  160.0047 H   0  0  0  0  0  0  0  0  0  0  0  0
  153.5707  144.1333  158.8120 H   0  0  0  0  0  0  0  0  0  0  0  0
  152.1213  141.1856  156.1651 H   0  0  0  0  0  0  0  0  0  0  0  0
  153.2548  139.9033  156.5213 H   0  0  0  0  0  0  0  0  0  0  0  0
  151.8536  139.2723  154.6037 H   0  0  0  0  0  0  0  0  0  0  0  0
  150.3944  139.5435  155.5264 H   0  0  0  0  0  0  0  0  0  0  0  0
  148.2837  130.0877  153.9362 H   0  0  0  0  0  0  0  0  0  0  0  0
  1  2  2  0  0  0  0
  2  3  1  0  0  0  0
  2 10  1  0  0  0  0
  3  4  1  0  0  0  0
  3 25  1  0  0  0  0
  4  9  1  0  0  0  0
  4  5  2  0  0  0  0
  5  6  1  0  0  0  0
  5 26  1  0  0  0  0
  6  7  2  0  0  0  0
  6 27  1  0  0  0  0
  7  8  1  0  0  0  0
  7 49  1  0  0  0  0
  8  9  2  0  0  0  0
  8 28  1  0  0  0  0
  9 29  1  0  0  0  0
 10 11  1  0  0  0  0
 10 30  1  0  0  0  0
 11 24  1  0  0  0  0
 11 12  1  0  0  0  0
 11 31  1  0  0  0  0
 12 13  1  0  0  0  0
 12 32  1  0  0  0  0
 12 33  1  0  0  0  0
 13 14  1  0  0  0  0
 13 34  1  0  0  0  0
 13 35  1  0  0  0  0
 14 15  1  0  0  0  0
 14 23  1  0  0  0  0
 14 36  1  0  0  0  0
 15 16  2  0  0  0  0
 15 17  1  0  0  0  0
 17 22  1  0  0  0  0
 17 18  1  0  0  0  0
 18 19  1  0  0  0  0
 18 37  1  0  0  0  0
 18 38  1  0  0  0  0
 19 20  1  0  0  0  0
 19 39  1  0  0  0  0
 19 40  1  0  0  0  0
 20 21  1  0  0  0  0
 21 22  1  0  0  0  0
 21 41  1  0  0  0  0
 21 42  1  0  0  0  0
 22 43  1  0  0  0  0
 22 44  1  0  0  0  0
 23 24  1  0  0  0  0
 23 45  1  0  0  0  0
 23 46  1  0  0  0  0
 24 47  1  0  0  0  0
 24 48  1  0  0  0  0
M  CHG  1   7   1
M  END
> <s_m_source_file>
AV-unprocessed.smi

> <i_m_source_file_index>
1080

> <i_lp_mmshare_version>
43012

> <i_f3d_flags>
0

> <s_epik_input>
W2NIXTFbY0hdbltjSF1bY0hdYzFbTkhdQyg9TylbTkhdW0NAQEhdMltDSDJdW0NIMl1bQ0BIXShbQ0gyXVtDSDJdMilDKD1PKU4zW0NIMl1bQ0gyXVNbQ0gyXVtDSDJdMw==

> <s_epik_cmdline>
J2VwaWtfcHl0aG9uJywgJy1waCcsICc3LjAnLCAnLXRuJywgJzgnLCAnLW1hJywgJzIwMCcsICctbWV0YWxfYmluZGluZycsICctaW1hZScsICc8aW5maWxlLm1hZT4nLCAnLW9tYWUnLCAnPG91dGZpbGUubWFlPic=

> <r_epik_Ionization_Penalty>
1.01281

> <r_epik_Ionization_Penalty_Charging>
1.01278

> <r_epik_Ionization_Penalty_Neutral>
2.07681e-05

> <r_epik_State_Penalty>
1.06237

> <r_epik_Charging_Adjusted_Penalty>
2.07515

> <i_epik_Tot_Q>
1

> <i_epik_Tot_abs_Q>
1

> <r_epik_Metal_State_Penalty>
1.16243

> <b_epik_Metal_Only>
0

> <s_lp_Force_Field>
OPLS_2005

> <r_lp_Energy>
38.1228

> <b_lp_Chiralities_Consistent>
1

> <s_lp_Variant>
AV-unprocessed.smi:1080-3

> <Gold.Version>
5.8.1

> <Gold.Id.Protein>
6NUR|6NUR_protein|mol2

> <Gold.PLP.Fitness>
46.4936

> <Gold.PLP.PLP>
-43.7194

> <Gold.PLP.part.hbond>
-1.0890

> <Gold.PLP.part.metal>
0.0000

> <Gold.PLP.part.buried>
-5.0214

> <Gold.PLP.part.nonpolar>
-36.5075

> <Gold.PLP.part.repulsive>
0.1254

> <Gold.PLP.ligand.clash>
0.0000

> <Gold.PLP.ligand.torsion>
0.1073

> <Gold.PLP.Chemscore.Hbond>
0.9760

> <Gold.PLP.Chemscore.CHOScore>
0.0000

> <Gold.PLP.Chemscore.Metal>
0.0000

> <Gold.Chemscore.Hbonds>
donor molecule, donor type, donor heavy atom, donor atom, acceptor molecule, acceptor atom, score
      L1  H     3    25       P1  7948  0.98

> <Gold.PLP.Chemscore.Internal.Correction>
0.0607

> <Gold.Rescore>
     Score         DG    S(hbond)    S(metal)    S(lipo)     H(rot)  DE(clash)    DE(int)     intcor
     14.93     -17.43       0.64        0.00     111.27       1.25       0.18       2.32       ----

> <Gold.Chemscore.Fitness>
14.9346

> <Gold.Chemscore.DG>
-17.4345

> <Gold.Chemscore.ZeroCoef>
-5.4800

> <Gold.Chemscore.Hbond>
0.6384

> <Gold.Chemscore.Metal>
0.0000

> <Gold.Chemscore.Lipo>
111.2711

> <Gold.Chemscore.Internal_Hbond>
0.0000

> <Gold.Chemscore.DEClash>
0.1785

> <Gold.Chemscore.DEInternal>
2.3214

> <Gold.Chemscore.Rot>
1.2486

> <Gold.Chemscore.Internal.Correction>
   9.000000E+99

> <Gold.Chemscore.Hbonds>
donor molecule, donor type, donor heavy atom, donor atom, acceptor molecule, acceptor atom, score
      L1  H     3    25       P1  7948  0.46

> <Gold.Chemscore.Hbond.Weighted>
-2.1322

> <Gold.Chemscore.Metal.Weighted>
-0.0000

> <Gold.Chemscore.Lipo.Weighted>
-13.0187

> <Gold.Chemscore.Internal_Hbond.Weighted>
0.0000

> <Gold.Chemscore.DEClash.Weighted>
0.1785

> <Gold.Chemscore.DEInternal.Weighted>
2.3214

> <Gold.Chemscore.Rot.Weighted>
3.1963

> <Gold.Chemscore.Internal.Correction.Weighted>
   9.000000E+99

> <Gold.Protein.RotatedTorsions>
[ 6907 6896 6895 6894 ] final -136.65 input  -60.11 | X-H torsion
[ 7974 7965 7964 7962 ] final   -8.39 input  175.53 | X-H torsion
[ 8008 7997 7996 7995 ] final  118.91 input   59.86 | X-H torsion
[ 10167 10162 10161 10158 ] final -170.16 input  -65.29 | X-H torsion
[ 10718 10713 10712 10709 ] final  119.82 input   66.30 | X-H torsion
[ 10763 10752 10751 10750 ] final -107.42 input  -60.55 | X-H torsion
[ 11005 11000 10999 10996 ] final   67.96 input  -57.11 | X-H torsion

> <Gold.Protein.ActiveResidues>
 VAL166  LYS551  ARG553  GLY616  TRP617  ASP618  TYR619  PRO620  LYS621  CYS622 
 ASP623  PHE694  ASN695  SER759  ASP760  ASP761  ALA762  ILE779  LEU786  VAL792 
 PHE793  MET794  SER795  GLU796  ALA797  LYS798  CYS799  TRP800  GLU811  SER814 

> <Gold.Protein.RotatedAtoms>
  151.0127  133.5950  159.2680 H   0  0  0  0  0  0  0  0  0  0  0  0  # atno 6907 bound_to 6896
  151.3096  135.0790  159.9277 H   0  0  0  0  0  0  0  0  0  0  0  0  # atno 6908 bound_to 6896
  152.5303  133.9794  159.7853 H   0  0  0  0  0  0  0  0  0  0  0  0  # atno 6909 bound_to 6896
  146.2281  140.2461  142.8345 H   0  0  0  0  0  0  0  0  0  0  0  0  # atno 7974 bound_to 7965
  156.2570  140.2864  156.0909 H   0  0  0  0  0  0  0  0  0  0  0  0  # atno 8008 bound_to 7997
  155.1464  140.0396  157.2828 H   0  0  0  0  0  0  0  0  0  0  0  0  # atno 8009 bound_to 7997
  154.6493  140.2541  155.7239 H   0  0  0  0  0  0  0  0  0  0  0  0  # atno 8010 bound_to 7997
  139.5879  144.1279  152.1598 H   0  0  0  0  0  0  0  0  0  0  0  0  # atno 10167 bound_to 10162
  157.5934  131.1061  150.7950 H   0  0  0  0  0  0  0  0  0  0  0  0  # atno 10718 bound_to 10713
  154.8074  135.4675  154.0428 H   0  0  0  0  0  0  0  0  0  0  0  0  # atno 10763 bound_to 10752
  153.1886  135.6851  153.8390 H   0  0  0  0  0  0  0  0  0  0  0  0  # atno 10764 bound_to 10752
  153.7915  135.3242  155.3356 H   0  0  0  0  0  0  0  0  0  0  0  0  # atno 10765 bound_to 10752
  139.9740  134.6853  156.0391 H   0  0  0  0  0  0  0  0  0  0  0  0  # atno 11005 bound_to 11000
  144.9447  140.8115  143.5609 LP  0  0  0  0  0  0  0  0  0  0  0  0  # atno 17320 bound_to 7965
  145.2416  139.2070  143.4989 LP  0  0  0  0  0  0  0  0  0  0  0  0  # atno 17321 bound_to 7965
  140.0846  144.5672  150.7098 LP  0  0  0  0  0  0  0  0  0  0  0  0  # atno 17342 bound_to 10162
  140.7147  143.2534  151.4471 LP  0  0  0  0  0  0  0  0  0  0  0  0  # atno 17343 bound_to 10162
  156.8366  130.5034  149.5325 LP  0  0  0  0  0  0  0  0  0  0  0  0  # atno 17370 bound_to 10713
  156.0993  130.5956  150.9866 LP  0  0  0  0  0  0  0  0  0  0  0  0  # atno 17371 bound_to 10713
  141.1418  133.6563  156.3751 LP  0  0  0  0  0  0  0  0  0  0  0  0  # atno 17394 bound_to 11000
  140.5234  134.6282  157.5326 LP  0  0  0  0  0  0  0  0  0  0  0  0  # atno 17395 bound_to 11000

$$$$
