AV-unprocessed.smi:2847|AV-procd|sdf|10953|dock8
  -GOLD-   2272015403D 1   1.00000     0.00000
 Structure written by MMmdl.
 45 46  0  0  0  0  0  0  0  0  1 V2000
  143.9765  131.8096  150.5203 C   0  0  0  0  0  0  0  0  0  0  0  0
  145.1330  132.5788  151.2013 C   0  0  0  0  0  0  0  0  0  0  0  0
  145.6193  131.6791  152.3622 C   0  0  0  0  0  0  0  0  0  0  0  0
  146.2787  132.7845  150.1936 C   0  0  0  0  0  0  0  0  0  0  0  0
  144.6565  133.9459  151.7223 C   0  0  0  0  0  0  0  0  0  0  0  0
  143.5728  133.9541  152.5095 N   0  0  0  0  0  0  0  0  0  0  0  0
  143.0678  135.1530  152.8679 C   0  0  0  0  0  0  0  0  0  0  0  0
  143.6199  136.3639  152.4057 C   0  0  0  0  0  0  0  0  0  0  0  0
  143.0464  137.5899  152.8362 N   0  0  0  0  0  0  0  0  0  0  0  0
  142.0191  137.7805  153.6806 C   0  0  0  0  0  0  0  0  0  0  0  0
  141.4087  136.8857  154.2641 O   0  0  0  0  0  0  0  0  0  0  0  0
  141.7526  139.0897  153.8197 N   0  0  0  0  0  0  0  0  0  0  0  0
  140.7211  139.7332  154.6453 C   0  0  1  0  0  0  0  0  0  0  0  0
  140.9929  139.2749  156.0996 C   0  0  0  0  0  0  0  0  0  0  0  0
  140.8664  141.2777  154.5697 C   0  0  0  0  0  0  0  0  0  0  0  0
  140.4917  141.8004  153.3095 O   0  0  0  0  0  0  0  0  0  0  0  0
  139.3007  139.3662  154.1811 C   0  0  0  0  0  0  0  0  0  0  0  0
  138.7516  137.9575  154.1735 C   0  0  0  0  0  0  0  0  0  0  0  0
  138.9808  138.6931  152.8666 C   0  0  0  0  0  0  0  0  0  0  0  0
  144.7434  136.2417  151.5536 C   0  0  0  0  0  0  0  0  0  0  0  0
  145.2393  135.0355  151.2048 N   0  0  0  0  0  0  0  0  0  0  0  0
  144.2969  130.8209  150.1903 H   0  0  0  0  0  0  0  0  0  0  0  0
  143.6042  132.3295  149.6368 H   0  0  0  0  0  0  0  0  0  0  0  0
  143.1359  131.6712  151.2014 H   0  0  0  0  0  0  0  0  0  0  0  0
  144.8373  131.5378  153.1094 H   0  0  0  0  0  0  0  0  0  0  0  0
  146.4889  132.0990  152.8689 H   0  0  0  0  0  0  0  0  0  0  0  0
  145.9116  130.6915  152.0039 H   0  0  0  0  0  0  0  0  0  0  0  0
  146.6422  131.8331  149.8042 H   0  0  0  0  0  0  0  0  0  0  0  0
  147.1241  133.2966  150.6542 H   0  0  0  0  0  0  0  0  0  0  0  0
  145.9545  133.3857  149.3433 H   0  0  0  0  0  0  0  0  0  0  0  0
  142.2083  135.1426  153.5221 H   0  0  0  0  0  0  0  0  0  0  0  0
  143.4978  138.4241  152.4902 H   0  0  0  0  0  0  0  0  0  0  0  0
  142.3259  139.7233  153.2823 H   0  0  0  0  0  0  0  0  0  0  0  0
  140.3364  139.7681  156.8158 H   0  0  0  0  0  0  0  0  0  0  0  0
  142.0139  139.5062  156.4051 H   0  0  0  0  0  0  0  0  0  0  0  0
  140.8767  138.1987  156.2223 H   0  0  0  0  0  0  0  0  0  0  0  0
  140.2719  141.7721  155.3380 H   0  0  0  0  0  0  0  0  0  0  0  0
  141.9015  141.5644  154.7576 H   0  0  0  0  0  0  0  0  0  0  0  0
  140.5634  141.1118  152.6662 H   0  0  0  0  0  0  0  0  0  0  0  0
  138.5664  140.1082  154.4883 H   0  0  0  0  0  0  0  0  0  0  0  0
  139.4138  137.1252  154.3971 H   0  0  0  0  0  0  0  0  0  0  0  0
  137.7217  137.8232  154.4977 H   0  0  0  0  0  0  0  0  0  0  0  0
  138.1022  139.0449  152.3297 H   0  0  0  0  0  0  0  0  0  0  0  0
  139.7953  138.3486  152.2347 H   0  0  0  0  0  0  0  0  0  0  0  0
  145.2684  137.0934  151.1508 H   0  0  0  0  0  0  0  0  0  0  0  0
  1  2  1  0  0  0  0
  1 22  1  0  0  0  0
  1 23  1  0  0  0  0
  1 24  1  0  0  0  0
  2  3  1  0  0  0  0
  2  4  1  0  0  0  0
  2  5  1  0  0  0  0
  3 25  1  0  0  0  0
  3 26  1  0  0  0  0
  3 27  1  0  0  0  0
  4 28  1  0  0  0  0
  4 29  1  0  0  0  0
  4 30  1  0  0  0  0
  5 21  1  0  0  0  0
  5  6  2  0  0  0  0
  6  7  1  0  0  0  0
  7  8  2  0  0  0  0
  7 31  1  0  0  0  0
  8  9  1  0  0  0  0
  8 20  1  0  0  0  0
  9 10  1  0  0  0  0
  9 32  1  0  0  0  0
 10 11  2  0  0  0  0
 10 12  1  0  0  0  0
 12 13  1  0  0  0  0
 12 33  1  0  0  0  0
 13 14  1  0  0  0  0
 13 15  1  0  0  0  0
 13 17  1  0  0  0  0
 14 34  1  0  0  0  0
 14 35  1  0  0  0  0
 14 36  1  0  0  0  0
 15 16  1  0  0  0  0
 15 37  1  0  0  0  0
 15 38  1  0  0  0  0
 16 39  1  0  0  0  0
 17 19  1  0  0  0  0
 17 18  1  0  0  0  0
 17 40  1  0  0  0  0
 18 19  1  0  0  0  0
 18 41  1  0  0  0  0
 18 42  1  0  0  0  0
 19 43  1  0  0  0  0
 19 44  1  0  0  0  0
 20 21  2  0  0  0  0
 20 45  1  0  0  0  0
M  END
> <s_m_source_file>
AV-unprocessed.smi

> <i_m_source_file_index>
2847

> <i_lp_mmshare_version>
43012

> <i_f3d_flags>
0

> <s_epik_input>
W0NIM11DKFtDSDNdKShbQ0gzXSljMW5bY0hdYyhbY0hdbjEpW05IXUMoPU8pW05IXVtDQEBdKFtDSDNdKShbQ0gyXVtPSF0pW0NIXTJbQ0gyXVtDSDJdMg==

> <s_epik_cmdline>
J2VwaWtfcHl0aG9uJywgJy1waCcsICc3LjAnLCAnLXRuJywgJzgnLCAnLW1hJywgJzIwMCcsICctbWV0YWxfYmluZGluZycsICctaW1hZScsICc8aW5maWxlLm1hZT4nLCAnLW9tYWUnLCAnPG91dGZpbGUubWFlPic=

> <r_lp_tautomer_probability>
1

> <r_epik_Ionization_Penalty>
2.57177e-05

> <r_epik_Ionization_Penalty_Charging>
0

> <r_epik_Ionization_Penalty_Neutral>
2.57177e-05

> <r_epik_State_Penalty>
-0

> <r_epik_Charging_Adjusted_Penalty>
0

> <i_epik_Tot_Q>
0

> <i_epik_Tot_abs_Q>
0

> <r_epik_Metal_State_Penalty>
-0

> <b_epik_Metal_Only>
0

> <s_lp_Force_Field>
OPLS_2005

> <r_lp_Energy>
20.4005

> <b_lp_Chiralities_Consistent>
1

> <s_lp_Variant>
AV-unprocessed.smi:2847-1

> <Gold.Version>
5.8.1

> <Gold.Id.Protein>
6NUR|6NUR_protein|mol2

> <Gold.PLP.Fitness>
46.7217

> <Gold.PLP.PLP>
-33.4976

> <Gold.PLP.part.hbond>
-5.1218

> <Gold.PLP.part.metal>
0.0000

> <Gold.PLP.part.buried>
-2.7089

> <Gold.PLP.part.nonpolar>
-25.6358

> <Gold.PLP.part.repulsive>
0.4299

> <Gold.PLP.ligand.clash>
0.0000

> <Gold.PLP.ligand.torsion>
1.1717

> <Gold.PLP.Chemscore.Hbond>
3.9840

> <Gold.PLP.Chemscore.CHOScore>
0.6791

> <Gold.PLP.Chemscore.Metal>
0.0000

> <Gold.Chemscore.Hbonds>
donor molecule, donor type, donor heavy atom, donor atom, acceptor molecule, acceptor atom, score
      L1  H     9    32       P1 10175  0.99
      L1  H    12    33       P1 10175  1.00
      L1  H    16    39       P1 10160  0.99
      P1  H 10162 10167       L1    16  1.00
      L1  C    20    45       P1 10171  0.68

> <Gold.PLP.Chemscore.Internal.Correction>
1.5780

> <Gold.Rescore>
     Score         DG    S(hbond)    S(metal)    S(lipo)     H(rot)  DE(clash)    DE(int)     intcor
     15.50     -20.08       3.35        0.00      76.59       2.17       0.50       4.07       ----

> <Gold.Chemscore.Fitness>
15.5035

> <Gold.Chemscore.DG>
-20.0808

> <Gold.Chemscore.ZeroCoef>
-5.4800

> <Gold.Chemscore.Hbond>
3.3500

> <Gold.Chemscore.Metal>
0.0000

> <Gold.Chemscore.Lipo>
76.5943

> <Gold.Chemscore.Internal_Hbond>
0.0000

> <Gold.Chemscore.DEClash>
0.5040

> <Gold.Chemscore.DEInternal>
4.0732

> <Gold.Chemscore.Rot>
2.1679

> <Gold.Chemscore.Internal.Correction>
   9.000000E+99

> <Gold.Chemscore.Hbonds>
donor molecule, donor type, donor heavy atom, donor atom, acceptor molecule, acceptor atom, score
      L1  H     9    32       P1 10175  0.89
      L1  H    12    33       P1 10175  0.94
      L1  H    16    39       P1 10160  0.92
      P1  H 10162 10167       L1    16  0.32

> <Gold.Chemscore.Hbond.Weighted>
-11.1891

> <Gold.Chemscore.Metal.Weighted>
-0.0000

> <Gold.Chemscore.Lipo.Weighted>
-8.9615

> <Gold.Chemscore.Internal_Hbond.Weighted>
0.0000

> <Gold.Chemscore.DEClash.Weighted>
0.5040

> <Gold.Chemscore.DEInternal.Weighted>
4.0732

> <Gold.Chemscore.Rot.Weighted>
5.5499

> <Gold.Chemscore.Internal.Correction.Weighted>
   9.000000E+99

> <Gold.Protein.RotatedTorsions>
[ 6907 6896 6895 6894 ] final  163.29 input  -60.11 | X-H torsion
[ 7974 7965 7964 7962 ] final  -94.82 input  175.53 | X-H torsion
[ 8008 7997 7996 7995 ] final   42.81 input   59.86 | X-H torsion
[ 10167 10162 10161 10158 ] final -110.00 input  -65.29 | X-H torsion
[ 10718 10713 10712 10709 ] final  -94.93 input   66.30 | X-H torsion
[ 10763 10752 10751 10750 ] final   -7.29 input  -60.55 | X-H torsion
[ 11005 11000 10999 10996 ] final -164.51 input  -57.11 | X-H torsion

> <Gold.Protein.ActiveResidues>
 VAL166  LYS551  ARG553  GLY616  TRP617  ASP618  TYR619  PRO620  LYS621  CYS622 
 ASP623  PHE694  ASN695  SER759  ASP760  ASP761  ALA762  ILE779  LEU786  VAL792 
 PHE793  MET794  SER795  GLU796  ALA797  LYS798  CYS799  TRP800  GLU811  SER814 

> <Gold.Protein.RotatedAtoms>
  151.9274  133.3602  159.3918 H   0  0  0  0  0  0  0  0  0  0  0  0  # atno 6907 bound_to 6896
  150.7024  134.4572  159.5373 H   0  0  0  0  0  0  0  0  0  0  0  0  # atno 6908 bound_to 6896
  152.2207  134.8416  160.0537 H   0  0  0  0  0  0  0  0  0  0  0  0  # atno 6909 bound_to 6896
  145.3682  140.9501  143.2462 H   0  0  0  0  0  0  0  0  0  0  0  0  # atno 7974 bound_to 7965
  155.2923  140.3379  155.4252 H   0  0  0  0  0  0  0  0  0  0  0  0  # atno 8008 bound_to 7997
  156.2040  140.1744  156.7879 H   0  0  0  0  0  0  0  0  0  0  0  0  # atno 8009 bound_to 7997
  154.5596  140.0690  156.8782 H   0  0  0  0  0  0  0  0  0  0  0  0  # atno 8010 bound_to 7997
  140.1492  143.4214  152.1507 H   0  0  0  0  0  0  0  0  0  0  0  0  # atno 10167 bound_to 10162
  156.0035  130.5088  150.6000 H   0  0  0  0  0  0  0  0  0  0  0  0  # atno 10718 bound_to 10713
  153.4243  135.7010  153.6273 H   0  0  0  0  0  0  0  0  0  0  0  0  # atno 10763 bound_to 10752
  153.4714  135.3714  155.2393 H   0  0  0  0  0  0  0  0  0  0  0  0  # atno 10764 bound_to 10752
  154.8723  135.4044  154.3616 H   0  0  0  0  0  0  0  0  0  0  0  0  # atno 10765 bound_to 10752
  140.5861  134.5092  157.5186 H   0  0  0  0  0  0  0  0  0  0  0  0  # atno 11005 bound_to 11000
  144.8596  139.5197  143.6818 LP  0  0  0  0  0  0  0  0  0  0  0  0  # atno 17320 bound_to 7965
  146.2897  139.7105  142.9170 LP  0  0  0  0  0  0  0  0  0  0  0  0  # atno 17321 bound_to 7965
  139.5434  144.7277  151.4660 LP  0  0  0  0  0  0  0  0  0  0  0  0  # atno 17342 bound_to 10162
  140.6713  143.8287  150.7003 LP  0  0  0  0  0  0  0  0  0  0  0  0  # atno 17343 bound_to 10162
  157.3850  131.0787  151.1443 LP  0  0  0  0  0  0  0  0  0  0  0  0  # atno 17370 bound_to 10713
  157.2154  130.6457  149.5790 LP  0  0  0  0  0  0  0  0  0  0  0  0  # atno 17371 bound_to 10713
  139.9295  134.7991  156.0971 LP  0  0  0  0  0  0  0  0  0  0  0  0  # atno 17394 bound_to 11000
  141.0965  133.6693  156.2657 LP  0  0  0  0  0  0  0  0  0  0  0  0  # atno 17395 bound_to 11000

$$$$
