AV-unprocessed.smi:2853|AV-procd|sdf|10974|dock5
  -GOLD-   2272015423D 1   1.00000     0.00000
 Structure written by MMmdl.
 43 44  0  0  0  0  0  0  0  0  1 V2000
  150.0355  137.4267  154.5258 C   0  0  0  0  0  0  0  0  0  0  0  0
  149.9371  138.8578  154.9286 C   0  0  0  0  0  0  0  0  0  0  0  0
  149.0915  139.7263  154.3764 N   0  0  0  0  0  0  0  0  0  0  0  0
  149.1909  141.0061  154.9301 C   0  0  0  0  0  0  0  0  0  0  0  0
  148.3001  142.0955  154.3996 C   0  0  0  0  0  0  0  0  0  0  0  0
  146.8297  141.6589  154.2315 C   0  0  0  0  0  0  0  0  0  0  0  0
  146.6651  140.5249  153.2047 C   0  0  0  0  0  0  0  0  0  0  0  0
  145.9432  142.8573  153.8625 C   0  0  0  0  0  0  0  0  0  0  0  0
  150.1402  141.1201  155.9228 C   0  0  0  0  0  0  0  0  0  0  0  0
  150.4130  142.2671  156.5998 N   0  0  0  0  0  0  0  0  0  0  0  0
  151.0379  142.4297  157.7784 C   0  0  0  0  0  0  0  0  0  0  0  0
  151.4943  141.5243  158.4759 O   0  0  0  0  0  0  0  0  0  0  0  0
  151.1160  143.7327  158.0971 N   0  0  0  0  0  0  0  0  0  0  0  0
  151.7349  144.3521  159.2770 C   0  0  2  0  0  0  0  0  0  0  0  0
  152.2942  145.7183  158.8391 C   0  0  0  0  0  0  0  0  0  0  0  0
  152.8491  143.4882  159.8937 C   0  0  0  0  0  0  0  0  0  0  0  0
  152.3412  143.1621  161.2969 C   0  0  0  0  0  0  0  0  0  0  0  0
  151.4990  144.2588  161.6059 O   0  0  0  0  0  0  0  0  0  0  0  0
  150.7357  144.5288  160.4410 C   0  0  0  0  0  0  0  0  0  0  0  0
  150.9288  139.5724  156.1866 S   0  0  0  0  0  0  0  0  0  0  0  0
  149.4172  137.2302  153.6492 H   0  0  0  0  0  0  0  0  0  0  0  0
  149.7001  136.7869  155.3421 H   0  0  0  0  0  0  0  0  0  0  0  0
  151.0693  137.1776  154.2866 H   0  0  0  0  0  0  0  0  0  0  0  0
  148.3413  142.9492  155.0775 H   0  0  0  0  0  0  0  0  0  0  0  0
  148.6798  142.4685  153.4477 H   0  0  0  0  0  0  0  0  0  0  0  0
  146.4783  141.2864  155.1947 H   0  0  0  0  0  0  0  0  0  0  0  0
  147.0380  140.8211  152.2238 H   0  0  0  0  0  0  0  0  0  0  0  0
  145.6168  140.2478  153.0915 H   0  0  0  0  0  0  0  0  0  0  0  0
  147.2034  139.6271  153.5089 H   0  0  0  0  0  0  0  0  0  0  0  0
  146.2395  143.2889  152.9061 H   0  0  0  0  0  0  0  0  0  0  0  0
  146.0072  143.6422  154.6167 H   0  0  0  0  0  0  0  0  0  0  0  0
  144.8960  142.5635  153.7850 H   0  0  0  0  0  0  0  0  0  0  0  0
  150.1313  143.1157  156.1318 H   0  0  0  0  0  0  0  0  0  0  0  0
  150.7043  144.3797  157.4410 H   0  0  0  0  0  0  0  0  0  0  0  0
  152.7498  146.2481  159.6767 H   0  0  0  0  0  0  0  0  0  0  0  0
  151.5080  146.3584  158.4371 H   0  0  0  0  0  0  0  0  0  0  0  0
  153.0552  145.6063  158.0658 H   0  0  0  0  0  0  0  0  0  0  0  0
  153.0808  142.5856  159.3272 H   0  0  0  0  0  0  0  0  0  0  0  0
  153.7783  144.0540  159.9726 H   0  0  0  0  0  0  0  0  0  0  0  0
  151.7576  142.2403  161.2989 H   0  0  0  0  0  0  0  0  0  0  0  0
  153.1482  143.0574  162.0223 H   0  0  0  0  0  0  0  0  0  0  0  0
  150.2992  145.5272  160.4830 H   0  0  0  0  0  0  0  0  0  0  0  0
  149.9097  143.8181  160.4007 H   0  0  0  0  0  0  0  0  0  0  0  0
  1  2  1  0  0  0  0
  1 21  1  0  0  0  0
  1 22  1  0  0  0  0
  1 23  1  0  0  0  0
  2 20  1  0  0  0  0
  2  3  2  0  0  0  0
  3  4  1  0  0  0  0
  4  5  1  0  0  0  0
  4  9  2  0  0  0  0
  5  6  1  0  0  0  0
  5 24  1  0  0  0  0
  5 25  1  0  0  0  0
  6  7  1  0  0  0  0
  6  8  1  0  0  0  0
  6 26  1  0  0  0  0
  7 27  1  0  0  0  0
  7 28  1  0  0  0  0
  7 29  1  0  0  0  0
  8 30  1  0  0  0  0
  8 31  1  0  0  0  0
  8 32  1  0  0  0  0
  9 10  1  0  0  0  0
  9 20  1  0  0  0  0
 10 11  1  0  0  0  0
 10 33  1  0  0  0  0
 11 12  2  0  0  0  0
 11 13  1  0  0  0  0
 13 14  1  0  0  0  0
 13 34  1  0  0  0  0
 14 19  1  0  0  0  0
 14 15  1  0  0  0  0
 14 16  1  0  0  0  0
 15 35  1  0  0  0  0
 15 36  1  0  0  0  0
 15 37  1  0  0  0  0
 16 17  1  0  0  0  0
 16 38  1  0  0  0  0
 16 39  1  0  0  0  0
 17 18  1  0  0  0  0
 17 40  1  0  0  0  0
 17 41  1  0  0  0  0
 18 19  1  0  0  0  0
 19 42  1  0  0  0  0
 19 43  1  0  0  0  0
M  END
> <s_m_source_file>
AV-unprocessed.smi

> <i_m_source_file_index>
2853

> <i_lp_mmshare_version>
43012

> <i_f3d_flags>
0

> <s_epik_input>
W0NIM11jMW5jKFtDSDJdW0NIXShbQ0gzXSlbQ0gzXSljKHMxKVtOSF1DKD1PKVtOSF1bQ0BAXTIoW0NIM10pW0NIMl1bQ0gyXU9bQ0gyXTI=

> <s_epik_cmdline>
J2VwaWtfcHl0aG9uJywgJy1waCcsICc3LjAnLCAnLXRuJywgJzgnLCAnLW1hJywgJzIwMCcsICctbWV0YWxfYmluZGluZycsICctaW1hZScsICc8aW5maWxlLm1hZT4nLCAnLW9tYWUnLCAnPG91dGZpbGUubWFlPic=

> <r_epik_Ionization_Penalty>
0.000723394

> <r_epik_Ionization_Penalty_Charging>
0

> <r_epik_Ionization_Penalty_Neutral>
0.000723394

> <r_epik_State_Penalty>
0.000446791

> <r_epik_Charging_Adjusted_Penalty>
0.000446791

> <i_epik_Tot_Q>
0

> <i_epik_Tot_abs_Q>
0

> <r_epik_Metal_State_Penalty>
-0

> <b_epik_Metal_Only>
0

> <s_lp_Force_Field>
OPLS_2005

> <r_lp_Energy>
15.0202

> <b_lp_Chiralities_Consistent>
1

> <s_lp_Variant>
AV-unprocessed.smi:2853-2

> <Gold.Version>
5.8.1

> <Gold.Id.Protein>
6NUR|6NUR_protein|mol2

> <Gold.PLP.Fitness>
42.0925

> <Gold.PLP.PLP>
-40.9790

> <Gold.PLP.part.hbond>
-1.1307

> <Gold.PLP.part.metal>
0.0000

> <Gold.PLP.part.buried>
1.2747

> <Gold.PLP.part.nonpolar>
-41.6845

> <Gold.PLP.part.repulsive>
1.8160

> <Gold.PLP.ligand.clash>
0.0000

> <Gold.PLP.ligand.torsion>
0.8217

> <Gold.PLP.Chemscore.Hbond>
0.9100

> <Gold.PLP.Chemscore.CHOScore>
0.0000

> <Gold.PLP.Chemscore.Metal>
0.0000

> <Gold.Chemscore.Hbonds>
donor molecule, donor type, donor heavy atom, donor atom, acceptor molecule, acceptor atom, score
      L1  H    10    33       P1  8028  0.88

> <Gold.PLP.Chemscore.Internal.Correction>
0.0270

> <Gold.Rescore>
     Score         DG    S(hbond)    S(metal)    S(lipo)     H(rot)  DE(clash)    DE(int)     intcor
     13.61     -20.08       1.04        0.00     123.05       1.28       3.15       3.32       ----

> <Gold.Chemscore.Fitness>
13.6095

> <Gold.Chemscore.DG>
-20.0831

> <Gold.Chemscore.ZeroCoef>
-5.4800

> <Gold.Chemscore.Hbond>
1.0393

> <Gold.Chemscore.Metal>
0.0000

> <Gold.Chemscore.Lipo>
123.0476

> <Gold.Chemscore.Internal_Hbond>
0.0000

> <Gold.Chemscore.DEClash>
3.1506

> <Gold.Chemscore.DEInternal>
3.3230

> <Gold.Chemscore.Rot>
1.2753

> <Gold.Chemscore.Internal.Correction>
   9.000000E+99

> <Gold.Chemscore.Hbonds>
donor molecule, donor type, donor heavy atom, donor atom, acceptor molecule, acceptor atom, score
      L1  H    10    33       P1  8028  0.83

> <Gold.Chemscore.Hbond.Weighted>
-3.4712

> <Gold.Chemscore.Metal.Weighted>
-0.0000

> <Gold.Chemscore.Lipo.Weighted>
-14.3966

> <Gold.Chemscore.Internal_Hbond.Weighted>
0.0000

> <Gold.Chemscore.DEClash.Weighted>
3.1506

> <Gold.Chemscore.DEInternal.Weighted>
3.3230

> <Gold.Chemscore.Rot.Weighted>
3.2646

> <Gold.Chemscore.Internal.Correction.Weighted>
   9.000000E+99

> <Gold.Protein.RotatedTorsions>
[ 6907 6896 6895 6894 ] final  144.97 input  -60.11 | X-H torsion
[ 7974 7965 7964 7962 ] final   74.39 input  175.53 | X-H torsion
[ 8008 7997 7996 7995 ] final  -26.88 input   59.86 | X-H torsion
[ 10167 10162 10161 10158 ] final  170.15 input  -65.29 | X-H torsion
[ 10718 10713 10712 10709 ] final -105.31 input   66.30 | X-H torsion
[ 10763 10752 10751 10750 ] final  -27.35 input  -60.55 | X-H torsion
[ 11005 11000 10999 10996 ] final    2.96 input  -57.11 | X-H torsion

> <Gold.Protein.ActiveResidues>
 VAL166  LYS551  ARG553  GLY616  TRP617  ASP618  TYR619  PRO620  LYS621  CYS622 
 ASP623  PHE694  ASN695  SER759  ASP760  ASP761  ALA762  ILE779  LEU786  VAL792 
 PHE793  MET794  SER795  GLU796  ALA797  LYS798  CYS799  TRP800  GLU811  SER814 

> <Gold.Protein.RotatedAtoms>
  152.1868  133.4745  159.4986 H   0  0  0  0  0  0  0  0  0  0  0  0  # atno 6907 bound_to 6896
  150.6944  134.1763  159.4240 H   0  0  0  0  0  0  0  0  0  0  0  0  # atno 6908 bound_to 6896
  151.9676  135.0092  160.0602 H   0  0  0  0  0  0  0  0  0  0  0  0  # atno 6909 bound_to 6896
  145.7288  139.2676  143.1553 H   0  0  0  0  0  0  0  0  0  0  0  0  # atno 7974 bound_to 7965
  154.4404  140.1887  156.0844 H   0  0  0  0  0  0  0  0  0  0  0  0  # atno 8008 bound_to 7997
  156.0414  140.3319  155.7222 H   0  0  0  0  0  0  0  0  0  0  0  0  # atno 8009 bound_to 7997
  155.5694  140.0611  157.2801 H   0  0  0  0  0  0  0  0  0  0  0  0  # atno 8010 bound_to 7997
  139.5011  144.3628  151.9807 H   0  0  0  0  0  0  0  0  0  0  0  0  # atno 10167 bound_to 10162
  156.0340  130.5557  150.7520 H   0  0  0  0  0  0  0  0  0  0  0  0  # atno 10718 bound_to 10713
  153.7307  135.6939  153.4990 H   0  0  0  0  0  0  0  0  0  0  0  0  # atno 10763 bound_to 10752
  153.2138  135.4393  155.0409 H   0  0  0  0  0  0  0  0  0  0  0  0  # atno 10764 bound_to 10752
  154.8254  135.3443  154.6837 H   0  0  0  0  0  0  0  0  0  0  0  0  # atno 10765 bound_to 10752
  140.5984  133.9858  155.8121 H   0  0  0  0  0  0  0  0  0  0  0  0  # atno 11005 bound_to 11000
  146.0557  140.8023  142.9759 LP  0  0  0  0  0  0  0  0  0  0  0  0  # atno 17320 bound_to 7965
  144.6898  140.3120  143.7246 LP  0  0  0  0  0  0  0  0  0  0  0  0  # atno 17321 bound_to 7965
  140.3064  144.3588  150.6046 LP  0  0  0  0  0  0  0  0  0  0  0  0  # atno 17342 bound_to 10162
  140.5833  143.2171  151.7388 LP  0  0  0  0  0  0  0  0  0  0  0  0  # atno 17343 bound_to 10162
  157.5062  131.0922  151.0254 LP  0  0  0  0  0  0  0  0  0  0  0  0  # atno 17370 bound_to 10713
  157.0622  130.5830  149.5388 LP  0  0  0  0  0  0  0  0  0  0  0  0  # atno 17371 bound_to 10713
  141.0888  133.9949  157.3270 LP  0  0  0  0  0  0  0  0  0  0  0  0  # atno 17394 bound_to 11000
  139.9243  135.0201  156.8178 LP  0  0  0  0  0  0  0  0  0  0  0  0  # atno 17395 bound_to 11000

$$$$
