AV-unprocessed.smi:1821|AV-procd|sdf|7388|dock4
  -GOLD-   22720 9 53D 1   1.00000     0.00000
 Structure written by MMmdl.
 36 38  0  0  0  0  0  0  0  0  2 V2000
  151.6681  137.9007  154.4852 C   0  0  0  0  0  0  0  0  0  0  0  0
  150.5082  138.8294  154.3520 C   0  0  0  0  0  0  0  0  0  0  0  0
  149.4217  138.6470  153.5494 N   0  3  0  0  0  0  0  0  0  0  0  0
  148.5468  139.7262  153.6859 C   0  0  0  0  0  0  0  0  0  0  0  0
  147.3240  139.9926  153.0777 C   0  0  0  0  0  0  0  0  0  0  0  0
  146.6848  141.1960  153.4422 C   0  0  0  0  0  0  0  0  0  0  0  0
  147.2612  142.0799  154.3779 C   0  0  0  0  0  0  0  0  0  0  0  0
  148.5011  141.7988  154.9886 C   0  0  0  0  0  0  0  0  0  0  0  0
  149.1265  140.6080  154.6207 C   0  0  0  0  0  0  0  0  0  0  0  0
  150.3352  140.0160  155.0012 N   0  0  0  0  0  0  0  0  0  0  0  0
  151.1972  140.7050  155.9731 C   0  0  0  0  0  0  0  0  0  0  0  0
  150.8131  140.4014  157.4358 C   0  0  2  0  0  0  0  0  0  0  0  0
  149.4738  140.7900  157.6768 O   0  0  0  0  0  0  0  0  0  0  0  0
  151.7956  141.0378  158.4126 C   0  0  0  0  0  0  0  0  0  0  0  0
  151.9670  142.4424  158.4576 C   0  0  0  0  0  0  0  0  0  0  0  0
  151.2622  143.2504  157.6293 F   0  0  0  0  0  0  0  0  0  0  0  0
  152.8809  143.0176  159.3619 C   0  0  0  0  0  0  0  0  0  0  0  0
  153.6344  142.1991  160.2231 C   0  0  0  0  0  0  0  0  0  0  0  0
  153.4766  140.8017  160.1776 C   0  0  0  0  0  0  0  0  0  0  0  0
  152.5644  140.2213  159.2748 C   0  0  0  0  0  0  0  0  0  0  0  0
  152.4371  138.8726  159.2399 F   0  0  0  0  0  0  0  0  0  0  0  0
  151.5790  137.0716  153.7828 H   0  0  0  0  0  0  0  0  0  0  0  0
  151.7111  137.4962  155.4966 H   0  0  0  0  0  0  0  0  0  0  0  0
  152.5999  138.4287  154.2815 H   0  0  0  0  0  0  0  0  0  0  0  0
  146.8805  139.3177  152.3603 H   0  0  0  0  0  0  0  0  0  0  0  0
  145.7337  141.4466  152.9947 H   0  0  0  0  0  0  0  0  0  0  0  0
  146.7425  142.9928  154.6320 H   0  0  0  0  0  0  0  0  0  0  0  0
  148.9362  142.4826  155.7027 H   0  0  0  0  0  0  0  0  0  0  0  0
  152.2318  140.4216  155.7749 H   0  0  0  0  0  0  0  0  0  0  0  0
  151.1298  141.7752  155.7747 H   0  0  0  0  0  0  0  0  0  0  0  0
  150.8300  139.3217  157.5823 H   0  0  0  0  0  0  0  0  0  0  0  0
  149.4262  141.7335  157.6538 H   0  0  0  0  0  0  0  0  0  0  0  0
  153.0053  144.0901  159.3926 H   0  0  0  0  0  0  0  0  0  0  0  0
  154.3354  142.6425  160.9150 H   0  0  0  0  0  0  0  0  0  0  0  0
  154.0583  140.1729  160.8355 H   0  0  0  0  0  0  0  0  0  0  0  0
  149.2921  137.8423  152.9496 H   0  0  0  0  0  0  0  0  0  0  0  0
  1  2  1  0  0  0  0
  1 22  1  0  0  0  0
  1 23  1  0  0  0  0
  1 24  1  0  0  0  0
  2 10  1  0  0  0  0
  2  3  2  0  0  0  0
  3  4  1  0  0  0  0
  3 36  1  0  0  0  0
  4  9  2  0  0  0  0
  4  5  1  0  0  0  0
  5  6  2  0  0  0  0
  5 25  1  0  0  0  0
  6  7  1  0  0  0  0
  6 26  1  0  0  0  0
  7  8  2  0  0  0  0
  7 27  1  0  0  0  0
  8  9  1  0  0  0  0
  8 28  1  0  0  0  0
  9 10  1  0  0  0  0
 10 11  1  0  0  0  0
 11 12  1  0  0  0  0
 11 29  1  0  0  0  0
 11 30  1  0  0  0  0
 12 13  1  0  0  0  0
 12 14  1  0  0  0  0
 12 31  1  0  0  0  0
 13 32  1  0  0  0  0
 14 20  1  0  0  0  0
 14 15  2  0  0  0  0
 15 16  1  0  0  0  0
 15 17  1  0  0  0  0
 17 18  2  0  0  0  0
 17 33  1  0  0  0  0
 18 19  1  0  0  0  0
 18 34  1  0  0  0  0
 19 20  2  0  0  0  0
 19 35  1  0  0  0  0
 20 21  1  0  0  0  0
M  CHG  1   3   1
M  END
> <s_m_source_file>
AV-unprocessed.smi

> <i_m_source_file_index>
1821

> <i_lp_mmshare_version>
43012

> <i_f3d_flags>
0

> <s_epik_input>
W2NIXTFbY0hdW2NIXVtjSF1jKGMxMiluKGMobjIpW0NIM10pW0NIMl1bQ0BIXShbT0hdKWMzYyhGKVtjSF1bY0hdW2NIXWMzRg==

> <s_epik_cmdline>
J2VwaWtfcHl0aG9uJywgJy1waCcsICc3LjAnLCAnLXRuJywgJzgnLCAnLW1hJywgJzIwMCcsICctbWV0YWxfYmluZGluZycsICctaW1hZScsICc8aW5maWxlLm1hZT4nLCAnLW9tYWUnLCAnPG91dGZpbGUubWFlPic=

> <r_epik_Ionization_Penalty>
0.963869

> <r_epik_Ionization_Penalty_Charging>
0.963868

> <r_epik_Ionization_Penalty_Neutral>
1.34362e-06

> <r_epik_State_Penalty>
1.00924

> <r_epik_Charging_Adjusted_Penalty>
1.9731

> <i_epik_Tot_Q>
1

> <i_epik_Tot_abs_Q>
1

> <r_epik_Metal_State_Penalty>
4.98304

> <b_epik_Metal_Only>
0

> <s_lp_Force_Field>
OPLS_2005

> <r_lp_Energy>
15.8254

> <b_lp_Chiralities_Consistent>
1

> <s_lp_Variant>
AV-unprocessed.smi:1821-3

> <Gold.Version>
5.8.1

> <Gold.Id.Protein>
6NUR|6NUR_protein|mol2

> <Gold.PLP.Fitness>
53.1176

> <Gold.PLP.PLP>
-47.8276

> <Gold.PLP.part.hbond>
-2.0000

> <Gold.PLP.part.metal>
0.0000

> <Gold.PLP.part.buried>
1.2183

> <Gold.PLP.part.nonpolar>
-47.3066

> <Gold.PLP.part.repulsive>
0.0768

> <Gold.PLP.ligand.clash>
0.0000

> <Gold.PLP.ligand.torsion>
0.3694

> <Gold.PLP.Chemscore.Hbond>
2.0000

> <Gold.PLP.Chemscore.CHOScore>
0.0000

> <Gold.PLP.Chemscore.Metal>
0.0000

> <Gold.Chemscore.Hbonds>
donor molecule, donor type, donor heavy atom, donor atom, acceptor molecule, acceptor atom, score
      L1  H     3    36       P1  7948  2.00

> <Gold.PLP.Chemscore.Internal.Correction>
0.0288

> <Gold.Rescore>
     Score         DG    S(hbond)    S(metal)    S(lipo)     H(rot)  DE(clash)    DE(int)     intcor
     15.94     -17.60       0.96        0.00     118.48       1.94       0.12       1.54       ----

> <Gold.Chemscore.Fitness>
15.9352

> <Gold.Chemscore.DG>
-17.5982

> <Gold.Chemscore.ZeroCoef>
-5.4800

> <Gold.Chemscore.Hbond>
0.9628

> <Gold.Chemscore.Metal>
0.0000

> <Gold.Chemscore.Lipo>
118.4799

> <Gold.Chemscore.Internal_Hbond>
0.0000

> <Gold.Chemscore.DEClash>
0.1223

> <Gold.Chemscore.DEInternal>
1.5407

> <Gold.Chemscore.Rot>
1.9375

> <Gold.Chemscore.Internal.Correction>
   9.000000E+99

> <Gold.Chemscore.Hbonds>
donor molecule, donor type, donor heavy atom, donor atom, acceptor molecule, acceptor atom, score
      L1  H     3    36       P1  7948  0.95

> <Gold.Chemscore.Hbond.Weighted>
-3.2159

> <Gold.Chemscore.Metal.Weighted>
-0.0000

> <Gold.Chemscore.Lipo.Weighted>
-13.8621

> <Gold.Chemscore.Internal_Hbond.Weighted>
0.0000

> <Gold.Chemscore.DEClash.Weighted>
0.1223

> <Gold.Chemscore.DEInternal.Weighted>
1.5407

> <Gold.Chemscore.Rot.Weighted>
4.9599

> <Gold.Chemscore.Internal.Correction.Weighted>
   9.000000E+99

> <Gold.Protein.RotatedTorsions>
[ 6907 6896 6895 6894 ] final   76.54 input  -60.11 | X-H torsion
[ 7974 7965 7964 7962 ] final  -63.83 input  175.53 | X-H torsion
[ 8008 7997 7996 7995 ] final  -37.36 input   59.86 | X-H torsion
[ 10167 10162 10161 10158 ] final   62.91 input  -65.29 | X-H torsion
[ 10718 10713 10712 10709 ] final  -19.07 input   66.30 | X-H torsion
[ 10763 10752 10751 10750 ] final  -88.26 input  -60.55 | X-H torsion
[ 11005 11000 10999 10996 ] final  162.02 input  -57.11 | X-H torsion

> <Gold.Protein.ActiveResidues>
 VAL166  LYS551  ARG553  GLY616  TRP617  ASP618  TYR619  PRO620  LYS621  CYS622 
 ASP623  PHE694  ASN695  SER759  ASP760  ASP761  ALA762  ILE779  LEU786  VAL792 
 PHE793  MET794  SER795  GLU796  ALA797  LYS798  CYS799  TRP800  GLU811  SER814 

> <Gold.Protein.RotatedAtoms>
  152.5077  134.3954  159.9397 H   0  0  0  0  0  0  0  0  0  0  0  0  # atno 6907 bound_to 6896
  151.3915  133.3781  159.2729 H   0  0  0  0  0  0  0  0  0  0  0  0  # atno 6908 bound_to 6896
  150.9429  134.8857  159.7682 H   0  0  0  0  0  0  0  0  0  0  0  0  # atno 6909 bound_to 6896
  145.7742  140.8796  143.0364 H   0  0  0  0  0  0  0  0  0  0  0  0  # atno 7974 bound_to 7965
  154.4055  140.1606  156.2524 H   0  0  0  0  0  0  0  0  0  0  0  0  # atno 8008 bound_to 7997
  155.9108  140.3427  155.6074 H   0  0  0  0  0  0  0  0  0  0  0  0  # atno 8009 bound_to 7997
  155.7338  140.0784  157.2267 H   0  0  0  0  0  0  0  0  0  0  0  0  # atno 8010 bound_to 7997
  140.1388  144.4573  150.6822 H   0  0  0  0  0  0  0  0  0  0  0  0  # atno 10167 bound_to 10162
  156.5508  130.4701  149.6453 H   0  0  0  0  0  0  0  0  0  0  0  0  # atno 10718 bound_to 10713
  154.6426  135.5383  153.7807 H   0  0  0  0  0  0  0  0  0  0  0  0  # atno 10763 bound_to 10752
  153.0342  135.6463  154.1137 H   0  0  0  0  0  0  0  0  0  0  0  0  # atno 10764 bound_to 10752
  154.1060  135.2930  155.3221 H   0  0  0  0  0  0  0  0  0  0  0  0  # atno 10765 bound_to 10752
  140.2215  134.8192  157.3225 H   0  0  0  0  0  0  0  0  0  0  0  0  # atno 11005 bound_to 11000
  144.6807  139.9898  143.7484 LP  0  0  0  0  0  0  0  0  0  0  0  0  # atno 17320 bound_to 7965
  146.0139  139.3193  143.0854 LP  0  0  0  0  0  0  0  0  0  0  0  0  # atno 17321 bound_to 7965
  140.6773  143.2310  151.5475 LP  0  0  0  0  0  0  0  0  0  0  0  0  # atno 17342 bound_to 10162
  139.5482  144.2464  152.1482 LP  0  0  0  0  0  0  0  0  0  0  0  0  # atno 17343 bound_to 10162
  156.2886  130.7111  151.1954 LP  0  0  0  0  0  0  0  0  0  0  0  0  # atno 17370 bound_to 10713
  157.7388  131.0537  150.5273 LP  0  0  0  0  0  0  0  0  0  0  0  0  # atno 17371 bound_to 10713
  140.1844  134.4449  155.7752 LP  0  0  0  0  0  0  0  0  0  0  0  0  # atno 17394 bound_to 11000
  141.2223  133.6998  156.7923 LP  0  0  0  0  0  0  0  0  0  0  0  0  # atno 17395 bound_to 11000

$$$$
