AV-unprocessed.smi:2339|AV-procd|sdf|9336|dock5
  -GOLD-   2272012553D 1   1.00000     0.00000
 Structure written by MMmdl.
 49 52  0  0  0  0  0  0  0  0  1 V2000
  149.2144  141.4765  154.5496 C   0  0  0  0  0  0  0  0  0  0  0  0
  150.3988  141.3632  155.5157 C   0  0  0  0  0  0  0  0  0  0  0  0
  150.7894  139.9774  155.7307 N   0  0  0  0  0  0  0  0  0  0  0  0
  151.8668  139.6480  156.5463 C   0  0  0  0  0  0  0  0  0  0  0  0
  152.3120  138.3913  156.7371 C   0  0  0  0  0  0  0  0  0  0  0  0
  151.6389  137.2725  156.0473 C   0  0  0  0  0  0  0  0  0  0  0  0
  152.0186  136.1121  156.2021 O   0  0  0  0  0  0  0  0  0  0  0  0
  150.4927  137.6250  155.1680 C   0  0  0  0  0  0  0  0  0  0  0  0
  149.8488  136.5541  154.5272 N   0  0  0  0  0  0  0  0  0  0  0  0
  149.4281  135.3775  155.0349 C   0  0  0  0  0  0  0  0  0  0  0  0
  149.4901  135.0498  156.2178 O   0  0  0  0  0  0  0  0  0  0  0  0
  148.9157  134.5421  154.1141 N   0  0  0  0  0  0  0  0  0  0  0  0
  148.3745  133.1988  154.3288 C   0  0  2  0  0  0  0  0  0  0  0  0
  149.3722  132.1035  153.9256 C   0  0  1  0  0  0  0  0  0  0  0  0
  149.9788  131.2209  154.9820 C   0  0  0  0  0  0  0  0  0  0  0  0
  149.0461  130.0058  154.9877 C   0  0  0  0  0  0  0  0  0  0  0  0
  147.8316  130.4804  154.4101 O   0  0  0  0  0  0  0  0  0  0  0  0
  148.1809  131.3615  153.3447 C   0  0  1  0  0  0  0  0  0  0  0  0
  147.3845  132.6825  153.2454 C   0  0  0  0  0  0  0  0  0  0  0  0
  147.3757  133.3377  151.8462 C   0  0  0  0  0  0  0  0  0  0  0  0
  145.9361  133.3292  151.3373 C   0  0  0  0  0  0  0  0  0  0  0  0
  145.1042  133.4237  152.6070 C   0  0  0  0  0  0  0  0  0  0  0  0
  145.8979  132.6059  153.6236 C   0  0  0  0  0  0  0  0  0  0  0  0
  150.1450  138.9336  155.0695 C   0  0  0  0  0  0  0  0  0  0  0  0
  148.9327  142.5192  154.4034 H   0  0  0  0  0  0  0  0  0  0  0  0
  148.3420  140.9461  154.9322 H   0  0  0  0  0  0  0  0  0  0  0  0
  149.4615  141.0582  153.5735 H   0  0  0  0  0  0  0  0  0  0  0  0
  151.2494  141.9243  155.1269 H   0  0  0  0  0  0  0  0  0  0  0  0
  150.1416  141.8214  156.4713 H   0  0  0  0  0  0  0  0  0  0  0  0
  152.3307  140.4929  157.0346 H   0  0  0  0  0  0  0  0  0  0  0  0
  153.1520  138.1821  157.3832 H   0  0  0  0  0  0  0  0  0  0  0  0
  149.6891  136.6933  153.5399 H   0  0  0  0  0  0  0  0  0  0  0  0
  148.9171  134.8680  153.1585 H   0  0  0  0  0  0  0  0  0  0  0  0
  147.9983  133.0375  155.3419 H   0  0  0  0  0  0  0  0  0  0  0  0
  150.0627  132.4273  153.1447 H   0  0  0  0  0  0  0  0  0  0  0  0
  151.0058  130.9362  154.7523 H   0  0  0  0  0  0  0  0  0  0  0  0
  149.9773  131.7174  155.9530 H   0  0  0  0  0  0  0  0  0  0  0  0
  149.4499  129.2102  154.3599 H   0  0  0  0  0  0  0  0  0  0  0  0
  148.8843  129.6033  155.9876 H   0  0  0  0  0  0  0  0  0  0  0  0
  148.3885  130.8465  152.4057 H   0  0  0  0  0  0  0  0  0  0  0  0
  147.7098  134.3732  151.8814 H   0  0  0  0  0  0  0  0  0  0  0  0
  148.0373  132.8300  151.1438 H   0  0  0  0  0  0  0  0  0  0  0  0
  145.7305  134.1377  150.6351 H   0  0  0  0  0  0  0  0  0  0  0  0
  145.7291  132.3847  150.8325 H   0  0  0  0  0  0  0  0  0  0  0  0
  145.0492  134.4631  152.9334 H   0  0  0  0  0  0  0  0  0  0  0  0
  144.0851  133.0597  152.4746 H   0  0  0  0  0  0  0  0  0  0  0  0
  145.5550  131.5714  153.5841 H   0  0  0  0  0  0  0  0  0  0  0  0
  145.7091  132.9531  154.6389 H   0  0  0  0  0  0  0  0  0  0  0  0
  149.3141  139.2783  154.4751 H   0  0  0  0  0  0  0  0  0  0  0  0
  1  2  1  0  0  0  0
  1 25  1  0  0  0  0
  1 26  1  0  0  0  0
  1 27  1  0  0  0  0
  2  3  1  0  0  0  0
  2 28  1  0  0  0  0
  2 29  1  0  0  0  0
  3 24  1  0  0  0  0
  3  4  1  0  0  0  0
  4  5  2  0  0  0  0
  4 30  1  0  0  0  0
  5  6  1  0  0  0  0
  5 31  1  0  0  0  0
  6  7  2  0  0  0  0
  6  8  1  0  0  0  0
  8  9  1  0  0  0  0
  8 24  2  0  0  0  0
  9 10  1  0  0  0  0
  9 32  1  0  0  0  0
 10 11  2  0  0  0  0
 10 12  1  0  0  0  0
 12 13  1  0  0  0  0
 12 33  1  0  0  0  0
 13 19  1  0  0  0  0
 13 14  1  0  0  0  0
 13 34  1  0  0  0  0
 14 18  1  0  0  0  0
 14 15  1  0  0  0  0
 14 35  1  0  0  0  0
 15 16  1  0  0  0  0
 15 36  1  0  0  0  0
 15 37  1  0  0  0  0
 16 17  1  0  0  0  0
 16 38  1  0  0  0  0
 16 39  1  0  0  0  0
 17 18  1  0  0  0  0
 18 19  1  0  0  0  0
 18 40  1  0  0  0  0
 19 23  1  0  0  0  0
 19 20  1  0  0  0  0
 20 21  1  0  0  0  0
 20 41  1  0  0  0  0
 20 42  1  0  0  0  0
 21 22  1  0  0  0  0
 21 43  1  0  0  0  0
 21 44  1  0  0  0  0
 22 23  1  0  0  0  0
 22 45  1  0  0  0  0
 22 46  1  0  0  0  0
 23 47  1  0  0  0  0
 23 48  1  0  0  0  0
 24 49  1  0  0  0  0
M  END
> <s_m_source_file>
AV-unprocessed.smi

> <i_m_source_file_index>
2339

> <i_lp_mmshare_version>
43012

> <i_f3d_flags>
0

> <s_epik_input>
W0NIM11bQ0gyXW4xW2NIXVtjSF1jKD1PKWMoW2NIXTEpW05IXUMoPU8pW05IXVtDQEBIXTJbQ0BASF0oW0NIMl1bQ0gyXU8zKVtDQEBIXTNDMjRbQ0gyXVtDSDJdW0NIMl1bQ0gyXTQ=

> <s_epik_cmdline>
J2VwaWtfcHl0aG9uJywgJy1waCcsICc3LjAnLCAnLXRuJywgJzgnLCAnLW1hJywgJzIwMCcsICctbWV0YWxfYmluZGluZycsICctaW1hZScsICc8aW5maWxlLm1hZT4nLCAnLW9tYWUnLCAnPG91dGZpbGUubWFlPic=

> <r_lp_tautomer_probability>
1

> <r_epik_Ionization_Penalty>
0.00145966

> <r_epik_Ionization_Penalty_Charging>
0.00143969

> <r_epik_Ionization_Penalty_Neutral>
1.99697e-05

> <r_epik_State_Penalty>
0.000961843

> <r_epik_Charging_Adjusted_Penalty>
0.00240153

> <i_epik_Tot_Q>
0

> <i_epik_Tot_abs_Q>
0

> <r_epik_Metal_State_Penalty>
-0

> <b_epik_Metal_Only>
0

> <s_lp_Force_Field>
OPLS_2005

> <r_lp_Energy>
57.0786

> <b_lp_Chiralities_Consistent>
1

> <s_lp_Variant>
AV-unprocessed.smi:2339-1

> <Gold.Version>
5.8.1

> <Gold.Id.Protein>
6NUR|6NUR_protein|mol2

> <Gold.PLP.Fitness>
45.0592

> <Gold.PLP.PLP>
-37.5812

> <Gold.PLP.part.hbond>
-3.0164

> <Gold.PLP.part.metal>
0.0000

> <Gold.PLP.part.buried>
-3.5285

> <Gold.PLP.part.nonpolar>
-31.3956

> <Gold.PLP.part.repulsive>
0.1288

> <Gold.PLP.ligand.clash>
0.0000

> <Gold.PLP.ligand.torsion>
0.7012

> <Gold.PLP.Chemscore.Hbond>
2.9000

> <Gold.PLP.Chemscore.CHOScore>
0.0000

> <Gold.PLP.Chemscore.Metal>
0.0000

> <Gold.Chemscore.Hbonds>
donor molecule, donor type, donor heavy atom, donor atom, acceptor molecule, acceptor atom, score
      L1  H     9    32       P1  7948  1.00
      L1  H    12    33       P1  7948  0.90
      P1  H 10752 10765       L1     7  1.00

> <Gold.PLP.Chemscore.Internal.Correction>
0.1803

> <Gold.Rescore>
     Score         DG    S(hbond)    S(metal)    S(lipo)     H(rot)  DE(clash)    DE(int)     intcor
     17.85     -21.06       2.73        0.00      80.80       1.17       0.07       3.14       ----

> <Gold.Chemscore.Fitness>
17.8482

> <Gold.Chemscore.DG>
-21.0565

> <Gold.Chemscore.ZeroCoef>
-5.4800

> <Gold.Chemscore.Hbond>
2.7276

> <Gold.Chemscore.Metal>
0.0000

> <Gold.Chemscore.Lipo>
80.8028

> <Gold.Chemscore.Internal_Hbond>
0.0000

> <Gold.Chemscore.DEClash>
0.0651

> <Gold.Chemscore.DEInternal>
3.1433

> <Gold.Chemscore.Rot>
1.1670

> <Gold.Chemscore.Internal.Correction>
   9.000000E+99

> <Gold.Chemscore.Hbonds>
donor molecule, donor type, donor heavy atom, donor atom, acceptor molecule, acceptor atom, score
      L1  H     9    32       P1  7948  0.54
      L1  H    12    33       P1  7948  0.17
      P1  H 10752 10765       L1     7  0.98

> <Gold.Chemscore.Hbond.Weighted>
-9.1100

> <Gold.Chemscore.Metal.Weighted>
-0.0000

> <Gold.Chemscore.Lipo.Weighted>
-9.4539

> <Gold.Chemscore.Internal_Hbond.Weighted>
0.0000

> <Gold.Chemscore.DEClash.Weighted>
0.0651

> <Gold.Chemscore.DEInternal.Weighted>
3.1433

> <Gold.Chemscore.Rot.Weighted>
2.9874

> <Gold.Chemscore.Internal.Correction.Weighted>
   9.000000E+99

> <Gold.Protein.RotatedTorsions>
[ 6907 6896 6895 6894 ] final   53.36 input  -60.11 | X-H torsion
[ 7974 7965 7964 7962 ] final   52.40 input  175.53 | X-H torsion
[ 8008 7997 7996 7995 ] final  -12.52 input   59.86 | X-H torsion
[ 10167 10162 10161 10158 ] final -170.45 input  -65.29 | X-H torsion
[ 10718 10713 10712 10709 ] final  -61.94 input   66.30 | X-H torsion
[ 10763 10752 10751 10750 ] final -137.01 input  -60.55 | X-H torsion
[ 11005 11000 10999 10996 ] final   29.03 input  -57.11 | X-H torsion

> <Gold.Protein.ActiveResidues>
 VAL166  LYS551  ARG553  GLY616  TRP617  ASP618  TYR619  PRO620  LYS621  CYS622 
 ASP623  PHE694  ASN695  SER759  ASP760  ASP761  ALA762  ILE779  LEU786  VAL792 
 PHE793  MET794  SER795  GLU796  ALA797  LYS798  CYS799  TRP800  GLU811  SER814 

> <Gold.Protein.RotatedAtoms>
  152.3329  134.7236  160.0284 H   0  0  0  0  0  0  0  0  0  0  0  0  # atno 6907 bound_to 6896
  151.7646  133.3331  159.3435 H   0  0  0  0  0  0  0  0  0  0  0  0  # atno 6908 bound_to 6896
  150.7433  134.6006  159.6079 H   0  0  0  0  0  0  0  0  0  0  0  0  # atno 6909 bound_to 6896
  145.9817  139.4249  143.0128 H   0  0  0  0  0  0  0  0  0  0  0  0  # atno 7974 bound_to 7965
  154.5370  140.2274  155.8705 H   0  0  0  0  0  0  0  0  0  0  0  0  # atno 8008 bound_to 7997
  156.1821  140.3097  155.9131 H   0  0  0  0  0  0  0  0  0  0  0  0  # atno 8009 bound_to 7997
  155.3334  140.0446  157.3034 H   0  0  0  0  0  0  0  0  0  0  0  0  # atno 8010 bound_to 7997
  139.5861  144.1315  152.1577 H   0  0  0  0  0  0  0  0  0  0  0  0  # atno 10167 bound_to 10162
  156.0888  130.4203  150.1065 H   0  0  0  0  0  0  0  0  0  0  0  0  # atno 10718 bound_to 10713
  154.8671  135.3655  154.5153 H   0  0  0  0  0  0  0  0  0  0  0  0  # atno 10763 bound_to 10752
  153.5786  135.7019  153.5478 H   0  0  0  0  0  0  0  0  0  0  0  0  # atno 10764 bound_to 10752
  153.3477  135.4080  155.1584 H   0  0  0  0  0  0  0  0  0  0  0  0  # atno 10765 bound_to 10752
  140.3093  134.2668  155.7737 H   0  0  0  0  0  0  0  0  0  0  0  0  # atno 11005 bound_to 11000
  145.7760  140.9877  143.1124 LP  0  0  0  0  0  0  0  0  0  0  0  0  # atno 17320 bound_to 7965
  144.6863  139.9505  143.7478 LP  0  0  0  0  0  0  0  0  0  0  0  0  # atno 17321 bound_to 7965
  140.0879  144.5645  150.7075 LP  0  0  0  0  0  0  0  0  0  0  0  0  # atno 17342 bound_to 10162
  140.7132  143.2522  151.4515 LP  0  0  0  0  0  0  0  0  0  0  0  0  # atno 17343 bound_to 10162
  156.9079  130.9642  151.3567 LP  0  0  0  0  0  0  0  0  0  0  0  0  # atno 17370 bound_to 10713
  157.6031  130.8527  149.8833 LP  0  0  0  0  0  0  0  0  0  0  0  0  # atno 17371 bound_to 10713
  141.2111  133.7697  156.9883 LP  0  0  0  0  0  0  0  0  0  0  0  0  # atno 17394 bound_to 11000
  140.1039  134.9518  157.1965 LP  0  0  0  0  0  0  0  0  0  0  0  0  # atno 17395 bound_to 11000

$$$$
