AV-unprocessed.smi:887|AV-procd|sdf|4052|dock5
  -GOLD-   22720 1543D 1   1.00000     0.00000
 Structure written by MMmdl.
 31 32  0  0  0  0  0  0  0  0  1 V2000
  147.0179  139.2440  153.4361 C   0  0  0  0  0  0  0  0  0  0  0  0
  148.4716  139.2370  153.4964 N   0  0  0  0  0  0  0  0  0  0  0  0
  149.1822  138.7565  154.5274 C   0  0  0  0  0  0  0  0  0  0  0  0
  148.6670  138.2701  155.5343 O   0  0  0  0  0  0  0  0  0  0  0  0
  150.7060  138.8330  154.4057 C   0  0  0  0  0  0  0  0  0  0  0  0
  151.2983  139.5389  155.5835 C   0  0  0  0  0  0  0  0  0  0  0  0
  152.3332  139.0322  156.2440 N   0  0  0  0  0  0  0  0  0  0  0  0
  152.5585  139.9703  157.2613 O   0  0  0  0  0  0  0  0  0  0  0  0
  151.6441  140.9526  157.0720 C   0  0  0  0  0  0  0  0  0  0  0  0
  151.5713  142.0683  158.0674 C   0  0  2  0  0  0  0  0  0  0  0  0
  151.5118  143.4489  157.3782 C   0  0  0  0  0  0  0  0  0  0  0  0
  151.7373  144.5976  158.3460 C   0  0  0  0  0  0  0  0  0  0  0  0
  152.1983  144.4365  159.5981 C   0  0  0  0  0  0  0  0  0  0  0  0
  152.5588  143.0861  160.1887 C   0  0  0  0  0  0  0  0  0  0  0  0
  152.7068  142.0001  159.1072 C   0  0  0  0  0  0  0  0  0  0  0  0
  150.8047  140.7126  156.0661 N   0  0  0  0  0  0  0  0  0  0  0  0
  146.6868  139.7102  152.5082 H   0  0  0  0  0  0  0  0  0  0  0  0
  146.5961  139.8067  154.2699 H   0  0  0  0  0  0  0  0  0  0  0  0
  146.6238  138.2275  153.4669 H   0  0  0  0  0  0  0  0  0  0  0  0
  148.9688  139.6214  152.7057 H   0  0  0  0  0  0  0  0  0  0  0  0
  151.1116  137.8226  154.3415 H   0  0  0  0  0  0  0  0  0  0  0  0
  150.9931  139.3473  153.4873 H   0  0  0  0  0  0  0  0  0  0  0  0
  150.6368  141.9386  158.6156 H   0  0  0  0  0  0  0  0  0  0  0  0
  152.2827  143.5210  156.6103 H   0  0  0  0  0  0  0  0  0  0  0  0
  150.5520  143.5765  156.8768 H   0  0  0  0  0  0  0  0  0  0  0  0
  151.5122  145.5895  157.9821 H   0  0  0  0  0  0  0  0  0  0  0  0
  152.3167  145.2963  160.2411 H   0  0  0  0  0  0  0  0  0  0  0  0
  153.4874  143.1757  160.7530 H   0  0  0  0  0  0  0  0  0  0  0  0
  151.7799  142.8086  160.8996 H   0  0  0  0  0  0  0  0  0  0  0  0
  152.7318  141.0174  159.5797 H   0  0  0  0  0  0  0  0  0  0  0  0
  153.6663  142.1235  158.6027 H   0  0  0  0  0  0  0  0  0  0  0  0
  1  2  1  0  0  0  0
  1 17  1  0  0  0  0
  1 18  1  0  0  0  0
  1 19  1  0  0  0  0
  2  3  1  0  0  0  0
  2 20  1  0  0  0  0
  3  4  2  0  0  0  0
  3  5  1  0  0  0  0
  5  6  1  0  0  0  0
  5 21  1  0  0  0  0
  5 22  1  0  0  0  0
  6 16  1  0  0  0  0
  6  7  2  0  0  0  0
  7  8  1  0  0  0  0
  8  9  1  0  0  0  0
  9 10  1  0  0  0  0
  9 16  2  0  0  0  0
 10 15  1  0  0  0  0
 10 11  1  0  0  0  0
 10 23  1  0  0  0  0
 11 12  1  0  0  0  0
 11 24  1  0  0  0  0
 11 25  1  0  0  0  0
 12 13  2  0  0  0  0
 12 26  1  0  0  0  0
 13 14  1  0  0  0  0
 13 27  1  0  0  0  0
 14 15  1  0  0  0  0
 14 28  1  0  0  0  0
 14 29  1  0  0  0  0
 15 30  1  0  0  0  0
 15 31  1  0  0  0  0
M  END
> <s_m_source_file>
AV-unprocessed.smi

> <i_m_source_file_index>
887

> <i_lp_mmshare_version>
43012

> <i_f3d_flags>
0

> <s_epik_input>
W0NIM11bTkhdQyg9TylbQ0gyXWMxbm9jKG4xKVtDQEBIXTJbQ0gyXVtDSF09W0NIXVtDSDJdW0NIMl0y

> <s_epik_cmdline>
J2VwaWtfcHl0aG9uJywgJy1waCcsICc3LjAnLCAnLXRuJywgJzgnLCAnLW1hJywgJzIwMCcsICctbWV0YWxfYmluZGluZycsICctaW1hZScsICc8aW5maWxlLm1hZT4nLCAnLW9tYWUnLCAnPG91dGZpbGUubWFlPic=

> <r_lp_tautomer_probability>
1

> <r_epik_Ionization_Penalty>
1.02915e-07

> <r_epik_Ionization_Penalty_Charging>
0

> <r_epik_Ionization_Penalty_Neutral>
1.02915e-07

> <r_epik_State_Penalty>
-0

> <r_epik_Charging_Adjusted_Penalty>
0

> <i_epik_Tot_Q>
0

> <i_epik_Tot_abs_Q>
0

> <r_epik_Metal_State_Penalty>
-0

> <b_epik_Metal_Only>
0

> <s_lp_Force_Field>
OPLS_2005

> <r_lp_Energy>
6.3781

> <b_lp_Chiralities_Consistent>
1

> <s_lp_Variant>
AV-unprocessed.smi:887-1

> <Gold.Version>
5.8.1

> <Gold.Id.Protein>
6NUR|6NUR_protein|mol2

> <Gold.PLP.Fitness>
40.6583

> <Gold.PLP.PLP>
-36.2820

> <Gold.PLP.part.hbond>
-2.0001

> <Gold.PLP.part.metal>
0.0000

> <Gold.PLP.part.buried>
-5.2306

> <Gold.PLP.part.nonpolar>
-29.0665

> <Gold.PLP.part.repulsive>
0.1963

> <Gold.PLP.ligand.clash>
0.0000

> <Gold.PLP.ligand.torsion>
0.2854

> <Gold.PLP.Chemscore.Hbond>
1.6136

> <Gold.PLP.Chemscore.CHOScore>
0.0000

> <Gold.PLP.Chemscore.Metal>
0.0000

> <Gold.Chemscore.Hbonds>
donor molecule, donor type, donor heavy atom, donor atom, acceptor molecule, acceptor atom, score
      L1  H     2    20       P1  7957  1.00
      P1  H  7997  8008       L1     8  0.62

> <Gold.PLP.Chemscore.Internal.Correction>
0.1064

> <Gold.Rescore>
     Score         DG    S(hbond)    S(metal)    S(lipo)     H(rot)  DE(clash)    DE(int)     intcor
     14.80     -15.09       1.18        0.00      84.19       1.63       0.05       0.25       ----

> <Gold.Chemscore.Fitness>
14.7958

> <Gold.Chemscore.DG>
-15.0888

> <Gold.Chemscore.ZeroCoef>
-5.4800

> <Gold.Chemscore.Hbond>
1.1780

> <Gold.Chemscore.Metal>
0.0000

> <Gold.Chemscore.Lipo>
84.1879

> <Gold.Chemscore.Internal_Hbond>
0.0000

> <Gold.Chemscore.DEClash>
0.0451

> <Gold.Chemscore.DEInternal>
0.2479

> <Gold.Chemscore.Rot>
1.6312

> <Gold.Chemscore.Internal.Correction>
   9.000000E+99

> <Gold.Chemscore.Hbonds>
donor molecule, donor type, donor heavy atom, donor atom, acceptor molecule, acceptor atom, score
      L1  H     2    20       P1  7957  1.00
      P1  H  7997  8008       L1     8  0.05

> <Gold.Chemscore.Hbond.Weighted>
-3.9346

> <Gold.Chemscore.Metal.Weighted>
-0.0000

> <Gold.Chemscore.Lipo.Weighted>
-9.8500

> <Gold.Chemscore.Internal_Hbond.Weighted>
0.0000

> <Gold.Chemscore.DEClash.Weighted>
0.0451

> <Gold.Chemscore.DEInternal.Weighted>
0.2479

> <Gold.Chemscore.Rot.Weighted>
4.1758

> <Gold.Chemscore.Internal.Correction.Weighted>
   9.000000E+99

> <Gold.Protein.RotatedTorsions>
[ 6907 6896 6895 6894 ] final -153.83 input  -60.11 | X-H torsion
[ 7974 7965 7964 7962 ] final  -40.51 input  175.53 | X-H torsion
[ 8008 7997 7996 7995 ] final  -78.55 input   59.86 | X-H torsion
[ 10167 10162 10161 10158 ] final -139.49 input  -65.29 | X-H torsion
[ 10718 10713 10712 10709 ] final -110.92 input   66.30 | X-H torsion
[ 10763 10752 10751 10750 ] final   79.93 input  -60.55 | X-H torsion
[ 11005 11000 10999 10996 ] final  117.60 input  -57.11 | X-H torsion

> <Gold.Protein.ActiveResidues>
 VAL166  LYS551  ARG553  GLY616  TRP617  ASP618  TYR619  PRO620  LYS621  CYS622 
 ASP623  PHE694  ASN695  SER759  ASP760  ASP761  ALA762  ILE779  LEU786  VAL792 
 PHE793  MET794  SER795  GLU796  ALA797  LYS798  CYS799  TRP800  GLU811  SER814 

> <Gold.Protein.RotatedAtoms>
  151.2484  133.4363  159.2610 H   0  0  0  0  0  0  0  0  0  0  0  0  # atno 6907 bound_to 6896
  151.0640  134.9756  159.8285 H   0  0  0  0  0  0  0  0  0  0  0  0  # atno 6908 bound_to 6896
  152.5402  134.2432  159.8923 H   0  0  0  0  0  0  0  0  0  0  0  0  # atno 6909 bound_to 6896
  146.0298  140.6746  142.9138 H   0  0  0  0  0  0  0  0  0  0  0  0  # atno 7974 bound_to 7965
  154.5700  140.0692  156.8949 H   0  0  0  0  0  0  0  0  0  0  0  0  # atno 8008 bound_to 7997
  155.2652  140.3361  155.4251 H   0  0  0  0  0  0  0  0  0  0  0  0  # atno 8009 bound_to 7997
  156.2110  140.1759  156.7679 H   0  0  0  0  0  0  0  0  0  0  0  0  # atno 8010 bound_to 7997
  139.8375  143.7366  152.2664 H   0  0  0  0  0  0  0  0  0  0  0  0  # atno 10167 bound_to 10162
  156.0618  130.5840  150.8303 H   0  0  0  0  0  0  0  0  0  0  0  0  # atno 10718 bound_to 10713
  153.0992  135.4821  154.8836 H   0  0  0  0  0  0  0  0  0  0  0  0  # atno 10763 bound_to 10752
  154.7360  135.3071  154.8814 H   0  0  0  0  0  0  0  0  0  0  0  0  # atno 10764 bound_to 10752
  153.9435  135.6831  153.4797 H   0  0  0  0  0  0  0  0  0  0  0  0  # atno 10765 bound_to 10752
  139.9080  134.9612  156.7375 H   0  0  0  0  0  0  0  0  0  0  0  0  # atno 11005 bound_to 11000
  144.7025  140.3715  143.7144 LP  0  0  0  0  0  0  0  0  0  0  0  0  # atno 17320 bound_to 7965
  145.7059  139.1672  143.2566 LP  0  0  0  0  0  0  0  0  0  0  0  0  # atno 17321 bound_to 7965
  139.7592  144.7511  151.0389 LP  0  0  0  0  0  0  0  0  0  0  0  0  # atno 17342 bound_to 10162
  140.7801  143.4770  151.0069 LP  0  0  0  0  0  0  0  0  0  0  0  0  # atno 17343 bound_to 10162
  157.5631  131.0946  150.9529 LP  0  0  0  0  0  0  0  0  0  0  0  0  # atno 17370 bound_to 10713
  156.9762  130.5509  149.5293 LP  0  0  0  0  0  0  0  0  0  0  0  0  # atno 17371 bound_to 10713
  140.6876  133.9419  155.7947 LP  0  0  0  0  0  0  0  0  0  0  0  0  # atno 17394 bound_to 11000
  141.0465  134.0546  157.3837 LP  0  0  0  0  0  0  0  0  0  0  0  0  # atno 17395 bound_to 11000

$$$$
