AV-unprocessed.smi:1005|AV-procd|sdf|4382|dock8
  -GOLD-   22720 2303D 1   1.00000     0.00000
 Structure written by MMmdl.
 58 60  0  0  0  0  0  0  0  0  4 V2000
  153.6797  142.2720  161.4633 C   0  0  0  0  0  0  0  0  0  0  0  0
  152.9300  141.9528  160.1812 C   0  0  0  0  0  0  0  0  0  0  0  0
  153.0047  140.6390  159.6655 C   0  0  0  0  0  0  0  0  0  0  0  0
  152.3062  140.3771  158.4931 C   0  0  0  0  0  0  0  0  0  0  0  0
  152.1791  139.2048  157.7448 N   0  3  0  0  0  0  0  0  0  0  0  0
  151.3827  139.4384  156.6650 C   0  0  0  0  0  0  0  0  0  0  0  0
  150.9967  140.7428  156.7147 N   0  0  0  0  0  0  0  0  0  0  0  0
  150.1372  141.5114  155.8042 C   0  0  0  0  0  0  0  0  0  0  0  0
  149.3842  140.6206  154.7957 C   0  0  2  0  0  0  0  0  0  0  0  0
  149.6841  141.0487  153.4811 O   0  0  0  0  0  0  0  0  0  0  0  0
  147.8578  140.6764  155.0041 C   0  0  0  0  0  0  0  0  0  0  0  0
  147.3485  139.5063  155.7701 N   0  3  1  0  0  0  0  0  0  0  0  0
  146.1301  139.7741  156.5761 C   0  0  0  0  0  0  0  0  0  0  0  0
  144.8622  139.7717  155.7015 C   0  0  0  0  0  0  0  0  0  0  0  0
  144.7769  138.5484  154.9808 O   0  0  0  0  0  0  0  0  0  0  0  0
  145.8803  138.3495  154.1027 C   0  0  2  0  0  0  0  0  0  0  0  0
  145.6386  137.0376  153.3326 C   0  0  0  0  0  0  0  0  0  0  0  0
  146.3784  136.9818  152.0454 N   0  3  0  0  0  0  0  0  0  0  0  0
  145.8146  136.0046  151.0855 C   0  0  0  0  0  0  0  0  0  0  0  0
  146.5302  138.3192  151.4308 C   0  0  0  0  0  0  0  0  0  0  0  0
  147.1699  138.2828  154.9493 C   0  0  0  0  0  0  0  0  0  0  0  0
  151.5528  141.3686  157.8355 C   0  0  0  0  0  0  0  0  0  0  0  0
  151.4713  142.6689  158.3275 C   0  0  0  0  0  0  0  0  0  0  0  0
  152.1733  142.9549  159.5203 C   0  0  0  0  0  0  0  0  0  0  0  0
  152.0997  144.3637  160.0844 C   0  0  0  0  0  0  0  0  0  0  0  0
  154.1959  141.3942  161.8532 H   0  0  0  0  0  0  0  0  0  0  0  0
  152.9912  142.6221  162.2328 H   0  0  0  0  0  0  0  0  0  0  0  0
  154.4262  143.0468  161.2873 H   0  0  0  0  0  0  0  0  0  0  0  0
  153.5795  139.8715  160.1629 H   0  0  0  0  0  0  0  0  0  0  0  0
  151.1053  138.7175  155.9094 H   0  0  0  0  0  0  0  0  0  0  0  0
  149.4403  142.0965  156.4058 H   0  0  0  0  0  0  0  0  0  0  0  0
  150.7718  142.2279  155.2806 H   0  0  0  0  0  0  0  0  0  0  0  0
  149.7404  139.5968  154.9017 H   0  0  0  0  0  0  0  0  0  0  0  0
  149.4572  140.3587  152.8761 H   0  0  0  0  0  0  0  0  0  0  0  0
  147.5798  141.6000  155.5118 H   0  0  0  0  0  0  0  0  0  0  0  0
  147.3774  140.7172  154.0253 H   0  0  0  0  0  0  0  0  0  0  0  0
  146.0445  138.9894  157.3289 H   0  0  0  0  0  0  0  0  0  0  0  0
  146.2135  140.7114  157.1246 H   0  0  0  0  0  0  0  0  0  0  0  0
  143.9770  139.8687  156.3303 H   0  0  0  0  0  0  0  0  0  0  0  0
  144.8489  140.6163  155.0120 H   0  0  0  0  0  0  0  0  0  0  0  0
  145.9506  139.1840  153.4046 H   0  0  0  0  0  0  0  0  0  0  0  0
  145.9120  136.1760  153.9439 H   0  0  0  0  0  0  0  0  0  0  0  0
  144.5679  136.9477  153.1418 H   0  0  0  0  0  0  0  0  0  0  0  0
  144.7918  136.2692  150.8137 H   0  0  0  0  0  0  0  0  0  0  0  0
  145.8089  134.9957  151.4962 H   0  0  0  0  0  0  0  0  0  0  0  0
  146.4103  135.9778  150.1723 H   0  0  0  0  0  0  0  0  0  0  0  0
  145.5590  138.7469  151.1788 H   0  0  0  0  0  0  0  0  0  0  0  0
  147.1256  138.2607  150.5189 H   0  0  0  0  0  0  0  0  0  0  0  0
  147.0400  139.0025  152.1108 H   0  0  0  0  0  0  0  0  0  0  0  0
  148.0439  138.1170  154.3185 H   0  0  0  0  0  0  0  0  0  0  0  0
  147.1177  137.4274  155.6246 H   0  0  0  0  0  0  0  0  0  0  0  0
  150.8961  143.4316  157.8246 H   0  0  0  0  0  0  0  0  0  0  0  0
  151.4954  145.0159  159.4530 H   0  0  0  0  0  0  0  0  0  0  0  0
  153.0957  144.8010  160.1567 H   0  0  0  0  0  0  0  0  0  0  0  0
  151.6517  144.3546  161.0784 H   0  0  0  0  0  0  0  0  0  0  0  0
  147.3154  136.6734  152.2643 H   0  0  0  0  0  0  0  0  0  0  0  0
  148.0863  139.2903  156.4266 H   0  0  0  0  0  0  0  0  0  0  0  0
  152.6028  138.3096  157.9537 H   0  0  0  0  0  0  0  0  0  0  0  0
  1  2  1  0  0  0  0
  1 26  1  0  0  0  0
  1 27  1  0  0  0  0
  1 28  1  0  0  0  0
  2 24  1  0  0  0  0
  2  3  2  0  0  0  0
  3  4  1  0  0  0  0
  3 29  1  0  0  0  0
  4 22  2  0  0  0  0
  4  5  1  0  0  0  0
  5  6  2  0  0  0  0
  5 58  1  0  0  0  0
  6  7  1  0  0  0  0
  6 30  1  0  0  0  0
  7  8  1  0  0  0  0
  7 22  1  0  0  0  0
  8  9  1  0  0  0  0
  8 31  1  0  0  0  0
  8 32  1  0  0  0  0
  9 10  1  0  0  0  0
  9 11  1  0  0  0  0
  9 33  1  0  0  0  0
 10 34  1  0  0  0  0
 11 12  1  0  0  0  0
 11 35  1  0  0  0  0
 11 36  1  0  0  0  0
 12 21  1  0  0  0  0
 12 13  1  0  0  0  0
 12 57  1  0  0  0  0
 13 14  1  0  0  0  0
 13 37  1  0  0  0  0
 13 38  1  0  0  0  0
 14 15  1  0  0  0  0
 14 39  1  0  0  0  0
 14 40  1  0  0  0  0
 15 16  1  0  0  0  0
 16 17  1  0  0  0  0
 16 21  1  0  0  0  0
 16 41  1  0  0  0  0
 17 18  1  0  0  0  0
 17 42  1  0  0  0  0
 17 43  1  0  0  0  0
 18 19  1  0  0  0  0
 18 20  1  0  0  0  0
 18 56  1  0  0  0  0
 19 44  1  0  0  0  0
 19 45  1  0  0  0  0
 19 46  1  0  0  0  0
 20 47  1  0  0  0  0
 20 48  1  0  0  0  0
 20 49  1  0  0  0  0
 21 50  1  0  0  0  0
 21 51  1  0  0  0  0
 22 23  1  0  0  0  0
 23 24  2  0  0  0  0
 23 52  1  0  0  0  0
 24 25  1  0  0  0  0
 25 53  1  0  0  0  0
 25 54  1  0  0  0  0
 25 55  1  0  0  0  0
M  CHG  1   5   1
M  CHG  1  12   1
M  CHG  1  18   1
M  END
> <s_m_source_file>
AV-unprocessed.smi

> <i_m_source_file_index>
1005

> <i_lp_mmshare_version>
43012

> <i_f3d_flags>
0

> <s_epik_input>
W0NIM11jKFtjSF0xKWMoW0NIM10pW2NIXWMoYzEyKW4oW2NIXW4yKVtDSDJdW0NASF0oW09IXSlbQ0gyXU4zW0NIMl1bQ0gyXU9bQ0BIXShbQ0gyXTMpW0NIMl1OKFtDSDNdKVtDSDNd

> <s_epik_cmdline>
J2VwaWtfcHl0aG9uJywgJy1waCcsICc3LjAnLCAnLXRuJywgJzgnLCAnLW1hJywgJzIwMCcsICctbWV0YWxfYmluZGluZycsICctaW1hZScsICc8aW5maWxlLm1hZT4nLCAnLW9tYWUnLCAnPG91dGZpbGUubWFlPic=

> <r_epik_Ionization_Penalty>
2.30802

> <r_epik_Ionization_Penalty_Charging>
2.30798

> <r_epik_Ionization_Penalty_Neutral>
3.4851e-05

> <r_epik_State_Penalty>
2.52618

> <r_epik_Charging_Adjusted_Penalty>
4.83416

> <i_epik_Tot_Q>
3

> <i_epik_Tot_abs_Q>
3

> <r_epik_Metal_State_Penalty>
6.53149

> <b_epik_Metal_Only>
0

> <s_lp_Force_Field>
OPLS_2005

> <r_lp_Energy>
46.1367

> <b_lp_Chiralities_Consistent>
1

> <s_lp_Variant>
AV-unprocessed.smi:1005-21

> <Gold.Version>
5.8.1

> <Gold.Id.Protein>
6NUR|6NUR_protein|mol2

> <Gold.PLP.Fitness>
51.7319

> <Gold.PLP.PLP>
-44.1520

> <Gold.PLP.part.hbond>
-3.7694

> <Gold.PLP.part.metal>
0.0000

> <Gold.PLP.part.buried>
-3.5031

> <Gold.PLP.part.nonpolar>
-38.2644

> <Gold.PLP.part.repulsive>
0.2222

> <Gold.PLP.ligand.clash>
0.0004

> <Gold.PLP.ligand.torsion>
2.2289

> <Gold.PLP.Chemscore.Hbond>
3.9600

> <Gold.PLP.Chemscore.CHOScore>
0.0000

> <Gold.PLP.Chemscore.Metal>
0.0000

> <Gold.Chemscore.Hbonds>
donor molecule, donor type, donor heavy atom, donor atom, acceptor molecule, acceptor atom, score
      L1  H    10    34       P1  7957  0.74
      L1  H    18    56       P1  7948  2.00
      P1  H  7989  7998       L1    10  0.24
      P1  H  8011  8017       L1    10  0.95

> <Gold.PLP.Chemscore.Internal.Correction>
0.1580

> <Gold.Rescore>
     Score         DG    S(hbond)    S(metal)    S(lipo)     H(rot)  DE(clash)    DE(int)     intcor
     18.49     -21.15       2.29        0.00     124.48       2.56       0.41       2.25       ----

> <Gold.Chemscore.Fitness>
18.4927

> <Gold.Chemscore.DG>
-21.1516

> <Gold.Chemscore.ZeroCoef>
-5.4800

> <Gold.Chemscore.Hbond>
2.2912

> <Gold.Chemscore.Metal>
0.0000

> <Gold.Chemscore.Lipo>
124.4777

> <Gold.Chemscore.Internal_Hbond>
0.0000

> <Gold.Chemscore.DEClash>
0.4117

> <Gold.Chemscore.DEInternal>
2.2472

> <Gold.Chemscore.Rot>
2.5566

> <Gold.Chemscore.Internal.Correction>
   9.000000E+99

> <Gold.Chemscore.Hbonds>
donor molecule, donor type, donor heavy atom, donor atom, acceptor molecule, acceptor atom, score
      L1  H    10    34       P1  7957  0.74
      L1  H    18    56       P1  7948  0.97
      P1  H  7989  7998       L1    10  0.02
      P1  H  8011  8017       L1    10  0.21

> <Gold.Chemscore.Hbond.Weighted>
-7.6527

> <Gold.Chemscore.Metal.Weighted>
-0.0000

> <Gold.Chemscore.Lipo.Weighted>
-14.5639

> <Gold.Chemscore.Internal_Hbond.Weighted>
0.0000

> <Gold.Chemscore.DEClash.Weighted>
0.4117

> <Gold.Chemscore.DEInternal.Weighted>
2.2472

> <Gold.Chemscore.Rot.Weighted>
6.5450

> <Gold.Chemscore.Internal.Correction.Weighted>
   9.000000E+99

> <Gold.Protein.RotatedTorsions>
[ 6907 6896 6895 6894 ] final  110.96 input  -60.11 | X-H torsion
[ 7974 7965 7964 7962 ] final  158.57 input  175.53 | X-H torsion
[ 8008 7997 7996 7995 ] final   53.09 input   59.86 | X-H torsion
[ 10167 10162 10161 10158 ] final  153.89 input  -65.29 | X-H torsion
[ 10718 10713 10712 10709 ] final -166.62 input   66.30 | X-H torsion
[ 10763 10752 10751 10750 ] final   52.35 input  -60.55 | X-H torsion
[ 11005 11000 10999 10996 ] final  148.75 input  -57.11 | X-H torsion

> <Gold.Protein.ActiveResidues>
 VAL166  LYS551  ARG553  GLY616  TRP617  ASP618  TYR619  PRO620  LYS621  CYS622 
 ASP623  PHE694  ASN695  SER759  ASP760  ASP761  ALA762  ILE779  LEU786  VAL792 
 PHE793  MET794  SER795  GLU796  ALA797  LYS798  CYS799  TRP800  GLU811  SER814 

> <Gold.Protein.RotatedAtoms>
  152.4994  133.8726  159.7305 H   0  0  0  0  0  0  0  0  0  0  0  0  # atno 6907 bound_to 6896
  150.9209  133.6873  159.2839 H   0  0  0  0  0  0  0  0  0  0  0  0  # atno 6908 bound_to 6896
  151.4250  135.1007  159.9678 H   0  0  0  0  0  0  0  0  0  0  0  0  # atno 6909 bound_to 6896
  144.7838  139.7496  143.6249 H   0  0  0  0  0  0  0  0  0  0  0  0  # atno 7974 bound_to 7965
  155.4626  140.3462  155.4315 H   0  0  0  0  0  0  0  0  0  0  0  0  # atno 8008 bound_to 7997
  156.1151  140.1471  156.9313 H   0  0  0  0  0  0  0  0  0  0  0  0  # atno 8009 bound_to 7997
  154.4783  140.0878  156.7296 H   0  0  0  0  0  0  0  0  0  0  0  0  # atno 8010 bound_to 7997
  139.4825  144.5234  151.7839 H   0  0  0  0  0  0  0  0  0  0  0  0  # atno 10167 bound_to 10162
  156.6705  130.9082  151.3043 H   0  0  0  0  0  0  0  0  0  0  0  0  # atno 10718 bound_to 10713
  152.9788  135.5815  154.4564 H   0  0  0  0  0  0  0  0  0  0  0  0  # atno 10763 bound_to 10752
  154.4146  135.2770  155.2017 H   0  0  0  0  0  0  0  0  0  0  0  0  # atno 10764 bound_to 10752
  154.3792  135.6150  153.5835 H   0  0  0  0  0  0  0  0  0  0  0  0  # atno 10765 bound_to 10752
  140.0986  134.8997  157.1761 H   0  0  0  0  0  0  0  0  0  0  0  0  # atno 11005 bound_to 11000
  146.2060  139.5385  142.9712 LP  0  0  0  0  0  0  0  0  0  0  0  0  # atno 17320 bound_to 7965
  145.5976  141.0360  143.2036 LP  0  0  0  0  0  0  0  0  0  0  0  0  # atno 17321 bound_to 7965
  140.4751  144.1530  150.5923 LP  0  0  0  0  0  0  0  0  0  0  0  0  # atno 17342 bound_to 10162
  140.4339  143.2556  151.9560 LP  0  0  0  0  0  0  0  0  0  0  0  0  # atno 17343 bound_to 10162
  157.7079  130.9406  150.0990 LP  0  0  0  0  0  0  0  0  0  0  0  0  # atno 17370 bound_to 10713
  156.1942  130.3656  149.8870 LP  0  0  0  0  0  0  0  0  0  0  0  0  # atno 17371 bound_to 10713
  140.3251  134.2872  155.7238 LP  0  0  0  0  0  0  0  0  0  0  0  0  # atno 17394 bound_to 11000
  141.2099  133.7735  156.9966 LP  0  0  0  0  0  0  0  0  0  0  0  0  # atno 17395 bound_to 11000

$$$$
