AV-unprocessed.smi:1560|AV-procd|sdf|6277|dock2
  -GOLD-   22720 6473D 1   1.00000     0.00000
 Structure written by MMmdl.
 48 49  0  0  0  0  0  0  0  0  2 V2000
  142.8869  135.6369  153.1949 C   0  0  0  0  0  0  0  0  0  0  0  0
  143.8081  136.2331  152.1156 C   0  0  0  0  0  0  0  0  0  0  0  0
  145.1991  135.5437  151.9576 C   0  0  1  0  0  0  0  0  0  0  0  0
  145.8803  136.1667  150.7101 C   0  0  0  0  0  0  0  0  0  0  0  0
  146.0840  135.8335  153.2113 C   0  0  0  0  0  0  0  0  0  0  0  0
  146.8268  137.0897  153.1219 N   0  0  0  0  0  0  0  0  0  0  0  0
  147.3222  137.7828  154.1584 C   0  0  0  0  0  0  0  0  0  0  0  0
  147.2422  137.4022  155.3269 O   0  0  0  0  0  0  0  0  0  0  0  0
  148.0131  139.1100  153.8197 C   0  0  0  0  0  0  0  0  0  0  0  0
  149.4101  139.1427  154.2754 N   0  0  0  0  0  0  0  0  0  0  0  0
  150.2684  138.0904  153.9890 C   0  0  0  0  0  0  0  0  0  0  0  0
  151.5627  138.0554  154.3852 C   0  0  0  0  0  0  0  0  0  0  0  0
  152.1299  139.1569  155.1560 C   0  0  0  0  0  0  0  0  0  0  0  0
  153.2894  139.2172  155.5589 O   0  0  0  0  0  0  0  0  0  0  0  0
  151.2348  140.1955  155.4260 N   0  0  0  0  0  0  0  0  0  0  0  0
  149.8997  140.2379  155.0214 C   0  0  0  0  0  0  0  0  0  0  0  0
  149.1938  141.2020  155.3169 O   0  0  0  0  0  0  0  0  0  0  0  0
  145.0160  134.0581  151.7678 N   0  3  0  0  0  0  0  0  0  0  0  0
  144.0797  133.6452  150.6840 C   0  0  0  0  0  0  0  0  0  0  0  0
  143.8364  132.1270  150.7310 C   0  0  0  0  0  0  0  0  0  0  0  0
  145.0730  131.4357  150.6258 O   0  0  0  0  0  0  0  0  0  0  0  0
  145.9451  131.7520  151.7015 C   0  0  0  0  0  0  0  0  0  0  0  0
  146.2680  133.2545  151.6744 C   0  0  0  0  0  0  0  0  0  0  0  0
  151.5828  140.9794  155.9589 H   0  0  0  0  0  0  0  0  0  0  0  0
  141.9418  136.1797  153.2278 H   0  0  0  0  0  0  0  0  0  0  0  0
  143.3290  135.6985  154.1891 H   0  0  0  0  0  0  0  0  0  0  0  0
  142.6507  134.5923  152.9945 H   0  0  0  0  0  0  0  0  0  0  0  0
  143.2664  136.1858  151.1710 H   0  0  0  0  0  0  0  0  0  0  0  0
  143.9296  137.2997  152.3033 H   0  0  0  0  0  0  0  0  0  0  0  0
  145.8171  137.2556  150.7173 H   0  0  0  0  0  0  0  0  0  0  0  0
  145.4194  135.8256  149.7829 H   0  0  0  0  0  0  0  0  0  0  0  0
  146.9420  135.9239  150.6586 H   0  0  0  0  0  0  0  0  0  0  0  0
  145.4875  135.8301  154.1239 H   0  0  0  0  0  0  0  0  0  0  0  0
  146.8275  135.0480  153.3411 H   0  0  0  0  0  0  0  0  0  0  0  0
  146.9484  137.4791  152.1978 H   0  0  0  0  0  0  0  0  0  0  0  0
  147.9560  139.2551  152.7399 H   0  0  0  0  0  0  0  0  0  0  0  0
  147.4639  139.9484  154.2536 H   0  0  0  0  0  0  0  0  0  0  0  0
  149.8915  137.2499  153.4233 H   0  0  0  0  0  0  0  0  0  0  0  0
  152.1816  137.2070  154.1315 H   0  0  0  0  0  0  0  0  0  0  0  0
  143.1121  134.1344  150.7783 H   0  0  0  0  0  0  0  0  0  0  0  0
  144.4864  133.9184  149.7100 H   0  0  0  0  0  0  0  0  0  0  0  0
  143.3245  131.8433  151.6521 H   0  0  0  0  0  0  0  0  0  0  0  0
  143.1929  131.8246  149.9045 H   0  0  0  0  0  0  0  0  0  0  0  0
  145.4941  131.4655  152.6529 H   0  0  0  0  0  0  0  0  0  0  0  0
  146.8603  131.1694  151.5945 H   0  0  0  0  0  0  0  0  0  0  0  0
  146.7998  133.4855  150.7513 H   0  0  0  0  0  0  0  0  0  0  0  0
  146.9463  133.4689  152.4978 H   0  0  0  0  0  0  0  0  0  0  0  0
  144.5723  133.7533  152.6227 H   0  0  0  0  0  0  0  0  0  0  0  0
  1  2  1  0  0  0  0
  1 25  1  0  0  0  0
  1 26  1  0  0  0  0
  1 27  1  0  0  0  0
  2  3  1  0  0  0  0
  2 28  1  0  0  0  0
  2 29  1  0  0  0  0
  3  4  1  0  0  0  0
  3  5  1  0  0  0  0
  3 18  1  0  0  0  0
  4 30  1  0  0  0  0
  4 31  1  0  0  0  0
  4 32  1  0  0  0  0
  5  6  1  0  0  0  0
  5 33  1  0  0  0  0
  5 34  1  0  0  0  0
  6  7  1  0  0  0  0
  6 35  1  0  0  0  0
  7  8  2  0  0  0  0
  7  9  1  0  0  0  0
  9 10  1  0  0  0  0
  9 36  1  0  0  0  0
  9 37  1  0  0  0  0
 10 16  1  0  0  0  0
 10 11  1  0  0  0  0
 11 12  2  0  0  0  0
 11 38  1  0  0  0  0
 12 13  1  0  0  0  0
 12 39  1  0  0  0  0
 13 14  2  0  0  0  0
 13 15  1  0  0  0  0
 15 24  1  0  0  0  0
 15 16  1  0  0  0  0
 16 17  2  0  0  0  0
 18 23  1  0  0  0  0
 18 19  1  0  0  0  0
 18 48  1  0  0  0  0
 19 20  1  0  0  0  0
 19 40  1  0  0  0  0
 19 41  1  0  0  0  0
 20 21  1  0  0  0  0
 20 42  1  0  0  0  0
 20 43  1  0  0  0  0
 21 22  1  0  0  0  0
 22 23  1  0  0  0  0
 22 44  1  0  0  0  0
 22 45  1  0  0  0  0
 23 46  1  0  0  0  0
 23 47  1  0  0  0  0
M  CHG  1  18   1
M  END
> <s_m_source_file>
AV-unprocessed.smi

> <i_m_source_file_index>
1560

> <i_lp_mmshare_version>
43012

> <i_f3d_flags>
0

> <s_epik_input>
W0NIMl0xW0NIMl1PW0NIMl1bQ0gyXU4xW0NAQF0oW0NIM10pKFtDSDJdW0NIM10pW0NIMl1bTkhdQyg9TylbQ0gyXW4yW2NIXVtjSF1jKD1PKVtuSF1jMj1P

> <s_epik_cmdline>
J2VwaWtfcHl0aG9uJywgJy1waCcsICc3LjAnLCAnLXRuJywgJzgnLCAnLW1hJywgJzIwMCcsICctbWV0YWxfYmluZGluZycsICctaW1hZScsICc8aW5maWxlLm1hZT4nLCAnLW9tYWUnLCAnPG91dGZpbGUubWFlPic=

> <r_lp_tautomer_probability>
0.999537

> <r_epik_Ionization_Penalty>
0.523885

> <r_epik_Ionization_Penalty_Charging>
0.523885

> <r_epik_Ionization_Penalty_Neutral>
8.70177e-08

> <r_epik_State_Penalty>
0.572334

> <r_epik_Charging_Adjusted_Penalty>
1.09622

> <i_epik_Tot_Q>
1

> <i_epik_Tot_abs_Q>
1

> <r_epik_Metal_State_Penalty>
0.938906

> <b_epik_Metal_Only>
0

> <s_lp_Force_Field>
OPLS_2005

> <r_lp_Energy>
27.5913

> <b_lp_Chiralities_Consistent>
1

> <s_lp_Variant>
AV-unprocessed.smi:1560-3

> <Gold.Version>
5.8.1

> <Gold.Id.Protein>
6NUR|6NUR_protein|mol2

> <Gold.PLP.Fitness>
41.5935

> <Gold.PLP.PLP>
-36.9896

> <Gold.PLP.part.hbond>
-1.7690

> <Gold.PLP.part.metal>
0.0000

> <Gold.PLP.part.buried>
-6.2600

> <Gold.PLP.part.nonpolar>
-30.7026

> <Gold.PLP.part.repulsive>
0.5451

> <Gold.PLP.ligand.clash>
0.0000

> <Gold.PLP.ligand.torsion>
0.8535

> <Gold.PLP.Chemscore.Hbond>
1.0000

> <Gold.PLP.Chemscore.CHOScore>
1.0000

> <Gold.PLP.Chemscore.Metal>
0.0000

> <Gold.Chemscore.Hbonds>
donor molecule, donor type, donor heavy atom, donor atom, acceptor molecule, acceptor atom, score
      P1  H  7997  8008       L1    14  1.00
      L1  C    11    38       P1  7948  1.00

> <Gold.PLP.Chemscore.Internal.Correction>
0.3108

> <Gold.Rescore>
     Score         DG    S(hbond)    S(metal)    S(lipo)     H(rot)  DE(clash)    DE(int)     intcor
      9.73     -10.83       1.00        0.00      73.40       2.56       0.05       1.06       ----

> <Gold.Chemscore.Fitness>
9.7251

> <Gold.Chemscore.DG>
-10.8349

> <Gold.Chemscore.ZeroCoef>
-5.4800

> <Gold.Chemscore.Hbond>
0.9968

> <Gold.Chemscore.Metal>
0.0000

> <Gold.Chemscore.Lipo>
73.4009

> <Gold.Chemscore.Internal_Hbond>
0.0000

> <Gold.Chemscore.DEClash>
0.0545

> <Gold.Chemscore.DEInternal>
1.0553

> <Gold.Chemscore.Rot>
2.5634

> <Gold.Chemscore.Internal.Correction>
   9.000000E+99

> <Gold.Chemscore.Hbonds>
donor molecule, donor type, donor heavy atom, donor atom, acceptor molecule, acceptor atom, score
      P1  H  7997  8008       L1    14  0.93

> <Gold.Chemscore.Hbond.Weighted>
-3.3294

> <Gold.Chemscore.Metal.Weighted>
-0.0000

> <Gold.Chemscore.Lipo.Weighted>
-8.5879

> <Gold.Chemscore.Internal_Hbond.Weighted>
0.0000

> <Gold.Chemscore.DEClash.Weighted>
0.0545

> <Gold.Chemscore.DEInternal.Weighted>
1.0553

> <Gold.Chemscore.Rot.Weighted>
6.5624

> <Gold.Chemscore.Internal.Correction.Weighted>
   9.000000E+99

> <Gold.Protein.RotatedTorsions>
[ 6907 6896 6895 6894 ] final  132.26 input  -60.11 | X-H torsion
[ 7974 7965 7964 7962 ] final -143.09 input  175.53 | X-H torsion
[ 8008 7997 7996 7995 ] final  -12.36 input   59.86 | X-H torsion
[ 10167 10162 10161 10158 ] final  178.70 input  -65.29 | X-H torsion
[ 10718 10713 10712 10709 ] final   10.27 input   66.30 | X-H torsion
[ 10763 10752 10751 10750 ] final  -64.87 input  -60.55 | X-H torsion
[ 11005 11000 10999 10996 ] final   47.71 input  -57.11 | X-H torsion

> <Gold.Protein.ActiveResidues>
 VAL166  LYS551  ARG553  GLY616  TRP617  ASP618  TYR619  PRO620  LYS621  CYS622 
 ASP623  PHE694  ASN695  SER759  ASP760  ASP761  ALA762  ILE779  LEU786  VAL792 
 PHE793  MET794  SER795  GLU796  ALA797  LYS798  CYS799  TRP800  GLU811  SER814 

> <Gold.Protein.RotatedAtoms>
  152.3343  133.5993  159.5830 H   0  0  0  0  0  0  0  0  0  0  0  0  # atno 6907 bound_to 6896
  150.7441  133.9820  159.3588 H   0  0  0  0  0  0  0  0  0  0  0  0  # atno 6908 bound_to 6896
  151.7692  135.0791  160.0408 H   0  0  0  0  0  0  0  0  0  0  0  0  # atno 6909 bound_to 6896
  144.8395  140.5877  143.5462 H   0  0  0  0  0  0  0  0  0  0  0  0  # atno 7974 bound_to 7965
  154.5384  140.2278  155.8683 H   0  0  0  0  0  0  0  0  0  0  0  0  # atno 8008 bound_to 7997
  156.1834  140.3094  155.9155 H   0  0  0  0  0  0  0  0  0  0  0  0  # atno 8009 bound_to 7997
  155.3307  140.0445  157.3033 H   0  0  0  0  0  0  0  0  0  0  0  0  # atno 8010 bound_to 7997
  139.5305  144.2649  152.0676 H   0  0  0  0  0  0  0  0  0  0  0  0  # atno 10167 bound_to 10162
  156.9785  130.5996  149.5674 H   0  0  0  0  0  0  0  0  0  0  0  0  # atno 10718 bound_to 10713
  154.3366  135.6165  153.5576 H   0  0  0  0  0  0  0  0  0  0  0  0  # atno 10763 bound_to 10752
  152.9807  135.5759  154.4901 H   0  0  0  0  0  0  0  0  0  0  0  0  # atno 10764 bound_to 10752
  154.4597  135.2855  155.1698 H   0  0  0  0  0  0  0  0  0  0  0  0  # atno 10765 bound_to 10752
  140.1255  134.4774  155.8563 H   0  0  0  0  0  0  0  0  0  0  0  0  # atno 11005 bound_to 11000
  145.4724  139.1502  143.3806 LP  0  0  0  0  0  0  0  0  0  0  0  0  # atno 17320 bound_to 7965
  146.2689  140.4858  142.8822 LP  0  0  0  0  0  0  0  0  0  0  0  0  # atno 17321 bound_to 7965
  140.2112  144.4561  150.6385 LP  0  0  0  0  0  0  0  0  0  0  0  0  # atno 17342 bound_to 10162
  140.6479  143.2218  151.6144 LP  0  0  0  0  0  0  0  0  0  0  0  0  # atno 17343 bound_to 10162
  156.0254  130.5348  150.8391 LP  0  0  0  0  0  0  0  0  0  0  0  0  # atno 17370 bound_to 10713
  157.5543  131.0944  150.9651 LP  0  0  0  0  0  0  0  0  0  0  0  0  # atno 17371 bound_to 10713
  141.2160  133.6776  156.6970 LP  0  0  0  0  0  0  0  0  0  0  0  0  # atno 17394 bound_to 11000
  140.2909  134.8241  157.4016 LP  0  0  0  0  0  0  0  0  0  0  0  0  # atno 17395 bound_to 11000

$$$$
