AV-unprocessed.smi:2214|AV-procd|sdf|8959|dock1
  -GOLD-   2272012173D 1   1.00000     0.00000
 Structure written by MMmdl.
 41 42  0  0  0  0  0  0  0  0  1 V2000
  154.6059  140.6271  160.4423 C   0  0  0  0  0  0  0  0  0  0  0  0
  153.5538  141.7171  160.4561 C   0  0  0  0  0  0  0  0  0  0  0  0
  153.3047  142.4513  161.6325 C   0  0  0  0  0  0  0  0  0  0  0  0
  152.3274  143.4632  161.6348 C   0  0  0  0  0  0  0  0  0  0  0  0
  151.5972  143.7448  160.4641 C   0  0  0  0  0  0  0  0  0  0  0  0
  150.3993  144.9897  160.4929 Cl  0  0  0  0  0  0  0  0  0  0  0  0
  151.8345  143.0165  159.2775 C   0  0  0  0  0  0  0  0  0  0  0  0
  151.0816  143.3491  158.1720 O   0  0  0  0  0  0  0  0  0  0  0  0
  151.4249  142.7779  156.9171 C   0  0  0  0  0  0  0  0  0  0  0  0
  150.4760  141.5989  156.6556 C   0  0  1  0  0  0  0  0  0  0  0  0
  149.1572  142.1057  156.6806 O   0  0  0  0  0  0  0  0  0  0  0  0
  150.7361  140.9308  155.2847 C   0  0  0  0  0  0  0  0  0  0  0  0
  151.0328  139.4963  155.4244 N   0  0  0  0  0  0  0  0  0  0  0  0
  150.1544  138.6121  154.7748 C   0  0  0  0  0  0  0  0  0  0  0  0
  150.3250  137.3314  154.8189 N   0  0  0  0  0  0  0  0  0  0  0  0
  151.4083  136.7968  155.5225 C   0  0  0  0  0  0  0  0  0  0  0  0
  151.5150  135.2822  155.5092 C   0  0  0  0  0  0  0  0  0  0  0  0
  152.2990  137.5997  156.1669 C   0  0  0  0  0  0  0  0  0  0  0  0
  153.4975  137.0740  156.9471 C   0  0  0  0  0  0  0  0  0  0  0  0
  152.1202  139.0602  156.1220 C   0  0  0  0  0  0  0  0  0  0  0  0
  152.8940  139.8452  156.6735 O   0  0  0  0  0  0  0  0  0  0  0  0
  152.8221  141.9989  159.2842 C   0  0  0  0  0  0  0  0  0  0  0  0
  155.0252  140.4657  161.4358 H   0  0  0  0  0  0  0  0  0  0  0  0
  155.4192  140.8966  159.7681 H   0  0  0  0  0  0  0  0  0  0  0  0
  154.1727  139.6870  160.1000 H   0  0  0  0  0  0  0  0  0  0  0  0
  153.8600  142.2432  162.5354 H   0  0  0  0  0  0  0  0  0  0  0  0
  152.1378  144.0241  162.5382 H   0  0  0  0  0  0  0  0  0  0  0  0
  151.3103  143.5282  156.1329 H   0  0  0  0  0  0  0  0  0  0  0  0
  152.4614  142.4358  156.9147 H   0  0  0  0  0  0  0  0  0  0  0  0
  150.5816  140.8798  157.4693 H   0  0  0  0  0  0  0  0  0  0  0  0
  149.1429  142.9320  156.2221 H   0  0  0  0  0  0  0  0  0  0  0  0
  149.9054  141.1087  154.5988 H   0  0  0  0  0  0  0  0  0  0  0  0
  151.5816  141.4144  154.7911 H   0  0  0  0  0  0  0  0  0  0  0  0
  149.3316  139.0815  154.2320 H   0  0  0  0  0  0  0  0  0  0  0  0
  151.4651  134.8856  156.5237 H   0  0  0  0  0  0  0  0  0  0  0  0
  152.4571  134.9704  155.0577 H   0  0  0  0  0  0  0  0  0  0  0  0
  150.7046  134.8320  154.9346 H   0  0  0  0  0  0  0  0  0  0  0  0
  154.4232  137.4571  156.5164 H   0  0  0  0  0  0  0  0  0  0  0  0
  153.5629  135.9872  156.9536 H   0  0  0  0  0  0  0  0  0  0  0  0
  153.4448  137.4052  157.9850 H   0  0  0  0  0  0  0  0  0  0  0  0
  153.0385  141.4221  158.3978 H   0  0  0  0  0  0  0  0  0  0  0  0
  1  2  1  0  0  0  0
  1 23  1  0  0  0  0
  1 24  1  0  0  0  0
  1 25  1  0  0  0  0
  2 22  1  0  0  0  0
  2  3  2  0  0  0  0
  3  4  1  0  0  0  0
  3 26  1  0  0  0  0
  4  5  2  0  0  0  0
  4 27  1  0  0  0  0
  5  6  1  0  0  0  0
  5  7  1  0  0  0  0
  7  8  1  0  0  0  0
  7 22  2  0  0  0  0
  8  9  1  0  0  0  0
  9 10  1  0  0  0  0
  9 28  1  0  0  0  0
  9 29  1  0  0  0  0
 10 11  1  0  0  0  0
 10 12  1  0  0  0  0
 10 30  1  0  0  0  0
 11 31  1  0  0  0  0
 12 13  1  0  0  0  0
 12 32  1  0  0  0  0
 12 33  1  0  0  0  0
 13 20  1  0  0  0  0
 13 14  1  0  0  0  0
 14 15  2  0  0  0  0
 14 34  1  0  0  0  0
 15 16  1  0  0  0  0
 16 17  1  0  0  0  0
 16 18  2  0  0  0  0
 17 35  1  0  0  0  0
 17 36  1  0  0  0  0
 17 37  1  0  0  0  0
 18 19  1  0  0  0  0
 18 20  1  0  0  0  0
 19 38  1  0  0  0  0
 19 39  1  0  0  0  0
 19 40  1  0  0  0  0
 20 21  2  0  0  0  0
 22 41  1  0  0  0  0
M  END
> <s_m_source_file>
AV-unprocessed.smi

> <i_m_source_file_index>
2214

> <i_lp_mmshare_version>
43012

> <i_f3d_flags>
0

> <s_epik_input>
W0NIM11jMVtjSF1bY0hdYyhDbCljKFtjSF0xKU9bQ0gyXVtDQEhdKFtPSF0pW0NIMl1uMltjSF1uYyhbQ0gzXSljKFtDSDNdKWMyPU8=

> <s_epik_cmdline>
J2VwaWtfcHl0aG9uJywgJy1waCcsICc3LjAnLCAnLXRuJywgJzgnLCAnLW1hJywgJzIwMCcsICctbWV0YWxfYmluZGluZycsICctaW1hZScsICc8aW5maWxlLm1hZT4nLCAnLW9tYWUnLCAnPG91dGZpbGUubWFlPic=

> <r_lp_tautomer_probability>
1

> <r_epik_Ionization_Penalty>
3.50205e-05

> <r_epik_Ionization_Penalty_Charging>
7.87908e-08

> <r_epik_Ionization_Penalty_Neutral>
3.49418e-05

> <r_epik_State_Penalty>
-0

> <r_epik_Charging_Adjusted_Penalty>
7.87908e-08

> <i_epik_Tot_Q>
0

> <i_epik_Tot_abs_Q>
0

> <r_epik_Metal_State_Penalty>
-0

> <b_epik_Metal_Only>
0

> <s_lp_Force_Field>
OPLS_2005

> <r_lp_Energy>
22.3765

> <b_lp_Chiralities_Consistent>
1

> <s_lp_Variant>
AV-unprocessed.smi:2214-2

> <Gold.Version>
5.8.1

> <Gold.Id.Protein>
6NUR|6NUR_protein|mol2

> <Gold.PLP.Fitness>
46.8405

> <Gold.PLP.PLP>
-42.9643

> <Gold.PLP.part.hbond>
-2.0000

> <Gold.PLP.part.metal>
0.0000

> <Gold.PLP.part.buried>
-4.6054

> <Gold.PLP.part.nonpolar>
-36.4944

> <Gold.PLP.part.repulsive>
0.2497

> <Gold.PLP.ligand.clash>
0.0000

> <Gold.PLP.ligand.torsion>
1.1055

> <Gold.PLP.Chemscore.Hbond>
2.0000

> <Gold.PLP.Chemscore.CHOScore>
0.0000

> <Gold.PLP.Chemscore.Metal>
0.0000

> <Gold.Chemscore.Hbonds>
donor molecule, donor type, donor heavy atom, donor atom, acceptor molecule, acceptor atom, score
      L1  H    11    31       P1  8028  1.00
      P1  H  7997  8010       L1    21  0.88

> <Gold.PLP.Chemscore.Internal.Correction>
0.0872

> <Gold.Rescore>
     Score         DG    S(hbond)    S(metal)    S(lipo)     H(rot)  DE(clash)    DE(int)     intcor
     18.40     -20.57       2.00        0.00     123.36       2.35       0.01       2.15       ----

> <Gold.Chemscore.Fitness>
18.4035

> <Gold.Chemscore.DG>
-20.5701

> <Gold.Chemscore.ZeroCoef>
-5.4800

> <Gold.Chemscore.Hbond>
1.9972

> <Gold.Chemscore.Metal>
0.0000

> <Gold.Chemscore.Lipo>
123.3585

> <Gold.Chemscore.Internal_Hbond>
0.0000

> <Gold.Chemscore.DEClash>
0.0149

> <Gold.Chemscore.DEInternal>
2.1517

> <Gold.Chemscore.Rot>
2.3490

> <Gold.Chemscore.Internal.Correction>
   9.000000E+99

> <Gold.Chemscore.Hbonds>
donor molecule, donor type, donor heavy atom, donor atom, acceptor molecule, acceptor atom, score
      L1  H    11    31       P1  8028  1.00
      P1  H  7997  8010       L1    21  0.86

> <Gold.Chemscore.Hbond.Weighted>
-6.6707

> <Gold.Chemscore.Metal.Weighted>
-0.0000

> <Gold.Chemscore.Lipo.Weighted>
-14.4329

> <Gold.Chemscore.Internal_Hbond.Weighted>
0.0000

> <Gold.Chemscore.DEClash.Weighted>
0.0149

> <Gold.Chemscore.DEInternal.Weighted>
2.1517

> <Gold.Chemscore.Rot.Weighted>
6.0136

> <Gold.Chemscore.Internal.Correction.Weighted>
   9.000000E+99

> <Gold.Protein.RotatedTorsions>
[ 6907 6896 6895 6894 ] final   89.24 input  -60.11 | X-H torsion
[ 7974 7965 7964 7962 ] final   41.29 input  175.53 | X-H torsion
[ 8008 7997 7996 7995 ] final   66.00 input   59.86 | X-H torsion
[ 10167 10162 10161 10158 ] final   87.23 input  -65.29 | X-H torsion
[ 10718 10713 10712 10709 ] final -138.58 input   66.30 | X-H torsion
[ 10763 10752 10751 10750 ] final  112.86 input  -60.55 | X-H torsion
[ 11005 11000 10999 10996 ] final  142.02 input  -57.11 | X-H torsion

> <Gold.Protein.ActiveResidues>
 VAL166  LYS551  ARG553  GLY616  TRP617  ASP618  TYR619  PRO620  LYS621  CYS622 
 ASP623  PHE694  ASN695  SER759  ASP760  ASP761  ALA762  ILE779  LEU786  VAL792 
 PHE793  MET794  SER795  GLU796  ALA797  LYS798  CYS799  TRP800  GLU811  SER814 

> <Gold.Protein.RotatedAtoms>
  152.5434  134.1998  159.8707 H   0  0  0  0  0  0  0  0  0  0  0  0  # atno 6907 bound_to 6896
  151.1987  133.4617  159.2603 H   0  0  0  0  0  0  0  0  0  0  0  0  # atno 6908 bound_to 6896
  151.1011  134.9985  159.8504 H   0  0  0  0  0  0  0  0  0  0  0  0  # atno 6909 bound_to 6896
  146.0835  139.5433  142.9521 H   0  0  0  0  0  0  0  0  0  0  0  0  # atno 7974 bound_to 7965
  155.6706  140.3497  155.4817 H   0  0  0  0  0  0  0  0  0  0  0  0  # atno 8008 bound_to 7997
  155.9692  140.1152  157.0850 H   0  0  0  0  0  0  0  0  0  0  0  0  # atno 8009 bound_to 7997
  154.4162  140.1160  156.5269 H   0  0  0  0  0  0  0  0  0  0  0  0  # atno 8010 bound_to 7997
  139.8794  144.6448  150.8859 H   0  0  0  0  0  0  0  0  0  0  0  0  # atno 10167 bound_to 10162
  156.3010  130.7428  151.1480 H   0  0  0  0  0  0  0  0  0  0  0  0  # atno 10718 bound_to 10713
  153.4840  135.3673  155.2457 H   0  0  0  0  0  0  0  0  0  0  0  0  # atno 10763 bound_to 10752
  154.8754  135.3961  154.3666 H   0  0  0  0  0  0  0  0  0  0  0  0  # atno 10764 bound_to 10752
  153.4275  135.7081  153.6318 H   0  0  0  0  0  0  0  0  0  0  0  0  # atno 10765 bound_to 10752
  140.0445  134.9288  157.0904 H   0  0  0  0  0  0  0  0  0  0  0  0  # atno 11005 bound_to 11000
  145.6173  141.0329  143.1934 LP  0  0  0  0  0  0  0  0  0  0  0  0  # atno 17320 bound_to 7965
  144.7310  139.7727  143.7347 LP  0  0  0  0  0  0  0  0  0  0  0  0  # atno 17321 bound_to 7965
  140.7747  143.3598  151.1851 LP  0  0  0  0  0  0  0  0  0  0  0  0  # atno 17342 bound_to 10162
  139.7210  143.9224  152.2985 LP  0  0  0  0  0  0  0  0  0  0  0  0  # atno 17343 bound_to 10162
  157.7368  131.0559  150.5394 LP  0  0  0  0  0  0  0  0  0  0  0  0  # atno 17370 bound_to 10713
  156.5522  130.4234  149.6102 LP  0  0  0  0  0  0  0  0  0  0  0  0  # atno 17371 bound_to 10713
  140.4015  134.2077  155.7163 LP  0  0  0  0  0  0  0  0  0  0  0  0  # atno 17394 bound_to 11000
  141.1900  133.8226  157.0935 LP  0  0  0  0  0  0  0  0  0  0  0  0  # atno 17395 bound_to 11000

$$$$
