AV-unprocessed.smi:47|AV-procd|sdf|433|dock8
  -GOLD-   2262016303D 1   1.00000     0.00000
 Structure written by MMmdl.
 32 34  0  0  0  0  0  0  0  0  2 V2000
  147.1306  139.5957  153.8288 O   0  0  0  0  0  0  0  0  0  0  0  0
  148.0129  140.6844  153.9996 C   0  0  1  0  0  0  0  0  0  0  0  0
  147.5519  141.6349  155.1104 C   0  0  0  0  0  0  0  0  0  0  0  0
  148.7793  142.2268  155.6803 N   0  3  0  0  0  0  0  0  0  0  0  0
  149.9438  141.5145  155.1128 C   0  0  1  0  0  0  0  0  0  0  0  0
  150.8766  141.2923  156.2661 C   0  0  0  0  0  0  0  0  0  0  0  0
  151.7589  140.2875  156.2727 N   0  0  0  0  0  0  0  0  0  0  0  0
  152.4594  140.3089  157.4269 N   0  0  0  0  0  0  0  0  0  0  0  0
  151.9218  141.3574  158.0477 C   0  0  0  0  0  0  0  0  0  0  0  0
  152.3770  141.7872  159.3908 C   0  0  0  0  0  0  0  0  0  0  0  0
  153.2541  140.9811  160.1571 C   0  0  0  0  0  0  0  0  0  0  0  0
  153.6887  141.3858  161.4342 C   0  0  0  0  0  0  0  0  0  0  0  0
  153.2525  142.6096  161.9717 C   0  0  0  0  0  0  0  0  0  0  0  0
  152.3821  143.4252  161.2274 C   0  0  0  0  0  0  0  0  0  0  0  0
  151.9502  143.0163  159.9508 C   0  0  0  0  0  0  0  0  0  0  0  0
  150.9272  142.0187  157.3817 N   0  0  0  0  0  0  0  0  0  0  0  0
  149.3932  140.2384  154.4720 C   0  0  0  0  0  0  0  0  0  0  0  0
  148.1042  141.2306  153.0596 H   0  0  0  0  0  0  0  0  0  0  0  0
  150.4099  142.1518  154.3597 H   0  0  0  0  0  0  0  0  0  0  0  0
  147.0763  139.3897  152.9078 H   0  0  0  0  0  0  0  0  0  0  0  0
  146.8666  142.4007  154.7465 H   0  0  0  0  0  0  0  0  0  0  0  0
  147.0488  141.0841  155.9067 H   0  0  0  0  0  0  0  0  0  0  0  0
  148.8378  143.2109  155.4617 H   0  0  0  0  0  0  0  0  0  0  0  0
  153.6074  140.0364  159.7709 H   0  0  0  0  0  0  0  0  0  0  0  0
  154.3580  140.7558  162.0013 H   0  0  0  0  0  0  0  0  0  0  0  0
  153.5847  142.9218  162.9509 H   0  0  0  0  0  0  0  0  0  0  0  0
  152.0443  144.3665  161.6351 H   0  0  0  0  0  0  0  0  0  0  0  0
  151.2812  143.6641  159.4035 H   0  0  0  0  0  0  0  0  0  0  0  0
  149.2843  139.4569  155.2268 H   0  0  0  0  0  0  0  0  0  0  0  0
  150.0270  139.8496  153.6745 H   0  0  0  0  0  0  0  0  0  0  0  0
  148.7690  142.0996  156.6827 H   0  0  0  0  0  0  0  0  0  0  0  0
  151.9105  139.5963  155.5515 H   0  0  0  0  0  0  0  0  0  0  0  0
  1  2  1  0  0  0  0
  1 20  1  0  0  0  0
  2 18  1  0  0  0  0
  2 17  1  0  0  0  0
  2  3  1  0  0  0  0
  3  4  1  0  0  0  0
  3 21  1  0  0  0  0
  3 22  1  0  0  0  0
  4  5  1  0  0  0  0
  4 23  1  0  0  0  0
  4 31  1  0  0  0  0
  5 19  1  0  0  0  0
  5  6  1  0  0  0  0
  5 17  1  0  0  0  0
  6 16  2  0  0  0  0
  6  7  1  0  0  0  0
  7  8  1  0  0  0  0
  7 32  1  0  0  0  0
  8  9  2  0  0  0  0
  9 10  1  0  0  0  0
  9 16  1  0  0  0  0
 10 15  1  0  0  0  0
 10 11  2  0  0  0  0
 11 12  1  0  0  0  0
 11 24  1  0  0  0  0
 12 13  2  0  0  0  0
 12 25  1  0  0  0  0
 13 14  1  0  0  0  0
 13 26  1  0  0  0  0
 14 15  2  0  0  0  0
 14 27  1  0  0  0  0
 15 28  1  0  0  0  0
 17 29  1  0  0  0  0
 17 30  1  0  0  0  0
M  CHG  1   4   1
M  END
> <s_m_source_file>
AV-unprocessed.smi

> <i_m_source_file_index>
47

> <i_lp_mmshare_version>
43012

> <i_f3d_flags>
0

> <s_epik_input>
W09IXVtDQEhdMVtDSDJdW05IXVtDQEBIXShbQ0gyXTEpYzJuW25IXWMobjIpLWMzW2NIXVtjSF1bY0hdW2NIXVtjSF0z

> <s_epik_cmdline>
J2VwaWtfcHl0aG9uJywgJy1waCcsICc3LjAnLCAnLXRuJywgJzgnLCAnLW1hJywgJzIwMCcsICctbWV0YWxfYmluZGluZycsICctaW1hZScsICc8aW5maWxlLm1hZT4nLCAnLW9tYWUnLCAnPG91dGZpbGUubWFlPic=

> <r_epik_Ionization_Penalty>
1.14296

> <r_epik_Ionization_Penalty_Charging>
0.0688988

> <r_epik_Ionization_Penalty_Neutral>
1.07406

> <r_epik_State_Penalty>
1.72347

> <r_epik_Charging_Adjusted_Penalty>
1.79237

> <i_epik_Tot_Q>
1

> <i_epik_Tot_abs_Q>
1

> <r_epik_Metal_State_Penalty>
2.22085

> <b_epik_Metal_Only>
0

> <s_lp_Force_Field>
OPLS_2005

> <r_lp_Energy>
30.8137

> <b_lp_Chiralities_Consistent>
1

> <s_lp_Variant>
AV-unprocessed.smi:47-11

> <Gold.Version>
5.8.1

> <Gold.Id.Protein>
6NUR|6NUR_protein|mol2

> <Gold.PLP.Fitness>
44.3837

> <Gold.PLP.PLP>
-36.9173

> <Gold.PLP.part.hbond>
-1.9362

> <Gold.PLP.part.metal>
0.0000

> <Gold.PLP.part.buried>
-2.8605

> <Gold.PLP.part.nonpolar>
-31.1757

> <Gold.PLP.part.repulsive>
0.3392

> <Gold.PLP.ligand.clash>
0.0000

> <Gold.PLP.ligand.torsion>
0.7008

> <Gold.PLP.Chemscore.Hbond>
2.9516

> <Gold.PLP.Chemscore.CHOScore>
0.0000

> <Gold.PLP.Chemscore.Metal>
0.0000

> <Gold.Chemscore.Hbonds>
donor molecule, donor type, donor heavy atom, donor atom, acceptor molecule, acceptor atom, score
      L1  H     4    23       P1  8028  1.92
      P1  H  7997  8008       L1     8  0.87

> <Gold.PLP.Chemscore.Internal.Correction>
0.0133

> <Gold.Rescore>
     Score         DG    S(hbond)    S(metal)    S(lipo)     H(rot)  DE(clash)    DE(int)     intcor
     17.52     -18.23       1.90        0.00      87.57       1.50       0.01       0.70       ----

> <Gold.Chemscore.Fitness>
17.5214

> <Gold.Chemscore.DG>
-18.2318

> <Gold.Chemscore.ZeroCoef>
-5.4800

> <Gold.Chemscore.Hbond>
1.8974

> <Gold.Chemscore.Metal>
0.0000

> <Gold.Chemscore.Lipo>
87.5710

> <Gold.Chemscore.Internal_Hbond>
0.0000

> <Gold.Chemscore.DEClash>
0.0146

> <Gold.Chemscore.DEInternal>
0.6958

> <Gold.Chemscore.Rot>
1.4966

> <Gold.Chemscore.Internal.Correction>
   9.000000E+99

> <Gold.Chemscore.Hbonds>
donor molecule, donor type, donor heavy atom, donor atom, acceptor molecule, acceptor atom, score
      L1  H     4    23       P1  8028  0.91
      P1  H  7997  8008       L1     8  0.20

> <Gold.Chemscore.Hbond.Weighted>
-6.3373

> <Gold.Chemscore.Metal.Weighted>
-0.0000

> <Gold.Chemscore.Lipo.Weighted>
-10.2458

> <Gold.Chemscore.Internal_Hbond.Weighted>
0.0000

> <Gold.Chemscore.DEClash.Weighted>
0.0146

> <Gold.Chemscore.DEInternal.Weighted>
0.6958

> <Gold.Chemscore.Rot.Weighted>
3.8312

> <Gold.Chemscore.Internal.Correction.Weighted>
   9.000000E+99

> <Gold.Protein.RotatedTorsions>
[ 6907 6896 6895 6894 ] final   96.62 input  -60.11 | X-H torsion
[ 7974 7965 7964 7962 ] final  -17.54 input  175.53 | X-H torsion
[ 8008 7997 7996 7995 ] final  -62.48 input   59.86 | X-H torsion
[ 10167 10162 10161 10158 ] final  -62.59 input  -65.29 | X-H torsion
[ 10718 10713 10712 10709 ] final -127.15 input   66.30 | X-H torsion
[ 10763 10752 10751 10750 ] final   70.64 input  -60.55 | X-H torsion
[ 11005 11000 10999 10996 ] final   74.58 input  -57.11 | X-H torsion

> <Gold.Protein.ActiveResidues>
 VAL166  LYS551  ARG553  GLY616  TRP617  ASP618  TYR619  PRO620  LYS621  CYS622 
 ASP623  PHE694  ASN695  SER759  ASP760  ASP761  ALA762  ILE779  LEU786  VAL792 
 PHE793  MET794  SER795  GLU796  ALA797  LYS798  CYS799  TRP800  GLU811  SER814 

> <Gold.Protein.RotatedAtoms>
  152.5433  134.0858  159.8255 H   0  0  0  0  0  0  0  0  0  0  0  0  # atno 6907 bound_to 6896
  151.0954  133.5276  159.2620 H   0  0  0  0  0  0  0  0  0  0  0  0  # atno 6908 bound_to 6896
  151.2051  135.0467  159.8942 H   0  0  0  0  0  0  0  0  0  0  0  0  # atno 6909 bound_to 6896
  146.1936  140.3793  142.8449 H   0  0  0  0  0  0  0  0  0  0  0  0  # atno 7974 bound_to 7965
  154.4502  140.0995  156.6594 H   0  0  0  0  0  0  0  0  0  0  0  0  # atno 8008 bound_to 7997
  155.5309  140.3481  155.4407 H   0  0  0  0  0  0  0  0  0  0  0  0  # atno 8009 bound_to 7997
  156.0665  140.1339  156.9869 H   0  0  0  0  0  0  0  0  0  0  0  0  # atno 8010 bound_to 7997
  140.5929  143.2345  151.6100 H   0  0  0  0  0  0  0  0  0  0  0  0  # atno 10167 bound_to 10162
  156.1831  130.6745  151.0329 H   0  0  0  0  0  0  0  0  0  0  0  0  # atno 10718 bound_to 10713
  153.0353  135.5166  154.7472 H   0  0  0  0  0  0  0  0  0  0  0  0  # atno 10763 bound_to 10752
  154.6454  135.2918  155.0055 H   0  0  0  0  0  0  0  0  0  0  0  0  # atno 10764 bound_to 10752
  154.0958  135.6643  153.4912 H   0  0  0  0  0  0  0  0  0  0  0  0  # atno 10765 bound_to 10752
  139.9384  134.7445  156.1166 H   0  0  0  0  0  0  0  0  0  0  0  0  # atno 11005 bound_to 11000
  144.8535  140.7036  143.6153 LP  0  0  0  0  0  0  0  0  0  0  0  0  # atno 17320 bound_to 7965
  145.3715  139.1657  143.4329 LP  0  0  0  0  0  0  0  0  0  0  0  0  # atno 17321 bound_to 7965
  139.5239  144.3120  152.0985 LP  0  0  0  0  0  0  0  0  0  0  0  0  # atno 17342 bound_to 10162
  140.2287  144.4391  150.6309 LP  0  0  0  0  0  0  0  0  0  0  0  0  # atno 17343 bound_to 10162
  157.6881  131.0818  150.7186 LP  0  0  0  0  0  0  0  0  0  0  0  0  # atno 17370 bound_to 10713
  156.7243  130.4690  149.5515 LP  0  0  0  0  0  0  0  0  0  0  0  0  # atno 17371 bound_to 10713
  141.1008  133.6678  156.2750 LP  0  0  0  0  0  0  0  0  0  0  0  0  # atno 17394 bound_to 11000
  140.6016  134.5549  157.5518 LP  0  0  0  0  0  0  0  0  0  0  0  0  # atno 17395 bound_to 11000

$$$$
