AV-unprocessed.smi:810|AV-procd|sdf|3810|dock3
  -GOLD-   22720 1253D 1   1.00000     0.00000
 Structure written by MMmdl.
 34 35  0  0  0  0  0  0  0  0  1 V2000
  150.8205  140.7660  155.9820 O   0  0  0  0  0  0  0  0  0  0  0  0
  150.1238  141.7781  156.0482 C   0  0  0  0  0  0  0  0  0  0  0  0
  150.3318  142.8114  156.8820 N   0  0  0  0  0  0  0  0  0  0  0  0
  151.3308  142.9517  157.8828 C   0  0  0  0  0  0  0  0  0  0  0  0
  151.5904  144.2449  158.3815 C   0  0  0  0  0  0  0  0  0  0  0  0
  152.5610  144.4105  159.3876 C   0  0  0  0  0  0  0  0  0  0  0  0
  153.2314  143.2680  159.8655 C   0  0  0  0  0  0  0  0  0  0  0  0
  152.9847  142.0214  159.4111 N   0  0  0  0  0  0  0  0  0  0  0  0
  152.0540  141.8697  158.4443 C   0  0  0  0  0  0  0  0  0  0  0  0
  149.0562  141.9958  155.2672 N   0  0  0  0  0  0  0  0  0  0  0  0
  148.5491  141.0794  154.2486 C   0  0  1  0  0  0  0  0  0  0  0  0
  148.5704  139.6380  154.7939 C   0  0  0  0  0  0  0  0  0  0  0  0
  148.8452  138.5731  153.7187 C   0  0  0  0  0  0  0  0  0  0  0  0
  147.9882  138.7746  152.6159 O   0  0  0  0  0  0  0  0  0  0  0  0
  147.1597  141.4504  153.7580 C   0  0  0  0  0  0  0  0  0  0  0  0
  146.6463  142.8660  153.8749 C   0  0  0  0  0  0  0  0  0  0  0  0
  146.0451  141.7710  154.7256 C   0  0  0  0  0  0  0  0  0  0  0  0
  149.7302  143.6123  156.7566 H   0  0  0  0  0  0  0  0  0  0  0  0
  151.0568  145.1020  157.9971 H   0  0  0  0  0  0  0  0  0  0  0  0
  152.7858  145.3893  159.7845 H   0  0  0  0  0  0  0  0  0  0  0  0
  153.9814  143.3574  160.6373 H   0  0  0  0  0  0  0  0  0  0  0  0
  151.8829  140.8485  158.1417 H   0  0  0  0  0  0  0  0  0  0  0  0
  148.5507  142.8613  155.3877 H   0  0  0  0  0  0  0  0  0  0  0  0
  149.2211  141.1070  153.3882 H   0  0  0  0  0  0  0  0  0  0  0  0
  149.3147  139.5581  155.5876 H   0  0  0  0  0  0  0  0  0  0  0  0
  147.6078  139.4216  155.2598 H   0  0  0  0  0  0  0  0  0  0  0  0
  149.8792  138.6295  153.3775 H   0  0  0  0  0  0  0  0  0  0  0  0
  148.6837  137.5673  154.1074 H   0  0  0  0  0  0  0  0  0  0  0  0
  148.3458  139.4643  152.0778 H   0  0  0  0  0  0  0  0  0  0  0  0
  146.8641  140.9218  152.8536 H   0  0  0  0  0  0  0  0  0  0  0  0
  147.2806  143.5965  154.3732 H   0  0  0  0  0  0  0  0  0  0  0  0
  146.0471  143.2520  153.0526 H   0  0  0  0  0  0  0  0  0  0  0  0
  145.0451  141.4261  154.4711 H   0  0  0  0  0  0  0  0  0  0  0  0
  146.2794  141.7768  155.7881 H   0  0  0  0  0  0  0  0  0  0  0  0
  1  2  2  0  0  0  0
  2  3  1  0  0  0  0
  2 10  1  0  0  0  0
  3  4  1  0  0  0  0
  3 18  1  0  0  0  0
  4  9  1  0  0  0  0
  4  5  2  0  0  0  0
  5  6  1  0  0  0  0
  5 19  1  0  0  0  0
  6  7  2  0  0  0  0
  6 20  1  0  0  0  0
  7  8  1  0  0  0  0
  7 21  1  0  0  0  0
  8  9  2  0  0  0  0
  9 22  1  0  0  0  0
 10 11  1  0  0  0  0
 10 23  1  0  0  0  0
 11 12  1  0  0  0  0
 11 15  1  0  0  0  0
 11 24  1  0  0  0  0
 12 13  1  0  0  0  0
 12 25  1  0  0  0  0
 12 26  1  0  0  0  0
 13 14  1  0  0  0  0
 13 27  1  0  0  0  0
 13 28  1  0  0  0  0
 14 29  1  0  0  0  0
 15 17  1  0  0  0  0
 15 16  1  0  0  0  0
 15 30  1  0  0  0  0
 16 17  1  0  0  0  0
 16 31  1  0  0  0  0
 16 32  1  0  0  0  0
 17 33  1  0  0  0  0
 17 34  1  0  0  0  0
M  END
> <s_m_source_file>
AV-unprocessed.smi

> <i_m_source_file_index>
810

> <i_lp_mmshare_version>
43012

> <i_f3d_flags>
0

> <s_epik_input>
W09IXVtDSDJdW0NIMl1bQ0BIXShbQ0hdMVtDSDJdW0NIMl0xKVtOSF1DKD1PKVtOSF1jMltjSF1bY0hdW2NIXW5bY0hdMg==

> <s_epik_cmdline>
J2VwaWtfcHl0aG9uJywgJy1waCcsICc3LjAnLCAnLXRuJywgJzgnLCAnLW1hJywgJzIwMCcsICctbWV0YWxfYmluZGluZycsICctaW1hZScsICc8aW5maWxlLm1hZT4nLCAnLW9tYWUnLCAnPG91dGZpbGUubWFlPic=

> <r_epik_Ionization_Penalty>
0.00486911

> <r_epik_Ionization_Penalty_Charging>
0

> <r_epik_Ionization_Penalty_Neutral>
0.00486911

> <r_epik_State_Penalty>
0.00350304

> <r_epik_Charging_Adjusted_Penalty>
0.00350304

> <i_epik_Tot_Q>
0

> <i_epik_Tot_abs_Q>
0

> <r_epik_Metal_State_Penalty>
-0

> <b_epik_Metal_Only>
0

> <s_lp_Force_Field>
OPLS_2005

> <r_lp_Energy>
17.3052

> <b_lp_Chiralities_Consistent>
1

> <s_lp_Variant>
AV-unprocessed.smi:810-2

> <Gold.Version>
5.8.1

> <Gold.Id.Protein>
6NUR|6NUR_protein|mol2

> <Gold.PLP.Fitness>
44.0992

> <Gold.PLP.PLP>
-36.8753

> <Gold.PLP.part.hbond>
-4.0000

> <Gold.PLP.part.metal>
0.0000

> <Gold.PLP.part.buried>
-4.3602

> <Gold.PLP.part.nonpolar>
-28.7446

> <Gold.PLP.part.repulsive>
0.2162

> <Gold.PLP.ligand.clash>
0.0000

> <Gold.PLP.ligand.torsion>
1.2282

> <Gold.PLP.Chemscore.Hbond>
2.8640

> <Gold.PLP.Chemscore.CHOScore>
0.0000

> <Gold.PLP.Chemscore.Metal>
0.0000

> <Gold.Chemscore.Hbonds>
donor molecule, donor type, donor heavy atom, donor atom, acceptor molecule, acceptor atom, score
      L1  H     3    18       P1  8028  0.99
      L1  H    10    23       P1  8028  0.82
      L1  H    14    29       P1  7957  0.98

> <Gold.PLP.Chemscore.Internal.Correction>
1.0883

> <Gold.Rescore>
     Score         DG    S(hbond)    S(metal)    S(lipo)     H(rot)  DE(clash)    DE(int)     intcor
     15.94     -19.94       2.80        0.00      94.12       2.31       0.17       3.83       ----

> <Gold.Chemscore.Fitness>
15.9430

> <Gold.Chemscore.DG>
-19.9391

> <Gold.Chemscore.ZeroCoef>
-5.4800

> <Gold.Chemscore.Hbond>
2.8025

> <Gold.Chemscore.Metal>
0.0000

> <Gold.Chemscore.Lipo>
94.1159

> <Gold.Chemscore.Internal_Hbond>
0.0000

> <Gold.Chemscore.DEClash>
0.1693

> <Gold.Chemscore.DEInternal>
3.8268

> <Gold.Chemscore.Rot>
2.3097

> <Gold.Chemscore.Internal.Correction>
   9.000000E+99

> <Gold.Chemscore.Hbonds>
donor molecule, donor type, donor heavy atom, donor atom, acceptor molecule, acceptor atom, score
      L1  H     3    18       P1  8028  0.94
      L1  H    10    23       P1  8028  0.81
      L1  H    14    29       P1  7957  0.93

> <Gold.Chemscore.Hbond.Weighted>
-9.3603

> <Gold.Chemscore.Metal.Weighted>
-0.0000

> <Gold.Chemscore.Lipo.Weighted>
-11.0116

> <Gold.Chemscore.Internal_Hbond.Weighted>
0.0000

> <Gold.Chemscore.DEClash.Weighted>
0.1693

> <Gold.Chemscore.DEInternal.Weighted>
3.8268

> <Gold.Chemscore.Rot.Weighted>
5.9127

> <Gold.Chemscore.Internal.Correction.Weighted>
   9.000000E+99

> <Gold.Protein.RotatedTorsions>
[ 6907 6896 6895 6894 ] final -110.39 input  -60.11 | X-H torsion
[ 7974 7965 7964 7962 ] final  125.80 input  175.53 | X-H torsion
[ 8008 7997 7996 7995 ] final -166.81 input   59.86 | X-H torsion
[ 10167 10162 10161 10158 ] final    5.98 input  -65.29 | X-H torsion
[ 10718 10713 10712 10709 ] final -173.44 input   66.30 | X-H torsion
[ 10763 10752 10751 10750 ] final  117.70 input  -60.55 | X-H torsion
[ 11005 11000 10999 10996 ] final   62.05 input  -57.11 | X-H torsion

> <Gold.Protein.ActiveResidues>
 VAL166  LYS551  ARG553  GLY616  TRP617  ASP618  TYR619  PRO620  LYS621  CYS622 
 ASP623  PHE694  ASN695  SER759  ASP760  ASP761  ALA762  ILE779  LEU786  VAL792 
 PHE793  MET794  SER795  GLU796  ALA797  LYS798  CYS799  TRP800  GLU811  SER814 

> <Gold.Protein.RotatedAtoms>
  150.7622  133.9388  159.3449 H   0  0  0  0  0  0  0  0  0  0  0  0  # atno 6907 bound_to 6896
  151.7294  135.0876  160.0307 H   0  0  0  0  0  0  0  0  0  0  0  0  # atno 6908 bound_to 6896
  152.3599  133.6246  159.6043 H   0  0  0  0  0  0  0  0  0  0  0  0  # atno 6909 bound_to 6896
  145.0689  139.3746  143.4968 H   0  0  0  0  0  0  0  0  0  0  0  0  # atno 7974 bound_to 7965
  155.8690  140.0990  157.1563 H   0  0  0  0  0  0  0  0  0  0  0  0  # atno 8008 bound_to 7997
  154.3995  140.1350  156.4117 H   0  0  0  0  0  0  0  0  0  0  0  0  # atno 8009 bound_to 7997
  155.7772  140.3459  155.5280 H   0  0  0  0  0  0  0  0  0  0  0  0  # atno 8010 bound_to 7997
  140.6452  143.7678  150.7489 H   0  0  0  0  0  0  0  0  0  0  0  0  # atno 10167 bound_to 10162
  156.7704  130.9446  151.3120 H   0  0  0  0  0  0  0  0  0  0  0  0  # atno 10718 bound_to 10713
  153.5564  135.3529  155.2781 H   0  0  0  0  0  0  0  0  0  0  0  0  # atno 10763 bound_to 10752
  154.8700  135.4126  154.2880 H   0  0  0  0  0  0  0  0  0  0  0  0  # atno 10764 bound_to 10752
  153.3617  135.7060  153.6776 H   0  0  0  0  0  0  0  0  0  0  0  0  # atno 10765 bound_to 10752
  140.0119  134.6283  155.9768 H   0  0  0  0  0  0  0  0  0  0  0  0  # atno 11005 bound_to 11000
  146.3528  140.0424  142.8642 LP  0  0  0  0  0  0  0  0  0  0  0  0  # atno 17320 bound_to 7965
  145.1317  140.9521  143.4540 LP  0  0  0  0  0  0  0  0  0  0  0  0  # atno 17321 bound_to 7965
  140.1318  143.4519  152.2250 LP  0  0  0  0  0  0  0  0  0  0  0  0  # atno 17342 bound_to 10162
  139.5663  144.7437  151.4014 LP  0  0  0  0  0  0  0  0  0  0  0  0  # atno 17343 bound_to 10162
  157.6694  130.9037  150.0005 LP  0  0  0  0  0  0  0  0  0  0  0  0  # atno 17370 bound_to 10713
  156.1282  130.3644  149.9775 LP  0  0  0  0  0  0  0  0  0  0  0  0  # atno 17371 bound_to 10713
  141.1716  133.6538  156.4674 LP  0  0  0  0  0  0  0  0  0  0  0  0  # atno 17394 bound_to 11000
  140.4540  134.6903  157.5053 LP  0  0  0  0  0  0  0  0  0  0  0  0  # atno 17395 bound_to 11000

$$$$
