AV-unprocessed.smi:1633|AV-procd|sdf|6535|dock4
  -GOLD-   22720 7213D 1   1.00000     0.00000
 Structure written by MMmdl.
 52 54  0  0  0  0  0  0  0  0  3 V2000
  142.3927  143.4270  156.3613 C   0  0  0  0  0  0  0  0  0  0  0  0
  143.6335  142.8597  157.0543 C   0  0  0  0  0  0  0  0  0  0  0  0
  143.4668  142.1129  158.0182 O   0  0  0  0  0  0  0  0  0  0  0  0
  144.8629  143.1924  156.5918 N   0  0  0  0  0  0  0  0  0  0  0  0
  145.1360  144.0083  155.4045 C   0  0  0  0  0  0  0  0  0  0  0  0
  145.8080  143.1317  154.3312 C   0  0  0  0  0  0  0  0  0  0  0  0
  147.0339  142.4689  154.8577 N   0  3  0  0  0  0  0  0  0  0  0  0
  147.7220  141.6078  153.8611 C   0  0  0  0  0  0  0  0  0  0  0  0
  149.0234  140.9685  154.3970 C   0  0  1  0  0  0  0  0  0  0  0  0
  149.9370  140.8084  153.3306 O   0  0  0  0  0  0  0  0  0  0  0  0
  149.7310  141.8157  155.4742 C   0  0  0  0  0  0  0  0  0  0  0  0
  150.7051  141.0508  156.2657 N   0  0  0  0  0  0  0  0  0  0  0  0
  151.2463  139.8258  156.0225 C   0  0  0  0  0  0  0  0  0  0  0  0
  152.1065  139.5470  157.0404 N   0  3  0  0  0  0  0  0  0  0  0  0
  152.1206  140.6112  157.9442 C   0  0  0  0  0  0  0  0  0  0  0  0
  152.8310  140.7916  159.1250 C   0  0  0  0  0  0  0  0  0  0  0  0
  152.6213  142.0006  159.8258 C   0  0  0  0  0  0  0  0  0  0  0  0
  153.3808  142.2289  161.1216 C   0  0  0  0  0  0  0  0  0  0  0  0
  151.7214  142.9817  159.3354 C   0  0  0  0  0  0  0  0  0  0  0  0
  151.5013  144.2773  160.0983 C   0  0  0  0  0  0  0  0  0  0  0  0
  151.0094  142.7799  158.1314 C   0  0  0  0  0  0  0  0  0  0  0  0
  151.2264  141.5824  157.4525 C   0  0  0  0  0  0  0  0  0  0  0  0
  146.7900  141.7521  156.1381 C   0  0  0  0  0  0  0  0  0  0  0  0
  146.0997  142.6606  157.1709 C   0  0  0  0  0  0  0  0  0  0  0  0
  142.3546  143.1150  155.3173 H   0  0  0  0  0  0  0  0  0  0  0  0
  142.3877  144.5164  156.4078 H   0  0  0  0  0  0  0  0  0  0  0  0
  141.4842  143.0704  156.8478 H   0  0  0  0  0  0  0  0  0  0  0  0
  144.2502  144.4833  154.9857 H   0  0  0  0  0  0  0  0  0  0  0  0
  145.8003  144.8271  155.6846 H   0  0  0  0  0  0  0  0  0  0  0  0
  145.1055  142.3717  153.9850 H   0  0  0  0  0  0  0  0  0  0  0  0
  146.0519  143.7529  153.4706 H   0  0  0  0  0  0  0  0  0  0  0  0
  147.0497  140.8059  153.5515 H   0  0  0  0  0  0  0  0  0  0  0  0
  147.9189  142.2022  152.9683 H   0  0  0  0  0  0  0  0  0  0  0  0
  148.8206  139.9851  154.8201 H   0  0  0  0  0  0  0  0  0  0  0  0
  149.5622  140.2276  152.6864 H   0  0  0  0  0  0  0  0  0  0  0  0
  150.2794  142.6318  155.0010 H   0  0  0  0  0  0  0  0  0  0  0  0
  149.0111  142.2867  156.1436 H   0  0  0  0  0  0  0  0  0  0  0  0
  151.0345  139.1906  155.1743 H   0  0  0  0  0  0  0  0  0  0  0  0
  153.5146  140.0402  159.4925 H   0  0  0  0  0  0  0  0  0  0  0  0
  153.9736  143.1417  161.0646 H   0  0  0  0  0  0  0  0  0  0  0  0
  154.0610  141.4044  161.3367 H   0  0  0  0  0  0  0  0  0  0  0  0
  152.6884  142.3170  161.9588 H   0  0  0  0  0  0  0  0  0  0  0  0
  150.7717  144.9161  159.5999 H   0  0  0  0  0  0  0  0  0  0  0  0
  152.4332  144.8375  160.1787 H   0  0  0  0  0  0  0  0  0  0  0  0
  151.1320  144.0722  161.1032 H   0  0  0  0  0  0  0  0  0  0  0  0
  150.3261  143.5303  157.7628 H   0  0  0  0  0  0  0  0  0  0  0  0
  146.1722  140.8729  155.9474 H   0  0  0  0  0  0  0  0  0  0  0  0
  147.7366  141.3941  156.5447 H   0  0  0  0  0  0  0  0  0  0  0  0
  146.7551  143.4909  157.4381 H   0  0  0  0  0  0  0  0  0  0  0  0
  145.9329  142.1053  158.0951 H   0  0  0  0  0  0  0  0  0  0  0  0
  147.6821  143.2092  155.0859 H   0  0  0  0  0  0  0  0  0  0  0  0
  152.6486  138.6947  157.1073 H   0  0  0  0  0  0  0  0  0  0  0  0
  1  2  1  0  0  0  0
  1 25  1  0  0  0  0
  1 26  1  0  0  0  0
  1 27  1  0  0  0  0
  2  3  2  0  0  0  0
  2  4  1  0  0  0  0
  4 24  1  0  0  0  0
  4  5  1  0  0  0  0
  5  6  1  0  0  0  0
  5 28  1  0  0  0  0
  5 29  1  0  0  0  0
  6  7  1  0  0  0  0
  6 30  1  0  0  0  0
  6 31  1  0  0  0  0
  7  8  1  0  0  0  0
  7 23  1  0  0  0  0
  7 51  1  0  0  0  0
  8  9  1  0  0  0  0
  8 32  1  0  0  0  0
  8 33  1  0  0  0  0
  9 10  1  0  0  0  0
  9 11  1  0  0  0  0
  9 34  1  0  0  0  0
 10 35  1  0  0  0  0
 11 12  1  0  0  0  0
 11 36  1  0  0  0  0
 11 37  1  0  0  0  0
 12 22  1  0  0  0  0
 12 13  1  0  0  0  0
 13 14  2  0  0  0  0
 13 38  1  0  0  0  0
 14 15  1  0  0  0  0
 14 52  1  0  0  0  0
 15 22  2  0  0  0  0
 15 16  1  0  0  0  0
 16 17  2  0  0  0  0
 16 39  1  0  0  0  0
 17 18  1  0  0  0  0
 17 19  1  0  0  0  0
 18 40  1  0  0  0  0
 18 41  1  0  0  0  0
 18 42  1  0  0  0  0
 19 20  1  0  0  0  0
 19 21  2  0  0  0  0
 20 43  1  0  0  0  0
 20 44  1  0  0  0  0
 20 45  1  0  0  0  0
 21 22  1  0  0  0  0
 21 46  1  0  0  0  0
 23 24  1  0  0  0  0
 23 47  1  0  0  0  0
 23 48  1  0  0  0  0
 24 49  1  0  0  0  0
 24 50  1  0  0  0  0
M  CHG  1   7   1
M  CHG  1  14   1
M  END
> <s_m_source_file>
AV-unprocessed.smi

> <i_m_source_file_index>
1633

> <i_lp_mmshare_version>
43012

> <i_f3d_flags>
0

> <s_epik_input>
W0NIM11DKD1PKU4xW0NIMl1bQ0gyXU4oW0NIMl1bQ0gyXTEpW0NIMl1bQ0BIXShbT0hdKVtDSDJdbihbY0hdbjIpYyhjMjMpW2NIXWMoW0NIM10pYyhbY0hdMylbQ0gzXQ==

> <s_epik_cmdline>
J2VwaWtfcHl0aG9uJywgJy1waCcsICc3LjAnLCAnLXRuJywgJzgnLCAnLW1hJywgJzIwMCcsICctbWV0YWxfYmluZGluZycsICctaW1hZScsICc8aW5maWxlLm1hZT4nLCAnLW9tYWUnLCAnPG91dGZpbGUubWFlPic=

> <r_epik_Ionization_Penalty>
1.18448

> <r_epik_Ionization_Penalty_Charging>
1.18447

> <r_epik_Ionization_Penalty_Neutral>
4.53746e-06

> <r_epik_State_Penalty>
1.28566

> <r_epik_Charging_Adjusted_Penalty>
2.47013

> <i_epik_Tot_Q>
2

> <i_epik_Tot_abs_Q>
2

> <r_epik_Metal_State_Penalty>
5.30076

> <b_epik_Metal_Only>
0

> <s_lp_Force_Field>
OPLS_2005

> <r_lp_Energy>
59.1266

> <b_lp_Chiralities_Consistent>
1

> <s_lp_Variant>
AV-unprocessed.smi:1633-4

> <Gold.Version>
5.8.1

> <Gold.Id.Protein>
6NUR|6NUR_protein|mol2

> <Gold.PLP.Fitness>
55.3486

> <Gold.PLP.PLP>
-44.9446

> <Gold.PLP.part.hbond>
-2.8123

> <Gold.PLP.part.metal>
0.0000

> <Gold.PLP.part.buried>
-4.1572

> <Gold.PLP.part.nonpolar>
-37.7412

> <Gold.PLP.part.repulsive>
0.2001

> <Gold.PLP.ligand.clash>
0.0000

> <Gold.PLP.ligand.torsion>
0.7251

> <Gold.PLP.Chemscore.Hbond>
3.9280

> <Gold.PLP.Chemscore.CHOScore>
0.0000

> <Gold.PLP.Chemscore.Metal>
0.0000

> <Gold.Chemscore.Hbonds>
donor molecule, donor type, donor heavy atom, donor atom, acceptor molecule, acceptor atom, score
      L1  H     7    51       P1  8028  2.00
      L1  H    10    35       P1  7957  0.74
      P1  H  7989  7998       L1    10  0.27
      P1  H  8011  8017       L1    10  0.85

> <Gold.PLP.Chemscore.Internal.Correction>
0.0703

> <Gold.Rescore>
     Score         DG    S(hbond)    S(metal)    S(lipo)     H(rot)  DE(clash)    DE(int)     intcor
     18.74     -19.47       1.91        0.00     113.65       2.22       0.01       0.72       ----

> <Gold.Chemscore.Fitness>
18.7413

> <Gold.Chemscore.DG>
-19.4702

> <Gold.Chemscore.ZeroCoef>
-5.4800

> <Gold.Chemscore.Hbond>
1.9074

> <Gold.Chemscore.Metal>
0.0000

> <Gold.Chemscore.Lipo>
113.6508

> <Gold.Chemscore.Internal_Hbond>
0.0000

> <Gold.Chemscore.DEClash>
0.0078

> <Gold.Chemscore.DEInternal>
0.7210

> <Gold.Chemscore.Rot>
2.2178

> <Gold.Chemscore.Internal.Correction>
   9.000000E+99

> <Gold.Chemscore.Hbonds>
donor molecule, donor type, donor heavy atom, donor atom, acceptor molecule, acceptor atom, score
      L1  H     7    51       P1  8028  0.49
      L1  H    10    35       P1  7957  0.69
      P1  H  7989  7998       L1    10  0.27
      P1  H  8011  8017       L1    10  0.08

> <Gold.Chemscore.Hbond.Weighted>
-6.3706

> <Gold.Chemscore.Metal.Weighted>
-0.0000

> <Gold.Chemscore.Lipo.Weighted>
-13.2971

> <Gold.Chemscore.Internal_Hbond.Weighted>
0.0000

> <Gold.Chemscore.DEClash.Weighted>
0.0078

> <Gold.Chemscore.DEInternal.Weighted>
0.7210

> <Gold.Chemscore.Rot.Weighted>
5.6775

> <Gold.Chemscore.Internal.Correction.Weighted>
   9.000000E+99

> <Gold.Protein.RotatedTorsions>
[ 6907 6896 6895 6894 ] final  118.83 input  -60.11 | X-H torsion
[ 7974 7965 7964 7962 ] final  -39.26 input  175.53 | X-H torsion
[ 8008 7997 7996 7995 ] final -112.62 input   59.86 | X-H torsion
[ 10167 10162 10161 10158 ] final   66.85 input  -65.29 | X-H torsion
[ 10718 10713 10712 10709 ] final  150.31 input   66.30 | X-H torsion
[ 10763 10752 10751 10750 ] final -160.10 input  -60.55 | X-H torsion
[ 11005 11000 10999 10996 ] final   47.28 input  -57.11 | X-H torsion

> <Gold.Protein.ActiveResidues>
 VAL166  LYS551  ARG553  GLY616  TRP617  ASP618  TYR619  PRO620  LYS621  CYS622 
 ASP623  PHE694  ASN695  SER759  ASP760  ASP761  ALA762  ILE779  LEU786  VAL792 
 PHE793  MET794  SER795  GLU796  ALA797  LYS798  CYS799  TRP800  GLU811  SER814 

> <Gold.Protein.RotatedAtoms>
  152.4515  133.7638  159.6761 H   0  0  0  0  0  0  0  0  0  0  0  0  # atno 6907 bound_to 6896
  150.8428  133.7898  159.3060 H   0  0  0  0  0  0  0  0  0  0  0  0  # atno 6908 bound_to 6896
  151.5518  135.1070  160.0003 H   0  0  0  0  0  0  0  0  0  0  0  0  # atno 6909 bound_to 6896
  146.0412  140.6606  142.9086 H   0  0  0  0  0  0  0  0  0  0  0  0  # atno 7974 bound_to 7965
  155.0080  140.0394  157.2387 H   0  0  0  0  0  0  0  0  0  0  0  0  # atno 8008 bound_to 7997
  154.7485  140.2762  155.6289 H   0  0  0  0  0  0  0  0  0  0  0  0  # atno 8009 bound_to 7997
  156.2880  140.2651  156.2232 H   0  0  0  0  0  0  0  0  0  0  0  0  # atno 8010 bound_to 7997
  140.0959  144.4947  150.7069 H   0  0  0  0  0  0  0  0  0  0  0  0  # atno 10167 bound_to 10162
  157.2851  131.0842  151.1503 H   0  0  0  0  0  0  0  0  0  0  0  0  # atno 10718 bound_to 10713
  154.7419  135.3070  154.8713 H   0  0  0  0  0  0  0  0  0  0  0  0  # atno 10763 bound_to 10752
  153.9525  135.6762  153.4748 H   0  0  0  0  0  0  0  0  0  0  0  0  # atno 10764 bound_to 10752
  153.1017  135.4908  154.8804 H   0  0  0  0  0  0  0  0  0  0  0  0  # atno 10765 bound_to 10752
  140.1293  134.4727  155.8534 H   0  0  0  0  0  0  0  0  0  0  0  0  # atno 11005 bound_to 11000
  144.7075  140.3911  143.7106 LP  0  0  0  0  0  0  0  0  0  0  0  0  # atno 17320 bound_to 7965
  145.6881  139.1633  143.2662 LP  0  0  0  0  0  0  0  0  0  0  0  0  # atno 17321 bound_to 7965
  140.7004  143.2431  151.4881 LP  0  0  0  0  0  0  0  0  0  0  0  0  # atno 17342 bound_to 10162
  139.5698  144.1954  152.1820 LP  0  0  0  0  0  0  0  0  0  0  0  0  # atno 17343 bound_to 10162
  157.2922  130.6802  149.6120 LP  0  0  0  0  0  0  0  0  0  0  0  0  # atno 17370 bound_to 10713
  155.9665  130.4417  150.5352 LP  0  0  0  0  0  0  0  0  0  0  0  0  # atno 17371 bound_to 10713
  141.2167  133.6790  156.7038 LP  0  0  0  0  0  0  0  0  0  0  0  0  # atno 17394 bound_to 11000
  140.2863  134.8276  157.3978 LP  0  0  0  0  0  0  0  0  0  0  0  0  # atno 17395 bound_to 11000

$$$$
