AV-unprocessed.smi:3181|AV-procd|sdf|12141|dock2
  -GOLD-   2272017583D 1   1.00000     0.00000
 Structure written by MMmdl.
 42 43  0  0  0  0  0  0  0  0  2 V2000
  150.7206  139.9515  155.4067 C   0  0  0  0  0  0  0  0  0  0  0  0
  149.6989  141.0801  155.6251 C   0  0  2  0  0  0  0  0  0  0  0  0
  148.8148  141.3417  154.3834 C   0  0  0  0  0  0  0  0  0  0  0  0
  147.6847  140.4357  154.2910 N   0  0  0  0  0  0  0  0  0  0  0  0
  147.3568  139.5535  153.3456 C   0  0  0  0  0  0  0  0  0  0  0  0
  146.2374  138.8902  153.5983 N   0  0  0  0  0  0  0  0  0  0  0  0
  145.9070  139.4484  154.8009 C   0  0  0  0  0  0  0  0  0  0  0  0
  146.7431  140.3792  155.2617 N   0  0  0  0  0  0  0  0  0  0  0  0
  150.4148  142.3063  156.0482 N   0  3  0  0  0  0  0  0  0  0  0  0
  150.7043  142.4286  157.4952 C   0  0  1  0  0  0  0  0  0  0  0  0
  151.6817  141.3268  157.9300 C   0  0  0  0  0  0  0  0  0  0  0  0
  152.0103  141.4437  159.4248 C   0  0  0  0  0  0  0  0  0  0  0  0
  152.5894  142.8273  159.7850 C   0  0  2  0  0  0  0  0  0  0  0  0
  152.8985  142.8866  161.2916 C   0  0  0  0  0  0  0  0  0  0  0  0
  151.6377  143.9610  159.3175 C   0  0  1  0  0  0  0  0  0  0  0  0
  152.2047  145.3665  159.5861 C   0  0  0  0  0  0  0  0  0  0  0  0
  151.3031  143.8099  157.8188 C   0  0  0  0  0  0  0  0  0  0  0  0
  150.2315  138.9967  155.2121 H   0  0  0  0  0  0  0  0  0  0  0  0
  151.3473  139.8146  156.2886 H   0  0  0  0  0  0  0  0  0  0  0  0
  151.3766  140.1683  154.5631 H   0  0  0  0  0  0  0  0  0  0  0  0
  149.0564  140.7719  156.4514 H   0  0  0  0  0  0  0  0  0  0  0  0
  148.4162  142.3560  154.4027 H   0  0  0  0  0  0  0  0  0  0  0  0
  149.4075  141.2567  153.4707 H   0  0  0  0  0  0  0  0  0  0  0  0
  147.9464  139.3951  152.4545 H   0  0  0  0  0  0  0  0  0  0  0  0
  145.0238  139.1609  155.3524 H   0  0  0  0  0  0  0  0  0  0  0  0
  151.3058  142.3007  155.5726 H   0  0  0  0  0  0  0  0  0  0  0  0
  149.7807  142.2994  158.0623 H   0  0  0  0  0  0  0  0  0  0  0  0
  151.2535  140.3443  157.7264 H   0  0  0  0  0  0  0  0  0  0  0  0
  152.6026  141.3905  157.3482 H   0  0  0  0  0  0  0  0  0  0  0  0
  151.1080  141.2582  160.0094 H   0  0  0  0  0  0  0  0  0  0  0  0
  152.7186  140.6611  159.6996 H   0  0  0  0  0  0  0  0  0  0  0  0
  153.5351  142.9378  159.2519 H   0  0  0  0  0  0  0  0  0  0  0  0
  151.9851  142.8540  161.8864 H   0  0  0  0  0  0  0  0  0  0  0  0
  153.4417  143.7925  161.5590 H   0  0  0  0  0  0  0  0  0  0  0  0
  153.5210  142.0448  161.5962 H   0  0  0  0  0  0  0  0  0  0  0  0
  150.7039  143.8727  159.8751 H   0  0  0  0  0  0  0  0  0  0  0  0
  153.1788  145.4984  159.1140 H   0  0  0  0  0  0  0  0  0  0  0  0
  152.3191  145.5606  160.6522 H   0  0  0  0  0  0  0  0  0  0  0  0
  151.5409  146.1384  159.1955 H   0  0  0  0  0  0  0  0  0  0  0  0
  152.2071  143.9641  157.2271 H   0  0  0  0  0  0  0  0  0  0  0  0
  150.6099  144.5965  157.5211 H   0  0  0  0  0  0  0  0  0  0  0  0
  149.9011  143.1203  155.7415 H   0  0  0  0  0  0  0  0  0  0  0  0
  1  2  1  0  0  0  0
  1 18  1  0  0  0  0
  1 19  1  0  0  0  0
  1 20  1  0  0  0  0
  2  3  1  0  0  0  0
  2  9  1  0  0  0  0
  2 21  1  0  0  0  0
  3  4  1  0  0  0  0
  3 22  1  0  0  0  0
  3 23  1  0  0  0  0
  4  8  1  0  0  0  0
  4  5  1  0  0  0  0
  5  6  2  0  0  0  0
  5 24  1  0  0  0  0
  6  7  1  0  0  0  0
  7  8  2  0  0  0  0
  7 25  1  0  0  0  0
  9 10  1  0  0  0  0
  9 26  1  0  0  0  0
  9 42  1  0  0  0  0
 10 17  1  0  0  0  0
 10 11  1  0  0  0  0
 10 27  1  0  0  0  0
 11 12  1  0  0  0  0
 11 28  1  0  0  0  0
 11 29  1  0  0  0  0
 12 13  1  0  0  0  0
 12 30  1  0  0  0  0
 12 31  1  0  0  0  0
 13 14  1  0  0  0  0
 13 15  1  0  0  0  0
 13 32  1  0  0  0  0
 14 33  1  0  0  0  0
 14 34  1  0  0  0  0
 14 35  1  0  0  0  0
 15 16  1  0  0  0  0
 15 17  1  0  0  0  0
 15 36  1  0  0  0  0
 16 37  1  0  0  0  0
 16 38  1  0  0  0  0
 16 39  1  0  0  0  0
 17 40  1  0  0  0  0
 17 41  1  0  0  0  0
M  CHG  1   9   1
M  END
> <s_m_source_file>
AV-unprocessed.smi

> <i_m_source_file_index>
3181

> <i_lp_mmshare_version>
43012

> <i_f3d_flags>
0

> <s_epik_input>
bjFbY0hdbltjSF1uMVtDSDJdW0NAQEhdKFtDSDNdKVtOSF1bQ0BASF0yW0NIMl1bQ0gyXVtDQEBIXShbQ0gzXSlbQ0BASF0oW0NIM10pW0NIMl0y

> <s_epik_cmdline>
J2VwaWtfcHl0aG9uJywgJy1waCcsICc3LjAnLCAnLXRuJywgJzgnLCAnLW1hJywgJzIwMCcsICctbWV0YWxfYmluZGluZycsICctaW1hZScsICc8aW5maWxlLm1hZT4nLCAnLW9tYWUnLCAnPG91dGZpbGUubWFlPic=

> <r_lp_tautomer_probability>
1

> <r_epik_Ionization_Penalty>
0.000617007

> <r_epik_Ionization_Penalty_Charging>
0.000616215

> <r_epik_Ionization_Penalty_Neutral>
7.92544e-07

> <r_epik_State_Penalty>
0.000388807

> <r_epik_Charging_Adjusted_Penalty>
0.00100502

> <i_epik_Tot_Q>
1

> <i_epik_Tot_abs_Q>
1

> <r_epik_Metal_State_Penalty>
-0

> <b_epik_Metal_Only>
0

> <s_lp_Force_Field>
OPLS_2005

> <r_lp_Energy>
19.8131

> <b_lp_Chiralities_Consistent>
1

> <s_lp_Variant>
AV-unprocessed.smi:3181-7

> <Gold.Version>
5.8.1

> <Gold.Id.Protein>
6NUR|6NUR_protein|mol2

> <Gold.PLP.Fitness>
45.6290

> <Gold.PLP.PLP>
-37.7858

> <Gold.PLP.part.hbond>
-1.0000

> <Gold.PLP.part.metal>
0.0000

> <Gold.PLP.part.buried>
-2.7528

> <Gold.PLP.part.nonpolar>
-34.3526

> <Gold.PLP.part.repulsive>
0.3815

> <Gold.PLP.ligand.clash>
0.0000

> <Gold.PLP.ligand.torsion>
0.6163

> <Gold.PLP.Chemscore.Hbond>
2.0000

> <Gold.PLP.Chemscore.CHOScore>
1.0000

> <Gold.PLP.Chemscore.Metal>
0.0000

> <Gold.Chemscore.Hbonds>
donor molecule, donor type, donor heavy atom, donor atom, acceptor molecule, acceptor atom, score
      L1  H     9    42       P1  8028  2.00
      L1  C     5    24       P1  7957  1.00

> <Gold.PLP.Chemscore.Internal.Correction>
0.0757

> <Gold.Rescore>
     Score         DG    S(hbond)    S(metal)    S(lipo)     H(rot)  DE(clash)    DE(int)     intcor
     15.10     -15.93       1.00        0.00     106.95       2.11       0.13       0.70       ----

> <Gold.Chemscore.Fitness>
15.1022

> <Gold.Chemscore.DG>
-15.9295

> <Gold.Chemscore.ZeroCoef>
-5.4800

> <Gold.Chemscore.Hbond>
0.9992

> <Gold.Chemscore.Metal>
0.0000

> <Gold.Chemscore.Lipo>
106.9451

> <Gold.Chemscore.Internal_Hbond>
0.0000

> <Gold.Chemscore.DEClash>
0.1277

> <Gold.Chemscore.DEInternal>
0.6996

> <Gold.Chemscore.Rot>
2.1095

> <Gold.Chemscore.Internal.Correction>
   9.000000E+99

> <Gold.Chemscore.Hbonds>
donor molecule, donor type, donor heavy atom, donor atom, acceptor molecule, acceptor atom, score
      L1  H     9    42       P1  8028  1.00

> <Gold.Chemscore.Hbond.Weighted>
-3.3372

> <Gold.Chemscore.Metal.Weighted>
-0.0000

> <Gold.Chemscore.Lipo.Weighted>
-12.5126

> <Gold.Chemscore.Internal_Hbond.Weighted>
0.0000

> <Gold.Chemscore.DEClash.Weighted>
0.1277

> <Gold.Chemscore.DEInternal.Weighted>
0.6996

> <Gold.Chemscore.Rot.Weighted>
5.4003

> <Gold.Chemscore.Internal.Correction.Weighted>
   9.000000E+99

> <Gold.Protein.RotatedTorsions>
[ 6907 6896 6895 6894 ] final  104.47 input  -60.11 | X-H torsion
[ 7974 7965 7964 7962 ] final -178.21 input  175.53 | X-H torsion
[ 8008 7997 7996 7995 ] final -167.64 input   59.86 | X-H torsion
[ 10167 10162 10161 10158 ] final  -19.91 input  -65.29 | X-H torsion
[ 10718 10713 10712 10709 ] final   24.81 input   66.30 | X-H torsion
[ 10763 10752 10751 10750 ] final  173.31 input  -60.55 | X-H torsion
[ 11005 11000 10999 10996 ] final  139.38 input  -57.11 | X-H torsion

> <Gold.Protein.ActiveResidues>
 VAL166  LYS551  ARG553  GLY616  TRP617  ASP618  TYR619  PRO620  LYS621  CYS622 
 ASP623  PHE694  ASN695  SER759  ASP760  ASP761  ALA762  ILE779  LEU786  VAL792 
 PHE793  MET794  SER795  GLU796  ALA797  LYS798  CYS799  TRP800  GLU811  SER814 

> <Gold.Protein.RotatedAtoms>
  152.5263  133.9672  159.7744 H   0  0  0  0  0  0  0  0  0  0  0  0  # atno 6907 bound_to 6896
  150.9951  133.6103  159.2710 H   0  0  0  0  0  0  0  0  0  0  0  0  # atno 6908 bound_to 6896
  151.3232  135.0830  159.9366 H   0  0  0  0  0  0  0  0  0  0  0  0  # atno 6909 bound_to 6896
  144.7130  140.0902  143.6421 H   0  0  0  0  0  0  0  0  0  0  0  0  # atno 7974 bound_to 7965
  155.8805  140.1008  157.1488 H   0  0  0  0  0  0  0  0  0  0  0  0  # atno 8008 bound_to 7997
  154.4005  140.1330  156.4254 H   0  0  0  0  0  0  0  0  0  0  0  0  # atno 8009 bound_to 7997
  155.7648  140.3462  155.5218 H   0  0  0  0  0  0  0  0  0  0  0  0  # atno 8010 bound_to 7997
  140.7272  143.4773  151.0165 H   0  0  0  0  0  0  0  0  0  0  0  0  # atno 10167 bound_to 10162
  157.1848  130.6819  149.6127 H   0  0  0  0  0  0  0  0  0  0  0  0  # atno 10718 bound_to 10713
  154.4382  135.2761  155.1866 H   0  0  0  0  0  0  0  0  0  0  0  0  # atno 10763 bound_to 10752
  154.3743  135.6102  153.5760 H   0  0  0  0  0  0  0  0  0  0  0  0  # atno 10764 bound_to 10752
  152.9839  135.5865  154.4705 H   0  0  0  0  0  0  0  0  0  0  0  0  # atno 10765 bound_to 10752
  140.0251  134.9378  157.0552 H   0  0  0  0  0  0  0  0  0  0  0  0  # atno 11005 bound_to 11000
  145.9626  139.2812  143.1146 LP  0  0  0  0  0  0  0  0  0  0  0  0  # atno 17320 bound_to 7965
  145.9204  140.9119  143.0408 LP  0  0  0  0  0  0  0  0  0  0  0  0  # atno 17321 bound_to 7965
  139.8469  143.7489  152.3179 LP  0  0  0  0  0  0  0  0  0  0  0  0  # atno 17342 bound_to 10162
  139.7658  144.7492  151.0297 LP  0  0  0  0  0  0  0  0  0  0  0  0  # atno 17343 bound_to 10162
  155.9719  130.4634  150.6182 LP  0  0  0  0  0  0  0  0  0  0  0  0  # atno 17370 bound_to 10713
  157.3918  131.0797  151.1387 LP  0  0  0  0  0  0  0  0  0  0  0  0  # atno 17371 bound_to 10713
  140.4321  134.1770  155.7168 LP  0  0  0  0  0  0  0  0  0  0  0  0  # atno 17394 bound_to 11000
  141.1798  133.8439  157.1299 LP  0  0  0  0  0  0  0  0  0  0  0  0  # atno 17395 bound_to 11000

$$$$
