AV-unprocessed.smi:2742|AV-procd|sdf|10564|dock2
  -GOLD-   2272015 13D 1   1.00000     0.00000
 Structure written by MMmdl.
 37 38  0  0  0  0  0  0  0  0  1 V2000
  153.8563  140.4176  160.0795 C   0  0  0  0  0  0  0  0  0  0  0  0
  153.1187  141.6739  161.1590 S   0  0  0  0  0  0  0  0  0  0  0  0
  152.8459  143.0224  159.9720 C   0  0  2  0  0  0  0  0  0  0  0  0
  152.4381  144.3255  160.6859 C   0  0  0  0  0  0  0  0  0  0  0  0
  152.1699  145.4562  159.6800 C   0  0  0  0  0  0  0  0  0  0  0  0
  151.1112  145.0439  158.6456 C   0  0  0  0  0  0  0  0  0  0  0  0
  151.5143  143.7469  157.9214 C   0  0  2  0  0  0  0  0  0  0  0  0
  150.4635  143.3598  156.9845 N   0  0  0  0  0  0  0  0  0  0  0  0
  150.3336  142.1490  156.4231 C   0  0  0  0  0  0  0  0  0  0  0  0
  151.1040  141.2150  156.6436 O   0  0  0  0  0  0  0  0  0  0  0  0
  149.2738  142.1105  155.5968 N   0  0  0  0  0  0  0  0  0  0  0  0
  148.7941  141.0358  154.7976 C   0  0  0  0  0  0  0  0  0  0  0  0
  149.4258  139.7726  154.6886 C   0  0  0  0  0  0  0  0  0  0  0  0
  148.8348  138.7904  153.8686 C   0  0  0  0  0  0  0  0  0  0  0  0
  147.6894  138.9843  153.1816 N   0  0  0  0  0  0  0  0  0  0  0  0
  147.0836  140.1848  153.2968 C   0  0  0  0  0  0  0  0  0  0  0  0
  147.5899  141.2345  154.0893 C   0  0  0  0  0  0  0  0  0  0  0  0
  146.9277  142.4145  154.1634 F   0  0  0  0  0  0  0  0  0  0  0  0
  151.7821  142.6161  158.9359 C   0  0  0  0  0  0  0  0  0  0  0  0
  154.0547  139.5085  160.6470 H   0  0  0  0  0  0  0  0  0  0  0  0
  154.7978  140.7702  159.6595 H   0  0  0  0  0  0  0  0  0  0  0  0
  153.1789  140.1717  159.2615 H   0  0  0  0  0  0  0  0  0  0  0  0
  153.7862  143.1862  159.4441 H   0  0  0  0  0  0  0  0  0  0  0  0
  151.5431  144.1524  161.2850 H   0  0  0  0  0  0  0  0  0  0  0  0
  153.2173  144.6394  161.3800 H   0  0  0  0  0  0  0  0  0  0  0  0
  151.8443  146.3530  160.2076 H   0  0  0  0  0  0  0  0  0  0  0  0
  153.0973  145.7178  159.1690 H   0  0  0  0  0  0  0  0  0  0  0  0
  150.1512  144.9075  159.1459 H   0  0  0  0  0  0  0  0  0  0  0  0
  150.9718  145.8488  157.9227 H   0  0  0  0  0  0  0  0  0  0  0  0
  152.4325  143.9441  157.3646 H   0  0  0  0  0  0  0  0  0  0  0  0
  149.7870  144.0698  156.7444 H   0  0  0  0  0  0  0  0  0  0  0  0
  148.7740  142.9802  155.4831 H   0  0  0  0  0  0  0  0  0  0  0  0
  150.3346  139.5307  155.2165 H   0  0  0  0  0  0  0  0  0  0  0  0
  149.2939  137.8182  153.7665 H   0  0  0  0  0  0  0  0  0  0  0  0
  146.1661  140.3123  152.7419 H   0  0  0  0  0  0  0  0  0  0  0  0
  152.1081  141.7167  158.4123 H   0  0  0  0  0  0  0  0  0  0  0  0
  150.8549  142.3552  159.4486 H   0  0  0  0  0  0  0  0  0  0  0  0
  1  2  1  0  0  0  0
  1 20  1  0  0  0  0
  1 21  1  0  0  0  0
  1 22  1  0  0  0  0
  2  3  1  0  0  0  0
  3 19  1  0  0  0  0
  3  4  1  0  0  0  0
  3 23  1  0  0  0  0
  4  5  1  0  0  0  0
  4 24  1  0  0  0  0
  4 25  1  0  0  0  0
  5  6  1  0  0  0  0
  5 26  1  0  0  0  0
  5 27  1  0  0  0  0
  6  7  1  0  0  0  0
  6 28  1  0  0  0  0
  6 29  1  0  0  0  0
  7  8  1  0  0  0  0
  7 19  1  0  0  0  0
  7 30  1  0  0  0  0
  8  9  1  0  0  0  0
  8 31  1  0  0  0  0
  9 10  2  0  0  0  0
  9 11  1  0  0  0  0
 11 12  1  0  0  0  0
 11 32  1  0  0  0  0
 12 17  1  0  0  0  0
 12 13  2  0  0  0  0
 13 14  1  0  0  0  0
 13 33  1  0  0  0  0
 14 15  2  0  0  0  0
 14 34  1  0  0  0  0
 15 16  1  0  0  0  0
 16 17  2  0  0  0  0
 16 35  1  0  0  0  0
 17 18  1  0  0  0  0
 19 36  1  0  0  0  0
 19 37  1  0  0  0  0
M  END
> <s_m_source_file>
AV-unprocessed.smi

> <i_m_source_file_index>
2742

> <i_lp_mmshare_version>
43012

> <i_f3d_flags>
0

> <s_epik_input>
W0NIM11TW0NAQEhdMVtDSDJdW0NIMl1bQ0gyXVtDQEhdKFtDSDJdMSlbTkhdQyg9TylbTkhdYzJbY0hdW2NIXW5bY0hdYzJG

> <s_epik_cmdline>
J2VwaWtfcHl0aG9uJywgJy1waCcsICc3LjAnLCAnLXRuJywgJzgnLCAnLW1hJywgJzIwMCcsICctbWV0YWxfYmluZGluZycsICctaW1hZScsICc8aW5maWxlLm1hZT4nLCAnLW9tYWUnLCAnPG91dGZpbGUubWFlPic=

> <r_epik_Ionization_Penalty>
0.00344009

> <r_epik_Ionization_Penalty_Charging>
0

> <r_epik_Ionization_Penalty_Neutral>
0.00344009

> <r_epik_State_Penalty>
0.0024078

> <r_epik_Charging_Adjusted_Penalty>
0.0024078

> <i_epik_Tot_Q>
0

> <i_epik_Tot_abs_Q>
0

> <r_epik_Metal_State_Penalty>
-0

> <b_epik_Metal_Only>
0

> <s_lp_Force_Field>
OPLS_2005

> <r_lp_Energy>
14.4944

> <b_lp_Chiralities_Consistent>
1

> <s_lp_Variant>
AV-unprocessed.smi:2742-3

> <Gold.Version>
5.8.1

> <Gold.Id.Protein>
6NUR|6NUR_protein|mol2

> <Gold.PLP.Fitness>
54.8173

> <Gold.PLP.PLP>
-43.8133

> <Gold.PLP.part.hbond>
-1.7809

> <Gold.PLP.part.metal>
0.0000

> <Gold.PLP.part.buried>
-4.4178

> <Gold.PLP.part.nonpolar>
-38.0461

> <Gold.PLP.part.repulsive>
1.6622

> <Gold.PLP.ligand.clash>
0.0000

> <Gold.PLP.ligand.torsion>
0.2722

> <Gold.PLP.Chemscore.Hbond>
1.9280

> <Gold.PLP.Chemscore.CHOScore>
1.9188

> <Gold.PLP.Chemscore.Metal>
0.0000

> <Gold.Chemscore.Hbonds>
donor molecule, donor type, donor heavy atom, donor atom, acceptor molecule, acceptor atom, score
      L1  H     8    31       P1  8028  0.99
      L1  H    11    32       P1  8028  0.91
      L1  C    14    34       P1  7948  0.92
      L1  C    16    35       P1 10175  1.00

> <Gold.PLP.Chemscore.Internal.Correction>
0.0081

> <Gold.Rescore>
     Score         DG    S(hbond)    S(metal)    S(lipo)     H(rot)  DE(clash)    DE(int)     intcor
     20.01     -22.97       1.92        0.00     120.68       1.19       0.05       2.90       ----

> <Gold.Chemscore.Fitness>
20.0143

> <Gold.Chemscore.DG>
-22.9709

> <Gold.Chemscore.ZeroCoef>
-5.4800

> <Gold.Chemscore.Hbond>
1.9196

> <Gold.Chemscore.Metal>
0.0000

> <Gold.Chemscore.Lipo>
120.6782

> <Gold.Chemscore.Internal_Hbond>
0.0000

> <Gold.Chemscore.DEClash>
0.0531

> <Gold.Chemscore.DEInternal>
2.9034

> <Gold.Chemscore.Rot>
1.1875

> <Gold.Chemscore.Internal.Correction>
   9.000000E+99

> <Gold.Chemscore.Hbonds>
donor molecule, donor type, donor heavy atom, donor atom, acceptor molecule, acceptor atom, score
      L1  H     8    31       P1  8028  0.85
      L1  H    11    32       P1  8028  0.88

> <Gold.Chemscore.Hbond.Weighted>
-6.4115

> <Gold.Chemscore.Metal.Weighted>
-0.0000

> <Gold.Chemscore.Lipo.Weighted>
-14.1193

> <Gold.Chemscore.Internal_Hbond.Weighted>
0.0000

> <Gold.Chemscore.DEClash.Weighted>
0.0531

> <Gold.Chemscore.DEInternal.Weighted>
2.9034

> <Gold.Chemscore.Rot.Weighted>
3.0400

> <Gold.Chemscore.Internal.Correction.Weighted>
   9.000000E+99

> <Gold.Protein.RotatedTorsions>
[ 6907 6896 6895 6894 ] final  130.64 input  -60.11 | X-H torsion
[ 7974 7965 7964 7962 ] final   -2.92 input  175.53 | X-H torsion
[ 8008 7997 7996 7995 ] final   11.35 input   59.86 | X-H torsion
[ 10167 10162 10161 10158 ] final  144.43 input  -65.29 | X-H torsion
[ 10718 10713 10712 10709 ] final   18.36 input   66.30 | X-H torsion
[ 10763 10752 10751 10750 ] final  119.61 input  -60.55 | X-H torsion
[ 11005 11000 10999 10996 ] final  -78.68 input  -57.11 | X-H torsion

> <Gold.Protein.ActiveResidues>
 VAL166  LYS551  ARG553  GLY616  TRP617  ASP618  TYR619  PRO620  LYS621  CYS622 
 ASP623  PHE694  ASN695  SER759  ASP760  ASP761  ALA762  ILE779  LEU786  VAL792 
 PHE793  MET794  SER795  GLU796  ALA797  LYS798  CYS799  TRP800  GLU811  SER814 

> <Gold.Protein.RotatedAtoms>
  152.3506  133.6175  159.5941 H   0  0  0  0  0  0  0  0  0  0  0  0  # atno 6907 bound_to 6896
  150.7535  133.9580  159.3515 H   0  0  0  0  0  0  0  0  0  0  0  0  # atno 6908 bound_to 6896
  151.7432  135.0850  160.0370 H   0  0  0  0  0  0  0  0  0  0  0  0  # atno 6909 bound_to 6896
  146.2397  140.1644  142.8332 H   0  0  0  0  0  0  0  0  0  0  0  0  # atno 7974 bound_to 7965
  154.8057  140.2859  155.5889 H   0  0  0  0  0  0  0  0  0  0  0  0  # atno 8008 bound_to 7997
  156.2982  140.2578  156.2864 H   0  0  0  0  0  0  0  0  0  0  0  0  # atno 8009 bound_to 7997
  154.9506  140.0379  157.2131 H   0  0  0  0  0  0  0  0  0  0  0  0  # atno 8010 bound_to 7997
  139.4947  144.5972  151.6558 H   0  0  0  0  0  0  0  0  0  0  0  0  # atno 10167 bound_to 10162
  157.0952  130.6445  149.5858 H   0  0  0  0  0  0  0  0  0  0  0  0  # atno 10718 bound_to 10713
  153.5857  135.3475  155.2892 H   0  0  0  0  0  0  0  0  0  0  0  0  # atno 10763 bound_to 10752
  154.8661  135.4192  154.2572 H   0  0  0  0  0  0  0  0  0  0  0  0  # atno 10764 bound_to 10752
  153.3368  135.7047  153.6972 H   0  0  0  0  0  0  0  0  0  0  0  0  # atno 10765 bound_to 10752
  141.1665  133.7073  156.8008 H   0  0  0  0  0  0  0  0  0  0  0  0  # atno 11005 bound_to 11000
  145.0063  140.8676  143.5251 LP  0  0  0  0  0  0  0  0  0  0  0  0  # atno 17320 bound_to 7965
  145.1670  139.2425  143.5361 LP  0  0  0  0  0  0  0  0  0  0  0  0  # atno 17321 bound_to 7965
  140.5613  144.0264  150.6171 LP  0  0  0  0  0  0  0  0  0  0  0  0  # atno 17342 bound_to 10162
  140.3351  143.3054  152.0647 LP  0  0  0  0  0  0  0  0  0  0  0  0  # atno 17343 bound_to 10162
  155.9887  130.4932  150.7184 LP  0  0  0  0  0  0  0  0  0  0  0  0  # atno 17370 bound_to 10713
  157.4687  131.0891  151.0666 LP  0  0  0  0  0  0  0  0  0  0  0  0  # atno 17371 bound_to 10713
  140.2258  134.8723  157.3425 LP  0  0  0  0  0  0  0  0  0  0  0  0  # atno 17394 bound_to 11000
  140.1941  134.4335  155.7699 LP  0  0  0  0  0  0  0  0  0  0  0  0  # atno 17395 bound_to 11000

$$$$
