AV-unprocessed.smi:2895|AV-procd|sdf|11135|dock8
  -GOLD-   2272016 13D 1   1.00000     0.00000
 Structure written by MMmdl.
 54 57  0  0  0  0  0  0  0  0  3 V2000
  148.7318  141.9290  153.9952 O   0  0  0  0  0  0  0  0  0  0  0  0
  148.1565  141.0992  154.7002 C   0  0  0  0  0  0  0  0  0  0  0  0
  148.3263  141.0606  156.0330 N   0  0  0  0  0  0  0  0  0  0  0  0
  149.1780  141.9619  156.8014 C   0  0  0  0  0  0  0  0  0  0  0  0
  150.2654  141.1998  157.5780 C   0  0  0  0  0  0  0  0  0  0  0  0
  151.2604  142.1343  158.2394 C   0  0  0  0  0  0  0  0  0  0  0  0
  152.1569  141.6477  159.2164 C   0  0  0  0  0  0  0  0  0  0  0  0
  153.0725  142.5376  159.8146 C   0  0  0  0  0  0  0  0  0  0  0  0
  153.0812  143.8389  159.4508 N   0  3  0  0  0  0  0  0  0  0  0  0
  152.2410  144.3447  158.5214 C   0  0  0  0  0  0  0  0  0  0  0  0
  151.3056  143.5016  157.8874 C   0  0  0  0  0  0  0  0  0  0  0  0
  147.2879  140.1790  154.2073 N   0  0  0  0  0  0  0  0  0  0  0  0
  146.7986  138.9783  154.9042 C   0  0  0  0  0  0  0  0  0  0  0  0
  147.3639  137.7248  154.2074 C   0  0  0  0  0  0  0  0  0  0  0  0
  147.0170  137.6854  152.7575 N   0  3  0  0  0  0  0  0  0  0  0  0
  145.6153  137.2549  152.4670 C   0  0  1  0  0  0  0  0  0  0  0  0
  145.3760  136.8343  150.9956 C   0  0  0  0  0  0  0  0  0  0  0  0
  144.6753  135.4691  151.1277 C   0  0  1  0  0  0  0  0  0  0  0  0
  145.7214  134.4110  151.5179 C   0  0  0  0  0  0  0  0  0  0  0  0
  146.0449  134.7838  152.9755 C   0  0  0  0  0  0  0  0  0  0  0  0
  145.1283  135.9994  153.2349 C   0  0  2  0  0  0  0  0  0  0  0  0
  143.8915  135.6242  152.4250 C   0  0  0  0  0  0  0  0  0  0  0  0
  147.4011  138.9549  152.0758 C   0  0  0  0  0  0  0  0  0  0  0  0
  146.8513  140.1976  152.8061 C   0  0  0  0  0  0  0  0  0  0  0  0
  147.8128  140.3652  156.5548 H   0  0  0  0  0  0  0  0  0  0  0  0
  149.6268  142.7031  156.1375 H   0  0  0  0  0  0  0  0  0  0  0  0
  148.5429  142.5117  157.4965 H   0  0  0  0  0  0  0  0  0  0  0  0
  149.8064  140.5657  158.3376 H   0  0  0  0  0  0  0  0  0  0  0  0
  150.8116  140.5318  156.9106 H   0  0  0  0  0  0  0  0  0  0  0  0
  152.1453  140.6059  159.5031 H   0  0  0  0  0  0  0  0  0  0  0  0
  153.7919  142.2502  160.5674 H   0  0  0  0  0  0  0  0  0  0  0  0
  152.3414  145.4004  158.3146 H   0  0  0  0  0  0  0  0  0  0  0  0
  150.6330  143.9023  157.1425 H   0  0  0  0  0  0  0  0  0  0  0  0
  147.0558  138.9425  155.9625 H   0  0  0  0  0  0  0  0  0  0  0  0
  145.7084  138.9704  154.8744 H   0  0  0  0  0  0  0  0  0  0  0  0
  148.4517  137.7377  154.2876 H   0  0  0  0  0  0  0  0  0  0  0  0
  147.0492  136.8206  154.7255 H   0  0  0  0  0  0  0  0  0  0  0  0
  144.9413  138.0779  152.7092 H   0  0  0  0  0  0  0  0  0  0  0  0
  144.7338  137.5582  150.4924 H   0  0  0  0  0  0  0  0  0  0  0  0
  146.2937  136.7449  150.4132 H   0  0  0  0  0  0  0  0  0  0  0  0
  144.0803  135.1944  150.2561 H   0  0  0  0  0  0  0  0  0  0  0  0
  145.2971  133.4072  151.4633 H   0  0  0  0  0  0  0  0  0  0  0  0
  146.6016  134.4362  150.8743 H   0  0  0  0  0  0  0  0  0  0  0  0
  145.7883  133.9598  153.6426 H   0  0  0  0  0  0  0  0  0  0  0  0
  147.1015  135.0076  153.1228 H   0  0  0  0  0  0  0  0  0  0  0  0
  144.9209  136.1779  154.2903 H   0  0  0  0  0  0  0  0  0  0  0  0
  143.1394  136.4142  152.3853 H   0  0  0  0  0  0  0  0  0  0  0  0
  143.4191  134.6983  152.7586 H   0  0  0  0  0  0  0  0  0  0  0  0
  148.4905  139.0081  152.0569 H   0  0  0  0  0  0  0  0  0  0  0  0
  147.0871  138.9623  151.0329 H   0  0  0  0  0  0  0  0  0  0  0  0
  145.7615  140.2128  152.7727 H   0  0  0  0  0  0  0  0  0  0  0  0
  147.1674  141.0966  152.2755 H   0  0  0  0  0  0  0  0  0  0  0  0
  147.5956  136.9618  152.3546 H   0  0  0  0  0  0  0  0  0  0  0  0
  153.7504  144.4666  159.8976 H   0  0  0  0  0  0  0  0  0  0  0  0
  1  2  2  0  0  0  0
  2  3  1  0  0  0  0
  2 12  1  0  0  0  0
  3  4  1  0  0  0  0
  3 25  1  0  0  0  0
  4  5  1  0  0  0  0
  4 26  1  0  0  0  0
  4 27  1  0  0  0  0
  5  6  1  0  0  0  0
  5 28  1  0  0  0  0
  5 29  1  0  0  0  0
  6 11  1  0  0  0  0
  6  7  2  0  0  0  0
  7  8  1  0  0  0  0
  7 30  1  0  0  0  0
  8  9  2  0  0  0  0
  8 31  1  0  0  0  0
  9 10  1  0  0  0  0
  9 54  1  0  0  0  0
 10 11  2  0  0  0  0
 10 32  1  0  0  0  0
 11 33  1  0  0  0  0
 12 24  1  0  0  0  0
 12 13  1  0  0  0  0
 13 14  1  0  0  0  0
 13 34  1  0  0  0  0
 13 35  1  0  0  0  0
 14 15  1  0  0  0  0
 14 36  1  0  0  0  0
 14 37  1  0  0  0  0
 15 16  1  0  0  0  0
 15 23  1  0  0  0  0
 15 53  1  0  0  0  0
 16 21  1  0  0  0  0
 16 17  1  0  0  0  0
 16 38  1  0  0  0  0
 17 18  1  0  0  0  0
 17 39  1  0  0  0  0
 17 40  1  0  0  0  0
 18 22  1  0  0  0  0
 18 19  1  0  0  0  0
 18 41  1  0  0  0  0
 19 20  1  0  0  0  0
 19 42  1  0  0  0  0
 19 43  1  0  0  0  0
 20 21  1  0  0  0  0
 20 44  1  0  0  0  0
 20 45  1  0  0  0  0
 21 22  1  0  0  0  0
 21 46  1  0  0  0  0
 22 47  1  0  0  0  0
 22 48  1  0  0  0  0
 23 24  1  0  0  0  0
 23 49  1  0  0  0  0
 23 50  1  0  0  0  0
 24 51  1  0  0  0  0
 24 52  1  0  0  0  0
M  CHG  1   9   1
M  CHG  1  15   1
M  END
> <s_m_source_file>
AV-unprocessed.smi

> <i_m_source_file_index>
2895

> <i_lp_mmshare_version>
43012

> <i_f3d_flags>
0

> <s_epik_input>
W0NIMl0xW0NIMl1bQ0BASF0oW0NIMl0yKVtDQEBIXShbQ0gyXVtDQEhdMTIpTihbQ0gyXVtDSDJdMylbQ0gyXVtDSDJdTjNDKD1PKVtOSF1bQ0gyXVtDSDJdYzRbY0hdW2NIXW5bY0hdW2NIXTQ=

> <s_epik_cmdline>
J2VwaWtfcHl0aG9uJywgJy1waCcsICc3LjAnLCAnLXRuJywgJzgnLCAnLW1hJywgJzIwMCcsICctbWV0YWxfYmluZGluZycsICctaW1hZScsICc8aW5maWxlLm1hZT4nLCAnLW9tYWUnLCAnPG91dGZpbGUubWFlPic=

> <r_epik_Ionization_Penalty>
1.44916

> <r_epik_Ionization_Penalty_Charging>
1.44913

> <r_epik_Ionization_Penalty_Neutral>
2.64641e-05

> <r_epik_State_Penalty>
1.53218

> <r_epik_Charging_Adjusted_Penalty>
2.98131

> <i_epik_Tot_Q>
2

> <i_epik_Tot_abs_Q>
2

> <r_epik_Metal_State_Penalty>
1.58241

> <b_epik_Metal_Only>
0

> <s_lp_Force_Field>
OPLS_2005

> <r_lp_Energy>
107.439

> <b_lp_Chiralities_Consistent>
1

> <s_lp_Variant>
AV-unprocessed.smi:2895-8

> <Gold.Version>
5.8.1

> <Gold.Id.Protein>
6NUR|6NUR_protein|mol2

> <Gold.PLP.Fitness>
42.4184

> <Gold.PLP.PLP>
-35.7496

> <Gold.PLP.part.hbond>
-2.0000

> <Gold.PLP.part.metal>
0.0000

> <Gold.PLP.part.buried>
6.2184

> <Gold.PLP.part.nonpolar>
-40.9318

> <Gold.PLP.part.repulsive>
0.2607

> <Gold.PLP.ligand.clash>
0.0000

> <Gold.PLP.ligand.torsion>
0.3612

> <Gold.PLP.Chemscore.Hbond>
2.4320

> <Gold.PLP.Chemscore.CHOScore>
0.0000

> <Gold.PLP.Chemscore.Metal>
0.0000

> <Gold.Chemscore.Hbonds>
donor molecule, donor type, donor heavy atom, donor atom, acceptor molecule, acceptor atom, score
      L1  H    15    53       P1  7948  2.00
      P1  H  8011  8017       L1     1  0.45

> <Gold.PLP.Chemscore.Internal.Correction>
0.0952

> <Gold.Rescore>
     Score         DG    S(hbond)    S(metal)    S(lipo)     H(rot)  DE(clash)    DE(int)     intcor
     16.86     -20.45       1.44        0.00     118.87       1.46       3.29       0.31       ----

> <Gold.Chemscore.Fitness>
16.8553

> <Gold.Chemscore.DG>
-20.4529

> <Gold.Chemscore.ZeroCoef>
-5.4800

> <Gold.Chemscore.Hbond>
1.4358

> <Gold.Chemscore.Metal>
0.0000

> <Gold.Chemscore.Lipo>
118.8721

> <Gold.Chemscore.Internal_Hbond>
0.0000

> <Gold.Chemscore.DEClash>
3.2872

> <Gold.Chemscore.DEInternal>
0.3104

> <Gold.Chemscore.Rot>
1.4572

> <Gold.Chemscore.Internal.Correction>
   9.000000E+99

> <Gold.Chemscore.Hbonds>
donor molecule, donor type, donor heavy atom, donor atom, acceptor molecule, acceptor atom, score
      L1  H    15    53       P1  7948  0.98
      P1  H  8011  8017       L1     1  0.43

> <Gold.Chemscore.Hbond.Weighted>
-4.7954

> <Gold.Chemscore.Metal.Weighted>
-0.0000

> <Gold.Chemscore.Lipo.Weighted>
-13.9080

> <Gold.Chemscore.Internal_Hbond.Weighted>
0.0000

> <Gold.Chemscore.DEClash.Weighted>
3.2872

> <Gold.Chemscore.DEInternal.Weighted>
0.3104

> <Gold.Chemscore.Rot.Weighted>
3.7305

> <Gold.Chemscore.Internal.Correction.Weighted>
   9.000000E+99

> <Gold.Protein.RotatedTorsions>
[ 6907 6896 6895 6894 ] final  -98.44 input  -60.11 | X-H torsion
[ 7974 7965 7964 7962 ] final  120.88 input  175.53 | X-H torsion
[ 8008 7997 7996 7995 ] final  -63.26 input   59.86 | X-H torsion
[ 10167 10162 10161 10158 ] final  138.86 input  -65.29 | X-H torsion
[ 10718 10713 10712 10709 ] final  133.10 input   66.30 | X-H torsion
[ 10763 10752 10751 10750 ] final  171.44 input  -60.55 | X-H torsion
[ 11005 11000 10999 10996 ] final  -64.35 input  -57.11 | X-H torsion

> <Gold.Protein.ActiveResidues>
 VAL166  LYS551  ARG553  GLY616  TRP617  ASP618  TYR619  PRO620  LYS621  CYS622 
 ASP623  PHE694  ASN695  SER759  ASP760  ASP761  ALA762  ILE779  LEU786  VAL792 
 PHE793  MET794  SER795  GLU796  ALA797  LYS798  CYS799  TRP800  GLU811  SER814 

> <Gold.Protein.RotatedAtoms>
  150.7047  134.1194  159.4029 H   0  0  0  0  0  0  0  0  0  0  0  0  # atno 6907 bound_to 6896
  151.9181  135.0308  160.0529 H   0  0  0  0  0  0  0  0  0  0  0  0  # atno 6908 bound_to 6896
  152.2280  133.5000  159.5236 H   0  0  0  0  0  0  0  0  0  0  0  0  # atno 6909 bound_to 6896
  145.1259  139.3358  143.4690 H   0  0  0  0  0  0  0  0  0  0  0  0  # atno 7974 bound_to 7965
  154.4544  140.0978  156.6715 H   0  0  0  0  0  0  0  0  0  0  0  0  # atno 8008 bound_to 7997
  155.5183  140.3478  155.4383 H   0  0  0  0  0  0  0  0  0  0  0  0  # atno 8009 bound_to 7997
  156.0748  140.1358  156.9773 H   0  0  0  0  0  0  0  0  0  0  0  0  # atno 8010 bound_to 7997
  139.5097  144.6329  151.5772 H   0  0  0  0  0  0  0  0  0  0  0  0  # atno 10167 bound_to 10162
  157.4806  131.1085  150.9687 H   0  0  0  0  0  0  0  0  0  0  0  0  # atno 10718 bound_to 10713
  154.4120  135.2756  155.2031 H   0  0  0  0  0  0  0  0  0  0  0  0  # atno 10763 bound_to 10752
  154.4013  135.6044  153.5902 H   0  0  0  0  0  0  0  0  0  0  0  0  # atno 10764 bound_to 10752
  152.9831  135.5927  154.4403 H   0  0  0  0  0  0  0  0  0  0  0  0  # atno 10765 bound_to 10752
  141.1422  133.6664  156.5819 H   0  0  0  0  0  0  0  0  0  0  0  0  # atno 11005 bound_to 11000
  146.3517  140.1238  142.8599 LP  0  0  0  0  0  0  0  0  0  0  0  0  # atno 17320 bound_to 7965
  145.0689  140.9141  143.4894 LP  0  0  0  0  0  0  0  0  0  0  0  0  # atno 17321 bound_to 7965
  140.6067  143.9511  150.6424 LP  0  0  0  0  0  0  0  0  0  0  0  0  # atno 17342 bound_to 10162
  140.2740  143.3436  152.1212 LP  0  0  0  0  0  0  0  0  0  0  0  0  # atno 17343 bound_to 10162
  157.0421  130.5753  149.5357 LP  0  0  0  0  0  0  0  0  0  0  0  0  # atno 17370 bound_to 10713
  156.0119  130.5211  150.8016 LP  0  0  0  0  0  0  0  0  0  0  0  0  # atno 17371 bound_to 10713
  140.3831  134.7506  157.4674 LP  0  0  0  0  0  0  0  0  0  0  0  0  # atno 17394 bound_to 11000
  140.0623  134.5979  155.8735 LP  0  0  0  0  0  0  0  0  0  0  0  0  # atno 17395 bound_to 11000

$$$$
