AV-unprocessed.smi:897|AV-procd|sdf|4082|dock3
  -GOLD-   22720 1573D 1   1.00000     0.00000
 Structure written by MMmdl.
 35 37  0  0  0  0  0  0  0  0  1 V2000
  152.3097  144.9726  158.5861 C   0  0  0  0  0  0  0  0  0  0  0  0
  152.4411  143.4868  158.8468 C   0  0  0  0  0  0  0  0  0  0  0  0
  153.4201  142.9889  159.7264 C   0  0  0  0  0  0  0  0  0  0  0  0
  153.4978  141.5970  159.9339 C   0  0  0  0  0  0  0  0  0  0  0  0
  154.5484  141.0479  160.8873 C   0  0  0  0  0  0  0  0  0  0  0  0
  152.5889  140.7525  159.2443 C   0  0  0  0  0  0  0  0  0  0  0  0
  152.6395  139.3029  159.4274 C   0  0  0  0  0  0  0  0  0  0  0  0
  152.6799  138.1556  159.5718 N   0  0  0  0  0  0  0  0  0  0  0  0
  151.6366  141.3526  158.3745 C   0  0  0  0  0  0  0  0  0  0  0  0
  150.7116  140.5584  157.6710 N   0  0  0  0  0  0  0  0  0  0  0  0
  151.1410  139.4652  156.8051 C   0  0  1  0  0  0  0  0  0  0  0  0
  149.9780  138.7899  156.0666 C   0  0  0  0  0  0  0  0  0  0  0  0
  150.4074  138.9312  154.6013 C   0  0  2  0  0  0  0  0  0  0  0  0
  151.6232  138.0574  154.2637 C   0  0  0  0  0  0  0  0  0  0  0  0
  152.7533  138.8100  154.9656 C   0  0  0  0  0  0  0  0  0  0  0  0
  151.9968  139.9681  155.6301 C   0  0  1  0  0  0  0  0  0  0  0  0
  151.0084  140.2131  154.6422 O   0  0  0  0  0  0  0  0  0  0  0  0
  151.5722  142.6931  158.1894 N   0  0  0  0  0  0  0  0  0  0  0  0
  152.9801  145.5475  159.2256 H   0  0  0  0  0  0  0  0  0  0  0  0
  151.2894  145.3043  158.7807 H   0  0  0  0  0  0  0  0  0  0  0  0
  152.5526  145.1972  157.5471 H   0  0  0  0  0  0  0  0  0  0  0  0
  154.0972  143.6620  160.2321 H   0  0  0  0  0  0  0  0  0  0  0  0
  155.2350  140.3854  160.3597 H   0  0  0  0  0  0  0  0  0  0  0  0
  154.0769  140.4873  161.6947 H   0  0  0  0  0  0  0  0  0  0  0  0
  155.1346  141.8497  161.3367 H   0  0  0  0  0  0  0  0  0  0  0  0
  149.7336  140.6104  157.9179 H   0  0  0  0  0  0  0  0  0  0  0  0
  151.7129  138.7465  157.3939 H   0  0  0  0  0  0  0  0  0  0  0  0
  149.8412  137.7496  156.3631 H   0  0  0  0  0  0  0  0  0  0  0  0
  149.0358  139.3146  156.2330 H   0  0  0  0  0  0  0  0  0  0  0  0
  149.5855  138.8427  153.8903 H   0  0  0  0  0  0  0  0  0  0  0  0
  151.5085  137.0336  154.6210 H   0  0  0  0  0  0  0  0  0  0  0  0
  151.7953  138.0279  153.1871 H   0  0  0  0  0  0  0  0  0  0  0  0
  153.2908  138.1936  155.6870 H   0  0  0  0  0  0  0  0  0  0  0  0
  153.4721  139.1865  154.2368 H   0  0  0  0  0  0  0  0  0  0  0  0
  152.6301  140.8250  155.8635 H   0  0  0  0  0  0  0  0  0  0  0  0
  1  2  1  0  0  0  0
  1 19  1  0  0  0  0
  1 20  1  0  0  0  0
  1 21  1  0  0  0  0
  2 18  1  0  0  0  0
  2  3  2  0  0  0  0
  3  4  1  0  0  0  0
  3 22  1  0  0  0  0
  4  5  1  0  0  0  0
  4  6  2  0  0  0  0
  5 23  1  0  0  0  0
  5 24  1  0  0  0  0
  5 25  1  0  0  0  0
  6  7  1  0  0  0  0
  6  9  1  0  0  0  0
  7  8  3  0  0  0  0
  9 10  1  0  0  0  0
  9 18  2  0  0  0  0
 10 11  1  0  0  0  0
 10 26  1  0  0  0  0
 11 16  1  0  0  0  0
 11 12  1  0  0  0  0
 11 27  1  0  0  0  0
 12 13  1  0  0  0  0
 12 28  1  0  0  0  0
 12 29  1  0  0  0  0
 13 17  1  0  0  0  0
 13 14  1  0  0  0  0
 13 30  1  0  0  0  0
 14 15  1  0  0  0  0
 14 31  1  0  0  0  0
 14 32  1  0  0  0  0
 15 16  1  0  0  0  0
 15 33  1  0  0  0  0
 15 34  1  0  0  0  0
 16 17  1  0  0  0  0
 16 35  1  0  0  0  0
M  END
> <s_m_source_file>
AV-unprocessed.smi

> <i_m_source_file_index>
897

> <i_lp_mmshare_version>
43012

> <i_f3d_flags>
0

> <s_epik_input>
W0NIM11jMVtjSF1jKFtDSDNdKWMoQyNOKWMobjEpW05IXVtDQEhdKFtDSDJdW0NAQEhdMjMpW0NAQEhdKE8zKVtDSDJdW0NIMl0y

> <s_epik_cmdline>
J2VwaWtfcHl0aG9uJywgJy1waCcsICc3LjAnLCAnLXRuJywgJzgnLCAnLW1hJywgJzIwMCcsICctbWV0YWxfYmluZGluZycsICctaW1hZScsICc8aW5maWxlLm1hZT4nLCAnLW9tYWUnLCAnPG91dGZpbGUubWFlPic=

> <r_lp_tautomer_probability>
1

> <r_epik_Ionization_Penalty>
0.000502654

> <r_epik_Ionization_Penalty_Charging>
0

> <r_epik_Ionization_Penalty_Neutral>
0.000502654

> <r_epik_State_Penalty>
-0

> <r_epik_Charging_Adjusted_Penalty>
0

> <i_epik_Tot_Q>
0

> <i_epik_Tot_abs_Q>
0

> <r_epik_Metal_State_Penalty>
-0

> <b_epik_Metal_Only>
0

> <s_lp_Force_Field>
OPLS_2005

> <r_lp_Energy>
43.6408

> <b_lp_Chiralities_Consistent>
1

> <s_lp_Variant>
AV-unprocessed.smi:897-4

> <Gold.Version>
5.8.1

> <Gold.Id.Protein>
6NUR|6NUR_protein|mol2

> <Gold.PLP.Fitness>
42.9674

> <Gold.PLP.PLP>
-40.9785

> <Gold.PLP.part.hbond>
-1.0000

> <Gold.PLP.part.metal>
0.0000

> <Gold.PLP.part.buried>
-4.4852

> <Gold.PLP.part.nonpolar>
-35.4773

> <Gold.PLP.part.repulsive>
0.1979

> <Gold.PLP.ligand.clash>
0.0000

> <Gold.PLP.ligand.torsion>
0.5156

> <Gold.PLP.Chemscore.Hbond>
1.0000

> <Gold.PLP.Chemscore.CHOScore>
0.0000

> <Gold.PLP.Chemscore.Metal>
0.0000

> <Gold.Chemscore.Hbonds>
donor molecule, donor type, donor heavy atom, donor atom, acceptor molecule, acceptor atom, score
      P1  H  7989  7998       L1    17  0.81

> <Gold.PLP.Chemscore.Internal.Correction>
0.0202

> <Gold.Rescore>
     Score         DG    S(hbond)    S(metal)    S(lipo)     H(rot)  DE(clash)    DE(int)     intcor
     17.97     -18.62       0.98        0.00     106.07       1.00       0.02       0.63       ----

> <Gold.Chemscore.Fitness>
17.9720

> <Gold.Chemscore.DG>
-18.6178

> <Gold.Chemscore.ZeroCoef>
-5.4800

> <Gold.Chemscore.Hbond>
0.9842

> <Gold.Chemscore.Metal>
0.0000

> <Gold.Chemscore.Lipo>
106.0744

> <Gold.Chemscore.Internal_Hbond>
0.0000

> <Gold.Chemscore.DEClash>
0.0174

> <Gold.Chemscore.DEInternal>
0.6284

> <Gold.Chemscore.Rot>
1.0000

> <Gold.Chemscore.Internal.Correction>
   9.000000E+99

> <Gold.Chemscore.Hbonds>
donor molecule, donor type, donor heavy atom, donor atom, acceptor molecule, acceptor atom, score
      P1  H  7989  7998       L1    17  0.56

> <Gold.Chemscore.Hbond.Weighted>
-3.2871

> <Gold.Chemscore.Metal.Weighted>
-0.0000

> <Gold.Chemscore.Lipo.Weighted>
-12.4107

> <Gold.Chemscore.Internal_Hbond.Weighted>
0.0000

> <Gold.Chemscore.DEClash.Weighted>
0.0174

> <Gold.Chemscore.DEInternal.Weighted>
0.6284

> <Gold.Chemscore.Rot.Weighted>
2.5600

> <Gold.Chemscore.Internal.Correction.Weighted>
   9.000000E+99

> <Gold.Protein.RotatedTorsions>
[ 6907 6896 6895 6894 ] final -135.80 input  -60.11 | X-H torsion
[ 7974 7965 7964 7962 ] final -124.46 input  175.53 | X-H torsion
[ 8008 7997 7996 7995 ] final  124.78 input   59.86 | X-H torsion
[ 10167 10162 10161 10158 ] final -175.34 input  -65.29 | X-H torsion
[ 10718 10713 10712 10709 ] final  -54.17 input   66.30 | X-H torsion
[ 10763 10752 10751 10750 ] final  -15.55 input  -60.55 | X-H torsion
[ 11005 11000 10999 10996 ] final    3.15 input  -57.11 | X-H torsion

> <Gold.Protein.ActiveResidues>
 VAL166  LYS551  ARG553  GLY616  TRP617  ASP618  TYR619  PRO620  LYS621  CYS622 
 ASP623  PHE694  ASN695  SER759  ASP760  ASP761  ALA762  ILE779  LEU786  VAL792 
 PHE793  MET794  SER795  GLU796  ALA797  LYS798  CYS799  TRP800  GLU811  SER814 

> <Gold.Protein.RotatedAtoms>
  151.0022  133.6045  159.2693 H   0  0  0  0  0  0  0  0  0  0  0  0  # atno 6907 bound_to 6896
  151.3227  135.0821  159.9321 H   0  0  0  0  0  0  0  0  0  0  0  0  # atno 6908 bound_to 6896
  152.5277  133.9667  159.7797 H   0  0  0  0  0  0  0  0  0  0  0  0  # atno 6909 bound_to 6896
  145.0079  140.7879  143.4456 H   0  0  0  0  0  0  0  0  0  0  0  0  # atno 7974 bound_to 7965
  156.2812  140.2732  156.1843 H   0  0  0  0  0  0  0  0  0  0  0  0  # atno 8008 bound_to 7997
  155.0524  140.0386  157.2566 H   0  0  0  0  0  0  0  0  0  0  0  0  # atno 8009 bound_to 7997
  154.7184  140.2683  155.6569 H   0  0  0  0  0  0  0  0  0  0  0  0  # atno 8010 bound_to 7997
  139.5586  144.1926  152.1201 H   0  0  0  0  0  0  0  0  0  0  0  0  # atno 10167 bound_to 10162
  156.1473  130.4152  150.0003 H   0  0  0  0  0  0  0  0  0  0  0  0  # atno 10718 bound_to 10713
  153.5450  135.7012  153.5618 H   0  0  0  0  0  0  0  0  0  0  0  0  # atno 10763 bound_to 10752
  153.3567  135.3980  155.1687 H   0  0  0  0  0  0  0  0  0  0  0  0  # atno 10764 bound_to 10752
  154.8668  135.3778  154.4958 H   0  0  0  0  0  0  0  0  0  0  0  0  # atno 10765 bound_to 10752
  140.5964  133.9876  155.8112 H   0  0  0  0  0  0  0  0  0  0  0  0  # atno 11005 bound_to 11000
  145.2063  139.2226  143.5166 LP  0  0  0  0  0  0  0  0  0  0  0  0  # atno 17320 bound_to 7965
  146.3464  140.1892  142.8589 LP  0  0  0  0  0  0  0  0  0  0  0  0  # atno 17321 bound_to 7965
  140.1435  144.5180  150.6730 LP  0  0  0  0  0  0  0  0  0  0  0  0  # atno 17342 bound_to 10162
  140.6863  143.2352  151.5252 LP  0  0  0  0  0  0  0  0  0  0  0  0  # atno 17343 bound_to 10162
  156.7871  130.9242  151.3646 LP  0  0  0  0  0  0  0  0  0  0  0  0  # atno 17370 bound_to 10713
  157.6627  130.8980  149.9865 LP  0  0  0  0  0  0  0  0  0  0  0  0  # atno 17371 bound_to 10713
  141.0901  133.9929  157.3250 LP  0  0  0  0  0  0  0  0  0  0  0  0  # atno 17394 bound_to 11000
  139.9251  135.0201  156.8207 LP  0  0  0  0  0  0  0  0  0  0  0  0  # atno 17395 bound_to 11000

$$$$
