AV-unprocessed.smi:21|AV-procd|sdf|149|dock1
  -GOLD-   2262015363D 1   1.00000     0.00000
 Structure written by MMmdl.
 62 65  0  0  0  0  0  0  0  0  2 V2000
  152.5963  127.7817  154.4486 C   0  0  0  0  0  0  0  0  0  0  0  0
  152.7809  129.1743  154.6451 O   0  0  0  0  0  0  0  0  0  0  0  0
  151.6374  129.8302  155.1730 C   0  0  1  0  0  0  0  0  0  0  0  0
  151.8205  131.3368  155.3229 C   0  0  0  0  0  0  0  0  0  0  0  0
  150.3813  131.8679  155.3300 C   0  0  1  0  0  0  0  0  0  0  0  0
  150.2547  133.3666  154.9588 C   0  0  0  0  0  0  0  0  0  0  0  0
  150.6969  134.2537  156.0396 N   0  0  0  0  0  0  0  0  0  0  0  0
  151.2814  133.6356  157.2240 C   0  0  0  0  0  0  0  0  0  0  0  0
  150.7630  135.6080  155.8665 C   0  0  0  0  0  0  0  0  0  0  0  0
  150.9556  136.0904  154.6089 N   0  0  0  0  0  0  0  0  0  0  0  0
  151.0326  137.4025  154.3748 C   0  0  0  0  0  0  0  0  0  0  0  0
  150.9426  138.4079  155.2432 N   0  0  0  0  0  0  0  0  0  0  0  0
  150.7442  137.9460  156.5095 C   0  0  0  0  0  0  0  0  0  0  0  0
  150.6442  136.5804  156.9105 C   0  0  0  0  0  0  0  0  0  0  0  0
  150.4507  136.5248  158.2884 N   0  0  0  0  0  0  0  0  0  0  0  0
  150.4355  137.7708  158.6728 C   0  0  0  0  0  0  0  0  0  0  0  0
  150.5980  138.6914  157.6653 N   0  0  0  0  0  0  0  0  0  0  0  0
  150.6253  140.1375  157.7995 C   0  0  0  0  0  0  0  0  0  0  0  0
  151.5998  140.6230  158.9039 C   0  0  1  0  0  0  0  0  0  0  0  0
  152.7847  139.6443  159.0782 C   0  0  0  0  0  0  0  0  0  0  0  0
  153.3049  139.2387  157.8291 O   0  0  0  0  0  0  0  0  0  0  0  0
  152.0837  142.0855  158.7002 C   0  0  1  0  0  0  0  0  0  0  0  0
  151.0335  143.1073  158.2956 C   0  0  0  0  0  0  0  0  0  0  0  0
  151.7468  144.4111  158.6262 C   0  0  0  0  0  0  0  0  0  0  0  0
  152.4199  144.1359  159.8472 O   0  0  0  0  0  0  0  0  0  0  0  0
  152.7481  142.7493  159.9159 C   0  0  0  0  0  0  0  0  0  0  0  0
  149.6014  130.9165  154.4842 N   0  3  1  0  0  0  0  0  0  0  0  0
  148.9332  131.4589  153.2775 C   0  0  0  0  0  0  0  0  0  0  0  0
  150.4718  129.7539  154.1887 C   0  0  0  0  0  0  0  0  0  0  0  0
  151.3362  129.3871  156.1242 H   0  0  0  0  0  0  0  0  0  0  0  0
  149.9871  131.7333  156.3383 H   0  0  0  0  0  0  0  0  0  0  0  0
  153.4960  127.3538  154.0062 H   0  0  0  0  0  0  0  0  0  0  0  0
  151.7646  127.5853  153.7706 H   0  0  0  0  0  0  0  0  0  0  0  0
  152.4108  127.2647  155.3903 H   0  0  0  0  0  0  0  0  0  0  0  0
  152.3754  131.6135  156.2199 H   0  0  0  0  0  0  0  0  0  0  0  0
  152.3605  131.7241  154.4580 H   0  0  0  0  0  0  0  0  0  0  0  0
  150.7678  133.5808  154.0218 H   0  0  0  0  0  0  0  0  0  0  0  0
  149.2074  133.6040  154.7708 H   0  0  0  0  0  0  0  0  0  0  0  0
  152.3569  133.8116  157.2607 H   0  0  0  0  0  0  0  0  0  0  0  0
  151.1234  132.5568  157.2223 H   0  0  0  0  0  0  0  0  0  0  0  0
  150.8245  134.0303  158.1318 H   0  0  0  0  0  0  0  0  0  0  0  0
  151.1872  137.6870  153.3443 H   0  0  0  0  0  0  0  0  0  0  0  0
  150.3000  138.0533  159.7069 H   0  0  0  0  0  0  0  0  0  0  0  0
  150.9007  140.5603  156.8332 H   0  0  0  0  0  0  0  0  0  0  0  0
  149.6054  140.4633  157.9975 H   0  0  0  0  0  0  0  0  0  0  0  0
  151.0449  140.6140  159.8434 H   0  0  0  0  0  0  0  0  0  0  0  0
  153.6026  140.1113  159.6259 H   0  0  0  0  0  0  0  0  0  0  0  0
  152.4823  138.7651  159.6474 H   0  0  0  0  0  0  0  0  0  0  0  0
  152.9669  138.3796  157.6266 H   0  0  0  0  0  0  0  0  0  0  0  0
  152.8408  142.0883  157.9147 H   0  0  0  0  0  0  0  0  0  0  0  0
  150.7474  143.0358  157.2459 H   0  0  0  0  0  0  0  0  0  0  0  0
  150.1336  143.0271  158.9042 H   0  0  0  0  0  0  0  0  0  0  0  0
  152.4818  144.6540  157.8573 H   0  0  0  0  0  0  0  0  0  0  0  0
  151.0631  145.2544  158.7258 H   0  0  0  0  0  0  0  0  0  0  0  0
  152.3862  142.3572  160.8649 H   0  0  0  0  0  0  0  0  0  0  0  0
  153.8297  142.6110  159.8981 H   0  0  0  0  0  0  0  0  0  0  0  0
  149.6540  131.8937  152.5838 H   0  0  0  0  0  0  0  0  0  0  0  0
  148.1948  132.2163  153.5402 H   0  0  0  0  0  0  0  0  0  0  0  0
  148.4038  130.6620  152.7541 H   0  0  0  0  0  0  0  0  0  0  0  0
  150.8567  129.8355  153.1703 H   0  0  0  0  0  0  0  0  0  0  0  0
  149.9249  128.8136  154.2608 H   0  0  0  0  0  0  0  0  0  0  0  0
  148.8622  130.5733  155.0812 H   0  0  0  0  0  0  0  0  0  0  0  0
  1  2  1  0  0  0  0
  1 32  1  0  0  0  0
  1 33  1  0  0  0  0
  1 34  1  0  0  0  0
  2  3  1  0  0  0  0
  3 30  1  0  0  0  0
  3 29  1  0  0  0  0
  3  4  1  0  0  0  0
  4  5  1  0  0  0  0
  4 35  1  0  0  0  0
  4 36  1  0  0  0  0
  5 31  1  0  0  0  0
  5  6  1  0  0  0  0
  5 27  1  0  0  0  0
  6  7  1  0  0  0  0
  6 37  1  0  0  0  0
  6 38  1  0  0  0  0
  7  8  1  0  0  0  0
  7  9  1  0  0  0  0
  8 39  1  0  0  0  0
  8 40  1  0  0  0  0
  8 41  1  0  0  0  0
  9 14  1  0  0  0  0
  9 10  2  0  0  0  0
 10 11  1  0  0  0  0
 11 12  2  0  0  0  0
 11 42  1  0  0  0  0
 12 13  1  0  0  0  0
 13 17  1  0  0  0  0
 13 14  2  0  0  0  0
 14 15  1  0  0  0  0
 15 16  2  0  0  0  0
 16 17  1  0  0  0  0
 16 43  1  0  0  0  0
 17 18  1  0  0  0  0
 18 19  1  0  0  0  0
 18 44  1  0  0  0  0
 18 45  1  0  0  0  0
 19 20  1  0  0  0  0
 19 22  1  0  0  0  0
 19 46  1  0  0  0  0
 20 21  1  0  0  0  0
 20 47  1  0  0  0  0
 20 48  1  0  0  0  0
 21 49  1  0  0  0  0
 22 26  1  0  0  0  0
 22 23  1  0  0  0  0
 22 50  1  0  0  0  0
 23 24  1  0  0  0  0
 23 51  1  0  0  0  0
 23 52  1  0  0  0  0
 24 25  1  0  0  0  0
 24 53  1  0  0  0  0
 24 54  1  0  0  0  0
 25 26  1  0  0  0  0
 26 55  1  0  0  0  0
 26 56  1  0  0  0  0
 27 28  1  0  0  0  0
 27 29  1  0  0  0  0
 27 62  1  0  0  0  0
 28 57  1  0  0  0  0
 28 58  1  0  0  0  0
 28 59  1  0  0  0  0
 29 60  1  0  0  0  0
 29 61  1  0  0  0  0
M  CHG  1  27   1
M  END
> <s_m_source_file>
AV-unprocessed.smi

> <i_m_source_file_index>
21

> <i_lp_mmshare_version>
43012

> <i_f3d_flags>
0

> <s_epik_input>
W0NIM11PW0NASF0xW0NIMl1bQ0BIXShOKFtDSDNdKVtDSDJdMSlbQ0gyXU4oW0NIM10pYyhuW2NIXW4yKWMoYzIzKW5bY0hdbjNbQ0gyXVtDQEhdKFtDSDJdW09IXSlbQ0BASF00W0NIMl1bQ0gyXU9bQ0gyXTQ=

> <s_epik_cmdline>
J2VwaWtfcHl0aG9uJywgJy1waCcsICc3LjAnLCAnLXRuJywgJzgnLCAnLW1hJywgJzIwMCcsICctbWV0YWxfYmluZGluZycsICctaW1hZScsICc8aW5maWxlLm1hZT4nLCAnLW9tYWUnLCAnPG91dGZpbGUubWFlPic=

> <r_lp_tautomer_probability>
1

> <r_epik_Ionization_Penalty>
0.0157465

> <r_epik_Ionization_Penalty_Charging>
0.015354

> <r_epik_Ionization_Penalty_Neutral>
0.000392529

> <r_epik_State_Penalty>
0.0120612

> <r_epik_Charging_Adjusted_Penalty>
0.0274152

> <i_epik_Tot_Q>
1

> <i_epik_Tot_abs_Q>
1

> <r_epik_Metal_State_Penalty>
0.0121253

> <b_epik_Metal_Only>
0

> <s_lp_Force_Field>
OPLS_2005

> <r_lp_Energy>
61.5082

> <b_lp_Chiralities_Consistent>
1

> <s_lp_Variant>
AV-unprocessed.smi:21-29

> <Gold.Version>
5.8.1

> <Gold.Id.Protein>
6NUR|6NUR_protein|mol2

> <Gold.PLP.Fitness>
49.9966

> <Gold.PLP.PLP>
-40.4954

> <Gold.PLP.part.hbond>
-3.0000

> <Gold.PLP.part.metal>
0.0000

> <Gold.PLP.part.buried>
-3.0397

> <Gold.PLP.part.nonpolar>
-36.5311

> <Gold.PLP.part.repulsive>
0.2987

> <Gold.PLP.ligand.clash>
0.2694

> <Gold.PLP.ligand.torsion>
1.3294

> <Gold.PLP.Chemscore.Hbond>
2.8199

> <Gold.PLP.Chemscore.CHOScore>
0.9842

> <Gold.PLP.Chemscore.Metal>
0.0000

> <Gold.Chemscore.Hbonds>
donor molecule, donor type, donor heavy atom, donor atom, acceptor molecule, acceptor atom, score
      P1  H  6896  6909       L1    15  0.52
      P1  H  7997  8009       L1    21  1.00
      P1  H 10752 10765       L1    10  0.63
      L1  C    11    42       P1  7949  0.84

> <Gold.PLP.Chemscore.Internal.Correction>
1.0171

> <Gold.Rescore>
     Score         DG    S(hbond)    S(metal)    S(lipo)     H(rot)  DE(clash)    DE(int)     intcor
     11.65     -16.27       2.00        0.00     102.33       3.08       1.88       2.75       ----

> <Gold.Chemscore.Fitness>
11.6454

> <Gold.Chemscore.DG>
-16.2702

> <Gold.Chemscore.ZeroCoef>
-5.4800

> <Gold.Chemscore.Hbond>
2.0037

> <Gold.Chemscore.Metal>
0.0000

> <Gold.Chemscore.Lipo>
102.3250

> <Gold.Chemscore.Internal_Hbond>
0.0000

> <Gold.Chemscore.DEClash>
1.8750

> <Gold.Chemscore.DEInternal>
2.7497

> <Gold.Chemscore.Rot>
3.0758

> <Gold.Chemscore.Internal.Correction>
   9.000000E+99

> <Gold.Chemscore.Hbonds>
donor molecule, donor type, donor heavy atom, donor atom, acceptor molecule, acceptor atom, score
      P1  H  6896  6909       L1    15  0.48
      P1  H  7997  8009       L1    21  1.00
      P1  H 10752 10765       L1    10  0.02

> <Gold.Chemscore.Hbond.Weighted>
-6.6923

> <Gold.Chemscore.Metal.Weighted>
-0.0000

> <Gold.Chemscore.Lipo.Weighted>
-11.9720

> <Gold.Chemscore.Internal_Hbond.Weighted>
0.0000

> <Gold.Chemscore.DEClash.Weighted>
1.8750

> <Gold.Chemscore.DEInternal.Weighted>
2.7497

> <Gold.Chemscore.Rot.Weighted>
7.8741

> <Gold.Chemscore.Internal.Correction.Weighted>
   9.000000E+99

> <Gold.Protein.RotatedTorsions>
[ 6907 6896 6895 6894 ] final   85.33 input  -60.11 | X-H torsion
[ 7974 7965 7964 7962 ] final  -62.53 input  175.53 | X-H torsion
[ 8008 7997 7996 7995 ] final  159.33 input   59.86 | X-H torsion
[ 10167 10162 10161 10158 ] final   23.96 input  -65.29 | X-H torsion
[ 10718 10713 10712 10709 ] final  118.98 input   66.30 | X-H torsion
[ 10763 10752 10751 10750 ] final -179.22 input  -60.55 | X-H torsion
[ 11005 11000 10999 10996 ] final  -88.45 input  -57.11 | X-H torsion

> <Gold.Protein.ActiveResidues>
 VAL166  LYS551  ARG553  GLY616  TRP617  ASP618  TYR619  PRO620  LYS621  CYS622 
 ASP623  PHE694  ASN695  SER759  ASP760  ASP761  ALA762  ILE779  LEU786  VAL792 
 PHE793  MET794  SER795  GLU796  ALA797  LYS798  CYS799  TRP800  GLU811  SER814 

> <Gold.Protein.RotatedAtoms>
  152.5372  134.2603  159.8932 H   0  0  0  0  0  0  0  0  0  0  0  0  # atno 6907 bound_to 6896
  151.2563  133.4318  159.2621 H   0  0  0  0  0  0  0  0  0  0  0  0  # atno 6908 bound_to 6896
  151.0493  134.9676  159.8259 H   0  0  0  0  0  0  0  0  0  0  0  0  # atno 6909 bound_to 6896
  145.7902  140.8714  143.0285 H   0  0  0  0  0  0  0  0  0  0  0  0  # atno 7974 bound_to 7965
  156.2246  140.1834  156.7395 H   0  0  0  0  0  0  0  0  0  0  0  0  # atno 8008 bound_to 7997
  154.5919  140.0649  156.9279 H   0  0  0  0  0  0  0  0  0  0  0  0  # atno 8009 bound_to 7997
  155.2321  140.3315  155.4304 H   0  0  0  0  0  0  0  0  0  0  0  0  # atno 8010 bound_to 7997
  140.5227  143.9975  150.6425 H   0  0  0  0  0  0  0  0  0  0  0  0  # atno 10167 bound_to 10162
  157.5993  131.1053  150.7832 H   0  0  0  0  0  0  0  0  0  0  0  0  # atno 10718 bound_to 10713
  154.5378  135.2804  155.1123 H   0  0  0  0  0  0  0  0  0  0  0  0  # atno 10763 bound_to 10752
  154.2617  135.6320  153.5281 H   0  0  0  0  0  0  0  0  0  0  0  0  # atno 10764 bound_to 10752
  152.9971  135.5607  154.5909 H   0  0  0  0  0  0  0  0  0  0  0  0  # atno 10765 bound_to 10752
  141.1601  133.7571  156.9453 H   0  0  0  0  0  0  0  0  0  0  0  0  # atno 11005 bound_to 11000
  144.6783  140.0112  143.7484 LP  0  0  0  0  0  0  0  0  0  0  0  0  # atno 17320 bound_to 7965
  145.9985  139.3072  143.0942 LP  0  0  0  0  0  0  0  0  0  0  0  0  # atno 17321 bound_to 7965
  140.3328  143.3067  152.0669 LP  0  0  0  0  0  0  0  0  0  0  0  0  # atno 17342 bound_to 10162
  139.4928  144.6497  151.6702 LP  0  0  0  0  0  0  0  0  0  0  0  0  # atno 17343 bound_to 10162
  156.8235  130.4992  149.5340 LP  0  0  0  0  0  0  0  0  0  0  0  0  # atno 17370 bound_to 10713
  156.1062  130.6006  150.9975 LP  0  0  0  0  0  0  0  0  0  0  0  0  # atno 17371 bound_to 10713
  140.1293  134.9366  157.2315 LP  0  0  0  0  0  0  0  0  0  0  0  0  # atno 17394 bound_to 11000
  140.2973  134.3172  155.7299 LP  0  0  0  0  0  0  0  0  0  0  0  0  # atno 17395 bound_to 11000

$$$$
