AV-unprocessed.smi:1972|AV-procd|sdf|7975|dock3
  -GOLD-   2272010153D 1   1.00000     0.00000
 Structure written by MMmdl.
 44 45  0  0  0  0  0  0  0  0  1 V2000
  149.6546  130.8557  154.0627 C   0  0  0  0  0  0  0  0  0  0  0  0
  149.1363  132.5188  153.5661 S   0  0  0  0  0  0  0  0  0  0  0  0
  149.9712  133.4907  154.8534 C   0  0  0  0  0  0  0  0  0  0  0  0
  149.5022  134.9563  154.8732 C   0  0  0  0  0  0  0  0  0  0  0  0
  150.6607  135.9566  154.9374 C   0  0  0  0  0  0  0  0  0  0  0  0
  151.4982  135.8795  155.8365 O   0  0  0  0  0  0  0  0  0  0  0  0
  150.6928  136.8933  153.9784 N   0  0  0  0  0  0  0  0  0  0  0  0
  151.7237  137.9164  153.8455 C   0  0  0  0  0  0  0  0  0  0  0  0
  151.6739  138.9733  154.9376 C   0  0  0  0  0  0  0  0  0  0  0  0
  150.6977  139.9917  154.9538 C   0  0  0  0  0  0  0  0  0  0  0  0
  150.7195  140.9433  155.9911 C   0  0  0  0  0  0  0  0  0  0  0  0
  151.7202  140.8572  156.9884 C   0  0  0  0  0  0  0  0  0  0  0  0
  151.7600  141.7992  158.0396 N   0  0  0  0  0  0  0  0  0  0  0  0
  151.8935  143.2121  157.6906 C   0  0  0  0  0  0  0  0  0  0  0  0
  151.6237  144.0944  158.9202 C   0  0  0  0  0  0  0  0  0  0  0  0
  152.4823  143.7046  159.9867 O   0  0  0  0  0  0  0  0  0  0  0  0
  152.2591  142.3565  160.3904 C   0  0  2  0  0  0  0  0  0  0  0  0
  153.1571  142.0603  161.5962 C   0  0  0  0  0  0  0  0  0  0  0  0
  152.5518  141.4154  159.2057 C   0  0  0  0  0  0  0  0  0  0  0  0
  152.6657  139.8855  156.9598 N   0  0  0  0  0  0  0  0  0  0  0  0
  152.6401  138.9755  155.9635 C   0  0  0  0  0  0  0  0  0  0  0  0
  149.2337  130.1128  153.3854 H   0  0  0  0  0  0  0  0  0  0  0  0
  149.3126  130.6362  155.0741 H   0  0  0  0  0  0  0  0  0  0  0  0
  150.7412  130.7718  154.0359 H   0  0  0  0  0  0  0  0  0  0  0  0
  149.7600  133.0286  155.8181 H   0  0  0  0  0  0  0  0  0  0  0  0
  151.0505  133.4274  154.7090 H   0  0  0  0  0  0  0  0  0  0  0  0
  148.8698  135.1582  154.0073 H   0  0  0  0  0  0  0  0  0  0  0  0
  148.8789  135.1214  155.7523 H   0  0  0  0  0  0  0  0  0  0  0  0
  149.9609  136.8878  153.2827 H   0  0  0  0  0  0  0  0  0  0  0  0
  152.6994  137.4287  153.8541 H   0  0  0  0  0  0  0  0  0  0  0  0
  151.6298  138.4258  152.8848 H   0  0  0  0  0  0  0  0  0  0  0  0
  149.9433  140.0551  154.1835 H   0  0  0  0  0  0  0  0  0  0  0  0
  149.9829  141.7327  155.9996 H   0  0  0  0  0  0  0  0  0  0  0  0
  152.8999  143.3973  157.3123 H   0  0  0  0  0  0  0  0  0  0  0  0
  151.1921  143.4751  156.8976 H   0  0  0  0  0  0  0  0  0  0  0  0
  151.8093  145.1409  158.6787 H   0  0  0  0  0  0  0  0  0  0  0  0
  150.5805  144.0198  159.2315 H   0  0  0  0  0  0  0  0  0  0  0  0
  151.2179  142.2442  160.6988 H   0  0  0  0  0  0  0  0  0  0  0  0
  153.0116  141.0402  161.9526 H   0  0  0  0  0  0  0  0  0  0  0  0
  152.9347  142.7357  162.4224 H   0  0  0  0  0  0  0  0  0  0  0  0
  154.2108  142.1797  161.3420 H   0  0  0  0  0  0  0  0  0  0  0  0
  152.3484  140.3897  159.5095 H   0  0  0  0  0  0  0  0  0  0  0  0
  153.6089  141.4628  158.9404 H   0  0  0  0  0  0  0  0  0  0  0  0
  153.4160  138.2245  155.9892 H   0  0  0  0  0  0  0  0  0  0  0  0
  1  2  1  0  0  0  0
  1 22  1  0  0  0  0
  1 23  1  0  0  0  0
  1 24  1  0  0  0  0
  2  3  1  0  0  0  0
  3  4  1  0  0  0  0
  3 25  1  0  0  0  0
  3 26  1  0  0  0  0
  4  5  1  0  0  0  0
  4 27  1  0  0  0  0
  4 28  1  0  0  0  0
  5  6  2  0  0  0  0
  5  7  1  0  0  0  0
  7  8  1  0  0  0  0
  7 29  1  0  0  0  0
  8  9  1  0  0  0  0
  8 30  1  0  0  0  0
  8 31  1  0  0  0  0
  9 21  1  0  0  0  0
  9 10  2  0  0  0  0
 10 11  1  0  0  0  0
 10 32  1  0  0  0  0
 11 12  2  0  0  0  0
 11 33  1  0  0  0  0
 12 13  1  0  0  0  0
 12 20  1  0  0  0  0
 13 19  1  0  0  0  0
 13 14  1  0  0  0  0
 14 15  1  0  0  0  0
 14 34  1  0  0  0  0
 14 35  1  0  0  0  0
 15 16  1  0  0  0  0
 15 36  1  0  0  0  0
 15 37  1  0  0  0  0
 16 17  1  0  0  0  0
 17 18  1  0  0  0  0
 17 19  1  0  0  0  0
 17 38  1  0  0  0  0
 18 39  1  0  0  0  0
 18 40  1  0  0  0  0
 18 41  1  0  0  0  0
 19 42  1  0  0  0  0
 19 43  1  0  0  0  0
 20 21  2  0  0  0  0
 21 44  1  0  0  0  0
M  END
> <s_m_source_file>
AV-unprocessed.smi

> <i_m_source_file_index>
1972

> <i_lp_mmshare_version>
43012

> <i_f3d_flags>
0

> <s_epik_input>
W0NIM11TW0NIMl1bQ0gyXUMoPU8pW05IXVtDSDJdYzFbY0hdW2NIXWMobltjSF0xKU4yW0NIMl1bQ0gyXU9bQ0BASF0oW0NIM10pW0NIMl0y

> <s_epik_cmdline>
J2VwaWtfcHl0aG9uJywgJy1waCcsICc3LjAnLCAnLXRuJywgJzgnLCAnLW1hJywgJzIwMCcsICctbWV0YWxfYmluZGluZycsICctaW1hZScsICc8aW5maWxlLm1hZT4nLCAnLW9tYWUnLCAnPG91dGZpbGUubWFlPic=

> <r_lp_tautomer_probability>
1

> <r_epik_Ionization_Penalty>
0.00559088

> <r_epik_Ionization_Penalty_Charging>
0

> <r_epik_Ionization_Penalty_Neutral>
0.00559088

> <r_epik_State_Penalty>
0.00409544

> <r_epik_Charging_Adjusted_Penalty>
0.00409544

> <i_epik_Tot_Q>
0

> <i_epik_Tot_abs_Q>
0

> <r_epik_Metal_State_Penalty>
-0

> <b_epik_Metal_Only>
0

> <s_lp_Force_Field>
OPLS_2005

> <r_lp_Energy>
17.9422

> <b_lp_Chiralities_Consistent>
1

> <s_lp_Variant>
AV-unprocessed.smi:1972-2

> <Gold.Version>
5.8.1

> <Gold.Id.Protein>
6NUR|6NUR_protein|mol2

> <Gold.PLP.Fitness>
52.1734

> <Gold.PLP.PLP>
-45.2975

> <Gold.PLP.part.hbond>
-4.0000

> <Gold.PLP.part.metal>
0.0000

> <Gold.PLP.part.buried>
-2.7514

> <Gold.PLP.part.nonpolar>
-37.9731

> <Gold.PLP.part.repulsive>
0.1280

> <Gold.PLP.ligand.clash>
0.0000

> <Gold.PLP.ligand.torsion>
0.8570

> <Gold.PLP.Chemscore.Hbond>
2.7360

> <Gold.PLP.Chemscore.CHOScore>
0.0000

> <Gold.PLP.Chemscore.Metal>
0.0000

> <Gold.Chemscore.Hbonds>
donor molecule, donor type, donor heavy atom, donor atom, acceptor molecule, acceptor atom, score
      L1  H     7    29       P1  7948  0.90
      P1  H  7997  8010       L1    20  0.60
      P1  H 10752 10764       L1     6  1.00

> <Gold.PLP.Chemscore.Internal.Correction>
0.3820

> <Gold.Rescore>
     Score         DG    S(hbond)    S(metal)    S(lipo)     H(rot)  DE(clash)    DE(int)     intcor
     18.61     -19.65       1.65        0.00     112.35       1.75       0.13       0.91       ----

> <Gold.Chemscore.Fitness>
18.6120

> <Gold.Chemscore.DG>
-19.6548

> <Gold.Chemscore.ZeroCoef>
-5.4800

> <Gold.Chemscore.Hbond>
1.6464

> <Gold.Chemscore.Metal>
0.0000

> <Gold.Chemscore.Lipo>
112.3533

> <Gold.Chemscore.Internal_Hbond>
0.0000

> <Gold.Chemscore.DEClash>
0.1325

> <Gold.Chemscore.DEInternal>
0.9102

> <Gold.Chemscore.Rot>
1.7460

> <Gold.Chemscore.Internal.Correction>
   9.000000E+99

> <Gold.Chemscore.Hbonds>
donor molecule, donor type, donor heavy atom, donor atom, acceptor molecule, acceptor atom, score
      L1  H     7    29       P1  7948  0.18
      P1  H  7997  8010       L1    20  0.04
      P1  H 10752 10764       L1     6  0.26

> <Gold.Chemscore.Hbond.Weighted>
-5.4991

> <Gold.Chemscore.Metal.Weighted>
-0.0000

> <Gold.Chemscore.Lipo.Weighted>
-13.1453

> <Gold.Chemscore.Internal_Hbond.Weighted>
0.0000

> <Gold.Chemscore.DEClash.Weighted>
0.1325

> <Gold.Chemscore.DEInternal.Weighted>
0.9102

> <Gold.Chemscore.Rot.Weighted>
4.4697

> <Gold.Chemscore.Internal.Correction.Weighted>
   9.000000E+99

> <Gold.Protein.RotatedTorsions>
[ 6907 6896 6895 6894 ] final  -36.89 input  -60.11 | X-H torsion
[ 7974 7965 7964 7962 ] final  104.62 input  175.53 | X-H torsion
[ 8008 7997 7996 7995 ] final   48.11 input   59.86 | X-H torsion
[ 10167 10162 10161 10158 ] final  -94.11 input  -65.29 | X-H torsion
[ 10718 10713 10712 10709 ] final  -64.23 input   66.30 | X-H torsion
[ 10763 10752 10751 10750 ] final  -44.35 input  -60.55 | X-H torsion
[ 11005 11000 10999 10996 ] final -122.60 input  -57.11 | X-H torsion

> <Gold.Protein.ActiveResidues>
 VAL166  LYS551  ARG553  GLY616  TRP617  ASP618  TYR619  PRO620  LYS621  CYS622 
 ASP623  PHE694  ASN695  SER759  ASP760  ASP761  ALA762  ILE779  LEU786  VAL792 
 PHE793  MET794  SER795  GLU796  ALA797  LYS798  CYS799  TRP800  GLU811  SER814 

> <Gold.Protein.RotatedAtoms>
  151.0216  134.9473  159.8062 H   0  0  0  0  0  0  0  0  0  0  0  0  # atno 6907 bound_to 6896
  152.5326  134.2897  159.9048 H   0  0  0  0  0  0  0  0  0  0  0  0  # atno 6908 bound_to 6896
  151.2904  133.4126  159.2667 H   0  0  0  0  0  0  0  0  0  0  0  0  # atno 6909 bound_to 6896
  145.3303  139.2488  143.3664 H   0  0  0  0  0  0  0  0  0  0  0  0  # atno 7974 bound_to 7965
  155.3802  140.3428  155.4246 H   0  0  0  0  0  0  0  0  0  0  0  0  # atno 8008 bound_to 7997
  156.1614  140.1602  156.8638 H   0  0  0  0  0  0  0  0  0  0  0  0  # atno 8009 bound_to 7997
  154.5144  140.0782  156.8034 H   0  0  0  0  0  0  0  0  0  0  0  0  # atno 8010 bound_to 7997
  140.3178  143.3067  152.0079 H   0  0  0  0  0  0  0  0  0  0  0  0  # atno 10167 bound_to 10162
  156.0742  130.4231  150.1391 H   0  0  0  0  0  0  0  0  0  0  0  0  # atno 10718 bound_to 10713
  154.0106  135.6682  153.4765 H   0  0  0  0  0  0  0  0  0  0  0  0  # atno 10763 bound_to 10752
  153.0622  135.5021  154.8116 H   0  0  0  0  0  0  0  0  0  0  0  0  # atno 10764 bound_to 10752
  154.6997  135.3076  154.9322 H   0  0  0  0  0  0  0  0  0  0  0  0  # atno 10765 bound_to 10752
  140.9983  134.0440  157.3570 H   0  0  0  0  0  0  0  0  0  0  0  0  # atno 11005 bound_to 11000
  146.3048  140.3880  142.8691 LP  0  0  0  0  0  0  0  0  0  0  0  0  # atno 17320 bound_to 7965
  144.8869  140.7473  143.5951 LP  0  0  0  0  0  0  0  0  0  0  0  0  # atno 17321 bound_to 7965
  139.4880  144.6335  151.7023 LP  0  0  0  0  0  0  0  0  0  0  0  0  # atno 17342 bound_to 10162
  140.5511  144.0424  150.6127 LP  0  0  0  0  0  0  0  0  0  0  0  0  # atno 17343 bound_to 10162
  156.9435  130.9752  151.3511 LP  0  0  0  0  0  0  0  0  0  0  0  0  # atno 17370 bound_to 10713
  157.5828  130.8388  149.8547 LP  0  0  0  0  0  0  0  0  0  0  0  0  # atno 17371 bound_to 10713
  139.9026  135.0169  156.7338 LP  0  0  0  0  0  0  0  0  0  0  0  0  # atno 17394 bound_to 11000
  140.6930  133.9373  155.7978 LP  0  0  0  0  0  0  0  0  0  0  0  0  # atno 17395 bound_to 11000

$$$$
