AV-unprocessed.smi:1959|AV-procd|sdf|7914|dock3
  -GOLD-   2272010 83D 1   1.00000     0.00000
 Structure written by MMmdl.
 45 46  0  0  0  0  0  0  0  0  2 V2000
  153.8391  141.3028  161.2202 C   0  0  0  0  0  0  0  0  0  0  0  0
  153.0393  142.3221  160.4641 C   0  0  0  0  0  0  0  0  0  0  0  0
  152.4980  143.5485  160.9416 C   0  0  0  0  0  0  0  0  0  0  0  0
  151.8725  144.0878  159.8532 C   0  0  0  0  0  0  0  0  0  0  0  0
  151.1196  145.3694  159.7109 C   0  0  0  0  0  0  0  0  0  0  0  0
  152.0516  143.2004  158.8071 N   0  0  0  0  0  0  0  0  0  0  0  0
  151.5895  143.3003  157.4304 C   0  0  0  0  0  0  0  0  0  0  0  0
  150.8398  142.0457  156.9673 C   0  0  0  0  0  0  0  0  0  0  0  0
  151.0226  140.9577  157.5151 O   0  0  0  0  0  0  0  0  0  0  0  0
  149.9720  142.2217  155.9582 N   0  0  0  0  0  0  0  0  0  0  0  0
  149.1368  141.1849  155.3507 C   0  0  2  0  0  0  0  0  0  0  0  0
  150.0232  139.9985  154.9491 C   0  0  0  0  0  0  0  0  0  0  0  0
  148.3547  141.7383  154.1372 C   0  0  0  0  0  0  0  0  0  0  0  0
  147.2823  142.6905  154.5226 N   0  3  0  0  0  0  0  0  0  0  0  0
  146.3558  143.0051  153.4102 C   0  0  0  0  0  0  0  0  0  0  0  0
  145.3222  144.0523  153.8587 C   0  0  0  0  0  0  0  0  0  0  0  0
  144.6206  143.5742  154.9999 O   0  0  0  0  0  0  0  0  0  0  0  0
  145.4897  143.3445  156.1027 C   0  0  0  0  0  0  0  0  0  0  0  0
  146.5245  142.2712  155.7266 C   0  0  0  0  0  0  0  0  0  0  0  0
  152.7668  142.1183  159.1854 N   0  0  0  0  0  0  0  0  0  0  0  0
  153.9387  141.5796  162.2699 H   0  0  0  0  0  0  0  0  0  0  0  0
  154.8429  141.2067  160.8061 H   0  0  0  0  0  0  0  0  0  0  0  0
  153.3651  140.3218  161.1798 H   0  0  0  0  0  0  0  0  0  0  0  0
  152.5611  143.9700  161.9340 H   0  0  0  0  0  0  0  0  0  0  0  0
  151.1536  145.9460  160.6353 H   0  0  0  0  0  0  0  0  0  0  0  0
  150.0729  145.1802  159.4722 H   0  0  0  0  0  0  0  0  0  0  0  0
  151.5447  145.9843  158.9174 H   0  0  0  0  0  0  0  0  0  0  0  0
  150.9328  144.1663  157.3338 H   0  0  0  0  0  0  0  0  0  0  0  0
  152.4496  143.4818  156.7847 H   0  0  0  0  0  0  0  0  0  0  0  0
  149.8897  143.1508  155.5706 H   0  0  0  0  0  0  0  0  0  0  0  0
  148.4300  140.8109  156.0929 H   0  0  0  0  0  0  0  0  0  0  0  0
  149.4269  139.1898  154.5256 H   0  0  0  0  0  0  0  0  0  0  0  0
  150.5553  139.5960  155.8118 H   0  0  0  0  0  0  0  0  0  0  0  0
  150.7659  140.2885  154.2049 H   0  0  0  0  0  0  0  0  0  0  0  0
  149.0643  142.2475  153.4830 H   0  0  0  0  0  0  0  0  0  0  0  0
  147.9289  140.9257  153.5463 H   0  0  0  0  0  0  0  0  0  0  0  0
  146.9165  143.3885  152.5570 H   0  0  0  0  0  0  0  0  0  0  0  0
  145.8520  142.0943  153.0825 H   0  0  0  0  0  0  0  0  0  0  0  0
  145.8053  145.0041  154.0862 H   0  0  0  0  0  0  0  0  0  0  0  0
  144.6073  144.2417  153.0579 H   0  0  0  0  0  0  0  0  0  0  0  0
  145.9811  144.2740  156.3956 H   0  0  0  0  0  0  0  0  0  0  0  0
  144.8984  143.0136  156.9565 H   0  0  0  0  0  0  0  0  0  0  0  0
  146.0230  141.3214  155.5341 H   0  0  0  0  0  0  0  0  0  0  0  0
  147.2018  142.1101  156.5648 H   0  0  0  0  0  0  0  0  0  0  0  0
  147.7451  143.5579  154.7561 H   0  0  0  0  0  0  0  0  0  0  0  0
  1  2  1  0  0  0  0
  1 21  1  0  0  0  0
  1 22  1  0  0  0  0
  1 23  1  0  0  0  0
  2 20  2  0  0  0  0
  2  3  1  0  0  0  0
  3  4  2  0  0  0  0
  3 24  1  0  0  0  0
  4  5  1  0  0  0  0
  4  6  1  0  0  0  0
  5 25  1  0  0  0  0
  5 26  1  0  0  0  0
  5 27  1  0  0  0  0
  6  7  1  0  0  0  0
  6 20  1  0  0  0  0
  7  8  1  0  0  0  0
  7 28  1  0  0  0  0
  7 29  1  0  0  0  0
  8  9  2  0  0  0  0
  8 10  1  0  0  0  0
 10 11  1  0  0  0  0
 10 30  1  0  0  0  0
 11 12  1  0  0  0  0
 11 13  1  0  0  0  0
 11 31  1  0  0  0  0
 12 32  1  0  0  0  0
 12 33  1  0  0  0  0
 12 34  1  0  0  0  0
 13 14  1  0  0  0  0
 13 35  1  0  0  0  0
 13 36  1  0  0  0  0
 14 19  1  0  0  0  0
 14 15  1  0  0  0  0
 14 45  1  0  0  0  0
 15 16  1  0  0  0  0
 15 37  1  0  0  0  0
 15 38  1  0  0  0  0
 16 17  1  0  0  0  0
 16 39  1  0  0  0  0
 16 40  1  0  0  0  0
 17 18  1  0  0  0  0
 18 19  1  0  0  0  0
 18 41  1  0  0  0  0
 18 42  1  0  0  0  0
 19 43  1  0  0  0  0
 19 44  1  0  0  0  0
M  CHG  1  14   1
M  END
> <s_m_source_file>
AV-unprocessed.smi

> <i_m_source_file_index>
1959

> <i_lp_mmshare_version>
43012

> <i_f3d_flags>
0

> <s_epik_input>
W0NIM11jMVtjSF1jKFtDSDNdKW4objEpW0NIMl1DKD1PKVtOSF1bQ0BIXShbQ0gzXSlbQ0gyXU4yW0NIMl1bQ0gyXU9bQ0gyXVtDSDJdMg==

> <s_epik_cmdline>
J2VwaWtfcHl0aG9uJywgJy1waCcsICc3LjAnLCAnLXRuJywgJzgnLCAnLW1hJywgJzIwMCcsICctbWV0YWxfYmluZGluZycsICctaW1hZScsICc8aW5maWxlLm1hZT4nLCAnLW9tYWUnLCAnPG91dGZpbGUubWFlPic=

> <r_lp_tautomer_probability>
1

> <r_epik_Ionization_Penalty>
0.748605

> <r_epik_Ionization_Penalty_Charging>
0.748396

> <r_epik_Ionization_Penalty_Neutral>
0.000208859

> <r_epik_State_Penalty>
0.775162

> <r_epik_Charging_Adjusted_Penalty>
1.52356

> <i_epik_Tot_Q>
1

> <i_epik_Tot_abs_Q>
1

> <r_epik_Metal_State_Penalty>
0.775281

> <b_epik_Metal_Only>
0

> <s_lp_Force_Field>
OPLS_2005

> <r_lp_Energy>
20.8934

> <b_lp_Chiralities_Consistent>
1

> <s_lp_Variant>
AV-unprocessed.smi:1959-3

> <Gold.Version>
5.8.1

> <Gold.Id.Protein>
6NUR|6NUR_protein|mol2

> <Gold.PLP.Fitness>
55.3282

> <Gold.PLP.PLP>
-47.4965

> <Gold.PLP.part.hbond>
-2.0000

> <Gold.PLP.part.metal>
0.0000

> <Gold.PLP.part.buried>
-7.9599

> <Gold.PLP.part.nonpolar>
-38.1333

> <Gold.PLP.part.repulsive>
0.4194

> <Gold.PLP.ligand.clash>
0.0000

> <Gold.PLP.ligand.torsion>
0.6271

> <Gold.PLP.Chemscore.Hbond>
3.0000

> <Gold.PLP.Chemscore.CHOScore>
0.0000

> <Gold.PLP.Chemscore.Metal>
0.0000

> <Gold.Chemscore.Hbonds>
donor molecule, donor type, donor heavy atom, donor atom, acceptor molecule, acceptor atom, score
      L1  H    10    30       P1  8028  0.88
      L1  H    14    45       P1  8028  2.00

> <Gold.PLP.Chemscore.Internal.Correction>
0.0859

> <Gold.Rescore>
     Score         DG    S(hbond)    S(metal)    S(lipo)     H(rot)  DE(clash)    DE(int)     intcor
     15.15     -18.96       1.54        0.00     110.02       1.77       0.35       3.46       ----

> <Gold.Chemscore.Fitness>
15.1459

> <Gold.Chemscore.DG>
-18.9564

> <Gold.Chemscore.ZeroCoef>
-5.4800

> <Gold.Chemscore.Hbond>
1.5409

> <Gold.Chemscore.Metal>
0.0000

> <Gold.Chemscore.Lipo>
110.0171

> <Gold.Chemscore.Internal_Hbond>
0.0000

> <Gold.Chemscore.DEClash>
0.3510

> <Gold.Chemscore.DEInternal>
3.4594

> <Gold.Chemscore.Rot>
1.7744

> <Gold.Chemscore.Internal.Correction>
   9.000000E+99

> <Gold.Chemscore.Hbonds>
donor molecule, donor type, donor heavy atom, donor atom, acceptor molecule, acceptor atom, score
      L1  H    10    30       P1  8028  0.86
      L1  H    14    45       P1  8028  0.39

> <Gold.Chemscore.Hbond.Weighted>
-5.1468

> <Gold.Chemscore.Metal.Weighted>
-0.0000

> <Gold.Chemscore.Lipo.Weighted>
-12.8720

> <Gold.Chemscore.Internal_Hbond.Weighted>
0.0000

> <Gold.Chemscore.DEClash.Weighted>
0.3510

> <Gold.Chemscore.DEInternal.Weighted>
3.4594

> <Gold.Chemscore.Rot.Weighted>
4.5424

> <Gold.Chemscore.Internal.Correction.Weighted>
   9.000000E+99

> <Gold.Protein.RotatedTorsions>
[ 6907 6896 6895 6894 ] final  -88.17 input  -60.11 | X-H torsion
[ 7974 7965 7964 7962 ] final  -73.85 input  175.53 | X-H torsion
[ 8008 7997 7996 7995 ] final  -44.23 input   59.86 | X-H torsion
[ 10167 10162 10161 10158 ] final -146.04 input  -65.29 | X-H torsion
[ 10718 10713 10712 10709 ] final -154.31 input   66.30 | X-H torsion
[ 10763 10752 10751 10750 ] final  -54.76 input  -60.55 | X-H torsion
[ 11005 11000 10999 10996 ] final  165.26 input  -57.11 | X-H torsion

> <Gold.Protein.ActiveResidues>
 VAL166  LYS551  ARG553  GLY616  TRP617  ASP618  TYR619  PRO620  LYS621  CYS622 
 ASP623  PHE694  ASN695  SER759  ASP760  ASP761  ALA762  ILE779  LEU786  VAL792 
 PHE793  MET794  SER795  GLU796  ALA797  LYS798  CYS799  TRP800  GLU811  SER814 

> <Gold.Protein.RotatedAtoms>
  150.6868  134.2783  159.4616 H   0  0  0  0  0  0  0  0  0  0  0  0  # atno 6907 bound_to 6896
  152.0699  134.9537  160.0584 H   0  0  0  0  0  0  0  0  0  0  0  0  # atno 6908 bound_to 6896
  152.0931  133.4176  159.4590 H   0  0  0  0  0  0  0  0  0  0  0  0  # atno 6909 bound_to 6896
  145.6467  140.9295  143.1006 H   0  0  0  0  0  0  0  0  0  0  0  0  # atno 7974 bound_to 7965
  154.3997  140.1427  156.3650 H   0  0  0  0  0  0  0  0  0  0  0  0  # atno 8008 bound_to 7997
  155.8146  140.3471  155.5457 H   0  0  0  0  0  0  0  0  0  0  0  0  # atno 8009 bound_to 7997
  155.8351  140.0918  157.1759 H   0  0  0  0  0  0  0  0  0  0  0  0  # atno 8010 bound_to 7997
  139.7750  143.8183  152.2630 H   0  0  0  0  0  0  0  0  0  0  0  0  # atno 10167 bound_to 10162
  156.4975  130.8376  151.2596 H   0  0  0  0  0  0  0  0  0  0  0  0  # atno 10718 bound_to 10713
  154.1800  135.6445  153.5031 H   0  0  0  0  0  0  0  0  0  0  0  0  # atno 10763 bound_to 10752
  153.0062  135.5403  154.6524 H   0  0  0  0  0  0  0  0  0  0  0  0  # atno 10764 bound_to 10752
  154.5886  135.2932  155.0632 H   0  0  0  0  0  0  0  0  0  0  0  0  # atno 10765 bound_to 10752
  140.2543  134.7952  157.3531 H   0  0  0  0  0  0  0  0  0  0  0  0  # atno 11005 bound_to 11000
  144.7137  139.8274  143.7406 LP  0  0  0  0  0  0  0  0  0  0  0  0  # atno 17320 bound_to 7965
  146.1237  139.4259  143.0212 LP  0  0  0  0  0  0  0  0  0  0  0  0  # atno 17321 bound_to 7965
  139.8229  144.7288  150.9550 LP  0  0  0  0  0  0  0  0  0  0  0  0  # atno 17342 bound_to 10162
  140.7816  143.4142  151.0943 LP  0  0  0  0  0  0  0  0  0  0  0  0  # atno 17343 bound_to 10162
  157.7467  130.9993  150.2883 LP  0  0  0  0  0  0  0  0  0  0  0  0  # atno 17370 bound_to 10713
  156.3365  130.3808  149.7445 LP  0  0  0  0  0  0  0  0  0  0  0  0  # atno 17371 bound_to 10713
  140.1527  134.4829  155.7950 LP  0  0  0  0  0  0  0  0  0  0  0  0  # atno 17394 bound_to 11000
  141.2198  133.6869  156.7406 LP  0  0  0  0  0  0  0  0  0  0  0  0  # atno 17395 bound_to 11000

$$$$
