AV-unprocessed.smi:2735|AV-procd|sdf|10542|dock6
  -GOLD-   2272014593D 1   1.00000     0.00000
 Structure written by MMmdl.
 42 42  0  0  0  0  0  0  0  0  2 V2000
  145.5647  137.5540  152.4049 C   0  0  0  0  0  0  0  0  0  0  0  0
  146.1233  138.4968  153.4296 C   0  0  0  0  0  0  0  0  0  0  0  0
  145.9076  138.4975  154.8349 C   0  0  0  0  0  0  0  0  0  0  0  0
  146.6299  139.5655  155.2872 C   0  0  0  0  0  0  0  0  0  0  0  0
  146.7785  140.0969  156.6756 C   0  0  0  0  0  0  0  0  0  0  0  0
  147.2461  140.1368  154.1846 N   0  0  0  0  0  0  0  0  0  0  0  0
  148.0750  141.3421  154.1149 C   0  0  1  0  0  0  0  0  0  0  0  0
  147.3397  142.5824  154.6644 C   0  0  0  0  0  0  0  0  0  0  0  0
  149.4311  141.0927  154.7984 C   0  0  0  0  0  0  0  0  0  0  0  0
  150.1333  140.1302  154.4865 O   0  0  0  0  0  0  0  0  0  0  0  0
  149.7872  141.9912  155.7294 N   0  0  0  0  0  0  0  0  0  0  0  0
  151.0513  142.0254  156.4588 C   0  0  1  0  0  0  0  0  0  0  0  0
  150.9444  143.0871  157.5809 C   0  0  0  0  0  0  0  0  0  0  0  0
  152.2661  143.3980  158.3242 C   0  0  0  0  0  0  0  0  0  0  0  0
  152.0900  143.4507  159.8506 C   0  0  0  0  0  0  0  0  0  0  0  0
  152.8816  144.7069  157.8073 C   0  0  0  0  0  0  0  0  0  0  0  0
  151.3115  140.6559  157.1063 C   0  0  0  0  0  0  0  0  0  0  0  0
  150.4476  140.2351  157.9064 O   0  0  0  0  0  0  0  0  0  0  0  0
  152.3597  140.0484  156.7898 O   0  5  0  0  0  0  0  0  0  0  0  0
  146.9208  139.4789  153.0468 N   0  0  0  0  0  0  0  0  0  0  0  0
  151.8769  142.2691  155.7881 H   0  0  0  0  0  0  0  0  0  0  0  0
  144.6337  137.1059  152.7518 H   0  0  0  0  0  0  0  0  0  0  0  0
  146.2649  136.7457  152.1946 H   0  0  0  0  0  0  0  0  0  0  0  0
  145.3528  138.0663  151.4657 H   0  0  0  0  0  0  0  0  0  0  0  0
  145.3027  137.8225  155.4220 H   0  0  0  0  0  0  0  0  0  0  0  0
  146.2013  139.5021  157.3835 H   0  0  0  0  0  0  0  0  0  0  0  0
  146.4245  141.1260  156.7398 H   0  0  0  0  0  0  0  0  0  0  0  0
  147.8215  140.0738  156.9917 H   0  0  0  0  0  0  0  0  0  0  0  0
  148.2876  141.5407  153.0643 H   0  0  0  0  0  0  0  0  0  0  0  0
  147.9342  143.4858  154.5241 H   0  0  0  0  0  0  0  0  0  0  0  0
  147.1230  142.4915  155.7297 H   0  0  0  0  0  0  0  0  0  0  0  0
  146.3923  142.7328  154.1459 H   0  0  0  0  0  0  0  0  0  0  0  0
  149.1373  142.7353  155.9337 H   0  0  0  0  0  0  0  0  0  0  0  0
  150.5639  144.0202  157.1608 H   0  0  0  0  0  0  0  0  0  0  0  0
  150.1975  142.7634  158.3076 H   0  0  0  0  0  0  0  0  0  0  0  0
  152.9847  142.6079  158.1040 H   0  0  0  0  0  0  0  0  0  0  0  0
  151.3433  144.1912  160.1385 H   0  0  0  0  0  0  0  0  0  0  0  0
  153.0268  143.7127  160.3435 H   0  0  0  0  0  0  0  0  0  0  0  0
  151.7791  142.4858  160.2511 H   0  0  0  0  0  0  0  0  0  0  0  0
  152.2257  145.5566  157.9991 H   0  0  0  0  0  0  0  0  0  0  0  0
  153.0604  144.6599  156.7328 H   0  0  0  0  0  0  0  0  0  0  0  0
  153.8385  144.9093  158.2893 H   0  0  0  0  0  0  0  0  0  0  0  0
  1  2  1  0  0  0  0
  1 22  1  0  0  0  0
  1 23  1  0  0  0  0
  1 24  1  0  0  0  0
  2 20  2  0  0  0  0
  2  3  1  0  0  0  0
  3  4  2  0  0  0  0
  3 25  1  0  0  0  0
  4  5  1  0  0  0  0
  4  6  1  0  0  0  0
  5 26  1  0  0  0  0
  5 27  1  0  0  0  0
  5 28  1  0  0  0  0
  6  7  1  0  0  0  0
  6 20  1  0  0  0  0
  7  8  1  0  0  0  0
  7  9  1  0  0  0  0
  7 29  1  0  0  0  0
  8 30  1  0  0  0  0
  8 31  1  0  0  0  0
  8 32  1  0  0  0  0
  9 10  2  0  0  0  0
  9 11  1  0  0  0  0
 11 12  1  0  0  0  0
 11 33  1  0  0  0  0
 12 21  1  0  0  0  0
 12 13  1  0  0  0  0
 12 17  1  0  0  0  0
 13 14  1  0  0  0  0
 13 34  1  0  0  0  0
 13 35  1  0  0  0  0
 14 15  1  0  0  0  0
 14 16  1  0  0  0  0
 14 36  1  0  0  0  0
 15 37  1  0  0  0  0
 15 38  1  0  0  0  0
 15 39  1  0  0  0  0
 16 40  1  0  0  0  0
 16 41  1  0  0  0  0
 16 42  1  0  0  0  0
 17 18  2  0  0  0  0
 17 19  1  0  0  0  0
M  CHG  1  19  -1
M  END
> <s_m_source_file>
AV-unprocessed.smi

> <i_m_source_file_index>
2735

> <i_lp_mmshare_version>
43012

> <i_f3d_flags>
0

> <s_epik_input>
W0NIM11jMVtjSF1jKFtDSDNdKW4objEpW0NASF0oW0NIM10pQyg9TylbTkhdW0NASF0oQyg9TylbT0hdKVtDSDJdW0NIXShbQ0gzXSlbQ0gzXQ==

> <s_epik_cmdline>
J2VwaWtfcHl0aG9uJywgJy1waCcsICc3LjAnLCAnLXRuJywgJzgnLCAnLW1hJywgJzIwMCcsICctbWV0YWxfYmluZGluZycsICctaW1hZScsICc8aW5maWxlLm1hZT4nLCAnLW9tYWUnLCAnPG91dGZpbGUubWFlPic=

> <r_lp_tautomer_probability>
1

> <r_epik_Ionization_Penalty>
0.0012303

> <r_epik_Ionization_Penalty_Charging>
0.000186407

> <r_epik_Ionization_Penalty_Neutral>
0.0010439

> <r_epik_State_Penalty>
-0

> <r_epik_Charging_Adjusted_Penalty>
0.000186407

> <i_epik_Tot_Q>
-1

> <i_epik_Tot_abs_Q>
1

> <r_epik_Metal_State_Penalty>
-0

> <b_epik_Metal_Only>
0

> <s_lp_Force_Field>
OPLS_2005

> <r_lp_Energy>
6.48876

> <b_lp_Chiralities_Consistent>
1

> <s_lp_Variant>
AV-unprocessed.smi:2735-2

> <Gold.Version>
5.8.1

> <Gold.Id.Protein>
6NUR|6NUR_protein|mol2

> <Gold.PLP.Fitness>
44.8557

> <Gold.PLP.PLP>
-35.6466

> <Gold.PLP.part.hbond>
-3.0000

> <Gold.PLP.part.metal>
0.0000

> <Gold.PLP.part.buried>
-1.2649

> <Gold.PLP.part.nonpolar>
-32.0057

> <Gold.PLP.part.repulsive>
1.5542

> <Gold.PLP.ligand.clash>
0.5837

> <Gold.PLP.ligand.torsion>
0.8428

> <Gold.PLP.Chemscore.Hbond>
3.7644

> <Gold.PLP.Chemscore.CHOScore>
0.0000

> <Gold.PLP.Chemscore.Metal>
0.0000

> <Gold.Chemscore.Hbonds>
donor molecule, donor type, donor heavy atom, donor atom, acceptor molecule, acceptor atom, score
      L1  H    11    33       P1  8028  0.83
      P1  H  7989  7998       L1    10  1.00
      P1  H  7997  8010       L1    19  2.00

> <Gold.PLP.Chemscore.Internal.Correction>
0.1852

> <Gold.Rescore>
     Score         DG    S(hbond)    S(metal)    S(lipo)     H(rot)  DE(clash)    DE(int)     intcor
     14.52     -18.05       2.41        0.00      87.74       2.24       1.72       1.81       ----

> <Gold.Chemscore.Fitness>
14.5243

> <Gold.Chemscore.DG>
-18.0495

> <Gold.Chemscore.ZeroCoef>
-5.4800

> <Gold.Chemscore.Hbond>
2.4057

> <Gold.Chemscore.Metal>
0.0000

> <Gold.Chemscore.Lipo>
87.7413

> <Gold.Chemscore.Internal_Hbond>
0.0000

> <Gold.Chemscore.DEClash>
1.7150

> <Gold.Chemscore.DEInternal>
1.8102

> <Gold.Chemscore.Rot>
2.2388

> <Gold.Chemscore.Internal.Correction>
   9.000000E+99

> <Gold.Chemscore.Hbonds>
donor molecule, donor type, donor heavy atom, donor atom, acceptor molecule, acceptor atom, score
      L1  H    11    33       P1  8028  0.77
      P1  H  7989  7998       L1    10  0.48
      P1  H  7997  8010       L1    19  0.95

> <Gold.Chemscore.Hbond.Weighted>
-8.0351

> <Gold.Chemscore.Metal.Weighted>
-0.0000

> <Gold.Chemscore.Lipo.Weighted>
-10.2657

> <Gold.Chemscore.Internal_Hbond.Weighted>
0.0000

> <Gold.Chemscore.DEClash.Weighted>
1.7150

> <Gold.Chemscore.DEInternal.Weighted>
1.8102

> <Gold.Chemscore.Rot.Weighted>
5.7314

> <Gold.Chemscore.Internal.Correction.Weighted>
   9.000000E+99

> <Gold.Protein.RotatedTorsions>
[ 6907 6896 6895 6894 ] final  -17.28 input  -60.11 | X-H torsion
[ 7974 7965 7964 7962 ] final -132.08 input  175.53 | X-H torsion
[ 8008 7997 7996 7995 ] final   70.29 input   59.86 | X-H torsion
[ 10167 10162 10161 10158 ] final  -45.79 input  -65.29 | X-H torsion
[ 10718 10713 10712 10709 ] final -126.88 input   66.30 | X-H torsion
[ 10763 10752 10751 10750 ] final   51.99 input  -60.55 | X-H torsion
[ 11005 11000 10999 10996 ] final -102.44 input  -57.11 | X-H torsion

> <Gold.Protein.ActiveResidues>
 VAL166  LYS551  ARG553  GLY616  TRP617  ASP618  TYR619  PRO620  LYS621  CYS622 
 ASP623  PHE694  ASN695  SER759  ASP760  ASP761  ALA762  ILE779  LEU786  VAL792 
 PHE793  MET794  SER795  GLU796  ALA797  LYS798  CYS799  TRP800  GLU811  SER814 

> <Gold.Protein.RotatedAtoms>
  151.2957  135.0754  159.9219 H   0  0  0  0  0  0  0  0  0  0  0  0  # atno 6907 bound_to 6896
  152.5308  133.9886  159.7850 H   0  0  0  0  0  0  0  0  0  0  0  0  # atno 6908 bound_to 6896
  151.0163  133.5866  159.2707 H   0  0  0  0  0  0  0  0  0  0  0  0  # atno 6909 bound_to 6896
  144.9319  140.7138  143.4901 H   0  0  0  0  0  0  0  0  0  0  0  0  # atno 7974 bound_to 7965
  155.7366  140.3491  155.5084 H   0  0  0  0  0  0  0  0  0  0  0  0  # atno 8008 bound_to 7997
  155.9133  140.1054  157.1284 H   0  0  0  0  0  0  0  0  0  0  0  0  # atno 8009 bound_to 7997
  154.4059  140.1263  156.4572 H   0  0  0  0  0  0  0  0  0  0  0  0  # atno 8010 bound_to 7997
  140.6844  143.2862  151.3689 H   0  0  0  0  0  0  0  0  0  0  0  0  # atno 10167 bound_to 10162
  156.1805  130.6729  151.0299 H   0  0  0  0  0  0  0  0  0  0  0  0  # atno 10718 bound_to 10713
  152.9787  135.5827  154.4506 H   0  0  0  0  0  0  0  0  0  0  0  0  # atno 10763 bound_to 10752
  154.4095  135.2770  155.2047 H   0  0  0  0  0  0  0  0  0  0  0  0  # atno 10764 bound_to 10752
  154.3843  135.6139  153.5862 H   0  0  0  0  0  0  0  0  0  0  0  0  # atno 10765 bound_to 10752
  141.1189  133.8559  157.1360 H   0  0  0  0  0  0  0  0  0  0  0  0  # atno 11005 bound_to 11000
  145.3129  139.1813  143.4629 LP  0  0  0  0  0  0  0  0  0  0  0  0  # atno 17320 bound_to 7965
  146.3250  140.3136  142.8628 LP  0  0  0  0  0  0  0  0  0  0  0  0  # atno 17321 bound_to 7965
  139.6190  144.0944  152.2374 LP  0  0  0  0  0  0  0  0  0  0  0  0  # atno 17342 bound_to 10162
  140.0382  144.6028  150.7432 LP  0  0  0  0  0  0  0  0  0  0  0  0  # atno 17343 bound_to 10162
  157.6865  131.0823  150.7228 LP  0  0  0  0  0  0  0  0  0  0  0  0  # atno 17370 bound_to 10713
  156.7285  130.4702  149.5505 LP  0  0  0  0  0  0  0  0  0  0  0  0  # atno 17371 bound_to 10713
  140.0131  134.9979  157.0436 LP  0  0  0  0  0  0  0  0  0  0  0  0  # atno 17394 bound_to 11000
  140.4566  134.1527  155.7187 LP  0  0  0  0  0  0  0  0  0  0  0  0  # atno 17395 bound_to 11000

$$$$
