AV-unprocessed.smi:2051|AV-procd|sdf|8327|dock8
  -GOLD-   2272010593D 1   1.00000     0.00000
 Structure written by MMmdl.
 33 34  0  0  0  0  0  0  0  0  1 V2000
  149.1262  140.0832  157.0454 O   0  0  0  0  0  0  0  0  0  0  0  0
  149.2141  141.2898  157.2792 C   0  0  0  0  0  0  0  0  0  0  0  0
  150.4133  142.1100  156.7810 C   0  0  0  0  0  0  0  0  0  0  0  0
  151.2719  142.6190  157.8638 N   0  0  0  0  0  0  0  0  0  0  0  0
  151.3609  144.0182  158.0054 C   0  0  0  0  0  0  0  0  0  0  0  0
  152.1161  144.5893  158.9570 C   0  0  0  0  0  0  0  0  0  0  0  0
  152.8512  143.7284  159.8529 C   0  0  0  0  0  0  0  0  0  0  0  0
  152.7756  142.3887  159.7245 C   0  0  0  0  0  0  0  0  0  0  0  0
  151.9538  141.7603  158.6834 C   0  0  0  0  0  0  0  0  0  0  0  0
  151.8829  140.5376  158.5562 O   0  0  0  0  0  0  0  0  0  0  0  0
  148.2838  141.9738  157.9616 N   0  0  0  0  0  0  0  0  0  0  0  0
  147.0614  141.4060  158.5186 C   0  0  0  0  0  0  0  0  0  0  0  0
  146.6327  142.1276  159.8074 C   0  0  1  0  0  0  0  0  0  0  0  0
  145.3049  141.6328  160.3818 C   0  0  0  0  0  0  0  0  0  0  0  0
  145.4375  141.8802  161.8783 C   0  0  0  0  0  0  0  0  0  0  0  0
  146.9046  142.2731  162.0663 C   0  0  0  0  0  0  0  0  0  0  0  0
  147.5416  141.8651  160.8653 O   0  0  0  0  0  0  0  0  0  0  0  0
  150.9928  141.4860  156.0993 H   0  0  0  0  0  0  0  0  0  0  0  0
  150.0493  142.9368  156.1681 H   0  0  0  0  0  0  0  0  0  0  0  0
  150.7862  144.5905  157.2916 H   0  0  0  0  0  0  0  0  0  0  0  0
  152.1749  145.6640  159.0476 H   0  0  0  0  0  0  0  0  0  0  0  0
  153.4651  144.1605  160.6293 H   0  0  0  0  0  0  0  0  0  0  0  0
  153.3328  141.7603  160.4035 H   0  0  0  0  0  0  0  0  0  0  0  0
  148.4301  142.9628  158.1021 H   0  0  0  0  0  0  0  0  0  0  0  0
  146.2627  141.4522  157.7765 H   0  0  0  0  0  0  0  0  0  0  0  0
  147.2363  140.3488  158.7205 H   0  0  0  0  0  0  0  0  0  0  0  0
  146.5791  143.2061  159.6463 H   0  0  0  0  0  0  0  0  0  0  0  0
  144.4485  142.1446  159.9419 H   0  0  0  0  0  0  0  0  0  0  0  0
  145.1846  140.5640  160.2002 H   0  0  0  0  0  0  0  0  0  0  0  0
  144.7716  142.6717  162.2235 H   0  0  0  0  0  0  0  0  0  0  0  0
  145.1981  140.9738  162.4358 H   0  0  0  0  0  0  0  0  0  0  0  0
  147.0016  143.3546  162.1740 H   0  0  0  0  0  0  0  0  0  0  0  0
  147.3583  141.8021  162.9386 H   0  0  0  0  0  0  0  0  0  0  0  0
  1  2  2  0  0  0  0
  2  3  1  0  0  0  0
  2 11  1  0  0  0  0
  3  4  1  0  0  0  0
  3 18  1  0  0  0  0
  3 19  1  0  0  0  0
  4  9  1  0  0  0  0
  4  5  1  0  0  0  0
  5  6  2  0  0  0  0
  5 20  1  0  0  0  0
  6  7  1  0  0  0  0
  6 21  1  0  0  0  0
  7  8  2  0  0  0  0
  7 22  1  0  0  0  0
  8  9  1  0  0  0  0
  8 23  1  0  0  0  0
  9 10  2  0  0  0  0
 11 12  1  0  0  0  0
 11 24  1  0  0  0  0
 12 13  1  0  0  0  0
 12 25  1  0  0  0  0
 12 26  1  0  0  0  0
 13 17  1  0  0  0  0
 13 14  1  0  0  0  0
 13 27  1  0  0  0  0
 14 15  1  0  0  0  0
 14 28  1  0  0  0  0
 14 29  1  0  0  0  0
 15 16  1  0  0  0  0
 15 30  1  0  0  0  0
 15 31  1  0  0  0  0
 16 17  1  0  0  0  0
 16 32  1  0  0  0  0
 16 33  1  0  0  0  0
M  END
> <s_m_source_file>
AV-unprocessed.smi

> <i_m_source_file_index>
2051

> <i_lp_mmshare_version>
43012

> <i_f3d_flags>
0

> <s_epik_input>
TzFbQ0gyXVtDSDJdW0NIMl1bQ0BIXTFbQ0gyXVtOSF1DKD1PKVtDSDJdbjJbY0hdW2NIXVtjSF1bY0hdYzI9Tw==

> <s_epik_cmdline>
J2VwaWtfcHl0aG9uJywgJy1waCcsICc3LjAnLCAnLXRuJywgJzgnLCAnLW1hJywgJzIwMCcsICctbWV0YWxfYmluZGluZycsICctaW1hZScsICc8aW5maWxlLm1hZT4nLCAnLW9tYWUnLCAnPG91dGZpbGUubWFlPic=

> <r_lp_tautomer_probability>
1

> <r_epik_Ionization_Penalty>
3.94187e-07

> <r_epik_Ionization_Penalty_Charging>
3.67328e-07

> <r_epik_Ionization_Penalty_Neutral>
2.6859e-08

> <r_epik_State_Penalty>
-0

> <r_epik_Charging_Adjusted_Penalty>
3.67328e-07

> <i_epik_Tot_Q>
0

> <i_epik_Tot_abs_Q>
0

> <r_epik_Metal_State_Penalty>
-0

> <b_epik_Metal_Only>
0

> <s_lp_Force_Field>
OPLS_2005

> <r_lp_Energy>
26.6962

> <b_lp_Chiralities_Consistent>
1

> <s_lp_Variant>
AV-unprocessed.smi:2051-2

> <Gold.Version>
5.8.1

> <Gold.Id.Protein>
6NUR|6NUR_protein|mol2

> <Gold.PLP.Fitness>
42.2459

> <Gold.PLP.PLP>
-35.8367

> <Gold.PLP.part.hbond>
-2.6642

> <Gold.PLP.part.metal>
0.0000

> <Gold.PLP.part.buried>
-5.2465

> <Gold.PLP.part.nonpolar>
-29.3029

> <Gold.PLP.part.repulsive>
0.1345

> <Gold.PLP.ligand.clash>
0.0000

> <Gold.PLP.ligand.torsion>
0.2678

> <Gold.PLP.Chemscore.Hbond>
1.3100

> <Gold.PLP.Chemscore.CHOScore>
1.0000

> <Gold.PLP.Chemscore.Metal>
0.0000

> <Gold.Chemscore.Hbonds>
donor molecule, donor type, donor heavy atom, donor atom, acceptor molecule, acceptor atom, score
      L1  C     5    20       P1  8028  1.00

> <Gold.PLP.Chemscore.Internal.Correction>
0.0150

> <Gold.Rescore>
     Score         DG    S(hbond)    S(metal)    S(lipo)     H(rot)  DE(clash)    DE(int)     intcor
     13.06     -13.58       0.96        0.00      78.96       1.69       0.04       0.48       ----

> <Gold.Chemscore.Fitness>
13.0611

> <Gold.Chemscore.DG>
-13.5829

> <Gold.Chemscore.ZeroCoef>
-5.4800

> <Gold.Chemscore.Hbond>
0.9582

> <Gold.Chemscore.Metal>
0.0000

> <Gold.Chemscore.Lipo>
78.9594

> <Gold.Chemscore.Internal_Hbond>
0.0000

> <Gold.Chemscore.DEClash>
0.0375

> <Gold.Chemscore.DEInternal>
0.4842

> <Gold.Chemscore.Rot>
1.6936

> <Gold.Chemscore.Internal.Correction>
   9.000000E+99

> <Gold.Chemscore.Hbond.Weighted>
-3.2003

> <Gold.Chemscore.Metal.Weighted>
-0.0000

> <Gold.Chemscore.Lipo.Weighted>
-9.2382

> <Gold.Chemscore.Internal_Hbond.Weighted>
0.0000

> <Gold.Chemscore.DEClash.Weighted>
0.0375

> <Gold.Chemscore.DEInternal.Weighted>
0.4842

> <Gold.Chemscore.Rot.Weighted>
4.3357

> <Gold.Chemscore.Internal.Correction.Weighted>
   9.000000E+99

> <Gold.Protein.RotatedTorsions>
[ 6907 6896 6895 6894 ] final -161.70 input  -60.11 | X-H torsion
[ 7974 7965 7964 7962 ] final -177.36 input  175.53 | X-H torsion
[ 8008 7997 7996 7995 ] final  156.71 input   59.86 | X-H torsion
[ 10167 10162 10161 10158 ] final  -88.72 input  -65.29 | X-H torsion
[ 10718 10713 10712 10709 ] final   98.90 input   66.30 | X-H torsion
[ 10763 10752 10751 10750 ] final  -57.25 input  -60.55 | X-H torsion
[ 11005 11000 10999 10996 ] final   57.72 input  -57.11 | X-H torsion

> <Gold.Protein.ActiveResidues>
 VAL166  LYS551  ARG553  GLY616  TRP617  ASP618  TYR619  PRO620  LYS621  CYS622 
 ASP623  PHE694  ASN695  SER759  ASP760  ASP761  ALA762  ILE779  LEU786  VAL792 
 PHE793  MET794  SER795  GLU796  ALA797  LYS798  CYS799  TRP800  GLU811  SER814 

> <Gold.Protein.RotatedAtoms>
  151.3688  133.3862  159.2697 H   0  0  0  0  0  0  0  0  0  0  0  0  # atno 6907 bound_to 6896
  150.9667  134.9048  159.7774 H   0  0  0  0  0  0  0  0  0  0  0  0  # atno 6908 bound_to 6896
  152.5170  134.3649  159.9350 H   0  0  0  0  0  0  0  0  0  0  0  0  # atno 6909 bound_to 6896
  144.7127  140.1030  143.6415 H   0  0  0  0  0  0  0  0  0  0  0  0  # atno 7974 bound_to 7965
  156.2407  140.1905  156.6997 H   0  0  0  0  0  0  0  0  0  0  0  0  # atno 8008 bound_to 7997
  154.6191  140.0611  156.9619 H   0  0  0  0  0  0  0  0  0  0  0  0  # atno 8009 bound_to 7997
  155.1891  140.3283  155.4364 H   0  0  0  0  0  0  0  0  0  0  0  0  # atno 8010 bound_to 7997
  140.3719  143.2790  151.9490 H   0  0  0  0  0  0  0  0  0  0  0  0  # atno 10167 bound_to 10162
  157.6886  131.0654  150.4867 H   0  0  0  0  0  0  0  0  0  0  0  0  # atno 10718 bound_to 10713
  154.2195  135.6380  153.5140 H   0  0  0  0  0  0  0  0  0  0  0  0  # atno 10763 bound_to 10752
  152.9972  135.5493  154.6129 H   0  0  0  0  0  0  0  0  0  0  0  0  # atno 10764 bound_to 10752
  154.5586  135.2907  155.0915 H   0  0  0  0  0  0  0  0  0  0  0  0  # atno 10765 bound_to 10752
  140.0431  134.5844  155.9356 H   0  0  0  0  0  0  0  0  0  0  0  0  # atno 11005 bound_to 11000
  145.9521  139.2741  143.1206 LP  0  0  0  0  0  0  0  0  0  0  0  0  # atno 17320 bound_to 7965
  145.9312  140.9047  143.0355 LP  0  0  0  0  0  0  0  0  0  0  0  0  # atno 17321 bound_to 7965
  139.4803  144.5899  151.7789 LP  0  0  0  0  0  0  0  0  0  0  0  0  # atno 17342 bound_to 10162
  140.5025  144.1147  150.5974 LP  0  0  0  0  0  0  0  0  0  0  0  0  # atno 17343 bound_to 10162
  156.5196  130.4158  149.6258 LP  0  0  0  0  0  0  0  0  0  0  0  0  # atno 17370 bound_to 10713
  156.3166  130.7258  151.2162 LP  0  0  0  0  0  0  0  0  0  0  0  0  # atno 17371 bound_to 10713
  141.1893  133.6565  156.5363 LP  0  0  0  0  0  0  0  0  0  0  0  0  # atno 17394 bound_to 11000
  140.4037  134.7334  157.4795 LP  0  0  0  0  0  0  0  0  0  0  0  0  # atno 17395 bound_to 11000

$$$$
