AV-unprocessed.smi:886|AV-procd|sdf|4049|dock6
  -GOLD-   22720 1533D 1   1.00000     0.00000
 Structure written by MMmdl.
 35 37  0  0  0  0  0  0  0  0  1 V2000
  146.0207  142.0067  154.4498 C   0  0  0  0  0  0  0  0  0  0  0  0
  147.2599  141.3036  154.7430 N   0  0  0  0  0  0  0  0  0  0  0  0
  148.4834  141.8013  154.5064 C   0  0  0  0  0  0  0  0  0  0  0  0
  148.6764  142.9196  154.0277 O   0  0  0  0  0  0  0  0  0  0  0  0
  149.6295  140.9054  154.9013 C   0  0  0  0  0  0  0  0  0  0  0  0
  149.8818  139.7290  154.1570 C   0  0  0  0  0  0  0  0  0  0  0  0
  150.9693  138.9072  154.5021 C   0  0  0  0  0  0  0  0  0  0  0  0
  151.7781  139.2952  155.5837 C   0  0  0  0  0  0  0  0  0  0  0  0
  151.5580  140.4138  156.3031 N   0  0  0  0  0  0  0  0  0  0  0  0
  150.5119  141.2125  155.9777 C   0  0  0  0  0  0  0  0  0  0  0  0
  150.3101  142.3559  156.7721 N   0  0  0  0  0  0  0  0  0  0  0  0
  151.3398  142.8186  157.6964 C   0  0  1  0  0  0  0  0  0  0  0  0
  151.6002  144.3274  157.5963 C   0  0  0  0  0  0  0  0  0  0  0  0
  151.3473  144.7904  159.0364 C   0  0  2  0  0  0  0  0  0  0  0  0
  152.4281  144.2929  160.0057 C   0  0  0  0  0  0  0  0  0  0  0  0
  152.0869  142.8073  160.1173 C   0  0  0  0  0  0  0  0  0  0  0  0
  150.8922  142.6843  159.1617 C   0  0  1  0  0  0  0  0  0  0  0  0
  150.2700  143.9396  159.3852 O   0  0  0  0  0  0  0  0  0  0  0  0
  145.1677  141.3964  154.7462 H   0  0  0  0  0  0  0  0  0  0  0  0
  145.9365  142.2162  153.3826 H   0  0  0  0  0  0  0  0  0  0  0  0
  145.9709  142.9500  154.9954 H   0  0  0  0  0  0  0  0  0  0  0  0
  147.1847  140.3840  155.1533 H   0  0  0  0  0  0  0  0  0  0  0  0
  149.2554  139.4544  153.3206 H   0  0  0  0  0  0  0  0  0  0  0  0
  151.1810  138.0048  153.9480 H   0  0  0  0  0  0  0  0  0  0  0  0
  152.6243  138.6929  155.8791 H   0  0  0  0  0  0  0  0  0  0  0  0
  149.6531  143.0461  156.4363 H   0  0  0  0  0  0  0  0  0  0  0  0
  152.2527  142.2427  157.5385 H   0  0  0  0  0  0  0  0  0  0  0  0
  152.6107  144.5560  157.2562 H   0  0  0  0  0  0  0  0  0  0  0  0
  150.8978  144.8141  156.9178 H   0  0  0  0  0  0  0  0  0  0  0  0
  151.1263  145.8543  159.1263 H   0  0  0  0  0  0  0  0  0  0  0  0
  153.4355  144.4701  159.6280 H   0  0  0  0  0  0  0  0  0  0  0  0
  152.3342  144.7805  160.9767 H   0  0  0  0  0  0  0  0  0  0  0  0
  152.9166  142.1584  159.8348 H   0  0  0  0  0  0  0  0  0  0  0  0
  151.7922  142.5595  161.1377 H   0  0  0  0  0  0  0  0  0  0  0  0
  150.2598  141.8192  159.3649 H   0  0  0  0  0  0  0  0  0  0  0  0
  1  2  1  0  0  0  0
  1 19  1  0  0  0  0
  1 20  1  0  0  0  0
  1 21  1  0  0  0  0
  2  3  1  0  0  0  0
  2 22  1  0  0  0  0
  3  4  2  0  0  0  0
  3  5  1  0  0  0  0
  5 10  1  0  0  0  0
  5  6  2  0  0  0  0
  6  7  1  0  0  0  0
  6 23  1  0  0  0  0
  7  8  2  0  0  0  0
  7 24  1  0  0  0  0
  8  9  1  0  0  0  0
  8 25  1  0  0  0  0
  9 10  2  0  0  0  0
 10 11  1  0  0  0  0
 11 12  1  0  0  0  0
 11 26  1  0  0  0  0
 12 17  1  0  0  0  0
 12 13  1  0  0  0  0
 12 27  1  0  0  0  0
 13 14  1  0  0  0  0
 13 28  1  0  0  0  0
 13 29  1  0  0  0  0
 14 18  1  0  0  0  0
 14 15  1  0  0  0  0
 14 30  1  0  0  0  0
 15 16  1  0  0  0  0
 15 31  1  0  0  0  0
 15 32  1  0  0  0  0
 16 17  1  0  0  0  0
 16 33  1  0  0  0  0
 16 34  1  0  0  0  0
 17 18  1  0  0  0  0
 17 35  1  0  0  0  0
M  END
> <s_m_source_file>
AV-unprocessed.smi

> <i_m_source_file_index>
886

> <i_lp_mmshare_version>
43012

> <i_f3d_flags>
0

> <s_epik_input>
W0NIM11bTkhdQyg9TyljMVtjSF1bY0hdW2NIXW5jMVtOSF1bQ0BIXShbQ0gyXVtDQEhdMjMpW0NASF0oTzMpW0NIMl1bQ0gyXTI=

> <s_epik_cmdline>
J2VwaWtfcHl0aG9uJywgJy1waCcsICc3LjAnLCAnLXRuJywgJzgnLCAnLW1hJywgJzIwMCcsICctbWV0YWxfYmluZGluZycsICctaW1hZScsICc8aW5maWxlLm1hZT4nLCAnLW9tYWUnLCAnPG91dGZpbGUubWFlPic=

> <r_lp_tautomer_probability>
1

> <r_epik_Ionization_Penalty>
0.0065447

> <r_epik_Ionization_Penalty_Charging>
0

> <r_epik_Ionization_Penalty_Neutral>
0.0065447

> <r_epik_State_Penalty>
0.00484214

> <r_epik_Charging_Adjusted_Penalty>
0.00484214

> <i_epik_Tot_Q>
0

> <i_epik_Tot_abs_Q>
0

> <r_epik_Metal_State_Penalty>
-0

> <b_epik_Metal_Only>
0

> <s_lp_Force_Field>
OPLS_2005

> <r_lp_Energy>
46.3803

> <b_lp_Chiralities_Consistent>
1

> <s_lp_Variant>
AV-unprocessed.smi:886-2

> <Gold.Version>
5.8.1

> <Gold.Id.Protein>
6NUR|6NUR_protein|mol2

> <Gold.PLP.Fitness>
40.1069

> <Gold.PLP.PLP>
-36.9457

> <Gold.PLP.part.hbond>
-3.0000

> <Gold.PLP.part.metal>
0.0000

> <Gold.PLP.part.buried>
-2.6509

> <Gold.PLP.part.nonpolar>
-35.3931

> <Gold.PLP.part.repulsive>
4.5173

> <Gold.PLP.ligand.clash>
0.0000

> <Gold.PLP.ligand.torsion>
1.4315

> <Gold.PLP.Chemscore.Hbond>
2.0000

> <Gold.PLP.Chemscore.CHOScore>
0.0000

> <Gold.PLP.Chemscore.Metal>
0.0000

> <Gold.Chemscore.Hbonds>
donor molecule, donor type, donor heavy atom, donor atom, acceptor molecule, acceptor atom, score
      L1  H    11    26       P1  8028  1.00
      P1  H  8022  8030       L1     4  1.00

> <Gold.PLP.Chemscore.Internal.Correction>
0.0242

> <Gold.Rescore>
     Score         DG    S(hbond)    S(metal)    S(lipo)     H(rot)  DE(clash)    DE(int)     intcor
     18.39     -21.41       1.98        0.00     101.47       1.00       1.92       1.11       ----

> <Gold.Chemscore.Fitness>
18.3852

> <Gold.Chemscore.DG>
-21.4064

> <Gold.Chemscore.ZeroCoef>
-5.4800

> <Gold.Chemscore.Hbond>
1.9804

> <Gold.Chemscore.Metal>
0.0000

> <Gold.Chemscore.Lipo>
101.4708

> <Gold.Chemscore.Internal_Hbond>
0.0000

> <Gold.Chemscore.DEClash>
1.9153

> <Gold.Chemscore.DEInternal>
1.1059

> <Gold.Chemscore.Rot>
1.0000

> <Gold.Chemscore.Internal.Correction>
   9.000000E+99

> <Gold.Chemscore.Hbonds>
donor molecule, donor type, donor heavy atom, donor atom, acceptor molecule, acceptor atom, score
      L1  H    11    26       P1  8028  0.96
      P1  H  8011  8017       L1     4  0.01
      P1  H  8022  8030       L1     4  0.98

> <Gold.Chemscore.Hbond.Weighted>
-6.6144

> <Gold.Chemscore.Metal.Weighted>
-0.0000

> <Gold.Chemscore.Lipo.Weighted>
-11.8721

> <Gold.Chemscore.Internal_Hbond.Weighted>
0.0000

> <Gold.Chemscore.DEClash.Weighted>
1.9153

> <Gold.Chemscore.DEInternal.Weighted>
1.1059

> <Gold.Chemscore.Rot.Weighted>
2.5600

> <Gold.Chemscore.Internal.Correction.Weighted>
   9.000000E+99

> <Gold.Protein.RotatedTorsions>
[ 6907 6896 6895 6894 ] final   96.70 input  -60.11 | X-H torsion
[ 7974 7965 7964 7962 ] final  179.64 input  175.53 | X-H torsion
[ 8008 7997 7996 7995 ] final  120.21 input   59.86 | X-H torsion
[ 10167 10162 10161 10158 ] final -149.81 input  -65.29 | X-H torsion
[ 10718 10713 10712 10709 ] final   15.13 input   66.30 | X-H torsion
[ 10763 10752 10751 10750 ] final  110.03 input  -60.55 | X-H torsion
[ 11005 11000 10999 10996 ] final   -1.96 input  -57.11 | X-H torsion

> <Gold.Protein.ActiveResidues>
 VAL166  LYS551  ARG553  GLY616  TRP617  ASP618  TYR619  PRO620  LYS621  CYS622 
 ASP623  PHE694  ASN695  SER759  ASP760  ASP761  ALA762  ILE779  LEU786  VAL792 
 PHE793  MET794  SER795  GLU796  ALA797  LYS798  CYS799  TRP800  GLU811  SER814 

> <Gold.Protein.RotatedAtoms>
  152.5432  134.0846  159.8250 H   0  0  0  0  0  0  0  0  0  0  0  0  # atno 6907 bound_to 6896
  151.0944  133.5284  159.2620 H   0  0  0  0  0  0  0  0  0  0  0  0  # atno 6908 bound_to 6896
  151.2063  135.0472  159.8947 H   0  0  0  0  0  0  0  0  0  0  0  0  # atno 6909 bound_to 6896
  144.7144  140.0579  143.6433 H   0  0  0  0  0  0  0  0  0  0  0  0  # atno 7974 bound_to 7965
  156.2632  140.2836  156.1114 H   0  0  0  0  0  0  0  0  0  0  0  0  # atno 8008 bound_to 7997
  155.1254  140.0393  157.2778 H   0  0  0  0  0  0  0  0  0  0  0  0  # atno 8009 bound_to 7997
  154.6639  140.2573  155.7085 H   0  0  0  0  0  0  0  0  0  0  0  0  # atno 8010 bound_to 7997
  139.7409  143.8663  152.2562 H   0  0  0  0  0  0  0  0  0  0  0  0  # atno 10167 bound_to 10162
  157.0491  130.6262  149.5764 H   0  0  0  0  0  0  0  0  0  0  0  0  # atno 10718 bound_to 10713
  153.4432  135.3761  155.2240 H   0  0  0  0  0  0  0  0  0  0  0  0  # atno 10763 bound_to 10752
  154.8754  135.3868  154.4127 H   0  0  0  0  0  0  0  0  0  0  0  0  # atno 10764 bound_to 10752
  153.4676  135.7087  153.6076 H   0  0  0  0  0  0  0  0  0  0  0  0  # atno 10765 bound_to 10752
  140.6531  133.9387  155.8392 H   0  0  0  0  0  0  0  0  0  0  0  0  # atno 11005 bound_to 11000
  145.9889  139.2999  143.0997 LP  0  0  0  0  0  0  0  0  0  0  0  0  # atno 17320 bound_to 7965
  145.8926  140.9294  143.0544 LP  0  0  0  0  0  0  0  0  0  0  0  0  # atno 17321 bound_to 7965
  139.8613  144.7115  150.9096 LP  0  0  0  0  0  0  0  0  0  0  0  0  # atno 17342 bound_to 10162
  140.7786  143.3815  151.1469 LP  0  0  0  0  0  0  0  0  0  0  0  0  # atno 17343 bound_to 10162
  156.0013  130.5093  150.7674 LP  0  0  0  0  0  0  0  0  0  0  0  0  # atno 17370 bound_to 10713
  157.5044  131.0921  151.0274 LP  0  0  0  0  0  0  0  0  0  0  0  0  # atno 17371 bound_to 10713
  141.0522  134.0469  157.3769 LP  0  0  0  0  0  0  0  0  0  0  0  0  # atno 17394 bound_to 11000
  139.9039  135.0173  156.7395 LP  0  0  0  0  0  0  0  0  0  0  0  0  # atno 17395 bound_to 11000

$$$$
