AV-unprocessed.smi:1639|AV-procd|sdf|6550|dock9
  -GOLD-   22720 7233D 1   1.00000     0.00000
 Structure written by MMmdl.
 38 39  0  0  0  0  0  0  0  0  2 V2000
  150.6774  141.5583  158.2192 C   0  0  0  0  0  0  0  0  0  0  0  0
  151.7546  140.5201  158.5406 C   0  0  0  0  0  0  0  0  0  0  0  0
  152.4407  140.1846  157.3456 O   0  0  0  0  0  0  0  0  0  0  0  0
  151.8070  139.1662  156.5849 C   0  0  2  0  0  0  0  0  0  0  0  0
  152.8503  138.5100  155.6652 C   0  0  0  0  0  0  0  0  0  0  0  0
  152.1667  137.5124  154.7155 C   0  0  0  0  0  0  0  0  0  0  0  0
  151.0228  138.1869  153.9374 C   0  0  0  0  0  0  0  0  0  0  0  0
  150.0827  138.8330  154.8504 N   0  0  0  0  0  0  0  0  0  0  0  0
  148.9335  139.3112  154.2088 C   0  0  0  0  0  0  0  0  0  0  0  0
  148.3936  140.5686  154.5384 C   0  0  0  0  0  0  0  0  0  0  0  0
  147.2437  140.9695  153.8366 C   0  0  0  0  0  0  0  0  0  0  0  0
  146.5784  142.3039  154.1000 C   0  0  0  0  0  0  0  0  0  0  0  0
  146.6823  140.1841  152.8946 N   0  0  0  0  0  0  0  0  0  0  0  0
  147.2412  138.9981  152.6286 C   0  0  0  0  0  0  0  0  0  0  0  0
  146.6621  138.2046  151.6673 N   0  0  0  0  0  0  0  0  0  0  0  0
  148.3387  138.5480  153.2542 N   0  3  0  0  0  0  0  0  0  0  0  0
  150.6854  139.8104  155.7530 C   0  0  0  0  0  0  0  0  0  0  0  0
  150.1282  141.8412  159.1174 H   0  0  0  0  0  0  0  0  0  0  0  0
  149.9594  141.1663  157.4983 H   0  0  0  0  0  0  0  0  0  0  0  0
  151.1176  142.4621  157.7972 H   0  0  0  0  0  0  0  0  0  0  0  0
  152.4550  140.9218  159.2745 H   0  0  0  0  0  0  0  0  0  0  0  0
  151.2940  139.6296  158.9711 H   0  0  0  0  0  0  0  0  0  0  0  0
  151.3694  138.3974  157.2260 H   0  0  0  0  0  0  0  0  0  0  0  0
  153.3622  139.2766  155.0821 H   0  0  0  0  0  0  0  0  0  0  0  0
  153.6135  138.0058  156.2586 H   0  0  0  0  0  0  0  0  0  0  0  0
  152.8970  137.0959  154.0211 H   0  0  0  0  0  0  0  0  0  0  0  0
  151.7716  136.6740  155.2907 H   0  0  0  0  0  0  0  0  0  0  0  0
  151.4310  138.9292  153.2499 H   0  0  0  0  0  0  0  0  0  0  0  0
  150.4990  137.4453  153.3328 H   0  0  0  0  0  0  0  0  0  0  0  0
  148.8472  141.1954  155.2927 H   0  0  0  0  0  0  0  0  0  0  0  0
  147.1090  142.8622  154.8720 H   0  0  0  0  0  0  0  0  0  0  0  0
  145.5502  142.1575  154.4318 H   0  0  0  0  0  0  0  0  0  0  0  0
  146.5652  142.9082  153.1925 H   0  0  0  0  0  0  0  0  0  0  0  0
  145.8354  138.5157  151.1779 H   0  0  0  0  0  0  0  0  0  0  0  0
  147.0523  137.3008  151.4425 H   0  0  0  0  0  0  0  0  0  0  0  0
  149.9216  140.2208  156.4150 H   0  0  0  0  0  0  0  0  0  0  0  0
  151.0878  140.6424  155.1729 H   0  0  0  0  0  0  0  0  0  0  0  0
  148.7372  137.6382  153.0223 H   0  0  0  0  0  0  0  0  0  0  0  0
  1  2  1  0  0  0  0
  1 18  1  0  0  0  0
  1 19  1  0  0  0  0
  1 20  1  0  0  0  0
  2  3  1  0  0  0  0
  2 21  1  0  0  0  0
  2 22  1  0  0  0  0
  3  4  1  0  0  0  0
  4 17  1  0  0  0  0
  4  5  1  0  0  0  0
  4 23  1  0  0  0  0
  5  6  1  0  0  0  0
  5 24  1  0  0  0  0
  5 25  1  0  0  0  0
  6  7  1  0  0  0  0
  6 26  1  0  0  0  0
  6 27  1  0  0  0  0
  7  8  1  0  0  0  0
  7 28  1  0  0  0  0
  7 29  1  0  0  0  0
  8  9  1  0  0  0  0
  8 17  1  0  0  0  0
  9 16  1  0  0  0  0
  9 10  2  0  0  0  0
 10 11  1  0  0  0  0
 10 30  1  0  0  0  0
 11 12  1  0  0  0  0
 11 13  2  0  0  0  0
 12 31  1  0  0  0  0
 12 32  1  0  0  0  0
 12 33  1  0  0  0  0
 13 14  1  0  0  0  0
 14 15  1  0  0  0  0
 14 16  2  0  0  0  0
 15 34  1  0  0  0  0
 15 35  1  0  0  0  0
 16 38  1  0  0  0  0
 17 36  1  0  0  0  0
 17 37  1  0  0  0  0
M  CHG  1  16   1
M  END
> <s_m_source_file>
AV-unprocessed.smi

> <i_m_source_file_index>
1639

> <i_lp_mmshare_version>
43012

> <i_f3d_flags>
0

> <s_epik_input>
W0NIM11bQ0gyXU9bQ0BASF0xW0NIMl1bQ0gyXVtDSDJdTihbQ0gyXTEpYzJbY0hdYyhbQ0gzXSluYyhuMilbTkgyXQ==

> <s_epik_cmdline>
J2VwaWtfcHl0aG9uJywgJy1waCcsICc3LjAnLCAnLXRuJywgJzgnLCAnLW1hJywgJzIwMCcsICctbWV0YWxfYmluZGluZycsICctaW1hZScsICc8aW5maWxlLm1hZT4nLCAnLW9tYWUnLCAnPG91dGZpbGUubWFlPic=

> <r_lp_tautomer_probability>
0.424989

> <r_epik_Ionization_Penalty>
0.443088

> <r_epik_Ionization_Penalty_Charging>
0.443085

> <r_epik_Ionization_Penalty_Neutral>
3.21819e-06

> <r_epik_State_Penalty>
1.26241

> <r_epik_Charging_Adjusted_Penalty>
1.70549

> <i_epik_Tot_Q>
1

> <i_epik_Tot_abs_Q>
1

> <r_epik_Metal_State_Penalty>
1.59997

> <b_epik_Metal_Only>
0

> <s_lp_Force_Field>
OPLS_2005

> <r_lp_Energy>
14.3037

> <b_lp_Chiralities_Consistent>
1

> <s_lp_Variant>
AV-unprocessed.smi:1639-3

> <Gold.Version>
5.8.1

> <Gold.Id.Protein>
6NUR|6NUR_protein|mol2

> <Gold.PLP.Fitness>
38.3990

> <Gold.PLP.PLP>
-28.8743

> <Gold.PLP.part.hbond>
-4.1145

> <Gold.PLP.part.metal>
0.0000

> <Gold.PLP.part.buried>
1.2714

> <Gold.PLP.part.nonpolar>
-26.8619

> <Gold.PLP.part.repulsive>
1.2238

> <Gold.PLP.ligand.clash>
1.7191

> <Gold.PLP.ligand.torsion>
0.6425

> <Gold.PLP.Chemscore.Hbond>
4.1244

> <Gold.PLP.Chemscore.CHOScore>
0.0000

> <Gold.PLP.Chemscore.Metal>
0.0000

> <Gold.Chemscore.Hbonds>
donor molecule, donor type, donor heavy atom, donor atom, acceptor molecule, acceptor atom, score
      L1  H    15    34       P1 10171  0.11
      L1  H    15    35       P1  7948  0.91
      L1  H    16    38       P1  7948  2.00
      P1  H  7997  8008       L1     3  0.93

> <Gold.PLP.Chemscore.Internal.Correction>
0.1556

> <Gold.Rescore>
     Score         DG    S(hbond)    S(metal)    S(lipo)     H(rot)  DE(clash)    DE(int)     intcor
     15.56     -18.15       2.49        0.00      69.02       1.46       1.85       0.74       ----

> <Gold.Chemscore.Fitness>
15.5607

> <Gold.Chemscore.DG>
-18.1463

> <Gold.Chemscore.ZeroCoef>
-5.4800

> <Gold.Chemscore.Hbond>
2.4904

> <Gold.Chemscore.Metal>
0.0000

> <Gold.Chemscore.Lipo>
69.0229

> <Gold.Chemscore.Internal_Hbond>
0.0000

> <Gold.Chemscore.DEClash>
1.8498

> <Gold.Chemscore.DEInternal>
0.7358

> <Gold.Chemscore.Rot>
1.4560

> <Gold.Chemscore.Internal.Correction>
   9.000000E+99

> <Gold.Chemscore.Hbonds>
donor molecule, donor type, donor heavy atom, donor atom, acceptor molecule, acceptor atom, score
      L1  H    15    34       P1 10171  0.14
      L1  H    15    35       P1  7948  0.45
      L1  H    16    38       P1  7948  0.95
      P1  H  7997  8008       L1     3  0.25

> <Gold.Chemscore.Hbond.Weighted>
-8.3178

> <Gold.Chemscore.Metal.Weighted>
-0.0000

> <Gold.Chemscore.Lipo.Weighted>
-8.0757

> <Gold.Chemscore.Internal_Hbond.Weighted>
0.0000

> <Gold.Chemscore.DEClash.Weighted>
1.8498

> <Gold.Chemscore.DEInternal.Weighted>
0.7358

> <Gold.Chemscore.Rot.Weighted>
3.7272

> <Gold.Chemscore.Internal.Correction.Weighted>
   9.000000E+99

> <Gold.Protein.RotatedTorsions>
[ 6907 6896 6895 6894 ] final  -95.38 input  -60.11 | X-H torsion
[ 7974 7965 7964 7962 ] final -123.50 input  175.53 | X-H torsion
[ 8008 7997 7996 7995 ] final  -56.48 input   59.86 | X-H torsion
[ 10167 10162 10161 10158 ] final   10.68 input  -65.29 | X-H torsion
[ 10718 10713 10712 10709 ] final  118.26 input   66.30 | X-H torsion
[ 10763 10752 10751 10750 ] final  154.59 input  -60.55 | X-H torsion
[ 11005 11000 10999 10996 ] final   21.70 input  -57.11 | X-H torsion

> <Gold.Protein.ActiveResidues>
 VAL166  LYS551  ARG553  GLY616  TRP617  ASP618  TYR619  PRO620  LYS621  CYS622 
 ASP623  PHE694  ASN695  SER759  ASP760  ASP761  ALA762  ILE779  LEU786  VAL792 
 PHE793  MET794  SER795  GLU796  ALA797  LYS798  CYS799  TRP800  GLU811  SER814 

> <Gold.Protein.RotatedAtoms>
  150.6963  134.1666  159.4196 H   0  0  0  0  0  0  0  0  0  0  0  0  # atno 6907 bound_to 6896
  151.9645  135.0105  160.0559 H   0  0  0  0  0  0  0  0  0  0  0  0  # atno 6908 bound_to 6896
  152.1897  133.4729  159.5038 H   0  0  0  0  0  0  0  0  0  0  0  0  # atno 6909 bound_to 6896
  145.0181  140.7964  143.4398 H   0  0  0  0  0  0  0  0  0  0  0  0  # atno 7974 bound_to 7965
  154.4232  140.1128  156.5645 H   0  0  0  0  0  0  0  0  0  0  0  0  # atno 8008 bound_to 7997
  155.6277  140.3495  155.4653 H   0  0  0  0  0  0  0  0  0  0  0  0  # atno 8009 bound_to 7997
  155.9973  140.1192  157.0570 H   0  0  0  0  0  0  0  0  0  0  0  0  # atno 8010 bound_to 7997
  140.6179  143.8268  150.7140 H   0  0  0  0  0  0  0  0  0  0  0  0  # atno 10167 bound_to 10162
  157.6042  131.1046  150.7731 H   0  0  0  0  0  0  0  0  0  0  0  0  # atno 10718 bound_to 10713
  154.1547  135.2813  155.3125 H   0  0  0  0  0  0  0  0  0  0  0  0  # atno 10763 bound_to 10752
  154.6191  135.5473  153.7559 H   0  0  0  0  0  0  0  0  0  0  0  0  # atno 10764 bound_to 10752
  153.0210  135.6434  154.1690 H   0  0  0  0  0  0  0  0  0  0  0  0  # atno 10765 bound_to 10752
  140.3887  134.1842  155.7663 H   0  0  0  0  0  0  0  0  0  0  0  0  # atno 11005 bound_to 11000
  145.1933  139.2290  143.5231 LP  0  0  0  0  0  0  0  0  0  0  0  0  # atno 17320 bound_to 7965
  146.3481  140.1734  142.8589 LP  0  0  0  0  0  0  0  0  0  0  0  0  # atno 17321 bound_to 7965
  140.1852  143.4082  152.1904 LP  0  0  0  0  0  0  0  0  0  0  0  0  # atno 17342 bound_to 10162
  139.5414  144.7259  151.4723 LP  0  0  0  0  0  0  0  0  0  0  0  0  # atno 17343 bound_to 10162
  156.8123  130.4956  149.5354 LP  0  0  0  0  0  0  0  0  0  0  0  0  # atno 17370 bound_to 10713
  156.1123  130.6049  151.0067 LP  0  0  0  0  0  0  0  0  0  0  0  0  # atno 17371 bound_to 10713
  141.1898  133.8230  157.0942 LP  0  0  0  0  0  0  0  0  0  0  0  0  # atno 17394 bound_to 11000
  140.0423  134.9848  157.0984 LP  0  0  0  0  0  0  0  0  0  0  0  0  # atno 17395 bound_to 11000

$$$$
