AV-unprocessed.smi:1607|AV-procd|sdf|6463|dock3
  -GOLD-   22720 7113D 1   1.00000     0.00000
 Structure written by MMmdl.
 39 40  0  0  0  0  0  0  0  0  2 V2000
  144.5544  132.8633  149.8763 C   0  0  0  0  0  0  0  0  0  0  0  0
  145.6213  132.0368  150.6086 C   0  0  2  0  0  0  0  0  0  0  0  0
  144.9822  131.0263  151.5759 C   0  0  0  0  0  0  0  0  0  0  0  0
  146.0699  130.2364  152.3137 C   0  0  0  0  0  0  0  0  0  0  0  0
  147.0485  131.1838  153.0247 C   0  0  0  0  0  0  0  0  0  0  0  0
  147.6565  132.1428  152.0665 N   0  3  2  0  0  0  0  0  0  0  0  0
  148.7048  132.9793  152.7029 C   0  0  0  0  0  0  0  0  0  0  0  0
  148.2192  133.6401  154.0079 C   0  0  0  0  0  0  0  0  0  0  0  0
  148.9838  134.8430  154.3153 N   0  0  0  0  0  0  0  0  0  0  0  0
  149.5738  135.0982  155.4937 C   0  0  0  0  0  0  0  0  0  0  0  0
  149.5319  134.3277  156.4526 O   0  0  0  0  0  0  0  0  0  0  0  0
  150.3285  136.4223  155.6092 C   0  0  0  0  0  0  0  0  0  0  0  0
  151.0398  136.5062  156.8702 N   0  0  0  0  0  0  0  0  0  0  0  0
  150.6623  136.9771  158.0607 C   0  0  0  0  0  0  0  0  0  0  0  0
  151.6315  136.8722  158.9569 N   0  0  0  0  0  0  0  0  0  0  0  0
  152.6642  136.2937  158.2379 N   0  0  0  0  0  0  0  0  0  0  0  0
  152.3194  136.0753  156.9985 N   0  0  0  0  0  0  0  0  0  0  0  0
  146.6179  132.9420  151.3614 C   0  0  0  0  0  0  0  0  0  0  0  0
  143.9621  133.4551  150.5747 H   0  0  0  0  0  0  0  0  0  0  0  0
  143.8703  132.2196  149.3225 H   0  0  0  0  0  0  0  0  0  0  0  0
  145.0098  133.5494  149.1617 H   0  0  0  0  0  0  0  0  0  0  0  0
  146.1773  131.4770  149.8547 H   0  0  0  0  0  0  0  0  0  0  0  0
  144.3536  131.5475  152.2995 H   0  0  0  0  0  0  0  0  0  0  0  0
  144.3300  130.3412  151.0329 H   0  0  0  0  0  0  0  0  0  0  0  0
  145.6135  129.5603  153.0371 H   0  0  0  0  0  0  0  0  0  0  0  0
  146.6144  129.6104  151.6054 H   0  0  0  0  0  0  0  0  0  0  0  0
  146.5352  131.7326  153.8161 H   0  0  0  0  0  0  0  0  0  0  0  0
  147.8302  130.5923  153.5030 H   0  0  0  0  0  0  0  0  0  0  0  0
  149.5981  132.3758  152.8728 H   0  0  0  0  0  0  0  0  0  0  0  0
  148.9995  133.7736  152.0156 H   0  0  0  0  0  0  0  0  0  0  0  0
  147.1702  133.9219  153.9123 H   0  0  0  0  0  0  0  0  0  0  0  0
  148.2800  132.9544  154.8534 H   0  0  0  0  0  0  0  0  0  0  0  0
  149.0618  135.5365  153.5847 H   0  0  0  0  0  0  0  0  0  0  0  0
  151.0478  136.5107  154.7939 H   0  0  0  0  0  0  0  0  0  0  0  0
  149.6401  137.2646  155.5229 H   0  0  0  0  0  0  0  0  0  0  0  0
  149.6878  137.3943  158.2676 H   0  0  0  0  0  0  0  0  0  0  0  0
  147.0876  133.6188  150.6487 H   0  0  0  0  0  0  0  0  0  0  0  0
  146.0889  133.5663  152.0835 H   0  0  0  0  0  0  0  0  0  0  0  0
  148.1228  131.5822  151.3678 H   0  0  0  0  0  0  0  0  0  0  0  0
  1  2  1  0  0  0  0
  1 19  1  0  0  0  0
  1 20  1  0  0  0  0
  1 21  1  0  0  0  0
  2 18  1  0  0  0  0
  2  3  1  0  0  0  0
  2 22  1  0  0  0  0
  3  4  1  0  0  0  0
  3 23  1  0  0  0  0
  3 24  1  0  0  0  0
  4  5  1  0  0  0  0
  4 25  1  0  0  0  0
  4 26  1  0  0  0  0
  5  6  1  0  0  0  0
  5 27  1  0  0  0  0
  5 28  1  0  0  0  0
  6  7  1  0  0  0  0
  6 18  1  0  0  0  0
  6 39  1  0  0  0  0
  7  8  1  0  0  0  0
  7 29  1  0  0  0  0
  7 30  1  0  0  0  0
  8  9  1  0  0  0  0
  8 31  1  0  0  0  0
  8 32  1  0  0  0  0
  9 10  1  0  0  0  0
  9 33  1  0  0  0  0
 10 11  2  0  0  0  0
 10 12  1  0  0  0  0
 12 13  1  0  0  0  0
 12 34  1  0  0  0  0
 12 35  1  0  0  0  0
 13 17  1  0  0  0  0
 13 14  1  0  0  0  0
 14 15  2  0  0  0  0
 14 36  1  0  0  0  0
 15 16  1  0  0  0  0
 16 17  2  0  0  0  0
 18 37  1  0  0  0  0
 18 38  1  0  0  0  0
M  CHG  1   6   1
M  END
> <s_m_source_file>
AV-unprocessed.smi

> <i_m_source_file_index>
1607

> <i_lp_mmshare_version>
43012

> <i_f3d_flags>
0

> <s_epik_input>
W0NIM11bQ0BASF0xW0NIMl1bQ0gyXVtDSDJdTihbQ0gyXTEpW0NIMl1bQ0gyXVtOSF1DKD1PKVtDSDJdbjJbY0hdbm5uMg==

> <s_epik_cmdline>
J2VwaWtfcHl0aG9uJywgJy1waCcsICc3LjAnLCAnLXRuJywgJzgnLCAnLW1hJywgJzIwMCcsICctbWV0YWxfYmluZGluZycsICctaW1hZScsICc8aW5maWxlLm1hZT4nLCAnLW9tYWUnLCAnPG91dGZpbGUubWFlPic=

> <r_lp_tautomer_probability>
1

> <r_epik_Ionization_Penalty>
0.00268321

> <r_epik_Ionization_Penalty_Charging>
0.00267875

> <r_epik_Ionization_Penalty_Neutral>
4.46125e-06

> <r_epik_State_Penalty>
0.00186642

> <r_epik_Charging_Adjusted_Penalty>
0.00454517

> <i_epik_Tot_Q>
1

> <i_epik_Tot_abs_Q>
1

> <r_epik_Metal_State_Penalty>
-0

> <b_epik_Metal_Only>
0

> <s_lp_Force_Field>
OPLS_2005

> <r_lp_Energy>
18.3574

> <b_lp_Chiralities_Consistent>
1

> <s_lp_Variant>
AV-unprocessed.smi:1607-1

> <Gold.Version>
5.8.1

> <Gold.Id.Protein>
6NUR|6NUR_protein|mol2

> <Gold.PLP.Fitness>
40.0743

> <Gold.PLP.PLP>
-29.8663

> <Gold.PLP.part.hbond>
-4.6462

> <Gold.PLP.part.metal>
0.0000

> <Gold.PLP.part.buried>
-4.3478

> <Gold.PLP.part.nonpolar>
-19.9547

> <Gold.PLP.part.repulsive>
0.0257

> <Gold.PLP.ligand.clash>
0.0000

> <Gold.PLP.ligand.torsion>
0.6665

> <Gold.PLP.Chemscore.Hbond>
3.8320

> <Gold.PLP.Chemscore.CHOScore>
0.0000

> <Gold.PLP.Chemscore.Metal>
0.0000

> <Gold.Chemscore.Hbonds>
donor molecule, donor type, donor heavy atom, donor atom, acceptor molecule, acceptor atom, score
      L1  H     6    39       P1 10747  1.00
      L1  H     9    33       P1  7948  1.00
      P1  H  6896  6908       L1    15  0.38
      P1  H 10752 10764       L1    17  0.62

> <Gold.PLP.Chemscore.Internal.Correction>
0.0450

> <Gold.Rescore>
     Score         DG    S(hbond)    S(metal)    S(lipo)     H(rot)  DE(clash)    DE(int)     intcor
     14.89     -15.71       2.83        0.00      65.48       2.69       0.06       0.76       ----

> <Gold.Chemscore.Fitness>
14.8945

> <Gold.Chemscore.DG>
-15.7144

> <Gold.Chemscore.ZeroCoef>
-5.4800

> <Gold.Chemscore.Hbond>
2.8347

> <Gold.Chemscore.Metal>
0.0000

> <Gold.Chemscore.Lipo>
65.4788

> <Gold.Chemscore.Internal_Hbond>
0.0000

> <Gold.Chemscore.DEClash>
0.0619

> <Gold.Chemscore.DEInternal>
0.7580

> <Gold.Chemscore.Rot>
2.6932

> <Gold.Chemscore.Internal.Correction>
   9.000000E+99

> <Gold.Chemscore.Hbonds>
donor molecule, donor type, donor heavy atom, donor atom, acceptor molecule, acceptor atom, score
      L1  H     6    39       P1 10747  0.96
      L1  H     9    33       P1  7948  0.69
      P1  H  6896  6908       L1    15  0.01
      P1  H 10752 10764       L1    17  0.51

> <Gold.Chemscore.Hbond.Weighted>
-9.4678

> <Gold.Chemscore.Metal.Weighted>
-0.0000

> <Gold.Chemscore.Lipo.Weighted>
-7.6610

> <Gold.Chemscore.Internal_Hbond.Weighted>
0.0000

> <Gold.Chemscore.DEClash.Weighted>
0.0619

> <Gold.Chemscore.DEInternal.Weighted>
0.7580

> <Gold.Chemscore.Rot.Weighted>
6.8945

> <Gold.Chemscore.Internal.Correction.Weighted>
   9.000000E+99

> <Gold.Protein.RotatedTorsions>
[ 6907 6896 6895 6894 ] final -127.16 input  -60.11 | X-H torsion
[ 7974 7965 7964 7962 ] final   97.60 input  175.53 | X-H torsion
[ 8008 7997 7996 7995 ] final  -74.35 input   59.86 | X-H torsion
[ 10167 10162 10161 10158 ] final   59.90 input  -65.29 | X-H torsion
[ 10718 10713 10712 10709 ] final   37.39 input   66.30 | X-H torsion
[ 10763 10752 10751 10750 ] final  -28.56 input  -60.55 | X-H torsion
[ 11005 11000 10999 10996 ] final  -70.51 input  -57.11 | X-H torsion

> <Gold.Protein.ActiveResidues>
 VAL166  LYS551  ARG553  GLY616  TRP617  ASP618  TYR619  PRO620  LYS621  CYS622 
 ASP623  PHE694  ASN695  SER759  ASP760  ASP761  ALA762  ILE779  LEU786  VAL792 
 PHE793  MET794  SER795  GLU796  ALA797  LYS798  CYS799  TRP800  GLU811  SER814 

> <Gold.Protein.RotatedAtoms>
  150.9044  133.7077  159.2870 H   0  0  0  0  0  0  0  0  0  0  0  0  # atno 6907 bound_to 6896
  151.4585  135.1035  159.9727 H   0  0  0  0  0  0  0  0  0  0  0  0  # atno 6908 bound_to 6896
  152.4895  133.8413  159.7209 H   0  0  0  0  0  0  0  0  0  0  0  0  # atno 6909 bound_to 6896
  145.4233  139.2319  143.3184 H   0  0  0  0  0  0  0  0  0  0  0  0  # atno 7974 bound_to 7965
  154.5324  140.0763  156.8368 H   0  0  0  0  0  0  0  0  0  0  0  0  # atno 8008 bound_to 7997
  155.3348  140.3404  155.4221 H   0  0  0  0  0  0  0  0  0  0  0  0  # atno 8009 bound_to 7997
  156.1794  140.1647  156.8289 H   0  0  0  0  0  0  0  0  0  0  0  0  # atno 8010 bound_to 7997
  140.1715  144.4272  150.6659 H   0  0  0  0  0  0  0  0  0  0  0  0  # atno 10167 bound_to 10162
  157.3463  130.7574  149.6947 H   0  0  0  0  0  0  0  0  0  0  0  0  # atno 10718 bound_to 10713
  153.7503  135.6926  153.4947 H   0  0  0  0  0  0  0  0  0  0  0  0  # atno 10763 bound_to 10752
  153.2008  135.4437  155.0263 H   0  0  0  0  0  0  0  0  0  0  0  0  # atno 10764 bound_to 10752
  154.8190  135.3412  154.7024 H   0  0  0  0  0  0  0  0  0  0  0  0  # atno 10765 bound_to 10752
  141.1575  133.6792  156.6763 H   0  0  0  0  0  0  0  0  0  0  0  0  # atno 11005 bound_to 11000
  146.2645  140.4960  142.8839 LP  0  0  0  0  0  0  0  0  0  0  0  0  # atno 17320 bound_to 7965
  144.8231  140.6583  143.6340 LP  0  0  0  0  0  0  0  0  0  0  0  0  # atno 17321 bound_to 7965
  140.6579  143.2243  151.5925 LP  0  0  0  0  0  0  0  0  0  0  0  0  # atno 17342 bound_to 10162
  139.5336  144.2845  152.1202 LP  0  0  0  0  0  0  0  0  0  0  0  0  # atno 17343 bound_to 10162
  155.9715  130.4153  150.4176 LP  0  0  0  0  0  0  0  0  0  0  0  0  # atno 17370 bound_to 10713
  157.2232  131.0487  151.2535 LP  0  0  0  0  0  0  0  0  0  0  0  0  # atno 17371 bound_to 10713
  140.3136  134.8066  157.4196 LP  0  0  0  0  0  0  0  0  0  0  0  0  # atno 17394 bound_to 11000
  140.1157  134.5286  155.8227 LP  0  0  0  0  0  0  0  0  0  0  0  0  # atno 17395 bound_to 11000

$$$$
