AV-unprocessed.smi:3331|AV-procd|sdf|12825|dock8
  -GOLD-   2272019203D 1   1.00000     0.00000
 Structure written by MMmdl.
 46 47  0  0  0  0  0  0  0  0  1 V2000
  150.8394  136.9088  156.6945 C   0  0  0  0  0  0  0  0  0  0  0  0
  150.3552  136.5677  155.2742 C   0  0  1  0  0  0  0  0  0  0  0  0
  148.8877  136.0847  155.2572 C   0  0  0  0  0  0  0  0  0  0  0  0
  147.8729  137.2409  155.4037 C   0  0  2  0  0  0  0  0  0  0  0  0
  146.4295  136.7423  155.2481 C   0  0  0  0  0  0  0  0  0  0  0  0
  148.1965  138.3656  154.3984 C   0  0  0  0  0  0  0  0  0  0  0  0
  149.5817  138.8134  154.6004 N   0  0  0  0  0  0  0  0  0  0  0  0
  149.8870  140.0449  155.0855 C   0  0  0  0  0  0  0  0  0  0  0  0
  151.0524  140.3894  155.2922 O   0  0  0  0  0  0  0  0  0  0  0  0
  148.7569  141.0477  155.4030 C   0  0  2  0  0  0  0  0  0  0  0  0
  148.0416  141.5313  154.1223 C   0  0  0  0  0  0  0  0  0  0  0  0
  149.2970  142.1833  156.1683 N   0  0  0  0  0  0  0  0  0  0  0  0
  149.5397  141.8622  157.5677 C   0  0  0  0  0  0  0  0  0  0  0  0
  151.0349  142.0292  157.8741 C   0  0  0  0  0  0  0  0  0  0  0  0
  151.3146  143.3152  158.4830 N   0  0  0  0  0  0  0  0  0  0  0  0
  152.0870  144.3464  157.9916 C   0  0  0  0  0  0  0  0  0  0  0  0
  152.0512  145.3547  158.9119 C   0  0  0  0  0  0  0  0  0  0  0  0
  151.2204  144.8392  159.9460 C   0  0  0  0  0  0  0  0  0  0  0  0
  150.7821  143.6177  159.6871 N   0  0  0  0  0  0  0  0  0  0  0  0
  150.5374  137.7399  154.2857 C   0  0  0  0  0  0  0  0  0  0  0  0
  150.2669  137.7241  157.1370 H   0  0  0  0  0  0  0  0  0  0  0  0
  151.8881  137.2069  156.6875 H   0  0  0  0  0  0  0  0  0  0  0  0
  150.7500  136.0464  157.3554 H   0  0  0  0  0  0  0  0  0  0  0  0
  150.9761  135.7422  154.9244 H   0  0  0  0  0  0  0  0  0  0  0  0
  148.7035  135.5768  154.3095 H   0  0  0  0  0  0  0  0  0  0  0  0
  148.7262  135.3365  156.0342 H   0  0  0  0  0  0  0  0  0  0  0  0
  147.9670  137.6526  156.4094 H   0  0  0  0  0  0  0  0  0  0  0  0
  146.2597  136.3210  154.2567 H   0  0  0  0  0  0  0  0  0  0  0  0
  145.7161  137.5543  155.3917 H   0  0  0  0  0  0  0  0  0  0  0  0
  146.2008  135.9696  155.9825 H   0  0  0  0  0  0  0  0  0  0  0  0
  148.0817  138.0035  153.3757 H   0  0  0  0  0  0  0  0  0  0  0  0
  147.4720  139.1742  154.5038 H   0  0  0  0  0  0  0  0  0  0  0  0
  148.0123  140.5201  155.9994 H   0  0  0  0  0  0  0  0  0  0  0  0
  147.7190  140.6897  153.5078 H   0  0  0  0  0  0  0  0  0  0  0  0
  148.6906  142.1600  153.5109 H   0  0  0  0  0  0  0  0  0  0  0  0
  147.1466  142.1081  154.3540 H   0  0  0  0  0  0  0  0  0  0  0  0
  148.7036  142.9975  156.0969 H   0  0  0  0  0  0  0  0  0  0  0  0
  148.9566  142.5174  158.2147 H   0  0  0  0  0  0  0  0  0  0  0  0
  149.2302  140.8359  157.7718 H   0  0  0  0  0  0  0  0  0  0  0  0
  151.3800  141.2426  158.5474 H   0  0  0  0  0  0  0  0  0  0  0  0
  151.6242  141.9447  156.9599 H   0  0  0  0  0  0  0  0  0  0  0  0
  152.5905  144.2782  157.0383 H   0  0  0  0  0  0  0  0  0  0  0  0
  152.5425  146.3148  158.8552 H   0  0  0  0  0  0  0  0  0  0  0  0
  150.9247  145.3131  160.8705 H   0  0  0  0  0  0  0  0  0  0  0  0
  151.5777  138.0579  154.2738 H   0  0  0  0  0  0  0  0  0  0  0  0
  150.3437  137.3923  153.2698 H   0  0  0  0  0  0  0  0  0  0  0  0
  1  2  1  0  0  0  0
  1 21  1  0  0  0  0
  1 22  1  0  0  0  0
  1 23  1  0  0  0  0
  2 20  1  0  0  0  0
  2  3  1  0  0  0  0
  2 24  1  0  0  0  0
  3  4  1  0  0  0  0
  3 25  1  0  0  0  0
  3 26  1  0  0  0  0
  4  5  1  0  0  0  0
  4  6  1  0  0  0  0
  4 27  1  0  0  0  0
  5 28  1  0  0  0  0
  5 29  1  0  0  0  0
  5 30  1  0  0  0  0
  6  7  1  0  0  0  0
  6 31  1  0  0  0  0
  6 32  1  0  0  0  0
  7  8  1  0  0  0  0
  7 20  1  0  0  0  0
  8  9  2  0  0  0  0
  8 10  1  0  0  0  0
 10 11  1  0  0  0  0
 10 12  1  0  0  0  0
 10 33  1  0  0  0  0
 11 34  1  0  0  0  0
 11 35  1  0  0  0  0
 11 36  1  0  0  0  0
 12 13  1  0  0  0  0
 12 37  1  0  0  0  0
 13 14  1  0  0  0  0
 13 38  1  0  0  0  0
 13 39  1  0  0  0  0
 14 15  1  0  0  0  0
 14 40  1  0  0  0  0
 14 41  1  0  0  0  0
 15 19  1  0  0  0  0
 15 16  1  0  0  0  0
 16 17  2  0  0  0  0
 16 42  1  0  0  0  0
 17 18  1  0  0  0  0
 17 43  1  0  0  0  0
 18 19  2  0  0  0  0
 18 44  1  0  0  0  0
 20 45  1  0  0  0  0
 20 46  1  0  0  0  0
M  END
> <s_m_source_file>
AV-unprocessed.smi

> <i_m_source_file_index>
3331

> <i_lp_mmshare_version>
43012

> <i_f3d_flags>
0

> <s_epik_input>
W0NIM11bQ0BASF0xW0NIMl1bQ0BASF0oW0NIM10pW0NIMl1OKFtDSDJdMSlDKD1PKVtDQEhdKFtDSDNdKVtOSF1bQ0gyXVtDSDJdbjJbY0hdW2NIXVtjSF1uMg==

> <s_epik_cmdline>
J2VwaWtfcHl0aG9uJywgJy1waCcsICc3LjAnLCAnLXRuJywgJzgnLCAnLW1hJywgJzIwMCcsICctbWV0YWxfYmluZGluZycsICctaW1hZScsICc8aW5maWxlLm1hZT4nLCAnLW9tYWUnLCAnPG91dGZpbGUubWFlPic=

> <r_lp_tautomer_probability>
1

> <r_epik_Ionization_Penalty>
0.767994

> <r_epik_Ionization_Penalty_Charging>
0

> <r_epik_Ionization_Penalty_Neutral>
0.767994

> <r_epik_State_Penalty>
0.795453

> <r_epik_Charging_Adjusted_Penalty>
0.795453

> <i_epik_Tot_Q>
0

> <i_epik_Tot_abs_Q>
0

> <r_epik_Metal_State_Penalty>
0.794784

> <b_epik_Metal_Only>
0

> <s_lp_Force_Field>
OPLS_2005

> <r_lp_Energy>
29.2756

> <b_lp_Chiralities_Consistent>
1

> <s_lp_Variant>
AV-unprocessed.smi:3331-9

> <Gold.Version>
5.8.1

> <Gold.Id.Protein>
6NUR|6NUR_protein|mol2

> <Gold.PLP.Fitness>
41.8071

> <Gold.PLP.PLP>
-38.1879

> <Gold.PLP.part.hbond>
-2.0000

> <Gold.PLP.part.metal>
0.0000

> <Gold.PLP.part.buried>
-6.0351

> <Gold.PLP.part.nonpolar>
-31.7341

> <Gold.PLP.part.repulsive>
0.1100

> <Gold.PLP.ligand.clash>
0.0000

> <Gold.PLP.ligand.torsion>
0.9987

> <Gold.PLP.Chemscore.Hbond>
1.8560

> <Gold.PLP.Chemscore.CHOScore>
0.0000

> <Gold.PLP.Chemscore.Metal>
0.0000

> <Gold.Chemscore.Hbonds>
donor molecule, donor type, donor heavy atom, donor atom, acceptor molecule, acceptor atom, score
      L1  H    12    37       P1  8028  0.77
      P1  H  7989  7998       L1     9  1.00

> <Gold.PLP.Chemscore.Internal.Correction>
0.0487

> <Gold.Rescore>
     Score         DG    S(hbond)    S(metal)    S(lipo)     H(rot)  DE(clash)    DE(int)     intcor
     15.47     -16.73       1.75        0.00      82.77       1.66       0.09       1.17       ----

> <Gold.Chemscore.Fitness>
15.4719

> <Gold.Chemscore.DG>
-16.7310

> <Gold.Chemscore.ZeroCoef>
-5.4800

> <Gold.Chemscore.Hbond>
1.7454

> <Gold.Chemscore.Metal>
0.0000

> <Gold.Chemscore.Lipo>
82.7655

> <Gold.Chemscore.Internal_Hbond>
0.0000

> <Gold.Chemscore.DEClash>
0.0871

> <Gold.Chemscore.DEInternal>
1.1720

> <Gold.Chemscore.Rot>
1.6649

> <Gold.Chemscore.Internal.Correction>
   9.000000E+99

> <Gold.Chemscore.Hbonds>
donor molecule, donor type, donor heavy atom, donor atom, acceptor molecule, acceptor atom, score
      L1  H    12    37       P1  8028  0.75
      P1  H  7989  7998       L1     9  0.33

> <Gold.Chemscore.Hbond.Weighted>
-5.8295

> <Gold.Chemscore.Metal.Weighted>
-0.0000

> <Gold.Chemscore.Lipo.Weighted>
-9.6836

> <Gold.Chemscore.Internal_Hbond.Weighted>
0.0000

> <Gold.Chemscore.DEClash.Weighted>
0.0871

> <Gold.Chemscore.DEInternal.Weighted>
1.1720

> <Gold.Chemscore.Rot.Weighted>
4.2621

> <Gold.Chemscore.Internal.Correction.Weighted>
   9.000000E+99

> <Gold.Protein.RotatedTorsions>
[ 6907 6896 6895 6894 ] final  -27.73 input  -60.11 | X-H torsion
[ 7974 7965 7964 7962 ] final  -25.98 input  175.53 | X-H torsion
[ 8008 7997 7996 7995 ] final  176.28 input   59.86 | X-H torsion
[ 10167 10162 10161 10158 ] final -130.99 input  -65.29 | X-H torsion
[ 10718 10713 10712 10709 ] final  151.83 input   66.30 | X-H torsion
[ 10763 10752 10751 10750 ] final -139.62 input  -60.55 | X-H torsion
[ 11005 11000 10999 10996 ] final   75.04 input  -57.11 | X-H torsion

> <Gold.Protein.ActiveResidues>
 VAL166  LYS551  ARG553  GLY616  TRP617  ASP618  TYR619  PRO620  LYS621  CYS622 
 ASP623  PHE694  ASN695  SER759  ASP760  ASP761  ALA762  ILE779  LEU786  VAL792 
 PHE793  MET794  SER795  GLU796  ALA797  LYS798  CYS799  TRP800  GLU811  SER814 

> <Gold.Protein.RotatedAtoms>
  151.1428  135.0188  159.8633 H   0  0  0  0  0  0  0  0  0  0  0  0  # atno 6907 bound_to 6896
  152.5452  134.1479  159.8516 H   0  0  0  0  0  0  0  0  0  0  0  0  # atno 6908 bound_to 6896
  151.1556  133.4833  159.2627 H   0  0  0  0  0  0  0  0  0  0  0  0  # atno 6909 bound_to 6896
  146.1455  140.4959  142.8633 H   0  0  0  0  0  0  0  0  0  0  0  0  # atno 7974 bound_to 7965
  156.0782  140.1387  156.9746 H   0  0  0  0  0  0  0  0  0  0  0  0  # atno 8008 bound_to 7997
  154.4569  140.0958  156.6834 H   0  0  0  0  0  0  0  0  0  0  0  0  # atno 8009 bound_to 7997
  155.5119  140.3454  155.4392 H   0  0  0  0  0  0  0  0  0  0  0  0  # atno 8010 bound_to 7997
  139.9235  143.6354  152.2547 H   0  0  0  0  0  0  0  0  0  0  0  0  # atno 10167 bound_to 10162
  157.2657  131.0807  151.1635 H   0  0  0  0  0  0  0  0  0  0  0  0  # atno 10718 bound_to 10713
  154.8604  135.3577  154.5575 H   0  0  0  0  0  0  0  0  0  0  0  0  # atno 10763 bound_to 10752
  153.6191  135.7006  153.5322 H   0  0  0  0  0  0  0  0  0  0  0  0  # atno 10764 bound_to 10752
  153.3144  135.4169  155.1323 H   0  0  0  0  0  0  0  0  0  0  0  0  # atno 10765 bound_to 10752
  139.9362  134.7483  156.1221 H   0  0  0  0  0  0  0  0  0  0  0  0  # atno 11005 bound_to 11000
  144.7842  140.5902  143.6585 LP  0  0  0  0  0  0  0  0  0  0  0  0  # atno 17320 bound_to 7965
  145.4947  139.1486  143.3690 LP  0  0  0  0  0  0  0  0  0  0  0  0  # atno 17321 bound_to 7965
  139.6841  144.7653  151.1555 LP  0  0  0  0  0  0  0  0  0  0  0  0  # atno 17342 bound_to 10162
  140.7656  143.5682  150.9024 LP  0  0  0  0  0  0  0  0  0  0  0  0  # atno 17343 bound_to 10162
  157.3127  130.6898  149.6224 LP  0  0  0  0  0  0  0  0  0  0  0  0  # atno 17370 bound_to 10713
  155.9663  130.4359  150.5110 LP  0  0  0  0  0  0  0  0  0  0  0  0  # atno 17371 bound_to 10713
  141.0977  133.6689  156.2683 LP  0  0  0  0  0  0  0  0  0  0  0  0  # atno 17394 bound_to 11000
  140.6069  134.5498  157.5527 LP  0  0  0  0  0  0  0  0  0  0  0  0  # atno 17395 bound_to 11000

$$$$
