AV-unprocessed.smi:2822|AV-procd|sdf|10880|dock6
  -GOLD-   2272015323D 1   1.00000     0.00000
 Structure written by MMmdl.
 39 41  0  0  0  0  0  0  0  0  1 V2000
  151.3721  144.9148  159.3535 Cl  0  0  0  0  0  0  0  0  0  0  0  0
  152.3082  143.6848  160.1289 C   0  0  0  0  0  0  0  0  0  0  0  0
  152.7991  143.8990  161.4332 C   0  0  0  0  0  0  0  0  0  0  0  0
  153.5364  142.9930  162.1094 N   0  0  0  0  0  0  0  0  0  0  0  0
  153.8122  141.8242  161.4945 C   0  0  0  0  0  0  0  0  0  0  0  0
  153.3720  141.5085  160.1936 C   0  0  0  0  0  0  0  0  0  0  0  0
  152.5988  142.4593  159.4859 C   0  0  0  0  0  0  0  0  0  0  0  0
  152.1173  142.2258  158.1886 N   0  0  0  0  0  0  0  0  0  0  0  0
  152.1054  140.8846  157.6250 C   0  0  0  0  0  0  0  0  0  0  0  0
  151.3614  140.8414  156.2834 C   0  0  2  0  0  0  0  0  0  0  0  0
  149.9137  141.3482  156.4222 C   0  0  0  0  0  0  0  0  0  0  0  0
  149.1723  141.2334  155.1725 N   0  0  0  0  0  0  0  0  0  0  0  0
  147.7976  141.7072  155.3248 C   0  0  0  0  0  0  0  0  0  0  0  0
  147.0020  141.6298  154.0120 C   0  0  0  0  0  0  0  0  0  0  0  0
  147.0124  140.1949  153.4665 C   0  0  0  0  0  0  0  0  0  0  0  0
  148.4566  139.6814  153.3598 C   0  0  0  0  0  0  0  0  0  0  0  0
  149.2017  139.8458  154.7006 C   0  0  1  0  0  0  0  0  0  0  0  0
  150.6526  139.3362  154.5846 C   0  0  0  0  0  0  0  0  0  0  0  0
  151.3212  139.4896  155.8325 O   0  0  0  0  0  0  0  0  0  0  0  0
  152.5943  144.8253  161.9496 H   0  0  0  0  0  0  0  0  0  0  0  0
  154.4024  141.1161  162.0572 H   0  0  0  0  0  0  0  0  0  0  0  0
  153.6314  140.5512  159.7671 H   0  0  0  0  0  0  0  0  0  0  0  0
  151.9749  143.0094  157.5672 H   0  0  0  0  0  0  0  0  0  0  0  0
  153.1276  140.5251  157.4995 H   0  0  0  0  0  0  0  0  0  0  0  0
  151.6104  140.2187  158.3327 H   0  0  0  0  0  0  0  0  0  0  0  0
  151.8909  141.4559  155.5523 H   0  0  0  0  0  0  0  0  0  0  0  0
  149.4060  140.7826  157.2054 H   0  0  0  0  0  0  0  0  0  0  0  0
  149.9237  142.3893  156.7473 H   0  0  0  0  0  0  0  0  0  0  0  0
  147.2873  141.1225  156.0919 H   0  0  0  0  0  0  0  0  0  0  0  0
  147.8031  142.7394  155.6770 H   0  0  0  0  0  0  0  0  0  0  0  0
  145.9768  141.9641  154.1725 H   0  0  0  0  0  0  0  0  0  0  0  0
  147.4405  142.3066  153.2775 H   0  0  0  0  0  0  0  0  0  0  0  0
  146.4416  139.5463  154.1323 H   0  0  0  0  0  0  0  0  0  0  0  0
  146.5219  140.1546  152.4935 H   0  0  0  0  0  0  0  0  0  0  0  0
  148.4533  138.6343  153.0548 H   0  0  0  0  0  0  0  0  0  0  0  0
  148.9808  140.2314  152.5768 H   0  0  0  0  0  0  0  0  0  0  0  0
  148.6958  139.2204  155.4382 H   0  0  0  0  0  0  0  0  0  0  0  0
  150.6652  138.2817  154.3086 H   0  0  0  0  0  0  0  0  0  0  0  0
  151.1961  139.8764  153.8073 H   0  0  0  0  0  0  0  0  0  0  0  0
  1  2  1  0  0  0  0
  2  7  1  0  0  0  0
  2  3  2  0  0  0  0
  3  4  1  0  0  0  0
  3 20  1  0  0  0  0
  4  5  2  0  0  0  0
  5  6  1  0  0  0  0
  5 21  1  0  0  0  0
  6  7  2  0  0  0  0
  6 22  1  0  0  0  0
  7  8  1  0  0  0  0
  8  9  1  0  0  0  0
  8 23  1  0  0  0  0
  9 10  1  0  0  0  0
  9 24  1  0  0  0  0
  9 25  1  0  0  0  0
 10 19  1  0  0  0  0
 10 11  1  0  0  0  0
 10 26  1  0  0  0  0
 11 12  1  0  0  0  0
 11 27  1  0  0  0  0
 11 28  1  0  0  0  0
 12 17  1  0  0  0  0
 12 13  1  0  0  0  0
 13 14  1  0  0  0  0
 13 29  1  0  0  0  0
 13 30  1  0  0  0  0
 14 15  1  0  0  0  0
 14 31  1  0  0  0  0
 14 32  1  0  0  0  0
 15 16  1  0  0  0  0
 15 33  1  0  0  0  0
 15 34  1  0  0  0  0
 16 17  1  0  0  0  0
 16 35  1  0  0  0  0
 16 36  1  0  0  0  0
 17 18  1  0  0  0  0
 17 37  1  0  0  0  0
 18 19  1  0  0  0  0
 18 38  1  0  0  0  0
 18 39  1  0  0  0  0
M  END
> <s_m_source_file>
AV-unprocessed.smi

> <i_m_source_file_index>
2822

> <i_lp_mmshare_version>
43012

> <i_f3d_flags>
0

> <s_epik_input>
Q2xjMVtjSF1uW2NIXVtjSF1jMVtOSF1bQ0gyXVtDQEhdKFtDSDJdMilPW0NIMl1bQ0BASF0oTjIzKVtDSDJdW0NIMl1bQ0gyXVtDSDJdMw==

> <s_epik_cmdline>
J2VwaWtfcHl0aG9uJywgJy1waCcsICc3LjAnLCAnLXRuJywgJzgnLCAnLW1hJywgJzIwMCcsICctbWV0YWxfYmluZGluZycsICctaW1hZScsICc8aW5maWxlLm1hZT4nLCAnLW9tYWUnLCAnPG91dGZpbGUubWFlPic=

> <r_lp_tautomer_probability>
0.999999

> <r_epik_Ionization_Penalty>
2.10064

> <r_epik_Ionization_Penalty_Charging>
0

> <r_epik_Ionization_Penalty_Neutral>
2.10064

> <r_epik_State_Penalty>
2.1757

> <r_epik_Charging_Adjusted_Penalty>
2.1757

> <i_epik_Tot_Q>
0

> <i_epik_Tot_abs_Q>
0

> <r_epik_Metal_State_Penalty>
1.25425

> <b_epik_Metal_Only>
0

> <s_lp_Force_Field>
OPLS_2005

> <r_lp_Energy>
37.6936

> <b_lp_Chiralities_Consistent>
1

> <s_lp_Variant>
AV-unprocessed.smi:2822-21

> <Gold.Version>
5.8.1

> <Gold.Id.Protein>
6NUR|6NUR_protein|mol2

> <Gold.PLP.Fitness>
41.1670

> <Gold.PLP.PLP>
-41.3401

> <Gold.PLP.part.hbond>
0.0000

> <Gold.PLP.part.metal>
0.0000

> <Gold.PLP.part.buried>
0.3376

> <Gold.PLP.part.nonpolar>
-40.6750

> <Gold.PLP.part.repulsive>
0.2847

> <Gold.PLP.ligand.clash>
0.0000

> <Gold.PLP.ligand.torsion>
0.0867

> <Gold.PLP.Chemscore.Hbond>
0.0000

> <Gold.PLP.Chemscore.CHOScore>
0.0000

> <Gold.PLP.Chemscore.Metal>
0.0000

> <Gold.PLP.Chemscore.Internal.Correction>
0.0004

> <Gold.Rescore>
     Score         DG    S(hbond)    S(metal)    S(lipo)     H(rot)  DE(clash)    DE(int)     intcor
     15.54     -15.90       0.00        0.00     114.26       1.15       0.26       0.10       ----

> <Gold.Chemscore.Fitness>
15.5437

> <Gold.Chemscore.DG>
-15.8994

> <Gold.Chemscore.ZeroCoef>
-5.4800

> <Gold.Chemscore.Hbond>
0.0000

> <Gold.Chemscore.Metal>
0.0000

> <Gold.Chemscore.Lipo>
114.2576

> <Gold.Chemscore.Internal_Hbond>
0.0000

> <Gold.Chemscore.DEClash>
0.2572

> <Gold.Chemscore.DEInternal>
0.0984

> <Gold.Chemscore.Rot>
1.1519

> <Gold.Chemscore.Internal.Correction>
   9.000000E+99

> <Gold.Chemscore.Hbond.Weighted>
-0.0000

> <Gold.Chemscore.Metal.Weighted>
-0.0000

> <Gold.Chemscore.Lipo.Weighted>
-13.3681

> <Gold.Chemscore.Internal_Hbond.Weighted>
0.0000

> <Gold.Chemscore.DEClash.Weighted>
0.2572

> <Gold.Chemscore.DEInternal.Weighted>
0.0984

> <Gold.Chemscore.Rot.Weighted>
2.9487

> <Gold.Chemscore.Internal.Correction.Weighted>
   9.000000E+99

> <Gold.Protein.RotatedTorsions>
[ 6907 6896 6895 6894 ] final -152.22 input  -60.11 | X-H torsion
[ 7974 7965 7964 7962 ] final  159.66 input  175.53 | X-H torsion
[ 8008 7997 7996 7995 ] final    5.59 input   59.86 | X-H torsion
[ 10167 10162 10161 10158 ] final  -71.42 input  -65.29 | X-H torsion
[ 10718 10713 10712 10709 ] final  137.20 input   66.30 | X-H torsion
[ 10763 10752 10751 10750 ] final -127.17 input  -60.55 | X-H torsion
[ 11005 11000 10999 10996 ] final -143.34 input  -57.11 | X-H torsion

> <Gold.Protein.ActiveResidues>
 VAL166  LYS551  ARG553  GLY616  TRP617  ASP618  TYR619  PRO620  LYS621  CYS622 
 ASP623  PHE694  ASN695  SER759  ASP760  ASP761  ALA762  ILE779  LEU786  VAL792 
 PHE793  MET794  SER795  GLU796  ALA797  LYS798  CYS799  TRP800  GLU811  SER814 

> <Gold.Protein.RotatedAtoms>
  151.2246  133.4483  159.2601 H   0  0  0  0  0  0  0  0  0  0  0  0  # atno 6907 bound_to 6896
  151.0852  134.9883  159.8386 H   0  0  0  0  0  0  0  0  0  0  0  0  # atno 6908 bound_to 6896
  152.5429  134.2183  159.8830 H   0  0  0  0  0  0  0  0  0  0  0  0  # atno 6909 bound_to 6896
  144.7778  139.7648  143.6271 H   0  0  0  0  0  0  0  0  0  0  0  0  # atno 7974 bound_to 7965
  154.7303  140.2729  155.6462 H   0  0  0  0  0  0  0  0  0  0  0  0  # atno 8008 bound_to 7997
  156.2848  140.2717  156.1926 H   0  0  0  0  0  0  0  0  0  0  0  0  # atno 8009 bound_to 7997
  155.0390  140.0371  157.2492 H   0  0  0  0  0  0  0  0  0  0  0  0  # atno 8010 bound_to 7997
  140.5274  143.2325  151.7322 H   0  0  0  0  0  0  0  0  0  0  0  0  # atno 10167 bound_to 10162
  157.4386  131.1055  151.0170 H   0  0  0  0  0  0  0  0  0  0  0  0  # atno 10718 bound_to 10713
  154.8751  135.3971  154.3550 H   0  0  0  0  0  0  0  0  0  0  0  0  # atno 10763 bound_to 10752
  153.4331  135.7025  153.6223 H   0  0  0  0  0  0  0  0  0  0  0  0  # atno 10764 bound_to 10752
  153.4836  135.3763  155.2425 H   0  0  0  0  0  0  0  0  0  0  0  0  # atno 10765 bound_to 10752
  140.8135  134.2716  157.4931 H   0  0  0  0  0  0  0  0  0  0  0  0  # atno 11005 bound_to 11000
  146.1969  139.5240  142.9769 LP  0  0  0  0  0  0  0  0  0  0  0  0  # atno 17320 bound_to 7965
  145.6135  141.0335  143.1953 LP  0  0  0  0  0  0  0  0  0  0  0  0  # atno 17321 bound_to 7965
  139.4943  144.4165  152.0025 LP  0  0  0  0  0  0  0  0  0  0  0  0  # atno 17342 bound_to 10162
  140.3265  144.3367  150.5997 LP  0  0  0  0  0  0  0  0  0  0  0  0  # atno 17343 bound_to 10162
  157.1041  130.5994  149.5467 LP  0  0  0  0  0  0  0  0  0  0  0  0  # atno 17370 bound_to 10713
  155.9940  130.5002  150.7402 LP  0  0  0  0  0  0  0  0  0  0  0  0  # atno 17371 bound_to 10713
  139.8712  134.9496  156.4030 LP  0  0  0  0  0  0  0  0  0  0  0  0  # atno 17394 bound_to 11000
  140.9173  133.7669  155.9864 LP  0  0  0  0  0  0  0  0  0  0  0  0  # atno 17395 bound_to 11000

$$$$
