AV-unprocessed.smi:196|AV-procd|sdf|1540|dock8
  -GOLD-   2262019393D 1   1.00000     0.00000
 Structure written by MMmdl.
 47 50  0  0  0  0  0  0  0  0  1 V2000
  152.5284  138.1160  154.5315 C   0  0  0  0  0  0  0  0  0  0  0  0
  151.0325  138.0548  154.1856 C   0  0  2  0  0  0  0  0  0  0  0  0
  150.5809  139.3951  154.0065 O   0  0  0  0  0  0  0  0  0  0  0  0
  149.2249  139.4826  154.4072 C   0  0  0  0  0  0  0  0  0  0  0  0
  149.1910  138.5980  155.6438 C   0  0  0  0  0  0  0  0  0  0  0  0
  150.0916  137.4292  155.2544 C   0  0  1  0  0  0  0  0  0  0  0  0
  149.2870  136.4602  154.6020 O   0  0  0  0  0  0  0  0  0  0  0  0
  150.7792  136.7430  156.4647 C   0  0  0  0  0  0  0  0  0  0  0  0
  149.8618  136.4323  157.5512 N   0  0  0  0  0  0  0  0  0  0  0  0
  149.6144  137.2017  158.6669 C   0  0  0  0  0  0  0  0  0  0  0  0
  148.7478  136.7051  159.5075 N   0  0  0  0  0  0  0  0  0  0  0  0
  148.3657  135.5054  158.9225 C   0  0  0  0  0  0  0  0  0  0  0  0
  147.4731  134.4683  159.2970 C   0  0  0  0  0  0  0  0  0  0  0  0
  146.7570  134.5271  160.4430 N   0  0  0  0  0  0  0  0  0  0  0  0
  147.5050  134.1777  161.6469 C   0  0  0  0  0  0  0  0  0  0  0  0
  147.1817  135.2578  162.6806 C   0  0  1  0  0  0  0  0  0  0  0  0
  148.0975  136.2256  162.6122 F   0  0  0  0  0  0  0  0  0  0  0  0
  145.8344  135.7956  162.2117 C   0  0  0  0  0  0  0  0  0  0  0  0
  145.9417  135.7246  160.6819 C   0  0  2  0  0  0  0  0  0  0  0  0
  144.5540  135.6910  160.0142 C   0  0  0  0  0  0  0  0  0  0  0  0
  143.7135  134.6968  160.3203 N   0  0  0  0  0  0  0  0  0  0  0  0
  144.2446  136.5683  159.2111 O   0  0  0  0  0  0  0  0  0  0  0  0
  147.3355  133.4109  158.4554 N   0  0  0  0  0  0  0  0  0  0  0  0
  148.0385  133.3679  157.3194 C   0  0  0  0  0  0  0  0  0  0  0  0
  148.9129  134.2579  156.8440 N   0  0  0  0  0  0  0  0  0  0  0  0
  149.0488  135.3206  157.6886 C   0  0  0  0  0  0  0  0  0  0  0  0
  147.1705  134.8862  163.7054 H   0  0  0  0  0  0  0  0  0  0  0  0
  146.4621  136.6173  160.3311 H   0  0  0  0  0  0  0  0  0  0  0  0
  152.9481  137.1194  154.6684 H   0  0  0  0  0  0  0  0  0  0  0  0
  152.7056  138.6911  155.4407 H   0  0  0  0  0  0  0  0  0  0  0  0
  153.0875  138.5967  153.7285 H   0  0  0  0  0  0  0  0  0  0  0  0
  150.9217  137.5375  153.2305 H   0  0  0  0  0  0  0  0  0  0  0  0
  148.9318  140.5117  154.6147 H   0  0  0  0  0  0  0  0  0  0  0  0
  148.5795  139.0880  153.6209 H   0  0  0  0  0  0  0  0  0  0  0  0
  149.6304  139.1487  156.4761 H   0  0  0  0  0  0  0  0  0  0  0  0
  148.1823  138.3024  155.9358 H   0  0  0  0  0  0  0  0  0  0  0  0
  149.3554  136.5929  153.6689 H   0  0  0  0  0  0  0  0  0  0  0  0
  151.2618  135.8157  156.1535 H   0  0  0  0  0  0  0  0  0  0  0  0
  151.5664  137.3795  156.8694 H   0  0  0  0  0  0  0  0  0  0  0  0
  150.1062  138.1474  158.8416 H   0  0  0  0  0  0  0  0  0  0  0  0
  147.1430  133.2086  161.9915 H   0  0  0  0  0  0  0  0  0  0  0  0
  148.5807  134.0840  161.4842 H   0  0  0  0  0  0  0  0  0  0  0  0
  145.0368  135.1449  162.5751 H   0  0  0  0  0  0  0  0  0  0  0  0
  145.6345  136.8042  162.5757 H   0  0  0  0  0  0  0  0  0  0  0  0
  142.7996  134.6611  159.8914 H   0  0  0  0  0  0  0  0  0  0  0  0
  143.9953  133.9859  160.9794 H   0  0  0  0  0  0  0  0  0  0  0  0
  147.8770  132.4960  156.7030 H   0  0  0  0  0  0  0  0  0  0  0  0
  1  2  1  0  0  0  0
  1 29  1  0  0  0  0
  1 30  1  0  0  0  0
  1 31  1  0  0  0  0
  2  6  1  0  0  0  0
  2  3  1  0  0  0  0
  2 32  1  0  0  0  0
  3  4  1  0  0  0  0
  4  5  1  0  0  0  0
  4 33  1  0  0  0  0
  4 34  1  0  0  0  0
  5  6  1  0  0  0  0
  5 35  1  0  0  0  0
  5 36  1  0  0  0  0
  6  7  1  0  0  0  0
  6  8  1  0  0  0  0
  7 37  1  0  0  0  0
  8  9  1  0  0  0  0
  8 38  1  0  0  0  0
  8 39  1  0  0  0  0
  9 26  1  0  0  0  0
  9 10  1  0  0  0  0
 10 11  2  0  0  0  0
 10 40  1  0  0  0  0
 11 12  1  0  0  0  0
 12 26  2  0  0  0  0
 12 13  1  0  0  0  0
 13 14  1  0  0  0  0
 13 23  2  0  0  0  0
 14 19  1  0  0  0  0
 14 15  1  0  0  0  0
 15 16  1  0  0  0  0
 15 41  1  0  0  0  0
 15 42  1  0  0  0  0
 16 27  1  0  0  0  0
 16 17  1  0  0  0  0
 16 18  1  0  0  0  0
 18 19  1  0  0  0  0
 18 43  1  0  0  0  0
 18 44  1  0  0  0  0
 19 28  1  0  0  0  0
 19 20  1  0  0  0  0
 20 21  1  0  0  0  0
 20 22  2  0  0  0  0
 21 45  1  0  0  0  0
 21 46  1  0  0  0  0
 23 24  1  0  0  0  0
 24 25  2  0  0  0  0
 24 47  1  0  0  0  0
 25 26  1  0  0  0  0
M  END
> <s_m_source_file>
AV-unprocessed.smi

> <i_m_source_file_index>
196

> <i_lp_mmshare_version>
43012

> <i_f3d_flags>
0

> <s_epik_input>
W0NIMl0xW0NIMl1PW0NAQEhdKFtDSDNdKVtDQEBdMShbT0hdKVtDSDJdbihbY0hdbjIpYyhjMjMpbltjSF1uYzNONFtDSDJdW0NASF0oRilbQ0gyXVtDQEhdNEMoPU8pW05IMl0=

> <s_epik_cmdline>
J2VwaWtfcHl0aG9uJywgJy1waCcsICc3LjAnLCAnLXRuJywgJzgnLCAnLW1hJywgJzIwMCcsICctbWV0YWxfYmluZGluZycsICctaW1hZScsICc8aW5maWxlLm1hZT4nLCAnLW9tYWUnLCAnPG91dGZpbGUubWFlPic=

> <r_lp_tautomer_probability>
1

> <r_epik_Ionization_Penalty>
0.000857933

> <r_epik_Ionization_Penalty_Charging>
0

> <r_epik_Ionization_Penalty_Neutral>
0.000857933

> <r_epik_State_Penalty>
0.000462053

> <r_epik_Charging_Adjusted_Penalty>
0.000462053

> <i_epik_Tot_Q>
0

> <i_epik_Tot_abs_Q>
0

> <r_epik_Metal_State_Penalty>
-0

> <b_epik_Metal_Only>
0

> <s_lp_Force_Field>
OPLS_2005

> <r_lp_Energy>
46.05

> <b_lp_Chiralities_Consistent>
1

> <s_lp_Variant>
AV-unprocessed.smi:196-13

> <Gold.Version>
5.8.1

> <Gold.Id.Protein>
6NUR|6NUR_protein|mol2

> <Gold.PLP.Fitness>
37.4562

> <Gold.PLP.PLP>
-32.7721

> <Gold.PLP.part.hbond>
-2.0000

> <Gold.PLP.part.metal>
0.0000

> <Gold.PLP.part.buried>
-5.8704

> <Gold.PLP.part.nonpolar>
-24.7641

> <Gold.PLP.part.repulsive>
0.5426

> <Gold.PLP.ligand.clash>
0.0000

> <Gold.PLP.ligand.torsion>
0.7401

> <Gold.PLP.Chemscore.Hbond>
2.0000

> <Gold.PLP.Chemscore.CHOScore>
0.0000

> <Gold.PLP.Chemscore.Metal>
0.0000

> <Gold.Chemscore.Hbonds>
donor molecule, donor type, donor heavy atom, donor atom, acceptor molecule, acceptor atom, score
      L1  H     7    37       P1  7948  1.00
      P1  H  7989  7998       L1     3  1.00

> <Gold.PLP.Chemscore.Internal.Correction>
0.1643

> <Gold.Rescore>
     Score         DG    S(hbond)    S(metal)    S(lipo)     H(rot)  DE(clash)    DE(int)     intcor
     10.22     -11.64       1.92        0.00      64.43       3.04       0.83       0.59       ----

> <Gold.Chemscore.Fitness>
10.2169

> <Gold.Chemscore.DG>
-11.6363

> <Gold.Chemscore.ZeroCoef>
-5.4800

> <Gold.Chemscore.Hbond>
1.9172

> <Gold.Chemscore.Metal>
0.0000

> <Gold.Chemscore.Lipo>
64.4322

> <Gold.Chemscore.Internal_Hbond>
0.0000

> <Gold.Chemscore.DEClash>
0.8260

> <Gold.Chemscore.DEInternal>
0.5934

> <Gold.Chemscore.Rot>
3.0413

> <Gold.Chemscore.Internal.Correction>
   9.000000E+99

> <Gold.Chemscore.Hbonds>
donor molecule, donor type, donor heavy atom, donor atom, acceptor molecule, acceptor atom, score
      L1  H     7    37       P1  7948  0.89
      P1  H  7989  7998       L1     3  0.98

> <Gold.Chemscore.Hbond.Weighted>
-6.4034

> <Gold.Chemscore.Metal.Weighted>
-0.0000

> <Gold.Chemscore.Lipo.Weighted>
-7.5386

> <Gold.Chemscore.Internal_Hbond.Weighted>
0.0000

> <Gold.Chemscore.DEClash.Weighted>
0.8260

> <Gold.Chemscore.DEInternal.Weighted>
0.5934

> <Gold.Chemscore.Rot.Weighted>
7.7856

> <Gold.Chemscore.Internal.Correction.Weighted>
   9.000000E+99

> <Gold.Protein.RotatedTorsions>
[ 6907 6896 6895 6894 ] final  -18.19 input  -60.11 | X-H torsion
[ 7974 7965 7964 7962 ] final  -23.71 input  175.53 | X-H torsion
[ 8008 7997 7996 7995 ] final  107.71 input   59.86 | X-H torsion
[ 10167 10162 10161 10158 ] final -134.74 input  -65.29 | X-H torsion
[ 10718 10713 10712 10709 ] final -179.26 input   66.30 | X-H torsion
[ 10763 10752 10751 10750 ] final  -59.12 input  -60.55 | X-H torsion
[ 11005 11000 10999 10996 ] final  -17.20 input  -57.11 | X-H torsion

> <Gold.Protein.ActiveResidues>
 VAL166  LYS551  ARG553  GLY616  TRP617  ASP618  TYR619  PRO620  LYS621  CYS622 
 ASP623  PHE694  ASN695  SER759  ASP760  ASP761  ALA762  ILE779  LEU786  VAL792 
 PHE793  MET794  SER795  GLU796  ALA797  LYS798  CYS799  TRP800  GLU811  SER814 

> <Gold.Protein.RotatedAtoms>
  151.2819  135.0716  159.9172 H   0  0  0  0  0  0  0  0  0  0  0  0  # atno 6907 bound_to 6896
  152.5332  134.0022  159.7910 H   0  0  0  0  0  0  0  0  0  0  0  0  # atno 6908 bound_to 6896
  151.0277  133.5767  159.2695 H   0  0  0  0  0  0  0  0  0  0  0  0  # atno 6909 bound_to 6896
  146.1599  140.4653  142.8576 H   0  0  0  0  0  0  0  0  0  0  0  0  # atno 7974 bound_to 7965
  156.1846  140.3090  155.9213 H   0  0  0  0  0  0  0  0  0  0  0  0  # atno 8008 bound_to 7997
  155.3310  140.0460  157.3059 H   0  0  0  0  0  0  0  0  0  0  0  0  # atno 8009 bound_to 7997
  154.5381  140.2252  155.8698 H   0  0  0  0  0  0  0  0  0  0  0  0  # atno 8010 bound_to 7997
  139.8849  143.6793  152.2621 H   0  0  0  0  0  0  0  0  0  0  0  0  # atno 10167 bound_to 10162
  156.8564  130.9737  151.3087 H   0  0  0  0  0  0  0  0  0  0  0  0  # atno 10718 bound_to 10713
  154.2488  135.6330  153.5233 H   0  0  0  0  0  0  0  0  0  0  0  0  # atno 10763 bound_to 10752
  152.9916  135.5559  154.5831 H   0  0  0  0  0  0  0  0  0  0  0  0  # atno 10764 bound_to 10752
  154.5353  135.2891  155.1118 H   0  0  0  0  0  0  0  0  0  0  0  0  # atno 10765 bound_to 10752
  140.8145  133.8115  155.9596 H   0  0  0  0  0  0  0  0  0  0  0  0  # atno 11005 bound_to 11000
  144.8013  140.6218  143.6476 LP  0  0  0  0  0  0  0  0  0  0  0  0  # atno 17320 bound_to 7965
  145.4614  139.1512  143.3864 LP  0  0  0  0  0  0  0  0  0  0  0  0  # atno 17321 bound_to 7965
  139.7162  144.7611  151.1030 LP  0  0  0  0  0  0  0  0  0  0  0  0  # atno 17342 bound_to 10162
  140.7737  143.5267  150.9472 LP  0  0  0  0  0  0  0  0  0  0  0  0  # atno 17343 bound_to 10162
  157.6274  130.8702  149.9214 LP  0  0  0  0  0  0  0  0  0  0  0  0  # atno 17370 bound_to 10713
  156.0800  130.3674  150.0600 LP  0  0  0  0  0  0  0  0  0  0  0  0  # atno 17371 bound_to 10713
  140.9164  134.2197  157.4954 LP  0  0  0  0  0  0  0  0  0  0  0  0  # atno 17394 bound_to 11000
  139.8712  134.9773  156.4953 LP  0  0  0  0  0  0  0  0  0  0  0  0  # atno 17395 bound_to 11000

$$$$
