AV-unprocessed.smi:2100|AV-procd|sdf|8573|dock6
  -GOLD-   2272011303D 1   1.00000     0.00000
 Structure written by MMmdl.
 41 42  0  0  0  0  0  0  0  0  1 V2000
  150.1030  141.3875  155.6044 C   0  0  0  0  0  0  0  0  0  0  0  0
  150.8102  140.0376  155.7664 C   0  0  2  0  0  0  0  0  0  0  0  0
  151.8450  140.0647  156.9040 C   0  0  0  0  0  0  0  0  0  0  0  0
  152.6021  138.8037  156.9543 N   0  0  0  0  0  0  0  0  0  0  0  0
  153.5580  138.5005  158.3647 S   0  0  0  0  0  0  0  0  0  0  0  0
  153.1627  137.2051  158.9385 O   0  0  0  0  0  0  0  0  0  0  0  0
  154.9652  138.7892  158.0490 O   0  0  0  0  0  0  0  0  0  0  0  0
  152.9479  139.7462  159.3929 N   0  0  0  0  0  0  0  0  0  0  0  0
  153.8118  140.8638  159.7773 C   0  0  0  0  0  0  0  0  0  0  0  0
  153.1039  141.8146  160.7556 C   0  0  0  0  0  0  0  0  0  0  0  0
  152.5316  143.0316  160.0538 C   0  0  0  0  0  0  0  0  0  0  0  0
  151.8083  144.0063  160.7740 C   0  0  0  0  0  0  0  0  0  0  0  0
  151.3065  145.1214  160.0750 C   0  0  0  0  0  0  0  0  0  0  0  0
  151.5472  145.2191  158.6910 C   0  0  0  0  0  0  0  0  0  0  0  0
  152.2822  144.1929  158.0644 C   0  0  0  0  0  0  0  0  0  0  0  0
  152.7675  143.1197  158.7251 N   0  0  0  0  0  0  0  0  0  0  0  0
  153.1930  138.4372  155.6579 C   0  0  0  0  0  0  0  0  0  0  0  0
  152.1500  138.4863  154.5246 C   0  0  1  0  0  0  0  0  0  0  0  0
  151.1902  137.2828  154.5275 C   0  0  0  0  0  0  0  0  0  0  0  0
  151.4534  139.7301  154.5350 O   0  0  0  0  0  0  0  0  0  0  0  0
  149.5814  141.6702  156.5192 H   0  0  0  0  0  0  0  0  0  0  0  0
  149.3666  141.3470  154.8015 H   0  0  0  0  0  0  0  0  0  0  0  0
  150.8133  142.1796  155.3652 H   0  0  0  0  0  0  0  0  0  0  0  0
  150.0502  139.2869  155.9836 H   0  0  0  0  0  0  0  0  0  0  0  0
  152.5458  140.8887  156.7619 H   0  0  0  0  0  0  0  0  0  0  0  0
  151.3419  140.2375  157.8550 H   0  0  0  0  0  0  0  0  0  0  0  0
  152.4007  139.3746  160.1690 H   0  0  0  0  0  0  0  0  0  0  0  0
  154.7094  140.4576  160.2444 H   0  0  0  0  0  0  0  0  0  0  0  0
  154.1331  141.3958  158.8810 H   0  0  0  0  0  0  0  0  0  0  0  0
  152.2892  141.3007  161.2670 H   0  0  0  0  0  0  0  0  0  0  0  0
  153.7987  142.1386  161.5319 H   0  0  0  0  0  0  0  0  0  0  0  0
  151.6423  143.9048  161.8364 H   0  0  0  0  0  0  0  0  0  0  0  0
  150.7478  145.8881  160.5914 H   0  0  0  0  0  0  0  0  0  0  0  0
  151.1782  146.0601  158.1229 H   0  0  0  0  0  0  0  0  0  0  0  0
  152.4857  144.2350  157.0047 H   0  0  0  0  0  0  0  0  0  0  0  0
  154.0068  139.1310  155.4425 H   0  0  0  0  0  0  0  0  0  0  0  0
  153.6357  137.4427  155.7166 H   0  0  0  0  0  0  0  0  0  0  0  0
  152.6898  138.4532  153.5778 H   0  0  0  0  0  0  0  0  0  0  0  0
  151.7364  136.3535  154.3645 H   0  0  0  0  0  0  0  0  0  0  0  0
  150.4499  137.3733  153.7322 H   0  0  0  0  0  0  0  0  0  0  0  0
  150.6575  137.1808  155.4726 H   0  0  0  0  0  0  0  0  0  0  0  0
  1  2  1  0  0  0  0
  1 21  1  0  0  0  0
  1 22  1  0  0  0  0
  1 23  1  0  0  0  0
  2 20  1  0  0  0  0
  2  3  1  0  0  0  0
  2 24  1  0  0  0  0
  3  4  1  0  0  0  0
  3 25  1  0  0  0  0
  3 26  1  0  0  0  0
  4  5  1  0  0  0  0
  4 17  1  0  0  0  0
  5  6  2  0  0  0  0
  5  7  2  0  0  0  0
  5  8  1  0  0  0  0
  8  9  1  0  0  0  0
  8 27  1  0  0  0  0
  9 10  1  0  0  0  0
  9 28  1  0  0  0  0
  9 29  1  0  0  0  0
 10 11  1  0  0  0  0
 10 30  1  0  0  0  0
 10 31  1  0  0  0  0
 11 16  1  0  0  0  0
 11 12  2  0  0  0  0
 12 13  1  0  0  0  0
 12 32  1  0  0  0  0
 13 14  2  0  0  0  0
 13 33  1  0  0  0  0
 14 15  1  0  0  0  0
 14 34  1  0  0  0  0
 15 16  2  0  0  0  0
 15 35  1  0  0  0  0
 17 18  1  0  0  0  0
 17 36  1  0  0  0  0
 17 37  1  0  0  0  0
 18 19  1  0  0  0  0
 18 20  1  0  0  0  0
 18 38  1  0  0  0  0
 19 39  1  0  0  0  0
 19 40  1  0  0  0  0
 19 41  1  0  0  0  0
M  END
> <s_m_source_file>
AV-unprocessed.smi

> <i_m_source_file_index>
2100

> <i_lp_mmshare_version>
43012

> <i_f3d_flags>
0

> <s_epik_input>
W0NIM11bQ0BASF0xW0NIMl1OKFtDSDJdW0NASF0oTzEpW0NIM10pUyg9TykoPU8pW05IXVtDSDJdW0NIMl1jMltjSF1bY0hdW2NIXVtjSF1uMg==

> <s_epik_cmdline>
J2VwaWtfcHl0aG9uJywgJy1waCcsICc3LjAnLCAnLXRuJywgJzgnLCAnLW1hJywgJzIwMCcsICctbWV0YWxfYmluZGluZycsICctaW1hZScsICc8aW5maWxlLm1hZT4nLCAnLW9tYWUnLCAnPG91dGZpbGUubWFlPic=

> <r_epik_Ionization_Penalty>
0.085378

> <r_epik_Ionization_Penalty_Charging>
0

> <r_epik_Ionization_Penalty_Neutral>
0.085378

> <r_epik_State_Penalty>
0.0441186

> <r_epik_Charging_Adjusted_Penalty>
0.0441186

> <i_epik_Tot_Q>
0

> <i_epik_Tot_abs_Q>
0

> <r_epik_Metal_State_Penalty>
0.24397

> <b_epik_Metal_Only>
0

> <s_lp_Force_Field>
OPLS_2005

> <r_lp_Energy>
7.96462

> <b_lp_Chiralities_Consistent>
1

> <s_lp_Variant>
AV-unprocessed.smi:2100-1

> <Gold.Version>
5.8.1

> <Gold.Id.Protein>
6NUR|6NUR_protein|mol2

> <Gold.PLP.Fitness>
52.8479

> <Gold.PLP.PLP>
-48.6651

> <Gold.PLP.part.hbond>
-2.1651

> <Gold.PLP.part.metal>
0.0000

> <Gold.PLP.part.buried>
-5.8431

> <Gold.PLP.part.nonpolar>
-41.1979

> <Gold.PLP.part.repulsive>
0.0728

> <Gold.PLP.ligand.clash>
0.3308

> <Gold.PLP.ligand.torsion>
1.1121

> <Gold.PLP.Chemscore.Hbond>
2.0000

> <Gold.PLP.Chemscore.CHOScore>
0.0000

> <Gold.PLP.Chemscore.Metal>
0.0000

> <Gold.Chemscore.Hbonds>
donor molecule, donor type, donor heavy atom, donor atom, acceptor molecule, acceptor atom, score
      P1  H  7989  7998       L1    20  1.00
      P1  H  7997  8008       L1     7  0.71

> <Gold.PLP.Chemscore.Internal.Correction>
0.7379

> <Gold.Rescore>
     Score         DG    S(hbond)    S(metal)    S(lipo)     H(rot)  DE(clash)    DE(int)     intcor
     21.77     -22.96       2.36        0.00     119.48       1.71       0.00       1.20       ----

> <Gold.Chemscore.Fitness>
21.7651

> <Gold.Chemscore.DG>
-22.9636

> <Gold.Chemscore.ZeroCoef>
-5.4800

> <Gold.Chemscore.Hbond>
2.3567

> <Gold.Chemscore.Metal>
0.0000

> <Gold.Chemscore.Lipo>
119.4826

> <Gold.Chemscore.Internal_Hbond>
0.0000

> <Gold.Chemscore.DEClash>
0.0000

> <Gold.Chemscore.DEInternal>
1.1984

> <Gold.Chemscore.Rot>
1.7060

> <Gold.Chemscore.Internal.Correction>
   9.000000E+99

> <Gold.Chemscore.Hbonds>
donor molecule, donor type, donor heavy atom, donor atom, acceptor molecule, acceptor atom, score
      P1  H  7989  7998       L1    20  0.91
      P1  H  7997  8008       L1     7  0.47

> <Gold.Chemscore.Hbond.Weighted>
-7.8715

> <Gold.Chemscore.Metal.Weighted>
-0.0000

> <Gold.Chemscore.Lipo.Weighted>
-13.9795

> <Gold.Chemscore.Internal_Hbond.Weighted>
0.0000

> <Gold.Chemscore.DEClash.Weighted>
0.0000

> <Gold.Chemscore.DEInternal.Weighted>
1.1984

> <Gold.Chemscore.Rot.Weighted>
4.3674

> <Gold.Chemscore.Internal.Correction.Weighted>
   9.000000E+99

> <Gold.Protein.RotatedTorsions>
[ 6907 6896 6895 6894 ] final  101.94 input  -60.11 | X-H torsion
[ 7974 7965 7964 7962 ] final   42.90 input  175.53 | X-H torsion
[ 8008 7997 7996 7995 ] final -114.39 input   59.86 | X-H torsion
[ 10167 10162 10161 10158 ] final -169.61 input  -65.29 | X-H torsion
[ 10718 10713 10712 10709 ] final    5.18 input   66.30 | X-H torsion
[ 10763 10752 10751 10750 ] final   36.44 input  -60.55 | X-H torsion
[ 11005 11000 10999 10996 ] final  -68.17 input  -57.11 | X-H torsion

> <Gold.Protein.ActiveResidues>
 VAL166  LYS551  ARG553  GLY616  TRP617  ASP618  TYR619  PRO620  LYS621  CYS622 
 ASP623  PHE694  ASN695  SER759  ASP760  ASP761  ALA762  ILE779  LEU786  VAL792 
 PHE793  MET794  SER795  GLU796  ALA797  LYS798  CYS799  TRP800  GLU811  SER814 

> <Gold.Protein.RotatedAtoms>
  152.5337  134.0051  159.7912 H   0  0  0  0  0  0  0  0  0  0  0  0  # atno 6907 bound_to 6896
  151.0263  133.5823  159.2673 H   0  0  0  0  0  0  0  0  0  0  0  0  # atno 6908 bound_to 6896
  151.2844  135.0730  159.9235 H   0  0  0  0  0  0  0  0  0  0  0  0  # atno 6909 bound_to 6896
  146.0701  139.5247  142.9603 H   0  0  0  0  0  0  0  0  0  0  0  0  # atno 7974 bound_to 7965
  155.0356  140.0392  157.2490 H   0  0  0  0  0  0  0  0  0  0  0  0  # atno 8008 bound_to 7997
  154.7260  140.2721  155.6475 H   0  0  0  0  0  0  0  0  0  0  0  0  # atno 8009 bound_to 7997
  156.2829  140.2693  156.1946 H   0  0  0  0  0  0  0  0  0  0  0  0  # atno 8010 bound_to 7997
  139.5912  144.1209  152.1636 H   0  0  0  0  0  0  0  0  0  0  0  0  # atno 10167 bound_to 10162
  156.9035  130.5730  149.5648 H   0  0  0  0  0  0  0  0  0  0  0  0  # atno 10718 bound_to 10713
  153.0077  135.6306  154.1985 H   0  0  0  0  0  0  0  0  0  0  0  0  # atno 10763 bound_to 10752
  154.1729  135.2817  155.3077 H   0  0  0  0  0  0  0  0  0  0  0  0  # atno 10764 bound_to 10752
  154.5895  135.5622  153.7324 H   0  0  0  0  0  0  0  0  0  0  0  0  # atno 10765 bound_to 10752
  141.1526  133.6735  156.6405 H   0  0  0  0  0  0  0  0  0  0  0  0  # atno 11005 bound_to 11000
  145.6407  141.0285  143.1813 LP  0  0  0  0  0  0  0  0  0  0  0  0  # atno 17320 bound_to 7965
  144.7226  139.7979  143.7376 LP  0  0  0  0  0  0  0  0  0  0  0  0  # atno 17321 bound_to 7965
  140.0783  144.5721  150.7140 LP  0  0  0  0  0  0  0  0  0  0  0  0  # atno 17342 bound_to 10162
  140.7175  143.2557  151.4388 LP  0  0  0  0  0  0  0  0  0  0  0  0  # atno 17343 bound_to 10162
  156.0570  130.5630  150.9113 LP  0  0  0  0  0  0  0  0  0  0  0  0  # atno 17370 bound_to 10713
  157.6011  131.0941  150.8958 LP  0  0  0  0  0  0  0  0  0  0  0  0  # atno 17371 bound_to 10713
  140.3397  134.7859  157.4388 LP  0  0  0  0  0  0  0  0  0  0  0  0  # atno 17394 bound_to 11000
  140.0948  134.5552  155.8409 LP  0  0  0  0  0  0  0  0  0  0  0  0  # atno 17395 bound_to 11000

$$$$
