AV-unprocessed.smi:3205|AV-procd|sdf|12254|dock6
  -GOLD-   2272018 93D 1   1.00000     0.00000
 Structure written by MMmdl.
 38 39  0  0  0  0  0  0  0  0  2 V2000
  146.6057  140.5127  153.9260 C   0  0  0  0  0  0  0  0  0  0  0  0
  147.7814  139.6219  153.4759 C   0  0  2  0  0  0  0  0  0  0  0  0
  147.2993  138.2411  153.2366 N   0  3  0  0  0  0  0  0  0  0  0  0
  146.2711  138.0985  152.1844 C   0  0  0  0  0  0  0  0  0  0  0  0
  145.1607  137.1377  152.6341 C   0  0  0  0  0  0  0  0  0  0  0  0
  145.0468  135.9894  151.7553 N   0  0  0  0  0  0  0  0  0  0  0  0
  145.9615  134.9802  151.5393 C   0  0  0  0  0  0  0  0  0  0  0  0
  145.4182  134.1302  150.6191 C   0  0  0  0  0  0  0  0  0  0  0  0
  144.1545  134.7136  150.3240 C   0  0  0  0  0  0  0  0  0  0  0  0
  143.9369  135.8285  151.0031 N   0  0  0  0  0  0  0  0  0  0  0  0
  148.9450  139.5983  154.5031 C   0  0  0  0  0  0  0  0  0  0  0  0
  149.4486  141.0076  154.8814 C   0  0  0  0  0  0  0  0  0  0  0  0
  150.6605  140.9363  155.8254 C   0  0  0  0  0  0  0  0  0  0  0  0
  151.7023  140.1771  155.2260 O   0  0  0  0  0  0  0  0  0  0  0  0
  151.3245  138.8292  154.9796 C   0  0  0  0  0  0  0  0  0  0  0  0
  150.1539  138.7893  153.9844 C   0  0  0  0  0  0  0  0  0  0  0  0
  146.8989  141.5592  154.0039 H   0  0  0  0  0  0  0  0  0  0  0  0
  146.2203  140.1999  154.8970 H   0  0  0  0  0  0  0  0  0  0  0  0
  145.7785  140.4826  153.2176 H   0  0  0  0  0  0  0  0  0  0  0  0
  148.1726  140.0146  152.5359 H   0  0  0  0  0  0  0  0  0  0  0  0
  148.0955  137.6923  152.9445 H   0  0  0  0  0  0  0  0  0  0  0  0
  145.8412  139.0720  151.9484 H   0  0  0  0  0  0  0  0  0  0  0  0
  146.7415  137.7235  151.2743 H   0  0  0  0  0  0  0  0  0  0  0  0
  145.3511  136.7789  153.6466 H   0  0  0  0  0  0  0  0  0  0  0  0
  144.1995  137.6534  152.6557 H   0  0  0  0  0  0  0  0  0  0  0  0
  146.9120  134.9501  152.0515 H   0  0  0  0  0  0  0  0  0  0  0  0
  145.8573  133.2297  150.2160 H   0  0  0  0  0  0  0  0  0  0  0  0
  143.3955  134.3634  149.6403 H   0  0  0  0  0  0  0  0  0  0  0  0
  148.5848  139.1193  155.4153 H   0  0  0  0  0  0  0  0  0  0  0  0
  149.7241  141.5576  153.9805 H   0  0  0  0  0  0  0  0  0  0  0  0
  148.6645  141.5827  155.3728 H   0  0  0  0  0  0  0  0  0  0  0  0
  151.0326  141.9399  156.0325 H   0  0  0  0  0  0  0  0  0  0  0  0
  150.3810  140.4980  156.7849 H   0  0  0  0  0  0  0  0  0  0  0  0
  152.1815  138.2938  154.5707 H   0  0  0  0  0  0  0  0  0  0  0  0
  151.0580  138.3358  155.9155 H   0  0  0  0  0  0  0  0  0  0  0  0
  149.8793  137.7495  153.8062 H   0  0  0  0  0  0  0  0  0  0  0  0
  150.4847  139.1915  153.0258 H   0  0  0  0  0  0  0  0  0  0  0  0
  146.9500  137.8593  154.1041 H   0  0  0  0  0  0  0  0  0  0  0  0
  1  2  1  0  0  0  0
  1 17  1  0  0  0  0
  1 18  1  0  0  0  0
  1 19  1  0  0  0  0
  2  3  1  0  0  0  0
  2 11  1  0  0  0  0
  2 20  1  0  0  0  0
  3  4  1  0  0  0  0
  3 21  1  0  0  0  0
  3 38  1  0  0  0  0
  4  5  1  0  0  0  0
  4 22  1  0  0  0  0
  4 23  1  0  0  0  0
  5  6  1  0  0  0  0
  5 24  1  0  0  0  0
  5 25  1  0  0  0  0
  6 10  1  0  0  0  0
  6  7  1  0  0  0  0
  7  8  2  0  0  0  0
  7 26  1  0  0  0  0
  8  9  1  0  0  0  0
  8 27  1  0  0  0  0
  9 10  2  0  0  0  0
  9 28  1  0  0  0  0
 11 16  1  0  0  0  0
 11 12  1  0  0  0  0
 11 29  1  0  0  0  0
 12 13  1  0  0  0  0
 12 30  1  0  0  0  0
 12 31  1  0  0  0  0
 13 14  1  0  0  0  0
 13 32  1  0  0  0  0
 13 33  1  0  0  0  0
 14 15  1  0  0  0  0
 15 16  1  0  0  0  0
 15 34  1  0  0  0  0
 15 35  1  0  0  0  0
 16 36  1  0  0  0  0
 16 37  1  0  0  0  0
M  CHG  1   3   1
M  END
> <s_m_source_file>
AV-unprocessed.smi

> <i_m_source_file_index>
3205

> <i_lp_mmshare_version>
43012

> <i_f3d_flags>
0

> <s_epik_input>
W0NIMl0xW0NIMl1PW0NIMl1bQ0gyXVtDSF0xW0NASF0oW0NIM10pW05IXVtDSDJdW0NIMl1uMltjSF1bY0hdW2NIXW4y

> <s_epik_cmdline>
J2VwaWtfcHl0aG9uJywgJy1waCcsICc3LjAnLCAnLXRuJywgJzgnLCAnLW1hJywgJzIwMCcsICctbWV0YWxfYmluZGluZycsICctaW1hZScsICc8aW5maWxlLm1hZT4nLCAnLW9tYWUnLCAnPG91dGZpbGUubWFlPic=

> <r_lp_tautomer_probability>
1

> <r_epik_Ionization_Penalty>
0.00310903

> <r_epik_Ionization_Penalty_Charging>
0.00310601

> <r_epik_Ionization_Penalty_Neutral>
3.02836e-06

> <r_epik_State_Penalty>
-0

> <r_epik_Charging_Adjusted_Penalty>
0.00310601

> <i_epik_Tot_Q>
1

> <i_epik_Tot_abs_Q>
1

> <r_epik_Metal_State_Penalty>
-0

> <b_epik_Metal_Only>
0

> <s_lp_Force_Field>
OPLS_2005

> <r_lp_Energy>
15.8656

> <b_lp_Chiralities_Consistent>
1

> <s_lp_Variant>
AV-unprocessed.smi:3205-1

> <Gold.Version>
5.8.1

> <Gold.Id.Protein>
6NUR|6NUR_protein|mol2

> <Gold.PLP.Fitness>
42.3445

> <Gold.PLP.PLP>
-29.0911

> <Gold.PLP.part.hbond>
-2.0000

> <Gold.PLP.part.metal>
0.0000

> <Gold.PLP.part.buried>
-1.2869

> <Gold.PLP.part.nonpolar>
-28.4067

> <Gold.PLP.part.repulsive>
0.2740

> <Gold.PLP.ligand.clash>
0.0000

> <Gold.PLP.ligand.torsion>
0.7422

> <Gold.PLP.Chemscore.Hbond>
2.8960

> <Gold.PLP.Chemscore.CHOScore>
2.0000

> <Gold.PLP.Chemscore.Metal>
0.0000

> <Gold.Chemscore.Hbonds>
donor molecule, donor type, donor heavy atom, donor atom, acceptor molecule, acceptor atom, score
      L1  H     3    21       P1  7948  2.00
      P1  H  7989  7998       L1    14  0.91
      L1  C     7    26       P1  7948  1.00
      L1  C     9    28       P1 10186  1.00

> <Gold.PLP.Chemscore.Internal.Correction>
0.0498

> <Gold.Rescore>
     Score         DG    S(hbond)    S(metal)    S(lipo)     H(rot)  DE(clash)    DE(int)     intcor
     12.37     -13.14       1.05        0.00      71.94       1.66       0.07       0.70       ----

> <Gold.Chemscore.Fitness>
12.3735

> <Gold.Chemscore.DG>
-13.1403

> <Gold.Chemscore.ZeroCoef>
-5.4800

> <Gold.Chemscore.Hbond>
1.0454

> <Gold.Chemscore.Metal>
0.0000

> <Gold.Chemscore.Lipo>
71.9392

> <Gold.Chemscore.Internal_Hbond>
0.0000

> <Gold.Chemscore.DEClash>
0.0681

> <Gold.Chemscore.DEInternal>
0.6987

> <Gold.Chemscore.Rot>
1.6594

> <Gold.Chemscore.Internal.Correction>
   9.000000E+99

> <Gold.Chemscore.Hbonds>
donor molecule, donor type, donor heavy atom, donor atom, acceptor molecule, acceptor atom, score
      L1  H     3    21       P1  7948  0.93
      P1  H  7989  7998       L1    14  0.07

> <Gold.Chemscore.Hbond.Weighted>
-3.4916

> <Gold.Chemscore.Metal.Weighted>
-0.0000

> <Gold.Chemscore.Lipo.Weighted>
-8.4169

> <Gold.Chemscore.Internal_Hbond.Weighted>
0.0000

> <Gold.Chemscore.DEClash.Weighted>
0.0681

> <Gold.Chemscore.DEInternal.Weighted>
0.6987

> <Gold.Chemscore.Rot.Weighted>
4.2482

> <Gold.Chemscore.Internal.Correction.Weighted>
   9.000000E+99

> <Gold.Protein.RotatedTorsions>
[ 6907 6896 6895 6894 ] final   -0.44 input  -60.11 | X-H torsion
[ 7974 7965 7964 7962 ] final  147.06 input  175.53 | X-H torsion
[ 8008 7997 7996 7995 ] final  128.03 input   59.86 | X-H torsion
[ 10167 10162 10161 10158 ] final  -22.50 input  -65.29 | X-H torsion
[ 10718 10713 10712 10709 ] final   88.05 input   66.30 | X-H torsion
[ 10763 10752 10751 10750 ] final  -19.51 input  -60.55 | X-H torsion
[ 11005 11000 10999 10996 ] final   82.09 input  -57.11 | X-H torsion

> <Gold.Protein.ActiveResidues>
 VAL166  LYS551  ARG553  GLY616  TRP617  ASP618  TYR619  PRO620  LYS621  CYS622 
 ASP623  PHE694  ASN695  SER759  ASP760  ASP761  ALA762  ILE779  LEU786  VAL792 
 PHE793  MET794  SER795  GLU796  ALA797  LYS798  CYS799  TRP800  GLU811  SER814 

> <Gold.Protein.RotatedAtoms>
  151.5623  135.1065  159.9975 H   0  0  0  0  0  0  0  0  0  0  0  0  # atno 6907 bound_to 6896
  152.4441  133.7498  159.6698 H   0  0  0  0  0  0  0  0  0  0  0  0  # atno 6908 bound_to 6896
  150.8352  133.7957  159.3106 H   0  0  0  0  0  0  0  0  0  0  0  0  # atno 6909 bound_to 6896
  144.8622  139.5981  143.5925 H   0  0  0  0  0  0  0  0  0  0  0  0  # atno 7974 bound_to 7965
  156.2905  140.2654  156.2370 H   0  0  0  0  0  0  0  0  0  0  0  0  # atno 8008 bound_to 7997
  155.0015  140.0388  157.2380 H   0  0  0  0  0  0  0  0  0  0  0  0  # atno 8009 bound_to 7997
  154.7597  140.2758  155.6229 H   0  0  0  0  0  0  0  0  0  0  0  0  # atno 8010 bound_to 7997
  140.7286  143.4529  151.0490 H   0  0  0  0  0  0  0  0  0  0  0  0  # atno 10167 bound_to 10162
  157.6946  131.0279  150.3216 H   0  0  0  0  0  0  0  0  0  0  0  0  # atno 10718 bound_to 10713
  153.6059  135.6998  153.5366 H   0  0  0  0  0  0  0  0  0  0  0  0  # atno 10763 bound_to 10752
  153.3058  135.4115  155.1292 H   0  0  0  0  0  0  0  0  0  0  0  0  # atno 10764 bound_to 10752
  154.8573  135.3660  154.5596 H   0  0  0  0  0  0  0  0  0  0  0  0  # atno 10765 bound_to 10752
  139.9075  134.8046  156.2128 H   0  0  0  0  0  0  0  0  0  0  0  0  # atno 11005 bound_to 11000
  146.2869  139.7028  142.9189 LP  0  0  0  0  0  0  0  0  0  0  0  0  # atno 17320 bound_to 7965
  145.4291  141.0413  143.2921 LP  0  0  0  0  0  0  0  0  0  0  0  0  # atno 17321 bound_to 7965
  139.8207  143.7824  152.3176 LP  0  0  0  0  0  0  0  0  0  0  0  0  # atno 17342 bound_to 10162
  139.7906  144.7411  150.9960 LP  0  0  0  0  0  0  0  0  0  0  0  0  # atno 17343 bound_to 10162
  156.3702  130.3862  149.7181 LP  0  0  0  0  0  0  0  0  0  0  0  0  # atno 17370 bound_to 10713
  156.4598  130.7946  151.2967 LP  0  0  0  0  0  0  0  0  0  0  0  0  # atno 17371 bound_to 10713
  141.0454  133.6916  156.1674 LP  0  0  0  0  0  0  0  0  0  0  0  0  # atno 17394 bound_to 11000
  140.6891  134.4685  157.5589 LP  0  0  0  0  0  0  0  0  0  0  0  0  # atno 17395 bound_to 11000

$$$$
