AV-unprocessed.smi:1954|AV-procd|sdf|7897|dock7
  -GOLD-   2272010 53D 1   1.00000     0.00000
 Structure written by MMmdl.
 45 47  0  0  0  0  0  0  0  0  2 V2000
  149.0795  135.6217  158.0546 O   0  0  0  0  0  0  0  0  0  0  0  0
  148.5113  136.7060  158.1830 C   0  0  0  0  0  0  0  0  0  0  0  0
  148.6597  137.7220  157.3210 N   0  0  0  0  0  0  0  0  0  0  0  0
  149.4992  137.7167  156.1228 C   0  0  0  0  0  0  0  0  0  0  0  0
  149.8764  139.1478  155.6244 C   0  0  2  0  0  0  0  0  0  0  0  0
  148.7134  139.6968  154.8340 N   0  3  0  0  0  0  0  0  0  0  0  0
  148.8920  141.0955  154.3524 C   0  0  0  0  0  0  0  0  0  0  0  0
  147.5794  141.6412  153.7705 C   0  0  0  0  0  0  0  0  0  0  0  0
  147.1625  140.8042  152.7017 O   0  0  0  0  0  0  0  0  0  0  0  0
  146.8926  139.4830  153.1479 C   0  0  0  0  0  0  0  0  0  0  0  0
  148.1637  138.8491  153.7414 C   0  0  0  0  0  0  0  0  0  0  0  0
  151.2091  139.0895  154.8244 C   0  0  0  0  0  0  0  0  0  0  0  0
  152.3512  138.8112  155.8056 C   0  0  0  0  0  0  0  0  0  0  0  0
  151.9395  139.6614  157.3478 S   0  0  0  0  0  0  0  0  0  0  0  0
  150.2436  140.0462  156.8292 C   0  0  0  0  0  0  0  0  0  0  0  0
  147.6737  137.0342  159.1818 N   0  0  0  0  0  0  0  0  0  0  0  0
  147.2682  136.2496  160.2947 C   0  0  0  0  0  0  0  0  0  0  0  0
  147.2665  134.8319  160.2252 C   0  0  0  0  0  0  0  0  0  0  0  0
  146.8862  134.0861  161.3579 C   0  0  0  0  0  0  0  0  0  0  0  0
  146.5302  134.7696  162.5335 C   0  0  0  0  0  0  0  0  0  0  0  0
  146.5766  136.1752  162.5221 C   0  0  0  0  0  0  0  0  0  0  0  0
  146.9408  136.8935  161.4385 N   0  0  0  0  0  0  0  0  0  0  0  0
  148.1438  138.5709  157.5030 H   0  0  0  0  0  0  0  0  0  0  0  0
  150.3890  137.1115  156.2976 H   0  0  0  0  0  0  0  0  0  0  0  0
  148.9497  137.1692  155.3578 H   0  0  0  0  0  0  0  0  0  0  0  0
  149.2175  141.7471  155.1618 H   0  0  0  0  0  0  0  0  0  0  0  0
  149.6619  141.1353  153.5810 H   0  0  0  0  0  0  0  0  0  0  0  0
  146.8024  141.7010  154.5343 H   0  0  0  0  0  0  0  0  0  0  0  0
  147.7299  142.6513  153.3889 H   0  0  0  0  0  0  0  0  0  0  0  0
  146.0879  139.4961  153.8853 H   0  0  0  0  0  0  0  0  0  0  0  0
  146.5382  138.8911  152.3038 H   0  0  0  0  0  0  0  0  0  0  0  0
  148.9174  138.7082  152.9655 H   0  0  0  0  0  0  0  0  0  0  0  0
  147.8800  137.8660  154.1150 H   0  0  0  0  0  0  0  0  0  0  0  0
  151.1899  138.3652  154.0097 H   0  0  0  0  0  0  0  0  0  0  0  0
  151.4389  140.0580  154.3808 H   0  0  0  0  0  0  0  0  0  0  0  0
  152.4407  137.7432  156.0043 H   0  0  0  0  0  0  0  0  0  0  0  0
  153.3116  139.1533  155.4195 H   0  0  0  0  0  0  0  0  0  0  0  0
  150.2356  141.0968  156.5364 H   0  0  0  0  0  0  0  0  0  0  0  0
  149.5562  139.9338  157.6682 H   0  0  0  0  0  0  0  0  0  0  0  0
  147.2034  137.9230  159.0924 H   0  0  0  0  0  0  0  0  0  0  0  0
  147.5616  134.3032  159.3320 H   0  0  0  0  0  0  0  0  0  0  0  0
  146.8747  133.0069  161.3259 H   0  0  0  0  0  0  0  0  0  0  0  0
  146.2351  134.2311  163.4220 H   0  0  0  0  0  0  0  0  0  0  0  0
  146.3182  136.7385  163.4066 H   0  0  0  0  0  0  0  0  0  0  0  0
  147.9622  139.7454  155.5080 H   0  0  0  0  0  0  0  0  0  0  0  0
  1  2  2  0  0  0  0
  2  3  1  0  0  0  0
  2 16  1  0  0  0  0
  3  4  1  0  0  0  0
  3 23  1  0  0  0  0
  4  5  1  0  0  0  0
  4 24  1  0  0  0  0
  4 25  1  0  0  0  0
  5 15  1  0  0  0  0
  5  6  1  0  0  0  0
  5 12  1  0  0  0  0
  6 11  1  0  0  0  0
  6  7  1  0  0  0  0
  6 45  1  0  0  0  0
  7  8  1  0  0  0  0
  7 26  1  0  0  0  0
  7 27  1  0  0  0  0
  8  9  1  0  0  0  0
  8 28  1  0  0  0  0
  8 29  1  0  0  0  0
  9 10  1  0  0  0  0
 10 11  1  0  0  0  0
 10 30  1  0  0  0  0
 10 31  1  0  0  0  0
 11 32  1  0  0  0  0
 11 33  1  0  0  0  0
 12 13  1  0  0  0  0
 12 34  1  0  0  0  0
 12 35  1  0  0  0  0
 13 14  1  0  0  0  0
 13 36  1  0  0  0  0
 13 37  1  0  0  0  0
 14 15  1  0  0  0  0
 15 38  1  0  0  0  0
 15 39  1  0  0  0  0
 16 17  1  0  0  0  0
 16 40  1  0  0  0  0
 17 22  1  0  0  0  0
 17 18  2  0  0  0  0
 18 19  1  0  0  0  0
 18 41  1  0  0  0  0
 19 20  2  0  0  0  0
 19 42  1  0  0  0  0
 20 21  1  0  0  0  0
 20 43  1  0  0  0  0
 21 22  2  0  0  0  0
 21 44  1  0  0  0  0
M  CHG  1   6   1
M  END
> <s_m_source_file>
AV-unprocessed.smi

> <i_m_source_file_index>
1954

> <i_lp_mmshare_version>
43012

> <i_f3d_flags>
0

> <s_epik_input>
bjFbY0hdW2NIXVtjSF1bY0hdYzFbTkhdQyg9TylbTkhdW0NIMl1bQ0BdMihbQ0gyXVtDSDJdU1tDSDJdMilOM1tDSDJdW0NIMl1PW0NIMl1bQ0gyXTM=

> <s_epik_cmdline>
J2VwaWtfcHl0aG9uJywgJy1waCcsICc3LjAnLCAnLXRuJywgJzgnLCAnLW1hJywgJzIwMCcsICctbWV0YWxfYmluZGluZycsICctaW1hZScsICc8aW5maWxlLm1hZT4nLCAnLW9tYWUnLCAnPG91dGZpbGUubWFlPic=

> <r_epik_Ionization_Penalty>
2.03222

> <r_epik_Ionization_Penalty_Charging>
2.03219

> <r_epik_Ionization_Penalty_Neutral>
3.25833e-05

> <r_epik_State_Penalty>
2.16328

> <r_epik_Charging_Adjusted_Penalty>
4.19546

> <i_epik_Tot_Q>
1

> <i_epik_Tot_abs_Q>
1

> <r_epik_Metal_State_Penalty>
2.16328

> <b_epik_Metal_Only>
0

> <s_lp_Force_Field>
OPLS_2005

> <r_lp_Energy>
46.5202

> <b_lp_Chiralities_Consistent>
1

> <s_lp_Variant>
AV-unprocessed.smi:1954-4

> <Gold.Version>
5.8.1

> <Gold.Id.Protein>
6NUR|6NUR_protein|mol2

> <Gold.PLP.Fitness>
45.9268

> <Gold.PLP.PLP>
-39.1691

> <Gold.PLP.part.hbond>
-3.0000

> <Gold.PLP.part.metal>
0.0000

> <Gold.PLP.part.buried>
-3.5647

> <Gold.PLP.part.nonpolar>
-33.1000

> <Gold.PLP.part.repulsive>
0.9495

> <Gold.PLP.ligand.clash>
0.0000

> <Gold.PLP.ligand.torsion>
0.6979

> <Gold.PLP.Chemscore.Hbond>
2.6736

> <Gold.PLP.Chemscore.CHOScore>
0.0000

> <Gold.PLP.Chemscore.Metal>
0.0000

> <Gold.Chemscore.Hbonds>
donor molecule, donor type, donor heavy atom, donor atom, acceptor molecule, acceptor atom, score
      P1  H  6896  6908       L1     1  0.02
      P1  H  6934  6947       L1    22  0.59

> <Gold.PLP.Chemscore.Internal.Correction>
0.1328

> <Gold.Rescore>
     Score         DG    S(hbond)    S(metal)    S(lipo)     H(rot)  DE(clash)    DE(int)     intcor
     16.02     -17.81       1.68        0.00      91.13       1.54       0.17       1.62       ----

> <Gold.Chemscore.Fitness>
16.0171

> <Gold.Chemscore.DG>
-17.8073

> <Gold.Chemscore.ZeroCoef>
-5.4800

> <Gold.Chemscore.Hbond>
1.6754

> <Gold.Chemscore.Metal>
0.0000

> <Gold.Chemscore.Lipo>
91.1308

> <Gold.Chemscore.Internal_Hbond>
0.0000

> <Gold.Chemscore.DEClash>
0.1675

> <Gold.Chemscore.DEInternal>
1.6227

> <Gold.Chemscore.Rot>
1.5355

> <Gold.Chemscore.Internal.Correction>
   9.000000E+99

> <Gold.Chemscore.Hbonds>
donor molecule, donor type, donor heavy atom, donor atom, acceptor molecule, acceptor atom, score
      P1  H  6896  6908       L1     1  0.07
      P1  H  6934  6947       L1    22  0.26

> <Gold.Chemscore.Hbond.Weighted>
-5.5960

> <Gold.Chemscore.Metal.Weighted>
-0.0000

> <Gold.Chemscore.Lipo.Weighted>
-10.6623

> <Gold.Chemscore.Internal_Hbond.Weighted>
0.0000

> <Gold.Chemscore.DEClash.Weighted>
0.1675

> <Gold.Chemscore.DEInternal.Weighted>
1.6227

> <Gold.Chemscore.Rot.Weighted>
3.9309

> <Gold.Chemscore.Internal.Correction.Weighted>
   9.000000E+99

> <Gold.Protein.RotatedTorsions>
[ 6907 6896 6895 6894 ] final  173.90 input  -60.11 | X-H torsion
[ 7974 7965 7964 7962 ] final   87.82 input  175.53 | X-H torsion
[ 8008 7997 7996 7995 ] final    6.08 input   59.86 | X-H torsion
[ 10167 10162 10161 10158 ] final  127.17 input  -65.29 | X-H torsion
[ 10718 10713 10712 10709 ] final  -53.13 input   66.30 | X-H torsion
[ 10763 10752 10751 10750 ] final -108.65 input  -60.55 | X-H torsion
[ 11005 11000 10999 10996 ] final  -11.49 input  -57.11 | X-H torsion

> <Gold.Protein.ActiveResidues>
 VAL166  LYS551  ARG553  GLY616  TRP617  ASP618  TYR619  PRO620  LYS621  CYS622 
 ASP623  PHE694  ASN695  SER759  ASP760  ASP761  ALA762  ILE779  LEU786  VAL792 
 PHE793  MET794  SER795  GLU796  ALA797  LYS798  CYS799  TRP800  GLU811  SER814 

> <Gold.Protein.RotatedAtoms>
  151.7609  133.3333  159.3417 H   0  0  0  0  0  0  0  0  0  0  0  0  # atno 6907 bound_to 6896
  150.7498  134.6106  159.6093 H   0  0  0  0  0  0  0  0  0  0  0  0  # atno 6908 bound_to 6896
  152.3405  134.7142  160.0316 H   0  0  0  0  0  0  0  0  0  0  0  0  # atno 6909 bound_to 6896
  145.5539  139.2298  143.2497 H   0  0  0  0  0  0  0  0  0  0  0  0  # atno 7974 bound_to 7965
  154.7365  140.2740  155.6410 H   0  0  0  0  0  0  0  0  0  0  0  0  # atno 8008 bound_to 7997
  156.2863  140.2705  156.2005 H   0  0  0  0  0  0  0  0  0  0  0  0  # atno 8009 bound_to 7997
  155.0314  140.0371  157.2465 H   0  0  0  0  0  0  0  0  0  0  0  0  # atno 8010 bound_to 7997
  139.5592  144.6870  151.4091 H   0  0  0  0  0  0  0  0  0  0  0  0  # atno 10167 bound_to 10162
  156.1561  130.4150  149.9867 H   0  0  0  0  0  0  0  0  0  0  0  0  # atno 10718 bound_to 10713
  154.8148  135.4630  154.0613 H   0  0  0  0  0  0  0  0  0  0  0  0  # atno 10763 bound_to 10752
  153.2015  135.6869  153.8232 H   0  0  0  0  0  0  0  0  0  0  0  0  # atno 10764 bound_to 10752
  153.7715  135.3269  155.3330 H   0  0  0  0  0  0  0  0  0  0  0  0  # atno 10765 bound_to 10752
  140.7558  133.8555  155.9083 H   0  0  0  0  0  0  0  0  0  0  0  0  # atno 11005 bound_to 11000
  146.1898  140.6363  142.9151 LP  0  0  0  0  0  0  0  0  0  0  0  0  # atno 17320 bound_to 7965
  144.7516  140.5204  143.6798 LP  0  0  0  0  0  0  0  0  0  0  0  0  # atno 17321 bound_to 7965
  140.6870  143.7951  150.7200 LP  0  0  0  0  0  0  0  0  0  0  0  0  # atno 17342 bound_to 10162
  140.1421  143.4432  152.2187 LP  0  0  0  0  0  0  0  0  0  0  0  0  # atno 17343 bound_to 10162
  156.7710  130.9186  151.3644 LP  0  0  0  0  0  0  0  0  0  0  0  0  # atno 17370 bound_to 10713
  157.6696  130.9039  150.0010 LP  0  0  0  0  0  0  0  0  0  0  0  0  # atno 17371 bound_to 10713
  140.9709  134.1533  157.4577 LP  0  0  0  0  0  0  0  0  0  0  0  0  # atno 17394 bound_to 11000
  139.8779  134.9978  156.5866 LP  0  0  0  0  0  0  0  0  0  0  0  0  # atno 17395 bound_to 11000

$$$$
