AV-unprocessed.smi:3345|AV-procd|sdf|12899|dock7
  -GOLD-   2272019313D 1   1.00000     0.00000
 Structure written by MMmdl.
 40 41  0  0  0  0  0  0  0  0  1 V2000
  151.1727  140.5073  156.6416 C   0  0  0  0  0  0  0  0  0  0  0  0
  150.6267  141.9216  156.4060 C   0  0  2  0  0  0  0  0  0  0  0  0
  150.3453  142.6530  157.7365 C   0  0  0  0  0  0  0  0  0  0  0  0
  151.5119  142.8646  158.5967 N   0  0  0  0  0  0  0  0  0  0  0  0
  151.9147  141.6570  159.3132 C   0  0  0  0  0  0  0  0  0  0  0  0
  153.1416  141.9073  160.2067 C   0  0  0  0  0  0  0  0  0  0  0  0
  152.8645  142.9693  161.1140 O   0  0  0  0  0  0  0  0  0  0  0  0
  152.5063  144.1784  160.4528 C   0  0  0  0  0  0  0  0  0  0  0  0
  151.2777  143.9340  159.5596 C   0  0  0  0  0  0  0  0  0  0  0  0
  149.3949  141.8454  155.6245 N   0  0  0  0  0  0  0  0  0  0  0  0
  149.1964  141.0745  154.5431 C   0  0  0  0  0  0  0  0  0  0  0  0
  149.9810  140.1968  154.1817 O   0  0  0  0  0  0  0  0  0  0  0  0
  147.9348  141.3868  153.7249 C   0  0  2  0  0  0  0  0  0  0  0  0
  146.9308  142.2789  154.4837 C   0  0  0  0  0  0  0  0  0  0  0  0
  147.3332  140.1390  153.2662 N   0  0  0  0  0  0  0  0  0  0  0  0
  146.9703  139.0576  153.9599 C   0  0  0  0  0  0  0  0  0  0  0  0
  146.3823  138.1202  153.2304 N   0  0  0  0  0  0  0  0  0  0  0  0
  146.4030  138.7352  152.0112 C   0  0  0  0  0  0  0  0  0  0  0  0
  146.9507  139.9497  151.9786 N   0  0  0  0  0  0  0  0  0  0  0  0
  152.0987  140.5370  157.2166 H   0  0  0  0  0  0  0  0  0  0  0  0
  151.3885  140.0077  155.6966 H   0  0  0  0  0  0  0  0  0  0  0  0
  150.4601  139.8905  157.1901 H   0  0  0  0  0  0  0  0  0  0  0  0
  151.3928  142.4721  155.8588 H   0  0  0  0  0  0  0  0  0  0  0  0
  149.9138  143.6253  157.4938 H   0  0  0  0  0  0  0  0  0  0  0  0
  149.5736  142.1168  158.2909 H   0  0  0  0  0  0  0  0  0  0  0  0
  151.0875  141.2966  159.9263 H   0  0  0  0  0  0  0  0  0  0  0  0
  152.1539  140.8597  158.6109 H   0  0  0  0  0  0  0  0  0  0  0  0
  153.3886  141.0091  160.7724 H   0  0  0  0  0  0  0  0  0  0  0  0
  154.0145  142.1551  159.6014 H   0  0  0  0  0  0  0  0  0  0  0  0
  152.2872  144.9419  161.1993 H   0  0  0  0  0  0  0  0  0  0  0  0
  153.3481  144.5407  159.8614 H   0  0  0  0  0  0  0  0  0  0  0  0
  151.0270  144.8565  159.0349 H   0  0  0  0  0  0  0  0  0  0  0  0
  150.4190  143.6869  160.1856 H   0  0  0  0  0  0  0  0  0  0  0  0
  148.6840  142.5270  155.8467 H   0  0  0  0  0  0  0  0  0  0  0  0
  148.2502  141.9368  152.8368 H   0  0  0  0  0  0  0  0  0  0  0  0
  147.3848  143.2301  154.7635 H   0  0  0  0  0  0  0  0  0  0  0  0
  146.5683  141.8052  155.3969 H   0  0  0  0  0  0  0  0  0  0  0  0
  146.0634  142.5024  153.8618 H   0  0  0  0  0  0  0  0  0  0  0  0
  147.1303  138.9583  155.0234 H   0  0  0  0  0  0  0  0  0  0  0  0
  145.9927  138.2781  151.1227 H   0  0  0  0  0  0  0  0  0  0  0  0
  1  2  1  0  0  0  0
  1 20  1  0  0  0  0
  1 21  1  0  0  0  0
  1 22  1  0  0  0  0
  2  3  1  0  0  0  0
  2 10  1  0  0  0  0
  2 23  1  0  0  0  0
  3  4  1  0  0  0  0
  3 24  1  0  0  0  0
  3 25  1  0  0  0  0
  4  9  1  0  0  0  0
  4  5  1  0  0  0  0
  5  6  1  0  0  0  0
  5 26  1  0  0  0  0
  5 27  1  0  0  0  0
  6  7  1  0  0  0  0
  6 28  1  0  0  0  0
  6 29  1  0  0  0  0
  7  8  1  0  0  0  0
  8  9  1  0  0  0  0
  8 30  1  0  0  0  0
  8 31  1  0  0  0  0
  9 32  1  0  0  0  0
  9 33  1  0  0  0  0
 10 11  1  0  0  0  0
 10 34  1  0  0  0  0
 11 12  2  0  0  0  0
 11 13  1  0  0  0  0
 13 14  1  0  0  0  0
 13 15  1  0  0  0  0
 13 35  1  0  0  0  0
 14 36  1  0  0  0  0
 14 37  1  0  0  0  0
 14 38  1  0  0  0  0
 15 19  1  0  0  0  0
 15 16  1  0  0  0  0
 16 17  2  0  0  0  0
 16 39  1  0  0  0  0
 17 18  1  0  0  0  0
 18 19  2  0  0  0  0
 18 40  1  0  0  0  0
M  END
> <s_m_source_file>
AV-unprocessed.smi

> <i_m_source_file_index>
3345

> <i_lp_mmshare_version>
43012

> <i_f3d_flags>
0

> <s_epik_input>
W0NIMl0xW0NIMl1PW0NIMl1bQ0gyXU4xW0NIMl1bQ0BASF0oW0NIM10pW05IXUMoPU8pW0NASF0oW0NIM10pbjJbY0hdbltjSF1uMg==

> <s_epik_cmdline>
J2VwaWtfcHl0aG9uJywgJy1waCcsICc3LjAnLCAnLXRuJywgJzgnLCAnLW1hJywgJzIwMCcsICctbWV0YWxfYmluZGluZycsICctaW1hZScsICc8aW5maWxlLm1hZT4nLCAnLW9tYWUnLCAnPG91dGZpbGUubWFlPic=

> <r_lp_tautomer_probability>
1

> <r_epik_Ionization_Penalty>
0.211373

> <r_epik_Ionization_Penalty_Charging>
0

> <r_epik_Ionization_Penalty_Neutral>
0.211373

> <r_epik_State_Penalty>
0.201459

> <r_epik_Charging_Adjusted_Penalty>
0.201459

> <i_epik_Tot_Q>
0

> <i_epik_Tot_abs_Q>
0

> <r_epik_Metal_State_Penalty>
0.201458

> <b_epik_Metal_Only>
0

> <s_lp_Force_Field>
OPLS_2005

> <r_lp_Energy>
29.1887

> <b_lp_Chiralities_Consistent>
1

> <s_lp_Variant>
AV-unprocessed.smi:3345-1

> <Gold.Version>
5.8.1

> <Gold.Id.Protein>
6NUR|6NUR_protein|mol2

> <Gold.PLP.Fitness>
40.7974

> <Gold.PLP.PLP>
-36.5934

> <Gold.PLP.part.hbond>
-2.0000

> <Gold.PLP.part.metal>
0.0000

> <Gold.PLP.part.buried>
-6.4688

> <Gold.PLP.part.nonpolar>
-32.7590

> <Gold.PLP.part.repulsive>
4.5017

> <Gold.PLP.ligand.clash>
0.0082

> <Gold.PLP.ligand.torsion>
1.0757

> <Gold.PLP.Chemscore.Hbond>
1.0751

> <Gold.PLP.Chemscore.CHOScore>
0.9944

> <Gold.PLP.Chemscore.Metal>
0.0000

> <Gold.Chemscore.Hbonds>
donor molecule, donor type, donor heavy atom, donor atom, acceptor molecule, acceptor atom, score
      L1  H    10    34       P1  8028  0.30
      P1  H  7989  7998       L1    12  0.91
      L1  C    18    40       P1 10171  1.00

> <Gold.PLP.Chemscore.Internal.Correction>
0.1552

> <Gold.Rescore>
     Score         DG    S(hbond)    S(metal)    S(lipo)     H(rot)  DE(clash)    DE(int)     intcor
      7.68     -10.88       1.00        0.00      73.13       2.54       0.31       2.89       ----

> <Gold.Chemscore.Fitness>
7.6777

> <Gold.Chemscore.DG>
-10.8790

> <Gold.Chemscore.ZeroCoef>
-5.4800

> <Gold.Chemscore.Hbond>
0.9981

> <Gold.Chemscore.Metal>
0.0000

> <Gold.Chemscore.Lipo>
73.1276

> <Gold.Chemscore.Internal_Hbond>
0.0000

> <Gold.Chemscore.DEClash>
0.3098

> <Gold.Chemscore.DEInternal>
2.8915

> <Gold.Chemscore.Rot>
2.5353

> <Gold.Chemscore.Internal.Correction>
   9.000000E+99

> <Gold.Chemscore.Hbonds>
donor molecule, donor type, donor heavy atom, donor atom, acceptor molecule, acceptor atom, score
      L1  H    10    34       P1  8028  0.30
      P1  H  7989  7998       L1    12  0.75

> <Gold.Chemscore.Hbond.Weighted>
-3.3335

> <Gold.Chemscore.Metal.Weighted>
-0.0000

> <Gold.Chemscore.Lipo.Weighted>
-8.5559

> <Gold.Chemscore.Internal_Hbond.Weighted>
0.0000

> <Gold.Chemscore.DEClash.Weighted>
0.3098

> <Gold.Chemscore.DEInternal.Weighted>
2.8915

> <Gold.Chemscore.Rot.Weighted>
6.4905

> <Gold.Chemscore.Internal.Correction.Weighted>
   9.000000E+99

> <Gold.Protein.RotatedTorsions>
[ 6907 6896 6895 6894 ] final -130.60 input  -60.11 | X-H torsion
[ 7974 7965 7964 7962 ] final  156.63 input  175.53 | X-H torsion
[ 8008 7997 7996 7995 ] final  170.94 input   59.86 | X-H torsion
[ 10167 10162 10161 10158 ] final   88.99 input  -65.29 | X-H torsion
[ 10718 10713 10712 10709 ] final -151.75 input   66.30 | X-H torsion
[ 10763 10752 10751 10750 ] final  -49.56 input  -60.55 | X-H torsion
[ 11005 11000 10999 10996 ] final  -25.35 input  -57.11 | X-H torsion

> <Gold.Protein.ActiveResidues>
 VAL166  LYS551  ARG553  GLY616  TRP617  ASP618  TYR619  PRO620  LYS621  CYS622 
 ASP623  PHE694  ASN695  SER759  ASP760  ASP761  ALA762  ILE779  LEU786  VAL792 
 PHE793  MET794  SER795  GLU796  ALA797  LYS798  CYS799  TRP800  GLU811  SER814 

> <Gold.Protein.RotatedAtoms>
  150.9416  133.6650  159.2789 H   0  0  0  0  0  0  0  0  0  0  0  0  # atno 6907 bound_to 6896
  151.4038  135.0974  159.9573 H   0  0  0  0  0  0  0  0  0  0  0  0  # atno 6908 bound_to 6896
  152.5071  133.8904  159.7446 H   0  0  0  0  0  0  0  0  0  0  0  0  # atno 6909 bound_to 6896
  144.7951  139.7230  143.6205 H   0  0  0  0  0  0  0  0  0  0  0  0  # atno 7974 bound_to 7965
  156.1318  140.1525  156.9053 H   0  0  0  0  0  0  0  0  0  0  0  0  # atno 8008 bound_to 7997
  154.4915  140.0850  156.7645 H   0  0  0  0  0  0  0  0  0  0  0  0  # atno 8009 bound_to 7997
  155.4241  140.3424  155.4276 H   0  0  0  0  0  0  0  0  0  0  0  0  # atno 8010 bound_to 7997
  139.8618  144.6540  150.9050 H   0  0  0  0  0  0  0  0  0  0  0  0  # atno 10167 bound_to 10162
  156.4634  130.8224  151.2455 H   0  0  0  0  0  0  0  0  0  0  0  0  # atno 10718 bound_to 10713
  154.0961  135.6570  153.4860 H   0  0  0  0  0  0  0  0  0  0  0  0  # atno 10763 bound_to 10752
  153.0305  135.5214  154.7332 H   0  0  0  0  0  0  0  0  0  0  0  0  # atno 10764 bound_to 10752
  154.6471  135.2996  155.0002 H   0  0  0  0  0  0  0  0  0  0  0  0  # atno 10765 bound_to 10752
  140.8930  133.7575  156.0445 H   0  0  0  0  0  0  0  0  0  0  0  0  # atno 11005 bound_to 11000
  146.2217  139.5648  142.9614 LP  0  0  0  0  0  0  0  0  0  0  0  0  # atno 17320 bound_to 7965
  145.5693  141.0396  143.2183 LP  0  0  0  0  0  0  0  0  0  0  0  0  # atno 17321 bound_to 7965
  140.7774  143.3738  151.1601 LP  0  0  0  0  0  0  0  0  0  0  0  0  # atno 17342 bound_to 10162
  139.7367  143.8988  152.3037 LP  0  0  0  0  0  0  0  0  0  0  0  0  # atno 17343 bound_to 10162
  157.7496  131.0099  150.3287 LP  0  0  0  0  0  0  0  0  0  0  0  0  # atno 17370 bound_to 10713
  156.3692  130.3860  149.7189 LP  0  0  0  0  0  0  0  0  0  0  0  0  # atno 17371 bound_to 10713
  140.8324  134.3163  157.5344 LP  0  0  0  0  0  0  0  0  0  0  0  0  # atno 17394 bound_to 11000
  139.8732  134.9370  156.3677 LP  0  0  0  0  0  0  0  0  0  0  0  0  # atno 17395 bound_to 11000

$$$$
