AV-unprocessed.smi:1815|AV-procd|sdf|7363|dock2
  -GOLD-   22720 9 23D 1   1.00000     0.00000
 Structure written by MMmdl.
 39 40  0  0  0  0  0  0  0  0  3 V2000
  153.5432  139.0459  154.7067 C   0  0  0  0  0  0  0  0  0  0  0  0
  152.0587  138.6828  154.8896 C   0  0  1  0  0  0  0  0  0  0  0  0
  151.7645  137.9362  156.2059 C   0  0  0  0  0  0  0  0  0  0  0  0
  151.8290  138.8531  157.3685 N   0  3  2  0  0  0  0  0  0  0  0  0
  151.6154  138.1493  158.6571 C   0  0  0  0  0  0  0  0  0  0  0  0
  150.4860  137.1112  158.5731 C   0  0  0  0  0  0  0  0  0  0  0  0
  149.3756  137.4991  159.4309 N   0  0  0  0  0  0  0  0  0  0  0  0
  148.4440  136.6636  159.9080 C   0  0  0  0  0  0  0  0  0  0  0  0
  148.4947  135.4639  159.6270 O   0  0  0  0  0  0  0  0  0  0  0  0
  147.5142  137.2704  160.6792 N   0  5  0  0  0  0  0  0  0  0  0  0
  146.5894  136.5366  161.3195 C   0  0  0  0  0  0  0  0  0  0  0  0
  146.7697  135.2483  161.6324 N   0  0  0  0  0  0  0  0  0  0  0  0
  145.6781  134.6785  162.2901 C   0  0  0  0  0  0  0  0  0  0  0  0
  144.6387  135.5512  162.4746 C   0  0  0  0  0  0  0  0  0  0  0  0
  145.0025  137.1240  161.8243 S   0  0  0  0  0  0  0  0  0  0  0  0
  150.9199  140.0065  157.1635 C   0  0  0  0  0  0  0  0  0  0  0  0
  151.2666  140.7376  155.8541 C   0  0  2  0  0  0  0  0  0  0  0  0
  150.2919  141.8836  155.5608 C   0  0  0  0  0  0  0  0  0  0  0  0
  151.2042  139.8197  154.7655 O   0  0  0  0  0  0  0  0  0  0  0  0
  154.1585  138.1467  154.6721 H   0  0  0  0  0  0  0  0  0  0  0  0
  153.9226  139.6655  155.5188 H   0  0  0  0  0  0  0  0  0  0  0  0
  153.6986  139.5859  153.7724 H   0  0  0  0  0  0  0  0  0  0  0  0
  151.7953  138.0179  154.0664 H   0  0  0  0  0  0  0  0  0  0  0  0
  150.7692  137.4905  156.1608 H   0  0  0  0  0  0  0  0  0  0  0  0
  152.4719  137.1155  156.3324 H   0  0  0  0  0  0  0  0  0  0  0  0
  152.5468  137.6862  158.9872 H   0  0  0  0  0  0  0  0  0  0  0  0
  151.3453  138.8800  159.4215 H   0  0  0  0  0  0  0  0  0  0  0  0
  150.1348  137.0227  157.5436 H   0  0  0  0  0  0  0  0  0  0  0  0
  150.8339  136.1258  158.8835 H   0  0  0  0  0  0  0  0  0  0  0  0
  149.3004  138.4740  159.6829 H   0  0  0  0  0  0  0  0  0  0  0  0
  145.7269  133.6425  162.5900 H   0  0  0  0  0  0  0  0  0  0  0  0
  143.6869  135.3666  162.9492 H   0  0  0  0  0  0  0  0  0  0  0  0
  149.8865  139.6564  157.1396 H   0  0  0  0  0  0  0  0  0  0  0  0
  150.9993  140.7060  157.9951 H   0  0  0  0  0  0  0  0  0  0  0  0
  152.2698  141.1588  155.9248 H   0  0  0  0  0  0  0  0  0  0  0  0
  150.3051  142.6246  156.3604 H   0  0  0  0  0  0  0  0  0  0  0  0
  149.2694  141.5181  155.4601 H   0  0  0  0  0  0  0  0  0  0  0  0
  150.5563  142.3921  154.6334 H   0  0  0  0  0  0  0  0  0  0  0  0
  152.7717  139.2154  157.3932 H   0  0  0  0  0  0  0  0  0  0  0  0
  1  2  1  0  0  0  0
  1 20  1  0  0  0  0
  1 21  1  0  0  0  0
  1 22  1  0  0  0  0
  2 19  1  0  0  0  0
  2  3  1  0  0  0  0
  2 23  1  0  0  0  0
  3  4  1  0  0  0  0
  3 24  1  0  0  0  0
  3 25  1  0  0  0  0
  4  5  1  0  0  0  0
  4 16  1  0  0  0  0
  4 39  1  0  0  0  0
  5  6  1  0  0  0  0
  5 26  1  0  0  0  0
  5 27  1  0  0  0  0
  6  7  1  0  0  0  0
  6 28  1  0  0  0  0
  6 29  1  0  0  0  0
  7  8  1  0  0  0  0
  7 30  1  0  0  0  0
  8  9  2  0  0  0  0
  8 10  1  0  0  0  0
 10 11  1  0  0  0  0
 11 15  1  0  0  0  0
 11 12  2  0  0  0  0
 12 13  1  0  0  0  0
 13 14  2  0  0  0  0
 13 31  1  0  0  0  0
 14 15  1  0  0  0  0
 14 32  1  0  0  0  0
 16 17  1  0  0  0  0
 16 33  1  0  0  0  0
 16 34  1  0  0  0  0
 17 18  1  0  0  0  0
 17 19  1  0  0  0  0
 17 35  1  0  0  0  0
 18 36  1  0  0  0  0
 18 37  1  0  0  0  0
 18 38  1  0  0  0  0
M  CHG  1   4   1
M  CHG  1  10  -1
M  END
> <s_m_source_file>
AV-unprocessed.smi

> <i_m_source_file_index>
1815

> <i_lp_mmshare_version>
43012

> <i_f3d_flags>
0

> <s_epik_input>
W0NIM11bQ0BASF0xW0NIMl1OKFtDSDJdW0NASF0oTzEpW0NIM10pW0NIMl1bQ0gyXVtOSF1DKD1PKVtOSF1jMm5bY0hdW2NIXXMy

> <s_epik_cmdline>
J2VwaWtfcHl0aG9uJywgJy1waCcsICc3LjAnLCAnLXRuJywgJzgnLCAnLW1hJywgJzIwMCcsICctbWV0YWxfYmluZGluZycsICctaW1hZScsICc8aW5maWxlLm1hZT4nLCAnLW9tYWUnLCAnPG91dGZpbGUubWFlPic=

> <r_lp_tautomer_probability>
0.999

> <r_epik_Ionization_Penalty>
6.71699

> <r_epik_Ionization_Penalty_Charging>
5.88592

> <r_epik_Ionization_Penalty_Neutral>
0.831074

> <r_epik_State_Penalty>
6.08365

> <r_epik_Charging_Adjusted_Penalty>
11.9696

> <i_epik_Tot_Q>
0

> <i_epik_Tot_abs_Q>
2

> <r_epik_Metal_State_Penalty>
2.0947

> <b_epik_Metal_Only>
1

> <s_lp_Force_Field>
OPLS_2005

> <r_lp_Energy>
8.63778

> <b_lp_Chiralities_Consistent>
1

> <s_lp_Variant>
AV-unprocessed.smi:1815-14

> <Gold.Version>
5.8.1

> <Gold.Id.Protein>
6NUR|6NUR_protein|mol2

> <Gold.PLP.Fitness>
45.0939

> <Gold.PLP.PLP>
-30.1324

> <Gold.PLP.part.hbond>
-4.0000

> <Gold.PLP.part.metal>
0.0000

> <Gold.PLP.part.buried>
-2.7211

> <Gold.PLP.part.nonpolar>
-25.0795

> <Gold.PLP.part.repulsive>
0.7421

> <Gold.PLP.ligand.clash>
0.0000

> <Gold.PLP.ligand.torsion>
0.8650

> <Gold.PLP.Chemscore.Hbond>
5.5281

> <Gold.PLP.Chemscore.CHOScore>
0.0000

> <Gold.PLP.Chemscore.Metal>
0.0000

> <Gold.Chemscore.Hbonds>
donor molecule, donor type, donor heavy atom, donor atom, acceptor molecule, acceptor atom, score
      P1  H  6896  6908       L1     9  0.23
      P1  H  6931  6943       L1    10  0.62
      P1  H  6934  6947       L1    10  2.00
      P1  H  7989  7998       L1    19  0.95

> <Gold.PLP.Chemscore.Internal.Correction>
0.1070

> <Gold.Rescore>
     Score         DG    S(hbond)    S(metal)    S(lipo)     H(rot)  DE(clash)    DE(int)     intcor
     12.51     -17.02       2.29        0.00      68.39       1.61       2.04       2.47       ----

> <Gold.Chemscore.Fitness>
12.5075

> <Gold.Chemscore.DG>
-17.0169

> <Gold.Chemscore.ZeroCoef>
-5.4800

> <Gold.Chemscore.Hbond>
2.2893

> <Gold.Chemscore.Metal>
0.0000

> <Gold.Chemscore.Lipo>
68.3903

> <Gold.Chemscore.Internal_Hbond>
0.0000

> <Gold.Chemscore.DEClash>
2.0372

> <Gold.Chemscore.DEInternal>
2.4721

> <Gold.Chemscore.Rot>
1.6060

> <Gold.Chemscore.Internal.Correction>
   9.000000E+99

> <Gold.Chemscore.Hbonds>
donor molecule, donor type, donor heavy atom, donor atom, acceptor molecule, acceptor atom, score
      P1  H  6896  6908       L1     9  0.20
      P1  H  6931  6943       L1    10  0.02
      P1  H  6934  6947       L1    10  0.71
      P1  H  7989  7998       L1    19  0.18

> <Gold.Chemscore.Hbond.Weighted>
-7.6464

> <Gold.Chemscore.Metal.Weighted>
-0.0000

> <Gold.Chemscore.Lipo.Weighted>
-8.0017

> <Gold.Chemscore.Internal_Hbond.Weighted>
0.0000

> <Gold.Chemscore.DEClash.Weighted>
2.0372

> <Gold.Chemscore.DEInternal.Weighted>
2.4721

> <Gold.Chemscore.Rot.Weighted>
4.1112

> <Gold.Chemscore.Internal.Correction.Weighted>
   9.000000E+99

> <Gold.Protein.RotatedTorsions>
[ 6907 6896 6895 6894 ] final  171.59 input  -60.11 | X-H torsion
[ 7974 7965 7964 7962 ] final  129.81 input  175.53 | X-H torsion
[ 8008 7997 7996 7995 ] final -107.40 input   59.86 | X-H torsion
[ 10167 10162 10161 10158 ] final  117.98 input  -65.29 | X-H torsion
[ 10718 10713 10712 10709 ] final  170.75 input   66.30 | X-H torsion
[ 10763 10752 10751 10750 ] final -145.13 input  -60.55 | X-H torsion
[ 11005 11000 10999 10996 ] final  133.82 input  -57.11 | X-H torsion

> <Gold.Protein.ActiveResidues>
 VAL166  LYS551  ARG553  GLY616  TRP617  ASP618  TYR619  PRO620  LYS621  CYS622 
 ASP623  PHE694  ASN695  SER759  ASP760  ASP761  ALA762  ILE779  LEU786  VAL792 
 PHE793  MET794  SER795  GLU796  ALA797  LYS798  CYS799  TRP800  GLU811  SER814 

> <Gold.Protein.RotatedAtoms>
  151.7978  133.3366  159.3517 H   0  0  0  0  0  0  0  0  0  0  0  0  # atno 6907 bound_to 6896
  150.7369  134.5782  159.5934 H   0  0  0  0  0  0  0  0  0  0  0  0  # atno 6908 bound_to 6896
  152.3164  134.7435  160.0375 H   0  0  0  0  0  0  0  0  0  0  0  0  # atno 6909 bound_to 6896
  145.0246  139.4100  143.5180 H   0  0  0  0  0  0  0  0  0  0  0  0  # atno 7974 bound_to 7965
  154.9288  140.0405  157.2037 H   0  0  0  0  0  0  0  0  0  0  0  0  # atno 8008 bound_to 7997
  154.8181  140.2879  155.5784 H   0  0  0  0  0  0  0  0  0  0  0  0  # atno 8009 bound_to 7997
  156.2977  140.2524  156.3083 H   0  0  0  0  0  0  0  0  0  0  0  0  # atno 8010 bound_to 7997
  139.6142  144.7088  151.2777 H   0  0  0  0  0  0  0  0  0  0  0  0  # atno 10167 bound_to 10162
  157.0036  131.0183  151.2823 H   0  0  0  0  0  0  0  0  0  0  0  0  # atno 10718 bound_to 10713
  154.8397  135.3421  154.6455 H   0  0  0  0  0  0  0  0  0  0  0  0  # atno 10763 bound_to 10752
  153.7067  135.6966  153.5053 H   0  0  0  0  0  0  0  0  0  0  0  0  # atno 10764 bound_to 10752
  153.2482  135.4362  155.0724 H   0  0  0  0  0  0  0  0  0  0  0  0  # atno 10765 bound_to 10752
  139.9875  134.9527  156.9779 H   0  0  0  0  0  0  0  0  0  0  0  0  # atno 11005 bound_to 11000
  146.3490  139.9763  142.8700 LP  0  0  0  0  0  0  0  0  0  0  0  0  # atno 17320 bound_to 7965
  145.1850  140.9785  143.4244 LP  0  0  0  0  0  0  0  0  0  0  0  0  # atno 17321 bound_to 7965
  140.7339  143.6780  150.8025 LP  0  0  0  0  0  0  0  0  0  0  0  0  # atno 17342 bound_to 10162
  140.0380  143.5375  152.2731 LP  0  0  0  0  0  0  0  0  0  0  0  0  # atno 17343 bound_to 10162
  157.5372  130.8096  149.7986 LP  0  0  0  0  0  0  0  0  0  0  0  0  # atno 17370 bound_to 10713
  156.0162  130.3813  150.2104 LP  0  0  0  0  0  0  0  0  0  0  0  0  # atno 17371 bound_to 10713
  140.4972  134.1133  155.7243 LP  0  0  0  0  0  0  0  0  0  0  0  0  # atno 17394 bound_to 11000
  141.1538  133.8921  157.2031 LP  0  0  0  0  0  0  0  0  0  0  0  0  # atno 17395 bound_to 11000

$$$$
