AV-unprocessed.smi:1033|AV-procd|sdf|4509|dock8
  -GOLD-   22720 2513D 1   1.00000     0.00000
 Structure written by MMmdl.
 57 59  0  0  0  0  0  0  0  0  3 V2000
  153.1096  142.4818  161.8628 C   0  0  0  0  0  0  0  0  0  0  0  0
  152.5264  142.2775  160.4756 C   0  0  0  0  0  0  0  0  0  0  0  0
  152.4403  140.9676  159.9526 C   0  0  0  0  0  0  0  0  0  0  0  0
  151.9038  140.7347  158.6674 C   0  0  0  0  0  0  0  0  0  0  0  0
  151.7237  139.5535  157.9684 N   0  0  0  0  0  0  0  0  0  0  0  0
  151.1801  139.9911  156.8367 C   0  0  0  0  0  0  0  0  0  0  0  0
  150.9813  141.3182  156.7205 N   0  0  0  0  0  0  0  0  0  0  0  0
  150.4017  142.0193  155.5882 C   0  0  0  0  0  0  0  0  0  0  0  0
  149.0970  141.3648  155.0936 C   0  0  1  0  0  0  0  0  0  0  0  0
  148.3037  142.3348  154.4357 O   0  0  0  0  0  0  0  0  0  0  0  0
  149.3753  140.2113  154.1093 C   0  0  0  0  0  0  0  0  0  0  0  0
  148.1552  139.4261  153.7877 N   0  3  2  0  0  0  0  0  0  0  0  0
  148.1406  138.0691  154.3906 C   0  0  0  0  0  0  0  0  0  0  0  0
  146.8093  137.3506  154.1043 C   0  0  0  0  0  0  0  0  0  0  0  0
  146.5302  137.2893  152.6459 N   0  3  1  0  0  0  0  0  0  0  0  0
  145.2839  136.5522  152.3116 C   0  0  0  0  0  0  0  0  0  0  0  0
  145.3880  135.7743  150.9848 C   0  0  1  0  0  0  0  0  0  0  0  0
  144.1296  134.9406  150.7113 C   0  0  0  0  0  0  0  0  0  0  0  0
  145.5459  136.6949  149.9246 O   0  0  0  0  0  0  0  0  0  0  0  0
  146.5597  138.6438  152.0402 C   0  0  0  0  0  0  0  0  0  0  0  0
  147.8914  139.3584  152.3297 C   0  0  0  0  0  0  0  0  0  0  0  0
  151.4518  141.8573  157.9136 C   0  0  0  0  0  0  0  0  0  0  0  0
  151.5334  143.1655  158.4227 C   0  0  0  0  0  0  0  0  0  0  0  0
  152.0725  143.3803  159.7083 C   0  0  0  0  0  0  0  0  0  0  0  0
  152.1557  144.7969  160.2492 C   0  0  0  0  0  0  0  0  0  0  0  0
  153.3560  141.5306  162.3358 H   0  0  0  0  0  0  0  0  0  0  0  0
  152.3975  142.9990  162.5060 H   0  0  0  0  0  0  0  0  0  0  0  0
  154.0226  143.0750  161.8081 H   0  0  0  0  0  0  0  0  0  0  0  0
  152.7862  140.1272  160.5366 H   0  0  0  0  0  0  0  0  0  0  0  0
  150.9071  139.3063  156.0470 H   0  0  0  0  0  0  0  0  0  0  0  0
  150.2280  143.0577  155.8739 H   0  0  0  0  0  0  0  0  0  0  0  0
  151.1401  142.0385  154.7853 H   0  0  0  0  0  0  0  0  0  0  0  0
  148.5432  141.0018  155.9591 H   0  0  0  0  0  0  0  0  0  0  0  0
  148.2900  143.1201  154.9632 H   0  0  0  0  0  0  0  0  0  0  0  0
  149.7861  140.6375  153.1924 H   0  0  0  0  0  0  0  0  0  0  0  0
  150.1436  139.5447  154.5043 H   0  0  0  0  0  0  0  0  0  0  0  0
  148.9725  137.4848  153.9938 H   0  0  0  0  0  0  0  0  0  0  0  0
  148.2852  138.1300  155.4686 H   0  0  0  0  0  0  0  0  0  0  0  0
  146.8518  136.3469  154.5258 H   0  0  0  0  0  0  0  0  0  0  0  0
  145.9927  137.8699  154.6090 H   0  0  0  0  0  0  0  0  0  0  0  0
  145.0326  135.8782  153.1321 H   0  0  0  0  0  0  0  0  0  0  0  0
  144.4525  137.2549  152.2326 H   0  0  0  0  0  0  0  0  0  0  0  0
  146.2478  135.1052  150.9915 H   0  0  0  0  0  0  0  0  0  0  0  0
  143.9733  134.2004  151.4965 H   0  0  0  0  0  0  0  0  0  0  0  0
  144.2100  134.4033  149.7659 H   0  0  0  0  0  0  0  0  0  0  0  0
  143.2379  135.5667  150.6634 H   0  0  0  0  0  0  0  0  0  0  0  0
  145.8530  136.2274  149.1618 H   0  0  0  0  0  0  0  0  0  0  0  0
  146.4206  138.5677  150.9610 H   0  0  0  0  0  0  0  0  0  0  0  0
  145.7265  139.2333  152.4269 H   0  0  0  0  0  0  0  0  0  0  0  0
  147.8550  140.3662  151.9136 H   0  0  0  0  0  0  0  0  0  0  0  0
  148.7137  138.8391  151.8343 H   0  0  0  0  0  0  0  0  0  0  0  0
  151.1819  143.9967  157.8295 H   0  0  0  0  0  0  0  0  0  0  0  0
  151.8045  145.5241  159.5167 H   0  0  0  0  0  0  0  0  0  0  0  0
  153.1850  145.0501  160.5036 H   0  0  0  0  0  0  0  0  0  0  0  0
  151.5419  144.9000  161.1442 H   0  0  0  0  0  0  0  0  0  0  0  0
  147.2840  136.7700  152.2173 H   0  0  0  0  0  0  0  0  0  0  0  0
  147.3837  139.9400  154.1909 H   0  0  0  0  0  0  0  0  0  0  0  0
  1  2  1  0  0  0  0
  1 26  1  0  0  0  0
  1 27  1  0  0  0  0
  1 28  1  0  0  0  0
  2 24  1  0  0  0  0
  2  3  2  0  0  0  0
  3  4  1  0  0  0  0
  3 29  1  0  0  0  0
  4 22  2  0  0  0  0
  4  5  1  0  0  0  0
  5  6  2  0  0  0  0
  6  7  1  0  0  0  0
  6 30  1  0  0  0  0
  7  8  1  0  0  0  0
  7 22  1  0  0  0  0
  8  9  1  0  0  0  0
  8 31  1  0  0  0  0
  8 32  1  0  0  0  0
  9 10  1  0  0  0  0
  9 11  1  0  0  0  0
  9 33  1  0  0  0  0
 10 34  1  0  0  0  0
 11 12  1  0  0  0  0
 11 35  1  0  0  0  0
 11 36  1  0  0  0  0
 12 21  1  0  0  0  0
 12 13  1  0  0  0  0
 12 57  1  0  0  0  0
 13 14  1  0  0  0  0
 13 37  1  0  0  0  0
 13 38  1  0  0  0  0
 14 15  1  0  0  0  0
 14 39  1  0  0  0  0
 14 40  1  0  0  0  0
 15 16  1  0  0  0  0
 15 20  1  0  0  0  0
 15 56  1  0  0  0  0
 16 17  1  0  0  0  0
 16 41  1  0  0  0  0
 16 42  1  0  0  0  0
 17 18  1  0  0  0  0
 17 19  1  0  0  0  0
 17 43  1  0  0  0  0
 18 44  1  0  0  0  0
 18 45  1  0  0  0  0
 18 46  1  0  0  0  0
 19 47  1  0  0  0  0
 20 21  1  0  0  0  0
 20 48  1  0  0  0  0
 20 49  1  0  0  0  0
 21 50  1  0  0  0  0
 21 51  1  0  0  0  0
 22 23  1  0  0  0  0
 23 24  2  0  0  0  0
 23 52  1  0  0  0  0
 24 25  1  0  0  0  0
 25 53  1  0  0  0  0
 25 54  1  0  0  0  0
 25 55  1  0  0  0  0
M  CHG  1  12   1
M  CHG  1  15   1
M  END
> <s_m_source_file>
AV-unprocessed.smi

> <i_m_source_file_index>
1033

> <i_lp_mmshare_version>
43012

> <i_f3d_flags>
0

> <s_epik_input>
W0NIM11jKFtjSF0xKWMoW0NIM10pW2NIXWMoYzEyKW4oW2NIXW4yKVtDSDJdW0NASF0oW09IXSlbQ0gyXU4zW0NIMl1bQ0gyXU4oW0NIMl1bQ0gyXTMpW0NIMl1bQ0BIXShbQ0gzXSlbT0hd

> <s_epik_cmdline>
J2VwaWtfcHl0aG9uJywgJy1waCcsICc3LjAnLCAnLXRuJywgJzgnLCAnLW1hJywgJzIwMCcsICctbWV0YWxfYmluZGluZycsICctaW1hZScsICc8aW5maWxlLm1hZT4nLCAnLW9tYWUnLCAnPG91dGZpbGUubWFlPic=

> <r_epik_Ionization_Penalty>
3.16016

> <r_epik_Ionization_Penalty_Charging>
3.07679

> <r_epik_Ionization_Penalty_Neutral>
0.083365

> <r_epik_State_Penalty>
2.09701

> <r_epik_Charging_Adjusted_Penalty>
5.1738

> <i_epik_Tot_Q>
2

> <i_epik_Tot_abs_Q>
2

> <r_epik_Metal_State_Penalty>
2.02534

> <b_epik_Metal_Only>
0

> <s_lp_Force_Field>
OPLS_2005

> <r_lp_Energy>
27.8385

> <b_lp_Chiralities_Consistent>
1

> <s_lp_Variant>
AV-unprocessed.smi:1033-20

> <Gold.Version>
5.8.1

> <Gold.Id.Protein>
6NUR|6NUR_protein|mol2

> <Gold.PLP.Fitness>
58.3797

> <Gold.PLP.PLP>
-49.1664

> <Gold.PLP.part.hbond>
-5.8565

> <Gold.PLP.part.metal>
0.0000

> <Gold.PLP.part.buried>
3.4194

> <Gold.PLP.part.nonpolar>
-47.8669

> <Gold.PLP.part.repulsive>
0.0785

> <Gold.PLP.ligand.clash>
0.0000

> <Gold.PLP.ligand.torsion>
1.5617

> <Gold.PLP.Chemscore.Hbond>
4.0000

> <Gold.PLP.Chemscore.CHOScore>
0.0000

> <Gold.PLP.Chemscore.Metal>
0.0000

> <Gold.Chemscore.Hbonds>
donor molecule, donor type, donor heavy atom, donor atom, acceptor molecule, acceptor atom, score
      L1  H    10    34       P1  8028  1.00
      L1  H    15    56       P1  7948  2.00
      L1  H    19    47       P1  7921  0.89

> <Gold.PLP.Chemscore.Internal.Correction>
0.3366

> <Gold.Rescore>
     Score         DG    S(hbond)    S(metal)    S(lipo)     H(rot)  DE(clash)    DE(int)     intcor
     16.50     -22.01       2.27        0.00     145.03       3.14       3.85       1.65       ----

> <Gold.Chemscore.Fitness>
16.5007

> <Gold.Chemscore.DG>
-22.0059

> <Gold.Chemscore.ZeroCoef>
-5.4800

> <Gold.Chemscore.Hbond>
2.2727

> <Gold.Chemscore.Metal>
0.0000

> <Gold.Chemscore.Lipo>
145.0283

> <Gold.Chemscore.Internal_Hbond>
0.0000

> <Gold.Chemscore.DEClash>
3.8521

> <Gold.Chemscore.DEInternal>
1.6532

> <Gold.Chemscore.Rot>
3.1380

> <Gold.Chemscore.Internal.Correction>
   9.000000E+99

> <Gold.Chemscore.Hbonds>
donor molecule, donor type, donor heavy atom, donor atom, acceptor molecule, acceptor atom, score
      L1  H    10    34       P1  8028  0.98
      L1  H    15    56       P1  7948  1.00
      L1  H    19    47       P1  7921  0.87

> <Gold.Chemscore.Hbond.Weighted>
-7.5908

> <Gold.Chemscore.Metal.Weighted>
-0.0000

> <Gold.Chemscore.Lipo.Weighted>
-16.9683

> <Gold.Chemscore.Internal_Hbond.Weighted>
0.0000

> <Gold.Chemscore.DEClash.Weighted>
3.8521

> <Gold.Chemscore.DEInternal.Weighted>
1.6532

> <Gold.Chemscore.Rot.Weighted>
8.0332

> <Gold.Chemscore.Internal.Correction.Weighted>
   9.000000E+99

> <Gold.Protein.RotatedTorsions>
[ 6907 6896 6895 6894 ] final -158.12 input  -60.11 | X-H torsion
[ 7974 7965 7964 7962 ] final  136.35 input  175.53 | X-H torsion
[ 8008 7997 7996 7995 ] final   36.30 input   59.86 | X-H torsion
[ 10167 10162 10161 10158 ] final   83.46 input  -65.29 | X-H torsion
[ 10718 10713 10712 10709 ] final   61.46 input   66.30 | X-H torsion
[ 10763 10752 10751 10750 ] final  -80.30 input  -60.55 | X-H torsion
[ 11005 11000 10999 10996 ] final -146.01 input  -57.11 | X-H torsion

> <Gold.Protein.ActiveResidues>
 VAL166  LYS551  ARG553  GLY616  TRP617  ASP618  TYR619  PRO620  LYS621  CYS622 
 ASP623  PHE694  ASN695  SER759  ASP760  ASP761  ALA762  ILE779  LEU786  VAL792 
 PHE793  MET794  SER795  GLU796  ALA797  LYS798  CYS799  TRP800  GLU811  SER814 

> <Gold.Protein.RotatedAtoms>
  151.3133  133.4071  159.2648 H   0  0  0  0  0  0  0  0  0  0  0  0  # atno 6907 bound_to 6896
  151.0096  134.9386  159.8010 H   0  0  0  0  0  0  0  0  0  0  0  0  # atno 6908 bound_to 6896
  152.5297  134.3098  159.9162 H   0  0  0  0  0  0  0  0  0  0  0  0  # atno 6909 bound_to 6896
  144.9573  139.4750  143.5496 H   0  0  0  0  0  0  0  0  0  0  0  0  # atno 7974 bound_to 7965
  155.1851  140.3303  155.4368 H   0  0  0  0  0  0  0  0  0  0  0  0  # atno 8008 bound_to 7997
  156.2462  140.1920  156.6897 H   0  0  0  0  0  0  0  0  0  0  0  0  # atno 8009 bound_to 7997
  154.6244  140.0591  156.9641 H   0  0  0  0  0  0  0  0  0  0  0  0  # atno 8010 bound_to 7997
  139.9181  144.6230  150.8468 H   0  0  0  0  0  0  0  0  0  0  0  0  # atno 10167 bound_to 10162
  157.5829  130.8996  149.9464 H   0  0  0  0  0  0  0  0  0  0  0  0  # atno 10718 bound_to 10713
  154.5495  135.5666  153.6909 H   0  0  0  0  0  0  0  0  0  0  0  0  # atno 10763 bound_to 10752
  152.9985  135.6247  154.2393 H   0  0  0  0  0  0  0  0  0  0  0  0  # atno 10764 bound_to 10752
  154.2328  135.2865  155.2863 H   0  0  0  0  0  0  0  0  0  0  0  0  # atno 10765 bound_to 10752
  140.7864  134.3019  157.5028 H   0  0  0  0  0  0  0  0  0  0  0  0  # atno 11005 bound_to 11000
  146.3341  139.8699  142.8842 LP  0  0  0  0  0  0  0  0  0  0  0  0  # atno 17320 bound_to 7965
  145.2753  141.0121  143.3749 LP  0  0  0  0  0  0  0  0  0  0  0  0  # atno 17321 bound_to 7965
  140.7669  143.3316  151.2397 LP  0  0  0  0  0  0  0  0  0  0  0  0  # atno 17342 bound_to 10162
  139.6885  143.9733  152.2847 LP  0  0  0  0  0  0  0  0  0  0  0  0  # atno 17343 bound_to 10162
  156.0876  130.3666  150.0457 LP  0  0  0  0  0  0  0  0  0  0  0  0  # atno 17370 bound_to 10713
  156.8593  130.9486  151.3619 LP  0  0  0  0  0  0  0  0  0  0  0  0  # atno 17371 bound_to 10713
  139.8736  134.9349  156.3619 LP  0  0  0  0  0  0  0  0  0  0  0  0  # atno 17394 bound_to 11000
  140.9432  133.7500  156.0174 LP  0  0  0  0  0  0  0  0  0  0  0  0  # atno 17395 bound_to 11000

$$$$
