AV-unprocessed.smi:1184|AV-procd|sdf|4971|dock3
  -GOLD-   22720 3563D 1   1.00000     0.00000
 Structure written by MMmdl.
 43 44  0  0  0  0  0  0  0  0  2 V2000
  143.2768  132.0710  150.5892 C   0  0  0  0  0  0  0  0  0  0  0  0
  144.0078  132.8028  149.4551 C   0  0  0  0  0  0  0  0  0  0  0  0
  145.1697  133.5808  149.9472 N   0  3  1  0  0  0  0  0  0  0  0  0
  144.8325  134.8859  150.5596 C   0  0  0  0  0  0  0  0  0  0  0  0
  145.8997  135.1262  151.6237 C   0  0  0  0  0  0  0  0  0  0  0  0
  146.1531  133.7213  152.1618 C   0  0  2  0  0  0  0  0  0  0  0  0
  147.4765  133.5804  152.9384 C   0  0  0  0  0  0  0  0  0  0  0  0
  147.8887  134.8377  153.5543 N   0  0  0  0  0  0  0  0  0  0  0  0
  147.5620  135.2482  154.7898 C   0  0  0  0  0  0  0  0  0  0  0  0
  146.8444  134.6022  155.5529 O   0  0  0  0  0  0  0  0  0  0  0  0
  148.1320  136.5950  155.2349 C   0  0  0  0  0  0  0  0  0  0  0  0
  149.6301  136.5937  155.0674 C   0  0  0  0  0  0  0  0  0  0  0  0
  150.4484  137.5658  154.4209 C   0  0  0  0  0  0  0  0  0  0  0  0
  150.0414  138.8403  153.7388 C   0  0  0  0  0  0  0  0  0  0  0  0
  151.7291  137.2411  154.4652 N   0  0  0  0  0  0  0  0  0  0  0  0
  151.7937  136.0257  155.1525 O   0  0  0  0  0  0  0  0  0  0  0  0
  150.5336  135.6613  155.4999 C   0  0  0  0  0  0  0  0  0  0  0  0
  150.3945  134.3786  156.2477 C   0  0  0  0  0  0  0  0  0  0  0  0
  146.0336  132.8469  150.9033 C   0  0  0  0  0  0  0  0  0  0  0  0
  142.3961  131.5536  150.2082 H   0  0  0  0  0  0  0  0  0  0  0  0
  142.9439  132.7688  151.3582 H   0  0  0  0  0  0  0  0  0  0  0  0
  143.9136  131.3246  151.0646 H   0  0  0  0  0  0  0  0  0  0  0  0
  144.3298  132.0955  148.6894 H   0  0  0  0  0  0  0  0  0  0  0  0
  143.3072  133.4877  148.9755 H   0  0  0  0  0  0  0  0  0  0  0  0
  144.7993  135.6816  149.8149 H   0  0  0  0  0  0  0  0  0  0  0  0
  143.8532  134.8318  151.0382 H   0  0  0  0  0  0  0  0  0  0  0  0
  146.8036  135.5266  151.1624 H   0  0  0  0  0  0  0  0  0  0  0  0
  145.5752  135.8246  152.3959 H   0  0  0  0  0  0  0  0  0  0  0  0
  145.3262  133.4706  152.8289 H   0  0  0  0  0  0  0  0  0  0  0  0
  147.4056  132.7872  153.6848 H   0  0  0  0  0  0  0  0  0  0  0  0
  148.2683  133.2797  152.2518 H   0  0  0  0  0  0  0  0  0  0  0  0
  148.4896  135.4354  153.0049 H   0  0  0  0  0  0  0  0  0  0  0  0
  147.6630  137.3958  154.6619 H   0  0  0  0  0  0  0  0  0  0  0  0
  147.8513  136.7691  156.2744 H   0  0  0  0  0  0  0  0  0  0  0  0
  148.9678  138.8718  153.5553 H   0  0  0  0  0  0  0  0  0  0  0  0
  150.5413  138.9488  152.7759 H   0  0  0  0  0  0  0  0  0  0  0  0
  150.2991  139.7074  154.3474 H   0  0  0  0  0  0  0  0  0  0  0  0
  149.3707  134.0075  156.2027 H   0  0  0  0  0  0  0  0  0  0  0  0
  150.6594  134.5136  157.2962 H   0  0  0  0  0  0  0  0  0  0  0  0
  151.0473  133.6127  155.8285 H   0  0  0  0  0  0  0  0  0  0  0  0
  145.6515  131.8540  151.1457 H   0  0  0  0  0  0  0  0  0  0  0  0
  147.0061  132.7162  150.4282 H   0  0  0  0  0  0  0  0  0  0  0  0
  145.7536  133.7770  149.1465 H   0  0  0  0  0  0  0  0  0  0  0  0
  1  2  1  0  0  0  0
  1 20  1  0  0  0  0
  1 21  1  0  0  0  0
  1 22  1  0  0  0  0
  2  3  1  0  0  0  0
  2 23  1  0  0  0  0
  2 24  1  0  0  0  0
  3 19  1  0  0  0  0
  3  4  1  0  0  0  0
  3 43  1  0  0  0  0
  4  5  1  0  0  0  0
  4 25  1  0  0  0  0
  4 26  1  0  0  0  0
  5  6  1  0  0  0  0
  5 27  1  0  0  0  0
  5 28  1  0  0  0  0
  6  7  1  0  0  0  0
  6 19  1  0  0  0  0
  6 29  1  0  0  0  0
  7  8  1  0  0  0  0
  7 30  1  0  0  0  0
  7 31  1  0  0  0  0
  8  9  1  0  0  0  0
  8 32  1  0  0  0  0
  9 10  2  0  0  0  0
  9 11  1  0  0  0  0
 11 12  1  0  0  0  0
 11 33  1  0  0  0  0
 11 34  1  0  0  0  0
 12 17  2  0  0  0  0
 12 13  1  0  0  0  0
 13 14  1  0  0  0  0
 13 15  2  0  0  0  0
 14 35  1  0  0  0  0
 14 36  1  0  0  0  0
 14 37  1  0  0  0  0
 15 16  1  0  0  0  0
 16 17  1  0  0  0  0
 17 18  1  0  0  0  0
 18 38  1  0  0  0  0
 18 39  1  0  0  0  0
 18 40  1  0  0  0  0
 19 41  1  0  0  0  0
 19 42  1  0  0  0  0
M  CHG  1   3   1
M  END
> <s_m_source_file>
AV-unprocessed.smi

> <i_m_source_file_index>
1184

> <i_lp_mmshare_version>
43012

> <i_f3d_flags>
0

> <s_epik_input>
W0NIM11bQ0gyXU4xW0NIMl1bQ0gyXVtDQEhdKFtDSDJdMSlbQ0gyXVtOSF1DKD1PKVtDSDJdYzJjKFtDSDNdKW5vYzJbQ0gzXQ==

> <s_epik_cmdline>
J2VwaWtfcHl0aG9uJywgJy1waCcsICc3LjAnLCAnLXRuJywgJzgnLCAnLW1hJywgJzIwMCcsICctbWV0YWxfYmluZGluZycsICctaW1hZScsICc8aW5maWxlLm1hZT4nLCAnLW9tYWUnLCAnPG91dGZpbGUubWFlPic=

> <r_epik_Ionization_Penalty>
0.000590726

> <r_epik_Ionization_Penalty_Charging>
0.000590692

> <r_epik_Ionization_Penalty_Neutral>
3.44741e-08

> <r_epik_State_Penalty>
0.000371644

> <r_epik_Charging_Adjusted_Penalty>
0.000962336

> <i_epik_Tot_Q>
1

> <i_epik_Tot_abs_Q>
1

> <r_epik_Metal_State_Penalty>
-0

> <b_epik_Metal_Only>
0

> <s_lp_Force_Field>
OPLS_2005

> <r_lp_Energy>
22.6293

> <b_lp_Chiralities_Consistent>
1

> <s_lp_Variant>
AV-unprocessed.smi:1184-3

> <Gold.Version>
5.8.1

> <Gold.Id.Protein>
6NUR|6NUR_protein|mol2

> <Gold.PLP.Fitness>
38.1218

> <Gold.PLP.PLP>
-30.7896

> <Gold.PLP.part.hbond>
-3.7607

> <Gold.PLP.part.metal>
0.0000

> <Gold.PLP.part.buried>
-1.8493

> <Gold.PLP.part.nonpolar>
-24.8429

> <Gold.PLP.part.repulsive>
0.3286

> <Gold.PLP.ligand.clash>
0.0000

> <Gold.PLP.ligand.torsion>
0.8821

> <Gold.PLP.Chemscore.Hbond>
3.0000

> <Gold.PLP.Chemscore.CHOScore>
0.0000

> <Gold.PLP.Chemscore.Metal>
0.0000

> <Gold.Chemscore.Hbonds>
donor molecule, donor type, donor heavy atom, donor atom, acceptor molecule, acceptor atom, score
      L1  H     3    43       P1  7921  1.00
      L1  H     8    32       P1  7948  0.80
      P1  H 10752 10763       L1    16  0.52

> <Gold.PLP.Chemscore.Internal.Correction>
0.0964

> <Gold.Rescore>
     Score         DG    S(hbond)    S(metal)    S(lipo)     H(rot)  DE(clash)    DE(int)     intcor
     18.19     -19.25       2.79        0.00      74.47       1.67       0.09       0.97       ----

> <Gold.Chemscore.Fitness>
18.1852

> <Gold.Chemscore.DG>
-19.2490

> <Gold.Chemscore.ZeroCoef>
-5.4800

> <Gold.Chemscore.Hbond>
2.7927

> <Gold.Chemscore.Metal>
0.0000

> <Gold.Chemscore.Lipo>
74.4657

> <Gold.Chemscore.Internal_Hbond>
0.0000

> <Gold.Chemscore.DEClash>
0.0943

> <Gold.Chemscore.DEInternal>
0.9695

> <Gold.Chemscore.Rot>
1.6684

> <Gold.Chemscore.Internal.Correction>
   9.000000E+99

> <Gold.Chemscore.Hbonds>
donor molecule, donor type, donor heavy atom, donor atom, acceptor molecule, acceptor atom, score
      L1  H     3    43       P1  7921  0.24
      L1  H     8    32       P1  7948  0.76
      P1  H 10752 10763       L1    16  0.23

> <Gold.Chemscore.Hbond.Weighted>
-9.3278

> <Gold.Chemscore.Metal.Weighted>
-0.0000

> <Gold.Chemscore.Lipo.Weighted>
-8.7125

> <Gold.Chemscore.Internal_Hbond.Weighted>
0.0000

> <Gold.Chemscore.DEClash.Weighted>
0.0943

> <Gold.Chemscore.DEInternal.Weighted>
0.9695

> <Gold.Chemscore.Rot.Weighted>
4.2712

> <Gold.Chemscore.Internal.Correction.Weighted>
   9.000000E+99

> <Gold.Protein.RotatedTorsions>
[ 6907 6896 6895 6894 ] final   45.42 input  -60.11 | X-H torsion
[ 7974 7965 7964 7962 ] final   92.99 input  175.53 | X-H torsion
[ 8008 7997 7996 7995 ] final   63.42 input   59.86 | X-H torsion
[ 10167 10162 10161 10158 ] final  136.46 input  -65.29 | X-H torsion
[ 10718 10713 10712 10709 ] final   -5.02 input   66.30 | X-H torsion
[ 10763 10752 10751 10750 ] final   73.33 input  -60.55 | X-H torsion
[ 11005 11000 10999 10996 ] final  -41.51 input  -57.11 | X-H torsion

> <Gold.Protein.ActiveResidues>
 VAL166  LYS551  ARG553  GLY616  TRP617  ASP618  TYR619  PRO620  LYS621  CYS622 
 ASP623  PHE694  ASN695  SER759  ASP760  ASP761  ALA762  ILE779  LEU786  VAL792 
 PHE793  MET794  SER795  GLU796  ALA797  LYS798  CYS799  TRP800  GLU811  SER814 

> <Gold.Protein.RotatedAtoms>
  152.2443  134.8197  160.0455 H   0  0  0  0  0  0  0  0  0  0  0  0  # atno 6907 bound_to 6896
  151.8900  133.3509  159.3803 H   0  0  0  0  0  0  0  0  0  0  0  0  # atno 6908 bound_to 6896
  150.7063  134.4859  159.5537 H   0  0  0  0  0  0  0  0  0  0  0  0  # atno 6909 bound_to 6896
  145.4849  139.2277  143.2862 H   0  0  0  0  0  0  0  0  0  0  0  0  # atno 7974 bound_to 7965
  155.6299  140.3496  155.4679 H   0  0  0  0  0  0  0  0  0  0  0  0  # atno 8008 bound_to 7997
  156.0011  140.1213  157.0570 H   0  0  0  0  0  0  0  0  0  0  0  0  # atno 8009 bound_to 7997
  154.4249  140.1100  156.5685 H   0  0  0  0  0  0  0  0  0  0  0  0  # atno 8010 bound_to 7997
  139.5179  144.6463  151.5430 H   0  0  0  0  0  0  0  0  0  0  0  0  # atno 10167 bound_to 10162
  156.7527  130.5244  149.5800 H   0  0  0  0  0  0  0  0  0  0  0  0  # atno 10718 bound_to 10713
  153.0514  135.5067  154.7877 H   0  0  0  0  0  0  0  0  0  0  0  0  # atno 10763 bound_to 10752
  154.6736  135.2957  154.9711 H   0  0  0  0  0  0  0  0  0  0  0  0  # atno 10764 bound_to 10752
  154.0521  135.6702  153.4854 H   0  0  0  0  0  0  0  0  0  0  0  0  # atno 10765 bound_to 10752
  141.0251  133.6845  156.2467 H   0  0  0  0  0  0  0  0  0  0  0  0  # atno 11005 bound_to 11000
  146.2319  140.5638  142.8971 LP  0  0  0  0  0  0  0  0  0  0  0  0  # atno 17320 bound_to 7965
  144.7867  140.5951  143.6569 LP  0  0  0  0  0  0  0  0  0  0  0  0  # atno 17321 bound_to 7965
  140.6249  143.9187  150.6557 LP  0  0  0  0  0  0  0  0  0  0  0  0  # atno 17342 bound_to 10162
  140.2472  143.3619  152.1436 LP  0  0  0  0  0  0  0  0  0  0  0  0  # atno 17343 bound_to 10162
  156.1390  130.6231  151.0441 LP  0  0  0  0  0  0  0  0  0  0  0  0  # atno 17370 bound_to 10713
  157.6770  131.0848  150.7470 LP  0  0  0  0  0  0  0  0  0  0  0  0  # atno 17371 bound_to 10713
  140.6505  134.5071  157.5577 LP  0  0  0  0  0  0  0  0  0  0  0  0  # atno 17394 bound_to 11000
  139.9171  134.8225  156.1332 LP  0  0  0  0  0  0  0  0  0  0  0  0  # atno 17395 bound_to 11000

$$$$
