AV-unprocessed.smi:1722|AV-procd|sdf|6943|dock10
  -GOLD-   22720 8153D 1   1.00000     0.00000
 Structure written by MMmdl.
 39 40  0  0  0  0  0  0  0  0  1 V2000
  150.8787  137.2107  159.9313 O   0  0  0  0  0  0  0  0  0  0  0  0
  150.6003  137.8608  158.9245 C   0  0  0  0  0  0  0  0  0  0  0  0
  151.5817  138.9209  158.4278 C   0  0  0  0  0  0  0  0  0  0  0  0
  150.9522  140.1941  158.4870 O   0  0  0  0  0  0  0  0  0  0  0  0
  151.8474  141.2910  158.6123 C   0  0  0  0  0  0  0  0  0  0  0  0
  152.2955  141.3472  160.0834 C   0  0  0  0  0  0  0  0  0  0  0  0
  153.2147  142.5508  160.3472 C   0  0  0  0  0  0  0  0  0  0  0  0
  152.5361  143.8669  159.9361 C   0  0  0  0  0  0  0  0  0  0  0  0
  152.0803  143.8212  158.4693 C   0  0  0  0  0  0  0  0  0  0  0  0
  151.1656  142.6143  158.2039 C   0  0  0  0  0  0  0  0  0  0  0  0
  149.4615  137.7461  158.2123 N   0  0  0  0  0  0  0  0  0  0  0  0
  148.3824  136.8637  158.3872 C   0  0  0  0  0  0  0  0  0  0  0  0
  147.7372  136.6485  159.5634 C   0  0  0  0  0  0  0  0  0  0  0  0
  146.6322  135.7112  159.6773 C   0  0  0  0  0  0  0  0  0  0  0  0
  145.9562  135.4373  161.0119 C   0  0  0  0  0  0  0  0  0  0  0  0
  144.6350  135.5479  160.8806 F   0  0  0  0  0  0  0  0  0  0  0  0
  146.2289  134.2077  161.4512 F   0  0  0  0  0  0  0  0  0  0  0  0
  146.3554  136.3100  161.9373 F   0  0  0  0  0  0  0  0  0  0  0  0
  146.2965  135.0405  158.5600 C   0  0  0  0  0  0  0  0  0  0  0  0
  146.9542  135.2559  157.3467 N   0  0  0  0  0  0  0  0  0  0  0  0
  147.9798  136.1209  157.1812 C   0  0  0  0  0  0  0  0  0  0  0  0
  148.5124  136.2485  156.0792 O   0  0  0  0  0  0  0  0  0  0  0  0
  146.6371  134.7204  156.5514 H   0  0  0  0  0  0  0  0  0  0  0  0
  152.4709  138.9025  159.0594 H   0  0  0  0  0  0  0  0  0  0  0  0
  151.8896  138.6826  157.4095 H   0  0  0  0  0  0  0  0  0  0  0  0
  152.7295  141.1221  157.9917 H   0  0  0  0  0  0  0  0  0  0  0  0
  151.4205  141.4102  160.7318 H   0  0  0  0  0  0  0  0  0  0  0  0
  152.8107  140.4238  160.3502 H   0  0  0  0  0  0  0  0  0  0  0  0
  153.4865  142.5870  161.4025 H   0  0  0  0  0  0  0  0  0  0  0  0
  154.1454  142.4292  159.7917 H   0  0  0  0  0  0  0  0  0  0  0  0
  151.6754  144.0513  160.5803 H   0  0  0  0  0  0  0  0  0  0  0  0
  153.2205  144.7021  160.0877 H   0  0  0  0  0  0  0  0  0  0  0  0
  151.5600  144.7446  158.2134 H   0  0  0  0  0  0  0  0  0  0  0  0
  152.9532  143.7670  157.8175 H   0  0  0  0  0  0  0  0  0  0  0  0
  150.8941  142.5993  157.1488 H   0  0  0  0  0  0  0  0  0  0  0  0
  150.2354  142.7336  158.7608 H   0  0  0  0  0  0  0  0  0  0  0  0
  149.3472  138.4034  157.4537 H   0  0  0  0  0  0  0  0  0  0  0  0
  148.0362  137.1611  160.4629 H   0  0  0  0  0  0  0  0  0  0  0  0
  145.5159  134.2959  158.5082 H   0  0  0  0  0  0  0  0  0  0  0  0
  1  2  2  0  0  0  0
  2  3  1  0  0  0  0
  2 11  1  0  0  0  0
  3  4  1  0  0  0  0
  3 24  1  0  0  0  0
  3 25  1  0  0  0  0
  4  5  1  0  0  0  0
  5 10  1  0  0  0  0
  5  6  1  0  0  0  0
  5 26  1  0  0  0  0
  6  7  1  0  0  0  0
  6 27  1  0  0  0  0
  6 28  1  0  0  0  0
  7  8  1  0  0  0  0
  7 29  1  0  0  0  0
  7 30  1  0  0  0  0
  8  9  1  0  0  0  0
  8 31  1  0  0  0  0
  8 32  1  0  0  0  0
  9 10  1  0  0  0  0
  9 33  1  0  0  0  0
  9 34  1  0  0  0  0
 10 35  1  0  0  0  0
 10 36  1  0  0  0  0
 11 12  1  0  0  0  0
 11 37  1  0  0  0  0
 12 21  1  0  0  0  0
 12 13  2  0  0  0  0
 13 14  1  0  0  0  0
 13 38  1  0  0  0  0
 14 15  1  0  0  0  0
 14 19  2  0  0  0  0
 15 16  1  0  0  0  0
 15 17  1  0  0  0  0
 15 18  1  0  0  0  0
 19 20  1  0  0  0  0
 19 39  1  0  0  0  0
 20 23  1  0  0  0  0
 20 21  1  0  0  0  0
 21 22  2  0  0  0  0
M  END
> <s_m_source_file>
AV-unprocessed.smi

> <i_m_source_file_index>
1722

> <i_lp_mmshare_version>
43012

> <i_f3d_flags>
0

> <s_epik_input>
Tz1jMVtuSF1bY0hdYyhDKEYpKEYpRilbY0hdYzFbTkhdQyg9TylbQ0gyXU9bQ0hdMltDSDJdW0NIMl1bQ0gyXVtDSDJdW0NIMl0y

> <s_epik_cmdline>
J2VwaWtfcHl0aG9uJywgJy1waCcsICc3LjAnLCAnLXRuJywgJzgnLCAnLW1hJywgJzIwMCcsICctbWV0YWxfYmluZGluZycsICctaW1hZScsICc8aW5maWxlLm1hZT4nLCAnLW9tYWUnLCAnPG91dGZpbGUubWFlPic=

> <r_lp_tautomer_probability>
0.999

> <r_epik_Ionization_Penalty>
0.008897

> <r_epik_Ionization_Penalty_Charging>
0.00889691

> <r_epik_Ionization_Penalty_Neutral>
9.17026e-08

> <r_epik_State_Penalty>
0.00672877

> <r_epik_Charging_Adjusted_Penalty>
0.0156257

> <i_epik_Tot_Q>
0

> <i_epik_Tot_abs_Q>
0

> <r_epik_Metal_State_Penalty>
0.320955

> <b_epik_Metal_Only>
0

> <s_lp_Force_Field>
OPLS_2005

> <r_lp_Energy>
24.9811

> <b_lp_Chiralities_Consistent>
1

> <s_lp_Variant>
AV-unprocessed.smi:1722-1

> <Gold.Version>
5.8.1

> <Gold.Id.Protein>
6NUR|6NUR_protein|mol2

> <Gold.PLP.Fitness>
45.1503

> <Gold.PLP.PLP>
-44.0189

> <Gold.PLP.part.hbond>
-1.0000

> <Gold.PLP.part.metal>
0.0000

> <Gold.PLP.part.buried>
-6.1992

> <Gold.PLP.part.nonpolar>
-37.6976

> <Gold.PLP.part.repulsive>
0.1639

> <Gold.PLP.ligand.clash>
0.0000

> <Gold.PLP.ligand.torsion>
0.9518

> <Gold.PLP.Chemscore.Hbond>
1.0000

> <Gold.PLP.Chemscore.CHOScore>
0.0000

> <Gold.PLP.Chemscore.Metal>
0.0000

> <Gold.Chemscore.Hbonds>
donor molecule, donor type, donor heavy atom, donor atom, acceptor molecule, acceptor atom, score
      P1  H  6896  6908       L1     1  0.81

> <Gold.PLP.Chemscore.Internal.Correction>
0.0350

> <Gold.Rescore>
     Score         DG    S(hbond)    S(metal)    S(lipo)     H(rot)  DE(clash)    DE(int)     intcor
     14.97     -15.70       1.00        0.00      93.71       1.59       0.01       0.71       ----

> <Gold.Chemscore.Fitness>
14.9719

> <Gold.Chemscore.DG>
-15.6959

> <Gold.Chemscore.ZeroCoef>
-5.4800

> <Gold.Chemscore.Hbond>
0.9983

> <Gold.Chemscore.Metal>
0.0000

> <Gold.Chemscore.Lipo>
93.7059

> <Gold.Chemscore.Internal_Hbond>
0.0000

> <Gold.Chemscore.DEClash>
0.0112

> <Gold.Chemscore.DEInternal>
0.7128

> <Gold.Chemscore.Rot>
1.5945

> <Gold.Chemscore.Internal.Correction>
   9.000000E+99

> <Gold.Chemscore.Hbonds>
donor molecule, donor type, donor heavy atom, donor atom, acceptor molecule, acceptor atom, score
      P1  H  6896  6908       L1     1  0.80

> <Gold.Chemscore.Hbond.Weighted>
-3.3342

> <Gold.Chemscore.Metal.Weighted>
-0.0000

> <Gold.Chemscore.Lipo.Weighted>
-10.9636

> <Gold.Chemscore.Internal_Hbond.Weighted>
0.0000

> <Gold.Chemscore.DEClash.Weighted>
0.0112

> <Gold.Chemscore.DEInternal.Weighted>
0.7128

> <Gold.Chemscore.Rot.Weighted>
4.0820

> <Gold.Chemscore.Internal.Correction.Weighted>
   9.000000E+99

> <Gold.Protein.RotatedTorsions>
[ 6907 6896 6895 6894 ] final -131.89 input  -60.11 | X-H torsion
[ 7974 7965 7964 7962 ] final -121.90 input  175.53 | X-H torsion
[ 8008 7997 7996 7995 ] final  -61.27 input   59.86 | X-H torsion
[ 10167 10162 10161 10158 ] final  -55.89 input  -65.29 | X-H torsion
[ 10718 10713 10712 10709 ] final -127.12 input   66.30 | X-H torsion
[ 10763 10752 10751 10750 ] final  102.15 input  -60.55 | X-H torsion
[ 11005 11000 10999 10996 ] final -159.85 input  -57.11 | X-H torsion

> <Gold.Protein.ActiveResidues>
 VAL166  LYS551  ARG553  GLY616  TRP617  ASP618  TYR619  PRO620  LYS621  CYS622 
 ASP623  PHE694  ASN695  SER759  ASP760  ASP761  ALA762  ILE779  LEU786  VAL792 
 PHE793  MET794  SER795  GLU796  ALA797  LYS798  CYS799  TRP800  GLU811  SER814 

> <Gold.Protein.RotatedAtoms>
  150.9561  133.6496  159.2762 H   0  0  0  0  0  0  0  0  0  0  0  0  # atno 6907 bound_to 6896
  151.3835  135.0942  159.9513 H   0  0  0  0  0  0  0  0  0  0  0  0  # atno 6908 bound_to 6896
  152.5129  133.9091  159.7533 H   0  0  0  0  0  0  0  0  0  0  0  0  # atno 6909 bound_to 6896
  145.0353  140.8101  143.4299 H   0  0  0  0  0  0  0  0  0  0  0  0  # atno 7974 bound_to 7965
  154.4439  140.1021  156.6404 H   0  0  0  0  0  0  0  0  0  0  0  0  # atno 8008 bound_to 7997
  155.5507  140.3485  155.4449 H   0  0  0  0  0  0  0  0  0  0  0  0  # atno 8009 bound_to 7997
  156.0531  140.1308  157.0017 H   0  0  0  0  0  0  0  0  0  0  0  0  # atno 8010 bound_to 7997
  140.6348  143.2477  151.5146 H   0  0  0  0  0  0  0  0  0  0  0  0  # atno 10167 bound_to 10162
  156.1828  130.6743  151.0326 H   0  0  0  0  0  0  0  0  0  0  0  0  # atno 10718 bound_to 10713
  153.3358  135.4020  155.1532 H   0  0  0  0  0  0  0  0  0  0  0  0  # atno 10763 bound_to 10752
  154.8633  135.3621  154.5410 H   0  0  0  0  0  0  0  0  0  0  0  0  # atno 10764 bound_to 10752
  153.5852  135.7075  153.5506 H   0  0  0  0  0  0  0  0  0  0  0  0  # atno 10765 bound_to 10752
  140.6380  134.4581  157.5232 H   0  0  0  0  0  0  0  0  0  0  0  0  # atno 11005 bound_to 11000
  145.1717  139.2400  143.5338 LP  0  0  0  0  0  0  0  0  0  0  0  0  # atno 17320 bound_to 7965
  146.3503  140.1470  142.8593 LP  0  0  0  0  0  0  0  0  0  0  0  0  # atno 17321 bound_to 7965
  139.5560  144.2276  152.1612 LP  0  0  0  0  0  0  0  0  0  0  0  0  # atno 17342 bound_to 10162
  140.1529  144.5097  150.6677 LP  0  0  0  0  0  0  0  0  0  0  0  0  # atno 17343 bound_to 10162
  157.6879  131.0819  150.7190 LP  0  0  0  0  0  0  0  0  0  0  0  0  # atno 17370 bound_to 10713
  156.7247  130.4691  149.5514 LP  0  0  0  0  0  0  0  0  0  0  0  0  # atno 17371 bound_to 10713
  139.9091  134.8384  156.1595 LP  0  0  0  0  0  0  0  0  0  0  0  0  # atno 17394 bound_to 11000
  141.0627  133.6834  156.1985 LP  0  0  0  0  0  0  0  0  0  0  0  0  # atno 17395 bound_to 11000

$$$$
