AV-unprocessed.smi:1012|AV-procd|sdf|4424|dock5
  -GOLD-   22720 2373D 1   1.00000     0.00000
 Structure written by MMmdl.
 44 46  0  0  0  0  0  0  0  0  2 V2000
  151.6397  130.9215  156.2999 C   0  0  0  0  0  0  0  0  0  0  0  0
  151.0912  132.2314  156.3184 O   0  0  0  0  0  0  0  0  0  0  0  0
  150.1010  132.5447  155.4089 C   0  0  0  0  0  0  0  0  0  0  0  0
  149.4938  131.5830  154.5601 C   0  0  0  0  0  0  0  0  0  0  0  0
  148.4871  131.9593  153.6511 C   0  0  0  0  0  0  0  0  0  0  0  0
  148.0706  133.2993  153.5752 C   0  0  0  0  0  0  0  0  0  0  0  0
  148.6637  134.2623  154.4104 C   0  0  0  0  0  0  0  0  0  0  0  0
  149.6755  133.8946  155.3223 C   0  0  0  0  0  0  0  0  0  0  0  0
  150.2733  134.9754  156.2086 C   0  0  0  0  0  0  0  0  0  0  0  0
  149.5093  136.1688  156.1545 O   0  0  0  0  0  0  0  0  0  0  0  0
  150.2862  137.3299  156.3966 C   0  0  0  0  0  0  0  0  0  0  0  0
  150.4663  138.0937  155.0775 C   0  0  2  0  0  0  0  0  0  0  0  0
  150.8252  137.1743  154.0652 O   0  0  0  0  0  0  0  0  0  0  0  0
  151.5365  139.1990  155.1769 C   0  0  0  0  0  0  0  0  0  0  0  0
  151.0072  140.4506  155.7336 N   0  0  0  0  0  0  0  0  0  0  0  0
  150.0979  141.3236  155.2214 C   0  0  0  0  0  0  0  0  0  0  0  0
  149.9371  142.3276  156.1278 N   0  3  0  0  0  0  0  0  0  0  0  0
  150.7565  142.0924  157.2345 C   0  0  0  0  0  0  0  0  0  0  0  0
  150.9411  142.8209  158.4051 C   0  0  0  0  0  0  0  0  0  0  0  0
  151.8574  142.2975  159.3413 C   0  0  0  0  0  0  0  0  0  0  0  0
  152.0741  142.9668  160.4983 F   0  0  0  0  0  0  0  0  0  0  0  0
  152.5505  141.0927  159.0959 C   0  0  0  0  0  0  0  0  0  0  0  0
  153.4211  140.6254  160.0218 F   0  0  0  0  0  0  0  0  0  0  0  0
  152.3552  140.3630  157.9048 C   0  0  0  0  0  0  0  0  0  0  0  0
  151.4475  140.8883  156.9866 C   0  0  0  0  0  0  0  0  0  0  0  0
  152.4050  130.8428  157.0718 H   0  0  0  0  0  0  0  0  0  0  0  0
  152.1141  130.7003  155.3429 H   0  0  0  0  0  0  0  0  0  0  0  0
  150.8801  130.1678  156.5116 H   0  0  0  0  0  0  0  0  0  0  0  0
  149.7822  130.5434  154.5860 H   0  0  0  0  0  0  0  0  0  0  0  0
  148.0333  131.2167  153.0116 H   0  0  0  0  0  0  0  0  0  0  0  0
  147.2966  133.5880  152.8792 H   0  0  0  0  0  0  0  0  0  0  0  0
  148.3389  135.2909  154.3504 H   0  0  0  0  0  0  0  0  0  0  0  0
  150.2929  134.5989  157.2326 H   0  0  0  0  0  0  0  0  0  0  0  0
  151.3058  135.1911  155.9336 H   0  0  0  0  0  0  0  0  0  0  0  0
  149.8066  137.9637  157.1446 H   0  0  0  0  0  0  0  0  0  0  0  0
  151.2597  137.0342  156.7918 H   0  0  0  0  0  0  0  0  0  0  0  0
  149.5091  138.5319  154.7930 H   0  0  0  0  0  0  0  0  0  0  0  0
  150.0781  137.0421  153.5019 H   0  0  0  0  0  0  0  0  0  0  0  0
  152.3773  138.8783  155.7934 H   0  0  0  0  0  0  0  0  0  0  0  0
  151.9450  139.4237  154.1905 H   0  0  0  0  0  0  0  0  0  0  0  0
  149.5917  141.2335  154.2709 H   0  0  0  0  0  0  0  0  0  0  0  0
  150.4121  143.7425  158.5974 H   0  0  0  0  0  0  0  0  0  0  0  0
  152.8881  139.4405  157.7264 H   0  0  0  0  0  0  0  0  0  0  0  0
  149.3107  143.1121  155.9987 H   0  0  0  0  0  0  0  0  0  0  0  0
  1  2  1  0  0  0  0
  1 26  1  0  0  0  0
  1 27  1  0  0  0  0
  1 28  1  0  0  0  0
  2  3  1  0  0  0  0
  3  8  1  0  0  0  0
  3  4  2  0  0  0  0
  4  5  1  0  0  0  0
  4 29  1  0  0  0  0
  5  6  2  0  0  0  0
  5 30  1  0  0  0  0
  6  7  1  0  0  0  0
  6 31  1  0  0  0  0
  7  8  2  0  0  0  0
  7 32  1  0  0  0  0
  8  9  1  0  0  0  0
  9 10  1  0  0  0  0
  9 33  1  0  0  0  0
  9 34  1  0  0  0  0
 10 11  1  0  0  0  0
 11 12  1  0  0  0  0
 11 35  1  0  0  0  0
 11 36  1  0  0  0  0
 12 13  1  0  0  0  0
 12 14  1  0  0  0  0
 12 37  1  0  0  0  0
 13 38  1  0  0  0  0
 14 15  1  0  0  0  0
 14 39  1  0  0  0  0
 14 40  1  0  0  0  0
 15 25  1  0  0  0  0
 15 16  1  0  0  0  0
 16 17  2  0  0  0  0
 16 41  1  0  0  0  0
 17 18  1  0  0  0  0
 17 44  1  0  0  0  0
 18 25  2  0  0  0  0
 18 19  1  0  0  0  0
 19 20  2  0  0  0  0
 19 42  1  0  0  0  0
 20 21  1  0  0  0  0
 20 22  1  0  0  0  0
 22 23  1  0  0  0  0
 22 24  2  0  0  0  0
 24 25  1  0  0  0  0
 24 43  1  0  0  0  0
M  CHG  1  17   1
M  END
> <s_m_source_file>
AV-unprocessed.smi

> <i_m_source_file_index>
1012

> <i_lp_mmshare_version>
43012

> <i_f3d_flags>
0

> <s_epik_input>
W0NIM11PYzFbY0hdW2NIXVtjSF1bY0hdYzFbQ0gyXU9bQ0gyXVtDQEhdKFtPSF0pW0NIMl1uKFtjSF1uMiljKGMyMylbY0hdYyhGKWMoRilbY0hdMw==

> <s_epik_cmdline>
J2VwaWtfcHl0aG9uJywgJy1waCcsICc3LjAnLCAnLXRuJywgJzgnLCAnLW1hJywgJzIwMCcsICctbWV0YWxfYmluZGluZycsICctaW1hZScsICc8aW5maWxlLm1hZT4nLCAnLW9tYWUnLCAnPG91dGZpbGUubWFlPic=

> <r_lp_tautomer_probability>
1

> <r_epik_Ionization_Penalty>
2.14697

> <r_epik_Ionization_Penalty_Charging>
2.14697

> <r_epik_Ionization_Penalty_Neutral>
1.07667e-06

> <r_epik_State_Penalty>
2.28651

> <r_epik_Charging_Adjusted_Penalty>
4.43348

> <i_epik_Tot_Q>
1

> <i_epik_Tot_abs_Q>
1

> <r_epik_Metal_State_Penalty>
6.36664

> <b_epik_Metal_Only>
0

> <s_lp_Force_Field>
OPLS_2005

> <r_lp_Energy>
22.239

> <b_lp_Chiralities_Consistent>
1

> <s_lp_Variant>
AV-unprocessed.smi:1012-3

> <Gold.Version>
5.8.1

> <Gold.Id.Protein>
6NUR|6NUR_protein|mol2

> <Gold.PLP.Fitness>
55.2683

> <Gold.PLP.PLP>
-49.0148

> <Gold.PLP.part.hbond>
-3.0000

> <Gold.PLP.part.metal>
0.0000

> <Gold.PLP.part.buried>
-2.9545

> <Gold.PLP.part.nonpolar>
-41.9887

> <Gold.PLP.part.repulsive>
0.1297

> <Gold.PLP.ligand.clash>
0.0000

> <Gold.PLP.ligand.torsion>
1.0996

> <Gold.PLP.Chemscore.Hbond>
2.7873

> <Gold.PLP.Chemscore.CHOScore>
0.0000

> <Gold.PLP.Chemscore.Metal>
0.0000

> <Gold.Chemscore.Hbonds>
donor molecule, donor type, donor heavy atom, donor atom, acceptor molecule, acceptor atom, score
      L1  H    13    38       P1  7948  0.77
      L1  H    17    44       P1  8028  2.00

> <Gold.PLP.Chemscore.Internal.Correction>
0.0908

> <Gold.Rescore>
     Score         DG    S(hbond)    S(metal)    S(lipo)     H(rot)  DE(clash)    DE(int)     intcor
     12.67     -13.99       1.30        0.00     101.94       3.03       0.21       1.11       ----

> <Gold.Chemscore.Fitness>
12.6722

> <Gold.Chemscore.DG>
-13.9917

> <Gold.Chemscore.ZeroCoef>
-5.4800

> <Gold.Chemscore.Hbond>
1.2982

> <Gold.Chemscore.Metal>
0.0000

> <Gold.Chemscore.Lipo>
101.9399

> <Gold.Chemscore.Internal_Hbond>
0.0000

> <Gold.Chemscore.DEClash>
0.2101

> <Gold.Chemscore.DEInternal>
1.1094

> <Gold.Chemscore.Rot>
3.0278

> <Gold.Chemscore.Internal.Correction>
   9.000000E+99

> <Gold.Chemscore.Hbonds>
donor molecule, donor type, donor heavy atom, donor atom, acceptor molecule, acceptor atom, score
      L1  H    13    38       P1  7948  0.17
      L1  H    17    44       P1  8028  0.98

> <Gold.Chemscore.Hbond.Weighted>
-4.3359

> <Gold.Chemscore.Metal.Weighted>
-0.0000

> <Gold.Chemscore.Lipo.Weighted>
-11.9270

> <Gold.Chemscore.Internal_Hbond.Weighted>
0.0000

> <Gold.Chemscore.DEClash.Weighted>
0.2101

> <Gold.Chemscore.DEInternal.Weighted>
1.1094

> <Gold.Chemscore.Rot.Weighted>
7.7512

> <Gold.Chemscore.Internal.Correction.Weighted>
   9.000000E+99

> <Gold.Protein.RotatedTorsions>
[ 6907 6896 6895 6894 ] final -104.82 input  -60.11 | X-H torsion
[ 7974 7965 7964 7962 ] final  -46.28 input  175.53 | X-H torsion
[ 8008 7997 7996 7995 ] final  -68.64 input   59.86 | X-H torsion
[ 10167 10162 10161 10158 ] final   65.88 input  -65.29 | X-H torsion
[ 10718 10713 10712 10709 ] final  113.08 input   66.30 | X-H torsion
[ 10763 10752 10751 10750 ] final   86.75 input  -60.55 | X-H torsion
[ 11005 11000 10999 10996 ] final -135.25 input  -57.11 | X-H torsion

> <Gold.Protein.ActiveResidues>
 VAL166  LYS551  ARG553  GLY616  TRP617  ASP618  TYR619  PRO620  LYS621  CYS622 
 ASP623  PHE694  ASN695  SER759  ASP760  ASP761  ALA762  ILE779  LEU786  VAL792 
 PHE793  MET794  SER795  GLU796  ALA797  LYS798  CYS799  TRP800  GLU811  SER814 

> <Gold.Protein.RotatedAtoms>
  150.7306  134.0219  159.3703 H   0  0  0  0  0  0  0  0  0  0  0  0  # atno 6907 bound_to 6896
  151.8184  135.0657  160.0431 H   0  0  0  0  0  0  0  0  0  0  0  0  # atno 6908 bound_to 6896
  152.3021  133.5630  159.5662 H   0  0  0  0  0  0  0  0  0  0  0  0  # atno 6909 bound_to 6896
  145.9735  140.7358  142.9398 H   0  0  0  0  0  0  0  0  0  0  0  0  # atno 7974 bound_to 7965
  154.4882  140.0869  156.7534 H   0  0  0  0  0  0  0  0  0  0  0  0  # atno 8008 bound_to 7997
  155.4297  140.3449  155.4261 H   0  0  0  0  0  0  0  0  0  0  0  0  # atno 8009 bound_to 7997
  156.1292  140.1496  156.9079 H   0  0  0  0  0  0  0  0  0  0  0  0  # atno 8010 bound_to 7997
  140.1065  144.4857  150.7005 H   0  0  0  0  0  0  0  0  0  0  0  0  # atno 10167 bound_to 10162
  157.6357  131.0978  150.6989 H   0  0  0  0  0  0  0  0  0  0  0  0  # atno 10718 bound_to 10713
  153.1601  135.4569  154.9760 H   0  0  0  0  0  0  0  0  0  0  0  0  # atno 10763 bound_to 10752
  154.7891  135.3214  154.7821 H   0  0  0  0  0  0  0  0  0  0  0  0  # atno 10764 bound_to 10752
  153.8312  135.6938  153.4869 H   0  0  0  0  0  0  0  0  0  0  0  0  # atno 10765 bound_to 10752
  140.8916  134.1805  157.4524 H   0  0  0  0  0  0  0  0  0  0  0  0  # atno 11005 bound_to 11000
  144.6843  140.2789  143.7295 LP  0  0  0  0  0  0  0  0  0  0  0  0  # atno 17320 bound_to 7965
  145.7872  139.1913  143.2124 LP  0  0  0  0  0  0  0  0  0  0  0  0  # atno 17321 bound_to 7965
  140.6949  143.2398  151.5028 LP  0  0  0  0  0  0  0  0  0  0  0  0  # atno 17342 bound_to 10162
  139.5643  144.2081  152.1740 LP  0  0  0  0  0  0  0  0  0  0  0  0  # atno 17343 bound_to 10162
  156.7321  130.4713  149.5497 LP  0  0  0  0  0  0  0  0  0  0  0  0  # atno 17370 bound_to 10713
  156.1595  130.6364  151.0701 LP  0  0  0  0  0  0  0  0  0  0  0  0  # atno 17371 bound_to 10713
  139.8730  134.9861  156.5308 LP  0  0  0  0  0  0  0  0  0  0  0  0  # atno 17394 bound_to 11000
  140.8340  133.8256  155.9011 LP  0  0  0  0  0  0  0  0  0  0  0  0  # atno 17395 bound_to 11000

$$$$
