AV-unprocessed.smi:682|AV-procd|sdf|3328|dock6
  -GOLD-   22720 0293D 1   1.00000     0.00000
 Structure written by MMmdl.
 41 42  0  0  0  0  0  0  0  0  1 V2000
  148.5064  140.1927  157.3986 C   0  0  0  0  0  0  0  0  0  0  0  0
  147.6293  140.6754  156.3881 O   0  0  0  0  0  0  0  0  0  0  0  0
  147.9970  140.4293  155.0237 C   0  0  1  0  0  0  0  0  0  0  0  0
  149.3646  141.0514  154.7151 C   0  0  0  0  0  0  0  0  0  0  0  0
  147.7377  138.9548  154.6585 C   0  0  0  0  0  0  0  0  0  0  0  0
  146.2839  139.3504  154.4090 C   0  0  2  0  0  0  0  0  0  0  0  0
  145.6960  138.6509  153.2716 N   0  0  0  0  0  0  0  0  0  0  0  0
  145.8953  137.3546  152.9994 C   0  0  0  0  0  0  0  0  0  0  0  0
  146.6028  136.6169  153.6855 O   0  0  0  0  0  0  0  0  0  0  0  0
  145.2262  136.9787  151.8981 N   0  0  0  0  0  0  0  0  0  0  0  0
  145.1885  135.6862  151.3186 C   0  0  0  0  0  0  0  0  0  0  0  0
  146.1374  134.6287  151.4095 C   0  0  0  0  0  0  0  0  0  0  0  0
  145.7350  133.5694  150.7232 N   0  0  0  0  0  0  0  0  0  0  0  0
  144.5415  133.9274  150.1909 N   0  0  0  0  0  0  0  0  0  0  0  0
  143.8198  132.9795  149.3692 C   0  0  0  0  0  0  0  0  0  0  0  0
  144.1779  135.2135  150.5367 C   0  0  0  0  0  0  0  0  0  0  0  0
  146.7789  140.7894  154.1111 C   0  0  0  0  0  0  0  0  0  0  0  0
  145.8699  141.9241  154.5961 C   0  0  0  0  0  0  0  0  0  0  0  0
  147.1102  141.1187  152.6430 C   0  0  0  0  0  0  0  0  0  0  0  0
  148.0283  140.3122  158.3706 H   0  0  0  0  0  0  0  0  0  0  0  0
  149.4371  140.7589  157.4270 H   0  0  0  0  0  0  0  0  0  0  0  0
  148.7427  139.1364  157.2757 H   0  0  0  0  0  0  0  0  0  0  0  0
  149.6202  140.9667  153.6595 H   0  0  0  0  0  0  0  0  0  0  0  0
  150.1687  140.5580  155.2600 H   0  0  0  0  0  0  0  0  0  0  0  0
  149.3847  142.1107  154.9716 H   0  0  0  0  0  0  0  0  0  0  0  0
  148.2677  138.6431  153.7567 H   0  0  0  0  0  0  0  0  0  0  0  0
  147.8710  138.2283  155.4592 H   0  0  0  0  0  0  0  0  0  0  0  0
  145.6876  139.2865  155.3225 H   0  0  0  0  0  0  0  0  0  0  0  0
  145.1012  139.1876  152.6574 H   0  0  0  0  0  0  0  0  0  0  0  0
  144.6862  137.6897  151.4270 H   0  0  0  0  0  0  0  0  0  0  0  0
  147.0805  134.5836  151.9334 H   0  0  0  0  0  0  0  0  0  0  0  0
  142.9488  133.4594  148.9216 H   0  0  0  0  0  0  0  0  0  0  0  0
  143.4880  132.1402  149.9810 H   0  0  0  0  0  0  0  0  0  0  0  0
  144.4678  132.6102  148.5735 H   0  0  0  0  0  0  0  0  0  0  0  0
  143.2558  135.6673  150.2041 H   0  0  0  0  0  0  0  0  0  0  0  0
  145.0105  142.0591  153.9385 H   0  0  0  0  0  0  0  0  0  0  0  0
  146.4058  142.8726  154.6390 H   0  0  0  0  0  0  0  0  0  0  0  0
  145.4715  141.7302  155.5920 H   0  0  0  0  0  0  0  0  0  0  0  0
  146.2094  141.1887  152.0326 H   0  0  0  0  0  0  0  0  0  0  0  0
  147.7464  140.3618  152.1840 H   0  0  0  0  0  0  0  0  0  0  0  0
  147.6316  142.0723  152.5560 H   0  0  0  0  0  0  0  0  0  0  0  0
  1  2  1  0  0  0  0
  1 20  1  0  0  0  0
  1 21  1  0  0  0  0
  1 22  1  0  0  0  0
  2  3  1  0  0  0  0
  3 17  1  0  0  0  0
  3  4  1  0  0  0  0
  3  5  1  0  0  0  0
  4 23  1  0  0  0  0
  4 24  1  0  0  0  0
  4 25  1  0  0  0  0
  5  6  1  0  0  0  0
  5 26  1  0  0  0  0
  5 27  1  0  0  0  0
  6  7  1  0  0  0  0
  6 17  1  0  0  0  0
  6 28  1  0  0  0  0
  7  8  1  0  0  0  0
  7 29  1  0  0  0  0
  8  9  2  0  0  0  0
  8 10  1  0  0  0  0
 10 11  1  0  0  0  0
 10 30  1  0  0  0  0
 11 16  2  0  0  0  0
 11 12  1  0  0  0  0
 12 13  2  0  0  0  0
 12 31  1  0  0  0  0
 13 14  1  0  0  0  0
 14 15  1  0  0  0  0
 14 16  1  0  0  0  0
 15 32  1  0  0  0  0
 15 33  1  0  0  0  0
 15 34  1  0  0  0  0
 16 35  1  0  0  0  0
 17 18  1  0  0  0  0
 17 19  1  0  0  0  0
 18 36  1  0  0  0  0
 18 37  1  0  0  0  0
 18 38  1  0  0  0  0
 19 39  1  0  0  0  0
 19 40  1  0  0  0  0
 19 41  1  0  0  0  0
M  END
> <s_m_source_file>
AV-unprocessed.smi

> <i_m_source_file_index>
682

> <i_lp_mmshare_version>
43012

> <i_f3d_flags>
0

> <s_epik_input>
W0NIM11PW0NAQF0xKFtDSDNdKVtDSDJdW0NASF0oQzEoW0NIM10pW0NIM10pW05IXUMoPU8pW05IXWMyW2NIXW5uKFtDSDNdKVtjSF0y

> <s_epik_cmdline>
J2VwaWtfcHl0aG9uJywgJy1waCcsICc3LjAnLCAnLXRuJywgJzgnLCAnLW1hJywgJzIwMCcsICctbWV0YWxfYmluZGluZycsICctaW1hZScsICc8aW5maWxlLm1hZT4nLCAnLW9tYWUnLCAnPG91dGZpbGUubWFlPic=

> <r_lp_tautomer_probability>
1

> <r_epik_Ionization_Penalty>
0.000192302

> <r_epik_Ionization_Penalty_Charging>
0

> <r_epik_Ionization_Penalty_Neutral>
0.000192302

> <r_epik_State_Penalty>
-0

> <r_epik_Charging_Adjusted_Penalty>
0

> <i_epik_Tot_Q>
0

> <i_epik_Tot_abs_Q>
0

> <r_epik_Metal_State_Penalty>
-0

> <b_epik_Metal_Only>
0

> <s_lp_Force_Field>
OPLS_2005

> <r_lp_Energy>
24.1869

> <b_lp_Chiralities_Consistent>
1

> <s_lp_Variant>
AV-unprocessed.smi:682-3

> <Gold.Version>
5.8.1

> <Gold.Id.Protein>
6NUR|6NUR_protein|mol2

> <Gold.PLP.Fitness>
33.9735

> <Gold.PLP.PLP>
-24.5387

> <Gold.PLP.part.hbond>
-2.0000

> <Gold.PLP.part.metal>
0.0000

> <Gold.PLP.part.buried>
-2.9427

> <Gold.PLP.part.nonpolar>
-21.1723

> <Gold.PLP.part.repulsive>
1.1711

> <Gold.PLP.ligand.clash>
0.0000

> <Gold.PLP.ligand.torsion>
0.4932

> <Gold.PLP.Chemscore.Hbond>
1.9833

> <Gold.PLP.Chemscore.CHOScore>
1.3659

> <Gold.PLP.Chemscore.Metal>
0.0000

> <Gold.Chemscore.Hbonds>
donor molecule, donor type, donor heavy atom, donor atom, acceptor molecule, acceptor atom, score
      L1  H     7    29       P1 10175  0.98
      L1  H    10    30       P1 10171  1.00
      L1  C    12    31       P1  7948  0.96
      L1  C    16    35       P1 10186  0.40

> <Gold.PLP.Chemscore.Internal.Correction>
0.3738

> <Gold.Rescore>
     Score         DG    S(hbond)    S(metal)    S(lipo)     H(rot)  DE(clash)    DE(int)     intcor
     11.99     -15.78       1.82        0.00      63.10       1.23       1.10       2.69       ----

> <Gold.Chemscore.Fitness>
11.9853

> <Gold.Chemscore.DG>
-15.7755

> <Gold.Chemscore.ZeroCoef>
-5.4800

> <Gold.Chemscore.Hbond>
1.8175

> <Gold.Chemscore.Metal>
0.0000

> <Gold.Chemscore.Lipo>
63.1049

> <Gold.Chemscore.Internal_Hbond>
0.0000

> <Gold.Chemscore.DEClash>
1.0960

> <Gold.Chemscore.DEInternal>
2.6942

> <Gold.Chemscore.Rot>
1.2336

> <Gold.Chemscore.Internal.Correction>
   9.000000E+99

> <Gold.Chemscore.Hbonds>
donor molecule, donor type, donor heavy atom, donor atom, acceptor molecule, acceptor atom, score
      L1  H     7    29       P1 10175  0.93
      L1  H    10    30       P1 10171  0.93

> <Gold.Chemscore.Hbond.Weighted>
-6.0703

> <Gold.Chemscore.Metal.Weighted>
-0.0000

> <Gold.Chemscore.Lipo.Weighted>
-7.3833

> <Gold.Chemscore.Internal_Hbond.Weighted>
0.0000

> <Gold.Chemscore.DEClash.Weighted>
1.0960

> <Gold.Chemscore.DEInternal.Weighted>
2.6942

> <Gold.Chemscore.Rot.Weighted>
3.1581

> <Gold.Chemscore.Internal.Correction.Weighted>
   9.000000E+99

> <Gold.Protein.RotatedTorsions>
[ 6907 6896 6895 6894 ] final   42.94 input  -60.11 | X-H torsion
[ 7974 7965 7964 7962 ] final -125.28 input  175.53 | X-H torsion
[ 8008 7997 7996 7995 ] final -177.34 input   59.86 | X-H torsion
[ 10167 10162 10161 10158 ] final  127.30 input  -65.29 | X-H torsion
[ 10718 10713 10712 10709 ] final  -47.78 input   66.30 | X-H torsion
[ 10763 10752 10751 10750 ] final   -8.36 input  -60.55 | X-H torsion
[ 11005 11000 10999 10996 ] final   83.37 input  -57.11 | X-H torsion

> <Gold.Protein.ActiveResidues>
 VAL166  LYS551  ARG553  GLY616  TRP617  ASP618  TYR619  PRO620  LYS621  CYS622 
 ASP623  PHE694  ASN695  SER759  ASP760  ASP761  ALA762  ILE779  LEU786  VAL792 
 PHE793  MET794  SER795  GLU796  ALA797  LYS798  CYS799  TRP800  GLU811  SER814 

> <Gold.Protein.RotatedAtoms>
  152.2141  134.8474  160.0493 H   0  0  0  0  0  0  0  0  0  0  0  0  # atno 6907 bound_to 6896
  151.9281  133.3598  159.3929 H   0  0  0  0  0  0  0  0  0  0  0  0  # atno 6908 bound_to 6896
  150.6983  134.4490  159.5371 H   0  0  0  0  0  0  0  0  0  0  0  0  # atno 6909 bound_to 6896
  144.9993  140.7805  143.4506 H   0  0  0  0  0  0  0  0  0  0  0  0  # atno 7974 bound_to 7965
  156.0058  140.1230  157.0503 H   0  0  0  0  0  0  0  0  0  0  0  0  # atno 8008 bound_to 7997
  154.4258  140.1097  156.5829 H   0  0  0  0  0  0  0  0  0  0  0  0  # atno 8009 bound_to 7997
  155.6149  140.3472  155.4636 H   0  0  0  0  0  0  0  0  0  0  0  0  # atno 8010 bound_to 7997
  139.5586  144.6866  151.4110 H   0  0  0  0  0  0  0  0  0  0  0  0  # atno 10167 bound_to 10162
  156.2052  130.4158  149.9188 H   0  0  0  0  0  0  0  0  0  0  0  0  # atno 10718 bound_to 10713
  153.4393  135.7013  153.6179 H   0  0  0  0  0  0  0  0  0  0  0  0  # atno 10763 bound_to 10752
  153.4560  135.3747  155.2312 H   0  0  0  0  0  0  0  0  0  0  0  0  # atno 10764 bound_to 10752
  154.8727  135.4008  154.3789 H   0  0  0  0  0  0  0  0  0  0  0  0  # atno 10765 bound_to 10752
  139.9033  134.8139  156.2300 H   0  0  0  0  0  0  0  0  0  0  0  0  # atno 11005 bound_to 11000
  145.2176  139.2174  143.5110 LP  0  0  0  0  0  0  0  0  0  0  0  0  # atno 17320 bound_to 7965
  146.3448  140.2027  142.8589 LP  0  0  0  0  0  0  0  0  0  0  0  0  # atno 17321 bound_to 7965
  140.6862  143.7968  150.7190 LP  0  0  0  0  0  0  0  0  0  0  0  0  # atno 17342 bound_to 10162
  140.1436  143.4419  152.2177 LP  0  0  0  0  0  0  0  0  0  0  0  0  # atno 17343 bound_to 10162
  156.6884  130.8886  151.3585 LP  0  0  0  0  0  0  0  0  0  0  0  0  # atno 17370 bound_to 10713
  157.7008  130.9331  150.0779 LP  0  0  0  0  0  0  0  0  0  0  0  0  # atno 17371 bound_to 10713
  141.0351  133.6967  156.1499 LP  0  0  0  0  0  0  0  0  0  0  0  0  # atno 17394 bound_to 11000
  140.7038  134.4535  157.5585 LP  0  0  0  0  0  0  0  0  0  0  0  0  # atno 17395 bound_to 11000

$$$$
