AV-unprocessed.smi:1005|AV-procd|sdf|4364|dock4
  -GOLD-   22720 2263D 1   1.00000     0.00000
 Structure written by MMmdl.
 56 58  0  0  0  0  0  0  0  0  2 V2000
  153.1262  142.6364  161.5807 C   0  0  0  0  0  0  0  0  0  0  0  0
  152.5140  142.3524  160.2204 C   0  0  0  0  0  0  0  0  0  0  0  0
  152.8542  141.1560  159.5499 C   0  0  0  0  0  0  0  0  0  0  0  0
  152.3052  140.8534  158.2847 C   0  0  0  0  0  0  0  0  0  0  0  0
  152.4931  139.7550  157.4634 N   0  0  0  0  0  0  0  0  0  0  0  0
  151.7110  140.0560  156.4312 C   0  0  0  0  0  0  0  0  0  0  0  0
  151.0303  141.2165  156.4902 N   0  0  0  0  0  0  0  0  0  0  0  0
  150.1123  141.7383  155.4936 C   0  0  0  0  0  0  0  0  0  0  0  0
  149.3541  140.6173  154.7587 C   0  0  2  0  0  0  0  0  0  0  0  0
  150.2343  140.0487  153.8120 O   0  0  0  0  0  0  0  0  0  0  0  0
  148.0966  141.1173  154.0115 C   0  0  0  0  0  0  0  0  0  0  0  0
  147.1381  141.8607  154.8297 N   0  0  0  0  0  0  0  0  0  0  0  0
  146.1744  140.9565  155.4474 C   0  0  0  0  0  0  0  0  0  0  0  0
  145.1466  141.7124  156.3048 C   0  0  0  0  0  0  0  0  0  0  0  0
  144.4840  142.6840  155.5023 O   0  0  0  0  0  0  0  0  0  0  0  0
  145.3780  143.6261  154.9146 C   0  0  2  0  0  0  0  0  0  0  0  0
  144.5483  144.6070  154.0677 C   0  0  0  0  0  0  0  0  0  0  0  0
  143.7343  145.5302  154.8985 N   0  3  0  0  0  0  0  0  0  0  0  0
  143.1194  146.6311  154.1217 C   0  0  0  0  0  0  0  0  0  0  0  0
  142.7279  144.8100  155.7093 C   0  0  0  0  0  0  0  0  0  0  0  0
  146.4069  142.8634  154.0555 C   0  0  0  0  0  0  0  0  0  0  0  0
  151.3987  141.7878  157.7036 C   0  0  0  0  0  0  0  0  0  0  0  0
  151.0532  142.9821  158.3605 C   0  0  0  0  0  0  0  0  0  0  0  0
  151.6122  143.2697  159.6233 C   0  0  0  0  0  0  0  0  0  0  0  0
  151.2325  144.5619  160.3239 C   0  0  0  0  0  0  0  0  0  0  0  0
  153.7524  141.8093  161.9168 H   0  0  0  0  0  0  0  0  0  0  0  0
  152.3467  142.7890  162.3273 H   0  0  0  0  0  0  0  0  0  0  0  0
  153.7474  143.5314  161.5396 H   0  0  0  0  0  0  0  0  0  0  0  0
  153.5411  140.4570  160.0039 H   0  0  0  0  0  0  0  0  0  0  0  0
  151.6205  139.3904  155.5851 H   0  0  0  0  0  0  0  0  0  0  0  0
  149.4132  142.4208  155.9784 H   0  0  0  0  0  0  0  0  0  0  0  0
  150.6884  142.3342  154.7843 H   0  0  0  0  0  0  0  0  0  0  0  0
  149.1047  139.8454  155.4852 H   0  0  0  0  0  0  0  0  0  0  0  0
  149.8029  140.0394  152.9712 H   0  0  0  0  0  0  0  0  0  0  0  0
  148.3881  141.7486  153.1721 H   0  0  0  0  0  0  0  0  0  0  0  0
  147.6052  140.2540  153.5599 H   0  0  0  0  0  0  0  0  0  0  0  0
  145.6521  140.3883  154.6759 H   0  0  0  0  0  0  0  0  0  0  0  0
  146.6955  140.2288  156.0707 H   0  0  0  0  0  0  0  0  0  0  0  0
  144.4084  141.0206  156.7105 H   0  0  0  0  0  0  0  0  0  0  0  0
  145.6317  142.1983  157.1528 H   0  0  0  0  0  0  0  0  0  0  0  0
  145.9084  144.1604  155.7034 H   0  0  0  0  0  0  0  0  0  0  0  0
  145.1947  145.1874  153.4076 H   0  0  0  0  0  0  0  0  0  0  0  0
  143.8926  144.0247  153.4181 H   0  0  0  0  0  0  0  0  0  0  0  0
  142.4343  146.2420  153.3672 H   0  0  0  0  0  0  0  0  0  0  0  0
  143.8722  147.2376  153.6194 H   0  0  0  0  0  0  0  0  0  0  0  0
  142.5569  147.2951  154.7788 H   0  0  0  0  0  0  0  0  0  0  0  0
  142.0083  144.2945  155.0721 H   0  0  0  0  0  0  0  0  0  0  0  0
  142.1825  145.5019  156.3521 H   0  0  0  0  0  0  0  0  0  0  0  0
  143.2061  144.0719  156.3544 H   0  0  0  0  0  0  0  0  0  0  0  0
  147.0953  143.5858  153.6199 H   0  0  0  0  0  0  0  0  0  0  0  0
  145.8956  142.3822  153.2201 H   0  0  0  0  0  0  0  0  0  0  0  0
  150.3622  143.6704  157.8969 H   0  0  0  0  0  0  0  0  0  0  0  0
  150.5855  145.1779  159.6987 H   0  0  0  0  0  0  0  0  0  0  0  0
  152.1217  145.1467  160.5601 H   0  0  0  0  0  0  0  0  0  0  0  0
  150.6999  144.3496  161.2511 H   0  0  0  0  0  0  0  0  0  0  0  0
  144.3702  145.9551  155.5591 H   0  0  0  0  0  0  0  0  0  0  0  0
  1  2  1  0  0  0  0
  1 26  1  0  0  0  0
  1 27  1  0  0  0  0
  1 28  1  0  0  0  0
  2 24  1  0  0  0  0
  2  3  2  0  0  0  0
  3  4  1  0  0  0  0
  3 29  1  0  0  0  0
  4 22  2  0  0  0  0
  4  5  1  0  0  0  0
  5  6  2  0  0  0  0
  6  7  1  0  0  0  0
  6 30  1  0  0  0  0
  7  8  1  0  0  0  0
  7 22  1  0  0  0  0
  8  9  1  0  0  0  0
  8 31  1  0  0  0  0
  8 32  1  0  0  0  0
  9 10  1  0  0  0  0
  9 11  1  0  0  0  0
  9 33  1  0  0  0  0
 10 34  1  0  0  0  0
 11 12  1  0  0  0  0
 11 35  1  0  0  0  0
 11 36  1  0  0  0  0
 12 21  1  0  0  0  0
 12 13  1  0  0  0  0
 13 14  1  0  0  0  0
 13 37  1  0  0  0  0
 13 38  1  0  0  0  0
 14 15  1  0  0  0  0
 14 39  1  0  0  0  0
 14 40  1  0  0  0  0
 15 16  1  0  0  0  0
 16 17  1  0  0  0  0
 16 21  1  0  0  0  0
 16 41  1  0  0  0  0
 17 18  1  0  0  0  0
 17 42  1  0  0  0  0
 17 43  1  0  0  0  0
 18 19  1  0  0  0  0
 18 20  1  0  0  0  0
 18 56  1  0  0  0  0
 19 44  1  0  0  0  0
 19 45  1  0  0  0  0
 19 46  1  0  0  0  0
 20 47  1  0  0  0  0
 20 48  1  0  0  0  0
 20 49  1  0  0  0  0
 21 50  1  0  0  0  0
 21 51  1  0  0  0  0
 22 23  1  0  0  0  0
 23 24  2  0  0  0  0
 23 52  1  0  0  0  0
 24 25  1  0  0  0  0
 25 53  1  0  0  0  0
 25 54  1  0  0  0  0
 25 55  1  0  0  0  0
M  CHG  1  18   1
M  END
> <s_m_source_file>
AV-unprocessed.smi

> <i_m_source_file_index>
1005

> <i_lp_mmshare_version>
43012

> <i_f3d_flags>
0

> <s_epik_input>
W0NIM11jKFtjSF0xKWMoW0NIM10pW2NIXWMoYzEyKW4oW2NIXW4yKVtDSDJdW0NASF0oW09IXSlbQ0gyXU4zW0NIMl1bQ0gyXU9bQ0BIXShbQ0gyXTMpW0NIMl1OKFtDSDNdKVtDSDNd

> <s_epik_cmdline>
J2VwaWtfcHl0aG9uJywgJy1waCcsICc3LjAnLCAnLXRuJywgJzgnLCAnLW1hJywgJzIwMCcsICctbWV0YWxfYmluZGluZycsICctaW1hZScsICc8aW5maWxlLm1hZT4nLCAnLW9tYWUnLCAnPG91dGZpbGUubWFlPic=

> <r_epik_Ionization_Penalty>
0.226781

> <r_epik_Ionization_Penalty_Charging>
0.00915946

> <r_epik_Ionization_Penalty_Neutral>
0.217622

> <r_epik_State_Penalty>
0.173018

> <r_epik_Charging_Adjusted_Penalty>
0.182178

> <i_epik_Tot_Q>
1

> <i_epik_Tot_abs_Q>
1

> <r_epik_Metal_State_Penalty>
0.0905268

> <b_epik_Metal_Only>
0

> <s_lp_Force_Field>
OPLS_2005

> <r_lp_Energy>
37.9452

> <b_lp_Chiralities_Consistent>
1

> <s_lp_Variant>
AV-unprocessed.smi:1005-3

> <Gold.Version>
5.8.1

> <Gold.Id.Protein>
6NUR|6NUR_protein|mol2

> <Gold.PLP.Fitness>
57.7706

> <Gold.PLP.PLP>
-50.8442

> <Gold.PLP.part.hbond>
-3.0000

> <Gold.PLP.part.metal>
0.0000

> <Gold.PLP.part.buried>
-6.3565

> <Gold.PLP.part.nonpolar>
-42.3101

> <Gold.PLP.part.repulsive>
0.2923

> <Gold.PLP.ligand.clash>
0.0000

> <Gold.PLP.ligand.torsion>
0.9819

> <Gold.PLP.Chemscore.Hbond>
2.8800

> <Gold.PLP.Chemscore.CHOScore>
0.0000

> <Gold.PLP.Chemscore.Metal>
0.0000

> <Gold.Chemscore.Hbonds>
donor molecule, donor type, donor heavy atom, donor atom, acceptor molecule, acceptor atom, score
      L1  H    10    34       P1  7957  1.00
      P1  H  7989  7998       L1    10  0.88
      P1  H  7997  8008       L1     5  0.89

> <Gold.PLP.Chemscore.Internal.Correction>
0.2503

> <Gold.Rescore>
     Score         DG    S(hbond)    S(metal)    S(lipo)     H(rot)  DE(clash)    DE(int)     intcor
     18.77     -21.88       2.20        0.00     130.30       2.41       0.10       3.01       ----

> <Gold.Chemscore.Fitness>
18.7654

> <Gold.Chemscore.DG>
-21.8796

> <Gold.Chemscore.ZeroCoef>
-5.4800

> <Gold.Chemscore.Hbond>
2.1955

> <Gold.Chemscore.Metal>
0.0000

> <Gold.Chemscore.Lipo>
130.3022

> <Gold.Chemscore.Internal_Hbond>
0.0000

> <Gold.Chemscore.DEClash>
0.1022

> <Gold.Chemscore.DEInternal>
3.0119

> <Gold.Chemscore.Rot>
2.4136

> <Gold.Chemscore.Internal.Correction>
   9.000000E+99

> <Gold.Chemscore.Hbonds>
donor molecule, donor type, donor heavy atom, donor atom, acceptor molecule, acceptor atom, score
      L1  H    10    34       P1  7957  0.99
      P1  H  7989  7998       L1    10  0.25
      P1  H  7997  8008       L1     5  0.12

> <Gold.Chemscore.Hbond.Weighted>
-7.3330

> <Gold.Chemscore.Metal.Weighted>
-0.0000

> <Gold.Chemscore.Lipo.Weighted>
-15.2454

> <Gold.Chemscore.Internal_Hbond.Weighted>
0.0000

> <Gold.Chemscore.DEClash.Weighted>
0.1022

> <Gold.Chemscore.DEInternal.Weighted>
3.0119

> <Gold.Chemscore.Rot.Weighted>
6.1788

> <Gold.Chemscore.Internal.Correction.Weighted>
   9.000000E+99

> <Gold.Protein.RotatedTorsions>
[ 6907 6896 6895 6894 ] final  -80.74 input  -60.11 | X-H torsion
[ 7974 7965 7964 7962 ] final  -14.97 input  175.53 | X-H torsion
[ 8008 7997 7996 7995 ] final  -63.27 input   59.86 | X-H torsion
[ 10167 10162 10161 10158 ] final  161.79 input  -65.29 | X-H torsion
[ 10718 10713 10712 10709 ] final   81.01 input   66.30 | X-H torsion
[ 10763 10752 10751 10750 ] final   29.18 input  -60.55 | X-H torsion
[ 11005 11000 10999 10996 ] final -145.36 input  -57.11 | X-H torsion

> <Gold.Protein.ActiveResidues>
 VAL166  LYS551  ARG553  GLY616  TRP617  ASP618  TYR619  PRO620  LYS621  CYS622 
 ASP623  PHE694  ASN695  SER759  ASP760  ASP761  ALA762  ILE779  LEU786  VAL792 
 PHE793  MET794  SER795  GLU796  ALA797  LYS798  CYS799  TRP800  GLU811  SER814 

> <Gold.Protein.RotatedAtoms>
  150.6924  134.3923  159.5081 H   0  0  0  0  0  0  0  0  0  0  0  0  # atno 6907 bound_to 6896
  152.1710  134.8832  160.0543 H   0  0  0  0  0  0  0  0  0  0  0  0  # atno 6908 bound_to 6896
  151.9858  133.3738  159.4162 H   0  0  0  0  0  0  0  0  0  0  0  0  # atno 6909 bound_to 6896
  146.2052  140.3426  142.8409 H   0  0  0  0  0  0  0  0  0  0  0  0  # atno 7974 bound_to 7965
  154.4545  140.0978  156.6716 H   0  0  0  0  0  0  0  0  0  0  0  0  # atno 8008 bound_to 7997
  155.5182  140.3478  155.4383 H   0  0  0  0  0  0  0  0  0  0  0  0  # atno 8009 bound_to 7997
  156.0749  140.1358  156.9772 H   0  0  0  0  0  0  0  0  0  0  0  0  # atno 8010 bound_to 7997
  139.4853  144.4502  151.8840 H   0  0  0  0  0  0  0  0  0  0  0  0  # atno 10167 bound_to 10162
  157.6822  130.9985  150.2164 H   0  0  0  0  0  0  0  0  0  0  0  0  # atno 10718 bound_to 10713
  153.0446  135.6495  154.0852 H   0  0  0  0  0  0  0  0  0  0  0  0  # atno 10763 bound_to 10752
  154.0552  135.2892  155.3335 H   0  0  0  0  0  0  0  0  0  0  0  0  # atno 10764 bound_to 10752
  154.6694  135.5362  153.8184 H   0  0  0  0  0  0  0  0  0  0  0  0  # atno 10765 bound_to 10752
  140.7930  134.2946  157.5006 H   0  0  0  0  0  0  0  0  0  0  0  0  # atno 11005 bound_to 11000
  144.8775  140.7356  143.6008 LP  0  0  0  0  0  0  0  0  0  0  0  0  # atno 17320 bound_to 7965
  145.3346  139.1750  143.4519 LP  0  0  0  0  0  0  0  0  0  0  0  0  # atno 17321 bound_to 7965
  140.3958  144.2557  150.5896 LP  0  0  0  0  0  0  0  0  0  0  0  0  # atno 17342 bound_to 10162
  140.5103  143.2292  151.8545 LP  0  0  0  0  0  0  0  0  0  0  0  0  # atno 17343 bound_to 10162
  156.2824  130.3735  149.7922 LP  0  0  0  0  0  0  0  0  0  0  0  0  # atno 17370 bound_to 10713
  156.5606  130.8382  151.3327 LP  0  0  0  0  0  0  0  0  0  0  0  0  # atno 17371 bound_to 10713
  139.8729  134.9385  156.3718 LP  0  0  0  0  0  0  0  0  0  0  0  0  # atno 17394 bound_to 11000
  140.9370  133.7540  156.0098 LP  0  0  0  0  0  0  0  0  0  0  0  0  # atno 17395 bound_to 11000

$$$$
