AV-unprocessed.smi:1843|AV-procd|sdf|7507|dock5
  -GOLD-   22720 9213D 1   1.00000     0.00000
 Structure written by MMmdl.
 36 38  0  0  0  0  0  0  0  0  2 V2000
  152.3089  136.2524  156.2602 O   0  0  0  0  0  0  0  0  0  0  0  0
  151.5762  135.8406  157.1625 C   0  0  0  0  0  0  0  0  0  0  0  0
  151.4652  136.3611  158.4057 N   0  5  0  0  0  0  0  0  0  0  0  0
  151.8072  137.6403  158.6311 C   0  0  0  0  0  0  0  0  0  0  0  0
  151.2618  138.6613  157.9552 N   0  0  0  0  0  0  0  0  0  0  0  0
  151.7521  139.8982  158.3489 N   0  0  0  0  0  0  0  0  0  0  0  0
  152.6588  139.7938  159.3232 C   0  0  0  0  0  0  0  0  0  0  0  0
  153.3368  140.9830  159.9168 C   0  0  0  0  0  0  0  0  0  0  0  0
  152.5791  141.9413  160.8067 C   0  0  0  0  0  0  0  0  0  0  0  0
  153.0327  142.3865  159.4399 C   0  0  0  0  0  0  0  0  0  0  0  0
  152.9796  138.1483  159.8459 S   0  0  0  0  0  0  0  0  0  0  0  0
  150.7947  134.7712  156.9563 N   0  0  0  0  0  0  0  0  0  0  0  0
  150.7069  133.9911  155.7230 C   0  0  1  0  0  0  0  0  0  0  0  0
  150.9671  132.5038  156.0544 C   0  0  0  0  0  0  0  0  0  0  0  0
  150.7216  131.5837  154.8503 C   0  0  0  0  0  0  0  0  0  0  0  0
  149.3019  131.7691  154.2999 C   0  0  0  0  0  0  0  0  0  0  0  0
  149.0617  133.2336  153.9114 C   0  0  0  0  0  0  0  0  0  0  0  0
  149.3065  134.1872  155.0966 C   0  0  2  0  0  0  0  0  0  0  0  0
  149.1881  135.5085  154.6077 O   0  0  0  0  0  0  0  0  0  0  0  0
  154.3660  140.7471  160.1794 H   0  0  0  0  0  0  0  0  0  0  0  0
  151.5147  141.7647  160.9492 H   0  0  0  0  0  0  0  0  0  0  0  0
  153.1044  142.3466  161.6689 H   0  0  0  0  0  0  0  0  0  0  0  0
  153.8616  143.0892  159.3893 H   0  0  0  0  0  0  0  0  0  0  0  0
  152.2646  142.5174  158.6804 H   0  0  0  0  0  0  0  0  0  0  0  0
  150.2153  134.4699  157.7259 H   0  0  0  0  0  0  0  0  0  0  0  0
  151.4612  134.3307  155.0100 H   0  0  0  0  0  0  0  0  0  0  0  0
  151.9900  132.3721  156.4093 H   0  0  0  0  0  0  0  0  0  0  0  0
  150.3178  132.1928  156.8741 H   0  0  0  0  0  0  0  0  0  0  0  0
  151.4517  131.7995  154.0690 H   0  0  0  0  0  0  0  0  0  0  0  0
  150.8757  130.5442  155.1405 H   0  0  0  0  0  0  0  0  0  0  0  0
  149.1509  131.1245  153.4337 H   0  0  0  0  0  0  0  0  0  0  0  0
  148.5712  131.4608  155.0486 H   0  0  0  0  0  0  0  0  0  0  0  0
  149.7248  133.4950  153.0848 H   0  0  0  0  0  0  0  0  0  0  0  0
  148.0437  133.3537  153.5386 H   0  0  0  0  0  0  0  0  0  0  0  0
  148.5365  134.0234  155.8523 H   0  0  0  0  0  0  0  0  0  0  0  0
  148.9992  135.4668  153.6822 H   0  0  0  0  0  0  0  0  0  0  0  0
  1  2  2  0  0  0  0
  2  3  1  0  0  0  0
  2 12  1  0  0  0  0
  3  4  1  0  0  0  0
  4 11  1  0  0  0  0
  4  5  2  0  0  0  0
  5  6  1  0  0  0  0
  6  7  2  0  0  0  0
  7  8  1  0  0  0  0
  7 11  1  0  0  0  0
  8 10  1  0  0  0  0
  8  9  1  0  0  0  0
  8 20  1  0  0  0  0
  9 10  1  0  0  0  0
  9 21  1  0  0  0  0
  9 22  1  0  0  0  0
 10 23  1  0  0  0  0
 10 24  1  0  0  0  0
 12 13  1  0  0  0  0
 12 25  1  0  0  0  0
 13 18  1  0  0  0  0
 13 14  1  0  0  0  0
 13 26  1  0  0  0  0
 14 15  1  0  0  0  0
 14 27  1  0  0  0  0
 14 28  1  0  0  0  0
 15 16  1  0  0  0  0
 15 29  1  0  0  0  0
 15 30  1  0  0  0  0
 16 17  1  0  0  0  0
 16 31  1  0  0  0  0
 16 32  1  0  0  0  0
 17 18  1  0  0  0  0
 17 33  1  0  0  0  0
 17 34  1  0  0  0  0
 18 19  1  0  0  0  0
 18 35  1  0  0  0  0
 19 36  1  0  0  0  0
M  CHG  1   3  -1
M  END
> <s_m_source_file>
AV-unprocessed.smi

> <i_m_source_file_index>
1843

> <i_lp_mmshare_version>
43012

> <i_f3d_flags>
0

> <s_epik_input>
W09IXVtDQEBIXTFbQ0gyXVtDSDJdW0NIMl1bQ0gyXVtDQEhdMVtOSF1DKD1PKVtOSF1jMm5uYyhzMilbQ0hdM1tDSDJdW0NIMl0z

> <s_epik_cmdline>
J2VwaWtfcHl0aG9uJywgJy1waCcsICc3LjAnLCAnLXRuJywgJzgnLCAnLW1hJywgJzIwMCcsICctbWV0YWxfYmluZGluZycsICctaW1hZScsICc8aW5maWxlLm1hZT4nLCAnLW9tYWUnLCAnPG91dGZpbGUubWFlPic=

> <r_lp_tautomer_probability>
1

> <r_epik_Ionization_Penalty>
4.7996

> <r_epik_Ionization_Penalty_Charging>
4.64516

> <r_epik_Ionization_Penalty_Neutral>
0.154442

> <r_epik_State_Penalty>
4.64493

> <r_epik_Charging_Adjusted_Penalty>
9.29009

> <i_epik_Tot_Q>
-1

> <i_epik_Tot_abs_Q>
1

> <r_epik_Metal_State_Penalty>
0.896144

> <b_epik_Metal_Only>
1

> <s_lp_Force_Field>
OPLS_2005

> <r_lp_Energy>
6.73246

> <b_lp_Chiralities_Consistent>
1

> <s_lp_Variant>
AV-unprocessed.smi:1843-8

> <Gold.Version>
5.8.1

> <Gold.Id.Protein>
6NUR|6NUR_protein|mol2

> <Gold.PLP.Fitness>
40.7019

> <Gold.PLP.PLP>
-31.7911

> <Gold.PLP.part.hbond>
-3.0000

> <Gold.PLP.part.metal>
0.0000

> <Gold.PLP.part.buried>
-3.8522

> <Gold.PLP.part.nonpolar>
-25.8782

> <Gold.PLP.part.repulsive>
0.1335

> <Gold.PLP.ligand.clash>
0.0000

> <Gold.PLP.ligand.torsion>
0.7758

> <Gold.PLP.Chemscore.Hbond>
3.4400

> <Gold.PLP.Chemscore.CHOScore>
0.0000

> <Gold.PLP.Chemscore.Metal>
0.0000

> <Gold.Chemscore.Hbonds>
donor molecule, donor type, donor heavy atom, donor atom, acceptor molecule, acceptor atom, score
      L1  H    19    36       P1  7948  1.00
      P1  H  6896  6907       L1     3  1.18
      P1  H 10752 10765       L1     1  1.00

> <Gold.PLP.Chemscore.Internal.Correction>
0.1425

> <Gold.Rescore>
     Score         DG    S(hbond)    S(metal)    S(lipo)     H(rot)  DE(clash)    DE(int)     intcor
     17.64     -18.40       2.58        0.00      74.41       1.72       0.02       0.74       ----

> <Gold.Chemscore.Fitness>
17.6354

> <Gold.Chemscore.DG>
-18.3980

> <Gold.Chemscore.ZeroCoef>
-5.4800

> <Gold.Chemscore.Hbond>
2.5764

> <Gold.Chemscore.Metal>
0.0000

> <Gold.Chemscore.Lipo>
74.4075

> <Gold.Chemscore.Internal_Hbond>
0.0000

> <Gold.Chemscore.DEClash>
0.0233

> <Gold.Chemscore.DEInternal>
0.7393

> <Gold.Chemscore.Rot>
1.7160

> <Gold.Chemscore.Internal.Correction>
   9.000000E+99

> <Gold.Chemscore.Hbonds>
donor molecule, donor type, donor heavy atom, donor atom, acceptor molecule, acceptor atom, score
      L1  H    19    36       P1  7948  0.71
      P1  H  6896  6907       L1     3  0.53
      P1  H 10752 10765       L1     1  0.99

> <Gold.Chemscore.Hbond.Weighted>
-8.6053

> <Gold.Chemscore.Metal.Weighted>
-0.0000

> <Gold.Chemscore.Lipo.Weighted>
-8.7057

> <Gold.Chemscore.Internal_Hbond.Weighted>
0.0000

> <Gold.Chemscore.DEClash.Weighted>
0.0233

> <Gold.Chemscore.DEInternal.Weighted>
0.7393

> <Gold.Chemscore.Rot.Weighted>
4.3930

> <Gold.Chemscore.Internal.Correction.Weighted>
   9.000000E+99

> <Gold.Protein.RotatedTorsions>
[ 6907 6896 6895 6894 ] final  -22.10 input  -60.11 | X-H torsion
[ 7974 7965 7964 7962 ] final   79.37 input  175.53 | X-H torsion
[ 8008 7997 7996 7995 ] final  -71.69 input   59.86 | X-H torsion
[ 10167 10162 10161 10158 ] final   22.00 input  -65.29 | X-H torsion
[ 10718 10713 10712 10709 ] final   83.04 input   66.30 | X-H torsion
[ 10763 10752 10751 10750 ] final -155.74 input  -60.55 | X-H torsion
[ 11005 11000 10999 10996 ] final   19.59 input  -57.11 | X-H torsion

> <Gold.Protein.ActiveResidues>
 VAL166  LYS551  ARG553  GLY616  TRP617  ASP618  TYR619  PRO620  LYS621  CYS622 
 ASP623  PHE694  ASN695  SER759  ASP760  ASP761  ALA762  ILE779  LEU786  VAL792 
 PHE793  MET794  SER795  GLU796  ALA797  LYS798  CYS799  TRP800  GLU811  SER814 

> <Gold.Protein.RotatedAtoms>
  151.2235  135.0528  159.8959 H   0  0  0  0  0  0  0  0  0  0  0  0  # atno 6907 bound_to 6896
  152.5413  134.0614  159.8164 H   0  0  0  0  0  0  0  0  0  0  0  0  # atno 6908 bound_to 6896
  151.0784  133.5362  159.2654 H   0  0  0  0  0  0  0  0  0  0  0  0  # atno 6909 bound_to 6896
  145.6651  139.2481  143.1900 H   0  0  0  0  0  0  0  0  0  0  0  0  # atno 7974 bound_to 7965
  154.5107  140.0811  156.7985 H   0  0  0  0  0  0  0  0  0  0  0  0  # atno 8008 bound_to 7997
  155.3790  140.3427  155.4228 H   0  0  0  0  0  0  0  0  0  0  0  0  # atno 8009 bound_to 7997
  156.1570  140.1576  156.8663 H   0  0  0  0  0  0  0  0  0  0  0  0  # atno 8010 bound_to 7997
  140.5383  143.9722  150.6504 H   0  0  0  0  0  0  0  0  0  0  0  0  # atno 10167 bound_to 10162
  157.6870  131.0074  150.2465 H   0  0  0  0  0  0  0  0  0  0  0  0  # atno 10718 bound_to 10713
  154.7765  135.3161  154.8081 H   0  0  0  0  0  0  0  0  0  0  0  0  # atno 10763 bound_to 10752
  153.8803  135.6835  153.4772 H   0  0  0  0  0  0  0  0  0  0  0  0  # atno 10764 bound_to 10752
  153.1390  135.4747  154.9403 H   0  0  0  0  0  0  0  0  0  0  0  0  # atno 10765 bound_to 10752
  140.4120  134.1608  155.7668 H   0  0  0  0  0  0  0  0  0  0  0  0  # atno 11005 bound_to 11000
  146.1092  140.7449  142.9511 LP  0  0  0  0  0  0  0  0  0  0  0  0  # atno 17320 bound_to 7965
  144.7076  140.3912  143.7106 LP  0  0  0  0  0  0  0  0  0  0  0  0  # atno 17321 bound_to 7965
  140.3115  143.3195  152.0874 LP  0  0  0  0  0  0  0  0  0  0  0  0  # atno 17342 bound_to 10162
  139.4979  144.6633  151.6415 LP  0  0  0  0  0  0  0  0  0  0  0  0  # atno 17343 bound_to 10162
  156.3069  130.3766  149.7697 LP  0  0  0  0  0  0  0  0  0  0  0  0  # atno 17370 bound_to 10713
  156.5310  130.8257  151.3237 LP  0  0  0  0  0  0  0  0  0  0  0  0  # atno 17371 bound_to 10713
  141.1817  133.8399  157.1233 LP  0  0  0  0  0  0  0  0  0  0  0  0  # atno 17394 bound_to 11000
  140.0261  134.9923  157.0688 LP  0  0  0  0  0  0  0  0  0  0  0  0  # atno 17395 bound_to 11000

$$$$
