AV-unprocessed.smi:1268|AV-procd|sdf|5326|dock4
  -GOLD-   22720 4453D 1   1.00000     0.00000
 Structure written by MMmdl.
 39 40  0  0  0  0  0  0  0  0  3 V2000
  147.2225  141.4322  153.7079 O   0  0  0  0  0  0  0  0  0  0  0  0
  148.3583  141.2032  153.2843 C   0  0  0  0  0  0  0  0  0  0  0  0
  148.5277  140.3806  152.2391 N   0  0  0  0  0  0  0  0  0  0  0  0
  147.4623  139.7008  151.5092 C   0  0  0  0  0  0  0  0  0  0  0  0
  146.7609  138.6360  152.3777 C   0  0  1  0  0  0  0  0  0  0  0  0
  145.8015  139.2885  153.1861 O   0  0  0  0  0  0  0  0  0  0  0  0
  146.0160  137.6012  151.5120 C   0  0  0  0  0  0  0  0  0  0  0  0
  146.1664  136.2166  152.0282 N   0  3  0  0  0  0  0  0  0  0  0  0
  145.6574  135.1805  151.0890 C   0  0  0  0  0  0  0  0  0  0  0  0
  145.9598  133.7649  151.6088 C   0  0  0  0  0  0  0  0  0  0  0  0
  145.3776  133.5586  153.0130 C   0  0  0  0  0  0  0  0  0  0  0  0
  145.8845  134.6573  153.9563 C   0  0  0  0  0  0  0  0  0  0  0  0
  145.5869  136.0548  153.3869 C   0  0  0  0  0  0  0  0  0  0  0  0
  149.5128  141.7145  153.7665 N   0  5  0  0  0  0  0  0  0  0  0  0
  150.0477  141.2190  154.8944 C   0  0  0  0  0  0  0  0  0  0  0  0
  150.8272  140.1319  154.9156 N   0  0  0  0  0  0  0  0  0  0  0  0
  151.2788  139.7972  156.1936 C   0  0  0  0  0  0  0  0  0  0  0  0
  150.8385  140.6539  157.1673 C   0  0  0  0  0  0  0  0  0  0  0  0
  149.8387  141.9148  156.5040 S   0  0  0  0  0  0  0  0  0  0  0  0
  149.4741  140.2155  151.9285 H   0  0  0  0  0  0  0  0  0  0  0  0
  146.7493  140.4372  151.1363 H   0  0  0  0  0  0  0  0  0  0  0  0
  147.9019  139.2365  150.6246 H   0  0  0  0  0  0  0  0  0  0  0  0
  147.4869  138.1381  153.0194 H   0  0  0  0  0  0  0  0  0  0  0  0
  145.0854  139.5631  152.6326 H   0  0  0  0  0  0  0  0  0  0  0  0
  144.9602  137.8756  151.4762 H   0  0  0  0  0  0  0  0  0  0  0  0
  146.3716  137.6355  150.4809 H   0  0  0  0  0  0  0  0  0  0  0  0
  144.5820  135.3071  150.9547 H   0  0  0  0  0  0  0  0  0  0  0  0
  146.1114  135.2987  150.1059 H   0  0  0  0  0  0  0  0  0  0  0  0
  145.5525  133.0208  150.9237 H   0  0  0  0  0  0  0  0  0  0  0  0
  147.0390  133.6066  151.6316 H   0  0  0  0  0  0  0  0  0  0  0  0
  144.2879  133.5834  152.9688 H   0  0  0  0  0  0  0  0  0  0  0  0
  145.6535  132.5755  153.3956 H   0  0  0  0  0  0  0  0  0  0  0  0
  145.4221  134.5477  154.9377 H   0  0  0  0  0  0  0  0  0  0  0  0
  146.9592  134.5444  154.1062 H   0  0  0  0  0  0  0  0  0  0  0  0
  146.0038  136.8074  154.0575 H   0  0  0  0  0  0  0  0  0  0  0  0
  144.5099  136.2258  153.3473 H   0  0  0  0  0  0  0  0  0  0  0  0
  151.9126  138.9318  156.3179 H   0  0  0  0  0  0  0  0  0  0  0  0
  151.0403  140.6221  158.2271 H   0  0  0  0  0  0  0  0  0  0  0  0
  147.1604  136.0644  152.1266 H   0  0  0  0  0  0  0  0  0  0  0  0
  1  2  2  0  0  0  0
  2  3  1  0  0  0  0
  2 14  1  0  0  0  0
  3  4  1  0  0  0  0
  3 20  1  0  0  0  0
  4  5  1  0  0  0  0
  4 21  1  0  0  0  0
  4 22  1  0  0  0  0
  5  6  1  0  0  0  0
  5  7  1  0  0  0  0
  5 23  1  0  0  0  0
  6 24  1  0  0  0  0
  7  8  1  0  0  0  0
  7 25  1  0  0  0  0
  7 26  1  0  0  0  0
  8 13  1  0  0  0  0
  8  9  1  0  0  0  0
  8 39  1  0  0  0  0
  9 10  1  0  0  0  0
  9 27  1  0  0  0  0
  9 28  1  0  0  0  0
 10 11  1  0  0  0  0
 10 29  1  0  0  0  0
 10 30  1  0  0  0  0
 11 12  1  0  0  0  0
 11 31  1  0  0  0  0
 11 32  1  0  0  0  0
 12 13  1  0  0  0  0
 12 33  1  0  0  0  0
 12 34  1  0  0  0  0
 13 35  1  0  0  0  0
 13 36  1  0  0  0  0
 14 15  1  0  0  0  0
 15 19  1  0  0  0  0
 15 16  2  0  0  0  0
 16 17  1  0  0  0  0
 17 18  2  0  0  0  0
 17 37  1  0  0  0  0
 18 19  1  0  0  0  0
 18 38  1  0  0  0  0
M  CHG  1   8   1
M  CHG  1  14  -1
M  END
> <s_m_source_file>
AV-unprocessed.smi

> <i_m_source_file_index>
1268

> <i_lp_mmshare_version>
43012

> <i_f3d_flags>
0

> <s_epik_input>
czFbY0hdW2NIXW5jMVtOSF1DKD1PKVtOSF1bQ0gyXVtDQEhdKFtPSF0pW0NIMl1OMltDSDJdW0NIMl1bQ0gyXVtDSDJdW0NIMl0y

> <s_epik_cmdline>
J2VwaWtfcHl0aG9uJywgJy1waCcsICc3LjAnLCAnLXRuJywgJzgnLCAnLW1hJywgJzIwMCcsICctbWV0YWxfYmluZGluZycsICctaW1hZScsICc8aW5maWxlLm1hZT4nLCAnLW9tYWUnLCAnPG91dGZpbGUubWFlPic=

> <r_lp_tautomer_probability>
0.999

> <r_epik_Ionization_Penalty>
6.36291

> <r_epik_Ionization_Penalty_Charging>
5.4816

> <r_epik_Ionization_Penalty_Neutral>
0.881305

> <r_epik_State_Penalty>
5.4805

> <r_epik_Charging_Adjusted_Penalty>
10.9621

> <i_epik_Tot_Q>
0

> <i_epik_Tot_abs_Q>
2

> <r_epik_Metal_State_Penalty>
1.48871

> <b_epik_Metal_Only>
1

> <s_lp_Force_Field>
OPLS_2005

> <r_lp_Energy>
8.43067

> <b_lp_Chiralities_Consistent>
1

> <s_lp_Variant>
AV-unprocessed.smi:1268-4

> <Gold.Version>
5.8.1

> <Gold.Id.Protein>
6NUR|6NUR_protein|mol2

> <Gold.PLP.Fitness>
41.9686

> <Gold.PLP.PLP>
-31.6528

> <Gold.PLP.part.hbond>
-4.1424

> <Gold.PLP.part.metal>
0.0000

> <Gold.PLP.part.buried>
1.5177

> <Gold.PLP.part.nonpolar>
-29.0699

> <Gold.PLP.part.repulsive>
0.6025

> <Gold.PLP.ligand.clash>
0.0000

> <Gold.PLP.ligand.torsion>
2.3004

> <Gold.PLP.Chemscore.Hbond>
4.9414

> <Gold.PLP.Chemscore.CHOScore>
0.0000

> <Gold.PLP.Chemscore.Metal>
0.0000

> <Gold.Chemscore.Hbonds>
donor molecule, donor type, donor heavy atom, donor atom, acceptor molecule, acceptor atom, score
      L1  H     6    24       P1 10175  0.98
      L1  H     8    39       P1  7948  2.00
      P1  H  7989  7998       L1    16  0.25
      P1  H  8011  8017       L1    14  0.31

> <Gold.PLP.Chemscore.Internal.Correction>
0.0924

> <Gold.Rescore>
     Score         DG    S(hbond)    S(metal)    S(lipo)     H(rot)  DE(clash)    DE(int)     intcor
     13.74     -18.25       3.55        0.00      62.18       2.48       2.30       2.21       ----

> <Gold.Chemscore.Fitness>
13.7427

> <Gold.Chemscore.DG>
-18.2488

> <Gold.Chemscore.ZeroCoef>
-5.4800

> <Gold.Chemscore.Hbond>
3.5484

> <Gold.Chemscore.Metal>
0.0000

> <Gold.Chemscore.Lipo>
62.1758

> <Gold.Chemscore.Internal_Hbond>
0.0000

> <Gold.Chemscore.DEClash>
2.3009

> <Gold.Chemscore.DEInternal>
2.2053

> <Gold.Chemscore.Rot>
2.4834

> <Gold.Chemscore.Internal.Correction>
   9.000000E+99

> <Gold.Chemscore.Hbonds>
donor molecule, donor type, donor heavy atom, donor atom, acceptor molecule, acceptor atom, score
      L1  H     6    24       P1 10175  0.93
      L1  H     8    39       P1  7948  1.00
      P1  H  8011  8017       L1    14  0.01

> <Gold.Chemscore.Hbond.Weighted>
-11.8517

> <Gold.Chemscore.Metal.Weighted>
-0.0000

> <Gold.Chemscore.Lipo.Weighted>
-7.2746

> <Gold.Chemscore.Internal_Hbond.Weighted>
0.0000

> <Gold.Chemscore.DEClash.Weighted>
2.3009

> <Gold.Chemscore.DEInternal.Weighted>
2.2053

> <Gold.Chemscore.Rot.Weighted>
6.3575

> <Gold.Chemscore.Internal.Correction.Weighted>
   9.000000E+99

> <Gold.Protein.RotatedTorsions>
[ 6907 6896 6895 6894 ] final   -1.01 input  -60.11 | X-H torsion
[ 7974 7965 7964 7962 ] final  -26.15 input  175.53 | X-H torsion
[ 8008 7997 7996 7995 ] final   36.24 input   59.86 | X-H torsion
[ 10167 10162 10161 10158 ] final   91.64 input  -65.29 | X-H torsion
[ 10718 10713 10712 10709 ] final  107.77 input   66.30 | X-H torsion
[ 10763 10752 10751 10750 ] final  -49.90 input  -60.55 | X-H torsion
[ 11005 11000 10999 10996 ] final  165.82 input  -57.11 | X-H torsion

> <Gold.Protein.ActiveResidues>
 VAL166  LYS551  ARG553  GLY616  TRP617  ASP618  TYR619  PRO620  LYS621  CYS622 
 ASP623  PHE694  ASN695  SER759  ASP760  ASP761  ALA762  ILE779  LEU786  VAL792 
 PHE793  MET794  SER795  GLU796  ALA797  LYS798  CYS799  TRP800  GLU811  SER814 

> <Gold.Protein.RotatedAtoms>
  151.5529  135.1067  159.9953 H   0  0  0  0  0  0  0  0  0  0  0  0  # atno 6907 bound_to 6896
  152.4483  133.7575  159.6738 H   0  0  0  0  0  0  0  0  0  0  0  0  # atno 6908 bound_to 6896
  150.8404  133.7878  159.3087 H   0  0  0  0  0  0  0  0  0  0  0  0  # atno 6909 bound_to 6896
  146.1444  140.4982  142.8638 H   0  0  0  0  0  0  0  0  0  0  0  0  # atno 7974 bound_to 7965
  155.1842  140.3302  155.4370 H   0  0  0  0  0  0  0  0  0  0  0  0  # atno 8008 bound_to 7997
  156.2466  140.1921  156.6889 H   0  0  0  0  0  0  0  0  0  0  0  0  # atno 8009 bound_to 7997
  154.6250  140.0590  156.9648 H   0  0  0  0  0  0  0  0  0  0  0  0  # atno 8010 bound_to 7997
  139.8355  144.6666  150.9347 H   0  0  0  0  0  0  0  0  0  0  0  0  # atno 10167 bound_to 10162
  157.6614  131.0880  150.6206 H   0  0  0  0  0  0  0  0  0  0  0  0  # atno 10718 bound_to 10713
  154.1017  135.6562  153.4869 H   0  0  0  0  0  0  0  0  0  0  0  0  # atno 10763 bound_to 10752
  153.0286  135.5226  154.7280 H   0  0  0  0  0  0  0  0  0  0  0  0  # atno 10764 bound_to 10752
  154.6434  135.2991  155.0045 H   0  0  0  0  0  0  0  0  0  0  0  0  # atno 10765 bound_to 10752
  140.2601  134.7909  157.3581 H   0  0  0  0  0  0  0  0  0  0  0  0  # atno 11005 bound_to 11000
  144.7829  140.5878  143.6593 LP  0  0  0  0  0  0  0  0  0  0  0  0  # atno 17320 bound_to 7965
  145.4972  139.1485  143.3677 LP  0  0  0  0  0  0  0  0  0  0  0  0  # atno 17321 bound_to 7965
  140.7803  143.3961  151.1227 LP  0  0  0  0  0  0  0  0  0  0  0  0  # atno 17342 bound_to 10162
  139.7611  143.8633  152.3100 LP  0  0  0  0  0  0  0  0  0  0  0  0  # atno 17343 bound_to 10162
  156.6509  130.4485  149.5720 LP  0  0  0  0  0  0  0  0  0  0  0  0  # atno 17370 bound_to 10713
  156.2138  130.6695  151.1297 LP  0  0  0  0  0  0  0  0  0  0  0  0  # atno 17371 bound_to 10713
  140.1473  134.4894  155.7986 LP  0  0  0  0  0  0  0  0  0  0  0  0  # atno 17394 bound_to 11000
  141.2191  133.6848  156.7317 LP  0  0  0  0  0  0  0  0  0  0  0  0  # atno 17395 bound_to 11000

$$$$
