AV-unprocessed.smi:1165|AV-procd|sdf|4928|dock6
  -GOLD-   22720 3513D 1   1.00000     0.00000
 Structure written by MMmdl.
 41 42  0  0  0  0  0  0  0  0  1 V2000
  150.3183  134.3337  154.9837 C   0  0  0  0  0  0  0  0  0  0  0  0
  149.8497  135.7894  155.0796 C   0  0  2  0  0  0  0  0  0  0  0  0
  150.9792  136.7276  155.5382 C   0  0  0  0  0  0  0  0  0  0  0  0
  150.4674  138.0906  155.7473 N   0  0  0  0  0  0  0  0  0  0  0  0
  151.6136  139.3847  155.8505 S   0  0  0  0  0  0  0  0  0  0  0  0
  152.9640  138.8346  155.6568 O   0  0  0  0  0  0  0  0  0  0  0  0
  151.1191  140.5049  155.0360 O   0  0  0  0  0  0  0  0  0  0  0  0
  151.4331  139.7935  157.5174 N   0  0  0  0  0  0  0  0  0  0  0  0
  152.2436  140.8683  158.0887 C   0  0  0  0  0  0  0  0  0  0  0  0
  151.8159  142.2224  157.5110 C   0  0  0  0  0  0  0  0  0  0  0  0
  151.8189  143.3127  158.5638 C   0  0  0  0  0  0  0  0  0  0  0  0
  152.2417  143.0463  159.8824 C   0  0  0  0  0  0  0  0  0  0  0  0
  152.2191  144.0917  160.8256 C   0  0  0  0  0  0  0  0  0  0  0  0
  151.7723  145.3618  160.4091 C   0  0  0  0  0  0  0  0  0  0  0  0
  151.3641  145.6280  159.1496 N   0  0  0  0  0  0  0  0  0  0  0  0
  151.3895  144.6202  158.2510 C   0  0  0  0  0  0  0  0  0  0  0  0
  149.3021  138.1386  156.6421 C   0  0  0  0  0  0  0  0  0  0  0  0
  148.2143  137.1422  156.1964 C   0  0  1  0  0  0  0  0  0  0  0  0
  147.4204  137.6203  154.9669 C   0  0  0  0  0  0  0  0  0  0  0  0
  148.7703  135.8429  156.0060 O   0  0  0  0  0  0  0  0  0  0  0  0
  151.1406  134.2311  154.2751 H   0  0  0  0  0  0  0  0  0  0  0  0
  149.5081  133.6858  154.6485 H   0  0  0  0  0  0  0  0  0  0  0  0
  150.6611  133.9647  155.9507 H   0  0  0  0  0  0  0  0  0  0  0  0
  149.5037  136.0941  154.0916 H   0  0  0  0  0  0  0  0  0  0  0  0
  151.4185  136.3704  156.4706 H   0  0  0  0  0  0  0  0  0  0  0  0
  151.7759  136.7355  154.7947 H   0  0  0  0  0  0  0  0  0  0  0  0
  151.3393  138.9760  158.1196 H   0  0  0  0  0  0  0  0  0  0  0  0
  152.1264  140.8704  159.1728 H   0  0  0  0  0  0  0  0  0  0  0  0
  153.2958  140.6755  157.8764 H   0  0  0  0  0  0  0  0  0  0  0  0
  152.4810  142.5099  156.6953 H   0  0  0  0  0  0  0  0  0  0  0  0
  150.8152  142.1489  157.0829 H   0  0  0  0  0  0  0  0  0  0  0  0
  152.5753  142.0594  160.1681 H   0  0  0  0  0  0  0  0  0  0  0  0
  152.5355  143.9242  161.8446 H   0  0  0  0  0  0  0  0  0  0  0  0
  151.7417  146.1859  161.1065 H   0  0  0  0  0  0  0  0  0  0  0  0
  151.0539  144.8637  157.2536 H   0  0  0  0  0  0  0  0  0  0  0  0
  149.6334  137.9008  157.6536 H   0  0  0  0  0  0  0  0  0  0  0  0
  148.8937  139.1488  156.6737 H   0  0  0  0  0  0  0  0  0  0  0  0
  147.4990  137.0465  157.0137 H   0  0  0  0  0  0  0  0  0  0  0  0
  146.8830  138.5422  155.1895 H   0  0  0  0  0  0  0  0  0  0  0  0
  146.6844  136.8749  154.6648 H   0  0  0  0  0  0  0  0  0  0  0  0
  148.0645  137.8228  154.1115 H   0  0  0  0  0  0  0  0  0  0  0  0
  1  2  1  0  0  0  0
  1 21  1  0  0  0  0
  1 22  1  0  0  0  0
  1 23  1  0  0  0  0
  2 20  1  0  0  0  0
  2  3  1  0  0  0  0
  2 24  1  0  0  0  0
  3  4  1  0  0  0  0
  3 25  1  0  0  0  0
  3 26  1  0  0  0  0
  4  5  1  0  0  0  0
  4 17  1  0  0  0  0
  5  6  2  0  0  0  0
  5  7  2  0  0  0  0
  5  8  1  0  0  0  0
  8  9  1  0  0  0  0
  8 27  1  0  0  0  0
  9 10  1  0  0  0  0
  9 28  1  0  0  0  0
  9 29  1  0  0  0  0
 10 11  1  0  0  0  0
 10 30  1  0  0  0  0
 10 31  1  0  0  0  0
 11 16  1  0  0  0  0
 11 12  2  0  0  0  0
 12 13  1  0  0  0  0
 12 32  1  0  0  0  0
 13 14  2  0  0  0  0
 13 33  1  0  0  0  0
 14 15  1  0  0  0  0
 14 34  1  0  0  0  0
 15 16  2  0  0  0  0
 16 35  1  0  0  0  0
 17 18  1  0  0  0  0
 17 36  1  0  0  0  0
 17 37  1  0  0  0  0
 18 19  1  0  0  0  0
 18 20  1  0  0  0  0
 18 38  1  0  0  0  0
 19 39  1  0  0  0  0
 19 40  1  0  0  0  0
 19 41  1  0  0  0  0
M  END
> <s_m_source_file>
AV-unprocessed.smi

> <i_m_source_file_index>
1165

> <i_lp_mmshare_version>
43012

> <i_f3d_flags>
0

> <s_epik_input>
W0NIM11bQ0BASF0xW0NIMl1OKFtDSDJdW0NASF0oTzEpW0NIM10pUyg9TykoPU8pW05IXVtDSDJdW0NIMl1jMltjSF1bY0hdW2NIXW5bY0hdMg==

> <s_epik_cmdline>
J2VwaWtfcHl0aG9uJywgJy1waCcsICc3LjAnLCAnLXRuJywgJzgnLCAnLW1hJywgJzIwMCcsICctbWV0YWxfYmluZGluZycsICctaW1hZScsICc8aW5maWxlLm1hZT4nLCAnLW9tYWUnLCAnPG91dGZpbGUubWFlPic=

> <r_epik_Ionization_Penalty>
0.0861056

> <r_epik_Ionization_Penalty_Charging>
0

> <r_epik_Ionization_Penalty_Neutral>
0.0861056

> <r_epik_State_Penalty>
0.0574425

> <r_epik_Charging_Adjusted_Penalty>
0.0574425

> <i_epik_Tot_Q>
0

> <i_epik_Tot_abs_Q>
0

> <r_epik_Metal_State_Penalty>
0.317425

> <b_epik_Metal_Only>
0

> <s_lp_Force_Field>
OPLS_2005

> <r_lp_Energy>
8.25328

> <b_lp_Chiralities_Consistent>
1

> <s_lp_Variant>
AV-unprocessed.smi:1165-1

> <Gold.Version>
5.8.1

> <Gold.Id.Protein>
6NUR|6NUR_protein|mol2

> <Gold.PLP.Fitness>
40.4644

> <Gold.PLP.PLP>
-32.6232

> <Gold.PLP.part.hbond>
-3.0000

> <Gold.PLP.part.metal>
0.0000

> <Gold.PLP.part.buried>
-4.6954

> <Gold.PLP.part.nonpolar>
-24.1728

> <Gold.PLP.part.repulsive>
0.2915

> <Gold.PLP.ligand.clash>
0.0000

> <Gold.PLP.ligand.torsion>
1.0012

> <Gold.PLP.Chemscore.Hbond>
2.0000

> <Gold.PLP.Chemscore.CHOScore>
1.0000

> <Gold.PLP.Chemscore.Metal>
0.0000

> <Gold.Chemscore.Hbonds>
donor molecule, donor type, donor heavy atom, donor atom, acceptor molecule, acceptor atom, score
      P1  H  7989  7998       L1     7  0.99
      P1  H  7997  8009       L1     6  1.00
      L1  C    16    35       P1  8028  0.70

> <Gold.PLP.Chemscore.Internal.Correction>
0.8436

> <Gold.Rescore>
     Score         DG    S(hbond)    S(metal)    S(lipo)     H(rot)  DE(clash)    DE(int)     intcor
     16.51     -17.91       1.77        0.00      93.19       1.71       0.37       1.02       ----

> <Gold.Chemscore.Fitness>
16.5143

> <Gold.Chemscore.DG>
-17.9128

> <Gold.Chemscore.ZeroCoef>
-5.4800

> <Gold.Chemscore.Hbond>
1.7657

> <Gold.Chemscore.Metal>
0.0000

> <Gold.Chemscore.Lipo>
93.1862

> <Gold.Chemscore.Internal_Hbond>
0.0000

> <Gold.Chemscore.DEClash>
0.3737

> <Gold.Chemscore.DEInternal>
1.0248

> <Gold.Chemscore.Rot>
1.7060

> <Gold.Chemscore.Internal.Correction>
   9.000000E+99

> <Gold.Chemscore.Hbonds>
donor molecule, donor type, donor heavy atom, donor atom, acceptor molecule, acceptor atom, score
      P1  H  7989  7998       L1     7  0.94
      P1  H  7997  8009       L1     6  0.73

> <Gold.Chemscore.Hbond.Weighted>
-5.8974

> <Gold.Chemscore.Metal.Weighted>
-0.0000

> <Gold.Chemscore.Lipo.Weighted>
-10.9028

> <Gold.Chemscore.Internal_Hbond.Weighted>
0.0000

> <Gold.Chemscore.DEClash.Weighted>
0.3737

> <Gold.Chemscore.DEInternal.Weighted>
1.0248

> <Gold.Chemscore.Rot.Weighted>
4.3674

> <Gold.Chemscore.Internal.Correction.Weighted>
   9.000000E+99

> <Gold.Protein.RotatedTorsions>
[ 6907 6896 6895 6894 ] final -154.29 input  -60.11 | X-H torsion
[ 7974 7965 7964 7962 ] final  -86.25 input  175.53 | X-H torsion
[ 8008 7997 7996 7995 ] final -165.27 input   59.86 | X-H torsion
[ 10167 10162 10161 10158 ] final  -36.75 input  -65.29 | X-H torsion
[ 10718 10713 10712 10709 ] final   82.74 input   66.30 | X-H torsion
[ 10763 10752 10751 10750 ] final -113.55 input  -60.55 | X-H torsion
[ 11005 11000 10999 10996 ] final  127.16 input  -57.11 | X-H torsion

> <Gold.Protein.ActiveResidues>
 VAL166  LYS551  ARG553  GLY616  TRP617  ASP618  TYR619  PRO620  LYS621  CYS622 
 ASP623  PHE694  ASN695  SER759  ASP760  ASP761  ALA762  ILE779  LEU786  VAL792 
 PHE793  MET794  SER795  GLU796  ALA797  LYS798  CYS799  TRP800  GLU811  SER814 

> <Gold.Protein.RotatedAtoms>
  151.2553  133.4329  159.2613 H   0  0  0  0  0  0  0  0  0  0  0  0  # atno 6907 bound_to 6896
  151.0580  134.9718  159.8256 H   0  0  0  0  0  0  0  0  0  0  0  0  # atno 6908 bound_to 6896
  152.5393  134.2504  159.8949 H   0  0  0  0  0  0  0  0  0  0  0  0  # atno 6909 bound_to 6896
  145.4823  140.9556  143.1857 H   0  0  0  0  0  0  0  0  0  0  0  0  # atno 7974 bound_to 7965
  155.8475  140.0958  157.1696 H   0  0  0  0  0  0  0  0  0  0  0  0  # atno 8008 bound_to 7997
  154.3984  140.1389  156.3865 H   0  0  0  0  0  0  0  0  0  0  0  0  # atno 8009 bound_to 7997
  155.7998  140.3453  155.5398 H   0  0  0  0  0  0  0  0  0  0  0  0  # atno 8010 bound_to 7997
  140.7135  143.3387  151.2405 H   0  0  0  0  0  0  0  0  0  0  0  0  # atno 10167 bound_to 10162
  157.6864  131.0061  150.2420 H   0  0  0  0  0  0  0  0  0  0  0  0  # atno 10718 bound_to 10713
  154.8401  135.4450  154.1366 H   0  0  0  0  0  0  0  0  0  0  0  0  # atno 10763 bound_to 10752
  153.2562  135.6931  153.7632 H   0  0  0  0  0  0  0  0  0  0  0  0  # atno 10764 bound_to 10752
  153.6926  135.3385  155.3181 H   0  0  0  0  0  0  0  0  0  0  0  0  # atno 10765 bound_to 10752
  139.9493  134.9624  156.8814 H   0  0  0  0  0  0  0  0  0  0  0  0  # atno 11005 bound_to 11000
  144.7881  139.6384  143.7125 LP  0  0  0  0  0  0  0  0  0  0  0  0  # atno 17320 bound_to 7965
  146.2333  139.5856  142.9540 LP  0  0  0  0  0  0  0  0  0  0  0  0  # atno 17321 bound_to 7965
  139.6889  143.9726  152.2849 LP  0  0  0  0  0  0  0  0  0  0  0  0  # atno 17342 bound_to 10162
  139.9380  144.6699  150.8295 LP  0  0  0  0  0  0  0  0  0  0  0  0  # atno 17343 bound_to 10162
  156.3033  130.3761  149.7730 LP  0  0  0  0  0  0  0  0  0  0  0  0  # atno 17370 bound_to 10713
  156.5353  130.8276  151.3251 LP  0  0  0  0  0  0  0  0  0  0  0  0  # atno 17371 bound_to 10713
  140.5758  134.0400  155.7446 LP  0  0  0  0  0  0  0  0  0  0  0  0  # atno 17394 bound_to 11000
  141.1152  133.9552  157.2836 LP  0  0  0  0  0  0  0  0  0  0  0  0  # atno 17395 bound_to 11000

$$$$
