AV-unprocessed.smi:3089|AV-procd|sdf|11772|dock2
  -GOLD-   2272017153D 1   1.00000     0.00000
 Structure written by MMmdl.
 24 24  0  0  0  0  0  0  0  0  1 V2000
  152.1455  142.4804  158.3447 C   0  0  0  0  0  0  0  0  0  0  0  0
  151.6623  141.5842  157.3164 N   0  0  0  0  0  0  0  0  0  0  0  0
  150.5643  141.7277  156.4968 C   0  0  0  0  0  0  0  0  0  0  0  0
  150.5092  140.6317  155.6801 C   0  0  0  0  0  0  0  0  0  0  0  0
  149.4975  140.3096  154.6004 C   0  0  1  0  0  0  0  0  0  0  0  0
  148.1330  140.9190  154.9677 C   0  0  0  0  0  0  0  0  0  0  0  0
  149.8405  140.8834  153.3531 O   0  0  0  0  0  0  0  0  0  0  0  0
  149.3535  138.7877  154.3769 C   0  0  0  0  0  0  0  0  0  0  0  0
  148.6045  138.4367  153.1582 N   0  0  0  0  0  0  0  0  0  0  0  0
  151.6374  139.8641  156.0949 C   0  0  0  0  0  0  0  0  0  0  0  0
  152.3243  140.4361  157.0705 N   0  0  0  0  0  0  0  0  0  0  0  0
  151.5055  143.3610  158.4041 H   0  0  0  0  0  0  0  0  0  0  0  0
  153.1622  142.7972  158.1100 H   0  0  0  0  0  0  0  0  0  0  0  0
  152.1406  141.9728  159.3096 H   0  0  0  0  0  0  0  0  0  0  0  0
  149.9174  142.5904  156.5586 H   0  0  0  0  0  0  0  0  0  0  0  0
  147.7547  140.5111  155.9057 H   0  0  0  0  0  0  0  0  0  0  0  0
  147.3846  140.7166  154.2004 H   0  0  0  0  0  0  0  0  0  0  0  0
  148.2003  142.0016  155.0853 H   0  0  0  0  0  0  0  0  0  0  0  0
  149.7334  140.2273  152.6818 H   0  0  0  0  0  0  0  0  0  0  0  0
  150.3477  138.3450  154.3079 H   0  0  0  0  0  0  0  0  0  0  0  0
  148.8837  138.3276  155.2471 H   0  0  0  0  0  0  0  0  0  0  0  0
  148.8036  139.1018  152.4124 H   0  0  0  0  0  0  0  0  0  0  0  0
  148.8864  137.5166  152.8227 H   0  0  0  0  0  0  0  0  0  0  0  0
  151.9765  138.9113  155.7154 H   0  0  0  0  0  0  0  0  0  0  0  0
  1  2  1  0  0  0  0
  1 12  1  0  0  0  0
  1 13  1  0  0  0  0
  1 14  1  0  0  0  0
  2 11  1  0  0  0  0
  2  3  1  0  0  0  0
  3  4  2  0  0  0  0
  3 15  1  0  0  0  0
  4  5  1  0  0  0  0
  4 10  1  0  0  0  0
  5  6  1  0  0  0  0
  5  7  1  0  0  0  0
  5  8  1  0  0  0  0
  6 16  1  0  0  0  0
  6 17  1  0  0  0  0
  6 18  1  0  0  0  0
  7 19  1  0  0  0  0
  8  9  1  0  0  0  0
  8 20  1  0  0  0  0
  8 21  1  0  0  0  0
  9 22  1  0  0  0  0
  9 23  1  0  0  0  0
 10 11  2  0  0  0  0
 10 24  1  0  0  0  0
M  END
> <s_m_source_file>
AV-unprocessed.smi

> <i_m_source_file_index>
3089

> <i_lp_mmshare_version>
43012

> <i_f3d_flags>
0

> <s_epik_input>
W0NIM11uMVtjSF1jKFtjSF1uMSlbQ0BAXShbQ0gzXSkoW09IXSlbQ0gyXVtOSDJd

> <s_epik_cmdline>
J2VwaWtfcHl0aG9uJywgJy1waCcsICc3LjAnLCAnLXRuJywgJzgnLCAnLW1hJywgJzIwMCcsICctbWV0YWxfYmluZGluZycsICctaW1hZScsICc8aW5maWxlLm1hZT4nLCAnLW9tYWUnLCAnPG91dGZpbGUubWFlPic=

> <r_lp_tautomer_probability>
1

> <r_epik_Ionization_Penalty>
2.22427

> <r_epik_Ionization_Penalty_Charging>
0

> <r_epik_Ionization_Penalty_Neutral>
2.22427

> <r_epik_State_Penalty>
2.36938

> <r_epik_Charging_Adjusted_Penalty>
2.36938

> <i_epik_Tot_Q>
0

> <i_epik_Tot_abs_Q>
0

> <r_epik_Metal_State_Penalty>
2.36933

> <b_epik_Metal_Only>
0

> <s_lp_Force_Field>
OPLS_2005

> <r_lp_Energy>
8.30458

> <b_lp_Chiralities_Consistent>
1

> <s_lp_Variant>
AV-unprocessed.smi:3089-3

> <Gold.Version>
5.8.1

> <Gold.Id.Protein>
6NUR|6NUR_protein|mol2

> <Gold.PLP.Fitness>
37.0529

> <Gold.PLP.PLP>
-21.9344

> <Gold.PLP.part.hbond>
-4.9815

> <Gold.PLP.part.metal>
0.0000

> <Gold.PLP.part.buried>
-0.7220

> <Gold.PLP.part.nonpolar>
-14.4054

> <Gold.PLP.part.repulsive>
0.0000

> <Gold.PLP.ligand.clash>
0.0000

> <Gold.PLP.ligand.torsion>
1.2241

> <Gold.PLP.Chemscore.Hbond>
4.8528

> <Gold.PLP.Chemscore.CHOScore>
0.9957

> <Gold.PLP.Chemscore.Metal>
0.0000

> <Gold.Chemscore.Hbonds>
donor molecule, donor type, donor heavy atom, donor atom, acceptor molecule, acceptor atom, score
      L1  H     7    19       P1  7957  0.85
      L1  H     9    22       P1  7957  1.00
      L1  H     9    23       P1  7948  1.00
      P1  H  7989  7998       L1     7  0.24
      P1  H  7997  8009       L1    11  0.75
      P1  H  8011  8017       L1     7  1.00
      L1  C     3    15       P1  8028  1.00

> <Gold.PLP.Chemscore.Internal.Correction>
0.0209

> <Gold.Rescore>
     Score         DG    S(hbond)    S(metal)    S(lipo)     H(rot)  DE(clash)    DE(int)     intcor
     17.64     -19.28       3.88        0.00      47.34       1.84       0.32       1.32       ----

> <Gold.Chemscore.Fitness>
17.6389

> <Gold.Chemscore.DG>
-19.2841

> <Gold.Chemscore.ZeroCoef>
-5.4800

> <Gold.Chemscore.Hbond>
3.8839

> <Gold.Chemscore.Metal>
0.0000

> <Gold.Chemscore.Lipo>
47.3406

> <Gold.Chemscore.Internal_Hbond>
0.0000

> <Gold.Chemscore.DEClash>
0.3204

> <Gold.Chemscore.DEInternal>
1.3247

> <Gold.Chemscore.Rot>
1.8386

> <Gold.Chemscore.Internal.Correction>
   9.000000E+99

> <Gold.Chemscore.Hbonds>
donor molecule, donor type, donor heavy atom, donor atom, acceptor molecule, acceptor atom, score
      L1  H     7    19       P1  7957  0.78
      L1  H     9    22       P1  7957  1.00
      L1  H     9    23       P1  7948  0.97
      P1  H  7989  7998       L1     7  0.02
      P1  H  7997  8009       L1    11  0.36
      P1  H  8011  8017       L1     7  0.25

> <Gold.Chemscore.Hbond.Weighted>
-12.9722

> <Gold.Chemscore.Metal.Weighted>
-0.0000

> <Gold.Chemscore.Lipo.Weighted>
-5.5389

> <Gold.Chemscore.Internal_Hbond.Weighted>
0.0000

> <Gold.Chemscore.DEClash.Weighted>
0.3204

> <Gold.Chemscore.DEInternal.Weighted>
1.3247

> <Gold.Chemscore.Rot.Weighted>
4.7069

> <Gold.Chemscore.Internal.Correction.Weighted>
   9.000000E+99

> <Gold.Protein.RotatedTorsions>
[ 6907 6896 6895 6894 ] final  137.98 input  -60.11 | X-H torsion
[ 7974 7965 7964 7962 ] final  149.82 input  175.53 | X-H torsion
[ 8008 7997 7996 7995 ] final -175.87 input   59.86 | X-H torsion
[ 10167 10162 10161 10158 ] final  -93.65 input  -65.29 | X-H torsion
[ 10718 10713 10712 10709 ] final  -58.83 input   66.30 | X-H torsion
[ 10763 10752 10751 10750 ] final   28.49 input  -60.55 | X-H torsion
[ 11005 11000 10999 10996 ] final   92.18 input  -57.11 | X-H torsion

> <Gold.Protein.ActiveResidues>
 VAL166  LYS551  ARG553  GLY616  TRP617  ASP618  TYR619  PRO620  LYS621  CYS622 
 ASP623  PHE694  ASN695  SER759  ASP760  ASP761  ALA762  ILE779  LEU786  VAL792 
 PHE793  MET794  SER795  GLU796  ALA797  LYS798  CYS799  TRP800  GLU811  SER814 

> <Gold.Protein.RotatedAtoms>
  152.2719  133.5390  159.5443 H   0  0  0  0  0  0  0  0  0  0  0  0  # atno 6907 bound_to 6896
  150.7162  134.0686  159.3865 H   0  0  0  0  0  0  0  0  0  0  0  0  # atno 6908 bound_to 6896
  151.8600  135.0527  160.0519 H   0  0  0  0  0  0  0  0  0  0  0  0  # atno 6909 bound_to 6896
  144.8409  139.6329  143.6017 H   0  0  0  0  0  0  0  0  0  0  0  0  # atno 7974 bound_to 7965
  155.9879  140.1195  157.0666 H   0  0  0  0  0  0  0  0  0  0  0  0  # atno 8008 bound_to 7997
  154.4202  140.1131  156.5593 H   0  0  0  0  0  0  0  0  0  0  0  0  # atno 8009 bound_to 7997
  155.6383  140.3473  155.4708 H   0  0  0  0  0  0  0  0  0  0  0  0  # atno 8010 bound_to 7997
  140.3224  143.3041  152.0031 H   0  0  0  0  0  0  0  0  0  0  0  0  # atno 10167 bound_to 10162
  156.1106  130.4175  150.0632 H   0  0  0  0  0  0  0  0  0  0  0  0  # atno 10718 bound_to 10713
  153.0489  135.6512  154.0746 H   0  0  0  0  0  0  0  0  0  0  0  0  # atno 10763 bound_to 10752
  154.0438  135.2901  155.3352 H   0  0  0  0  0  0  0  0  0  0  0  0  # atno 10764 bound_to 10752
  154.6764  135.5336  153.8271 H   0  0  0  0  0  0  0  0  0  0  0  0  # atno 10765 bound_to 10752
  139.8827  134.8718  156.3535 H   0  0  0  0  0  0  0  0  0  0  0  0  # atno 11005 bound_to 11000
  146.2702  139.6616  142.9301 LP  0  0  0  0  0  0  0  0  0  0  0  0  # atno 17320 bound_to 7965
  145.4695  141.0435  143.2706 LP  0  0  0  0  0  0  0  0  0  0  0  0  # atno 17321 bound_to 7965
  139.4871  144.6300  151.7089 LP  0  0  0  0  0  0  0  0  0  0  0  0  # atno 17342 bound_to 10162
  140.5471  144.0485  150.6111 LP  0  0  0  0  0  0  0  0  0  0  0  0  # atno 17343 bound_to 10162
  156.8596  130.9487  151.3619 LP  0  0  0  0  0  0  0  0  0  0  0  0  # atno 17370 bound_to 10713
  157.6287  130.8712  149.9234 LP  0  0  0  0  0  0  0  0  0  0  0  0  # atno 17371 bound_to 10713
  140.9578  133.7409  156.0359 LP  0  0  0  0  0  0  0  0  0  0  0  0  # atno 17394 bound_to 11000
  140.8027  134.3490  157.5435 LP  0  0  0  0  0  0  0  0  0  0  0  0  # atno 17395 bound_to 11000

$$$$
