AV-unprocessed.smi:2772|AV-procd|sdf|10674|dock8
  -GOLD-   2272015123D 1   1.00000     0.00000
 Structure written by MMmdl.
 56 58  0  0  0  0  0  0  0  0  4 V2000
  152.1811  145.3099  159.4233 C   0  0  0  0  0  0  0  0  0  0  0  0
  151.8519  144.0741  158.6128 C   0  0  0  0  0  0  0  0  0  0  0  0
  152.0861  142.7689  159.0936 C   0  0  0  0  0  0  0  0  0  0  0  0
  151.7569  141.6659  158.2784 C   0  0  0  0  0  0  0  0  0  0  0  0
  151.2080  141.8807  156.9947 C   0  0  0  0  0  0  0  0  0  0  0  0
  150.8851  140.7373  156.2122 N   0  0  0  0  0  0  0  0  0  0  0  0
  150.4340  139.5398  156.6262 C   0  0  0  0  0  0  0  0  0  0  0  0
  150.1994  139.2367  157.7955 O   0  0  0  0  0  0  0  0  0  0  0  0
  150.2507  138.7039  155.5927 N   0  0  0  0  0  0  0  0  0  0  0  0
  149.7596  137.3302  155.6867 C   0  0  2  0  0  0  0  0  0  0  0  0
  150.6459  136.3898  154.8651 C   0  0  0  0  0  0  0  0  0  0  0  0
  150.1093  134.9487  154.8991 C   0  0  0  0  0  0  0  0  0  0  0  0
  148.6962  134.8498  154.4228 N   0  3  1  0  0  0  0  0  0  0  0  0
  148.1736  133.4387  154.3975 C   0  0  2  0  0  0  0  0  0  0  0  0
  148.3843  132.7100  153.0459 C   0  0  0  0  0  0  0  0  0  0  0  0
  147.5199  133.3159  151.9242 C   0  0  0  0  0  0  0  0  0  0  0  0
  146.0793  133.2745  152.2806 N   0  3  2  0  0  0  0  0  0  0  0  0
  145.2132  133.7777  151.1925 C   0  0  0  0  0  0  0  0  0  0  0  0
  145.7997  133.9356  153.5800 C   0  0  0  0  0  0  0  0  0  0  0  0
  146.6589  133.3275  154.7043 C   0  0  0  0  0  0  0  0  0  0  0  0
  147.8160  135.7871  155.1846 C   0  0  0  0  0  0  0  0  0  0  0  0
  148.3272  137.2373  155.1532 C   0  0  0  0  0  0  0  0  0  0  0  0
  150.9832  143.2160  156.5748 C   0  0  0  0  0  0  0  0  0  0  0  0
  151.3116  144.2447  157.3864 N   0  3  0  0  0  0  0  0  0  0  0  0
  152.6303  145.0448  160.3808 H   0  0  0  0  0  0  0  0  0  0  0  0
  151.2775  145.8880  159.6189 H   0  0  0  0  0  0  0  0  0  0  0  0
  152.8845  145.9432  158.8815 H   0  0  0  0  0  0  0  0  0  0  0  0
  152.5128  142.6109  160.0735 H   0  0  0  0  0  0  0  0  0  0  0  0
  151.9326  140.6624  158.6383 H   0  0  0  0  0  0  0  0  0  0  0  0
  150.9620  140.8612  155.2131 H   0  0  0  0  0  0  0  0  0  0  0  0
  150.4677  139.0447  154.6673 H   0  0  0  0  0  0  0  0  0  0  0  0
  149.7653  136.9904  156.7242 H   0  0  0  0  0  0  0  0  0  0  0  0
  150.6992  136.7342  153.8311 H   0  0  0  0  0  0  0  0  0  0  0  0
  151.6664  136.4091  155.2499 H   0  0  0  0  0  0  0  0  0  0  0  0
  150.7749  134.3611  154.2712 H   0  0  0  0  0  0  0  0  0  0  0  0
  150.1820  134.5453  155.9103 H   0  0  0  0  0  0  0  0  0  0  0  0
  148.7171  132.8863  155.1660 H   0  0  0  0  0  0  0  0  0  0  0  0
  149.4305  132.6650  152.7497 H   0  0  0  0  0  0  0  0  0  0  0  0
  148.1004  131.6635  153.1679 H   0  0  0  0  0  0  0  0  0  0  0  0
  147.8226  134.3450  151.7247 H   0  0  0  0  0  0  0  0  0  0  0  0
  147.6779  132.7556  151.0017 H   0  0  0  0  0  0  0  0  0  0  0  0
  145.4127  134.8302  150.9866 H   0  0  0  0  0  0  0  0  0  0  0  0
  144.1606  133.6747  151.4585 H   0  0  0  0  0  0  0  0  0  0  0  0
  145.3802  133.2119  150.2752 H   0  0  0  0  0  0  0  0  0  0  0  0
  145.9842  135.0078  153.4975 H   0  0  0  0  0  0  0  0  0  0  0  0
  144.7437  133.8147  153.8250 H   0  0  0  0  0  0  0  0  0  0  0  0
  146.3998  132.2718  154.7995 H   0  0  0  0  0  0  0  0  0  0  0  0
  146.3906  133.7524  155.6692 H   0  0  0  0  0  0  0  0  0  0  0  0
  146.8118  135.8073  154.7676 H   0  0  0  0  0  0  0  0  0  0  0  0
  147.7269  135.4448  156.2168 H   0  0  0  0  0  0  0  0  0  0  0  0
  147.6669  137.8708  155.7473 H   0  0  0  0  0  0  0  0  0  0  0  0
  148.2829  137.6174  154.1312 H   0  0  0  0  0  0  0  0  0  0  0  0
  150.5469  143.5092  155.6323 H   0  0  0  0  0  0  0  0  0  0  0  0
  148.6978  135.1761  153.4672 H   0  0  0  0  0  0  0  0  0  0  0  0
  145.8430  132.2994  152.4007 H   0  0  0  0  0  0  0  0  0  0  0  0
  151.1413  145.1955  157.0575 H   0  0  0  0  0  0  0  0  0  0  0  0
  1  2  1  0  0  0  0
  1 25  1  0  0  0  0
  1 26  1  0  0  0  0
  1 27  1  0  0  0  0
  2 24  1  0  0  0  0
  2  3  2  0  0  0  0
  3  4  1  0  0  0  0
  3 28  1  0  0  0  0
  4  5  2  0  0  0  0
  4 29  1  0  0  0  0
  5  6  1  0  0  0  0
  5 23  1  0  0  0  0
  6  7  1  0  0  0  0
  6 30  1  0  0  0  0
  7  8  2  0  0  0  0
  7  9  1  0  0  0  0
  9 10  1  0  0  0  0
  9 31  1  0  0  0  0
 10 22  1  0  0  0  0
 10 11  1  0  0  0  0
 10 32  1  0  0  0  0
 11 12  1  0  0  0  0
 11 33  1  0  0  0  0
 11 34  1  0  0  0  0
 12 13  1  0  0  0  0
 12 35  1  0  0  0  0
 12 36  1  0  0  0  0
 13 14  1  0  0  0  0
 13 21  1  0  0  0  0
 13 54  1  0  0  0  0
 14 20  1  0  0  0  0
 14 15  1  0  0  0  0
 14 37  1  0  0  0  0
 15 16  1  0  0  0  0
 15 38  1  0  0  0  0
 15 39  1  0  0  0  0
 16 17  1  0  0  0  0
 16 40  1  0  0  0  0
 16 41  1  0  0  0  0
 17 18  1  0  0  0  0
 17 19  1  0  0  0  0
 17 55  1  0  0  0  0
 18 42  1  0  0  0  0
 18 43  1  0  0  0  0
 18 44  1  0  0  0  0
 19 20  1  0  0  0  0
 19 45  1  0  0  0  0
 19 46  1  0  0  0  0
 20 47  1  0  0  0  0
 20 48  1  0  0  0  0
 21 22  1  0  0  0  0
 21 49  1  0  0  0  0
 21 50  1  0  0  0  0
 22 51  1  0  0  0  0
 22 52  1  0  0  0  0
 23 24  2  0  0  0  0
 23 53  1  0  0  0  0
 24 56  1  0  0  0  0
M  CHG  1  13   1
M  CHG  1  17   1
M  CHG  1  24   1
M  END
> <s_m_source_file>
AV-unprocessed.smi

> <i_m_source_file_index>
2772

> <i_lp_mmshare_version>
43012

> <i_f3d_flags>
0

> <s_epik_input>
W0NIM11jMVtjSF1bY0hdYyhbY0hdbjEpW05IXUMoPU8pW05IXVtDSF0yW0NIMl1bQ0gyXU4oW0NIMl1bQ0gyXTIpW0NIXTNbQ0gyXVtDSDJdTihbQ0gzXSlbQ0gyXVtDSDJdMw==

> <s_epik_cmdline>
J2VwaWtfcHl0aG9uJywgJy1waCcsICc3LjAnLCAnLXRuJywgJzgnLCAnLW1hJywgJzIwMCcsICctbWV0YWxfYmluZGluZycsICctaW1hZScsICc8aW5maWxlLm1hZT4nLCAnLW9tYWUnLCAnPG91dGZpbGUubWFlPic=

> <r_epik_Ionization_Penalty>
2.34117

> <r_epik_Ionization_Penalty_Charging>
2.34115

> <r_epik_Ionization_Penalty_Neutral>
2.22786e-05

> <r_epik_State_Penalty>
2.43944

> <r_epik_Charging_Adjusted_Penalty>
4.78059

> <i_epik_Tot_Q>
3

> <i_epik_Tot_abs_Q>
3

> <r_epik_Metal_State_Penalty>
2.45906

> <b_epik_Metal_Only>
0

> <s_lp_Force_Field>
OPLS_2005

> <r_lp_Energy>
56.0688

> <b_lp_Chiralities_Consistent>
1

> <s_lp_Variant>
AV-unprocessed.smi:2772-11

> <Gold.Version>
5.8.1

> <Gold.Id.Protein>
6NUR|6NUR_protein|mol2

> <Gold.PLP.Fitness>
38.7392

> <Gold.PLP.PLP>
-35.3985

> <Gold.PLP.part.hbond>
-2.0000

> <Gold.PLP.part.metal>
0.0000

> <Gold.PLP.part.buried>
-3.0532

> <Gold.PLP.part.nonpolar>
-29.7171

> <Gold.PLP.part.repulsive>
0.1687

> <Gold.PLP.ligand.clash>
0.0000

> <Gold.PLP.ligand.torsion>
1.3431

> <Gold.PLP.Chemscore.Hbond>
2.0000

> <Gold.PLP.Chemscore.CHOScore>
0.0000

> <Gold.PLP.Chemscore.Metal>
0.0000

> <Gold.Chemscore.Hbonds>
donor molecule, donor type, donor heavy atom, donor atom, acceptor molecule, acceptor atom, score
      L1  H    13    54       P1  7948  2.00

> <Gold.PLP.Chemscore.Internal.Correction>
0.0269

> <Gold.Rescore>
     Score         DG    S(hbond)    S(metal)    S(lipo)     H(rot)  DE(clash)    DE(int)     intcor
     14.39     -18.29       0.92        0.00     109.83       1.22       1.45       2.45       ----

> <Gold.Chemscore.Fitness>
14.3873

> <Gold.Chemscore.DG>
-18.2902

> <Gold.Chemscore.ZeroCoef>
-5.4800

> <Gold.Chemscore.Hbond>
0.9248

> <Gold.Chemscore.Metal>
0.0000

> <Gold.Chemscore.Lipo>
109.8311

> <Gold.Chemscore.Internal_Hbond>
0.0000

> <Gold.Chemscore.DEClash>
1.4501

> <Gold.Chemscore.DEInternal>
2.4528

> <Gold.Chemscore.Rot>
1.2222

> <Gold.Chemscore.Internal.Correction>
   9.000000E+99

> <Gold.Chemscore.Hbonds>
donor molecule, donor type, donor heavy atom, donor atom, acceptor molecule, acceptor atom, score
      L1  H    13    54       P1  7948  0.78

> <Gold.Chemscore.Hbond.Weighted>
-3.0889

> <Gold.Chemscore.Metal.Weighted>
-0.0000

> <Gold.Chemscore.Lipo.Weighted>
-12.8502

> <Gold.Chemscore.Internal_Hbond.Weighted>
0.0000

> <Gold.Chemscore.DEClash.Weighted>
1.4501

> <Gold.Chemscore.DEInternal.Weighted>
2.4528

> <Gold.Chemscore.Rot.Weighted>
3.1289

> <Gold.Chemscore.Internal.Correction.Weighted>
   9.000000E+99

> <Gold.Protein.RotatedTorsions>
[ 6907 6896 6895 6894 ] final  -89.19 input  -60.11 | X-H torsion
[ 7974 7965 7964 7962 ] final   -9.93 input  175.53 | X-H torsion
[ 8008 7997 7996 7995 ] final   70.43 input   59.86 | X-H torsion
[ 10167 10162 10161 10158 ] final   11.96 input  -65.29 | X-H torsion
[ 10718 10713 10712 10709 ] final -164.79 input   66.30 | X-H torsion
[ 10763 10752 10751 10750 ] final -179.35 input  -60.55 | X-H torsion
[ 11005 11000 10999 10996 ] final  134.20 input  -57.11 | X-H torsion

> <Gold.Protein.ActiveResidues>
 VAL166  LYS551  ARG553  GLY616  TRP617  ASP618  TYR619  PRO620  LYS621  CYS622 
 ASP623  PHE694  ASN695  SER759  ASP760  ASP761  ALA762  ILE779  LEU786  VAL792 
 PHE793  MET794  SER795  GLU796  ALA797  LYS798  CYS799  TRP800  GLU811  SER814 

> <Gold.Protein.RotatedAtoms>
  150.6872  134.2625  159.4554 H   0  0  0  0  0  0  0  0  0  0  0  0  # atno 6907 bound_to 6896
  152.0554  134.9625  160.0584 H   0  0  0  0  0  0  0  0  0  0  0  0  # atno 6908 bound_to 6896
  152.1073  133.4247  159.4651 H   0  0  0  0  0  0  0  0  0  0  0  0  # atno 6909 bound_to 6896
  146.2237  140.2689  142.8355 H   0  0  0  0  0  0  0  0  0  0  0  0  # atno 7974 bound_to 7965
  155.7386  140.3490  155.5093 H   0  0  0  0  0  0  0  0  0  0  0  0  # atno 8008 bound_to 7997
  155.9115  140.1051  157.1297 H   0  0  0  0  0  0  0  0  0  0  0  0  # atno 8009 bound_to 7997
  154.4056  140.1267  156.4550 H   0  0  0  0  0  0  0  0  0  0  0  0  # atno 8010 bound_to 7997
  140.6099  143.8430  150.7054 H   0  0  0  0  0  0  0  0  0  0  0  0  # atno 10167 bound_to 10162
  156.6441  130.8980  151.3001 H   0  0  0  0  0  0  0  0  0  0  0  0  # atno 10718 bound_to 10713
  154.5362  135.2803  155.1136 H   0  0  0  0  0  0  0  0  0  0  0  0  # atno 10763 bound_to 10752
  154.2637  135.6317  153.5288 H   0  0  0  0  0  0  0  0  0  0  0  0  # atno 10764 bound_to 10752
  152.9968  135.5611  154.5889 H   0  0  0  0  0  0  0  0  0  0  0  0  # atno 10765 bound_to 10752
  139.9900  134.9518  156.9833 H   0  0  0  0  0  0  0  0  0  0  0  0  # atno 11005 bound_to 11000
  144.9283  140.7946  143.5705 LP  0  0  0  0  0  0  0  0  0  0  0  0  # atno 17320 bound_to 7965
  145.2630  139.1984  143.4882 LP  0  0  0  0  0  0  0  0  0  0  0  0  # atno 17321 bound_to 7965
  140.1996  143.3970  152.1802 LP  0  0  0  0  0  0  0  0  0  0  0  0  # atno 17342 bound_to 10162
  139.5353  144.7203  151.4915 LP  0  0  0  0  0  0  0  0  0  0  0  0  # atno 17343 bound_to 10162
  157.7162  130.9500  150.1264 LP  0  0  0  0  0  0  0  0  0  0  0  0  # atno 17370 bound_to 10713
  156.2136  130.3668  149.8640 LP  0  0  0  0  0  0  0  0  0  0  0  0  # atno 17371 bound_to 10713
  140.4927  134.1177  155.7235 LP  0  0  0  0  0  0  0  0  0  0  0  0  # atno 17394 bound_to 11000
  141.1558  133.8886  157.1982 LP  0  0  0  0  0  0  0  0  0  0  0  0  # atno 17395 bound_to 11000

$$$$
