AV-unprocessed.smi:37|AV-procd|sdf|326|dock1
  -GOLD-   2262016153D 1   1.00000     0.00000
 Structure written by MMmdl.
 43 44  0  0  0  0  0  0  0  0  2 V2000
  146.2517  135.0595  162.7545 C   0  0  0  0  0  0  0  0  0  0  0  0
  147.5541  135.8525  162.5822 C   0  0  0  0  0  0  0  0  0  0  0  0
  147.8555  136.1524  161.1158 C   0  0  0  0  0  0  0  0  0  0  0  0
  147.8835  137.3071  160.6892 O   0  0  0  0  0  0  0  0  0  0  0  0
  148.0684  135.0413  160.3946 O   0  0  0  0  0  0  0  0  0  0  0  0
  147.7950  135.0445  159.0038 C   0  0  0  0  0  0  0  0  0  0  0  0
  148.7297  136.0431  158.3092 C   0  0  1  0  0  0  0  0  0  0  0  0
  150.0472  135.5188  158.1907 O   0  0  0  0  0  0  0  0  0  0  0  0
  150.6970  136.1035  157.0983 C   0  0  2  0  0  0  0  0  0  0  0  0
  151.8816  136.9117  157.5785 N   0  0  0  0  0  0  0  0  0  0  0  0
  152.1512  137.0640  158.9290 C   0  0  0  0  0  0  0  0  0  0  0  0
  153.2111  137.7829  159.3516 C   0  0  0  0  0  0  0  0  0  0  0  0
  153.4454  137.9183  160.6683 F   0  0  0  0  0  0  0  0  0  0  0  0
  154.0957  138.4121  158.3726 C   0  0  0  0  0  0  0  0  0  0  0  0
  155.0642  139.0615  158.7644 O   0  0  0  0  0  0  0  0  0  0  0  0
  153.8029  138.2483  157.0499 N   0  5  0  0  0  0  0  0  0  0  0  0
  152.7285  137.5259  156.6170 C   0  0  0  0  0  0  0  0  0  0  0  0
  152.4469  137.3819  155.4270 O   0  0  0  0  0  0  0  0  0  0  0  0
  149.6548  136.9483  156.3331 C   0  0  2  0  0  0  0  0  0  0  0  0
  149.7162  138.8966  156.7804 Br  0  0  0  0  0  0  0  0  0  0  0  0
  148.3488  136.3855  156.8669 C   0  0  1  0  0  0  0  0  0  0  0  0
  147.9822  135.2016  156.1651 O   0  0  0  0  0  0  0  0  0  0  0  0
  147.5458  135.2691  154.8945 C   0  0  0  0  0  0  0  0  0  0  0  0
  147.2862  136.2999  154.2736 O   0  0  0  0  0  0  0  0  0  0  0  0
  147.4043  133.8930  154.2474 C   0  0  0  0  0  0  0  0  0  0  0  0
  148.7585  133.1923  154.0703 C   0  0  0  0  0  0  0  0  0  0  0  0
  146.0739  134.8391  163.8069 H   0  0  0  0  0  0  0  0  0  0  0  0
  146.2935  134.1092  162.2210 H   0  0  0  0  0  0  0  0  0  0  0  0
  145.3903  135.6171  162.3845 H   0  0  0  0  0  0  0  0  0  0  0  0
  147.4942  136.7938  163.1289 H   0  0  0  0  0  0  0  0  0  0  0  0
  148.3877  135.2924  163.0067 H   0  0  0  0  0  0  0  0  0  0  0  0
  147.9179  134.0452  158.5833 H   0  0  0  0  0  0  0  0  0  0  0  0
  146.7565  135.3417  158.8508 H   0  0  0  0  0  0  0  0  0  0  0  0
  148.7750  136.9679  158.8869 H   0  0  0  0  0  0  0  0  0  0  0  0
  151.1116  135.2893  156.5013 H   0  0  0  0  0  0  0  0  0  0  0  0
  151.5061  136.6123  159.6673 H   0  0  0  0  0  0  0  0  0  0  0  0
  149.7807  136.8457  155.2547 H   0  0  0  0  0  0  0  0  0  0  0  0
  147.5369  137.1140  156.8336 H   0  0  0  0  0  0  0  0  0  0  0  0
  146.7495  133.2789  154.8663 H   0  0  0  0  0  0  0  0  0  0  0  0
  146.9117  134.0063  153.2814 H   0  0  0  0  0  0  0  0  0  0  0  0
  148.6223  132.1940  153.6542 H   0  0  0  0  0  0  0  0  0  0  0  0
  149.2773  133.0848  155.0235 H   0  0  0  0  0  0  0  0  0  0  0  0
  149.4100  133.7452  153.3926 H   0  0  0  0  0  0  0  0  0  0  0  0
  1  2  1  0  0  0  0
  1 27  1  0  0  0  0
  1 28  1  0  0  0  0
  1 29  1  0  0  0  0
  2  3  1  0  0  0  0
  2 30  1  0  0  0  0
  2 31  1  0  0  0  0
  3  4  2  0  0  0  0
  3  5  1  0  0  0  0
  5  6  1  0  0  0  0
  6  7  1  0  0  0  0
  6 32  1  0  0  0  0
  6 33  1  0  0  0  0
  7 21  1  0  0  0  0
  7  8  1  0  0  0  0
  7 34  1  0  0  0  0
  8  9  1  0  0  0  0
  9 10  1  0  0  0  0
  9 19  1  0  0  0  0
  9 35  1  0  0  0  0
 10 17  1  0  0  0  0
 10 11  1  0  0  0  0
 11 12  2  0  0  0  0
 11 36  1  0  0  0  0
 12 13  1  0  0  0  0
 12 14  1  0  0  0  0
 14 15  2  0  0  0  0
 14 16  1  0  0  0  0
 16 17  1  0  0  0  0
 17 18  2  0  0  0  0
 19 20  1  0  0  0  0
 19 21  1  0  0  0  0
 19 37  1  0  0  0  0
 21 22  1  0  0  0  0
 21 38  1  0  0  0  0
 22 23  1  0  0  0  0
 23 24  2  0  0  0  0
 23 25  1  0  0  0  0
 25 26  1  0  0  0  0
 25 39  1  0  0  0  0
 25 40  1  0  0  0  0
 26 41  1  0  0  0  0
 26 42  1  0  0  0  0
 26 43  1  0  0  0  0
M  CHG  1  16  -1
M  END
> <s_m_source_file>
AV-unprocessed.smi

> <i_m_source_file_index>
37

> <i_lp_mmshare_version>
43012

> <i_f3d_flags>
0

> <s_epik_input>
W0NIM11bQ0gyXUMoPU8pT1tDSDJdW0NAQEhdMU9bQ0BASF0objJbY0hdYyhGKWMoPU8pW25IXWMyPU8pW0NAQEhdKEJyKVtDQEhdMU9DKD1PKVtDSDJdW0NIM10=

> <s_epik_cmdline>
J2VwaWtfcHl0aG9uJywgJy1waCcsICc3LjAnLCAnLXRuJywgJzgnLCAnLW1hJywgJzIwMCcsICctbWV0YWxfYmluZGluZycsICctaW1hZScsICc8aW5maWxlLm1hZT4nLCAnLW9tYWUnLCAnPG91dGZpbGUubWFlPic=

> <r_epik_Ionization_Penalty>
1.08158

> <r_epik_Ionization_Penalty_Charging>
9.05154e-09

> <r_epik_Ionization_Penalty_Neutral>
1.08158

> <r_epik_State_Penalty>
1.13706

> <r_epik_Charging_Adjusted_Penalty>
1.13706

> <i_epik_Tot_Q>
-1

> <i_epik_Tot_abs_Q>
1

> <r_epik_Metal_State_Penalty>
0.00343535

> <b_epik_Metal_Only>
0

> <s_epik_Chemistry_Notes>
This compound has an ester and may undergo hydrolysis at high or low pH. This compound contains an acetal/aminal-like group ( X-CH(R)-Y where X, Y are N, S, or O) that may be acid/base labile, releasing an aldehyde.

> <s_lp_Force_Field>
OPLS_2005

> <r_lp_Energy>
32.8467

> <b_lp_Chiralities_Consistent>
1

> <s_lp_Variant>
AV-unprocessed.smi:37-24

> <Gold.Version>
5.8.1

> <Gold.Id.Protein>
6NUR|6NUR_protein|mol2

> <Gold.PLP.Fitness>
42.0712

> <Gold.PLP.PLP>
-28.4489

> <Gold.PLP.part.hbond>
-6.0000

> <Gold.PLP.part.metal>
0.0000

> <Gold.PLP.part.buried>
-2.2332

> <Gold.PLP.part.nonpolar>
-21.3893

> <Gold.PLP.part.repulsive>
0.7222

> <Gold.PLP.ligand.clash>
0.0000

> <Gold.PLP.ligand.torsion>
0.6604

> <Gold.PLP.Chemscore.Hbond>
4.9143

> <Gold.PLP.Chemscore.CHOScore>
0.0000

> <Gold.PLP.Chemscore.Metal>
0.0000

> <Gold.Chemscore.Hbonds>
donor molecule, donor type, donor heavy atom, donor atom, acceptor molecule, acceptor atom, score
      P1  H  6896  6907       L1     8  0.93
      P1  H  6931  6943       L1     4  0.77
      P1  H  6934  6947       L1     4  0.80
      P1  H  7997  8008       L1    15  0.59
      P1  H  7997  8009       L1    16  0.96
      P1  H 10752 10765       L1    18  0.67

> <Gold.PLP.Chemscore.Internal.Correction>
0.2002

> <Gold.Rescore>
     Score         DG    S(hbond)    S(metal)    S(lipo)     H(rot)  DE(clash)    DE(int)     intcor
     12.78     -15.07       3.69        0.00      47.98       3.27       0.08       2.21       ----

> <Gold.Chemscore.Fitness>
12.7834

> <Gold.Chemscore.DG>
-15.0720

> <Gold.Chemscore.ZeroCoef>
-5.4800

> <Gold.Chemscore.Hbond>
3.6949

> <Gold.Chemscore.Metal>
0.0000

> <Gold.Chemscore.Lipo>
47.9847

> <Gold.Chemscore.Internal_Hbond>
0.0000

> <Gold.Chemscore.DEClash>
0.0830

> <Gold.Chemscore.DEInternal>
2.2055

> <Gold.Chemscore.Rot>
3.2669

> <Gold.Chemscore.Internal.Correction>
   9.000000E+99

> <Gold.Chemscore.Hbonds>
donor molecule, donor type, donor heavy atom, donor atom, acceptor molecule, acceptor atom, score
      P1  H  6896  6907       L1     8  0.87
      P1  H  6931  6943       L1     4  0.38
      P1  H  6934  6947       L1     4  0.80
      P1  H  7997  8008       L1    15  0.37
      P1  H  7997  8009       L1    16  0.10
      P1  H 10752 10765       L1    18  0.49

> <Gold.Chemscore.Hbond.Weighted>
-12.3411

> <Gold.Chemscore.Metal.Weighted>
-0.0000

> <Gold.Chemscore.Lipo.Weighted>
-5.6142

> <Gold.Chemscore.Internal_Hbond.Weighted>
0.0000

> <Gold.Chemscore.DEClash.Weighted>
0.0830

> <Gold.Chemscore.DEInternal.Weighted>
2.2055

> <Gold.Chemscore.Rot.Weighted>
8.3634

> <Gold.Chemscore.Internal.Correction.Weighted>
   9.000000E+99

> <Gold.Protein.RotatedTorsions>
[ 6907 6896 6895 6894 ] final  -70.03 input  -60.11 | X-H torsion
[ 7974 7965 7964 7962 ] final  127.63 input  175.53 | X-H torsion
[ 8008 7997 7996 7995 ] final -163.25 input   59.86 | X-H torsion
[ 10167 10162 10161 10158 ] final  173.76 input  -65.29 | X-H torsion
[ 10718 10713 10712 10709 ] final  -42.27 input   66.30 | X-H torsion
[ 10763 10752 10751 10750 ] final -166.55 input  -60.55 | X-H torsion
[ 11005 11000 10999 10996 ] final  132.62 input  -57.11 | X-H torsion

> <Gold.Protein.ActiveResidues>
 VAL166  LYS551  ARG553  GLY616  TRP617  ASP618  TYR619  PRO620  LYS621  CYS622 
 ASP623  PHE694  ASN695  SER759  ASP760  ASP761  ALA762  ILE779  LEU786  VAL792 
 PHE793  MET794  SER795  GLU796  ALA797  LYS798  CYS799  TRP800  GLU811  SER814 

> <Gold.Protein.RotatedAtoms>
  150.7277  134.5511  159.5794 H   0  0  0  0  0  0  0  0  0  0  0  0  # atno 6907 bound_to 6896
  152.2998  134.7621  160.0369 H   0  0  0  0  0  0  0  0  0  0  0  0  # atno 6908 bound_to 6896
  151.8206  133.3358  159.3619 H   0  0  0  0  0  0  0  0  0  0  0  0  # atno 6909 bound_to 6896
  145.0485  139.3903  143.5066 H   0  0  0  0  0  0  0  0  0  0  0  0  # atno 7974 bound_to 7965
  155.8185  140.0916  157.1863 H   0  0  0  0  0  0  0  0  0  0  0  0  # atno 8008 bound_to 7997
  154.3979  140.1441  156.3531 H   0  0  0  0  0  0  0  0  0  0  0  0  # atno 8009 bound_to 7997
  155.8291  140.3443  155.5563 H   0  0  0  0  0  0  0  0  0  0  0  0  # atno 8010 bound_to 7997
  139.5119  144.3224  152.0189 H   0  0  0  0  0  0  0  0  0  0  0  0  # atno 10167 bound_to 10162
  156.2613  130.4197  149.8539 H   0  0  0  0  0  0  0  0  0  0  0  0  # atno 10718 bound_to 10713
  154.6822  135.2956  154.9598 H   0  0  0  0  0  0  0  0  0  0  0  0  # atno 10763 bound_to 10752
  154.0589  135.6634  153.4813 H   0  0  0  0  0  0  0  0  0  0  0  0  # atno 10764 bound_to 10752
  153.0555  135.5147  154.7870 H   0  0  0  0  0  0  0  0  0  0  0  0  # atno 10765 bound_to 10752
  139.9801  134.9551  156.9608 H   0  0  0  0  0  0  0  0  0  0  0  0  # atno 11005 bound_to 11000
  146.3516  140.0122  142.8666 LP  0  0  0  0  0  0  0  0  0  0  0  0  # atno 17320 bound_to 7965
  145.1558  140.9647  143.4406 LP  0  0  0  0  0  0  0  0  0  0  0  0  # atno 17321 bound_to 7965
  140.2666  144.4010  150.6166 LP  0  0  0  0  0  0  0  0  0  0  0  0  # atno 17342 bound_to 10162
  140.6119  143.2170  151.6869 LP  0  0  0  0  0  0  0  0  0  0  0  0  # atno 17343 bound_to 10162
  156.6053  130.8564  151.3441 LP  0  0  0  0  0  0  0  0  0  0  0  0  # atno 17370 bound_to 10713
  157.7251  130.9612  150.1603 LP  0  0  0  0  0  0  0  0  0  0  0  0  # atno 17371 bound_to 10713
  140.5113  134.0999  155.7271 LP  0  0  0  0  0  0  0  0  0  0  0  0  # atno 17394 bound_to 11000
  141.1474  133.9030  157.2181 LP  0  0  0  0  0  0  0  0  0  0  0  0  # atno 17395 bound_to 11000

$$$$
