AV-unprocessed.smi:1791|AV-procd|sdf|7220|dock10
  -GOLD-   22720 8463D 1   1.00000     0.00000
 Structure written by MMmdl.
 38 39  0  0  0  0  0  0  0  0  1 V2000
  152.5897  139.7799  158.4522 C   0  0  0  0  0  0  0  0  0  0  0  0
  152.8566  139.5137  157.0797 O   0  0  0  0  0  0  0  0  0  0  0  0
  152.0596  138.5989  156.4224 C   0  0  0  0  0  0  0  0  0  0  0  0
  151.2531  137.7340  157.1884 C   0  0  0  0  0  0  0  0  0  0  0  0
  150.4325  136.8012  156.5254 C   0  0  0  0  0  0  0  0  0  0  0  0
  150.4398  136.7685  155.1104 C   0  0  0  0  0  0  0  0  0  0  0  0
  149.6696  135.8688  154.3250 N   0  0  0  0  0  0  0  0  0  0  0  0
  149.0659  134.7302  154.7062 C   0  0  0  0  0  0  0  0  0  0  0  0
  149.0900  134.2582  155.8424 O   0  0  0  0  0  0  0  0  0  0  0  0
  148.4024  134.1727  153.6832 N   0  0  0  0  0  0  0  0  0  0  0  0
  147.6107  132.9441  153.7377 C   0  0  2  0  0  0  0  0  0  0  0  0
  148.5284  131.7324  153.5218 C   0  0  0  0  0  0  0  0  0  0  0  0
  146.4589  132.9887  152.7126 C   0  0  1  0  0  0  0  0  0  0  0  0
  146.8737  133.2905  151.2701 C   0  0  0  0  0  0  0  0  0  0  0  0
  145.7098  132.7126  150.4983 C   0  0  0  0  0  0  0  0  0  0  0  0
  145.3971  131.4536  151.3026 C   0  0  0  0  0  0  0  0  0  0  0  0
  145.7698  131.7412  152.6481 O   0  0  0  0  0  0  0  0  0  0  0  0
  151.2958  137.6647  154.4381 C   0  0  0  0  0  0  0  0  0  0  0  0
  152.0837  138.5619  155.0673 N   0  0  0  0  0  0  0  0  0  0  0  0
  153.3078  140.5106  158.8239 H   0  0  0  0  0  0  0  0  0  0  0  0
  152.6898  138.8795  159.0602 H   0  0  0  0  0  0  0  0  0  0  0  0
  151.5912  140.1971  158.5908 H   0  0  0  0  0  0  0  0  0  0  0  0
  151.2655  137.7831  158.2672 H   0  0  0  0  0  0  0  0  0  0  0  0
  149.8289  136.1280  157.1137 H   0  0  0  0  0  0  0  0  0  0  0  0
  149.4976  136.1637  153.3750 H   0  0  0  0  0  0  0  0  0  0  0  0
  148.4350  134.6414  152.7895 H   0  0  0  0  0  0  0  0  0  0  0  0
  147.1610  132.8320  154.7257 H   0  0  0  0  0  0  0  0  0  0  0  0
  147.9679  130.7997  153.5891 H   0  0  0  0  0  0  0  0  0  0  0  0
  149.3157  131.6974  154.2755 H   0  0  0  0  0  0  0  0  0  0  0  0
  149.0065  131.7632  152.5421 H   0  0  0  0  0  0  0  0  0  0  0  0
  145.7311  133.7417  153.0196 H   0  0  0  0  0  0  0  0  0  0  0  0
  147.0235  134.3547  151.0854 H   0  0  0  0  0  0  0  0  0  0  0  0
  147.7900  132.7660  150.9976 H   0  0  0  0  0  0  0  0  0  0  0  0
  144.8628  133.3993  150.5293 H   0  0  0  0  0  0  0  0  0  0  0  0
  145.9459  132.5050  149.4543 H   0  0  0  0  0  0  0  0  0  0  0  0
  144.3476  131.1674  151.2332 H   0  0  0  0  0  0  0  0  0  0  0  0
  146.0008  130.6166  150.9494 H   0  0  0  0  0  0  0  0  0  0  0  0
  151.3471  137.6687  153.3590 H   0  0  0  0  0  0  0  0  0  0  0  0
  1  2  1  0  0  0  0
  1 20  1  0  0  0  0
  1 21  1  0  0  0  0
  1 22  1  0  0  0  0
  2  3  1  0  0  0  0
  3 19  1  0  0  0  0
  3  4  2  0  0  0  0
  4  5  1  0  0  0  0
  4 23  1  0  0  0  0
  5  6  2  0  0  0  0
  5 24  1  0  0  0  0
  6  7  1  0  0  0  0
  6 18  1  0  0  0  0
  7  8  1  0  0  0  0
  7 25  1  0  0  0  0
  8  9  2  0  0  0  0
  8 10  1  0  0  0  0
 10 11  1  0  0  0  0
 10 26  1  0  0  0  0
 11 12  1  0  0  0  0
 11 13  1  0  0  0  0
 11 27  1  0  0  0  0
 12 28  1  0  0  0  0
 12 29  1  0  0  0  0
 12 30  1  0  0  0  0
 13 17  1  0  0  0  0
 13 14  1  0  0  0  0
 13 31  1  0  0  0  0
 14 15  1  0  0  0  0
 14 32  1  0  0  0  0
 14 33  1  0  0  0  0
 15 16  1  0  0  0  0
 15 34  1  0  0  0  0
 15 35  1  0  0  0  0
 16 17  1  0  0  0  0
 16 36  1  0  0  0  0
 16 37  1  0  0  0  0
 18 19  2  0  0  0  0
 18 38  1  0  0  0  0
M  END
> <s_m_source_file>
AV-unprocessed.smi

> <i_m_source_file_index>
1791

> <i_lp_mmshare_version>
43012

> <i_f3d_flags>
0

> <s_epik_input>
W0NIM11PYzFbY0hdW2NIXWMoW2NIXW4xKVtOSF1DKD1PKVtOSF1bQ0BIXShbQ0gzXSlbQ0BASF0yW0NIMl1bQ0gyXVtDSDJdTzI=

> <s_epik_cmdline>
J2VwaWtfcHl0aG9uJywgJy1waCcsICc3LjAnLCAnLXRuJywgJzgnLCAnLW1hJywgJzIwMCcsICctbWV0YWxfYmluZGluZycsICctaW1hZScsICc8aW5maWxlLm1hZT4nLCAnLW9tYWUnLCAnPG91dGZpbGUubWFlPic=

> <r_lp_tautomer_probability>
1

> <r_epik_Ionization_Penalty>
9.18737e-05

> <r_epik_Ionization_Penalty_Charging>
0

> <r_epik_Ionization_Penalty_Neutral>
9.18737e-05

> <r_epik_State_Penalty>
-0

> <r_epik_Charging_Adjusted_Penalty>
0

> <i_epik_Tot_Q>
0

> <i_epik_Tot_abs_Q>
0

> <r_epik_Metal_State_Penalty>
-0

> <b_epik_Metal_Only>
0

> <s_lp_Force_Field>
OPLS_2005

> <r_lp_Energy>
21.9226

> <b_lp_Chiralities_Consistent>
1

> <s_lp_Variant>
AV-unprocessed.smi:1791-3

> <Gold.Version>
5.8.1

> <Gold.Id.Protein>
6NUR|6NUR_protein|mol2

> <Gold.PLP.Fitness>
37.2196

> <Gold.PLP.PLP>
-26.7712

> <Gold.PLP.part.hbond>
-3.4652

> <Gold.PLP.part.metal>
0.0000

> <Gold.PLP.part.buried>
-3.8921

> <Gold.PLP.part.nonpolar>
-20.3158

> <Gold.PLP.part.repulsive>
0.2649

> <Gold.PLP.ligand.clash>
0.0000

> <Gold.PLP.ligand.torsion>
0.6960

> <Gold.PLP.Chemscore.Hbond>
2.9440

> <Gold.PLP.Chemscore.CHOScore>
0.9950

> <Gold.PLP.Chemscore.Metal>
0.0000

> <Gold.Chemscore.Hbonds>
donor molecule, donor type, donor heavy atom, donor atom, acceptor molecule, acceptor atom, score
      L1  H     7    25       P1  7948  1.00
      L1  H    10    26       P1  7948  0.93
      P1  H  7997  8010       L1     2  1.00
      L1  C    18    38       P1  7949  1.00

> <Gold.PLP.Chemscore.Internal.Correction>
0.0235

> <Gold.Rescore>
     Score         DG    S(hbond)    S(metal)    S(lipo)     H(rot)  DE(clash)    DE(int)     intcor
     16.62     -18.20       2.70        0.00      63.87       1.47       0.02       1.56       ----

> <Gold.Chemscore.Fitness>
16.6150

> <Gold.Chemscore.DG>
-18.2020

> <Gold.Chemscore.ZeroCoef>
-5.4800

> <Gold.Chemscore.Hbond>
2.6976

> <Gold.Chemscore.Metal>
0.0000

> <Gold.Chemscore.Lipo>
63.8745

> <Gold.Chemscore.Internal_Hbond>
0.0000

> <Gold.Chemscore.DEClash>
0.0243

> <Gold.Chemscore.DEInternal>
1.5626

> <Gold.Chemscore.Rot>
1.4693

> <Gold.Chemscore.Internal.Correction>
   9.000000E+99

> <Gold.Chemscore.Hbonds>
donor molecule, donor type, donor heavy atom, donor atom, acceptor molecule, acceptor atom, score
      L1  H     7    25       P1  7948  0.44
      L1  H    10    26       P1  7948  0.27
      P1  H  7997  8010       L1     2  0.85

> <Gold.Chemscore.Hbond.Weighted>
-9.0100

> <Gold.Chemscore.Metal.Weighted>
-0.0000

> <Gold.Chemscore.Lipo.Weighted>
-7.4733

> <Gold.Chemscore.Internal_Hbond.Weighted>
0.0000

> <Gold.Chemscore.DEClash.Weighted>
0.0243

> <Gold.Chemscore.DEInternal.Weighted>
1.5626

> <Gold.Chemscore.Rot.Weighted>
3.7613

> <Gold.Chemscore.Internal.Correction.Weighted>
   9.000000E+99

> <Gold.Protein.RotatedTorsions>
[ 6907 6896 6895 6894 ] final   35.08 input  -60.11 | X-H torsion
[ 7974 7965 7964 7962 ] final  -57.04 input  175.53 | X-H torsion
[ 8008 7997 7996 7995 ] final   63.28 input   59.86 | X-H torsion
[ 10167 10162 10161 10158 ] final  -59.99 input  -65.29 | X-H torsion
[ 10718 10713 10712 10709 ] final   34.75 input   66.30 | X-H torsion
[ 10763 10752 10751 10750 ] final  105.67 input  -60.55 | X-H torsion
[ 11005 11000 10999 10996 ] final   71.22 input  -57.11 | X-H torsion

> <Gold.Protein.ActiveResidues>
 VAL166  LYS551  ARG553  GLY616  TRP617  ASP618  TYR619  PRO620  LYS621  CYS622 
 ASP623  PHE694  ASN695  SER759  ASP760  ASP761  ALA762  ILE779  LEU786  VAL792 
 PHE793  MET794  SER795  GLU796  ALA797  LYS798  CYS799  TRP800  GLU811  SER814 

> <Gold.Protein.RotatedAtoms>
  152.1113  134.9272  160.0566 H   0  0  0  0  0  0  0  0  0  0  0  0  # atno 6907 bound_to 6896
  152.0449  133.3988  159.4360 H   0  0  0  0  0  0  0  0  0  0  0  0  # atno 6908 bound_to 6896
  150.6843  134.3294  159.4864 H   0  0  0  0  0  0  0  0  0  0  0  0  # atno 6909 bound_to 6896
  145.8557  140.8321  142.9963 H   0  0  0  0  0  0  0  0  0  0  0  0  # atno 7974 bound_to 7965
  155.6277  140.3496  155.4672 H   0  0  0  0  0  0  0  0  0  0  0  0  # atno 8008 bound_to 7997
  156.0028  140.1217  157.0554 H   0  0  0  0  0  0  0  0  0  0  0  0  # atno 8009 bound_to 7997
  154.4254  140.1097  156.5707 H   0  0  0  0  0  0  0  0  0  0  0  0  # atno 8010 bound_to 7997
  140.6100  143.2384  151.5732 H   0  0  0  0  0  0  0  0  0  0  0  0  # atno 10167 bound_to 10162
  157.3142  130.7415  149.6744 H   0  0  0  0  0  0  0  0  0  0  0  0  # atno 10718 bound_to 10713
  153.3825  135.3902  155.1866 H   0  0  0  0  0  0  0  0  0  0  0  0  # atno 10763 bound_to 10752
  154.8709  135.3729  154.4839 H   0  0  0  0  0  0  0  0  0  0  0  0  # atno 10764 bound_to 10752
  153.5318  135.7085  153.5741 H   0  0  0  0  0  0  0  0  0  0  0  0  # atno 10765 bound_to 10752
  139.9555  134.7151  156.0763 H   0  0  0  0  0  0  0  0  0  0  0  0  # atno 11005 bound_to 11000
  144.6728  140.1020  143.7460 LP  0  0  0  0  0  0  0  0  0  0  0  0  # atno 17320 bound_to 7965
  145.9306  139.2604  143.1327 LP  0  0  0  0  0  0  0  0  0  0  0  0  # atno 17321 bound_to 7965
  139.5354  144.2797  152.1239 LP  0  0  0  0  0  0  0  0  0  0  0  0  # atno 17342 bound_to 10162
  140.1994  144.4673  150.6439 LP  0  0  0  0  0  0  0  0  0  0  0  0  # atno 17343 bound_to 10162
  155.9680  130.4242  150.4598 LP  0  0  0  0  0  0  0  0  0  0  0  0  # atno 17370 bound_to 10713
  157.2602  131.0565  151.2325 LP  0  0  0  0  0  0  0  0  0  0  0  0  # atno 17371 bound_to 10713
  141.1226  133.6608  156.3253 LP  0  0  0  0  0  0  0  0  0  0  0  0  # atno 17394 bound_to 11000
  140.5619  134.5926  157.5436 LP  0  0  0  0  0  0  0  0  0  0  0  0  # atno 17395 bound_to 11000

$$$$
