AV-unprocessed.smi:74|AV-procd|sdf|763|dock9
  -GOLD-   2262017103D 1   1.00000     0.00000
 Structure written by MMmdl.
 58 62  0  0  0  0  0  0  0  0  1 V2000
  143.6832  133.6066  147.4137 O   0  0  0  0  0  0  0  0  0  0  0  0
  143.6918  132.4169  148.1760 C   0  0  0  0  0  0  0  0  0  0  0  0
  144.2921  132.6547  149.5714 C   0  0  0  0  0  0  0  0  0  0  0  0
  145.6995  132.0267  149.6313 C   0  0  0  0  0  0  0  0  0  0  0  0
  146.5398  132.7258  150.5271 O   0  0  0  0  0  0  0  0  0  0  0  0
  144.1938  134.1037  150.1000 C   0  0  0  0  0  0  0  0  0  0  0  0
  143.8253  133.5666  151.4845 C   0  0  0  0  0  0  0  0  0  0  0  0
  142.9394  134.2919  152.3469 N   0  0  0  0  0  0  0  0  0  0  0  0
  141.8178  133.8020  152.9767 C   0  0  0  0  0  0  0  0  0  0  0  0
  141.1995  134.6507  153.7516 N   0  0  0  0  0  0  0  0  0  0  0  0
  141.9703  135.8050  153.6763 C   0  0  0  0  0  0  0  0  0  0  0  0
  141.8869  137.0945  154.2748 C   0  0  0  0  0  0  0  0  0  0  0  0
  140.8769  137.4531  155.1083 N   0  0  0  0  0  0  0  0  0  0  0  0
  141.2184  137.8150  156.4821 C   0  0  0  0  0  0  0  0  0  0  0  0
  139.9437  137.9162  157.3353 C   0  0  0  0  0  0  0  0  0  0  0  0
  139.0401  138.8416  156.7399 O   0  0  0  0  0  0  0  0  0  0  0  0
  138.6454  138.4446  155.4289 C   0  0  1  0  0  0  0  0  0  0  0  0
  137.5942  139.4336  154.9065 C   0  0  0  0  0  0  0  0  0  0  0  0
  136.3191  139.1049  155.4342 O   0  0  0  0  0  0  0  0  0  0  0  0
  135.7336  137.9837  154.7967 C   0  0  0  0  0  0  0  0  0  0  0  0
  134.4440  137.6335  155.5075 C   0  0  0  0  0  0  0  0  0  0  0  0
  134.4250  136.5967  156.6077 C   0  0  0  0  0  0  0  0  0  0  0  0
  133.7868  136.2918  155.2766 C   0  0  0  0  0  0  0  0  0  0  0  0
  139.8822  138.3407  154.5144 C   0  0  0  0  0  0  0  0  0  0  0  0
  142.8758  137.9822  153.9832 N   0  0  0  0  0  0  0  0  0  0  0  0
  143.8701  137.6412  153.1586 C   0  0  0  0  0  0  0  0  0  0  0  0
  144.0674  136.4844  152.5241 N   0  0  0  0  0  0  0  0  0  0  0  0
  143.0825  135.5868  152.8142 C   0  0  0  0  0  0  0  0  0  0  0  0
  143.3643  132.3023  150.7551 C   0  0  0  0  0  0  0  0  0  0  0  0
  142.8543  133.6686  146.9641 H   0  0  0  0  0  0  0  0  0  0  0  0
  142.6758  132.0262  148.2357 H   0  0  0  0  0  0  0  0  0  0  0  0
  144.2711  131.6744  147.6263 H   0  0  0  0  0  0  0  0  0  0  0  0
  145.6546  130.9887  149.9612 H   0  0  0  0  0  0  0  0  0  0  0  0
  146.1713  132.0104  148.6486 H   0  0  0  0  0  0  0  0  0  0  0  0
  147.3674  132.2725  150.5785 H   0  0  0  0  0  0  0  0  0  0  0  0
  145.1241  134.6720  150.0724 H   0  0  0  0  0  0  0  0  0  0  0  0
  143.3795  134.6709  149.6450 H   0  0  0  0  0  0  0  0  0  0  0  0
  144.7230  133.3688  152.0726 H   0  0  0  0  0  0  0  0  0  0  0  0
  141.4654  132.7899  152.8393 H   0  0  0  0  0  0  0  0  0  0  0  0
  141.8882  137.0692  156.9122 H   0  0  0  0  0  0  0  0  0  0  0  0
  141.7453  138.7703  156.4878 H   0  0  0  0  0  0  0  0  0  0  0  0
  139.4666  136.9404  157.4389 H   0  0  0  0  0  0  0  0  0  0  0  0
  140.1909  138.2577  158.3405 H   0  0  0  0  0  0  0  0  0  0  0  0
  138.1721  137.4635  155.4996 H   0  0  0  0  0  0  0  0  0  0  0  0
  137.8641  140.4471  155.2082 H   0  0  0  0  0  0  0  0  0  0  0  0
  137.5708  139.4137  153.8158 H   0  0  0  0  0  0  0  0  0  0  0  0
  135.5114  138.2130  153.7536 H   0  0  0  0  0  0  0  0  0  0  0  0
  136.4129  137.1300  154.8172 H   0  0  0  0  0  0  0  0  0  0  0  0
  133.7646  138.4755  155.6261 H   0  0  0  0  0  0  0  0  0  0  0  0
  135.3588  136.0907  156.8447 H   0  0  0  0  0  0  0  0  0  0  0  0
  133.7652  136.7767  157.4540 H   0  0  0  0  0  0  0  0  0  0  0  0
  132.6998  136.2658  155.2342 H   0  0  0  0  0  0  0  0  0  0  0  0
  134.2957  135.5817  154.6276 H   0  0  0  0  0  0  0  0  0  0  0  0
  140.3349  139.3234  154.3749 H   0  0  0  0  0  0  0  0  0  0  0  0
  139.5743  137.9931  153.5291 H   0  0  0  0  0  0  0  0  0  0  0  0
  144.6121  138.4056  152.9807 H   0  0  0  0  0  0  0  0  0  0  0  0
  142.3062  132.3359  150.4880 H   0  0  0  0  0  0  0  0  0  0  0  0
  143.6081  131.3711  151.2674 H   0  0  0  0  0  0  0  0  0  0  0  0
  1  2  1  0  0  0  0
  1 30  1  0  0  0  0
  2  3  1  0  0  0  0
  2 31  1  0  0  0  0
  2 32  1  0  0  0  0
  3 29  1  0  0  0  0
  3  4  1  0  0  0  0
  3  6  1  0  0  0  0
  4  5  1  0  0  0  0
  4 33  1  0  0  0  0
  4 34  1  0  0  0  0
  5 35  1  0  0  0  0
  6  7  1  0  0  0  0
  6 36  1  0  0  0  0
  6 37  1  0  0  0  0
  7  8  1  0  0  0  0
  7 29  1  0  0  0  0
  7 38  1  0  0  0  0
  8 28  1  0  0  0  0
  8  9  1  0  0  0  0
  9 10  2  0  0  0  0
  9 39  1  0  0  0  0
 10 11  1  0  0  0  0
 11 28  2  0  0  0  0
 11 12  1  0  0  0  0
 12 13  1  0  0  0  0
 12 25  2  0  0  0  0
 13 24  1  0  0  0  0
 13 14  1  0  0  0  0
 14 15  1  0  0  0  0
 14 40  1  0  0  0  0
 14 41  1  0  0  0  0
 15 16  1  0  0  0  0
 15 42  1  0  0  0  0
 15 43  1  0  0  0  0
 16 17  1  0  0  0  0
 17 18  1  0  0  0  0
 17 24  1  0  0  0  0
 17 44  1  0  0  0  0
 18 19  1  0  0  0  0
 18 45  1  0  0  0  0
 18 46  1  0  0  0  0
 19 20  1  0  0  0  0
 20 21  1  0  0  0  0
 20 47  1  0  0  0  0
 20 48  1  0  0  0  0
 21 23  1  0  0  0  0
 21 22  1  0  0  0  0
 21 49  1  0  0  0  0
 22 23  1  0  0  0  0
 22 50  1  0  0  0  0
 22 51  1  0  0  0  0
 23 52  1  0  0  0  0
 23 53  1  0  0  0  0
 24 54  1  0  0  0  0
 24 55  1  0  0  0  0
 25 26  1  0  0  0  0
 26 27  2  0  0  0  0
 26 56  1  0  0  0  0
 27 28  1  0  0  0  0
 29 57  1  0  0  0  0
 29 58  1  0  0  0  0
M  END
> <s_m_source_file>
AV-unprocessed.smi

> <i_m_source_file_index>
74

> <i_lp_mmshare_version>
43012

> <i_f3d_flags>
0

> <s_epik_input>
W09IXVtDSDJdQzEoW0NIMl1bT0hdKVtDSDJdW0NIXShbQ0gyXTEpbihbY0hdbjIpYyhjMjMpbltjSF1uYzNONFtDSDJdW0NIMl1PW0NASF0oW0NIMl00KVtDSDJdT1tDSDJdW0NIXTVbQ0gyXVtDSDJdNQ==

> <s_epik_cmdline>
J2VwaWtfcHl0aG9uJywgJy1waCcsICc3LjAnLCAnLXRuJywgJzgnLCAnLW1hJywgJzIwMCcsICctbWV0YWxfYmluZGluZycsICctaW1hZScsICc8aW5maWxlLm1hZT4nLCAnLW9tYWUnLCAnPG91dGZpbGUubWFlPic=

> <r_lp_tautomer_probability>
1

> <r_epik_Ionization_Penalty>
5.89322e-05

> <r_epik_Ionization_Penalty_Charging>
0

> <r_epik_Ionization_Penalty_Neutral>
5.89322e-05

> <r_epik_State_Penalty>
-0

> <r_epik_Charging_Adjusted_Penalty>
0

> <i_epik_Tot_Q>
0

> <i_epik_Tot_abs_Q>
0

> <r_epik_Metal_State_Penalty>
-0

> <b_epik_Metal_Only>
0

> <s_lp_Force_Field>
OPLS_2005

> <r_lp_Energy>
49.0423

> <b_lp_Chiralities_Consistent>
1

> <s_lp_Variant>
AV-unprocessed.smi:74-1

> <Gold.Version>
5.8.1

> <Gold.Id.Protein>
6NUR|6NUR_protein|mol2

> <Gold.PLP.Fitness>
53.9255

> <Gold.PLP.PLP>
-45.1332

> <Gold.PLP.part.hbond>
-5.0750

> <Gold.PLP.part.metal>
0.0000

> <Gold.PLP.part.buried>
-3.1184

> <Gold.PLP.part.nonpolar>
-37.7847

> <Gold.PLP.part.repulsive>
0.8032

> <Gold.PLP.ligand.clash>
0.0424

> <Gold.PLP.ligand.torsion>
2.5870

> <Gold.PLP.Chemscore.Hbond>
3.2925

> <Gold.PLP.Chemscore.CHOScore>
0.8364

> <Gold.PLP.Chemscore.Metal>
0.0000

> <Gold.Chemscore.Hbonds>
donor molecule, donor type, donor heavy atom, donor atom, acceptor molecule, acceptor atom, score
      L1  H     1    30       P1 10195  0.99
      L1  H     5    35       P1 10747  0.68
      P1  H  7918  7932       L1     1  0.94
      P1  H 11000 11005       L1    10  0.70
      L1  C     9    39       P1 10957  0.29
      L1  C    26    56       P1 10175  0.64

> <Gold.PLP.Chemscore.Internal.Correction>
1.6221

> <Gold.Rescore>
     Score         DG    S(hbond)    S(metal)    S(lipo)     H(rot)  DE(clash)    DE(int)     intcor
     10.62     -15.40       2.42        0.00     102.36       3.97       1.02       3.75       ----

> <Gold.Chemscore.Fitness>
10.6226

> <Gold.Chemscore.DG>
-15.3967

> <Gold.Chemscore.ZeroCoef>
-5.4800

> <Gold.Chemscore.Hbond>
2.4231

> <Gold.Chemscore.Metal>
0.0000

> <Gold.Chemscore.Lipo>
102.3631

> <Gold.Chemscore.Internal_Hbond>
0.0000

> <Gold.Chemscore.DEClash>
1.0232

> <Gold.Chemscore.DEInternal>
3.7508

> <Gold.Chemscore.Rot>
3.9660

> <Gold.Chemscore.Internal.Correction>
   9.000000E+99

> <Gold.Chemscore.Hbonds>
donor molecule, donor type, donor heavy atom, donor atom, acceptor molecule, acceptor atom, score
      L1  H     1    30       P1 10195  0.94
      L1  H     5    35       P1 10747  0.69
      P1  H  7918  7932       L1     1  0.21
      P1  H 11000 11005       L1    10  0.65

> <Gold.Chemscore.Hbond.Weighted>
-8.0931

> <Gold.Chemscore.Metal.Weighted>
-0.0000

> <Gold.Chemscore.Lipo.Weighted>
-11.9765

> <Gold.Chemscore.Internal_Hbond.Weighted>
0.0000

> <Gold.Chemscore.DEClash.Weighted>
1.0232

> <Gold.Chemscore.DEInternal.Weighted>
3.7508

> <Gold.Chemscore.Rot.Weighted>
10.1529

> <Gold.Chemscore.Internal.Correction.Weighted>
   9.000000E+99

> <Gold.Protein.RotatedTorsions>
[ 6907 6896 6895 6894 ] final  -78.74 input  -60.11 | X-H torsion
[ 7974 7965 7964 7962 ] final -110.59 input  175.53 | X-H torsion
[ 8008 7997 7996 7995 ] final   80.67 input   59.86 | X-H torsion
[ 10167 10162 10161 10158 ] final -126.96 input  -65.29 | X-H torsion
[ 10718 10713 10712 10709 ] final  143.81 input   66.30 | X-H torsion
[ 10763 10752 10751 10750 ] final  -26.24 input  -60.55 | X-H torsion
[ 11005 11000 10999 10996 ] final   14.36 input  -57.11 | X-H torsion

> <Gold.Protein.ActiveResidues>
 VAL166  LYS551  ARG553  GLY616  TRP617  ASP618  TYR619  PRO620  LYS621  CYS622 
 ASP623  PHE694  ASN695  SER759  ASP760  ASP761  ALA762  ILE779  LEU786  VAL792 
 PHE793  MET794  SER795  GLU796  ALA797  LYS798  CYS799  TRP800  GLU811  SER814 

> <Gold.Protein.RotatedAtoms>
  150.6965  134.4226  159.5211 H   0  0  0  0  0  0  0  0  0  0  0  0  # atno 6907 bound_to 6896
  152.1966  134.8622  160.0521 H   0  0  0  0  0  0  0  0  0  0  0  0  # atno 6908 bound_to 6896
  151.9558  133.3645  159.4053 H   0  0  0  0  0  0  0  0  0  0  0  0  # atno 6909 bound_to 6896
  145.1664  140.8904  143.3560 H   0  0  0  0  0  0  0  0  0  0  0  0  # atno 7974 bound_to 7965
  155.8866  140.3441  155.5926 H   0  0  0  0  0  0  0  0  0  0  0  0  # atno 8008 bound_to 7997
  155.7659  140.0839  157.2151 H   0  0  0  0  0  0  0  0  0  0  0  0  # atno 8009 bound_to 7997
  154.4029  140.1527  156.2873 H   0  0  0  0  0  0  0  0  0  0  0  0  # atno 8010 bound_to 7997
  139.9659  143.5899  152.2429 H   0  0  0  0  0  0  0  0  0  0  0  0  # atno 10167 bound_to 10162
  157.3645  131.0970  151.0885 H   0  0  0  0  0  0  0  0  0  0  0  0  # atno 10718 bound_to 10713
  153.7128  135.6949  153.5033 H   0  0  0  0  0  0  0  0  0  0  0  0  # atno 10763 bound_to 10752
  153.2260  135.4353  155.0541 H   0  0  0  0  0  0  0  0  0  0  0  0  # atno 10764 bound_to 10752
  154.8309  135.3472  154.6664 H   0  0  0  0  0  0  0  0  0  0  0  0  # atno 10765 bound_to 10752
  140.4704  134.1037  155.7731 H   0  0  0  0  0  0  0  0  0  0  0  0  # atno 11005 bound_to 11000
  145.0277  139.3368  143.6040 LP  0  0  0  0  0  0  0  0  0  0  0  0  # atno 17320 bound_to 7965
  146.3475  139.9603  142.8718 LP  0  0  0  0  0  0  0  0  0  0  0  0  # atno 17321 bound_to 7965
  139.6518  144.7661  151.2133 LP  0  0  0  0  0  0  0  0  0  0  0  0  # atno 17342 bound_to 10162
  140.7538  143.6148  150.8570 LP  0  0  0  0  0  0  0  0  0  0  0  0  # atno 17343 bound_to 10162
  157.2012  130.6395  149.5739 LP  0  0  0  0  0  0  0  0  0  0  0  0  # atno 17370 bound_to 10713
  155.9743  130.4690  150.6381 LP  0  0  0  0  0  0  0  0  0  0  0  0  # atno 17371 bound_to 10713
  141.1580  133.8847  157.1926 LP  0  0  0  0  0  0  0  0  0  0  0  0  # atno 17394 bound_to 11000
  139.9889  135.0072  156.9928 LP  0  0  0  0  0  0  0  0  0  0  0  0  # atno 17395 bound_to 11000

$$$$
