AV-unprocessed.smi:684|AV-procd|sdf|3332|dock4
  -GOLD-   22720 0303D 1   1.00000     0.00000
 Structure written by MMmdl.
 40 41  0  0  0  0  0  0  0  0  1 V2000
  152.9887  142.5222  161.9005 C   0  0  0  0  0  0  0  0  0  0  0  0
  153.6991  141.9828  160.6536 C   0  0  0  0  0  0  0  0  0  0  0  0
  152.8411  142.0358  159.4827 N   0  0  0  0  0  0  0  0  0  0  0  0
  152.5156  140.8822  158.8604 N   0  0  0  0  0  0  0  0  0  0  0  0
  151.7488  141.2648  157.8511 C   0  0  0  0  0  0  0  0  0  0  0  0
  151.1439  140.4141  156.8910 N   0  0  0  0  0  0  0  0  0  0  0  0
  151.7191  139.4111  156.2059 C   0  0  0  0  0  0  0  0  0  0  0  0
  152.8983  139.0697  156.3044 O   0  0  0  0  0  0  0  0  0  0  0  0
  150.8406  138.8207  155.3821 N   0  0  0  0  0  0  0  0  0  0  0  0
  151.1314  137.6994  154.4926 C   0  0  0  0  0  0  0  0  0  0  0  0
  150.5276  136.3740  155.0031 C   0  0  0  0  0  0  0  0  0  0  0  0
  149.0282  136.5376  155.2921 C   0  0  0  0  0  0  0  0  0  0  0  0
  151.2556  135.8237  156.2420 C   0  0  0  0  0  0  0  0  0  0  0  0
  151.5608  142.6718  157.7932 C   0  0  0  0  0  0  0  0  0  0  0  0
  152.2836  143.1387  158.8561 C   0  0  0  0  0  0  0  0  0  0  0  0
  152.4960  144.5362  159.3430 C   0  0  0  0  0  0  0  0  0  0  0  0
  151.8961  145.0181  160.6426 C   0  0  0  0  0  0  0  0  0  0  0  0
  151.3729  145.5436  159.3249 C   0  0  0  0  0  0  0  0  0  0  0  0
  153.6432  142.4740  162.7707 H   0  0  0  0  0  0  0  0  0  0  0  0
  152.0923  141.9438  162.1257 H   0  0  0  0  0  0  0  0  0  0  0  0
  152.6912  143.5625  161.7648 H   0  0  0  0  0  0  0  0  0  0  0  0
  154.6024  142.5618  160.4552 H   0  0  0  0  0  0  0  0  0  0  0  0
  154.0194  140.9535  160.8160 H   0  0  0  0  0  0  0  0  0  0  0  0
  150.1675  140.5884  156.7055 H   0  0  0  0  0  0  0  0  0  0  0  0
  149.8949  139.1735  155.3683 H   0  0  0  0  0  0  0  0  0  0  0  0
  150.7921  137.9046  153.4756 H   0  0  0  0  0  0  0  0  0  0  0  0
  152.2164  137.6083  154.4342 H   0  0  0  0  0  0  0  0  0  0  0  0
  150.6247  135.6332  154.2080 H   0  0  0  0  0  0  0  0  0  0  0  0
  148.8551  137.2634  156.0872 H   0  0  0  0  0  0  0  0  0  0  0  0
  148.5820  135.5920  155.6017 H   0  0  0  0  0  0  0  0  0  0  0  0
  148.4907  136.8786  154.4068 H   0  0  0  0  0  0  0  0  0  0  0  0
  151.2374  136.5421  157.0622 H   0  0  0  0  0  0  0  0  0  0  0  0
  152.2980  135.5902  156.0262 H   0  0  0  0  0  0  0  0  0  0  0  0
  150.7878  134.9043  156.5953 H   0  0  0  0  0  0  0  0  0  0  0  0
  150.9889  143.2503  157.0830 H   0  0  0  0  0  0  0  0  0  0  0  0
  153.4954  144.8915  159.0994 H   0  0  0  0  0  0  0  0  0  0  0  0
  151.2543  144.3358  161.1966 H   0  0  0  0  0  0  0  0  0  0  0  0
  152.4939  145.6933  161.2515 H   0  0  0  0  0  0  0  0  0  0  0  0
  151.6229  146.5671  159.0535 H   0  0  0  0  0  0  0  0  0  0  0  0
  150.3914  145.2009  159.0025 H   0  0  0  0  0  0  0  0  0  0  0  0
  1  2  1  0  0  0  0
  1 19  1  0  0  0  0
  1 20  1  0  0  0  0
  1 21  1  0  0  0  0
  2  3  1  0  0  0  0
  2 22  1  0  0  0  0
  2 23  1  0  0  0  0
  3 15  1  0  0  0  0
  3  4  1  0  0  0  0
  4  5  2  0  0  0  0
  5  6  1  0  0  0  0
  5 14  1  0  0  0  0
  6  7  1  0  0  0  0
  6 24  1  0  0  0  0
  7  8  2  0  0  0  0
  7  9  1  0  0  0  0
  9 10  1  0  0  0  0
  9 25  1  0  0  0  0
 10 11  1  0  0  0  0
 10 26  1  0  0  0  0
 10 27  1  0  0  0  0
 11 12  1  0  0  0  0
 11 13  1  0  0  0  0
 11 28  1  0  0  0  0
 12 29  1  0  0  0  0
 12 30  1  0  0  0  0
 12 31  1  0  0  0  0
 13 32  1  0  0  0  0
 13 33  1  0  0  0  0
 13 34  1  0  0  0  0
 14 15  2  0  0  0  0
 14 35  1  0  0  0  0
 15 16  1  0  0  0  0
 16 18  1  0  0  0  0
 16 17  1  0  0  0  0
 16 36  1  0  0  0  0
 17 18  1  0  0  0  0
 17 37  1  0  0  0  0
 17 38  1  0  0  0  0
 18 39  1  0  0  0  0
 18 40  1  0  0  0  0
M  END
> <s_m_source_file>
AV-unprocessed.smi

> <i_m_source_file_index>
684

> <i_lp_mmshare_version>
43012

> <i_f3d_flags>
0

> <s_epik_input>
W0NIMl0xW0NIMl1bQ0hdMWMyW2NIXWMobm4yW0NIMl1bQ0gzXSlbTkhdQyg9TylbTkhdW0NIMl1bQ0hdKFtDSDNdKVtDSDNd

> <s_epik_cmdline>
J2VwaWtfcHl0aG9uJywgJy1waCcsICc3LjAnLCAnLXRuJywgJzgnLCAnLW1hJywgJzIwMCcsICctbWV0YWxfYmluZGluZycsICctaW1hZScsICc8aW5maWxlLm1hZT4nLCAnLW9tYWUnLCAnPG91dGZpbGUubWFlPic=

> <r_lp_tautomer_probability>
1

> <r_epik_Ionization_Penalty>
4.15598e-05

> <r_epik_Ionization_Penalty_Charging>
0

> <r_epik_Ionization_Penalty_Neutral>
4.15598e-05

> <r_epik_State_Penalty>
-0

> <r_epik_Charging_Adjusted_Penalty>
0

> <i_epik_Tot_Q>
0

> <i_epik_Tot_abs_Q>
0

> <r_epik_Metal_State_Penalty>
-0

> <b_epik_Metal_Only>
0

> <s_lp_Force_Field>
OPLS_2005

> <r_lp_Energy>
10.212

> <b_lp_Chiralities_Consistent>
1

> <s_lp_Variant>
AV-unprocessed.smi:684-1

> <Gold.Version>
5.8.1

> <Gold.Id.Protein>
6NUR|6NUR_protein|mol2

> <Gold.PLP.Fitness>
42.7923

> <Gold.PLP.PLP>
-41.4568

> <Gold.PLP.part.hbond>
-1.0000

> <Gold.PLP.part.metal>
0.0000

> <Gold.PLP.part.buried>
-4.6976

> <Gold.PLP.part.nonpolar>
-35.4786

> <Gold.PLP.part.repulsive>
0.1487

> <Gold.PLP.ligand.clash>
0.0000

> <Gold.PLP.ligand.torsion>
0.9140

> <Gold.PLP.Chemscore.Hbond>
1.0000

> <Gold.PLP.Chemscore.CHOScore>
0.0000

> <Gold.PLP.Chemscore.Metal>
0.0000

> <Gold.Chemscore.Hbonds>
donor molecule, donor type, donor heavy atom, donor atom, acceptor molecule, acceptor atom, score
      P1  H  7997  8010       L1     8  1.00

> <Gold.PLP.Chemscore.Internal.Correction>
0.1635

> <Gold.Rescore>
     Score         DG    S(hbond)    S(metal)    S(lipo)     H(rot)  DE(clash)    DE(int)     intcor
     15.92     -16.99       1.00        0.00     101.44       1.45       0.10       0.98       ----

> <Gold.Chemscore.Fitness>
15.9162

> <Gold.Chemscore.DG>
-16.9886

> <Gold.Chemscore.ZeroCoef>
-5.4800

> <Gold.Chemscore.Hbond>
1.0000

> <Gold.Chemscore.Metal>
0.0000

> <Gold.Chemscore.Lipo>
101.4397

> <Gold.Chemscore.Internal_Hbond>
0.0000

> <Gold.Chemscore.DEClash>
0.0959

> <Gold.Chemscore.DEInternal>
0.9766

> <Gold.Chemscore.Rot>
1.4452

> <Gold.Chemscore.Internal.Correction>
   9.000000E+99

> <Gold.Chemscore.Hbonds>
donor molecule, donor type, donor heavy atom, donor atom, acceptor molecule, acceptor atom, score
      P1  H  7997  8010       L1     8  1.00

> <Gold.Chemscore.Hbond.Weighted>
-3.3400

> <Gold.Chemscore.Metal.Weighted>
-0.0000

> <Gold.Chemscore.Lipo.Weighted>
-11.8685

> <Gold.Chemscore.Internal_Hbond.Weighted>
0.0000

> <Gold.Chemscore.DEClash.Weighted>
0.0959

> <Gold.Chemscore.DEInternal.Weighted>
0.9766

> <Gold.Chemscore.Rot.Weighted>
3.6998

> <Gold.Chemscore.Internal.Correction.Weighted>
   9.000000E+99

> <Gold.Protein.RotatedTorsions>
[ 6907 6896 6895 6894 ] final   96.60 input  -60.11 | X-H torsion
[ 7974 7965 7964 7962 ] final  171.34 input  175.53 | X-H torsion
[ 8008 7997 7996 7995 ] final   82.29 input   59.86 | X-H torsion
[ 10167 10162 10161 10158 ] final  179.20 input  -65.29 | X-H torsion
[ 10718 10713 10712 10709 ] final -161.60 input   66.30 | X-H torsion
[ 10763 10752 10751 10750 ] final  -17.66 input  -60.55 | X-H torsion
[ 11005 11000 10999 10996 ] final  -72.34 input  -57.11 | X-H torsion

> <Gold.Protein.ActiveResidues>
 VAL166  LYS551  ARG553  GLY616  TRP617  ASP618  TYR619  PRO620  LYS621  CYS622 
 ASP623  PHE694  ASN695  SER759  ASP760  ASP761  ALA762  ILE779  LEU786  VAL792 
 PHE793  MET794  SER795  GLU796  ALA797  LYS798  CYS799  TRP800  GLU811  SER814 

> <Gold.Protein.RotatedAtoms>
  152.5433  134.0862  159.8256 H   0  0  0  0  0  0  0  0  0  0  0  0  # atno 6907 bound_to 6896
  151.0957  133.5274  159.2620 H   0  0  0  0  0  0  0  0  0  0  0  0  # atno 6908 bound_to 6896
  151.2048  135.0466  159.8941 H   0  0  0  0  0  0  0  0  0  0  0  0  # atno 6909 bound_to 6896
  144.7297  139.9336  143.6425 H   0  0  0  0  0  0  0  0  0  0  0  0  # atno 7974 bound_to 7965
  155.9086  140.3429  155.6081 H   0  0  0  0  0  0  0  0  0  0  0  0  # atno 8008 bound_to 7997
  155.7414  140.0808  157.2262 H   0  0  0  0  0  0  0  0  0  0  0  0  # atno 8009 bound_to 7997
  154.4053  140.1570  156.2608 H   0  0  0  0  0  0  0  0  0  0  0  0  # atno 8010 bound_to 7997
  139.5326  144.2589  152.0723 H   0  0  0  0  0  0  0  0  0  0  0  0  # atno 10167 bound_to 10162
  156.5985  130.8800  151.2908 H   0  0  0  0  0  0  0  0  0  0  0  0  # atno 10718 bound_to 10713
  153.5773  135.7006  153.5478 H   0  0  0  0  0  0  0  0  0  0  0  0  # atno 10763 bound_to 10752
  153.3292  135.4052  155.1481 H   0  0  0  0  0  0  0  0  0  0  0  0  # atno 10764 bound_to 10752
  154.8623  135.3714  154.5299 H   0  0  0  0  0  0  0  0  0  0  0  0  # atno 10765 bound_to 10752
  141.1607  133.6844  156.7044 H   0  0  0  0  0  0  0  0  0  0  0  0  # atno 11005 bound_to 11000
  146.0839  139.3827  143.0448 LP  0  0  0  0  0  0  0  0  0  0  0  0  # atno 17320 bound_to 7965
  145.7804  140.9859  143.1102 LP  0  0  0  0  0  0  0  0  0  0  0  0  # atno 17321 bound_to 7965
  140.2054  144.4616  150.6411 LP  0  0  0  0  0  0  0  0  0  0  0  0  # atno 17342 bound_to 10162
  140.6514  143.2226  151.6068 LP  0  0  0  0  0  0  0  0  0  0  0  0  # atno 17343 bound_to 10162
  157.7286  130.9658  150.1748 LP  0  0  0  0  0  0  0  0  0  0  0  0  # atno 17370 bound_to 10713
  156.2489  130.3698  149.8254 LP  0  0  0  0  0  0  0  0  0  0  0  0  # atno 17371 bound_to 10713
  140.2934  134.8222  157.4036 LP  0  0  0  0  0  0  0  0  0  0  0  0  # atno 17394 bound_to 11000
  140.1326  134.5075  155.8093 LP  0  0  0  0  0  0  0  0  0  0  0  0  # atno 17395 bound_to 11000

$$$$
