AV-unprocessed.smi:1033|AV-procd|sdf|4493|dock1
  -GOLD-   22720 2483D 1   1.00000     0.00000
 Structure written by MMmdl.
 56 58  0  0  0  0  0  0  0  0  2 V2000
  152.2726  143.6344  161.4090 C   0  0  0  0  0  0  0  0  0  0  0  0
  152.1985  142.7189  160.1997 C   0  0  0  0  0  0  0  0  0  0  0  0
  152.5421  141.3560  160.3474 C   0  0  0  0  0  0  0  0  0  0  0  0
  152.4861  140.4716  159.2481 C   0  0  0  0  0  0  0  0  0  0  0  0
  152.7739  139.1201  159.1644 N   0  0  0  0  0  0  0  0  0  0  0  0
  152.5293  138.8719  157.8810 C   0  0  0  0  0  0  0  0  0  0  0  0
  152.1235  139.9069  157.1203 N   0  0  0  0  0  0  0  0  0  0  0  0
  151.8053  139.8870  155.7042 C   0  0  0  0  0  0  0  0  0  0  0  0
  150.2933  140.0262  155.4457 C   0  0  1  0  0  0  0  0  0  0  0  0
  149.9567  141.3993  155.3886 O   0  0  0  0  0  0  0  0  0  0  0  0
  149.8740  139.3554  154.1229 C   0  0  0  0  0  0  0  0  0  0  0  0
  149.7080  137.8850  154.2517 N   0  3  0  0  0  0  0  0  0  0  0  0
  148.5908  137.4828  155.1480 C   0  0  0  0  0  0  0  0  0  0  0  0
  148.4539  135.9472  155.1715 C   0  0  0  0  0  0  0  0  0  0  0  0
  149.6813  135.2611  155.5824 N   0  0  0  0  0  0  0  0  0  0  0  0
  150.0238  135.4120  157.0017 C   0  0  0  0  0  0  0  0  0  0  0  0
  148.8740  135.1487  157.9948 C   0  0  1  0  0  0  0  0  0  0  0  0
  148.4473  133.6746  158.0456 C   0  0  0  0  0  0  0  0  0  0  0  0
  149.3138  135.5240  159.2827 O   0  0  0  0  0  0  0  0  0  0  0  0
  150.7649  135.6759  154.6914 C   0  0  0  0  0  0  0  0  0  0  0  0
  150.9679  137.2048  154.6487 C   0  0  0  0  0  0  0  0  0  0  0  0
  152.0745  140.9929  157.9868 C   0  0  0  0  0  0  0  0  0  0  0  0
  151.7293  142.3464  157.8268 C   0  0  0  0  0  0  0  0  0  0  0  0
  151.7901  143.2160  158.9358 C   0  0  0  0  0  0  0  0  0  0  0  0
  151.4140  144.6759  158.7541 C   0  0  0  0  0  0  0  0  0  0  0  0
  152.6319  143.1018  162.2902 H   0  0  0  0  0  0  0  0  0  0  0  0
  151.2875  144.0397  161.6412 H   0  0  0  0  0  0  0  0  0  0  0  0
  152.9537  144.4642  161.2203 H   0  0  0  0  0  0  0  0  0  0  0  0
  152.8519  140.9767  161.3102 H   0  0  0  0  0  0  0  0  0  0  0  0
  152.6581  137.8818  157.4683 H   0  0  0  0  0  0  0  0  0  0  0  0
  152.3570  140.6867  155.2074 H   0  0  0  0  0  0  0  0  0  0  0  0
  152.1747  138.9484  155.2892 H   0  0  0  0  0  0  0  0  0  0  0  0
  149.7590  139.5793  156.2832 H   0  0  0  0  0  0  0  0  0  0  0  0
  149.1751  141.4959  154.8648 H   0  0  0  0  0  0  0  0  0  0  0  0
  148.9344  139.8014  153.7922 H   0  0  0  0  0  0  0  0  0  0  0  0
  150.6028  139.5658  153.3387 H   0  0  0  0  0  0  0  0  0  0  0  0
  148.7546  137.8751  156.1524 H   0  0  0  0  0  0  0  0  0  0  0  0
  147.6521  137.9093  154.7975 H   0  0  0  0  0  0  0  0  0  0  0  0
  147.6192  135.6556  155.8075 H   0  0  0  0  0  0  0  0  0  0  0  0
  148.1813  135.6083  154.1709 H   0  0  0  0  0  0  0  0  0  0  0  0
  150.8345  134.7220  157.2404 H   0  0  0  0  0  0  0  0  0  0  0  0
  150.4263  136.4080  157.1854 H   0  0  0  0  0  0  0  0  0  0  0  0
  148.0119  135.7727  157.7611 H   0  0  0  0  0  0  0  0  0  0  0  0
  148.0551  133.3456  157.0830 H   0  0  0  0  0  0  0  0  0  0  0  0
  147.6638  133.5174  158.7877 H   0  0  0  0  0  0  0  0  0  0  0  0
  149.2852  133.0253  158.3017 H   0  0  0  0  0  0  0  0  0  0  0  0
  148.5664  135.8098  159.7856 H   0  0  0  0  0  0  0  0  0  0  0  0
  151.6944  135.1861  154.9846 H   0  0  0  0  0  0  0  0  0  0  0  0
  150.5497  135.3214  153.6824 H   0  0  0  0  0  0  0  0  0  0  0  0
  151.7518  137.4403  153.9279 H   0  0  0  0  0  0  0  0  0  0  0  0
  151.3066  137.5815  155.6147 H   0  0  0  0  0  0  0  0  0  0  0  0
  151.4193  142.7118  156.8590 H   0  0  0  0  0  0  0  0  0  0  0  0
  151.1174  144.8862  157.7261 H   0  0  0  0  0  0  0  0  0  0  0  0
  152.2589  145.3206  158.9969 H   0  0  0  0  0  0  0  0  0  0  0  0
  150.5790  144.9390  159.4039 H   0  0  0  0  0  0  0  0  0  0  0  0
  149.4827  137.5423  153.3284 H   0  0  0  0  0  0  0  0  0  0  0  0
  1  2  1  0  0  0  0
  1 26  1  0  0  0  0
  1 27  1  0  0  0  0
  1 28  1  0  0  0  0
  2 24  1  0  0  0  0
  2  3  2  0  0  0  0
  3  4  1  0  0  0  0
  3 29  1  0  0  0  0
  4 22  2  0  0  0  0
  4  5  1  0  0  0  0
  5  6  2  0  0  0  0
  6  7  1  0  0  0  0
  6 30  1  0  0  0  0
  7  8  1  0  0  0  0
  7 22  1  0  0  0  0
  8  9  1  0  0  0  0
  8 31  1  0  0  0  0
  8 32  1  0  0  0  0
  9 10  1  0  0  0  0
  9 11  1  0  0  0  0
  9 33  1  0  0  0  0
 10 34  1  0  0  0  0
 11 12  1  0  0  0  0
 11 35  1  0  0  0  0
 11 36  1  0  0  0  0
 12 21  1  0  0  0  0
 12 13  1  0  0  0  0
 12 56  1  0  0  0  0
 13 14  1  0  0  0  0
 13 37  1  0  0  0  0
 13 38  1  0  0  0  0
 14 15  1  0  0  0  0
 14 39  1  0  0  0  0
 14 40  1  0  0  0  0
 15 16  1  0  0  0  0
 15 20  1  0  0  0  0
 16 17  1  0  0  0  0
 16 41  1  0  0  0  0
 16 42  1  0  0  0  0
 17 18  1  0  0  0  0
 17 19  1  0  0  0  0
 17 43  1  0  0  0  0
 18 44  1  0  0  0  0
 18 45  1  0  0  0  0
 18 46  1  0  0  0  0
 19 47  1  0  0  0  0
 20 21  1  0  0  0  0
 20 48  1  0  0  0  0
 20 49  1  0  0  0  0
 21 50  1  0  0  0  0
 21 51  1  0  0  0  0
 22 23  1  0  0  0  0
 23 24  2  0  0  0  0
 23 52  1  0  0  0  0
 24 25  1  0  0  0  0
 25 53  1  0  0  0  0
 25 54  1  0  0  0  0
 25 55  1  0  0  0  0
M  CHG  1  12   1
M  END
> <s_m_source_file>
AV-unprocessed.smi

> <i_m_source_file_index>
1033

> <i_lp_mmshare_version>
43012

> <i_f3d_flags>
0

> <s_epik_input>
W0NIM11jKFtjSF0xKWMoW0NIM10pW2NIXWMoYzEyKW4oW2NIXW4yKVtDSDJdW0NASF0oW09IXSlbQ0gyXU4zW0NIMl1bQ0gyXU4oW0NIMl1bQ0gyXTMpW0NIMl1bQ0BIXShbQ0gzXSlbT0hd

> <s_epik_cmdline>
J2VwaWtfcHl0aG9uJywgJy1waCcsICc3LjAnLCAnLXRuJywgJzgnLCAnLW1hJywgJzIwMCcsICctbWV0YWxfYmluZGluZycsICctaW1hZScsICc8aW5maWxlLm1hZT4nLCAnLW9tYWUnLCAnPG91dGZpbGUubWFlPic=

> <r_epik_Ionization_Penalty>
0.131893

> <r_epik_Ionization_Penalty_Charging>
0.00208556

> <r_epik_Ionization_Penalty_Neutral>
0.129808

> <r_epik_State_Penalty>
0.452125

> <r_epik_Charging_Adjusted_Penalty>
0.454211

> <i_epik_Tot_Q>
1

> <i_epik_Tot_abs_Q>
1

> <r_epik_Metal_State_Penalty>
0.376389

> <b_epik_Metal_Only>
0

> <s_lp_Force_Field>
OPLS_2005

> <r_lp_Energy>
31.8043

> <b_lp_Chiralities_Consistent>
1

> <s_lp_Variant>
AV-unprocessed.smi:1033-4

> <Gold.Version>
5.8.1

> <Gold.Id.Protein>
6NUR|6NUR_protein|mol2

> <Gold.PLP.Fitness>
50.3996

> <Gold.PLP.PLP>
-42.7594

> <Gold.PLP.part.hbond>
-2.6019

> <Gold.PLP.part.metal>
0.0000

> <Gold.PLP.part.buried>
-2.5799

> <Gold.PLP.part.nonpolar>
-36.5151

> <Gold.PLP.part.repulsive>
0.1001

> <Gold.PLP.ligand.clash>
0.0000

> <Gold.PLP.ligand.torsion>
0.7421

> <Gold.PLP.Chemscore.Hbond>
3.0000

> <Gold.PLP.Chemscore.CHOScore>
0.0000

> <Gold.PLP.Chemscore.Metal>
0.0000

> <Gold.Chemscore.Hbonds>
donor molecule, donor type, donor heavy atom, donor atom, acceptor molecule, acceptor atom, score
      L1  H    12    56       P1  7948  2.00
      P1  H  6896  6907       L1    19  1.00

> <Gold.PLP.Chemscore.Internal.Correction>
0.1243

> <Gold.Rescore>
     Score         DG    S(hbond)    S(metal)    S(lipo)     H(rot)  DE(clash)    DE(int)     intcor
     16.57     -18.23       1.93        0.00     121.00       3.07       0.06       1.61       ----

> <Gold.Chemscore.Fitness>
16.5661

> <Gold.Chemscore.DG>
-18.2310

> <Gold.Chemscore.ZeroCoef>
-5.4800

> <Gold.Chemscore.Hbond>
1.9281

> <Gold.Chemscore.Metal>
0.0000

> <Gold.Chemscore.Lipo>
121.0049

> <Gold.Chemscore.Internal_Hbond>
0.0000

> <Gold.Chemscore.DEClash>
0.0594

> <Gold.Chemscore.DEInternal>
1.6055

> <Gold.Chemscore.Rot>
3.0650

> <Gold.Chemscore.Internal.Correction>
   9.000000E+99

> <Gold.Chemscore.Hbonds>
donor molecule, donor type, donor heavy atom, donor atom, acceptor molecule, acceptor atom, score
      L1  H    12    56       P1  7948  0.89
      P1  H  6896  6907       L1    19  0.82

> <Gold.Chemscore.Hbond.Weighted>
-6.4399

> <Gold.Chemscore.Metal.Weighted>
-0.0000

> <Gold.Chemscore.Lipo.Weighted>
-14.1576

> <Gold.Chemscore.Internal_Hbond.Weighted>
0.0000

> <Gold.Chemscore.DEClash.Weighted>
0.0594

> <Gold.Chemscore.DEInternal.Weighted>
1.6055

> <Gold.Chemscore.Rot.Weighted>
7.8465

> <Gold.Chemscore.Internal.Correction.Weighted>
   9.000000E+99

> <Gold.Protein.RotatedTorsions>
[ 6907 6896 6895 6894 ] final  -53.19 input  -60.11 | X-H torsion
[ 7974 7965 7964 7962 ] final  -23.01 input  175.53 | X-H torsion
[ 8008 7997 7996 7995 ] final  119.55 input   59.86 | X-H torsion
[ 10167 10162 10161 10158 ] final -178.43 input  -65.29 | X-H torsion
[ 10718 10713 10712 10709 ] final   72.12 input   66.30 | X-H torsion
[ 10763 10752 10751 10750 ] final -100.66 input  -60.55 | X-H torsion
[ 11005 11000 10999 10996 ] final  -52.60 input  -57.11 | X-H torsion

> <Gold.Protein.ActiveResidues>
 VAL166  LYS551  ARG553  GLY616  TRP617  ASP618  TYR619  PRO620  LYS621  CYS622 
 ASP623  PHE694  ASN695  SER759  ASP760  ASP761  ALA762  ILE779  LEU786  VAL792 
 PHE793  MET794  SER795  GLU796  ALA797  LYS798  CYS799  TRP800  GLU811  SER814 

> <Gold.Protein.RotatedAtoms>
  150.8449  134.7755  159.6962 H   0  0  0  0  0  0  0  0  0  0  0  0  # atno 6907 bound_to 6896
  152.4528  134.5353  159.9833 H   0  0  0  0  0  0  0  0  0  0  0  0  # atno 6908 bound_to 6896
  151.5485  133.3383  159.2984 H   0  0  0  0  0  0  0  0  0  0  0  0  # atno 6909 bound_to 6896
  146.1642  140.4558  142.8559 H   0  0  0  0  0  0  0  0  0  0  0  0  # atno 7974 bound_to 7965
  156.2601  140.2850  156.1009 H   0  0  0  0  0  0  0  0  0  0  0  0  # atno 8008 bound_to 7997
  155.1361  140.0394  157.2804 H   0  0  0  0  0  0  0  0  0  0  0  0  # atno 8009 bound_to 7997
  154.6564  140.2556  155.7163 H   0  0  0  0  0  0  0  0  0  0  0  0  # atno 8010 bound_to 7997
  139.5433  144.2304  152.0938 H   0  0  0  0  0  0  0  0  0  0  0  0  # atno 10167 bound_to 10162
  157.6485  130.9563  150.0884 H   0  0  0  0  0  0  0  0  0  0  0  0  # atno 10718 bound_to 10713
  154.7597  135.4927  153.9440 H   0  0  0  0  0  0  0  0  0  0  0  0  # atno 10763 bound_to 10752
  153.1236  135.6737  153.9301 H   0  0  0  0  0  0  0  0  0  0  0  0  # atno 10764 bound_to 10752
  153.9026  135.3108  155.3427 H   0  0  0  0  0  0  0  0  0  0  0  0  # atno 10765 bound_to 10752
  141.0933  133.6629  156.4049 H   0  0  0  0  0  0  0  0  0  0  0  0  # atno 11005 bound_to 11000
  144.8068  140.6315  143.6441 LP  0  0  0  0  0  0  0  0  0  0  0  0  # atno 17320 bound_to 7965
  145.4511  139.1523  143.3918 LP  0  0  0  0  0  0  0  0  0  0  0  0  # atno 17321 bound_to 7965
  140.1786  144.4866  150.6540 LP  0  0  0  0  0  0  0  0  0  0  0  0  # atno 17342 bound_to 10162
  140.6671  143.2272  151.5716 LP  0  0  0  0  0  0  0  0  0  0  0  0  # atno 17343 bound_to 10162
  156.1840  130.3651  149.8997 LP  0  0  0  0  0  0  0  0  0  0  0  0  # atno 17370 bound_to 10713
  156.6942  130.8907  151.3592 LP  0  0  0  0  0  0  0  0  0  0  0  0  # atno 17371 bound_to 10713
  140.5200  134.6313  157.5315 LP  0  0  0  0  0  0  0  0  0  0  0  0  # atno 17394 bound_to 11000
  139.9763  134.7209  155.9943 LP  0  0  0  0  0  0  0  0  0  0  0  0  # atno 17395 bound_to 11000

$$$$
