AV-unprocessed.smi:2674|AV-procd|sdf|10359|dock2
  -GOLD-   2272014383D 1   1.00000     0.00000
 Structure written by MMmdl.
 45 46  0  0  0  0  0  0  0  0  2 V2000
  146.9660  134.5163  153.9886 C   0  0  0  0  0  0  0  0  0  0  0  0
  147.9911  133.7863  153.1959 N   0  3  1  0  0  0  0  0  0  0  0  0
  149.0287  133.1579  154.0659 C   0  0  0  0  0  0  0  0  0  0  0  0
  150.2251  134.0791  154.3895 C   0  0  0  0  0  0  0  0  0  0  0  0
  149.8978  135.4810  154.1522 N   0  0  0  0  0  0  0  0  0  0  0  0
  150.3404  136.5070  154.8943 C   0  0  0  0  0  0  0  0  0  0  0  0
  151.0752  136.3643  155.8722 O   0  0  0  0  0  0  0  0  0  0  0  0
  149.8812  137.6823  154.4293 N   0  0  0  0  0  0  0  0  0  0  0  0
  150.1694  138.9876  154.9099 C   0  0  0  0  0  0  0  0  0  0  0  0
  151.4579  139.1499  155.4673 C   0  0  0  0  0  0  0  0  0  0  0  0
  151.8382  140.4057  155.9792 C   0  0  0  0  0  0  0  0  0  0  0  0
  150.9186  141.4679  155.9208 C   0  0  0  0  0  0  0  0  0  0  0  0
  149.6566  141.2219  155.3493 C   0  0  0  0  0  0  0  0  0  0  0  0
  149.2900  140.0192  154.8583 N   0  0  0  0  0  0  0  0  0  0  0  0
  147.3554  132.8734  152.1880 C   0  0  0  0  0  0  0  0  0  0  0  0
  146.3479  133.5618  151.2270 C   0  0  0  0  0  0  0  0  0  0  0  0
  145.7154  132.5685  150.2384 C   0  0  0  0  0  0  0  0  0  0  0  0
  145.0283  131.4098  150.9711 C   0  0  0  0  0  0  0  0  0  0  0  0
  146.0100  130.7082  151.9177 C   0  0  0  0  0  0  0  0  0  0  0  0
  146.6386  131.7027  152.9067 C   0  0  0  0  0  0  0  0  0  0  0  0
  146.5284  133.8666  154.7478 H   0  0  0  0  0  0  0  0  0  0  0  0
  146.1527  134.8924  153.3709 H   0  0  0  0  0  0  0  0  0  0  0  0
  147.3935  135.3866  154.4851 H   0  0  0  0  0  0  0  0  0  0  0  0
  148.5561  132.8109  154.9861 H   0  0  0  0  0  0  0  0  0  0  0  0
  149.4443  132.2827  153.5677 H   0  0  0  0  0  0  0  0  0  0  0  0
  150.5119  133.9684  155.4356 H   0  0  0  0  0  0  0  0  0  0  0  0
  151.1019  133.8279  153.7917 H   0  0  0  0  0  0  0  0  0  0  0  0
  149.2941  135.6839  153.3686 H   0  0  0  0  0  0  0  0  0  0  0  0
  149.2682  137.6418  153.6285 H   0  0  0  0  0  0  0  0  0  0  0  0
  152.1520  138.3228  155.5052 H   0  0  0  0  0  0  0  0  0  0  0  0
  152.8181  140.5502  156.4097 H   0  0  0  0  0  0  0  0  0  0  0  0
  151.1729  142.4451  156.3037 H   0  0  0  0  0  0  0  0  0  0  0  0
  148.9212  142.0103  155.2855 H   0  0  0  0  0  0  0  0  0  0  0  0
  148.1540  132.4658  151.5650 H   0  0  0  0  0  0  0  0  0  0  0  0
  145.5560  134.0466  151.8001 H   0  0  0  0  0  0  0  0  0  0  0  0
  146.8388  134.3386  150.6402 H   0  0  0  0  0  0  0  0  0  0  0  0
  144.9935  133.0849  149.6045 H   0  0  0  0  0  0  0  0  0  0  0  0
  146.4843  132.1753  149.5720 H   0  0  0  0  0  0  0  0  0  0  0  0
  144.1759  131.7867  151.5378 H   0  0  0  0  0  0  0  0  0  0  0  0
  144.6298  130.6955  150.2499 H   0  0  0  0  0  0  0  0  0  0  0  0
  145.4951  129.9172  152.4641 H   0  0  0  0  0  0  0  0  0  0  0  0
  146.7957  130.2220  151.3377 H   0  0  0  0  0  0  0  0  0  0  0  0
  147.3222  131.1531  153.5519 H   0  0  0  0  0  0  0  0  0  0  0  0
  145.8610  132.0993  153.5611 H   0  0  0  0  0  0  0  0  0  0  0  0
  148.4829  134.4820  152.6534 H   0  0  0  0  0  0  0  0  0  0  0  0
  1  2  1  0  0  0  0
  1 21  1  0  0  0  0
  1 22  1  0  0  0  0
  1 23  1  0  0  0  0
  2  3  1  0  0  0  0
  2 15  1  0  0  0  0
  2 45  1  0  0  0  0
  3  4  1  0  0  0  0
  3 24  1  0  0  0  0
  3 25  1  0  0  0  0
  4  5  1  0  0  0  0
  4 26  1  0  0  0  0
  4 27  1  0  0  0  0
  5  6  1  0  0  0  0
  5 28  1  0  0  0  0
  6  7  2  0  0  0  0
  6  8  1  0  0  0  0
  8  9  1  0  0  0  0
  8 29  1  0  0  0  0
  9 14  1  0  0  0  0
  9 10  2  0  0  0  0
 10 11  1  0  0  0  0
 10 30  1  0  0  0  0
 11 12  2  0  0  0  0
 11 31  1  0  0  0  0
 12 13  1  0  0  0  0
 12 32  1  0  0  0  0
 13 14  2  0  0  0  0
 13 33  1  0  0  0  0
 15 20  1  0  0  0  0
 15 16  1  0  0  0  0
 15 34  1  0  0  0  0
 16 17  1  0  0  0  0
 16 35  1  0  0  0  0
 16 36  1  0  0  0  0
 17 18  1  0  0  0  0
 17 37  1  0  0  0  0
 17 38  1  0  0  0  0
 18 19  1  0  0  0  0
 18 39  1  0  0  0  0
 18 40  1  0  0  0  0
 19 20  1  0  0  0  0
 19 41  1  0  0  0  0
 19 42  1  0  0  0  0
 20 43  1  0  0  0  0
 20 44  1  0  0  0  0
M  CHG  1   2   1
M  END
> <s_m_source_file>
AV-unprocessed.smi

> <i_m_source_file_index>
2674

> <i_lp_mmshare_version>
43012

> <i_f3d_flags>
0

> <s_epik_input>
W0NIMl0xW0NIMl1bQ0gyXVtDSDJdW0NIMl1bQ0hdMU4oW0NIM10pW0NIMl1bQ0gyXVtOSF1DKD1PKVtOSF1jMltjSF1bY0hdW2NIXVtjSF1uMg==

> <s_epik_cmdline>
J2VwaWtfcHl0aG9uJywgJy1waCcsICc3LjAnLCAnLXRuJywgJzgnLCAnLW1hJywgJzIwMCcsICctbWV0YWxfYmluZGluZycsICctaW1hZScsICc8aW5maWxlLm1hZT4nLCAnLW9tYWUnLCAnPG91dGZpbGUubWFlPic=

> <r_epik_Ionization_Penalty>
0.00206741

> <r_epik_Ionization_Penalty_Charging>
0.00203269

> <r_epik_Ionization_Penalty_Neutral>
3.47205e-05

> <r_epik_State_Penalty>
0.00139005

> <r_epik_Charging_Adjusted_Penalty>
0.00342273

> <i_epik_Tot_Q>
1

> <i_epik_Tot_abs_Q>
1

> <r_epik_Metal_State_Penalty>
-0

> <b_epik_Metal_Only>
0

> <s_lp_Force_Field>
OPLS_2005

> <r_lp_Energy>
21.1862

> <b_lp_Chiralities_Consistent>
1

> <s_lp_Variant>
AV-unprocessed.smi:2674-2

> <Gold.Version>
5.8.1

> <Gold.Id.Protein>
6NUR|6NUR_protein|mol2

> <Gold.PLP.Fitness>
47.5291

> <Gold.PLP.PLP>
-37.2461

> <Gold.PLP.part.hbond>
-3.2060

> <Gold.PLP.part.metal>
0.0000

> <Gold.PLP.part.buried>
-4.5798

> <Gold.PLP.part.nonpolar>
-29.9999

> <Gold.PLP.part.repulsive>
0.1906

> <Gold.PLP.ligand.clash>
0.0000

> <Gold.PLP.ligand.torsion>
1.1240

> <Gold.PLP.Chemscore.Hbond>
3.2392

> <Gold.PLP.Chemscore.CHOScore>
0.8917

> <Gold.PLP.Chemscore.Metal>
0.0000

> <Gold.Chemscore.Hbonds>
donor molecule, donor type, donor heavy atom, donor atom, acceptor molecule, acceptor atom, score
      L1  H     2    45       P1  7948  1.60
      L1  H     5    28       P1  7948  1.00
      L1  H     8    29       P1  7948  0.32
      P1  H 10752 10765       L1     7  0.17
      L1  C    13    33       P1  8028  0.51

> <Gold.PLP.Chemscore.Internal.Correction>
0.1384

> <Gold.Rescore>
     Score         DG    S(hbond)    S(metal)    S(lipo)     H(rot)  DE(clash)    DE(int)     intcor
     13.80     -16.55       1.71        0.00      82.95       1.70       0.00       2.74       ----

> <Gold.Chemscore.Fitness>
13.8040

> <Gold.Chemscore.DG>
-16.5487

> <Gold.Chemscore.ZeroCoef>
-5.4800

> <Gold.Chemscore.Hbond>
1.7135

> <Gold.Chemscore.Metal>
0.0000

> <Gold.Chemscore.Lipo>
82.9501

> <Gold.Chemscore.Internal_Hbond>
0.0000

> <Gold.Chemscore.DEClash>
0.0029

> <Gold.Chemscore.DEInternal>
2.7418

> <Gold.Chemscore.Rot>
1.7030

> <Gold.Chemscore.Internal.Correction>
   9.000000E+99

> <Gold.Chemscore.Hbonds>
donor molecule, donor type, donor heavy atom, donor atom, acceptor molecule, acceptor atom, score
      L1  H     2    45       P1  7948  0.12
      L1  H     5    28       P1  7948  0.38
      L1  H     8    29       P1  7948  0.31
      P1  H 10752 10765       L1     7  0.03

> <Gold.Chemscore.Hbond.Weighted>
-5.7232

> <Gold.Chemscore.Metal.Weighted>
-0.0000

> <Gold.Chemscore.Lipo.Weighted>
-9.7052

> <Gold.Chemscore.Internal_Hbond.Weighted>
0.0000

> <Gold.Chemscore.DEClash.Weighted>
0.0029

> <Gold.Chemscore.DEInternal.Weighted>
2.7418

> <Gold.Chemscore.Rot.Weighted>
4.3597

> <Gold.Chemscore.Internal.Correction.Weighted>
   9.000000E+99

> <Gold.Protein.RotatedTorsions>
[ 6907 6896 6895 6894 ] final  -18.31 input  -60.11 | X-H torsion
[ 7974 7965 7964 7962 ] final  -21.59 input  175.53 | X-H torsion
[ 8008 7997 7996 7995 ] final  140.44 input   59.86 | X-H torsion
[ 10167 10162 10161 10158 ] final   63.28 input  -65.29 | X-H torsion
[ 10718 10713 10712 10709 ] final   72.92 input   66.30 | X-H torsion
[ 10763 10752 10751 10750 ] final -173.53 input  -60.55 | X-H torsion
[ 11005 11000 10999 10996 ] final   88.14 input  -57.11 | X-H torsion

> <Gold.Protein.ActiveResidues>
 VAL166  LYS551  ARG553  GLY616  TRP617  ASP618  TYR619  PRO620  LYS621  CYS622 
 ASP623  PHE694  ASN695  SER759  ASP760  ASP761  ALA762  ILE779  LEU786  VAL792 
 PHE793  MET794  SER795  GLU796  ALA797  LYS798  CYS799  TRP800  GLU811  SER814 

> <Gold.Protein.RotatedAtoms>
  151.2801  135.0711  159.9165 H   0  0  0  0  0  0  0  0  0  0  0  0  # atno 6907 bound_to 6896
  152.5335  134.0040  159.7918 H   0  0  0  0  0  0  0  0  0  0  0  0  # atno 6908 bound_to 6896
  151.0292  133.5755  159.2693 H   0  0  0  0  0  0  0  0  0  0  0  0  # atno 6909 bound_to 6896
  146.1724  140.4362  142.8527 H   0  0  0  0  0  0  0  0  0  0  0  0  # atno 7974 bound_to 7965
  156.2979  140.2341  156.4402 H   0  0  0  0  0  0  0  0  0  0  0  0  # atno 8008 bound_to 7997
  154.8193  140.0439  157.1419 H   0  0  0  0  0  0  0  0  0  0  0  0  # atno 8009 bound_to 7997
  154.9334  140.3019  155.5160 H   0  0  0  0  0  0  0  0  0  0  0  0  # atno 8010 bound_to 7997
  140.1347  144.4610  150.6845 H   0  0  0  0  0  0  0  0  0  0  0  0  # atno 10167 bound_to 10162
  157.6524  130.9603  150.0997 H   0  0  0  0  0  0  0  0  0  0  0  0  # atno 10718 bound_to 10713
  154.6067  135.2860  155.0476 H   0  0  0  0  0  0  0  0  0  0  0  0  # atno 10763 bound_to 10752
  154.1721  135.6471  153.5016 H   0  0  0  0  0  0  0  0  0  0  0  0  # atno 10764 bound_to 10752
  153.0178  135.5403  154.6806 H   0  0  0  0  0  0  0  0  0  0  0  0  # atno 10765 bound_to 10752
  139.8903  134.8468  156.2958 H   0  0  0  0  0  0  0  0  0  0  0  0  # atno 11005 bound_to 11000
  144.8184  140.6507  143.6369 LP  0  0  0  0  0  0  0  0  0  0  0  0  # atno 17320 bound_to 7965
  145.4304  139.1550  143.4025 LP  0  0  0  0  0  0  0  0  0  0  0  0  # atno 17321 bound_to 7965
  140.6796  143.2320  151.5418 LP  0  0  0  0  0  0  0  0  0  0  0  0  # atno 17342 bound_to 10162
  139.5502  144.2416  152.1516 LP  0  0  0  0  0  0  0  0  0  0  0  0  # atno 17343 bound_to 10162
  156.1923  130.3655  149.8894 LP  0  0  0  0  0  0  0  0  0  0  0  0  # atno 17370 bound_to 10713
  156.6819  130.8861  151.3577 LP  0  0  0  0  0  0  0  0  0  0  0  0  # atno 17371 bound_to 10713
  140.9946  133.7188  156.0866 LP  0  0  0  0  0  0  0  0  0  0  0  0  # atno 17394 bound_to 11000
  140.7580  134.3971  157.5530 LP  0  0  0  0  0  0  0  0  0  0  0  0  # atno 17395 bound_to 11000

$$$$
