AV-unprocessed.smi:122|AV-procd|sdf|1141|dock4
  -GOLD-   2262018273D 1   1.00000     0.00000
 Structure written by MMmdl.
 48 50  0  0  0  0  0  0  0  0  1 V2000
  153.1043  133.0024  165.3768 C   0  0  0  0  0  0  0  0  0  0  0  0
  154.2635  132.3854  164.0888 S   0  0  0  0  0  0  0  0  0  0  0  0
  155.4333  131.7983  164.7597 O   0  0  0  0  0  0  0  0  0  0  0  0
  153.4978  131.5907  163.1163 O   0  0  0  0  0  0  0  0  0  0  0  0
  154.7749  133.8435  163.3027 N   0  0  0  0  0  0  0  0  0  0  0  0
  154.6709  135.1153  164.0547 C   0  0  0  0  0  0  0  0  0  0  0  0
  155.4459  136.2530  163.3655 C   0  0  0  0  0  0  0  0  0  0  0  0
  155.0088  136.3435  161.9730 N   0  0  0  0  0  0  0  0  0  0  0  0
  154.2419  137.3530  161.4974 C   0  0  0  0  0  0  0  0  0  0  0  0
  153.9161  138.3124  162.1996 O   0  0  0  0  0  0  0  0  0  0  0  0
  153.7587  137.2934  160.0332 C   0  0  0  0  0  0  0  0  0  0  0  0
  152.8823  138.4229  159.6503 N   0  0  0  0  0  0  0  0  0  0  0  0
  151.6092  138.1395  159.0961 C   0  0  0  0  0  0  0  0  0  0  0  0
  151.2253  136.9796  158.9392 O   0  0  0  0  0  0  0  0  0  0  0  0
  150.8110  139.3024  158.7248 C   0  0  0  0  0  0  0  0  0  0  0  0
  149.5895  139.1279  158.1927 F   0  0  0  0  0  0  0  0  0  0  0  0
  151.2799  140.5544  158.9045 C   0  0  0  0  0  0  0  0  0  0  0  0
  152.5267  140.8166  159.4447 N   0  0  0  0  0  0  0  0  0  0  0  0
  153.0463  142.2275  159.6246 C   0  0  2  0  0  0  0  0  0  0  0  0
  153.0781  142.6082  161.1171 C   0  0  0  0  0  0  0  0  0  0  0  0
  152.3472  143.9359  161.1386 C   0  0  0  0  0  0  0  0  0  0  0  0
  151.3890  143.7847  159.9670 C   0  0  0  0  0  0  0  0  0  0  0  0
  152.1905  143.1347  158.9893 O   0  0  0  0  0  0  0  0  0  0  0  0
  153.3628  139.7431  159.8215 C   0  0  0  0  0  0  0  0  0  0  0  0
  154.4858  139.9552  160.2848 O   0  0  0  0  0  0  0  0  0  0  0  0
  155.3908  135.1298  161.2502 C   0  0  0  0  0  0  0  0  0  0  0  0
  154.6079  133.9406  161.8344 C   0  0  0  0  0  0  0  0  0  0  0  0
  152.7253  132.1589  165.9533 H   0  0  0  0  0  0  0  0  0  0  0  0
  152.2697  133.5185  164.9033 H   0  0  0  0  0  0  0  0  0  0  0  0
  153.6268  133.6877  166.0434 H   0  0  0  0  0  0  0  0  0  0  0  0
  153.6181  135.3850  164.1458 H   0  0  0  0  0  0  0  0  0  0  0  0
  155.0517  134.9769  165.0666 H   0  0  0  0  0  0  0  0  0  0  0  0
  155.3030  137.1844  163.9148 H   0  0  0  0  0  0  0  0  0  0  0  0
  156.5179  136.0528  163.4008 H   0  0  0  0  0  0  0  0  0  0  0  0
  154.6312  137.2459  159.3800 H   0  0  0  0  0  0  0  0  0  0  0  0
  153.2429  136.3460  159.8687 H   0  0  0  0  0  0  0  0  0  0  0  0
  150.6403  141.3703  158.6051 H   0  0  0  0  0  0  0  0  0  0  0  0
  154.0221  142.2484  159.1359 H   0  0  0  0  0  0  0  0  0  0  0  0
  152.5363  141.8674  161.7079 H   0  0  0  0  0  0  0  0  0  0  0  0
  154.1030  142.6735  161.4836 H   0  0  0  0  0  0  0  0  0  0  0  0
  151.8399  144.1304  162.0838 H   0  0  0  0  0  0  0  0  0  0  0  0
  153.0445  144.7528  160.9471 H   0  0  0  0  0  0  0  0  0  0  0  0
  150.5404  143.1550  160.2384 H   0  0  0  0  0  0  0  0  0  0  0  0
  151.0090  144.7401  159.6046 H   0  0  0  0  0  0  0  0  0  0  0  0
  155.2292  135.1904  160.1752 H   0  0  0  0  0  0  0  0  0  0  0  0
  156.4623  134.9609  161.3682 H   0  0  0  0  0  0  0  0  0  0  0  0
  154.9450  133.0168  161.3644 H   0  0  0  0  0  0  0  0  0  0  0  0
  153.5465  134.0442  161.6061 H   0  0  0  0  0  0  0  0  0  0  0  0
  1  2  1  0  0  0  0
  1 28  1  0  0  0  0
  1 29  1  0  0  0  0
  1 30  1  0  0  0  0
  2  3  2  0  0  0  0
  2  4  2  0  0  0  0
  2  5  1  0  0  0  0
  5 27  1  0  0  0  0
  5  6  1  0  0  0  0
  6  7  1  0  0  0  0
  6 31  1  0  0  0  0
  6 32  1  0  0  0  0
  7  8  1  0  0  0  0
  7 33  1  0  0  0  0
  7 34  1  0  0  0  0
  8  9  1  0  0  0  0
  8 26  1  0  0  0  0
  9 10  2  0  0  0  0
  9 11  1  0  0  0  0
 11 12  1  0  0  0  0
 11 35  1  0  0  0  0
 11 36  1  0  0  0  0
 12 24  1  0  0  0  0
 12 13  1  0  0  0  0
 13 14  2  0  0  0  0
 13 15  1  0  0  0  0
 15 16  1  0  0  0  0
 15 17  2  0  0  0  0
 17 18  1  0  0  0  0
 17 37  1  0  0  0  0
 18 19  1  0  0  0  0
 18 24  1  0  0  0  0
 19 23  1  0  0  0  0
 19 20  1  0  0  0  0
 19 38  1  0  0  0  0
 20 21  1  0  0  0  0
 20 39  1  0  0  0  0
 20 40  1  0  0  0  0
 21 22  1  0  0  0  0
 21 41  1  0  0  0  0
 21 42  1  0  0  0  0
 22 23  1  0  0  0  0
 22 43  1  0  0  0  0
 22 44  1  0  0  0  0
 24 25  2  0  0  0  0
 26 27  1  0  0  0  0
 26 45  1  0  0  0  0
 26 46  1  0  0  0  0
 27 47  1  0  0  0  0
 27 48  1  0  0  0  0
M  END
> <s_m_source_file>
AV-unprocessed.smi

> <i_m_source_file_index>
122

> <i_lp_mmshare_version>
43012

> <i_f3d_flags>
0

> <s_epik_input>
W0NIM11TKD1PKSg9TylOMVtDSDJdW0NIMl1OKFtDSDJdW0NIMl0xKUMoPU8pW0NIMl1uMmMoPU8pYyhGKVtjSF1uKGMyPU8pW0NAQEhdM1tDSDJdW0NIMl1bQ0gyXU8z

> <s_epik_cmdline>
J2VwaWtfcHl0aG9uJywgJy1waCcsICc3LjAnLCAnLXRuJywgJzgnLCAnLW1hJywgJzIwMCcsICctbWV0YWxfYmluZGluZycsICctaW1hZScsICc8aW5maWxlLm1hZT4nLCAnLW9tYWUnLCAnPG91dGZpbGUubWFlPic=

> <r_lp_tautomer_probability>
1

> <r_epik_Ionization_Penalty>
4.55442e-09

> <r_epik_Ionization_Penalty_Charging>
4.02834e-09

> <r_epik_Ionization_Penalty_Neutral>
5.2608e-10

> <r_epik_State_Penalty>
-0

> <r_epik_Charging_Adjusted_Penalty>
4.02834e-09

> <i_epik_Tot_Q>
0

> <i_epik_Tot_abs_Q>
0

> <r_epik_Metal_State_Penalty>
-0

> <b_epik_Metal_Only>
0

> <s_epik_Chemistry_Notes>
This compound contains an acetal/aminal-like group ( X-CH(R)-Y where X, Y are N, S, or O) that may be acid/base labile, releasing an aldehyde.

> <s_lp_Force_Field>
OPLS_2005

> <r_lp_Energy>
39.2384

> <b_lp_Chiralities_Consistent>
1

> <s_lp_Variant>
AV-unprocessed.smi:122-1

> <Gold.Version>
5.8.1

> <Gold.Id.Protein>
6NUR|6NUR_protein|mol2

> <Gold.PLP.Fitness>
45.6869

> <Gold.PLP.PLP>
-43.3979

> <Gold.PLP.part.hbond>
-1.0000

> <Gold.PLP.part.metal>
0.0000

> <Gold.PLP.part.buried>
-7.1287

> <Gold.PLP.part.nonpolar>
-35.7731

> <Gold.PLP.part.repulsive>
0.0111

> <Gold.PLP.ligand.clash>
0.0000

> <Gold.PLP.ligand.torsion>
1.3979

> <Gold.PLP.Chemscore.Hbond>
1.0000

> <Gold.PLP.Chemscore.CHOScore>
0.0000

> <Gold.PLP.Chemscore.Metal>
0.0000

> <Gold.Chemscore.Hbonds>
donor molecule, donor type, donor heavy atom, donor atom, acceptor molecule, acceptor atom, score
      P1  H  6896  6907       L1    14  0.88

> <Gold.PLP.Chemscore.Internal.Correction>
2.0849

> <Gold.Rescore>
     Score         DG    S(hbond)    S(metal)    S(lipo)     H(rot)  DE(clash)    DE(int)     intcor
     11.73     -13.48       1.00        0.00      76.74       1.69       0.05       1.70       ----

> <Gold.Chemscore.Fitness>
11.7330

> <Gold.Chemscore.DG>
-13.4792

> <Gold.Chemscore.ZeroCoef>
-5.4800

> <Gold.Chemscore.Hbond>
1.0013

> <Gold.Chemscore.Metal>
0.0000

> <Gold.Chemscore.Lipo>
76.7412

> <Gold.Chemscore.Internal_Hbond>
0.0000

> <Gold.Chemscore.DEClash>
0.0487

> <Gold.Chemscore.DEInternal>
1.6974

> <Gold.Chemscore.Rot>
1.6890

> <Gold.Chemscore.Internal.Correction>
   9.000000E+99

> <Gold.Chemscore.Hbonds>
donor molecule, donor type, donor heavy atom, donor atom, acceptor molecule, acceptor atom, score
      P1  H  6896  6907       L1    14  0.82

> <Gold.Chemscore.Hbond.Weighted>
-3.3443

> <Gold.Chemscore.Metal.Weighted>
-0.0000

> <Gold.Chemscore.Lipo.Weighted>
-8.9787

> <Gold.Chemscore.Internal_Hbond.Weighted>
0.0000

> <Gold.Chemscore.DEClash.Weighted>
0.0487

> <Gold.Chemscore.DEInternal.Weighted>
1.6974

> <Gold.Chemscore.Rot.Weighted>
4.3239

> <Gold.Chemscore.Internal.Correction.Weighted>
   9.000000E+99

> <Gold.Protein.RotatedTorsions>
[ 6907 6896 6895 6894 ] final   -9.95 input  -60.11 | X-H torsion
[ 7974 7965 7964 7962 ] final   65.93 input  175.53 | X-H torsion
[ 8008 7997 7996 7995 ] final -146.40 input   59.86 | X-H torsion
[ 10167 10162 10161 10158 ] final -170.98 input  -65.29 | X-H torsion
[ 10718 10713 10712 10709 ] final  131.15 input   66.30 | X-H torsion
[ 10763 10752 10751 10750 ] final  -65.93 input  -60.55 | X-H torsion
[ 11005 11000 10999 10996 ] final    5.78 input  -57.11 | X-H torsion

> <Gold.Protein.ActiveResidues>
 VAL166  LYS551  ARG553  GLY616  TRP617  ASP618  TYR619  PRO620  LYS621  CYS622 
 ASP623  PHE694  ASN695  SER759  ASP760  ASP761  ALA762  ILE779  LEU786  VAL792 
 PHE793  MET794  SER795  GLU796  ALA797  LYS798  CYS799  TRP800  GLU811  SER814 

> <Gold.Protein.RotatedAtoms>
  151.4096  135.0983  159.9580 H   0  0  0  0  0  0  0  0  0  0  0  0  # atno 6907 bound_to 6896
  152.5024  133.8810  159.7357 H   0  0  0  0  0  0  0  0  0  0  0  0  # atno 6908 bound_to 6896
  150.9302  133.6719  159.2840 H   0  0  0  0  0  0  0  0  0  0  0  0  # atno 6909 bound_to 6896
  145.8327  139.3148  143.0978 H   0  0  0  0  0  0  0  0  0  0  0  0  # atno 7974 bound_to 7965
  155.5588  140.0623  157.2833 H   0  0  0  0  0  0  0  0  0  0  0  0  # atno 8008 bound_to 7997
  154.4397  140.1889  156.0806 H   0  0  0  0  0  0  0  0  0  0  0  0  # atno 8009 bound_to 7997
  156.0462  140.3290  155.7303 H   0  0  0  0  0  0  0  0  0  0  0  0  # atno 8010 bound_to 7997
  139.5829  144.1382  152.1539 H   0  0  0  0  0  0  0  0  0  0  0  0  # atno 10167 bound_to 10162
  157.4994  131.1093  150.9447 H   0  0  0  0  0  0  0  0  0  0  0  0  # atno 10718 bound_to 10713
  154.3523  135.6134  153.5649 H   0  0  0  0  0  0  0  0  0  0  0  0  # atno 10763 bound_to 10752
  152.9797  135.5795  154.4729 H   0  0  0  0  0  0  0  0  0  0  0  0  # atno 10764 bound_to 10752
  154.4452  135.2851  155.1797 H   0  0  0  0  0  0  0  0  0  0  0  0  # atno 10765 bound_to 10752
  140.5669  134.0139  155.7993 H   0  0  0  0  0  0  0  0  0  0  0  0  # atno 11005 bound_to 11000
  145.9553  140.8877  143.0238 LP  0  0  0  0  0  0  0  0  0  0  0  0  # atno 17320 bound_to 7965
  144.6738  140.1737  143.7412 LP  0  0  0  0  0  0  0  0  0  0  0  0  # atno 17321 bound_to 7965
  140.0939  144.5597  150.7035 LP  0  0  0  0  0  0  0  0  0  0  0  0  # atno 17342 bound_to 10162
  140.7105  143.2501  151.4595 LP  0  0  0  0  0  0  0  0  0  0  0  0  # atno 17343 bound_to 10162
  157.0123  130.5641  149.5322 LP  0  0  0  0  0  0  0  0  0  0  0  0  # atno 17370 bound_to 10713
  156.0220  130.5315  150.8302 LP  0  0  0  0  0  0  0  0  0  0  0  0  # atno 17371 bound_to 10713
  141.1080  133.9662  157.2961 LP  0  0  0  0  0  0  0  0  0  0  0  0  # atno 17394 bound_to 11000
  139.9380  135.0194  156.8619 LP  0  0  0  0  0  0  0  0  0  0  0  0  # atno 17395 bound_to 11000

$$$$
