AV-unprocessed.smi:910|AV-procd|sdf|4129|dock5
  -GOLD-   22720 2 33D 1   1.00000     0.00000
 Structure written by MMmdl.
 47 48  0  0  0  0  0  0  0  0  2 V2000
  145.6283  129.5280  151.3846 C   0  0  0  0  0  0  0  0  0  0  0  0
  146.0798  130.9528  151.4539 C   0  0  0  0  0  0  0  0  0  0  0  0
  147.0327  131.5132  152.2703 N   0  3  0  0  0  0  0  0  0  0  0  0
  147.1323  132.8187  152.0161 C   0  0  0  0  0  0  0  0  0  0  0  0
  147.9968  133.7498  152.6447 N   0  0  0  0  0  0  0  0  0  0  0  0
  148.3772  133.7599  153.9330 C   0  0  0  0  0  0  0  0  0  0  0  0
  148.0290  132.9335  154.7772 O   0  0  0  0  0  0  0  0  0  0  0  0
  149.1851  134.7960  154.1988 N   0  0  0  0  0  0  0  0  0  0  0  0
  149.7192  135.1280  155.5159 C   0  0  0  0  0  0  0  0  0  0  0  0
  149.3957  136.5771  155.9077 C   0  0  0  0  0  0  0  0  0  0  0  0
  150.5894  137.3415  155.8280 O   0  0  0  0  0  0  0  0  0  0  0  0
  150.7807  138.0248  154.5944 C   0  0  1  0  0  0  0  0  0  0  0  0
  149.4831  138.7412  154.1655 C   0  0  0  0  0  0  0  0  0  0  0  0
  149.0969  139.8559  155.1514 C   0  0  0  0  0  0  0  0  0  0  0  0
  150.2462  140.8586  155.3357 C   0  0  0  0  0  0  0  0  0  0  0  0
  151.5422  140.1529  155.7662 C   0  0  0  0  0  0  0  0  0  0  0  0
  151.9339  139.0362  154.7776 C   0  0  1  0  0  0  0  0  0  0  0  0
  153.2455  138.3452  155.1839 C   0  0  0  0  0  0  0  0  0  0  0  0
  146.2634  133.1750  151.0341 O   0  0  0  0  0  0  0  0  0  0  0  0
  145.6140  132.0044  150.6957 C   0  0  0  0  0  0  0  0  0  0  0  0
  144.5797  132.0839  149.6241 C   0  0  0  0  0  0  0  0  0  0  0  0
  144.6209  129.4158  151.7857 H   0  0  0  0  0  0  0  0  0  0  0  0
  146.2869  128.8750  151.9575 H   0  0  0  0  0  0  0  0  0  0  0  0
  145.6180  129.1661  150.3563 H   0  0  0  0  0  0  0  0  0  0  0  0
  147.5610  130.9825  152.9521 H   0  0  0  0  0  0  0  0  0  0  0  0
  149.4211  135.4269  153.4465 H   0  0  0  0  0  0  0  0  0  0  0  0
  149.3283  134.4361  156.2636 H   0  0  0  0  0  0  0  0  0  0  0  0
  150.7996  134.9844  155.4929 H   0  0  0  0  0  0  0  0  0  0  0  0
  148.6346  136.9864  155.2420 H   0  0  0  0  0  0  0  0  0  0  0  0
  148.9910  136.6041  156.9193 H   0  0  0  0  0  0  0  0  0  0  0  0
  151.0731  137.3135  153.8199 H   0  0  0  0  0  0  0  0  0  0  0  0
  149.6257  139.1752  153.1751 H   0  0  0  0  0  0  0  0  0  0  0  0
  148.6623  138.0318  154.0649 H   0  0  0  0  0  0  0  0  0  0  0  0
  148.2064  140.3743  154.7950 H   0  0  0  0  0  0  0  0  0  0  0  0
  148.8339  139.4186  156.1153 H   0  0  0  0  0  0  0  0  0  0  0  0
  150.4159  141.3944  154.4007 H   0  0  0  0  0  0  0  0  0  0  0  0
  149.9685  141.6097  156.0757 H   0  0  0  0  0  0  0  0  0  0  0  0
  152.3471  140.8849  155.8393 H   0  0  0  0  0  0  0  0  0  0  0  0
  151.4149  139.7360  156.7661 H   0  0  0  0  0  0  0  0  0  0  0  0
  152.1111  139.5065  153.8092 H   0  0  0  0  0  0  0  0  0  0  0  0
  153.1601  137.8667  156.1601 H   0  0  0  0  0  0  0  0  0  0  0  0
  154.0650  139.0623  155.2373 H   0  0  0  0  0  0  0  0  0  0  0  0
  153.5254  137.5785  154.4609 H   0  0  0  0  0  0  0  0  0  0  0  0
  144.9742  131.7107  148.6790 H   0  0  0  0  0  0  0  0  0  0  0  0
  144.2511  133.1121  149.4712 H   0  0  0  0  0  0  0  0  0  0  0  0
  143.7054  131.4871  149.8844 H   0  0  0  0  0  0  0  0  0  0  0  0
  148.3522  134.4891  152.0566 H   0  0  0  0  0  0  0  0  0  0  0  0
  1 22  1  0  0  0  0
  1 23  1  0  0  0  0
  1 24  1  0  0  0  0
  1  2  1  0  0  0  0
  2  3  1  0  0  0  0
  2 20  2  0  0  0  0
  3 25  1  0  0  0  0
  3  4  2  0  0  0  0
  4 19  1  0  0  0  0
  4  5  1  0  0  0  0
  5  6  1  0  0  0  0
  5 47  1  0  0  0  0
  6  8  1  0  0  0  0
  6  7  2  0  0  0  0
  8  9  1  0  0  0  0
  8 26  1  0  0  0  0
  9 10  1  0  0  0  0
  9 27  1  0  0  0  0
  9 28  1  0  0  0  0
 10 11  1  0  0  0  0
 10 29  1  0  0  0  0
 10 30  1  0  0  0  0
 11 12  1  0  0  0  0
 12 17  1  0  0  0  0
 12 13  1  0  0  0  0
 12 31  1  0  0  0  0
 13 14  1  0  0  0  0
 13 32  1  0  0  0  0
 13 33  1  0  0  0  0
 14 15  1  0  0  0  0
 14 34  1  0  0  0  0
 14 35  1  0  0  0  0
 15 16  1  0  0  0  0
 15 36  1  0  0  0  0
 15 37  1  0  0  0  0
 16 17  1  0  0  0  0
 16 38  1  0  0  0  0
 16 39  1  0  0  0  0
 17 18  1  0  0  0  0
 17 40  1  0  0  0  0
 18 41  1  0  0  0  0
 18 42  1  0  0  0  0
 18 43  1  0  0  0  0
 19 20  1  0  0  0  0
 20 21  1  0  0  0  0
 21 44  1  0  0  0  0
 21 45  1  0  0  0  0
 21 46  1  0  0  0  0
M  CHG  1   3   1
M  END
> <s_m_source_file>
AV-unprocessed.smi

> <i_m_source_file_index>
910

> <i_lp_mmshare_version>
43012

> <i_f3d_flags>
0

> <s_epik_input>
W0NIM11jMW5jKG9jMVtDSDNdKVtOSF1DKD1PKVtOSF1bQ0gyXVtDSDJdT1tDQEBIXTJbQ0gyXVtDSDJdW0NIMl1bQ0gyXVtDQEhdMltDSDNd

> <s_epik_cmdline>
J2VwaWtfcHl0aG9uJywgJy1waCcsICc3LjAnLCAnLXRuJywgJzgnLCAnLW1hJywgJzIwMCcsICctbWV0YWxfYmluZGluZycsICctaW1hZScsICc8aW5maWxlLm1hZT4nLCAnLW9tYWUnLCAnPG91dGZpbGUubWFlPic=

> <r_epik_Ionization_Penalty>
7.32931

> <r_epik_Ionization_Penalty_Charging>
7.12214

> <r_epik_Ionization_Penalty_Neutral>
0.207166

> <r_epik_State_Penalty>
2.61278

> <r_epik_Charging_Adjusted_Penalty>
9.73492

> <i_epik_Tot_Q>
1

> <i_epik_Tot_abs_Q>
1

> <r_epik_Metal_State_Penalty>
2.64585

> <b_epik_Metal_Only>
0

> <s_lp_Force_Field>
OPLS_2005

> <r_lp_Energy>
17.2334

> <b_lp_Chiralities_Consistent>
1

> <s_lp_Variant>
AV-unprocessed.smi:910-14

> <Gold.Version>
5.8.1

> <Gold.Id.Protein>
6NUR|6NUR_protein|mol2

> <Gold.PLP.Fitness>
40.9349

> <Gold.PLP.PLP>
-37.2800

> <Gold.PLP.part.hbond>
-2.7421

> <Gold.PLP.part.metal>
0.0000

> <Gold.PLP.part.buried>
-2.0924

> <Gold.PLP.part.nonpolar>
-32.7568

> <Gold.PLP.part.repulsive>
0.2363

> <Gold.PLP.ligand.clash>
0.0000

> <Gold.PLP.ligand.torsion>
0.9195

> <Gold.PLP.Chemscore.Hbond>
1.8000

> <Gold.PLP.Chemscore.CHOScore>
0.0000

> <Gold.PLP.Chemscore.Metal>
0.0000

> <Gold.Chemscore.Hbonds>
donor molecule, donor type, donor heavy atom, donor atom, acceptor molecule, acceptor atom, score
      L1  H     5    47       P1  7948  0.50
      L1  H     8    26       P1  7948  0.84

> <Gold.PLP.Chemscore.Internal.Correction>
0.0939

> <Gold.Rescore>
     Score         DG    S(hbond)    S(metal)    S(lipo)     H(rot)  DE(clash)    DE(int)     intcor
     16.22     -17.33       1.80        0.00      87.13       1.69       0.08       1.03       ----

> <Gold.Chemscore.Fitness>
16.2175

> <Gold.Chemscore.DG>
-17.3342

> <Gold.Chemscore.ZeroCoef>
-5.4800

> <Gold.Chemscore.Hbond>
1.7962

> <Gold.Chemscore.Metal>
0.0000

> <Gold.Chemscore.Lipo>
87.1275

> <Gold.Chemscore.Internal_Hbond>
0.0000

> <Gold.Chemscore.DEClash>
0.0848

> <Gold.Chemscore.DEInternal>
1.0318

> <Gold.Chemscore.Rot>
1.6949

> <Gold.Chemscore.Internal.Correction>
   9.000000E+99

> <Gold.Chemscore.Hbonds>
donor molecule, donor type, donor heavy atom, donor atom, acceptor molecule, acceptor atom, score
      L1  H     5    47       P1  7948  0.02
      L1  H     8    26       P1  7948  0.14

> <Gold.Chemscore.Hbond.Weighted>
-5.9993

> <Gold.Chemscore.Metal.Weighted>
-0.0000

> <Gold.Chemscore.Lipo.Weighted>
-10.1939

> <Gold.Chemscore.Internal_Hbond.Weighted>
0.0000

> <Gold.Chemscore.DEClash.Weighted>
0.0848

> <Gold.Chemscore.DEInternal.Weighted>
1.0318

> <Gold.Chemscore.Rot.Weighted>
4.3390

> <Gold.Chemscore.Internal.Correction.Weighted>
   9.000000E+99

> <Gold.Protein.RotatedTorsions>
[ 6907 6896 6895 6894 ] final -131.50 input  -60.11 | X-H torsion
[ 7974 7965 7964 7962 ] final  153.36 input  175.53 | X-H torsion
[ 8008 7997 7996 7995 ] final   36.91 input   59.86 | X-H torsion
[ 10167 10162 10161 10158 ] final -154.62 input  -65.29 | X-H torsion
[ 10718 10713 10712 10709 ] final  116.54 input   66.30 | X-H torsion
[ 10763 10752 10751 10750 ] final  -63.39 input  -60.55 | X-H torsion
[ 11005 11000 10999 10996 ] final -157.34 input  -57.11 | X-H torsion

> <Gold.Protein.ActiveResidues>
 VAL166  LYS551  ARG553  GLY616  TRP617  ASP618  TYR619  PRO620  LYS621  CYS622 
 ASP623  PHE694  ASN695  SER759  ASP760  ASP761  ALA762  ILE779  LEU786  VAL792 
 PHE793  MET794  SER795  GLU796  ALA797  LYS798  CYS799  TRP800  GLU811  SER814 

> <Gold.Protein.RotatedAtoms>
  150.9516  133.6542  159.2770 H   0  0  0  0  0  0  0  0  0  0  0  0  # atno 6907 bound_to 6896
  151.3896  135.0952  159.9532 H   0  0  0  0  0  0  0  0  0  0  0  0  # atno 6908 bound_to 6896
  152.5112  133.9034  159.7507 H   0  0  0  0  0  0  0  0  0  0  0  0  # atno 6909 bound_to 6896
  144.8159  139.6791  143.6121 H   0  0  0  0  0  0  0  0  0  0  0  0  # atno 7974 bound_to 7965
  155.1951  140.3311  155.4352 H   0  0  0  0  0  0  0  0  0  0  0  0  # atno 8008 bound_to 7997
  156.2428  140.1903  156.6991 H   0  0  0  0  0  0  0  0  0  0  0  0  # atno 8009 bound_to 7997
  154.6179  140.0599  156.9564 H   0  0  0  0  0  0  0  0  0  0  0  0  # atno 8010 bound_to 7997
  139.6998  143.9281  152.2424 H   0  0  0  0  0  0  0  0  0  0  0  0  # atno 10167 bound_to 10162
  157.6154  131.1026  150.7487 H   0  0  0  0  0  0  0  0  0  0  0  0  # atno 10718 bound_to 10713
  154.3143  135.6209  153.5479 H   0  0  0  0  0  0  0  0  0  0  0  0  # atno 10763 bound_to 10752
  152.9826  135.5709  154.5141 H   0  0  0  0  0  0  0  0  0  0  0  0  # atno 10764 bound_to 10752
  154.4797  135.2862  155.1556 H   0  0  0  0  0  0  0  0  0  0  0  0  # atno 10765 bound_to 10752
  140.6657  134.4301  157.5233 H   0  0  0  0  0  0  0  0  0  0  0  0  # atno 11005 bound_to 11000
  146.2462  139.6104  142.9458 LP  0  0  0  0  0  0  0  0  0  0  0  0  # atno 17320 bound_to 7965
  145.5215  141.0431  143.2433 LP  0  0  0  0  0  0  0  0  0  0  0  0  # atno 17321 bound_to 7965
  139.9120  144.6850  150.8552 LP  0  0  0  0  0  0  0  0  0  0  0  0  # atno 17342 bound_to 10162
  140.7706  143.3436  151.2157 LP  0  0  0  0  0  0  0  0  0  0  0  0  # atno 17343 bound_to 10162
  156.7856  130.4873  149.5393 LP  0  0  0  0  0  0  0  0  0  0  0  0  # atno 17370 bound_to 10713
  156.1274  130.6153  151.0283 LP  0  0  0  0  0  0  0  0  0  0  0  0  # atno 17371 bound_to 10713
  139.8998  134.8583  156.1946 LP  0  0  0  0  0  0  0  0  0  0  0  0  # atno 17394 bound_to 11000
  141.0431  133.6927  156.1633 LP  0  0  0  0  0  0  0  0  0  0  0  0  # atno 17395 bound_to 11000

$$$$
