AV-unprocessed.smi:777|AV-procd|sdf|3702|dock1
  -GOLD-   22720 1123D 1   1.00000     0.00000
 Structure written by MMmdl.
 37 38  0  0  0  0  0  0  0  0  2 V2000
  153.6167  141.3195  160.6119 C   0  0  0  0  0  0  0  0  0  0  0  0
  153.0477  141.5358  159.1942 C   0  0  1  0  0  0  0  0  0  0  0  0
  152.0265  140.4632  158.7793 C   0  0  0  0  0  0  0  0  0  0  0  0
  150.8586  140.5374  159.1601 O   0  0  0  0  0  0  0  0  0  0  0  0
  152.5165  139.4827  157.9975 N   0  0  0  0  0  0  0  0  0  0  0  0
  151.8690  138.3892  157.2546 C   0  0  0  0  0  0  0  0  0  0  0  0
  152.4660  137.0805  157.8280 C   0  0  0  0  0  0  0  0  0  0  0  0
  153.1078  136.3379  157.0515 O   0  0  0  0  0  0  0  0  0  0  0  0
  152.2400  136.8128  159.0301 O   0  5  0  0  0  0  0  0  0  0  0  0
  150.3067  138.3444  157.3153 C   0  0  0  0  0  0  0  0  0  0  0  0
  149.6177  139.4975  156.5574 C   0  0  0  0  0  0  0  0  0  0  0  0
  150.0966  139.5804  155.1037 C   0  0  0  0  0  0  0  0  0  0  0  0
  151.6231  139.7030  155.0433 C   0  0  0  0  0  0  0  0  0  0  0  0
  152.3028  138.5269  155.7663 C   0  0  0  0  0  0  0  0  0  0  0  0
  152.4718  142.8671  159.0313 N   0  0  0  0  0  0  0  0  0  0  0  0
  152.5396  143.9324  159.9068 C   0  0  0  0  0  0  0  0  0  0  0  0
  151.9084  144.9899  159.3177 C   0  0  0  0  0  0  0  0  0  0  0  0
  151.4913  144.4753  158.0592 C   0  0  0  0  0  0  0  0  0  0  0  0
  151.8345  143.2097  157.8874 N   0  0  0  0  0  0  0  0  0  0  0  0
  154.1059  140.3485  160.6957 H   0  0  0  0  0  0  0  0  0  0  0  0
  152.8399  141.3650  161.3765 H   0  0  0  0  0  0  0  0  0  0  0  0
  154.3605  142.0798  160.8519 H   0  0  0  0  0  0  0  0  0  0  0  0
  153.8839  141.4609  158.4971 H   0  0  0  0  0  0  0  0  0  0  0  0
  153.5098  139.5393  157.8285 H   0  0  0  0  0  0  0  0  0  0  0  0
  149.9666  137.4109  156.8638 H   0  0  0  0  0  0  0  0  0  0  0  0
  149.9425  138.3040  158.3416 H   0  0  0  0  0  0  0  0  0  0  0  0
  148.5369  139.3574  156.5819 H   0  0  0  0  0  0  0  0  0  0  0  0
  149.8097  140.4491  157.0519 H   0  0  0  0  0  0  0  0  0  0  0  0
  149.7771  138.6908  154.5594 H   0  0  0  0  0  0  0  0  0  0  0  0
  149.6331  140.4332  154.6071 H   0  0  0  0  0  0  0  0  0  0  0  0
  151.9490  139.7339  154.0034 H   0  0  0  0  0  0  0  0  0  0  0  0
  151.9360  140.6468  155.4922 H   0  0  0  0  0  0  0  0  0  0  0  0
  153.3844  138.6502  155.6882 H   0  0  0  0  0  0  0  0  0  0  0  0
  152.0663  137.6079  155.2266 H   0  0  0  0  0  0  0  0  0  0  0  0
  153.0310  143.8507  160.8650 H   0  0  0  0  0  0  0  0  0  0  0  0
  151.7725  145.9823  159.7212 H   0  0  0  0  0  0  0  0  0  0  0  0
  150.9578  144.9818  157.2685 H   0  0  0  0  0  0  0  0  0  0  0  0
  1  2  1  0  0  0  0
  1 20  1  0  0  0  0
  1 21  1  0  0  0  0
  1 22  1  0  0  0  0
  2  3  1  0  0  0  0
  2 15  1  0  0  0  0
  2 23  1  0  0  0  0
  3  4  2  0  0  0  0
  3  5  1  0  0  0  0
  5  6  1  0  0  0  0
  5 24  1  0  0  0  0
  6 14  1  0  0  0  0
  6  7  1  0  0  0  0
  6 10  1  0  0  0  0
  7  8  2  0  0  0  0
  7  9  1  0  0  0  0
 10 11  1  0  0  0  0
 10 25  1  0  0  0  0
 10 26  1  0  0  0  0
 11 12  1  0  0  0  0
 11 27  1  0  0  0  0
 11 28  1  0  0  0  0
 12 13  1  0  0  0  0
 12 29  1  0  0  0  0
 12 30  1  0  0  0  0
 13 14  1  0  0  0  0
 13 31  1  0  0  0  0
 13 32  1  0  0  0  0
 14 33  1  0  0  0  0
 14 34  1  0  0  0  0
 15 19  1  0  0  0  0
 15 16  1  0  0  0  0
 16 17  2  0  0  0  0
 16 35  1  0  0  0  0
 17 18  1  0  0  0  0
 17 36  1  0  0  0  0
 18 19  2  0  0  0  0
 18 37  1  0  0  0  0
M  CHG  1   9  -1
M  END
> <s_m_source_file>
AV-unprocessed.smi

> <i_m_source_file_index>
777

> <i_lp_mmshare_version>
43012

> <i_f3d_flags>
0

> <s_epik_input>
bjFbY0hdW2NIXVtjSF1uMVtDQEhdKFtDSDNdKUMoPU8pW05IXUMyKEMoPU8pW09IXSlbQ0gyXVtDSDJdW0NIMl1bQ0gyXVtDSDJdMg==

> <s_epik_cmdline>
J2VwaWtfcHl0aG9uJywgJy1waCcsICc3LjAnLCAnLXRuJywgJzgnLCAnLW1hJywgJzIwMCcsICctbWV0YWxfYmluZGluZycsICctaW1hZScsICc8aW5maWxlLm1hZT4nLCAnLW9tYWUnLCAnPG91dGZpbGUubWFlPic=

> <r_lp_tautomer_probability>
1

> <r_epik_Ionization_Penalty>
0.000371068

> <r_epik_Ionization_Penalty_Charging>
0.000323848

> <r_epik_Ionization_Penalty_Neutral>
4.72198e-05

> <r_epik_State_Penalty>
0.000195685

> <r_epik_Charging_Adjusted_Penalty>
0.000519533

> <i_epik_Tot_Q>
-1

> <i_epik_Tot_abs_Q>
1

> <r_epik_Metal_State_Penalty>
-0

> <b_epik_Metal_Only>
0

> <s_lp_Force_Field>
OPLS_2005

> <r_lp_Energy>
12.5044

> <b_lp_Chiralities_Consistent>
1

> <s_lp_Variant>
AV-unprocessed.smi:777-2

> <Gold.Version>
5.8.1

> <Gold.Id.Protein>
6NUR|6NUR_protein|mol2

> <Gold.PLP.Fitness>
48.8666

> <Gold.PLP.PLP>
-35.2682

> <Gold.PLP.part.hbond>
-2.0411

> <Gold.PLP.part.metal>
0.0000

> <Gold.PLP.part.buried>
-1.6878

> <Gold.PLP.part.nonpolar>
-31.9019

> <Gold.PLP.part.repulsive>
0.1536

> <Gold.PLP.ligand.clash>
0.0000

> <Gold.PLP.ligand.torsion>
0.7288

> <Gold.PLP.Chemscore.Hbond>
3.9200

> <Gold.PLP.Chemscore.CHOScore>
1.0000

> <Gold.PLP.Chemscore.Metal>
0.0000

> <Gold.Chemscore.Hbonds>
donor molecule, donor type, donor heavy atom, donor atom, acceptor molecule, acceptor atom, score
      P1  H  6896  6908       L1     9  1.86
      P1  H 10752 10765       L1     8  2.00
      L1  C    18    37       P1  8028  0.85

> <Gold.PLP.Chemscore.Internal.Correction>
0.2961

> <Gold.Rescore>
     Score         DG    S(hbond)    S(metal)    S(lipo)     H(rot)  DE(clash)    DE(int)     intcor
     14.07     -17.13       1.83        0.00      90.47       1.98       1.16       1.90       ----

> <Gold.Chemscore.Fitness>
14.0673

> <Gold.Chemscore.DG>
-17.1263

> <Gold.Chemscore.ZeroCoef>
-5.4800

> <Gold.Chemscore.Hbond>
1.8333

> <Gold.Chemscore.Metal>
0.0000

> <Gold.Chemscore.Lipo>
90.4710

> <Gold.Chemscore.Internal_Hbond>
0.0000

> <Gold.Chemscore.DEClash>
1.1580

> <Gold.Chemscore.DEInternal>
1.9010

> <Gold.Chemscore.Rot>
1.9774

> <Gold.Chemscore.Internal.Correction>
   9.000000E+99

> <Gold.Chemscore.Hbonds>
donor molecule, donor type, donor heavy atom, donor atom, acceptor molecule, acceptor atom, score
      P1  H  6896  6908       L1     9  0.88
      P1  H 10752 10765       L1     8  0.92

> <Gold.Chemscore.Hbond.Weighted>
-6.1232

> <Gold.Chemscore.Metal.Weighted>
-0.0000

> <Gold.Chemscore.Lipo.Weighted>
-10.5851

> <Gold.Chemscore.Internal_Hbond.Weighted>
0.0000

> <Gold.Chemscore.DEClash.Weighted>
1.1580

> <Gold.Chemscore.DEInternal.Weighted>
1.9010

> <Gold.Chemscore.Rot.Weighted>
5.0620

> <Gold.Chemscore.Internal.Correction.Weighted>
   9.000000E+99

> <Gold.Protein.RotatedTorsions>
[ 6907 6896 6895 6894 ] final -108.08 input  -60.11 | X-H torsion
[ 7974 7965 7964 7962 ] final -141.53 input  175.53 | X-H torsion
[ 8008 7997 7996 7995 ] final   -9.59 input   59.86 | X-H torsion
[ 10167 10162 10161 10158 ] final -166.90 input  -65.29 | X-H torsion
[ 10718 10713 10712 10709 ] final  150.69 input   66.30 | X-H torsion
[ 10763 10752 10751 10750 ] final -109.87 input  -60.55 | X-H torsion
[ 11005 11000 10999 10996 ] final   -5.27 input  -57.11 | X-H torsion

> <Gold.Protein.ActiveResidues>
 VAL166  LYS551  ARG553  GLY616  TRP617  ASP618  TYR619  PRO620  LYS621  CYS622 
 ASP623  PHE694  ASN695  SER759  ASP760  ASP761  ALA762  ILE779  LEU786  VAL792 
 PHE793  MET794  SER795  GLU796  ALA797  LYS798  CYS799  TRP800  GLU811  SER814 

> <Gold.Protein.RotatedAtoms>
  150.7481  133.9731  159.3551 H   0  0  0  0  0  0  0  0  0  0  0  0  # atno 6907 bound_to 6896
  151.7666  135.0795  160.0363 H   0  0  0  0  0  0  0  0  0  0  0  0  # atno 6908 bound_to 6896
  152.3367  133.5983  159.5884 H   0  0  0  0  0  0  0  0  0  0  0  0  # atno 6909 bound_to 6896
  144.8512  140.6068  143.5389 H   0  0  0  0  0  0  0  0  0  0  0  0  # atno 7974 bound_to 7965
  154.5633  140.2351  155.8302 H   0  0  0  0  0  0  0  0  0  0  0  0  # atno 8008 bound_to 7997
  156.2047  140.3043  155.9561 H   0  0  0  0  0  0  0  0  0  0  0  0  # atno 8009 bound_to 7997
  155.2848  140.0424  157.3009 H   0  0  0  0  0  0  0  0  0  0  0  0  # atno 8010 bound_to 7997
  139.6084  144.0865  152.1817 H   0  0  0  0  0  0  0  0  0  0  0  0  # atno 10167 bound_to 10162
  157.2803  131.0834  151.1537 H   0  0  0  0  0  0  0  0  0  0  0  0  # atno 10718 bound_to 10713
  154.8217  135.4585  154.0798 H   0  0  0  0  0  0  0  0  0  0  0  0  # atno 10763 bound_to 10752
  153.2146  135.6886  153.8079 H   0  0  0  0  0  0  0  0  0  0  0  0  # atno 10764 bound_to 10752
  153.7518  135.3297  155.3299 H   0  0  0  0  0  0  0  0  0  0  0  0  # atno 10765 bound_to 10752
  140.6893  133.9085  155.8607 H   0  0  0  0  0  0  0  0  0  0  0  0  # atno 11005 bound_to 11000
  145.4496  139.1525  143.3926 LP  0  0  0  0  0  0  0  0  0  0  0  0  # atno 17320 bound_to 7965
  146.2786  140.4621  142.8785 LP  0  0  0  0  0  0  0  0  0  0  0  0  # atno 17321 bound_to 7965
  140.0478  144.5957  150.7360 LP  0  0  0  0  0  0  0  0  0  0  0  0  # atno 17342 bound_to 10162
  140.7302  143.2680  151.3980 LP  0  0  0  0  0  0  0  0  0  0  0  0  # atno 17343 bound_to 10162
  157.2973  130.6825  149.6145 LP  0  0  0  0  0  0  0  0  0  0  0  0  # atno 17370 bound_to 10713
  155.9664  130.4402  150.5292 LP  0  0  0  0  0  0  0  0  0  0  0  0  # atno 17371 bound_to 10713
  141.0254  134.0830  157.4074 LP  0  0  0  0  0  0  0  0  0  0  0  0  # atno 17394 bound_to 11000
  139.8928  135.0127  156.6866 LP  0  0  0  0  0  0  0  0  0  0  0  0  # atno 17395 bound_to 11000

$$$$
