AV-unprocessed.smi:2229|AV-procd|sdf|9031|dock7
  -GOLD-   2272012233D 1   1.00000     0.00000
 Structure written by MMmdl.
 43 44  0  0  0  0  0  0  0  0  2 V2000
  148.1953  141.3397  154.5895 C   0  0  0  0  0  0  0  0  0  0  0  0
  149.5064  140.8013  155.1819 C   0  0  0  0  0  0  0  0  0  0  0  0
  149.3833  139.2935  155.4657 C   0  0  0  0  0  0  0  0  0  0  0  0
  149.9067  141.6042  156.4369 C   0  0  0  0  0  0  0  0  0  0  0  0
  151.3113  141.2723  156.9702 C   0  0  0  0  0  0  0  0  0  0  0  0
  151.6220  141.9382  158.3234 C   0  0  2  0  0  0  0  0  0  0  0  0
  151.9682  143.4274  158.2488 C   0  0  0  0  0  0  0  0  0  0  0  0
  152.6516  143.7079  159.5845 C   0  0  0  0  0  0  0  0  0  0  0  0
  153.4561  142.4403  159.8905 C   0  0  0  0  0  0  0  0  0  0  0  0
  152.8157  141.3055  159.0675 C   0  0  1  0  0  0  0  0  0  0  0  0
  152.3687  140.2136  159.9275 N   0  0  0  0  0  0  0  0  0  0  0  0
  152.8838  138.9748  159.9308 C   0  0  0  0  0  0  0  0  0  0  0  0
  153.8741  138.6493  159.2748 O   0  0  0  0  0  0  0  0  0  0  0  0
  152.1722  137.9487  160.8193 C   0  0  0  0  0  0  0  0  0  0  0  0
  152.9910  137.5381  161.9631 N   0  0  0  0  0  0  0  0  0  0  0  0
  153.4752  138.4243  162.8921 C   0  0  0  0  0  0  0  0  0  0  0  0
  154.1531  137.8123  163.7955 N   0  0  0  0  0  0  0  0  0  0  0  0
  154.1248  136.4229  163.4526 N   0  5  0  0  0  0  0  0  0  0  0  0
  153.3974  136.3172  162.3185 C   0  0  0  0  0  0  0  0  0  0  0  0
  153.1215  135.3017  161.6802 O   0  0  0  0  0  0  0  0  0  0  0  0
  147.3699  141.2352  155.2945 H   0  0  0  0  0  0  0  0  0  0  0  0
  147.9249  140.8038  153.6792 H   0  0  0  0  0  0  0  0  0  0  0  0
  148.2826  142.3958  154.3327 H   0  0  0  0  0  0  0  0  0  0  0  0
  150.2824  140.9398  154.4277 H   0  0  0  0  0  0  0  0  0  0  0  0
  148.6565  139.0963  156.2544 H   0  0  0  0  0  0  0  0  0  0  0  0
  150.3330  138.8577  155.7740 H   0  0  0  0  0  0  0  0  0  0  0  0
  149.0595  138.7525  154.5763 H   0  0  0  0  0  0  0  0  0  0  0  0
  149.8718  142.6689  156.2035 H   0  0  0  0  0  0  0  0  0  0  0  0
  149.1658  141.4432  157.2211 H   0  0  0  0  0  0  0  0  0  0  0  0
  151.3985  140.1943  157.0963 H   0  0  0  0  0  0  0  0  0  0  0  0
  152.0643  141.5537  156.2333 H   0  0  0  0  0  0  0  0  0  0  0  0
  150.7381  141.8480  158.9584 H   0  0  0  0  0  0  0  0  0  0  0  0
  152.6653  143.6125  157.4302 H   0  0  0  0  0  0  0  0  0  0  0  0
  151.0911  144.0562  158.0926 H   0  0  0  0  0  0  0  0  0  0  0  0
  153.2736  144.6031  159.5576 H   0  0  0  0  0  0  0  0  0  0  0  0
  151.8943  143.8538  160.3558 H   0  0  0  0  0  0  0  0  0  0  0  0
  154.4931  142.5739  159.5806 H   0  0  0  0  0  0  0  0  0  0  0  0
  153.4685  142.2348  160.9619 H   0  0  0  0  0  0  0  0  0  0  0  0
  153.5578  140.9543  158.3477 H   0  0  0  0  0  0  0  0  0  0  0  0
  151.5614  140.3910  160.5072 H   0  0  0  0  0  0  0  0  0  0  0  0
  151.2249  138.3768  161.1505 H   0  0  0  0  0  0  0  0  0  0  0  0
  151.9222  137.0607  160.2360 H   0  0  0  0  0  0  0  0  0  0  0  0
  153.2646  139.4909  162.7979 H   0  0  0  0  0  0  0  0  0  0  0  0
  1  2  1  0  0  0  0
  1 21  1  0  0  0  0
  1 22  1  0  0  0  0
  1 23  1  0  0  0  0
  2  3  1  0  0  0  0
  2  4  1  0  0  0  0
  2 24  1  0  0  0  0
  3 25  1  0  0  0  0
  3 26  1  0  0  0  0
  3 27  1  0  0  0  0
  4  5  1  0  0  0  0
  4 28  1  0  0  0  0
  4 29  1  0  0  0  0
  5  6  1  0  0  0  0
  5 30  1  0  0  0  0
  5 31  1  0  0  0  0
  6 10  1  0  0  0  0
  6  7  1  0  0  0  0
  6 32  1  0  0  0  0
  7  8  1  0  0  0  0
  7 33  1  0  0  0  0
  7 34  1  0  0  0  0
  8  9  1  0  0  0  0
  8 35  1  0  0  0  0
  8 36  1  0  0  0  0
  9 10  1  0  0  0  0
  9 37  1  0  0  0  0
  9 38  1  0  0  0  0
 10 11  1  0  0  0  0
 10 39  1  0  0  0  0
 11 12  1  0  0  0  0
 11 40  1  0  0  0  0
 12 13  2  0  0  0  0
 12 14  1  0  0  0  0
 14 15  1  0  0  0  0
 14 41  1  0  0  0  0
 14 42  1  0  0  0  0
 15 19  1  0  0  0  0
 15 16  1  0  0  0  0
 16 17  2  0  0  0  0
 16 43  1  0  0  0  0
 17 18  1  0  0  0  0
 18 19  1  0  0  0  0
 19 20  2  0  0  0  0
M  CHG  1  18  -1
M  END
> <s_m_source_file>
AV-unprocessed.smi

> <i_m_source_file_index>
2229

> <i_lp_mmshare_version>
43012

> <i_f3d_flags>
0

> <s_epik_input>
W0NIM11bQ0hdKFtDSDNdKVtDSDJdW0NIMl1bQ0BASF0xW0NIMl1bQ0gyXVtDSDJdW0NASF0xW05IXUMoPU8pW0NIMl1uMltjSF1uW25IXWMyPU8=

> <s_epik_cmdline>
J2VwaWtfcHl0aG9uJywgJy1waCcsICc3LjAnLCAnLXRuJywgJzgnLCAnLW1hJywgJzIwMCcsICctbWV0YWxfYmluZGluZycsICctaW1hZScsICc8aW5maWxlLm1hZT4nLCAnLW9tYWUnLCAnPG91dGZpbGUubWFlPic=

> <r_lp_tautomer_probability>
1

> <r_epik_Ionization_Penalty>
13.6733

> <r_epik_Ionization_Penalty_Charging>
13.6725

> <r_epik_Ionization_Penalty_Neutral>
0.000837689

> <r_epik_State_Penalty>
5.67062

> <r_epik_Charging_Adjusted_Penalty>
19.3431

> <i_epik_Tot_Q>
-1

> <i_epik_Tot_abs_Q>
1

> <r_epik_Metal_State_Penalty>
1.61781

> <b_epik_Metal_Only>
1

> <s_lp_Force_Field>
OPLS_2005

> <r_lp_Energy>
25.828

> <b_lp_Chiralities_Consistent>
1

> <s_lp_Variant>
AV-unprocessed.smi:2229-5

> <Gold.Version>
5.8.1

> <Gold.Id.Protein>
6NUR|6NUR_protein|mol2

> <Gold.PLP.Fitness>
43.6990

> <Gold.PLP.PLP>
-38.2619

> <Gold.PLP.part.hbond>
-2.0000

> <Gold.PLP.part.metal>
0.0000

> <Gold.PLP.part.buried>
-4.2767

> <Gold.PLP.part.nonpolar>
-31.8454

> <Gold.PLP.part.repulsive>
0.1290

> <Gold.PLP.ligand.clash>
0.0000

> <Gold.PLP.ligand.torsion>
0.2992

> <Gold.PLP.Chemscore.Hbond>
2.0000

> <Gold.PLP.Chemscore.CHOScore>
0.0000

> <Gold.PLP.Chemscore.Metal>
0.0000

> <Gold.Chemscore.Hbonds>
donor molecule, donor type, donor heavy atom, donor atom, acceptor molecule, acceptor atom, score
      P1  H  6896  6907       L1    20  0.35

> <Gold.PLP.Chemscore.Internal.Correction>
0.0355

> <Gold.Rescore>
     Score         DG    S(hbond)    S(metal)    S(lipo)     H(rot)  DE(clash)    DE(int)     intcor
     15.42     -15.86       2.00        0.00      88.49       2.59       0.00       0.45       ----

> <Gold.Chemscore.Fitness>
15.4174

> <Gold.Chemscore.DG>
-15.8627

> <Gold.Chemscore.ZeroCoef>
-5.4800

> <Gold.Chemscore.Hbond>
1.9971

> <Gold.Chemscore.Metal>
0.0000

> <Gold.Chemscore.Lipo>
88.4866

> <Gold.Chemscore.Internal_Hbond>
0.0000

> <Gold.Chemscore.DEClash>
0.0000

> <Gold.Chemscore.DEInternal>
0.4453

> <Gold.Chemscore.Rot>
2.5939

> <Gold.Chemscore.Internal.Correction>
   9.000000E+99

> <Gold.Chemscore.Hbonds>
donor molecule, donor type, donor heavy atom, donor atom, acceptor molecule, acceptor atom, score
      P1  H  6896  6907       L1    20  0.34

> <Gold.Chemscore.Hbond.Weighted>
-6.6703

> <Gold.Chemscore.Metal.Weighted>
-0.0000

> <Gold.Chemscore.Lipo.Weighted>
-10.3529

> <Gold.Chemscore.Internal_Hbond.Weighted>
0.0000

> <Gold.Chemscore.DEClash.Weighted>
0.0000

> <Gold.Chemscore.DEInternal.Weighted>
0.4453

> <Gold.Chemscore.Rot.Weighted>
6.6405

> <Gold.Chemscore.Internal.Correction.Weighted>
   9.000000E+99

> <Gold.Protein.RotatedTorsions>
[ 6907 6896 6895 6894 ] final   70.02 input  -60.11 | X-H torsion
[ 7974 7965 7964 7962 ] final -110.23 input  175.53 | X-H torsion
[ 8008 7997 7996 7995 ] final  124.08 input   59.86 | X-H torsion
[ 10167 10162 10161 10158 ] final  153.63 input  -65.29 | X-H torsion
[ 10718 10713 10712 10709 ] final  -22.68 input   66.30 | X-H torsion
[ 10763 10752 10751 10750 ] final   37.71 input  -60.55 | X-H torsion
[ 11005 11000 10999 10996 ] final  -99.59 input  -57.11 | X-H torsion

> <Gold.Protein.ActiveResidues>
 VAL166  LYS551  ARG553  GLY616  TRP617  ASP618  TYR619  PRO620  LYS621  CYS622 
 ASP623  PHE694  ASN695  SER759  ASP760  ASP761  ALA762  ILE779  LEU786  VAL792 
 PHE793  MET794  SER795  GLU796  ALA797  LYS798  CYS799  TRP800  GLU811  SER814 

> <Gold.Protein.RotatedAtoms>
  152.4723  134.4930  159.9700 H   0  0  0  0  0  0  0  0  0  0  0  0  # atno 6907 bound_to 6896
  151.4954  133.3510  159.2868 H   0  0  0  0  0  0  0  0  0  0  0  0  # atno 6908 bound_to 6896
  150.8740  134.8147  159.7238 H   0  0  0  0  0  0  0  0  0  0  0  0  # atno 6909 bound_to 6896
  145.1707  140.8924  143.3537 H   0  0  0  0  0  0  0  0  0  0  0  0  # atno 7974 bound_to 7965
  156.2789  140.2748  156.1730 H   0  0  0  0  0  0  0  0  0  0  0  0  # atno 8008 bound_to 7997
  155.0635  140.0387  157.2602 H   0  0  0  0  0  0  0  0  0  0  0  0  # atno 8009 bound_to 7997
  154.7098  140.2666  155.6646 H   0  0  0  0  0  0  0  0  0  0  0  0  # atno 8010 bound_to 7997
  139.4826  144.5256  151.7806 H   0  0  0  0  0  0  0  0  0  0  0  0  # atno 10167 bound_to 10162
  156.5013  130.4588  149.6700 H   0  0  0  0  0  0  0  0  0  0  0  0  # atno 10718 bound_to 10713
  153.0027  135.6270  154.2188 H   0  0  0  0  0  0  0  0  0  0  0  0  # atno 10763 bound_to 10752
  154.1931  135.2807  155.3017 H   0  0  0  0  0  0  0  0  0  0  0  0  # atno 10764 bound_to 10752
  154.5744  135.5667  153.7184 H   0  0  0  0  0  0  0  0  0  0  0  0  # atno 10765 bound_to 10752
  141.1303  133.8333  157.0991 H   0  0  0  0  0  0  0  0  0  0  0  0  # atno 11005 bound_to 11000
  145.0235  139.3403  143.6060 LP  0  0  0  0  0  0  0  0  0  0  0  0  # atno 17320 bound_to 7965
  146.3469  139.9545  142.8725 LP  0  0  0  0  0  0  0  0  0  0  0  0  # atno 17321 bound_to 7965
  140.4776  144.1497  150.5927 LP  0  0  0  0  0  0  0  0  0  0  0  0  # atno 17342 bound_to 10162
  140.4314  143.2566  151.9591 LP  0  0  0  0  0  0  0  0  0  0  0  0  # atno 17343 bound_to 10162
  156.3330  130.7342  151.2274 LP  0  0  0  0  0  0  0  0  0  0  0  0  # atno 17370 bound_to 10713
  157.7462  131.0424  150.4695 LP  0  0  0  0  0  0  0  0  0  0  0  0  # atno 17371 bound_to 10713
  140.0344  134.9885  157.0843 LP  0  0  0  0  0  0  0  0  0  0  0  0  # atno 17394 bound_to 11000
  140.4233  134.1857  155.7165 LP  0  0  0  0  0  0  0  0  0  0  0  0  # atno 17395 bound_to 11000

$$$$
