AV-unprocessed.smi:199|AV-procd|sdf|1568|dock1
  -GOLD-   2262019443D 1   1.00000     0.00000
 Structure written by MMmdl.
 51 55  0  0  0  0  0  0  0  0  1 V2000
  151.8076  137.3579  157.6398 C   0  0  0  0  0  0  0  0  0  0  0  0
  151.7591  137.7231  156.1479 C   0  0  2  0  0  0  0  0  0  0  0  0
  151.2966  139.0669  156.0422 O   0  0  0  0  0  0  0  0  0  0  0  0
  150.6129  139.2169  154.8107 C   0  0  0  0  0  0  0  0  0  0  0  0
  149.8272  137.9182  154.7163 C   0  0  0  0  0  0  0  0  0  0  0  0
  150.8121  136.8792  155.2474 C   0  0  1  0  0  0  0  0  0  0  0  0
  151.5760  136.4054  154.1502 O   0  0  0  0  0  0  0  0  0  0  0  0
  150.1259  135.6589  155.9170 C   0  0  0  0  0  0  0  0  0  0  0  0
  149.0700  135.0715  155.1052 N   0  0  0  0  0  0  0  0  0  0  0  0
  149.1242  133.8792  154.4207 C   0  0  0  0  0  0  0  0  0  0  0  0
  148.0465  133.5725  153.7533 N   0  0  0  0  0  0  0  0  0  0  0  0
  147.1728  134.6243  154.0043 C   0  0  0  0  0  0  0  0  0  0  0  0
  145.8432  134.9389  153.5963 C   0  0  0  0  0  0  0  0  0  0  0  0
  145.0930  134.1547  152.7737 N   0  0  0  0  0  0  0  0  0  0  0  0
  143.7264  134.5250  152.4349 C   0  0  1  0  0  0  0  0  0  0  0  0
  143.8935  135.6860  151.4357 C   0  0  0  0  0  0  0  0  0  0  0  0
  145.1665  135.2575  150.6907 C   0  0  0  0  0  0  0  0  0  0  0  0
  145.4959  133.9193  151.3934 C   0  0  2  0  0  0  0  0  0  0  0  0
  144.5109  132.8044  150.9804 C   0  0  2  0  0  0  0  0  0  0  0  0
  144.3868  132.5233  149.4715 C   0  0  0  0  0  0  0  0  0  0  0  0
  143.1245  131.9571  149.1903 O   0  0  0  0  0  0  0  0  0  0  0  0
  143.2222  133.2850  151.6739 C   0  0  0  0  0  0  0  0  0  0  0  0
  145.3204  136.1139  154.0383 N   0  0  0  0  0  0  0  0  0  0  0  0
  146.0264  136.9127  154.8425 C   0  0  0  0  0  0  0  0  0  0  0  0
  147.2622  136.7403  155.3120 N   0  0  0  0  0  0  0  0  0  0  0  0
  147.8055  135.5760  154.8559 C   0  0  0  0  0  0  0  0  0  0  0  0
  152.1617  136.3379  157.7892 H   0  0  0  0  0  0  0  0  0  0  0  0
  150.8277  137.4533  158.1081 H   0  0  0  0  0  0  0  0  0  0  0  0
  152.4893  138.0202  158.1739 H   0  0  0  0  0  0  0  0  0  0  0  0
  152.7781  137.6973  155.7566 H   0  0  0  0  0  0  0  0  0  0  0  0
  149.9734  140.0998  154.8090 H   0  0  0  0  0  0  0  0  0  0  0  0
  151.3314  139.3046  153.9944 H   0  0  0  0  0  0  0  0  0  0  0  0
  148.9636  137.9896  155.3783 H   0  0  0  0  0  0  0  0  0  0  0  0
  149.4585  137.7077  153.7113 H   0  0  0  0  0  0  0  0  0  0  0  0
  151.2661  136.8284  153.3642 H   0  0  0  0  0  0  0  0  0  0  0  0
  150.8588  134.8805  156.1332 H   0  0  0  0  0  0  0  0  0  0  0  0
  149.6879  135.9443  156.8738 H   0  0  0  0  0  0  0  0  0  0  0  0
  149.9981  133.2442  154.4245 H   0  0  0  0  0  0  0  0  0  0  0  0
  143.0791  134.7733  153.2739 H   0  0  0  0  0  0  0  0  0  0  0  0
  143.0333  135.8018  150.7754 H   0  0  0  0  0  0  0  0  0  0  0  0
  144.0514  136.6316  151.9561 H   0  0  0  0  0  0  0  0  0  0  0  0
  145.0260  135.1682  149.6147 H   0  0  0  0  0  0  0  0  0  0  0  0
  145.9613  135.9867  150.8526 H   0  0  0  0  0  0  0  0  0  0  0  0
  146.5356  133.6134  151.2710 H   0  0  0  0  0  0  0  0  0  0  0  0
  144.8438  131.8859  151.4685 H   0  0  0  0  0  0  0  0  0  0  0  0
  144.5000  133.4314  148.8798 H   0  0  0  0  0  0  0  0  0  0  0  0
  145.1597  131.8235  149.1523 H   0  0  0  0  0  0  0  0  0  0  0  0
  142.5017  132.6569  149.0659 H   0  0  0  0  0  0  0  0  0  0  0  0
  142.8542  132.5237  152.3628 H   0  0  0  0  0  0  0  0  0  0  0  0
  142.4170  133.5238  150.9779 H   0  0  0  0  0  0  0  0  0  0  0  0
  145.5305  137.8207  155.1520 H   0  0  0  0  0  0  0  0  0  0  0  0
  1  2  1  0  0  0  0
  1 27  1  0  0  0  0
  1 28  1  0  0  0  0
  1 29  1  0  0  0  0
  2  6  1  0  0  0  0
  2  3  1  0  0  0  0
  2 30  1  0  0  0  0
  3  4  1  0  0  0  0
  4  5  1  0  0  0  0
  4 31  1  0  0  0  0
  4 32  1  0  0  0  0
  5  6  1  0  0  0  0
  5 33  1  0  0  0  0
  5 34  1  0  0  0  0
  6  7  1  0  0  0  0
  6  8  1  0  0  0  0
  7 35  1  0  0  0  0
  8  9  1  0  0  0  0
  8 36  1  0  0  0  0
  8 37  1  0  0  0  0
  9 26  1  0  0  0  0
  9 10  1  0  0  0  0
 10 11  2  0  0  0  0
 10 38  1  0  0  0  0
 11 12  1  0  0  0  0
 12 26  2  0  0  0  0
 12 13  1  0  0  0  0
 13 14  1  0  0  0  0
 13 23  2  0  0  0  0
 14 18  1  0  0  0  0
 14 15  1  0  0  0  0
 15 22  1  0  0  0  0
 15 16  1  0  0  0  0
 15 39  1  0  0  0  0
 16 17  1  0  0  0  0
 16 40  1  0  0  0  0
 16 41  1  0  0  0  0
 17 18  1  0  0  0  0
 17 42  1  0  0  0  0
 17 43  1  0  0  0  0
 18 19  1  0  0  0  0
 18 44  1  0  0  0  0
 19 20  1  0  0  0  0
 19 22  1  0  0  0  0
 19 45  1  0  0  0  0
 20 21  1  0  0  0  0
 20 46  1  0  0  0  0
 20 47  1  0  0  0  0
 21 48  1  0  0  0  0
 22 49  1  0  0  0  0
 22 50  1  0  0  0  0
 23 24  1  0  0  0  0
 24 25  2  0  0  0  0
 24 51  1  0  0  0  0
 25 26  1  0  0  0  0
M  END
> <s_m_source_file>
AV-unprocessed.smi

> <i_m_source_file_index>
199

> <i_lp_mmshare_version>
43012

> <i_f3d_flags>
0

> <s_epik_input>
W0NIMl0xW0NIMl1PW0NAQEhdKFtDSDNdKVtDQEBdMShbT0hdKVtDSDJdbihbY0hdbjIpYyhjMjMpbltjSF1uYzNOKFtDQEBIXTQ1KVtDQEhdKFtDSDJdW0NIMl00KVtDQEhdKFtDSDJdNSlbQ0gyXVtPSF0=

> <s_epik_cmdline>
J2VwaWtfcHl0aG9uJywgJy1waCcsICc3LjAnLCAnLXRuJywgJzgnLCAnLW1hJywgJzIwMCcsICctbWV0YWxfYmluZGluZycsICctaW1hZScsICc8aW5maWxlLm1hZT4nLCAnLW9tYWUnLCAnPG91dGZpbGUubWFlPic=

> <r_lp_tautomer_probability>
1

> <r_epik_Ionization_Penalty>
0.00583903

> <r_epik_Ionization_Penalty_Charging>
0

> <r_epik_Ionization_Penalty_Neutral>
0.00583903

> <r_epik_State_Penalty>
-0

> <r_epik_Charging_Adjusted_Penalty>
0

> <i_epik_Tot_Q>
0

> <i_epik_Tot_abs_Q>
0

> <r_epik_Metal_State_Penalty>
-0

> <b_epik_Metal_Only>
0

> <s_lp_Force_Field>
OPLS_2005

> <r_lp_Energy>
83.953

> <b_lp_Chiralities_Consistent>
1

> <s_lp_Variant>
AV-unprocessed.smi:199-9

> <Gold.Version>
5.8.1

> <Gold.Id.Protein>
6NUR|6NUR_protein|mol2

> <Gold.PLP.Fitness>
46.8006

> <Gold.PLP.PLP>
-38.5348

> <Gold.PLP.part.hbond>
-4.9917

> <Gold.PLP.part.metal>
0.0000

> <Gold.PLP.part.buried>
-5.5015

> <Gold.PLP.part.nonpolar>
-28.7592

> <Gold.PLP.part.repulsive>
0.3389

> <Gold.PLP.ligand.clash>
0.0000

> <Gold.PLP.ligand.torsion>
0.5358

> <Gold.PLP.Chemscore.Hbond>
3.0995

> <Gold.PLP.Chemscore.CHOScore>
0.0000

> <Gold.PLP.Chemscore.Metal>
0.0000

> <Gold.Chemscore.Hbonds>
donor molecule, donor type, donor heavy atom, donor atom, acceptor molecule, acceptor atom, score
      L1  H     7    35       P1  7949  0.50
      L1  H    21    48       P1 10186  0.19
      P1  H 10752 10764       L1     7  1.00
      P1  H 10785 10796       L1    21  1.00

> <Gold.PLP.Chemscore.Internal.Correction>
0.0388

> <Gold.Rescore>
     Score         DG    S(hbond)    S(metal)    S(lipo)     H(rot)  DE(clash)    DE(int)     intcor
     13.95     -16.40       2.79        0.00      80.92       3.07       0.50       1.95       ----

> <Gold.Chemscore.Fitness>
13.9482

> <Gold.Chemscore.DG>
-16.3981

> <Gold.Chemscore.ZeroCoef>
-5.4800

> <Gold.Chemscore.Hbond>
2.7895

> <Gold.Chemscore.Metal>
0.0000

> <Gold.Chemscore.Lipo>
80.9209

> <Gold.Chemscore.Internal_Hbond>
0.0000

> <Gold.Chemscore.DEClash>
0.5014

> <Gold.Chemscore.DEInternal>
1.9485

> <Gold.Chemscore.Rot>
3.0729

> <Gold.Chemscore.Internal.Correction>
   9.000000E+99

> <Gold.Chemscore.Hbonds>
donor molecule, donor type, donor heavy atom, donor atom, acceptor molecule, acceptor atom, score
      L1  H     7    35       P1  7949  0.31
      L1  H    21    48       P1 10186  0.21
      P1  H 10752 10764       L1     7  0.93
      P1  H 10785 10796       L1    21  0.87

> <Gold.Chemscore.Hbond.Weighted>
-9.3171

> <Gold.Chemscore.Metal.Weighted>
-0.0000

> <Gold.Chemscore.Lipo.Weighted>
-9.4677

> <Gold.Chemscore.Internal_Hbond.Weighted>
0.0000

> <Gold.Chemscore.DEClash.Weighted>
0.5014

> <Gold.Chemscore.DEInternal.Weighted>
1.9485

> <Gold.Chemscore.Rot.Weighted>
7.8667

> <Gold.Chemscore.Internal.Correction.Weighted>
   9.000000E+99

> <Gold.Protein.RotatedTorsions>
[ 6907 6896 6895 6894 ] final  168.96 input  -60.11 | X-H torsion
[ 7974 7965 7964 7962 ] final   -1.81 input  175.53 | X-H torsion
[ 8008 7997 7996 7995 ] final -170.03 input   59.86 | X-H torsion
[ 10167 10162 10161 10158 ] final -150.65 input  -65.29 | X-H torsion
[ 10718 10713 10712 10709 ] final  112.27 input   66.30 | X-H torsion
[ 10763 10752 10751 10750 ] final  -89.53 input  -60.55 | X-H torsion
[ 11005 11000 10999 10996 ] final -131.24 input  -57.11 | X-H torsion

> <Gold.Protein.ActiveResidues>
 VAL166  LYS551  ARG553  GLY616  TRP617  ASP618  TYR619  PRO620  LYS621  CYS622 
 ASP623  PHE694  ASN695  SER759  ASP760  ASP761  ALA762  ILE779  LEU786  VAL792 
 PHE793  MET794  SER795  GLU796  ALA797  LYS798  CYS799  TRP800  GLU811  SER814 

> <Gold.Protein.RotatedAtoms>
  151.8393  133.3421  159.3637 H   0  0  0  0  0  0  0  0  0  0  0  0  # atno 6907 bound_to 6896
  150.7239  134.5406  159.5755 H   0  0  0  0  0  0  0  0  0  0  0  0  # atno 6908 bound_to 6896
  152.2877  134.7758  160.0435 H   0  0  0  0  0  0  0  0  0  0  0  0  # atno 6909 bound_to 6896
  146.2412  140.1477  142.8334 H   0  0  0  0  0  0  0  0  0  0  0  0  # atno 7974 bound_to 7965
  155.9128  140.1060  157.1266 H   0  0  0  0  0  0  0  0  0  0  0  0  # atno 8008 bound_to 7997
  154.4042  140.1271  156.4644 H   0  0  0  0  0  0  0  0  0  0  0  0  # atno 8009 bound_to 7997
  155.7289  140.3468  155.5052 H   0  0  0  0  0  0  0  0  0  0  0  0  # atno 8010 bound_to 7997
  139.7336  143.8770  152.2542 H   0  0  0  0  0  0  0  0  0  0  0  0  # atno 10167 bound_to 10162
  157.6401  131.0965  150.6871 H   0  0  0  0  0  0  0  0  0  0  0  0  # atno 10718 bound_to 10713
  154.6563  135.5337  153.7962 H   0  0  0  0  0  0  0  0  0  0  0  0  # atno 10763 bound_to 10752
  153.0415  135.6494  154.0941 H   0  0  0  0  0  0  0  0  0  0  0  0  # atno 10764 bound_to 10752
  154.0853  135.2944  155.3262 H   0  0  0  0  0  0  0  0  0  0  0  0  # atno 10765 bound_to 10752
  140.9276  134.1362  157.4262 H   0  0  0  0  0  0  0  0  0  0  0  0  # atno 11005 bound_to 11000
  145.0193  140.8780  143.5176 LP  0  0  0  0  0  0  0  0  0  0  0  0  # atno 17320 bound_to 7965
  145.1523  139.2507  143.5434 LP  0  0  0  0  0  0  0  0  0  0  0  0  # atno 17321 bound_to 7965
  139.8700  144.7073  150.8998 LP  0  0  0  0  0  0  0  0  0  0  0  0  # atno 17342 bound_to 10162
  140.7775  143.3746  151.1587 LP  0  0  0  0  0  0  0  0  0  0  0  0  # atno 17343 bound_to 10162
  156.7196  130.4676  149.5526 LP  0  0  0  0  0  0  0  0  0  0  0  0  # atno 17370 bound_to 10713
  156.1674  130.6415  151.0796 LP  0  0  0  0  0  0  0  0  0  0  0  0  # atno 17371 bound_to 10713
  139.8789  134.9994  156.5951 LP  0  0  0  0  0  0  0  0  0  0  0  0  # atno 17394 bound_to 11000
  140.7905  133.8586  155.8642 LP  0  0  0  0  0  0  0  0  0  0  0  0  # atno 17395 bound_to 11000

$$$$
