AV-unprocessed.smi:1806|AV-procd|sdf|7300|dock6
  -GOLD-   22720 8553D 1   1.00000     0.00000
 Structure written by MMmdl.
 27 28  0  0  0  0  0  0  0  0  2 V2000
  151.8792  144.7661  158.7707 C   0  0  0  0  0  0  0  0  0  0  0  0
  152.3945  143.4812  159.3840 C   0  0  0  0  0  0  0  0  0  0  0  0
  152.7665  143.4293  160.7415 C   0  0  0  0  0  0  0  0  0  0  0  0
  153.2377  142.2062  161.2507 C   0  0  0  0  0  0  0  0  0  0  0  0
  153.3199  141.0973  160.3869 C   0  0  0  0  0  0  0  0  0  0  0  0
  152.9352  141.2357  159.0328 C   0  0  0  0  0  0  0  0  0  0  0  0
  152.9970  140.1824  158.2040 N   0  5  0  0  0  0  0  0  0  0  0  0
  151.9221  139.3711  158.0272 C   0  0  0  0  0  0  0  0  0  0  0  0
  151.2985  138.8369  158.9493 O   0  0  0  0  0  0  0  0  0  0  0  0
  151.5200  139.1537  156.6397 C   0  0  0  0  0  0  0  0  0  0  0  0
  151.2051  140.2083  155.8503 C   0  0  0  0  0  0  0  0  0  0  0  0
  150.7859  140.0904  154.5485 O   0  0  0  0  0  0  0  0  0  0  0  0
  150.4629  138.7648  154.1464 C   0  0  0  0  0  0  0  0  0  0  0  0
  151.4790  137.7682  154.7216 C   0  0  0  0  0  0  0  0  0  0  0  0
  151.5157  137.8694  156.1401 O   0  0  0  0  0  0  0  0  0  0  0  0
  152.4742  142.4169  158.5557 N   0  0  0  0  0  0  0  0  0  0  0  0
  151.4547  145.4192  159.5336 H   0  0  0  0  0  0  0  0  0  0  0  0
  151.1030  144.5601  158.0325 H   0  0  0  0  0  0  0  0  0  0  0  0
  152.6920  145.2982  158.2763 H   0  0  0  0  0  0  0  0  0  0  0  0
  152.6925  144.3000  161.3761 H   0  0  0  0  0  0  0  0  0  0  0  0
  153.5309  142.1179  162.2862 H   0  0  0  0  0  0  0  0  0  0  0  0
  153.6787  140.1492  160.7603 H   0  0  0  0  0  0  0  0  0  0  0  0
  151.2123  141.2410  156.1686 H   0  0  0  0  0  0  0  0  0  0  0  0
  149.4561  138.5208  154.4879 H   0  0  0  0  0  0  0  0  0  0  0  0
  150.4538  138.7144  153.0575 H   0  0  0  0  0  0  0  0  0  0  0  0
  151.2137  136.7482  154.4434 H   0  0  0  0  0  0  0  0  0  0  0  0
  152.4750  137.9624  154.3210 H   0  0  0  0  0  0  0  0  0  0  0  0
  1  2  1  0  0  0  0
  1 17  1  0  0  0  0
  1 18  1  0  0  0  0
  1 19  1  0  0  0  0
  2 16  1  0  0  0  0
  2  3  2  0  0  0  0
  3  4  1  0  0  0  0
  3 20  1  0  0  0  0
  4  5  2  0  0  0  0
  4 21  1  0  0  0  0
  5  6  1  0  0  0  0
  5 22  1  0  0  0  0
  6  7  1  0  0  0  0
  6 16  2  0  0  0  0
  7  8  1  0  0  0  0
  8  9  2  0  0  0  0
  8 10  1  0  0  0  0
 10 15  1  0  0  0  0
 10 11  2  0  0  0  0
 11 12  1  0  0  0  0
 11 23  1  0  0  0  0
 12 13  1  0  0  0  0
 13 14  1  0  0  0  0
 13 24  1  0  0  0  0
 13 25  1  0  0  0  0
 14 15  1  0  0  0  0
 14 26  1  0  0  0  0
 14 27  1  0  0  0  0
M  CHG  1   7  -1
M  END
> <s_m_source_file>
AV-unprocessed.smi

> <i_m_source_file_index>
1806

> <i_lp_mmshare_version>
43012

> <i_f3d_flags>
0

> <s_epik_input>
W0NIM11jMVtjSF1bY0hdW2NIXWMobjEpW05IXUMoPU8pQzI9W0NIXU9bQ0gyXVtDSDJdTzI=

> <s_epik_cmdline>
J2VwaWtfcHl0aG9uJywgJy1waCcsICc3LjAnLCAnLXRuJywgJzgnLCAnLW1hJywgJzIwMCcsICctbWV0YWxfYmluZGluZycsICctaW1hZScsICc8aW5maWxlLm1hZT4nLCAnLW9tYWUnLCAnPG91dGZpbGUubWFlPic=

> <r_lp_tautomer_probability>
1

> <r_epik_Ionization_Penalty>
11.2807

> <r_epik_Ionization_Penalty_Charging>
5.82682

> <r_epik_Ionization_Penalty_Neutral>
5.45386

> <r_epik_State_Penalty>
5.82679

> <r_epik_Charging_Adjusted_Penalty>
11.6536

> <i_epik_Tot_Q>
-1

> <i_epik_Tot_abs_Q>
1

> <r_epik_Metal_State_Penalty>
1.79445

> <b_epik_Metal_Only>
1

> <s_lp_Force_Field>
OPLS_2005

> <r_lp_Energy>
4.64637

> <b_lp_Chiralities_Consistent>
1

> <s_lp_Variant>
AV-unprocessed.smi:1806-2

> <Gold.Version>
5.8.1

> <Gold.Id.Protein>
6NUR|6NUR_protein|mol2

> <Gold.PLP.Fitness>
41.0521

> <Gold.PLP.PLP>
-36.5421

> <Gold.PLP.part.hbond>
-2.0000

> <Gold.PLP.part.metal>
0.0000

> <Gold.PLP.part.buried>
-4.6120

> <Gold.PLP.part.nonpolar>
-29.8736

> <Gold.PLP.part.repulsive>
0.0874

> <Gold.PLP.ligand.clash>
0.0000

> <Gold.PLP.ligand.torsion>
2.3159

> <Gold.PLP.Chemscore.Hbond>
3.0000

> <Gold.PLP.Chemscore.CHOScore>
0.0000

> <Gold.PLP.Chemscore.Metal>
0.0000

> <Gold.Chemscore.Hbonds>
donor molecule, donor type, donor heavy atom, donor atom, acceptor molecule, acceptor atom, score
      P1  H  7989  7998       L1    12  1.00
      P1  H  7997  8010       L1     7  1.95

> <Gold.PLP.Chemscore.Internal.Correction>
0.1418

> <Gold.Rescore>
     Score         DG    S(hbond)    S(metal)    S(lipo)     H(rot)  DE(clash)    DE(int)     intcor
     19.51     -21.66       1.81        0.00      86.70       0.00       0.01       2.13       ----

> <Gold.Chemscore.Fitness>
19.5138

> <Gold.Chemscore.DG>
-21.6585

> <Gold.Chemscore.ZeroCoef>
-5.4800

> <Gold.Chemscore.Hbond>
1.8067

> <Gold.Chemscore.Metal>
0.0000

> <Gold.Chemscore.Lipo>
86.7026

> <Gold.Chemscore.Internal_Hbond>
0.0000

> <Gold.Chemscore.DEClash>
0.0098

> <Gold.Chemscore.DEInternal>
2.1349

> <Gold.Chemscore.Rot>
0.0000

> <Gold.Chemscore.Internal.Correction>
   9.000000E+99

> <Gold.Chemscore.Hbonds>
donor molecule, donor type, donor heavy atom, donor atom, acceptor molecule, acceptor atom, score
      P1  H  7989  7998       L1    12  0.76
      P1  H  7997  8010       L1     7  0.85

> <Gold.Chemscore.Hbond.Weighted>
-6.0343

> <Gold.Chemscore.Metal.Weighted>
-0.0000

> <Gold.Chemscore.Lipo.Weighted>
-10.1442

> <Gold.Chemscore.Internal_Hbond.Weighted>
0.0000

> <Gold.Chemscore.DEClash.Weighted>
0.0098

> <Gold.Chemscore.DEInternal.Weighted>
2.1349

> <Gold.Chemscore.Rot.Weighted>
0.0000

> <Gold.Chemscore.Internal.Correction.Weighted>
   9.000000E+99

> <Gold.Protein.RotatedTorsions>
[ 6907 6896 6895 6894 ] final   -8.77 input  -60.11 | X-H torsion
[ 7974 7965 7964 7962 ] final  164.22 input  175.53 | X-H torsion
[ 8008 7997 7996 7995 ] final   37.59 input   59.86 | X-H torsion
[ 10167 10162 10161 10158 ] final  -39.57 input  -65.29 | X-H torsion
[ 10718 10713 10712 10709 ] final  176.67 input   66.30 | X-H torsion
[ 10763 10752 10751 10750 ] final   73.82 input  -60.55 | X-H torsion
[ 11005 11000 10999 10996 ] final -117.76 input  -57.11 | X-H torsion

> <Gold.Protein.ActiveResidues>
 VAL166  LYS551  ARG553  GLY616  TRP617  ASP618  TYR619  PRO620  LYS621  CYS622 
 ASP623  PHE694  ASN695  SER759  ASP760  ASP761  ALA762  ILE779  LEU786  VAL792 
 PHE793  MET794  SER795  GLU796  ALA797  LYS798  CYS799  TRP800  GLU811  SER814 

> <Gold.Protein.RotatedAtoms>
  151.4284  135.1006  159.9634 H   0  0  0  0  0  0  0  0  0  0  0  0  # atno 6907 bound_to 6896
  152.4964  133.8641  159.7275 H   0  0  0  0  0  0  0  0  0  0  0  0  # atno 6908 bound_to 6896
  150.9173  133.6865  159.2868 H   0  0  0  0  0  0  0  0  0  0  0  0  # atno 6909 bound_to 6896
  144.7555  139.8294  143.6351 H   0  0  0  0  0  0  0  0  0  0  0  0  # atno 7974 bound_to 7965
  155.2063  140.3320  155.4335 H   0  0  0  0  0  0  0  0  0  0  0  0  # atno 8008 bound_to 7997
  156.2387  140.1885  156.7097 H   0  0  0  0  0  0  0  0  0  0  0  0  # atno 8009 bound_to 7997
  154.6107  140.0609  156.9476 H   0  0  0  0  0  0  0  0  0  0  0  0  # atno 8010 bound_to 7997
  140.7060  143.3206  151.2801 H   0  0  0  0  0  0  0  0  0  0  0  0  # atno 10167 bound_to 10162
  156.9166  130.9927  151.3011 H   0  0  0  0  0  0  0  0  0  0  0  0  # atno 10718 bound_to 10713
  153.0546  135.5048  154.7951 H   0  0  0  0  0  0  0  0  0  0  0  0  # atno 10763 bound_to 10752
  154.6786  135.2964  154.9646 H   0  0  0  0  0  0  0  0  0  0  0  0  # atno 10764 bound_to 10752
  154.0440  135.6713  153.4845 H   0  0  0  0  0  0  0  0  0  0  0  0  # atno 10765 bound_to 10752
  141.0333  133.9949  157.3110 H   0  0  0  0  0  0  0  0  0  0  0  0  # atno 11005 bound_to 11000
  146.1559  139.4657  143.0019 LP  0  0  0  0  0  0  0  0  0  0  0  0  # atno 17320 bound_to 7965
  145.6795  141.0195  143.1614 LP  0  0  0  0  0  0  0  0  0  0  0  0  # atno 17321 bound_to 7965
  139.6659  144.0106  152.2722 LP  0  0  0  0  0  0  0  0  0  0  0  0  # atno 17342 bound_to 10162
  139.9689  144.6507  150.8008 LP  0  0  0  0  0  0  0  0  0  0  0  0  # atno 17343 bound_to 10162
  157.5934  130.8460  149.8693 LP  0  0  0  0  0  0  0  0  0  0  0  0  # atno 17370 bound_to 10713
  156.0510  130.3717  150.1201 LP  0  0  0  0  0  0  0  0  0  0  0  0  # atno 17371 bound_to 10713
  139.9223  135.0201  156.8107 LP  0  0  0  0  0  0  0  0  0  0  0  0  # atno 17394 bound_to 11000
  140.6368  133.9855  155.7688 LP  0  0  0  0  0  0  0  0  0  0  0  0  # atno 17395 bound_to 11000

$$$$
