AV-unprocessed.smi:2976|AV-procd|sdf|11362|dock3
  -GOLD-   2272016283D 1   1.00000     0.00000
 Structure written by MMmdl.
 40 41  0  0  0  0  0  0  0  0  1 V2000
  154.0813  142.0699  159.4993 C   0  0  0  0  0  0  0  0  0  0  0  0
  152.6571  142.1113  160.0905 C   0  0  1  0  0  0  0  0  0  0  0  0
  152.2205  143.5531  160.4212 C   0  0  0  0  0  0  0  0  0  0  0  0
  151.9023  144.3681  159.1579 C   0  0  0  0  0  0  0  0  0  0  0  0
  150.8409  143.6665  158.2996 C   0  0  0  0  0  0  0  0  0  0  0  0
  151.2530  142.2261  157.9402 C   0  0  2  0  0  0  0  0  0  0  0  0
  150.1652  141.6028  157.1875 N   0  0  0  0  0  0  0  0  0  0  0  0
  150.2937  140.9009  156.0507 C   0  0  0  0  0  0  0  0  0  0  0  0
  151.3703  140.7215  155.4800 O   0  0  0  0  0  0  0  0  0  0  0  0
  148.9969  140.3214  155.4684 C   0  0  0  0  0  0  0  0  0  0  0  0
  147.8762  141.2730  155.4968 N   0  0  0  0  0  0  0  0  0  0  0  0
  147.3112  141.4439  156.7484 N   0  0  0  0  0  0  0  0  0  0  0  0
  146.3253  142.2607  156.8930 C   0  0  0  0  0  0  0  0  0  0  0  0
  145.7781  143.0121  155.7851 C   0  0  0  0  0  0  0  0  0  0  0  0
  144.4540  144.0932  156.0401 Cl  0  0  0  0  0  0  0  0  0  0  0  0
  146.3368  142.8344  154.5616 C   0  0  0  0  0  0  0  0  0  0  0  0
  145.7366  143.6981  153.1876 Cl  0  0  0  0  0  0  0  0  0  0  0  0
  147.4608  141.9100  154.3584 C   0  0  0  0  0  0  0  0  0  0  0  0
  147.9905  141.7160  153.2634 O   0  0  0  0  0  0  0  0  0  0  0  0
  151.5856  141.4059  159.2160 C   0  0  1  0  0  0  0  0  0  0  0  0
  151.9476  139.9363  158.9201 C   0  0  0  0  0  0  0  0  0  0  0  0
  154.1337  142.5371  158.5164 H   0  0  0  0  0  0  0  0  0  0  0  0
  154.4437  141.0472  159.3983 H   0  0  0  0  0  0  0  0  0  0  0  0
  154.7853  142.5920  160.1476 H   0  0  0  0  0  0  0  0  0  0  0  0
  152.7068  141.5742  161.0388 H   0  0  0  0  0  0  0  0  0  0  0  0
  151.3337  143.5221  161.0554 H   0  0  0  0  0  0  0  0  0  0  0  0
  152.9903  144.0572  161.0064 H   0  0  0  0  0  0  0  0  0  0  0  0
  151.5515  145.3614  159.4385 H   0  0  0  0  0  0  0  0  0  0  0  0
  152.8090  144.5198  158.5719 H   0  0  0  0  0  0  0  0  0  0  0  0
  149.8940  143.6553  158.8415 H   0  0  0  0  0  0  0  0  0  0  0  0
  150.6674  144.2433  157.3903 H   0  0  0  0  0  0  0  0  0  0  0  0
  152.1463  142.2818  157.3165 H   0  0  0  0  0  0  0  0  0  0  0  0
  149.2384  141.6965  157.5768 H   0  0  0  0  0  0  0  0  0  0  0  0
  149.1674  139.9852  154.4438 H   0  0  0  0  0  0  0  0  0  0  0  0
  148.7477  139.4219  156.0340 H   0  0  0  0  0  0  0  0  0  0  0  0
  145.8501  142.4289  157.8594 H   0  0  0  0  0  0  0  0  0  0  0  0
  150.6754  141.3745  159.8175 H   0  0  0  0  0  0  0  0  0  0  0  0
  152.7659  139.8608  158.2037 H   0  0  0  0  0  0  0  0  0  0  0  0
  151.0996  139.3917  158.5049 H   0  0  0  0  0  0  0  0  0  0  0  0
  152.2479  139.4143  159.8288 H   0  0  0  0  0  0  0  0  0  0  0  0
  1  2  1  0  0  0  0
  1 22  1  0  0  0  0
  1 23  1  0  0  0  0
  1 24  1  0  0  0  0
  2 20  1  0  0  0  0
  2  3  1  0  0  0  0
  2 25  1  0  0  0  0
  3  4  1  0  0  0  0
  3 26  1  0  0  0  0
  3 27  1  0  0  0  0
  4  5  1  0  0  0  0
  4 28  1  0  0  0  0
  4 29  1  0  0  0  0
  5  6  1  0  0  0  0
  5 30  1  0  0  0  0
  5 31  1  0  0  0  0
  6  7  1  0  0  0  0
  6 20  1  0  0  0  0
  6 32  1  0  0  0  0
  7  8  1  0  0  0  0
  7 33  1  0  0  0  0
  8  9  2  0  0  0  0
  8 10  1  0  0  0  0
 10 11  1  0  0  0  0
 10 34  1  0  0  0  0
 10 35  1  0  0  0  0
 11 18  1  0  0  0  0
 11 12  1  0  0  0  0
 12 13  2  0  0  0  0
 13 14  1  0  0  0  0
 13 36  1  0  0  0  0
 14 15  1  0  0  0  0
 14 16  2  0  0  0  0
 16 17  1  0  0  0  0
 16 18  1  0  0  0  0
 18 19  2  0  0  0  0
 20 21  1  0  0  0  0
 20 37  1  0  0  0  0
 21 38  1  0  0  0  0
 21 39  1  0  0  0  0
 21 40  1  0  0  0  0
M  END
> <s_m_source_file>
AV-unprocessed.smi

> <i_m_source_file_index>
2976

> <i_lp_mmshare_version>
43012

> <i_f3d_flags>
0

> <s_epik_input>
W0NIM11bQ0BASF0xW0NIMl1bQ0gyXVtDSDJdW0NASF0oW0NASF0xW0NIM10pW05IXUMoPU8pW0NIMl1uMm5bY0hdYyhDbCljKENsKWMyPU8=

> <s_epik_cmdline>
J2VwaWtfcHl0aG9uJywgJy1waCcsICc3LjAnLCAnLXRuJywgJzgnLCAnLW1hJywgJzIwMCcsICctbWV0YWxfYmluZGluZycsICctaW1hZScsICc8aW5maWxlLm1hZT4nLCAnLW9tYWUnLCAnPG91dGZpbGUubWFlPic=

> <r_lp_tautomer_probability>
1

> <r_epik_Ionization_Penalty>
1.90777e-08

> <r_epik_Ionization_Penalty_Charging>
3.07942e-11

> <r_epik_Ionization_Penalty_Neutral>
1.90469e-08

> <r_epik_State_Penalty>
-0

> <r_epik_Charging_Adjusted_Penalty>
3.07942e-11

> <i_epik_Tot_Q>
0

> <i_epik_Tot_abs_Q>
0

> <r_epik_Metal_State_Penalty>
-0

> <b_epik_Metal_Only>
0

> <s_lp_Force_Field>
OPLS_2005

> <r_lp_Energy>
28.0936

> <b_lp_Chiralities_Consistent>
1

> <s_lp_Variant>
AV-unprocessed.smi:2976-4

> <Gold.Version>
5.8.1

> <Gold.Id.Protein>
6NUR|6NUR_protein|mol2

> <Gold.PLP.Fitness>
40.6246

> <Gold.PLP.PLP>
-38.2588

> <Gold.PLP.part.hbond>
-2.0000

> <Gold.PLP.part.metal>
0.0000

> <Gold.PLP.part.buried>
-2.1915

> <Gold.PLP.part.nonpolar>
-33.8319

> <Gold.PLP.part.repulsive>
0.3249

> <Gold.PLP.ligand.clash>
0.0000

> <Gold.PLP.ligand.torsion>
0.5912

> <Gold.PLP.Chemscore.Hbond>
1.1810

> <Gold.PLP.Chemscore.CHOScore>
0.0000

> <Gold.PLP.Chemscore.Metal>
0.0000

> <Gold.Chemscore.Hbonds>
donor molecule, donor type, donor heavy atom, donor atom, acceptor molecule, acceptor atom, score
      P1  H  7989  7998       L1     9  0.75
      P1  H  8011  8017       L1    19  0.41

> <Gold.PLP.Chemscore.Internal.Correction>
0.0051

> <Gold.Rescore>
     Score         DG    S(hbond)    S(metal)    S(lipo)     H(rot)  DE(clash)    DE(int)     intcor
     13.23     -17.16       0.83        0.00     108.75       1.49       2.19       1.73       ----

> <Gold.Chemscore.Fitness>
13.2329

> <Gold.Chemscore.DG>
-17.1581

> <Gold.Chemscore.ZeroCoef>
-5.4800

> <Gold.Chemscore.Hbond>
0.8262

> <Gold.Chemscore.Metal>
0.0000

> <Gold.Chemscore.Lipo>
108.7546

> <Gold.Chemscore.Internal_Hbond>
0.0000

> <Gold.Chemscore.DEClash>
2.1938

> <Gold.Chemscore.DEInternal>
1.7315

> <Gold.Chemscore.Rot>
1.4866

> <Gold.Chemscore.Internal.Correction>
   9.000000E+99

> <Gold.Chemscore.Hbonds>
donor molecule, donor type, donor heavy atom, donor atom, acceptor molecule, acceptor atom, score
      P1  H  7989  7998       L1     9  0.73
      P1  H  8011  8017       L1    19  0.40

> <Gold.Chemscore.Hbond.Weighted>
-2.7595

> <Gold.Chemscore.Metal.Weighted>
-0.0000

> <Gold.Chemscore.Lipo.Weighted>
-12.7243

> <Gold.Chemscore.Internal_Hbond.Weighted>
0.0000

> <Gold.Chemscore.DEClash.Weighted>
2.1938

> <Gold.Chemscore.DEInternal.Weighted>
1.7315

> <Gold.Chemscore.Rot.Weighted>
3.8057

> <Gold.Chemscore.Internal.Correction.Weighted>
   9.000000E+99

> <Gold.Protein.RotatedTorsions>
[ 6907 6896 6895 6894 ] final -175.64 input  -60.11 | X-H torsion
[ 7974 7965 7964 7962 ] final -153.86 input  175.53 | X-H torsion
[ 8008 7997 7996 7995 ] final  -62.34 input   59.86 | X-H torsion
[ 10167 10162 10161 10158 ] final  -20.53 input  -65.29 | X-H torsion
[ 10718 10713 10712 10709 ] final  174.69 input   66.30 | X-H torsion
[ 10763 10752 10751 10750 ] final  -79.05 input  -60.55 | X-H torsion
[ 11005 11000 10999 10996 ] final   -6.72 input  -57.11 | X-H torsion

> <Gold.Protein.ActiveResidues>
 VAL166  LYS551  ARG553  GLY616  TRP617  ASP618  TYR619  PRO620  LYS621  CYS622 
 ASP623  PHE694  ASN695  SER759  ASP760  ASP761  ALA762  ILE779  LEU786  VAL792 
 PHE793  MET794  SER795  GLU796  ALA797  LYS798  CYS799  TRP800  GLU811  SER814 

> <Gold.Protein.RotatedAtoms>
  151.5919  133.3365  159.3029 H   0  0  0  0  0  0  0  0  0  0  0  0  # atno 6907 bound_to 6896
  150.8255  134.7487  159.6821 H   0  0  0  0  0  0  0  0  0  0  0  0  # atno 6908 bound_to 6896
  152.4345  134.5719  159.9975 H   0  0  0  0  0  0  0  0  0  0  0  0  # atno 6909 bound_to 6896
  144.7719  140.4467  143.5901 H   0  0  0  0  0  0  0  0  0  0  0  0  # atno 7974 bound_to 7965
  154.4495  140.0998  156.6572 H   0  0  0  0  0  0  0  0  0  0  0  0  # atno 8008 bound_to 7997
  155.5333  140.3482  155.4412 H   0  0  0  0  0  0  0  0  0  0  0  0  # atno 8009 bound_to 7997
  156.0649  140.1335  156.9887 H   0  0  0  0  0  0  0  0  0  0  0  0  # atno 8010 bound_to 7997
  140.7276  143.4714  151.0242 H   0  0  0  0  0  0  0  0  0  0  0  0  # atno 10167 bound_to 10162
  156.9459  131.0016  151.2959 H   0  0  0  0  0  0  0  0  0  0  0  0  # atno 10718 bound_to 10713
  154.5337  135.5709  153.6780 H   0  0  0  0  0  0  0  0  0  0  0  0  # atno 10763 bound_to 10752
  152.9945  135.6211  154.2595 H   0  0  0  0  0  0  0  0  0  0  0  0  # atno 10764 bound_to 10752
  154.2522  135.2859  155.2791 H   0  0  0  0  0  0  0  0  0  0  0  0  # atno 10765 bound_to 10752
  140.7050  133.8957  155.8710 H   0  0  0  0  0  0  0  0  0  0  0  0  # atno 11005 bound_to 11000
  145.6300  139.1535  143.2974 LP  0  0  0  0  0  0  0  0  0  0  0  0  # atno 17320 bound_to 7965
  146.1871  140.6404  142.9162 LP  0  0  0  0  0  0  0  0  0  0  0  0  # atno 17321 bound_to 7965
  139.8406  143.7569  152.3180 LP  0  0  0  0  0  0  0  0  0  0  0  0  # atno 17342 bound_to 10162
  139.7716  144.7474  151.0216 LP  0  0  0  0  0  0  0  0  0  0  0  0  # atno 17343 bound_to 10162
  157.5754  130.8339  149.8448 LP  0  0  0  0  0  0  0  0  0  0  0  0  # atno 17370 bound_to 10713
  156.0384  130.3745  150.1500 LP  0  0  0  0  0  0  0  0  0  0  0  0  # atno 17371 bound_to 10713
  141.0132  134.0991  157.4199 LP  0  0  0  0  0  0  0  0  0  0  0  0  # atno 17394 bound_to 11000
  139.8886  135.0099  156.6633 LP  0  0  0  0  0  0  0  0  0  0  0  0  # atno 17395 bound_to 11000

$$$$
