AV-unprocessed.smi:1961|AV-procd|sdf|7920|dock7
  -GOLD-   2272010 83D 1   1.00000     0.00000
 Structure written by MMmdl.
 35 36  0  0  0  0  0  0  0  0  2 V2000
  147.0959  139.9308  153.4186 C   0  0  0  0  0  0  0  0  0  0  0  0
  148.1649  140.2888  154.4615 C   0  0  0  0  0  0  0  0  0  0  0  0
  148.7474  141.6966  154.2706 C   0  0  0  0  0  0  0  0  0  0  0  0
  149.2334  139.2452  154.5568 C   0  0  0  0  0  0  0  0  0  0  0  0
  150.4994  139.4590  154.1852 N   0  0  0  0  0  0  0  0  0  0  0  0
  151.2969  138.3396  154.3713 N   0  0  0  0  0  0  0  0  0  0  0  0
  150.6299  137.2997  154.8905 C   0  0  0  0  0  0  0  0  0  0  0  0
  151.2190  136.1199  155.1461 N   0  5  0  0  0  0  0  0  0  0  0  0
  150.4653  135.0077  155.3013 C   0  0  0  0  0  0  0  0  0  0  0  0
  150.5412  134.1975  156.2281 O   0  0  0  0  0  0  0  0  0  0  0  0
  149.5644  134.8254  154.3254 N   0  0  0  0  0  0  0  0  0  0  0  0
  148.6088  133.7267  154.2395 C   0  0  0  0  0  0  0  0  0  0  0  0
  149.2934  132.4119  153.8306 C   0  0  2  0  0  0  0  0  0  0  0  0
  148.3215  131.2706  153.5416 C   0  0  0  0  0  0  0  0  0  0  0  0
  149.1571  130.0237  153.7891 C   0  0  0  0  0  0  0  0  0  0  0  0
  150.3718  130.5363  154.5694 C   0  0  0  0  0  0  0  0  0  0  0  0
  150.0606  131.8822  154.9003 O   0  0  0  0  0  0  0  0  0  0  0  0
  148.9215  137.6306  155.1731 S   0  0  0  0  0  0  0  0  0  0  0  0
  146.6476  138.9603  153.6344 H   0  0  0  0  0  0  0  0  0  0  0  0
  147.5201  139.8861  152.4150 H   0  0  0  0  0  0  0  0  0  0  0  0
  146.2948  140.6702  153.4076 H   0  0  0  0  0  0  0  0  0  0  0  0
  147.6578  140.2968  155.4272 H   0  0  0  0  0  0  0  0  0  0  0  0
  149.4370  141.9469  155.0774 H   0  0  0  0  0  0  0  0  0  0  0  0
  147.9598  142.4503  154.2633 H   0  0  0  0  0  0  0  0  0  0  0  0
  149.2932  141.7765  153.3299 H   0  0  0  0  0  0  0  0  0  0  0  0
  149.5333  135.5148  153.5888 H   0  0  0  0  0  0  0  0  0  0  0  0
  148.1251  133.6139  155.2101 H   0  0  0  0  0  0  0  0  0  0  0  0
  147.8207  133.9798  153.5287 H   0  0  0  0  0  0  0  0  0  0  0  0
  149.9428  132.5651  152.9662 H   0  0  0  0  0  0  0  0  0  0  0  0
  147.4889  131.2968  154.2459 H   0  0  0  0  0  0  0  0  0  0  0  0
  147.9104  131.3144  152.5326 H   0  0  0  0  0  0  0  0  0  0  0  0
  148.5936  129.2831  154.3571 H   0  0  0  0  0  0  0  0  0  0  0  0
  149.4715  129.5617  152.8526 H   0  0  0  0  0  0  0  0  0  0  0  0
  150.5739  129.9488  155.4651 H   0  0  0  0  0  0  0  0  0  0  0  0
  151.2646  130.5203  153.9425 H   0  0  0  0  0  0  0  0  0  0  0  0
  1  2  1  0  0  0  0
  1 19  1  0  0  0  0
  1 20  1  0  0  0  0
  1 21  1  0  0  0  0
  2  3  1  0  0  0  0
  2  4  1  0  0  0  0
  2 22  1  0  0  0  0
  3 23  1  0  0  0  0
  3 24  1  0  0  0  0
  3 25  1  0  0  0  0
  4 18  1  0  0  0  0
  4  5  2  0  0  0  0
  5  6  1  0  0  0  0
  6  7  2  0  0  0  0
  7  8  1  0  0  0  0
  7 18  1  0  0  0  0
  8  9  1  0  0  0  0
  9 10  2  0  0  0  0
  9 11  1  0  0  0  0
 11 12  1  0  0  0  0
 11 26  1  0  0  0  0
 12 13  1  0  0  0  0
 12 27  1  0  0  0  0
 12 28  1  0  0  0  0
 13 17  1  0  0  0  0
 13 14  1  0  0  0  0
 13 29  1  0  0  0  0
 14 15  1  0  0  0  0
 14 30  1  0  0  0  0
 14 31  1  0  0  0  0
 15 16  1  0  0  0  0
 15 32  1  0  0  0  0
 15 33  1  0  0  0  0
 16 17  1  0  0  0  0
 16 34  1  0  0  0  0
 16 35  1  0  0  0  0
M  CHG  1   8  -1
M  END
> <s_m_source_file>
AV-unprocessed.smi

> <i_m_source_file_index>
1961

> <i_lp_mmshare_version>
43012

> <i_f3d_flags>
0

> <s_epik_input>
W0NIM11bQ0hdKFtDSDNdKWMxbm5jKHMxKVtOSF1DKD1PKVtOSF1bQ0gyXVtDQEBIXTJbQ0gyXVtDSDJdW0NIMl1PMg==

> <s_epik_cmdline>
J2VwaWtfcHl0aG9uJywgJy1waCcsICc3LjAnLCAnLXRuJywgJzgnLCAnLW1hJywgJzIwMCcsICctbWV0YWxfYmluZGluZycsICctaW1hZScsICc8aW5maWxlLm1hZT4nLCAnLW9tYWUnLCAnPG91dGZpbGUubWFlPic=

> <r_lp_tautomer_probability>
1

> <r_epik_Ionization_Penalty>
4.36179

> <r_epik_Ionization_Penalty_Charging>
4.21437

> <r_epik_Ionization_Penalty_Neutral>
0.147417

> <r_epik_State_Penalty>
4.21389

> <r_epik_Charging_Adjusted_Penalty>
8.42826

> <i_epik_Tot_Q>
-1

> <i_epik_Tot_abs_Q>
1

> <r_epik_Metal_State_Penalty>
0.693772

> <b_epik_Metal_Only>
1

> <s_lp_Force_Field>
OPLS_2005

> <r_lp_Energy>
8.68115

> <b_lp_Chiralities_Consistent>
1

> <s_lp_Variant>
AV-unprocessed.smi:1961-3

> <Gold.Version>
5.8.1

> <Gold.Id.Protein>
6NUR|6NUR_protein|mol2

> <Gold.PLP.Fitness>
39.0001

> <Gold.PLP.PLP>
-28.9547

> <Gold.PLP.part.hbond>
-3.0000

> <Gold.PLP.part.metal>
0.0000

> <Gold.PLP.part.buried>
-4.2899

> <Gold.PLP.part.nonpolar>
-23.1049

> <Gold.PLP.part.repulsive>
0.5057

> <Gold.PLP.ligand.clash>
0.0000

> <Gold.PLP.ligand.torsion>
0.9089

> <Gold.PLP.Chemscore.Hbond>
3.9000

> <Gold.PLP.Chemscore.CHOScore>
0.0000

> <Gold.PLP.Chemscore.Metal>
0.0000

> <Gold.Chemscore.Hbonds>
donor molecule, donor type, donor heavy atom, donor atom, acceptor molecule, acceptor atom, score
      L1  H    11    26       P1  7948  0.85
      P1  H  7989  7998       L1     5  1.00
      P1  H 10752 10763       L1     8  2.00

> <Gold.PLP.Chemscore.Internal.Correction>
0.1633

> <Gold.Rescore>
     Score         DG    S(hbond)    S(metal)    S(lipo)     H(rot)  DE(clash)    DE(int)     intcor
     12.13     -15.34       2.10        0.00      55.31       1.42       0.02       3.18       ----

> <Gold.Chemscore.Fitness>
12.1322

> <Gold.Chemscore.DG>
-15.3375

> <Gold.Chemscore.ZeroCoef>
-5.4800

> <Gold.Chemscore.Hbond>
2.1016

> <Gold.Chemscore.Metal>
0.0000

> <Gold.Chemscore.Lipo>
55.3114

> <Gold.Chemscore.Internal_Hbond>
0.0000

> <Gold.Chemscore.DEClash>
0.0207

> <Gold.Chemscore.DEInternal>
3.1846

> <Gold.Chemscore.Rot>
1.4193

> <Gold.Chemscore.Internal.Correction>
   9.000000E+99

> <Gold.Chemscore.Hbonds>
donor molecule, donor type, donor heavy atom, donor atom, acceptor molecule, acceptor atom, score
      L1  H    11    26       P1  7948  0.14
      P1  H  7989  7998       L1     5  0.60
      P1  H 10752 10763       L1     8  0.65

> <Gold.Chemscore.Hbond.Weighted>
-7.0194

> <Gold.Chemscore.Metal.Weighted>
-0.0000

> <Gold.Chemscore.Lipo.Weighted>
-6.4714

> <Gold.Chemscore.Internal_Hbond.Weighted>
0.0000

> <Gold.Chemscore.DEClash.Weighted>
0.0207

> <Gold.Chemscore.DEInternal.Weighted>
3.1846

> <Gold.Chemscore.Rot.Weighted>
3.6333

> <Gold.Chemscore.Internal.Correction.Weighted>
   9.000000E+99

> <Gold.Protein.RotatedTorsions>
[ 6907 6896 6895 6894 ] final -150.78 input  -60.11 | X-H torsion
[ 7974 7965 7964 7962 ] final   90.72 input  175.53 | X-H torsion
[ 8008 7997 7996 7995 ] final  -87.30 input   59.86 | X-H torsion
[ 10167 10162 10161 10158 ] final   59.00 input  -65.29 | X-H torsion
[ 10718 10713 10712 10709 ] final  -34.25 input   66.30 | X-H torsion
[ 10763 10752 10751 10750 ] final   60.85 input  -60.55 | X-H torsion
[ 11005 11000 10999 10996 ] final  -46.07 input  -57.11 | X-H torsion

> <Gold.Protein.ActiveResidues>
 VAL166  LYS551  ARG553  GLY616  TRP617  ASP618  TYR619  PRO620  LYS621  CYS622 
 ASP623  PHE694  ASN695  SER759  ASP760  ASP761  ALA762  ILE779  LEU786  VAL792 
 PHE793  MET794  SER795  GLU796  ALA797  LYS798  CYS799  TRP800  GLU811  SER814 

> <Gold.Protein.RotatedAtoms>
  151.2035  133.4597  159.2596 H   0  0  0  0  0  0  0  0  0  0  0  0  # atno 6907 bound_to 6896
  151.1046  134.9992  159.8475 H   0  0  0  0  0  0  0  0  0  0  0  0  # atno 6908 bound_to 6896
  152.5446  134.1959  159.8746 H   0  0  0  0  0  0  0  0  0  0  0  0  # atno 6909 bound_to 6896
  145.5152  139.2278  143.2702 H   0  0  0  0  0  0  0  0  0  0  0  0  # atno 7974 bound_to 7965
  154.6617  140.0567  157.0069 H   0  0  0  0  0  0  0  0  0  0  0  0  # atno 8008 bound_to 7997
  155.1219  140.3248  155.4476 H   0  0  0  0  0  0  0  0  0  0  0  0  # atno 8009 bound_to 7997
  156.2621  140.1996  156.6341 H   0  0  0  0  0  0  0  0  0  0  0  0  # atno 8010 bound_to 7997
  140.1812  144.4180  150.6614 H   0  0  0  0  0  0  0  0  0  0  0  0  # atno 10167 bound_to 10162
  156.3528  130.4311  149.7690 H   0  0  0  0  0  0  0  0  0  0  0  0  # atno 10718 bound_to 10713
  152.9933  135.5521  154.5940 H   0  0  0  0  0  0  0  0  0  0  0  0  # atno 10763 bound_to 10752
  154.5295  135.2812  155.1194 H   0  0  0  0  0  0  0  0  0  0  0  0  # atno 10764 bound_to 10752
  154.2515  135.6398  153.5295 H   0  0  0  0  0  0  0  0  0  0  0  0  # atno 10765 bound_to 10752
  141.0556  133.6727  156.3103 H   0  0  0  0  0  0  0  0  0  0  0  0  # atno 11005 bound_to 11000
  146.2141  140.5961  142.9046 LP  0  0  0  0  0  0  0  0  0  0  0  0  # atno 17320 bound_to 7965
  144.7706  140.5628  143.6673 LP  0  0  0  0  0  0  0  0  0  0  0  0  # atno 17321 bound_to 7965
  140.6518  143.2227  151.6059 LP  0  0  0  0  0  0  0  0  0  0  0  0  # atno 17342 bound_to 10162
  139.5295  144.2957  152.1115 LP  0  0  0  0  0  0  0  0  0  0  0  0  # atno 17343 bound_to 10162
  156.4884  130.8073  151.3084 LP  0  0  0  0  0  0  0  0  0  0  0  0  # atno 17370 bound_to 10713
  157.7463  130.9983  150.2849 LP  0  0  0  0  0  0  0  0  0  0  0  0  # atno 17371 bound_to 10713
  140.5971  134.5592  157.5510 LP  0  0  0  0  0  0  0  0  0  0  0  0  # atno 17394 bound_to 11000
  139.9387  134.7827  156.0735 LP  0  0  0  0  0  0  0  0  0  0  0  0  # atno 17395 bound_to 11000

$$$$
