AV-unprocessed.smi:36|AV-procd|sdf|292|dock10
  -GOLD-   2262016 83D 1   1.00000     0.00000
 Structure written by MMmdl.
 64 67  0  0  0  0  0  0  0  0  1 V2000
  142.0637  146.9111  155.2401 C   0  0  0  0  0  0  0  0  0  0  0  0
  143.4713  146.3243  155.0444 C   0  0  0  0  0  0  0  0  0  0  0  0
  143.8281  146.3129  153.5489 C   0  0  0  0  0  0  0  0  0  0  0  0
  144.5005  147.1665  155.8165 C   0  0  0  0  0  0  0  0  0  0  0  0
  143.5126  144.5336  155.7088 Si  0  0  0  0  0  0  0  0  0  0  0  0
  143.5790  144.5149  157.6085 C   0  0  0  0  0  0  0  0  0  0  0  0
  142.0095  143.5389  155.1085 C   0  0  0  0  0  0  0  0  0  0  0  0
  144.9082  143.7865  155.1122 O   0  0  0  0  0  0  0  0  0  0  0  0
  145.3680  142.5277  155.5577 C   0  0  0  0  0  0  0  0  0  0  0  0
  146.1263  141.8365  154.4176 C   0  0  1  0  0  0  0  0  0  0  0  0
  147.3862  142.4727  154.1773 O   0  0  0  0  0  0  0  0  0  0  0  0
  148.4118  141.5272  154.0708 C   0  0  1  0  0  0  0  0  0  0  0  0
  149.2041  141.5409  155.3456 N   0  0  0  0  0  0  0  0  0  0  0  0
  149.0424  142.3439  156.4163 C   0  0  0  0  0  0  0  0  0  0  0  0
  149.9048  142.1542  157.4109 N   0  0  0  0  0  0  0  0  0  0  0  0
  150.7164  141.1389  156.9185 C   0  0  0  0  0  0  0  0  0  0  0  0
  151.8866  140.4709  157.5275 C   0  0  0  0  0  0  0  0  0  0  0  0
  152.2427  140.8484  158.7177 N   0  0  0  0  0  0  0  0  0  0  0  0
  153.3374  140.2607  159.3380 C   0  0  0  0  0  0  0  0  0  0  0  0
  154.0243  139.3090  158.9563 O   0  0  0  0  0  0  0  0  0  0  0  0
  153.6642  140.8744  160.6604 C   0  0  0  0  0  0  0  0  0  0  0  0
  153.0813  142.1039  161.0344 C   0  0  0  0  0  0  0  0  0  0  0  0
  153.3832  142.6771  162.2852 C   0  0  0  0  0  0  0  0  0  0  0  0
  154.2664  142.0227  163.1656 C   0  0  0  0  0  0  0  0  0  0  0  0
  154.8475  140.7940  162.7960 C   0  0  0  0  0  0  0  0  0  0  0  0
  154.5465  140.2195  161.5456 C   0  0  0  0  0  0  0  0  0  0  0  0
  152.4029  139.5156  156.6424 N   0  0  0  0  0  0  0  0  0  0  0  0
  151.9020  139.2222  155.3645 C   0  0  0  0  0  0  0  0  0  0  0  0
  150.8701  139.8050  154.8147 N   0  0  0  0  0  0  0  0  0  0  0  0
  150.3154  140.7603  155.6554 C   0  0  0  0  0  0  0  0  0  0  0  0
  147.7201  140.1762  153.8870 C   0  0  0  0  0  0  0  0  0  0  0  0
  146.4633  140.3703  154.7079 C   0  0  2  0  0  0  0  0  0  0  0  0
  145.4438  139.4879  154.2873 O   0  0  0  0  0  0  0  0  0  0  0  0
  142.0066  147.9346  154.8674 H   0  0  0  0  0  0  0  0  0  0  0  0
  141.7837  146.9300  156.2935 H   0  0  0  0  0  0  0  0  0  0  0  0
  141.3119  146.3265  154.7093 H   0  0  0  0  0  0  0  0  0  0  0  0
  143.1115  145.7263  152.9738 H   0  0  0  0  0  0  0  0  0  0  0  0
  144.8158  145.8829  153.3805 H   0  0  0  0  0  0  0  0  0  0  0  0
  143.8331  147.3216  153.1346 H   0  0  0  0  0  0  0  0  0  0  0  0
  144.5255  148.1942  155.4525 H   0  0  0  0  0  0  0  0  0  0  0  0
  145.5052  146.7554  155.7135 H   0  0  0  0  0  0  0  0  0  0  0  0
  144.2676  147.2009  156.8810 H   0  0  0  0  0  0  0  0  0  0  0  0
  142.7370  145.0517  158.0445 H   0  0  0  0  0  0  0  0  0  0  0  0
  144.4907  144.9805  157.9822 H   0  0  0  0  0  0  0  0  0  0  0  0
  143.5485  143.4988  158.0008 H   0  0  0  0  0  0  0  0  0  0  0  0
  141.0742  143.9748  155.4584 H   0  0  0  0  0  0  0  0  0  0  0  0
  142.0430  142.5108  155.4684 H   0  0  0  0  0  0  0  0  0  0  0  0
  141.9635  143.4985  154.0203 H   0  0  0  0  0  0  0  0  0  0  0  0
  145.9942  142.6305  156.4430 H   0  0  0  0  0  0  0  0  0  0  0  0
  144.5022  141.9319  155.8477 H   0  0  0  0  0  0  0  0  0  0  0  0
  145.5510  141.9031  153.4924 H   0  0  0  0  0  0  0  0  0  0  0  0
  149.1353  141.7785  153.2945 H   0  0  0  0  0  0  0  0  0  0  0  0
  148.2751  143.0997  156.4715 H   0  0  0  0  0  0  0  0  0  0  0  0
  152.4007  142.6106  160.3654 H   0  0  0  0  0  0  0  0  0  0  0  0
  152.9358  143.6180  162.5698 H   0  0  0  0  0  0  0  0  0  0  0  0
  154.4964  142.4620  164.1251 H   0  0  0  0  0  0  0  0  0  0  0  0
  155.5233  140.2916  163.4723 H   0  0  0  0  0  0  0  0  0  0  0  0
  154.9947  139.2759  161.2695 H   0  0  0  0  0  0  0  0  0  0  0  0
  152.4557  138.4427  154.8395 H   0  0  0  0  0  0  0  0  0  0  0  0
  147.4857  140.0540  152.8284 H   0  0  0  0  0  0  0  0  0  0  0  0
  148.3348  139.3366  154.2109 H   0  0  0  0  0  0  0  0  0  0  0  0
  146.6783  140.2184  155.7668 H   0  0  0  0  0  0  0  0  0  0  0  0
  144.7885  139.9863  153.8233 H   0  0  0  0  0  0  0  0  0  0  0  0
  153.2103  138.9937  156.9518 H   0  0  0  0  0  0  0  0  0  0  0  0
  1  2  1  0  0  0  0
  1 34  1  0  0  0  0
  1 35  1  0  0  0  0
  1 36  1  0  0  0  0
  2  3  1  0  0  0  0
  2  4  1  0  0  0  0
  2  5  1  0  0  0  0
  3 37  1  0  0  0  0
  3 38  1  0  0  0  0
  3 39  1  0  0  0  0
  4 40  1  0  0  0  0
  4 41  1  0  0  0  0
  4 42  1  0  0  0  0
  5  6  1  0  0  0  0
  5  7  1  0  0  0  0
  5  8  1  0  0  0  0
  6 43  1  0  0  0  0
  6 44  1  0  0  0  0
  6 45  1  0  0  0  0
  7 46  1  0  0  0  0
  7 47  1  0  0  0  0
  7 48  1  0  0  0  0
  8  9  1  0  0  0  0
  9 10  1  0  0  0  0
  9 49  1  0  0  0  0
  9 50  1  0  0  0  0
 10 32  1  0  0  0  0
 10 11  1  0  0  0  0
 10 51  1  0  0  0  0
 11 12  1  0  0  0  0
 12 13  1  0  0  0  0
 12 31  1  0  0  0  0
 12 52  1  0  0  0  0
 13 30  1  0  0  0  0
 13 14  1  0  0  0  0
 14 15  2  0  0  0  0
 14 53  1  0  0  0  0
 15 16  1  0  0  0  0
 16 30  2  0  0  0  0
 16 17  1  0  0  0  0
 17 18  2  0  0  0  0
 17 27  1  0  0  0  0
 18 19  1  0  0  0  0
 19 20  2  0  0  0  0
 19 21  1  0  0  0  0
 21 26  1  0  0  0  0
 21 22  2  0  0  0  0
 22 23  1  0  0  0  0
 22 54  1  0  0  0  0
 23 24  2  0  0  0  0
 23 55  1  0  0  0  0
 24 25  1  0  0  0  0
 24 56  1  0  0  0  0
 25 26  2  0  0  0  0
 25 57  1  0  0  0  0
 26 58  1  0  0  0  0
 27 28  1  0  0  0  0
 27 64  1  0  0  0  0
 28 29  2  0  0  0  0
 28 59  1  0  0  0  0
 29 30  1  0  0  0  0
 31 32  1  0  0  0  0
 31 60  1  0  0  0  0
 31 61  1  0  0  0  0
 32 33  1  0  0  0  0
 32 62  1  0  0  0  0
 33 63  1  0  0  0  0
M  END
> <s_m_source_file>
AV-unprocessed.smi

> <i_m_source_file_index>
36

> <i_lp_mmshare_version>
43012

> <i_f3d_flags>
0

> <s_epik_input>
W0NIM11DKFtDSDNdKShbQ0gzXSlbU2ldKFtDSDNdKShbQ0gzXSlPW0NIMl1bQ0BASF0xT1tDQEhdKFtDSDJdW0NASF0xW09IXSluKFtjSF1uMiljKGMyMyluW2NIXW5jM1tOSF1DKD1PKWM0W2NIXVtjSF1bY0hdW2NIXVtjSF00

> <s_epik_cmdline>
J2VwaWtfcHl0aG9uJywgJy1waCcsICc3LjAnLCAnLXRuJywgJzgnLCAnLW1hJywgJzIwMCcsICctbWV0YWxfYmluZGluZycsICctaW1hZScsICc8aW5maWxlLm1hZT4nLCAnLW9tYWUnLCAnPG91dGZpbGUubWFlPic=

> <r_epik_Ionization_Penalty>
0.0850405

> <r_epik_Ionization_Penalty_Charging>
0.0850403

> <r_epik_Ionization_Penalty_Neutral>
1.47497e-07

> <r_epik_State_Penalty>
2.6133

> <r_epik_Charging_Adjusted_Penalty>
2.69834

> <i_epik_Tot_Q>
0

> <i_epik_Tot_abs_Q>
0

> <r_epik_Metal_State_Penalty>
2.92945

> <b_epik_Metal_Only>
0

> <s_epik_Chemistry_Notes>
This compound contains an acetal/aminal-like group ( X-CH(R)-Y where X, Y are N, S, or O) that may be acid/base labile, releasing an aldehyde.

> <s_lp_Force_Field>
OPLS_2005

> <r_lp_Energy>
45.4031

> <b_lp_Chiralities_Consistent>
1

> <s_lp_Variant>
AV-unprocessed.smi:36-14

> <Gold.Version>
5.8.1

> <Gold.Id.Protein>
6NUR|6NUR_protein|mol2

> <Gold.PLP.Fitness>
59.6001

> <Gold.PLP.PLP>
-50.7142

> <Gold.PLP.part.hbond>
-3.0000

> <Gold.PLP.part.metal>
0.0000

> <Gold.PLP.part.buried>
1.7114

> <Gold.PLP.part.nonpolar>
-50.8188

> <Gold.PLP.part.repulsive>
2.4693

> <Gold.PLP.ligand.clash>
0.0000

> <Gold.PLP.ligand.torsion>
0.8951

> <Gold.PLP.Chemscore.Hbond>
3.0000

> <Gold.PLP.Chemscore.CHOScore>
0.4833

> <Gold.PLP.Chemscore.Metal>
0.0000

> <Gold.Chemscore.Hbonds>
donor molecule, donor type, donor heavy atom, donor atom, acceptor molecule, acceptor atom, score
      L1  H    33    63       P1 10175  1.00
      P1  H  7989  7998       L1    29  1.00
      P1  H  7997  8010       L1    20  0.99
      L1  C    14    53       P1  8028  0.42

> <Gold.PLP.Chemscore.Internal.Correction>
0.2261

> <Gold.Rescore>
     Score         DG    S(hbond)    S(metal)    S(lipo)     H(rot)  DE(clash)    DE(int)     intcor
     15.19     -17.76       1.96        0.00     108.23       2.70       1.82       0.74       ----

> <Gold.Chemscore.Fitness>
15.1918

> <Gold.Chemscore.DG>
-17.7558

> <Gold.Chemscore.ZeroCoef>
-5.4800

> <Gold.Chemscore.Hbond>
1.9567

> <Gold.Chemscore.Metal>
0.0000

> <Gold.Chemscore.Lipo>
108.2309

> <Gold.Chemscore.Internal_Hbond>
0.0000

> <Gold.Chemscore.DEClash>
1.8214

> <Gold.Chemscore.DEInternal>
0.7426

> <Gold.Chemscore.Rot>
2.7041

> <Gold.Chemscore.Internal.Correction>
   9.000000E+99

> <Gold.Chemscore.Hbonds>
donor molecule, donor type, donor heavy atom, donor atom, acceptor molecule, acceptor atom, score
      L1  H    33    63       P1 10175  0.99
      P1  H  7989  7998       L1    29  0.14
      P1  H  7997  8010       L1    20  0.37

> <Gold.Chemscore.Hbond.Weighted>
-6.5352

> <Gold.Chemscore.Metal.Weighted>
-0.0000

> <Gold.Chemscore.Lipo.Weighted>
-12.6630

> <Gold.Chemscore.Internal_Hbond.Weighted>
0.0000

> <Gold.Chemscore.DEClash.Weighted>
1.8214

> <Gold.Chemscore.DEInternal.Weighted>
0.7426

> <Gold.Chemscore.Rot.Weighted>
6.9225

> <Gold.Chemscore.Internal.Correction.Weighted>
   9.000000E+99

> <Gold.Protein.RotatedTorsions>
[ 6907 6896 6895 6894 ] final  139.81 input  -60.11 | X-H torsion
[ 7974 7965 7964 7962 ] final -172.37 input  175.53 | X-H torsion
[ 8008 7997 7996 7995 ] final   15.88 input   59.86 | X-H torsion
[ 10167 10162 10161 10158 ] final  -27.80 input  -65.29 | X-H torsion
[ 10718 10713 10712 10709 ] final  172.63 input   66.30 | X-H torsion
[ 10763 10752 10751 10750 ] final   78.19 input  -60.55 | X-H torsion
[ 11005 11000 10999 10996 ] final -133.55 input  -57.11 | X-H torsion

> <Gold.Protein.ActiveResidues>
 VAL166  LYS551  ARG553  GLY616  TRP617  ASP618  TYR619  PRO620  LYS621  CYS622 
 ASP623  PHE694  ASN695  SER759  ASP760  ASP761  ALA762  ILE779  LEU786  VAL792 
 PHE793  MET794  SER795  GLU796  ALA797  LYS798  CYS799  TRP800  GLU811  SER814 

> <Gold.Protein.RotatedAtoms>
  152.2504  133.5210  159.5321 H   0  0  0  0  0  0  0  0  0  0  0  0  # atno 6907 bound_to 6896
  150.7092  134.0967  159.3960 H   0  0  0  0  0  0  0  0  0  0  0  0  # atno 6908 bound_to 6896
  151.8887  135.0425  160.0546 H   0  0  0  0  0  0  0  0  0  0  0  0  # atno 6909 bound_to 6896
  144.7147  140.1783  143.6361 H   0  0  0  0  0  0  0  0  0  0  0  0  # atno 7974 bound_to 7965
  154.8689  140.2955  155.5493 H   0  0  0  0  0  0  0  0  0  0  0  0  # atno 8008 bound_to 7997
  156.3021  140.2464  156.3608 H   0  0  0  0  0  0  0  0  0  0  0  0  # atno 8009 bound_to 7997
  154.8838  140.0397  157.1787 H   0  0  0  0  0  0  0  0  0  0  0  0  # atno 8010 bound_to 7997
  140.7275  143.4063  151.1180 H   0  0  0  0  0  0  0  0  0  0  0  0  # atno 10167 bound_to 10162
  156.9761  131.0104  151.2893 H   0  0  0  0  0  0  0  0  0  0  0  0  # atno 10718 bound_to 10713
  153.0855  135.4886  154.8588 H   0  0  0  0  0  0  0  0  0  0  0  0  # atno 10763 bound_to 10752
  154.7205  135.3038  154.9057 H   0  0  0  0  0  0  0  0  0  0  0  0  # atno 10764 bound_to 10752
  153.9722  135.6800  153.4800 H   0  0  0  0  0  0  0  0  0  0  0  0  # atno 10765 bound_to 10752
  140.9070  134.1616  157.4418 H   0  0  0  0  0  0  0  0  0  0  0  0  # atno 11005 bound_to 11000
  145.8880  139.2360  143.1566 LP  0  0  0  0  0  0  0  0  0  0  0  0  # atno 17320 bound_to 7965
  145.9931  140.8585  143.0056 LP  0  0  0  0  0  0  0  0  0  0  0  0  # atno 17321 bound_to 7965
  139.7690  143.8522  152.3116 LP  0  0  0  0  0  0  0  0  0  0  0  0  # atno 17342 bound_to 10162
  139.8434  144.7199  150.9303 LP  0  0  0  0  0  0  0  0  0  0  0  0  # atno 17343 bound_to 10162
  157.5559  130.8213  149.8203 LP  0  0  0  0  0  0  0  0  0  0  0  0  # atno 17370 bound_to 10713
  156.0263  130.3778  150.1813 LP  0  0  0  0  0  0  0  0  0  0  0  0  # atno 17371 bound_to 10713
  139.8751  134.9921  156.5580 LP  0  0  0  0  0  0  0  0  0  0  0  0  # atno 17394 bound_to 11000
  140.8158  133.8393  155.8850 LP  0  0  0  0  0  0  0  0  0  0  0  0  # atno 17395 bound_to 11000

$$$$
