AV-unprocessed.smi:2838|AV-procd|sdf|10929|dock5
  -GOLD-   2272015373D 1   1.00000     0.00000
 Structure written by MMmdl.
 48 49  0  0  0  0  0  0  0  0  1 V2000
  153.7792  141.1309  160.1163 C   0  0  0  0  0  0  0  0  0  0  0  0
  152.7103  141.6243  159.1258 C   0  0  1  0  0  0  0  0  0  0  0  0
  151.7773  140.5229  158.8819 N   0  0  0  0  0  0  0  0  0  0  0  0
  152.0517  139.3889  158.2198 C   0  0  0  0  0  0  0  0  0  0  0  0
  153.1505  139.1340  157.7283 O   0  0  0  0  0  0  0  0  0  0  0  0
  150.9783  138.5813  158.1805 N   0  0  0  0  0  0  0  0  0  0  0  0
  150.8519  137.3074  157.5636 C   0  0  0  0  0  0  0  0  0  0  0  0
  149.9197  136.3872  158.0829 C   0  0  0  0  0  0  0  0  0  0  0  0
  149.7394  135.1662  157.5374 N   0  0  0  0  0  0  0  0  0  0  0  0
  150.4532  134.8614  156.4457 C   0  0  0  0  0  0  0  0  0  0  0  0
  150.3531  133.4189  155.9191 C   0  0  0  0  0  0  0  0  0  0  0  0
  149.3599  132.5865  156.7638 C   0  0  0  0  0  0  0  0  0  0  0  0
  151.7145  132.6914  156.0211 C   0  0  0  0  0  0  0  0  0  0  0  0
  149.8921  133.4394  154.4501 C   0  0  0  0  0  0  0  0  0  0  0  0
  151.3841  135.6491  155.8912 N   0  0  0  0  0  0  0  0  0  0  0  0
  151.5764  136.8729  156.4280 C   0  0  0  0  0  0  0  0  0  0  0  0
  151.9525  142.8863  159.6189 C   0  0  0  0  0  0  0  0  0  0  0  0
  151.3227  143.6939  158.4631 C   0  0  0  0  0  0  0  0  0  0  0  0
  150.6519  144.9781  158.9762 C   0  0  0  0  0  0  0  0  0  0  0  0
  151.5974  145.7714  159.6818 O   0  0  0  0  0  0  0  0  0  0  0  0
  152.1081  145.1157  160.8354 C   0  0  0  0  0  0  0  0  0  0  0  0
  152.8581  143.8371  160.4282 C   0  0  0  0  0  0  0  0  0  0  0  0
  154.5823  141.8568  160.2407 H   0  0  0  0  0  0  0  0  0  0  0  0
  154.2414  140.2080  159.7638 H   0  0  0  0  0  0  0  0  0  0  0  0
  153.3505  140.9327  161.0991 H   0  0  0  0  0  0  0  0  0  0  0  0
  153.2239  141.8816  158.1981 H   0  0  0  0  0  0  0  0  0  0  0  0
  150.8440  140.6370  159.2490 H   0  0  0  0  0  0  0  0  0  0  0  0
  150.1649  138.8989  158.6870 H   0  0  0  0  0  0  0  0  0  0  0  0
  149.3187  136.6263  158.9482 H   0  0  0  0  0  0  0  0  0  0  0  0
  149.3192  131.5515  156.4230 H   0  0  0  0  0  0  0  0  0  0  0  0
  148.3433  132.9769  156.7027 H   0  0  0  0  0  0  0  0  0  0  0  0
  149.6467  132.5739  157.8161 H   0  0  0  0  0  0  0  0  0  0  0  0
  152.0842  132.6806  157.0473 H   0  0  0  0  0  0  0  0  0  0  0  0
  152.4771  133.1620  155.3996 H   0  0  0  0  0  0  0  0  0  0  0  0
  151.6363  131.6551  155.6904 H   0  0  0  0  0  0  0  0  0  0  0  0
  149.8080  132.4305  154.0451 H   0  0  0  0  0  0  0  0  0  0  0  0
  150.5951  133.9887  153.8228 H   0  0  0  0  0  0  0  0  0  0  0  0
  148.9173  133.9177  154.3475 H   0  0  0  0  0  0  0  0  0  0  0  0
  152.3042  137.4894  155.9251 H   0  0  0  0  0  0  0  0  0  0  0  0
  151.1421  142.5595  160.2727 H   0  0  0  0  0  0  0  0  0  0  0  0
  152.0912  143.9538  157.7339 H   0  0  0  0  0  0  0  0  0  0  0  0
  150.5796  143.0985  157.9323 H   0  0  0  0  0  0  0  0  0  0  0  0
  150.2638  145.5568  158.1380 H   0  0  0  0  0  0  0  0  0  0  0  0
  149.8028  144.7442  159.6201 H   0  0  0  0  0  0  0  0  0  0  0  0
  152.7845  145.7954  161.3539 H   0  0  0  0  0  0  0  0  0  0  0  0
  151.2961  144.8866  161.5272 H   0  0  0  0  0  0  0  0  0  0  0  0
  153.2271  143.3479  161.3289 H   0  0  0  0  0  0  0  0  0  0  0  0
  153.7344  144.1053  159.8364 H   0  0  0  0  0  0  0  0  0  0  0  0
  1  2  1  0  0  0  0
  1 23  1  0  0  0  0
  1 24  1  0  0  0  0
  1 25  1  0  0  0  0
  2  3  1  0  0  0  0
  2 17  1  0  0  0  0
  2 26  1  0  0  0  0
  3  4  1  0  0  0  0
  3 27  1  0  0  0  0
  4  5  2  0  0  0  0
  4  6  1  0  0  0  0
  6  7  1  0  0  0  0
  6 28  1  0  0  0  0
  7 16  1  0  0  0  0
  7  8  2  0  0  0  0
  8  9  1  0  0  0  0
  8 29  1  0  0  0  0
  9 10  2  0  0  0  0
 10 11  1  0  0  0  0
 10 15  1  0  0  0  0
 11 12  1  0  0  0  0
 11 13  1  0  0  0  0
 11 14  1  0  0  0  0
 12 30  1  0  0  0  0
 12 31  1  0  0  0  0
 12 32  1  0  0  0  0
 13 33  1  0  0  0  0
 13 34  1  0  0  0  0
 13 35  1  0  0  0  0
 14 36  1  0  0  0  0
 14 37  1  0  0  0  0
 14 38  1  0  0  0  0
 15 16  2  0  0  0  0
 16 39  1  0  0  0  0
 17 22  1  0  0  0  0
 17 18  1  0  0  0  0
 17 40  1  0  0  0  0
 18 19  1  0  0  0  0
 18 41  1  0  0  0  0
 18 42  1  0  0  0  0
 19 20  1  0  0  0  0
 19 43  1  0  0  0  0
 19 44  1  0  0  0  0
 20 21  1  0  0  0  0
 21 22  1  0  0  0  0
 21 45  1  0  0  0  0
 21 46  1  0  0  0  0
 22 47  1  0  0  0  0
 22 48  1  0  0  0  0
M  END
> <s_m_source_file>
AV-unprocessed.smi

> <i_m_source_file_index>
2838

> <i_lp_mmshare_version>
43012

> <i_f3d_flags>
0

> <s_epik_input>
W0NIMl0xW0NIMl1PW0NIMl1bQ0gyXVtDSF0xW0NASF0oW0NIM10pW05IXUMoPU8pW05IXWMyW2NIXW5jKEMoW0NIM10pKFtDSDNdKVtDSDNdKW5bY0hdMg==

> <s_epik_cmdline>
J2VwaWtfcHl0aG9uJywgJy1waCcsICc3LjAnLCAnLXRuJywgJzgnLCAnLW1hJywgJzIwMCcsICctbWV0YWxfYmluZGluZycsICctaW1hZScsICc8aW5maWxlLm1hZT4nLCAnLW9tYWUnLCAnPG91dGZpbGUubWFlPic=

> <r_lp_tautomer_probability>
1

> <r_epik_Ionization_Penalty>
2.74753e-05

> <r_epik_Ionization_Penalty_Charging>
0

> <r_epik_Ionization_Penalty_Neutral>
2.74753e-05

> <r_epik_State_Penalty>
-0

> <r_epik_Charging_Adjusted_Penalty>
0

> <i_epik_Tot_Q>
0

> <i_epik_Tot_abs_Q>
0

> <r_epik_Metal_State_Penalty>
-0

> <b_epik_Metal_Only>
0

> <s_lp_Force_Field>
OPLS_2005

> <r_lp_Energy>
9.11835

> <b_lp_Chiralities_Consistent>
1

> <s_lp_Variant>
AV-unprocessed.smi:2838-2

> <Gold.Version>
5.8.1

> <Gold.Id.Protein>
6NUR|6NUR_protein|mol2

> <Gold.PLP.Fitness>
39.7360

> <Gold.PLP.PLP>
-34.4202

> <Gold.PLP.part.hbond>
-4.0000

> <Gold.PLP.part.metal>
0.0000

> <Gold.PLP.part.buried>
-5.5634

> <Gold.PLP.part.nonpolar>
-25.7068

> <Gold.PLP.part.repulsive>
0.3882

> <Gold.PLP.ligand.clash>
0.0000

> <Gold.PLP.ligand.torsion>
0.8472

> <Gold.PLP.Chemscore.Hbond>
2.2865

> <Gold.PLP.Chemscore.CHOScore>
0.0000

> <Gold.PLP.Chemscore.Metal>
0.0000

> <Gold.Chemscore.Hbonds>
donor molecule, donor type, donor heavy atom, donor atom, acceptor molecule, acceptor atom, score
      P1  H  6896  6909       L1     9  0.14
      P1  H  7997  8008       L1     5  1.00
      P1  H 10752 10764       L1    15  1.00

> <Gold.PLP.Chemscore.Internal.Correction>
0.1508

> <Gold.Rescore>
     Score         DG    S(hbond)    S(metal)    S(lipo)     H(rot)  DE(clash)    DE(int)     intcor
     15.78     -17.41       1.01        0.00     102.33       1.34       0.02       1.61       ----

> <Gold.Chemscore.Fitness>
15.7798

> <Gold.Chemscore.DG>
-17.4141

> <Gold.Chemscore.ZeroCoef>
-5.4800

> <Gold.Chemscore.Hbond>
1.0118

> <Gold.Chemscore.Metal>
0.0000

> <Gold.Chemscore.Lipo>
102.3336

> <Gold.Chemscore.Internal_Hbond>
0.0000

> <Gold.Chemscore.DEClash>
0.0234

> <Gold.Chemscore.DEInternal>
1.6108

> <Gold.Chemscore.Rot>
1.3354

> <Gold.Chemscore.Internal.Correction>
   9.000000E+99

> <Gold.Chemscore.Hbonds>
donor molecule, donor type, donor heavy atom, donor atom, acceptor molecule, acceptor atom, score
      P1  H  6896  6909       L1     9  0.01
      P1  H  7997  8008       L1     5  1.00
      P1  H 10752 10764       L1    15  0.25

> <Gold.Chemscore.Hbond.Weighted>
-3.3795

> <Gold.Chemscore.Metal.Weighted>
-0.0000

> <Gold.Chemscore.Lipo.Weighted>
-11.9730

> <Gold.Chemscore.Internal_Hbond.Weighted>
0.0000

> <Gold.Chemscore.DEClash.Weighted>
0.0234

> <Gold.Chemscore.DEInternal.Weighted>
1.6108

> <Gold.Chemscore.Rot.Weighted>
3.4185

> <Gold.Chemscore.Internal.Correction.Weighted>
   9.000000E+99

> <Gold.Protein.RotatedTorsions>
[ 6907 6896 6895 6894 ] final   12.40 input  -60.11 | X-H torsion
[ 7974 7965 7964 7962 ] final -112.87 input  175.53 | X-H torsion
[ 8008 7997 7996 7995 ] final  -79.87 input   59.86 | X-H torsion
[ 10167 10162 10161 10158 ] final -156.02 input  -65.29 | X-H torsion
[ 10718 10713 10712 10709 ] final   70.90 input   66.30 | X-H torsion
[ 10763 10752 10751 10750 ] final  -52.11 input  -60.55 | X-H torsion
[ 11005 11000 10999 10996 ] final -154.50 input  -57.11 | X-H torsion

> <Gold.Protein.ActiveResidues>
 VAL166  LYS551  ARG553  GLY616  TRP617  ASP618  TYR619  PRO620  LYS621  CYS622 
 ASP623  PHE694  ASN695  SER759  ASP760  ASP761  ALA762  ILE779  LEU786  VAL792 
 PHE793  MET794  SER795  GLU796  ALA797  LYS798  CYS799  TRP800  GLU811  SER814 

> <Gold.Protein.RotatedAtoms>
  151.7697  135.0789  160.0357 H   0  0  0  0  0  0  0  0  0  0  0  0  # atno 6907 bound_to 6896
  152.3297  133.5940  159.5809 H   0  0  0  0  0  0  0  0  0  0  0  0  # atno 6908 bound_to 6896
  150.7415  133.9803  159.3616 H   0  0  0  0  0  0  0  0  0  0  0  0  # atno 6909 bound_to 6896
  145.1388  140.8766  143.3714 H   0  0  0  0  0  0  0  0  0  0  0  0  # atno 7974 bound_to 7965
  154.5827  140.0671  156.9127 H   0  0  0  0  0  0  0  0  0  0  0  0  # atno 8008 bound_to 7997
  155.2434  140.3346  155.4271 H   0  0  0  0  0  0  0  0  0  0  0  0  # atno 8009 bound_to 7997
  156.2201  140.1795  156.7483 H   0  0  0  0  0  0  0  0  0  0  0  0  # atno 8010 bound_to 7997
  139.6883  143.9463  152.2372 H   0  0  0  0  0  0  0  0  0  0  0  0  # atno 10167 bound_to 10162
  157.6424  130.9501  150.0715 H   0  0  0  0  0  0  0  0  0  0  0  0  # atno 10718 bound_to 10713
  154.1375  135.6510  153.4935 H   0  0  0  0  0  0  0  0  0  0  0  0  # atno 10763 bound_to 10752
  153.0176  135.5307  154.6938 H   0  0  0  0  0  0  0  0  0  0  0  0  # atno 10764 bound_to 10752
  154.6190  135.2962  155.0318 H   0  0  0  0  0  0  0  0  0  0  0  0  # atno 10765 bound_to 10752
  140.6967  134.3982  157.5214 H   0  0  0  0  0  0  0  0  0  0  0  0  # atno 11005 bound_to 11000
  145.0554  139.3147  143.5907 LP  0  0  0  0  0  0  0  0  0  0  0  0  # atno 17320 bound_to 7965
  146.3507  139.9978  142.8679 LP  0  0  0  0  0  0  0  0  0  0  0  0  # atno 17321 bound_to 7965
  139.9272  144.6763  150.8400 LP  0  0  0  0  0  0  0  0  0  0  0  0  # atno 17342 bound_to 10162
  140.7675  143.3334  151.2362 LP  0  0  0  0  0  0  0  0  0  0  0  0  # atno 17343 bound_to 10162
  156.1718  130.3646  149.9155 LP  0  0  0  0  0  0  0  0  0  0  0  0  # atno 17370 bound_to 10713
  156.7129  130.8977  151.3611 LP  0  0  0  0  0  0  0  0  0  0  0  0  # atno 17371 bound_to 10713
  139.8908  134.8795  156.2351 LP  0  0  0  0  0  0  0  0  0  0  0  0  # atno 17394 bound_to 11000
  141.0197  133.7048  156.1248 LP  0  0  0  0  0  0  0  0  0  0  0  0  # atno 17395 bound_to 11000

$$$$
