AV-unprocessed.smi:3150|AV-procd|sdf|12011|dock9
  -GOLD-   2272017423D 1   1.00000     0.00000
 Structure written by MMmdl.
 32 33  0  0  0  0  0  0  0  0  2 V2000
  149.4420  141.4379  157.9071 C   0  0  0  0  0  0  0  0  0  0  0  0
  150.8702  141.2024  157.3972 C   0  0  2  0  0  0  0  0  0  0  0  0
  151.6319  142.3723  157.6832 O   0  0  0  0  0  0  0  0  0  0  0  0
  151.9344  142.5746  159.0605 C   0  0  0  0  0  0  0  0  0  0  0  0
  152.3501  144.0099  159.3252 C   0  0  0  0  0  0  0  0  0  0  0  0
  151.4063  145.1623  159.0493 C   0  0  0  0  0  0  0  0  0  0  0  0
  152.6186  144.9646  158.1803 C   0  0  0  0  0  0  0  0  0  0  0  0
  150.8686  140.9188  155.8859 C   0  0  0  0  0  0  0  0  0  0  0  0
  151.7462  140.1846  155.4230 O   0  0  0  0  0  0  0  0  0  0  0  0
  149.8213  141.5666  155.2361 N   0  0  0  0  0  0  0  0  0  0  0  0
  148.9217  140.9469  154.5218 C   0  0  0  0  0  0  0  0  0  0  0  0
  148.9117  139.5540  154.3314 N   0  0  0  0  0  0  0  0  0  0  0  0
  147.9582  138.9047  153.5762 C   0  0  0  0  0  0  0  0  0  0  0  0
  146.9734  139.5716  152.9724 C   0  0  0  0  0  0  0  0  0  0  0  0
  146.9110  141.0113  153.1190 C   0  0  0  0  0  0  0  0  0  0  0  0
  147.8506  141.7244  153.8727 C   0  0  0  0  0  0  0  0  0  0  0  0
  147.7571  142.9699  153.9727 O   0  5  0  0  0  0  0  0  0  0  0  0
  148.8095  140.5675  157.7285 H   0  0  0  0  0  0  0  0  0  0  0  0
  148.9789  142.2962  157.4186 H   0  0  0  0  0  0  0  0  0  0  0  0
  149.4425  141.6294  158.9803 H   0  0  0  0  0  0  0  0  0  0  0  0
  151.2955  140.3576  157.9434 H   0  0  0  0  0  0  0  0  0  0  0  0
  151.0593  142.3479  159.6704 H   0  0  0  0  0  0  0  0  0  0  0  0
  152.7417  141.9189  159.3877 H   0  0  0  0  0  0  0  0  0  0  0  0
  152.9938  144.1220  160.1954 H   0  0  0  0  0  0  0  0  0  0  0  0
  150.4346  144.9371  158.6144 H   0  0  0  0  0  0  0  0  0  0  0  0
  151.4197  145.9972  159.7466 H   0  0  0  0  0  0  0  0  0  0  0  0
  153.4399  145.6686  158.2975 H   0  0  0  0  0  0  0  0  0  0  0  0
  152.4569  144.6052  157.1660 H   0  0  0  0  0  0  0  0  0  0  0  0
  148.0780  137.8331  153.5181 H   0  0  0  0  0  0  0  0  0  0  0  0
  146.2351  139.0475  152.3840 H   0  0  0  0  0  0  0  0  0  0  0  0
  146.1086  141.5410  152.6259 H   0  0  0  0  0  0  0  0  0  0  0  0
  149.6202  138.9712  154.7521 H   0  0  0  0  0  0  0  0  0  0  0  0
  1  2  1  0  0  0  0
  1 18  1  0  0  0  0
  1 19  1  0  0  0  0
  1 20  1  0  0  0  0
  2  3  1  0  0  0  0
  2  8  1  0  0  0  0
  2 21  1  0  0  0  0
  3  4  1  0  0  0  0
  4  5  1  0  0  0  0
  4 22  1  0  0  0  0
  4 23  1  0  0  0  0
  5  7  1  0  0  0  0
  5  6  1  0  0  0  0
  5 24  1  0  0  0  0
  6  7  1  0  0  0  0
  6 25  1  0  0  0  0
  6 26  1  0  0  0  0
  7 27  1  0  0  0  0
  7 28  1  0  0  0  0
  8  9  2  0  0  0  0
  8 10  1  0  0  0  0
 10 11  2  0  0  0  0
 11 16  1  0  0  0  0
 11 12  1  0  0  0  0
 12 32  1  0  0  0  0
 12 13  1  0  0  0  0
 13 29  1  0  0  0  0
 13 14  2  0  0  0  0
 14 30  1  0  0  0  0
 14 15  1  0  0  0  0
 15 16  2  0  0  0  0
 15 31  1  0  0  0  0
 16 17  1  0  0  0  0
M  CHG  1  17  -1
M  END
> <s_m_source_file>
AV-unprocessed.smi

> <i_m_source_file_index>
3150

> <i_lp_mmshare_version>
43012

> <i_f3d_flags>
0

> <s_epik_input>
W0NIMl0xW0NIMl1bQ0hdMVtDSDJdT1tDQEBIXShbQ0gzXSlDKD1PKVtOSF1jMm5bY0hdW2NIXVtjSF1jMltPSF0=

> <s_epik_cmdline>
J2VwaWtfcHl0aG9uJywgJy1waCcsICc3LjAnLCAnLXRuJywgJzgnLCAnLW1hJywgJzIwMCcsICctbWV0YWxfYmluZGluZycsICctaW1hZScsICc8aW5maWxlLm1hZT4nLCAnLW9tYWUnLCAnPG91dGZpbGUubWFlPic=

> <r_epik_Ionization_Penalty>
0.784632

> <r_epik_Ionization_Penalty_Charging>
0.784632

> <r_epik_Ionization_Penalty_Neutral>
7.02258e-13

> <r_epik_State_Penalty>
1.43154

> <r_epik_Charging_Adjusted_Penalty>
2.21617

> <i_epik_Tot_Q>
-1

> <i_epik_Tot_abs_Q>
1

> <r_epik_Metal_State_Penalty>
1.39244

> <b_epik_Metal_Only>
0

> <s_lp_Force_Field>
OPLS_2005

> <r_lp_Energy>
43.7392

> <b_lp_Chiralities_Consistent>
1

> <s_lp_Variant>
AV-unprocessed.smi:3150-5

> <Gold.Version>
5.8.1

> <Gold.Id.Protein>
6NUR|6NUR_protein|mol2

> <Gold.PLP.Fitness>
38.4676

> <Gold.PLP.PLP>
-33.9346

> <Gold.PLP.part.hbond>
-3.1238

> <Gold.PLP.part.metal>
0.0000

> <Gold.PLP.part.buried>
-3.0475

> <Gold.PLP.part.nonpolar>
-30.8068

> <Gold.PLP.part.repulsive>
3.5639

> <Gold.PLP.ligand.clash>
0.0000

> <Gold.PLP.ligand.torsion>
1.7716

> <Gold.PLP.Chemscore.Hbond>
1.5094

> <Gold.PLP.Chemscore.CHOScore>
1.0000

> <Gold.PLP.Chemscore.Metal>
0.0000

> <Gold.Chemscore.Hbonds>
donor molecule, donor type, donor heavy atom, donor atom, acceptor molecule, acceptor atom, score
      P1  H  7989  7998       L1     9  0.73
      P1  H  8022  8030       L1    17  0.75
      L1  C    13    29       P1  7948  1.00

> <Gold.PLP.Chemscore.Internal.Correction>
0.5479

> <Gold.Rescore>
     Score         DG    S(hbond)    S(metal)    S(lipo)     H(rot)  DE(clash)    DE(int)     intcor
     11.91     -15.23       1.06        0.00      88.92       1.64       1.64       1.68       ----

> <Gold.Chemscore.Fitness>
11.9051

> <Gold.Chemscore.DG>
-15.2266

> <Gold.Chemscore.ZeroCoef>
-5.4800

> <Gold.Chemscore.Hbond>
1.0592

> <Gold.Chemscore.Metal>
0.0000

> <Gold.Chemscore.Lipo>
88.9214

> <Gold.Chemscore.Internal_Hbond>
0.0000

> <Gold.Chemscore.DEClash>
1.6423

> <Gold.Chemscore.DEInternal>
1.6792

> <Gold.Chemscore.Rot>
1.6387

> <Gold.Chemscore.Internal.Correction>
   9.000000E+99

> <Gold.Chemscore.Hbonds>
donor molecule, donor type, donor heavy atom, donor atom, acceptor molecule, acceptor atom, score
      P1  H  7989  7998       L1     9  0.11
      P1  H  8022  8030       L1    17  0.73

> <Gold.Chemscore.Hbond.Weighted>
-3.5379

> <Gold.Chemscore.Metal.Weighted>
-0.0000

> <Gold.Chemscore.Lipo.Weighted>
-10.4038

> <Gold.Chemscore.Internal_Hbond.Weighted>
0.0000

> <Gold.Chemscore.DEClash.Weighted>
1.6423

> <Gold.Chemscore.DEInternal.Weighted>
1.6792

> <Gold.Chemscore.Rot.Weighted>
4.1950

> <Gold.Chemscore.Internal.Correction.Weighted>
   9.000000E+99

> <Gold.Protein.RotatedTorsions>
[ 6907 6896 6895 6894 ] final -154.07 input  -60.11 | X-H torsion
[ 7974 7965 7964 7962 ] final -113.26 input  175.53 | X-H torsion
[ 8008 7997 7996 7995 ] final -150.67 input   59.86 | X-H torsion
[ 10167 10162 10161 10158 ] final   98.67 input  -65.29 | X-H torsion
[ 10718 10713 10712 10709 ] final -109.71 input   66.30 | X-H torsion
[ 10763 10752 10751 10750 ] final  157.09 input  -60.55 | X-H torsion
[ 11005 11000 10999 10996 ] final  -83.53 input  -57.11 | X-H torsion

> <Gold.Protein.ActiveResidues>
 VAL166  LYS551  ARG553  GLY616  TRP617  ASP618  TYR619  PRO620  LYS621  CYS622 
 ASP623  PHE694  ASN695  SER759  ASP760  ASP761  ALA762  ILE779  LEU786  VAL792 
 PHE793  MET794  SER795  GLU796  ALA797  LYS798  CYS799  TRP800  GLU811  SER814 

> <Gold.Protein.RotatedAtoms>
  151.2521  133.4345  159.2611 H   0  0  0  0  0  0  0  0  0  0  0  0  # atno 6907 bound_to 6896
  151.0608  134.9735  159.8270 H   0  0  0  0  0  0  0  0  0  0  0  0  # atno 6908 bound_to 6896
  152.5398  134.2471  159.8937 H   0  0  0  0  0  0  0  0  0  0  0  0  # atno 6909 bound_to 6896
  145.1341  140.8741  143.3740 H   0  0  0  0  0  0  0  0  0  0  0  0  # atno 7974 bound_to 7965
  155.6272  140.0687  157.2660 H   0  0  0  0  0  0  0  0  0  0  0  0  # atno 8008 bound_to 7997
  154.4215  140.1774  156.1482 H   0  0  0  0  0  0  0  0  0  0  0  0  # atno 8009 bound_to 7997
  155.9962  140.3340  155.6804 H   0  0  0  0  0  0  0  0  0  0  0  0  # atno 8010 bound_to 7997
  139.7687  144.6930  151.0186 H   0  0  0  0  0  0  0  0  0  0  0  0  # atno 10167 bound_to 10162
  156.0551  130.5778  150.8137 H   0  0  0  0  0  0  0  0  0  0  0  0  # atno 10718 bound_to 10713
  154.1947  135.2793  155.3010 H   0  0  0  0  0  0  0  0  0  0  0  0  # atno 10763 bound_to 10752
  154.5901  135.5562  153.7274 H   0  0  0  0  0  0  0  0  0  0  0  0  # atno 10764 bound_to 10752
  153.0103  135.6366  154.2085 H   0  0  0  0  0  0  0  0  0  0  0  0  # atno 10765 bound_to 10752
  141.1657  133.7299  156.8733 H   0  0  0  0  0  0  0  0  0  0  0  0  # atno 11005 bound_to 11000
  145.0603  139.3111  143.5884 LP  0  0  0  0  0  0  0  0  0  0  0  0  # atno 17320 bound_to 7965
  146.3511  140.0043  142.8673 LP  0  0  0  0  0  0  0  0  0  0  0  0  # atno 17321 bound_to 7965
  140.7812  143.4613  151.0274 LP  0  0  0  0  0  0  0  0  0  0  0  0  # atno 17342 bound_to 10162
  139.8297  143.7708  152.3179 LP  0  0  0  0  0  0  0  0  0  0  0  0  # atno 17343 bound_to 10162
  157.5514  131.0944  150.9690 LP  0  0  0  0  0  0  0  0  0  0  0  0  # atno 17370 bound_to 10713
  156.9949  130.5577  149.5306 LP  0  0  0  0  0  0  0  0  0  0  0  0  # atno 17371 bound_to 10713
  140.1766  134.9063  157.2898 LP  0  0  0  0  0  0  0  0  0  0  0  0  # atno 17394 bound_to 11000
  140.2442  134.3759  155.7468 LP  0  0  0  0  0  0  0  0  0  0  0  0  # atno 17395 bound_to 11000

$$$$
