AV-unprocessed.smi:102|AV-procd|sdf|948|dock9
  -GOLD-   2262017473D 1   1.00000     0.00000
 Structure written by MMmdl.
 44 45  0  0  0  0  0  0  0  0  1 V2000
  146.0109  133.6235  162.2892 C   0  0  0  0  0  0  0  0  0  0  0  0
  146.9725  133.4405  161.1219 C   0  0  0  0  0  0  0  0  0  0  0  0
  147.8129  132.5408  161.1188 O   0  0  0  0  0  0  0  0  0  0  0  0
  146.7862  134.3475  160.1510 O   0  0  0  0  0  0  0  0  0  0  0  0
  147.6992  134.4080  159.0682 C   0  0  0  0  0  0  0  0  0  0  0  0
  148.7685  135.4785  159.3592 C   0  0  1  0  0  0  0  0  0  0  0  0
  149.5980  135.6374  158.2132 O   0  0  0  0  0  0  0  0  0  0  0  0
  149.0057  136.5432  157.3318 C   0  0  2  0  0  0  0  0  0  0  0  0
  150.0943  137.3345  156.6423 N   0  0  0  0  0  0  0  0  0  0  0  0
  150.0988  138.7214  156.7103 C   0  0  0  0  0  0  0  0  0  0  0  0
  151.0244  139.4888  156.0874 C   0  0  0  0  0  0  0  0  0  0  0  0
  150.9656  140.8261  156.2057 F   0  0  0  0  0  0  0  0  0  0  0  0
  152.0806  138.8782  155.2859 C   0  0  0  0  0  0  0  0  0  0  0  0
  152.9677  139.4875  154.6915 O   0  0  0  0  0  0  0  0  0  0  0  0
  152.0220  137.4832  155.2231 N   0  0  0  0  0  0  0  0  0  0  0  0
  151.0696  136.6810  155.8541 C   0  0  0  0  0  0  0  0  0  0  0  0
  151.1050  135.4612  155.7052 O   0  0  0  0  0  0  0  0  0  0  0  0
  148.0337  137.4273  158.1374 C   0  0  1  0  0  0  0  0  0  0  0  0
  146.7132  137.2255  157.6400 O   0  0  0  0  0  0  0  0  0  0  0  0
  145.7048  138.0231  158.0339 C   0  0  0  0  0  0  0  0  0  0  0  0
  144.3695  137.6070  157.4321 C   0  0  0  0  0  0  0  0  0  0  0  0
  145.7942  138.9841  158.7977 O   0  0  0  0  0  0  0  0  0  0  0  0
  148.2102  136.8941  159.5594 C   0  0  1  0  0  0  0  0  0  0  0  0
  147.0120  136.9520  160.3274 O   0  0  0  0  0  0  0  0  0  0  0  0
  147.0326  136.6776  161.6423 C   0  0  0  0  0  0  0  0  0  0  0  0
  145.6344  136.6104  162.2416 C   0  0  0  0  0  0  0  0  0  0  0  0
  148.0371  136.4849  162.3271 O   0  0  0  0  0  0  0  0  0  0  0  0
  152.7246  137.0164  154.6681 H   0  0  0  0  0  0  0  0  0  0  0  0
  145.2592  134.3798  162.0615 H   0  0  0  0  0  0  0  0  0  0  0  0
  146.5562  133.9347  163.1803 H   0  0  0  0  0  0  0  0  0  0  0  0
  145.4996  132.6857  162.5072 H   0  0  0  0  0  0  0  0  0  0  0  0
  148.1522  133.4311  158.8954 H   0  0  0  0  0  0  0  0  0  0  0  0
  147.1435  134.6716  158.1675 H   0  0  0  0  0  0  0  0  0  0  0  0
  149.3640  135.1792  160.2224 H   0  0  0  0  0  0  0  0  0  0  0  0
  148.4993  135.9799  156.5462 H   0  0  0  0  0  0  0  0  0  0  0  0
  149.3372  139.2268  157.2868 H   0  0  0  0  0  0  0  0  0  0  0  0
  148.3296  138.4745  158.0661 H   0  0  0  0  0  0  0  0  0  0  0  0
  144.4587  137.4915  156.3517 H   0  0  0  0  0  0  0  0  0  0  0  0
  143.6059  138.3579  157.6370 H   0  0  0  0  0  0  0  0  0  0  0  0
  144.0432  136.6578  157.8574 H   0  0  0  0  0  0  0  0  0  0  0  0
  148.9773  137.5004  160.0422 H   0  0  0  0  0  0  0  0  0  0  0  0
  145.0180  137.4260  161.8627 H   0  0  0  0  0  0  0  0  0  0  0  0
  145.6794  136.6870  163.3282 H   0  0  0  0  0  0  0  0  0  0  0  0
  145.1582  135.6653  161.9801 H   0  0  0  0  0  0  0  0  0  0  0  0
  1  2  1  0  0  0  0
  1 29  1  0  0  0  0
  1 30  1  0  0  0  0
  1 31  1  0  0  0  0
  2  3  2  0  0  0  0
  2  4  1  0  0  0  0
  4  5  1  0  0  0  0
  5  6  1  0  0  0  0
  5 32  1  0  0  0  0
  5 33  1  0  0  0  0
  6 23  1  0  0  0  0
  6  7  1  0  0  0  0
  6 34  1  0  0  0  0
  7  8  1  0  0  0  0
  8  9  1  0  0  0  0
  8 18  1  0  0  0  0
  8 35  1  0  0  0  0
  9 16  1  0  0  0  0
  9 10  1  0  0  0  0
 10 11  2  0  0  0  0
 10 36  1  0  0  0  0
 11 12  1  0  0  0  0
 11 13  1  0  0  0  0
 13 14  2  0  0  0  0
 13 15  1  0  0  0  0
 15 28  1  0  0  0  0
 15 16  1  0  0  0  0
 16 17  2  0  0  0  0
 18 19  1  0  0  0  0
 18 23  1  0  0  0  0
 18 37  1  0  0  0  0
 19 20  1  0  0  0  0
 20 21  1  0  0  0  0
 20 22  2  0  0  0  0
 21 38  1  0  0  0  0
 21 39  1  0  0  0  0
 21 40  1  0  0  0  0
 23 24  1  0  0  0  0
 23 41  1  0  0  0  0
 24 25  1  0  0  0  0
 25 26  1  0  0  0  0
 25 27  2  0  0  0  0
 26 42  1  0  0  0  0
 26 43  1  0  0  0  0
 26 44  1  0  0  0  0
M  END
> <s_m_source_file>
AV-unprocessed.smi

> <i_m_source_file_index>
102

> <i_lp_mmshare_version>
43012

> <i_f3d_flags>
0

> <s_epik_input>
W0NIM11DKD1PKU9bQ0gyXVtDQEBIXTFPW0NASF0oW0NAQEhdKE9DKD1PKVtDSDNdKVtDQEhdMU9DKD1PKVtDSDNdKW4yW2NIXWMoRiljKD1PKVtuSF1jMj1P

> <s_epik_cmdline>
J2VwaWtfcHl0aG9uJywgJy1waCcsICc3LjAnLCAnLXRuJywgJzgnLCAnLW1hJywgJzIwMCcsICctbWV0YWxfYmluZGluZycsICctaW1hZScsICc8aW5maWxlLm1hZT4nLCAnLW9tYWUnLCAnPG91dGZpbGUubWFlPic=

> <r_lp_tautomer_probability>
0.999537

> <r_epik_Ionization_Penalty>
0.058267

> <r_epik_Ionization_Penalty_Charging>
0.058267

> <r_epik_Ionization_Penalty_Neutral>
6.57791e-16

> <r_epik_State_Penalty>
0.0503774

> <r_epik_Charging_Adjusted_Penalty>
0.108644

> <i_epik_Tot_Q>
0

> <i_epik_Tot_abs_Q>
0

> <r_epik_Metal_State_Penalty>
2.6644

> <b_epik_Metal_Only>
0

> <s_epik_Chemistry_Notes>
This compound has an ester and may undergo hydrolysis at high or low pH. This compound contains an acetal/aminal-like group ( X-CH(R)-Y where X, Y are N, S, or O) that may be acid/base labile, releasing an aldehyde.

> <s_lp_Force_Field>
OPLS_2005

> <r_lp_Energy>
11.7279

> <b_lp_Chiralities_Consistent>
1

> <s_lp_Variant>
AV-unprocessed.smi:102-4

> <Gold.Version>
5.8.1

> <Gold.Id.Protein>
6NUR|6NUR_protein|mol2

> <Gold.PLP.Fitness>
39.8586

> <Gold.PLP.PLP>
-31.4907

> <Gold.PLP.part.hbond>
-7.0000

> <Gold.PLP.part.metal>
0.0000

> <Gold.PLP.part.buried>
-3.0995

> <Gold.PLP.part.nonpolar>
-22.3406

> <Gold.PLP.part.repulsive>
0.5372

> <Gold.PLP.ligand.clash>
0.0000

> <Gold.PLP.ligand.torsion>
0.5036

> <Gold.PLP.Chemscore.Hbond>
3.0830

> <Gold.PLP.Chemscore.CHOScore>
0.0000

> <Gold.PLP.Chemscore.Metal>
0.0000

> <Gold.Chemscore.Hbonds>
donor molecule, donor type, donor heavy atom, donor atom, acceptor molecule, acceptor atom, score
      P1  H  6931  6943       L1    27  0.88
      P1  H  7989  7998       L1    14  0.21
      P1  H  7997  8009       L1    14  1.00
      P1  H 10752 10764       L1    17  0.56

> <Gold.PLP.Chemscore.Internal.Correction>
0.1261

> <Gold.Rescore>
     Score         DG    S(hbond)    S(metal)    S(lipo)     H(rot)  DE(clash)    DE(int)     intcor
     -0.07      -6.91       2.41        0.00      32.12       4.05       0.08       6.90       ----

> <Gold.Chemscore.Fitness>
-0.0706

> <Gold.Chemscore.DG>
-6.9101

> <Gold.Chemscore.ZeroCoef>
-5.4800

> <Gold.Chemscore.Hbond>
2.4089

> <Gold.Chemscore.Metal>
0.0000

> <Gold.Chemscore.Lipo>
32.1164

> <Gold.Chemscore.Internal_Hbond>
0.0000

> <Gold.Chemscore.DEClash>
0.0827

> <Gold.Chemscore.DEInternal>
6.8980

> <Gold.Chemscore.Rot>
4.0520

> <Gold.Chemscore.Internal.Correction>
   9.000000E+99

> <Gold.Chemscore.Hbonds>
donor molecule, donor type, donor heavy atom, donor atom, acceptor molecule, acceptor atom, score
      P1  H  6931  6943       L1    27  0.19
      P1  H  7989  7998       L1    14  0.05
      P1  H  7997  8009       L1    14  0.90
      P1  H 10752 10764       L1    17  0.05

> <Gold.Chemscore.Hbond.Weighted>
-8.0457

> <Gold.Chemscore.Metal.Weighted>
-0.0000

> <Gold.Chemscore.Lipo.Weighted>
-3.7576

> <Gold.Chemscore.Internal_Hbond.Weighted>
0.0000

> <Gold.Chemscore.DEClash.Weighted>
0.0827

> <Gold.Chemscore.DEInternal.Weighted>
6.8980

> <Gold.Chemscore.Rot.Weighted>
10.3732

> <Gold.Chemscore.Internal.Correction.Weighted>
   9.000000E+99

> <Gold.Protein.RotatedTorsions>
[ 6907 6896 6895 6894 ] final  -73.19 input  -60.11 | X-H torsion
[ 7974 7965 7964 7962 ] final   71.79 input  175.53 | X-H torsion
[ 8008 7997 7996 7995 ] final -128.46 input   59.86 | X-H torsion
[ 10167 10162 10161 10158 ] final  172.80 input  -65.29 | X-H torsion
[ 10718 10713 10712 10709 ] final   97.51 input   66.30 | X-H torsion
[ 10763 10752 10751 10750 ] final  -41.65 input  -60.55 | X-H torsion
[ 11005 11000 10999 10996 ] final  132.31 input  -57.11 | X-H torsion

> <Gold.Protein.ActiveResidues>
 VAL166  LYS551  ARG553  GLY616  TRP617  ASP618  TYR619  PRO620  LYS621  CYS622 
 ASP623  PHE694  ASN695  SER759  ASP760  ASP761  ALA762  ILE779  LEU786  VAL792 
 PHE793  MET794  SER795  GLU796  ALA797  LYS798  CYS799  TRP800  GLU811  SER814 

> <Gold.Protein.RotatedAtoms>
  150.7140  134.5052  159.5580 H   0  0  0  0  0  0  0  0  0  0  0  0  # atno 6907 bound_to 6896
  152.2641  134.8000  160.0435 H   0  0  0  0  0  0  0  0  0  0  0  0  # atno 6908 bound_to 6896
  151.8703  133.3439  159.3769 H   0  0  0  0  0  0  0  0  0  0  0  0  # atno 6909 bound_to 6896
  145.7614  139.2802  143.1374 H   0  0  0  0  0  0  0  0  0  0  0  0  # atno 7974 bound_to 7965
  155.2631  140.0437  157.2999 H   0  0  0  0  0  0  0  0  0  0  0  0  # atno 8008 bound_to 7997
  154.5699  140.2370  155.8177 H   0  0  0  0  0  0  0  0  0  0  0  0  # atno 8009 bound_to 7997
  156.2114  140.2997  155.9749 H   0  0  0  0  0  0  0  0  0  0  0  0  # atno 8010 bound_to 7997
  139.5088  144.3333  152.0090 H   0  0  0  0  0  0  0  0  0  0  0  0  # atno 10167 bound_to 10162
  157.6911  131.0611  150.4655 H   0  0  0  0  0  0  0  0  0  0  0  0  # atno 10718 bound_to 10713
  153.9660  135.6734  153.4746 H   0  0  0  0  0  0  0  0  0  0  0  0  # atno 10763 bound_to 10752
  153.0815  135.4920  154.8510 H   0  0  0  0  0  0  0  0  0  0  0  0  # atno 10764 bound_to 10752
  154.7246  135.3124  154.8952 H   0  0  0  0  0  0  0  0  0  0  0  0  # atno 10765 bound_to 10752
  139.9782  134.9556  156.9564 H   0  0  0  0  0  0  0  0  0  0  0  0  # atno 11005 bound_to 11000
  146.0260  140.8303  142.9899 LP  0  0  0  0  0  0  0  0  0  0  0  0  # atno 17320 bound_to 7965
  144.6830  140.2698  143.7307 LP  0  0  0  0  0  0  0  0  0  0  0  0  # atno 17321 bound_to 7965
  140.2773  144.3899  150.6131 LP  0  0  0  0  0  0  0  0  0  0  0  0  # atno 17342 bound_to 10162
  140.6044  143.2167  151.7009 LP  0  0  0  0  0  0  0  0  0  0  0  0  # atno 17343 bound_to 10162
  156.4996  130.4114  149.6360 LP  0  0  0  0  0  0  0  0  0  0  0  0  # atno 17370 bound_to 10713
  156.3340  130.7347  151.2281 LP  0  0  0  0  0  0  0  0  0  0  0  0  # atno 17371 bound_to 10713
  140.5150  134.0964  155.7279 LP  0  0  0  0  0  0  0  0  0  0  0  0  # atno 17394 bound_to 11000
  141.1457  133.9059  157.2220 LP  0  0  0  0  0  0  0  0  0  0  0  0  # atno 17395 bound_to 11000

$$$$
