AV-unprocessed.smi:2130|AV-procd|sdf|8686|dock4
  -GOLD-   2272011443D 1   1.00000     0.00000
 Structure written by MMmdl.
 32 33  0  0  0  0  0  0  0  0  1 V2000
  151.9461  144.2856  160.7636 C   0  0  0  0  0  0  0  0  0  0  0  0
  152.5600  142.9203  160.5056 C   0  0  0  0  0  0  0  0  0  0  0  0
  153.3484  142.2492  161.3518 C   0  0  0  0  0  0  0  0  0  0  0  0
  153.9008  140.7271  160.6970 S   0  0  0  0  0  0  0  0  0  0  0  0
  152.9949  141.0434  159.1736 C   0  0  0  0  0  0  0  0  0  0  0  0
  152.9912  140.2600  158.2254 O   0  0  0  0  0  0  0  0  0  0  0  0
  152.3397  142.2696  159.2834 N   0  0  0  0  0  0  0  0  0  0  0  0
  151.4895  142.8159  158.2174 C   0  0  0  0  0  0  0  0  0  0  0  0
  150.3411  141.8822  157.8125 C   0  0  0  0  0  0  0  0  0  0  0  0
  150.2968  140.7175  158.2114 O   0  0  0  0  0  0  0  0  0  0  0  0
  149.4153  142.4186  157.0031 N   0  0  0  0  0  0  0  0  0  0  0  0
  148.2551  141.7186  156.4614 C   0  0  1  0  0  0  0  0  0  0  0  0
  146.9892  142.2832  157.1204 C   0  0  0  0  0  0  0  0  0  0  0  0
  148.1571  141.7981  154.9469 C   0  0  0  0  0  0  0  0  0  0  0  0
  147.4348  140.7314  154.1579 C   0  0  0  0  0  0  0  0  0  0  0  0
  148.9373  140.8610  154.0551 C   0  0  0  0  0  0  0  0  0  0  0  0
  152.4538  144.7784  161.5933 H   0  0  0  0  0  0  0  0  0  0  0  0
  150.8922  144.1848  161.0234 H   0  0  0  0  0  0  0  0  0  0  0  0
  152.0338  144.9378  159.8947 H   0  0  0  0  0  0  0  0  0  0  0  0
  153.6517  142.5720  162.3368 H   0  0  0  0  0  0  0  0  0  0  0  0
  151.0583  143.7636  158.5441 H   0  0  0  0  0  0  0  0  0  0  0  0
  152.0867  143.0595  157.3385 H   0  0  0  0  0  0  0  0  0  0  0  0
  149.5299  143.3835  156.7290 H   0  0  0  0  0  0  0  0  0  0  0  0
  148.3226  140.6655  156.7415 H   0  0  0  0  0  0  0  0  0  0  0  0
  146.0996  141.7523  156.7805 H   0  0  0  0  0  0  0  0  0  0  0  0
  146.8552  143.3393  156.8843 H   0  0  0  0  0  0  0  0  0  0  0  0
  147.0332  142.1866  158.2058 H   0  0  0  0  0  0  0  0  0  0  0  0
  148.0372  142.8140  154.5743 H   0  0  0  0  0  0  0  0  0  0  0  0
  147.0427  139.8744  154.7021 H   0  0  0  0  0  0  0  0  0  0  0  0
  146.8419  141.0529  153.3041 H   0  0  0  0  0  0  0  0  0  0  0  0
  149.3466  141.2717  153.1343 H   0  0  0  0  0  0  0  0  0  0  0  0
  149.5398  140.0889  154.5292 H   0  0  0  0  0  0  0  0  0  0  0  0
  1  2  1  0  0  0  0
  1 17  1  0  0  0  0
  1 18  1  0  0  0  0
  1 19  1  0  0  0  0
  2  7  1  0  0  0  0
  2  3  2  0  0  0  0
  3  4  1  0  0  0  0
  3 20  1  0  0  0  0
  4  5  1  0  0  0  0
  5  6  2  0  0  0  0
  5  7  1  0  0  0  0
  7  8  1  0  0  0  0
  8  9  1  0  0  0  0
  8 21  1  0  0  0  0
  8 22  1  0  0  0  0
  9 10  2  0  0  0  0
  9 11  1  0  0  0  0
 11 12  1  0  0  0  0
 11 23  1  0  0  0  0
 12 13  1  0  0  0  0
 12 14  1  0  0  0  0
 12 24  1  0  0  0  0
 13 25  1  0  0  0  0
 13 26  1  0  0  0  0
 13 27  1  0  0  0  0
 14 16  1  0  0  0  0
 14 15  1  0  0  0  0
 14 28  1  0  0  0  0
 15 16  1  0  0  0  0
 15 29  1  0  0  0  0
 15 30  1  0  0  0  0
 16 31  1  0  0  0  0
 16 32  1  0  0  0  0
M  END
> <s_m_source_file>
AV-unprocessed.smi

> <i_m_source_file_index>
2130

> <i_lp_mmshare_version>
43012

> <i_f3d_flags>
0

> <s_epik_input>
W0NIM11jMVtjSF1zYyg9TyluMVtDSDJdQyg9TylbTkhdW0NASF0oW0NIM10pW0NIXTJbQ0gyXVtDSDJdMg==

> <s_epik_cmdline>
J2VwaWtfcHl0aG9uJywgJy1waCcsICc3LjAnLCAnLXRuJywgJzgnLCAnLW1hJywgJzIwMCcsICctbWV0YWxfYmluZGluZycsICctaW1hZScsICc8aW5maWxlLm1hZT4nLCAnLW9tYWUnLCAnPG91dGZpbGUubWFlPic=

> <r_lp_tautomer_probability>
1

> <r_epik_Ionization_Penalty>
1.32882e-06

> <r_epik_Ionization_Penalty_Charging>
1.22222e-06

> <r_epik_Ionization_Penalty_Neutral>
1.066e-07

> <r_epik_State_Penalty>
-0

> <r_epik_Charging_Adjusted_Penalty>
1.22222e-06

> <i_epik_Tot_Q>
0

> <i_epik_Tot_abs_Q>
0

> <r_epik_Metal_State_Penalty>
-0

> <b_epik_Metal_Only>
0

> <s_lp_Force_Field>
OPLS_2005

> <r_lp_Energy>
16.4034

> <b_lp_Chiralities_Consistent>
1

> <s_lp_Variant>
AV-unprocessed.smi:2130-2

> <Gold.Version>
5.8.1

> <Gold.Id.Protein>
6NUR|6NUR_protein|mol2

> <Gold.PLP.Fitness>
39.8448

> <Gold.PLP.PLP>
-34.5953

> <Gold.PLP.part.hbond>
-2.0000

> <Gold.PLP.part.metal>
0.0000

> <Gold.PLP.part.buried>
-1.1633

> <Gold.PLP.part.nonpolar>
-30.0467

> <Gold.PLP.part.repulsive>
0.0089

> <Gold.PLP.ligand.clash>
0.0000

> <Gold.PLP.ligand.torsion>
0.6932

> <Gold.PLP.Chemscore.Hbond>
1.8560

> <Gold.PLP.Chemscore.CHOScore>
0.0000

> <Gold.PLP.Chemscore.Metal>
0.0000

> <Gold.Chemscore.Hbonds>
donor molecule, donor type, donor heavy atom, donor atom, acceptor molecule, acceptor atom, score
      L1  H    11    23       P1  8028  0.91
      P1  H  7997  8008       L1     6  0.93

> <Gold.PLP.Chemscore.Internal.Correction>
1.0679

> <Gold.Rescore>
     Score         DG    S(hbond)    S(metal)    S(lipo)     H(rot)  DE(clash)    DE(int)     intcor
     13.20     -16.67       1.74        0.00      80.77       1.59       0.12       3.35       ----

> <Gold.Chemscore.Fitness>
13.2036

> <Gold.Chemscore.DG>
-16.6719

> <Gold.Chemscore.ZeroCoef>
-5.4800

> <Gold.Chemscore.Hbond>
1.7422

> <Gold.Chemscore.Metal>
0.0000

> <Gold.Chemscore.Lipo>
80.7705

> <Gold.Chemscore.Internal_Hbond>
0.0000

> <Gold.Chemscore.DEClash>
0.1232

> <Gold.Chemscore.DEInternal>
3.3451

> <Gold.Chemscore.Rot>
1.5926

> <Gold.Chemscore.Internal.Correction>
   9.000000E+99

> <Gold.Chemscore.Hbonds>
donor molecule, donor type, donor heavy atom, donor atom, acceptor molecule, acceptor atom, score
      L1  H    11    23       P1  8028  0.88
      P1  H  7997  8008       L1     6  0.85

> <Gold.Chemscore.Hbond.Weighted>
-5.8188

> <Gold.Chemscore.Metal.Weighted>
-0.0000

> <Gold.Chemscore.Lipo.Weighted>
-9.4502

> <Gold.Chemscore.Internal_Hbond.Weighted>
0.0000

> <Gold.Chemscore.DEClash.Weighted>
0.1232

> <Gold.Chemscore.DEInternal.Weighted>
3.3451

> <Gold.Chemscore.Rot.Weighted>
4.0771

> <Gold.Chemscore.Internal.Correction.Weighted>
   9.000000E+99

> <Gold.Protein.RotatedTorsions>
[ 6907 6896 6895 6894 ] final  -46.76 input  -60.11 | X-H torsion
[ 7974 7965 7964 7962 ] final   21.88 input  175.53 | X-H torsion
[ 8008 7997 7996 7995 ] final  -86.22 input   59.86 | X-H torsion
[ 10167 10162 10161 10158 ] final  111.83 input  -65.29 | X-H torsion
[ 10718 10713 10712 10709 ] final -129.24 input   66.30 | X-H torsion
[ 10763 10752 10751 10750 ] final  -49.14 input  -60.55 | X-H torsion
[ 11005 11000 10999 10996 ] final  -31.73 input  -57.11 | X-H torsion

> <Gold.Protein.ActiveResidues>
 VAL166  LYS551  ARG553  GLY616  TRP617  ASP618  TYR619  PRO620  LYS621  CYS622 
 ASP623  PHE694  ASN695  SER759  ASP760  ASP761  ALA762  ILE779  LEU786  VAL792 
 PHE793  MET794  SER795  GLU796  ALA797  LYS798  CYS799  TRP800  GLU811  SER814 

> <Gold.Protein.RotatedAtoms>
  150.9078  134.8494  159.7404 H   0  0  0  0  0  0  0  0  0  0  0  0  # atno 6907 bound_to 6896
  152.4928  134.4404  159.9551 H   0  0  0  0  0  0  0  0  0  0  0  0  # atno 6908 bound_to 6896
  151.4450  133.3594  159.2822 H   0  0  0  0  0  0  0  0  0  0  0  0  # atno 6909 bound_to 6896
  146.2053  139.7965  142.8731 H   0  0  0  0  0  0  0  0  0  0  0  0  # atno 7974 bound_to 7965
  154.6494  140.0581  156.9938 H   0  0  0  0  0  0  0  0  0  0  0  0  # atno 8008 bound_to 7997
  155.1395  140.3264  155.4437 H   0  0  0  0  0  0  0  0  0  0  0  0  # atno 8009 bound_to 7997
  156.2569  140.1966  156.6511 H   0  0  0  0  0  0  0  0  0  0  0  0  # atno 8010 bound_to 7997
  139.6581  144.7129  151.1917 H   0  0  0  0  0  0  0  0  0  0  0  0  # atno 10167 bound_to 10162
  156.2028  130.6868  151.0559 H   0  0  0  0  0  0  0  0  0  0  0  0  # atno 10718 bound_to 10713
  154.0892  135.6580  153.4850 H   0  0  0  0  0  0  0  0  0  0  0  0  # atno 10763 bound_to 10752
  153.0328  135.5198  154.7398 H   0  0  0  0  0  0  0  0  0  0  0  0  # atno 10764 bound_to 10752
  154.6516  135.3002  154.9948 H   0  0  0  0  0  0  0  0  0  0  0  0  # atno 10765 bound_to 10752
  140.9492  133.7231  156.1194 H   0  0  0  0  0  0  0  0  0  0  0  0  # atno 11005 bound_to 11000
  145.3342  141.0273  143.3429 LP  0  0  0  0  0  0  0  0  0  0  0  0  # atno 17320 bound_to 7965
  144.8777  139.4947  143.6737 LP  0  0  0  0  0  0  0  0  0  0  0  0  # atno 17321 bound_to 7965
  140.7568  143.6038  150.8673 LP  0  0  0  0  0  0  0  0  0  0  0  0  # atno 17342 bound_to 10162
  139.9693  143.6075  152.2978 LP  0  0  0  0  0  0  0  0  0  0  0  0  # atno 17343 bound_to 10162
  157.6995  131.0781  150.6864 LP  0  0  0  0  0  0  0  0  0  0  0  0  # atno 17370 bound_to 10713
  156.6922  130.4598  149.5596 LP  0  0  0  0  0  0  0  0  0  0  0  0  # atno 17371 bound_to 10713
  140.7626  134.3922  157.5523 LP  0  0  0  0  0  0  0  0  0  0  0  0  # atno 17394 bound_to 11000
  139.8842  134.8971  156.2715 LP  0  0  0  0  0  0  0  0  0  0  0  0  # atno 17395 bound_to 11000

$$$$
