AV-unprocessed.smi:2083|AV-procd|sdf|8508|dock6
  -GOLD-   2272011223D 1   1.00000     0.00000
 Structure written by MMmdl.
 44 45  0  0  0  0  0  0  0  0  3 V2000
  154.6232  135.5417  164.2485 C   0  0  0  0  0  0  0  0  0  0  0  0
  154.4969  136.6215  163.2294 C   0  0  0  0  0  0  0  0  0  0  0  0
  153.9152  136.6713  161.9941 C   0  0  0  0  0  0  0  0  0  0  0  0
  154.1647  138.0052  161.5749 C   0  0  0  0  0  0  0  0  0  0  0  0
  153.7048  138.4653  160.3125 N   0  0  0  0  0  0  0  0  0  0  0  0
  152.8454  137.8737  159.4623 C   0  0  0  0  0  0  0  0  0  0  0  0
  152.3197  136.7937  159.7574 O   0  0  0  0  0  0  0  0  0  0  0  0
  152.6670  138.5979  158.3234 N   0  5  0  0  0  0  0  0  0  0  0  0
  152.7771  140.0540  158.2372 C   0  0  0  0  0  0  0  0  0  0  0  0
  151.3972  140.7175  158.4873 C   0  0  2  0  0  0  0  0  0  0  0  0
  150.3487  140.4476  157.3784 C   0  0  0  0  0  0  0  0  0  0  0  0
  151.5633  142.1738  158.7892 N   0  3  2  0  0  0  0  0  0  0  0  0
  151.3882  143.0460  157.5973 C   0  0  0  0  0  0  0  0  0  0  0  0
  151.2760  144.5227  158.0099 C   0  0  0  0  0  0  0  0  0  0  0  0
  152.4864  144.9605  158.8477 C   0  0  0  0  0  0  0  0  0  0  0  0
  152.7114  144.0170  160.0445 C   0  0  1  0  0  0  0  0  0  0  0  0
  151.6760  144.2133  161.1658 C   0  0  0  0  0  0  0  0  0  0  0  0
  152.7810  142.5524  159.5674 C   0  0  0  0  0  0  0  0  0  0  0  0
  154.8379  138.7061  162.4754 N   0  0  0  0  0  0  0  0  0  0  0  0
  155.0545  137.8229  163.5396 O   0  0  0  0  0  0  0  0  0  0  0  0
  154.2501  134.5938  163.8600 H   0  0  0  0  0  0  0  0  0  0  0  0
  154.0531  135.7881  165.1441 H   0  0  0  0  0  0  0  0  0  0  0  0
  155.6650  135.4021  164.5369 H   0  0  0  0  0  0  0  0  0  0  0  0
  153.3946  135.8802  161.4754 H   0  0  0  0  0  0  0  0  0  0  0  0
  154.0841  139.3488  160.0065 H   0  0  0  0  0  0  0  0  0  0  0  0
  153.4802  140.4476  158.9735 H   0  0  0  0  0  0  0  0  0  0  0  0
  153.1608  140.3749  157.2683 H   0  0  0  0  0  0  0  0  0  0  0  0
  151.0124  140.2528  159.3968 H   0  0  0  0  0  0  0  0  0  0  0  0
  150.1284  139.3833  157.2786 H   0  0  0  0  0  0  0  0  0  0  0  0
  150.6683  140.8040  156.3976 H   0  0  0  0  0  0  0  0  0  0  0  0
  149.4032  140.9371  157.6122 H   0  0  0  0  0  0  0  0  0  0  0  0
  152.2254  142.9040  156.9125 H   0  0  0  0  0  0  0  0  0  0  0  0
  150.4834  142.7678  157.0559 H   0  0  0  0  0  0  0  0  0  0  0  0
  151.1935  145.1501  157.1220 H   0  0  0  0  0  0  0  0  0  0  0  0
  150.3569  144.6758  158.5765 H   0  0  0  0  0  0  0  0  0  0  0  0
  153.3754  144.9559  158.2156 H   0  0  0  0  0  0  0  0  0  0  0  0
  152.3600  145.9889  159.1880 H   0  0  0  0  0  0  0  0  0  0  0  0
  153.6816  144.2670  160.4758 H   0  0  0  0  0  0  0  0  0  0  0  0
  150.6664  143.9646  160.8382 H   0  0  0  0  0  0  0  0  0  0  0  0
  151.6670  145.2464  161.5138 H   0  0  0  0  0  0  0  0  0  0  0  0
  151.9062  143.5812  162.0240 H   0  0  0  0  0  0  0  0  0  0  0  0
  152.9107  141.8975  160.4298 H   0  0  0  0  0  0  0  0  0  0  0  0
  153.6664  142.4224  158.9433 H   0  0  0  0  0  0  0  0  0  0  0  0
  150.7779  142.3901  159.3867 H   0  0  0  0  0  0  0  0  0  0  0  0
  1  2  1  0  0  0  0
  1 21  1  0  0  0  0
  1 22  1  0  0  0  0
  1 23  1  0  0  0  0
  2 20  1  0  0  0  0
  2  3  2  0  0  0  0
  3  4  1  0  0  0  0
  3 24  1  0  0  0  0
  4  5  1  0  0  0  0
  4 19  2  0  0  0  0
  5  6  1  0  0  0  0
  5 25  1  0  0  0  0
  6  7  2  0  0  0  0
  6  8  1  0  0  0  0
  8  9  1  0  0  0  0
  9 10  1  0  0  0  0
  9 26  1  0  0  0  0
  9 27  1  0  0  0  0
 10 11  1  0  0  0  0
 10 12  1  0  0  0  0
 10 28  1  0  0  0  0
 11 29  1  0  0  0  0
 11 30  1  0  0  0  0
 11 31  1  0  0  0  0
 12 18  1  0  0  0  0
 12 13  1  0  0  0  0
 12 44  1  0  0  0  0
 13 14  1  0  0  0  0
 13 32  1  0  0  0  0
 13 33  1  0  0  0  0
 14 15  1  0  0  0  0
 14 34  1  0  0  0  0
 14 35  1  0  0  0  0
 15 16  1  0  0  0  0
 15 36  1  0  0  0  0
 15 37  1  0  0  0  0
 16 17  1  0  0  0  0
 16 18  1  0  0  0  0
 16 38  1  0  0  0  0
 17 39  1  0  0  0  0
 17 40  1  0  0  0  0
 17 41  1  0  0  0  0
 18 42  1  0  0  0  0
 18 43  1  0  0  0  0
 19 20  1  0  0  0  0
M  CHG  1   8  -1
M  CHG  1  12   1
M  END
> <s_m_source_file>
AV-unprocessed.smi

> <i_m_source_file_index>
2083

> <i_lp_mmshare_version>
43012

> <i_f3d_flags>
0

> <s_epik_input>
W0NIM11jMVtjSF1jKG5vMSlbTkhdQyg9TylbTkhdW0NIMl1bQ0BIXShbQ0gzXSlOMltDSDJdW0NIMl1bQ0gyXVtDQEBIXShbQ0gzXSlbQ0gyXTI=

> <s_epik_cmdline>
J2VwaWtfcHl0aG9uJywgJy1waCcsICc3LjAnLCAnLXRuJywgJzgnLCAnLW1hJywgJzIwMCcsICctbWV0YWxfYmluZGluZycsICctaW1hZScsICc8aW5maWxlLm1hZT4nLCAnLW9tYWUnLCAnPG91dGZpbGUubWFlPic=

> <r_epik_Ionization_Penalty>
6.76934

> <r_epik_Ionization_Penalty_Charging>
6.76934

> <r_epik_Ionization_Penalty_Neutral>
5.77849e-06

> <r_epik_State_Penalty>
6.79457

> <r_epik_Charging_Adjusted_Penalty>
13.5639

> <i_epik_Tot_Q>
0

> <i_epik_Tot_abs_Q>
2

> <r_epik_Metal_State_Penalty>
2.72837

> <b_epik_Metal_Only>
1

> <s_lp_Force_Field>
OPLS_2005

> <r_lp_Energy>
20.5905

> <b_lp_Chiralities_Consistent>
1

> <s_lp_Variant>
AV-unprocessed.smi:2083-19

> <Gold.Version>
5.8.1

> <Gold.Id.Protein>
6NUR|6NUR_protein|mol2

> <Gold.PLP.Fitness>
39.7132

> <Gold.PLP.PLP>
-38.6771

> <Gold.PLP.part.hbond>
-1.0000

> <Gold.PLP.part.metal>
0.0000

> <Gold.PLP.part.buried>
-4.5555

> <Gold.PLP.part.nonpolar>
-32.8198

> <Gold.PLP.part.repulsive>
0.1415

> <Gold.PLP.ligand.clash>
0.0000

> <Gold.PLP.ligand.torsion>
1.0667

> <Gold.PLP.Chemscore.Hbond>
1.0000

> <Gold.PLP.Chemscore.CHOScore>
0.0000

> <Gold.PLP.Chemscore.Metal>
0.0000

> <Gold.Chemscore.Hbonds>
donor molecule, donor type, donor heavy atom, donor atom, acceptor molecule, acceptor atom, score
      P1  H  6896  6909       L1     7  1.00

> <Gold.PLP.Chemscore.Internal.Correction>
0.1694

> <Gold.Rescore>
     Score         DG    S(hbond)    S(metal)    S(lipo)     H(rot)  DE(clash)    DE(int)     intcor
     15.77     -18.45       1.00        0.00     115.59       1.52       0.21       2.47       ----

> <Gold.Chemscore.Fitness>
15.7731

> <Gold.Chemscore.DG>
-18.4531

> <Gold.Chemscore.ZeroCoef>
-5.4800

> <Gold.Chemscore.Hbond>
0.9993

> <Gold.Chemscore.Metal>
0.0000

> <Gold.Chemscore.Lipo>
115.5904

> <Gold.Chemscore.Internal_Hbond>
0.0000

> <Gold.Chemscore.DEClash>
0.2064

> <Gold.Chemscore.DEInternal>
2.4737

> <Gold.Chemscore.Rot>
1.5190

> <Gold.Chemscore.Internal.Correction>
   9.000000E+99

> <Gold.Chemscore.Hbonds>
donor molecule, donor type, donor heavy atom, donor atom, acceptor molecule, acceptor atom, score
      P1  H  6896  6909       L1     7  1.00

> <Gold.Chemscore.Hbond.Weighted>
-3.3377

> <Gold.Chemscore.Metal.Weighted>
-0.0000

> <Gold.Chemscore.Lipo.Weighted>
-13.5241

> <Gold.Chemscore.Internal_Hbond.Weighted>
0.0000

> <Gold.Chemscore.DEClash.Weighted>
0.2064

> <Gold.Chemscore.DEInternal.Weighted>
2.4737

> <Gold.Chemscore.Rot.Weighted>
3.8886

> <Gold.Chemscore.Internal.Correction.Weighted>
   9.000000E+99

> <Gold.Protein.RotatedTorsions>
[ 6907 6896 6895 6894 ] final  132.00 input  -60.11 | X-H torsion
[ 7974 7965 7964 7962 ] final   81.11 input  175.53 | X-H torsion
[ 8008 7997 7996 7995 ] final  161.65 input   59.86 | X-H torsion
[ 10167 10162 10161 10158 ] final   55.96 input  -65.29 | X-H torsion
[ 10718 10713 10712 10709 ] final  -79.32 input   66.30 | X-H torsion
[ 10763 10752 10751 10750 ] final -109.75 input  -60.55 | X-H torsion
[ 11005 11000 10999 10996 ] final -106.45 input  -57.11 | X-H torsion

> <Gold.Protein.ActiveResidues>
 VAL166  LYS551  ARG553  GLY616  TRP617  ASP618  TYR619  PRO620  LYS621  CYS622 
 ASP623  PHE694  ASN695  SER759  ASP760  ASP761  ALA762  ILE779  LEU786  VAL792 
 PHE793  MET794  SER795  GLU796  ALA797  LYS798  CYS799  TRP800  GLU811  SER814 

> <Gold.Protein.RotatedAtoms>
  152.3369  133.6022  159.5848 H   0  0  0  0  0  0  0  0  0  0  0  0  # atno 6907 bound_to 6896
  150.7455  133.9782  159.3576 H   0  0  0  0  0  0  0  0  0  0  0  0  # atno 6908 bound_to 6896
  151.7651  135.0801  160.0402 H   0  0  0  0  0  0  0  0  0  0  0  0  # atno 6909 bound_to 6896
  145.6424  139.2428  143.2023 H   0  0  0  0  0  0  0  0  0  0  0  0  # atno 7974 bound_to 7965
  156.2088  140.1771  156.7741 H   0  0  0  0  0  0  0  0  0  0  0  0  # atno 8008 bound_to 7997
  154.5692  140.0685  156.8969 H   0  0  0  0  0  0  0  0  0  0  0  0  # atno 8009 bound_to 7997
  155.2704  140.3342  155.4268 H   0  0  0  0  0  0  0  0  0  0  0  0  # atno 8010 bound_to 7997
  140.2138  144.3860  150.6478 H   0  0  0  0  0  0  0  0  0  0  0  0  # atno 10167 bound_to 10162
  156.0095  130.4542  150.3631 H   0  0  0  0  0  0  0  0  0  0  0  0  # atno 10718 bound_to 10713
  154.8210  135.4589  154.0780 H   0  0  0  0  0  0  0  0  0  0  0  0  # atno 10763 bound_to 10752
  153.2133  135.6884  153.8094 H   0  0  0  0  0  0  0  0  0  0  0  0  # atno 10764 bound_to 10752
  153.7537  135.3294  155.3302 H   0  0  0  0  0  0  0  0  0  0  0  0  # atno 10765 bound_to 10752
  141.1004  133.8895  157.1857 H   0  0  0  0  0  0  0  0  0  0  0  0  # atno 11005 bound_to 11000
  146.1270  140.7235  142.9430 LP  0  0  0  0  0  0  0  0  0  0  0  0  # atno 17320 bound_to 7965
  144.7152  140.4185  143.7049 LP  0  0  0  0  0  0  0  0  0  0  0  0  # atno 17321 bound_to 7965
  140.6304  143.2187  151.6507 LP  0  0  0  0  0  0  0  0  0  0  0  0  # atno 17342 bound_to 10162
  139.5170  144.3330  152.0809 LP  0  0  0  0  0  0  0  0  0  0  0  0  # atno 17343 bound_to 10162
  157.1719  131.0371  151.2791 LP  0  0  0  0  0  0  0  0  0  0  0  0  # atno 17370 bound_to 10713
  157.4222  130.7443  149.6922 LP  0  0  0  0  0  0  0  0  0  0  0  0  # atno 17371 bound_to 10713
  139.9853  135.0084  156.9848 LP  0  0  0  0  0  0  0  0  0  0  0  0  # atno 17394 bound_to 11000
  140.5036  134.1072  155.7255 LP  0  0  0  0  0  0  0  0  0  0  0  0  # atno 17395 bound_to 11000

$$$$
