AV-unprocessed.smi:1240|AV-procd|sdf|5195|dock3
  -GOLD-   22720 4283D 1   1.00000     0.00000
 Structure written by MMmdl.
 47 49  0  0  0  0  0  0  0  0  1 V2000
  144.6219  136.8427  152.2668 O   0  0  0  0  0  0  0  0  0  0  0  0
  145.8241  136.5814  152.2361 C   0  0  0  0  0  0  0  0  0  0  0  0
  146.7717  137.4242  152.6726 N   0  0  0  0  0  0  0  0  0  0  0  0
  146.5249  138.7525  153.2254 C   0  0  0  0  0  0  0  0  0  0  0  0
  146.7834  138.8782  154.7664 C   0  0  2  0  0  0  0  0  0  0  0  0
  145.7552  139.8969  155.3841 C   0  0  2  0  0  0  0  0  0  0  0  0
  145.9992  140.3870  156.8033 C   0  0  0  0  0  0  0  0  0  0  0  0
  144.6745  141.0444  157.1602 C   0  0  0  0  0  0  0  0  0  0  0  0
  143.6935  140.2188  156.5532 O   0  0  0  0  0  0  0  0  0  0  0  0
  144.3022  139.4148  155.5474 C   0  0  0  0  0  0  0  0  0  0  0  0
  148.1875  139.2474  155.1148 N   0  0  0  0  0  0  0  0  0  0  0  0
  148.5664  140.6423  154.8559 C   0  0  0  0  0  0  0  0  0  0  0  0
  150.0170  140.9502  155.2692 C   0  0  0  0  0  0  0  0  0  0  0  0
  150.9091  140.0779  154.5891 O   0  0  0  0  0  0  0  0  0  0  0  0
  150.6184  138.7106  154.8432 C   0  0  0  0  0  0  0  0  0  0  0  0
  149.1723  138.4078  154.4172 C   0  0  0  0  0  0  0  0  0  0  0  0
  146.3677  135.4507  151.7525 N   0  0  0  0  0  0  0  0  0  0  0  0
  145.7222  134.3247  151.1719 C   0  0  0  0  0  0  0  0  0  0  0  0
  146.5384  133.2682  150.7169 C   0  0  0  0  0  0  0  0  0  0  0  0
  145.9273  132.1333  150.1474 C   0  0  0  0  0  0  0  0  0  0  0  0
  144.5911  131.9962  150.0198 N   0  0  0  0  0  0  0  0  0  0  0  0
  143.8103  133.0022  150.4670 C   0  0  0  0  0  0  0  0  0  0  0  0
  144.3187  134.1798  151.0511 C   0  0  0  0  0  0  0  0  0  0  0  0
  147.7358  137.1321  152.6078 H   0  0  0  0  0  0  0  0  0  0  0  0
  147.1699  139.4110  152.6443 H   0  0  0  0  0  0  0  0  0  0  0  0
  145.5002  139.0417  152.9899 H   0  0  0  0  0  0  0  0  0  0  0  0
  146.5855  137.8943  155.1936 H   0  0  0  0  0  0  0  0  0  0  0  0
  145.7398  140.7798  154.7423 H   0  0  0  0  0  0  0  0  0  0  0  0
  146.1717  139.5463  157.4766 H   0  0  0  0  0  0  0  0  0  0  0  0
  146.8308  141.0877  156.8823 H   0  0  0  0  0  0  0  0  0  0  0  0
  144.5209  141.1280  158.2362 H   0  0  0  0  0  0  0  0  0  0  0  0
  144.6140  142.0434  156.7267 H   0  0  0  0  0  0  0  0  0  0  0  0
  143.7295  139.4950  154.6236 H   0  0  0  0  0  0  0  0  0  0  0  0
  144.2720  138.3774  155.8827 H   0  0  0  0  0  0  0  0  0  0  0  0
  148.4327  140.8768  153.7985 H   0  0  0  0  0  0  0  0  0  0  0  0
  147.9299  141.3198  155.4244 H   0  0  0  0  0  0  0  0  0  0  0  0
  150.2710  141.9809  155.0221 H   0  0  0  0  0  0  0  0  0  0  0  0
  150.1415  140.8400  156.3476 H   0  0  0  0  0  0  0  0  0  0  0  0
  151.3163  138.0898  154.2814 H   0  0  0  0  0  0  0  0  0  0  0  0
  150.7667  138.4849  155.9005 H   0  0  0  0  0  0  0  0  0  0  0  0
  149.0000  137.3510  154.5776 H   0  0  0  0  0  0  0  0  0  0  0  0
  149.0824  138.5608  153.3405 H   0  0  0  0  0  0  0  0  0  0  0  0
  147.3765  135.4164  151.7450 H   0  0  0  0  0  0  0  0  0  0  0  0
  147.6144  133.3234  150.7957 H   0  0  0  0  0  0  0  0  0  0  0  0
  146.5292  131.3129  149.7854 H   0  0  0  0  0  0  0  0  0  0  0  0
  142.7447  132.8628  150.3609 H   0  0  0  0  0  0  0  0  0  0  0  0
  143.6262  134.9302  151.3984 H   0  0  0  0  0  0  0  0  0  0  0  0
  1  2  2  0  0  0  0
  2  3  1  0  0  0  0
  2 17  1  0  0  0  0
  3  4  1  0  0  0  0
  3 24  1  0  0  0  0
  4  5  1  0  0  0  0
  4 25  1  0  0  0  0
  4 26  1  0  0  0  0
  5  6  1  0  0  0  0
  5 11  1  0  0  0  0
  5 27  1  0  0  0  0
  6 10  1  0  0  0  0
  6  7  1  0  0  0  0
  6 28  1  0  0  0  0
  7  8  1  0  0  0  0
  7 29  1  0  0  0  0
  7 30  1  0  0  0  0
  8  9  1  0  0  0  0
  8 31  1  0  0  0  0
  8 32  1  0  0  0  0
  9 10  1  0  0  0  0
 10 33  1  0  0  0  0
 10 34  1  0  0  0  0
 11 16  1  0  0  0  0
 11 12  1  0  0  0  0
 12 13  1  0  0  0  0
 12 35  1  0  0  0  0
 12 36  1  0  0  0  0
 13 14  1  0  0  0  0
 13 37  1  0  0  0  0
 13 38  1  0  0  0  0
 14 15  1  0  0  0  0
 15 16  1  0  0  0  0
 15 39  1  0  0  0  0
 15 40  1  0  0  0  0
 16 41  1  0  0  0  0
 16 42  1  0  0  0  0
 17 18  1  0  0  0  0
 17 43  1  0  0  0  0
 18 23  1  0  0  0  0
 18 19  2  0  0  0  0
 19 20  1  0  0  0  0
 19 44  1  0  0  0  0
 20 21  2  0  0  0  0
 20 45  1  0  0  0  0
 21 22  1  0  0  0  0
 22 23  2  0  0  0  0
 22 46  1  0  0  0  0
 23 47  1  0  0  0  0
M  END
> <s_m_source_file>
AV-unprocessed.smi

> <i_m_source_file_index>
1240

> <i_lp_mmshare_version>
43012

> <i_f3d_flags>
0

> <s_epik_input>
W2NIXTFbY0hdbltjSF1bY0hdYzFbTkhdQyg9TylbTkhdW0NIMl1bQ0BIXShbQ0BASF0yW0NIMl1bQ0gyXU9bQ0gyXTIpTjNbQ0gyXVtDSDJdT1tDSDJdW0NIMl0z

> <s_epik_cmdline>
J2VwaWtfcHl0aG9uJywgJy1waCcsICc3LjAnLCAnLXRuJywgJzgnLCAnLW1hJywgJzIwMCcsICctbWV0YWxfYmluZGluZycsICctaW1hZScsICc8aW5maWxlLm1hZT4nLCAnLW9tYWUnLCAnPG91dGZpbGUubWFlPic=

> <r_epik_Ionization_Penalty>
0.238664

> <r_epik_Ionization_Penalty_Charging>
0

> <r_epik_Ionization_Penalty_Neutral>
0.238664

> <r_epik_State_Penalty>
0.217087

> <r_epik_Charging_Adjusted_Penalty>
0.217087

> <i_epik_Tot_Q>
0

> <i_epik_Tot_abs_Q>
0

> <r_epik_Metal_State_Penalty>
0.199194

> <b_epik_Metal_Only>
0

> <s_lp_Force_Field>
OPLS_2005

> <r_lp_Energy>
60.4877

> <b_lp_Chiralities_Consistent>
1

> <s_lp_Variant>
AV-unprocessed.smi:1240-1

> <Gold.Version>
5.8.1

> <Gold.Id.Protein>
6NUR|6NUR_protein|mol2

> <Gold.PLP.Fitness>
44.1517

> <Gold.PLP.PLP>
-30.7488

> <Gold.PLP.part.hbond>
-3.0000

> <Gold.PLP.part.metal>
0.0000

> <Gold.PLP.part.buried>
-6.2133

> <Gold.PLP.part.nonpolar>
-23.3427

> <Gold.PLP.part.repulsive>
0.6818

> <Gold.PLP.ligand.clash>
0.0000

> <Gold.PLP.ligand.torsion>
0.8400

> <Gold.PLP.Chemscore.Hbond>
3.0000

> <Gold.PLP.Chemscore.CHOScore>
1.9681

> <Gold.PLP.Chemscore.Metal>
0.0000

> <Gold.Chemscore.Hbonds>
donor molecule, donor type, donor heavy atom, donor atom, acceptor molecule, acceptor atom, score
      L1  H     3    24       P1  7948  1.00
      L1  H    17    43       P1  7948  1.00
      P1  H  7989  7998       L1    14  0.99
      L1  C    20    45       P1 10747  0.97
      L1  C    22    46       P1 10186  1.00

> <Gold.PLP.Chemscore.Internal.Correction>
0.1787

> <Gold.Rescore>
     Score         DG    S(hbond)    S(metal)    S(lipo)     H(rot)  DE(clash)    DE(int)     intcor
     17.41     -19.48       2.90        0.00      73.06       1.65       0.00       2.07       ----

> <Gold.Chemscore.Fitness>
17.4124

> <Gold.Chemscore.DG>
-19.4790

> <Gold.Chemscore.ZeroCoef>
-5.4800

> <Gold.Chemscore.Hbond>
2.8973

> <Gold.Chemscore.Metal>
0.0000

> <Gold.Chemscore.Lipo>
73.0631

> <Gold.Chemscore.Internal_Hbond>
0.0000

> <Gold.Chemscore.DEClash>
0.0015

> <Gold.Chemscore.DEInternal>
2.0651

> <Gold.Chemscore.Rot>
1.6508

> <Gold.Chemscore.Internal.Correction>
   9.000000E+99

> <Gold.Chemscore.Hbonds>
donor molecule, donor type, donor heavy atom, donor atom, acceptor molecule, acceptor atom, score
      L1  H     3    24       P1  7948  0.94
      L1  H    17    43       P1  7948  0.95
      P1  H  7989  7998       L1    14  0.65

> <Gold.Chemscore.Hbond.Weighted>
-9.6768

> <Gold.Chemscore.Metal.Weighted>
-0.0000

> <Gold.Chemscore.Lipo.Weighted>
-8.5484

> <Gold.Chemscore.Internal_Hbond.Weighted>
0.0000

> <Gold.Chemscore.DEClash.Weighted>
0.0015

> <Gold.Chemscore.DEInternal.Weighted>
2.0651

> <Gold.Chemscore.Rot.Weighted>
4.2262

> <Gold.Chemscore.Internal.Correction.Weighted>
   9.000000E+99

> <Gold.Protein.RotatedTorsions>
[ 6907 6896 6895 6894 ] final  165.62 input  -60.11 | X-H torsion
[ 7974 7965 7964 7962 ] final  130.26 input  175.53 | X-H torsion
[ 8008 7997 7996 7995 ] final -125.99 input   59.86 | X-H torsion
[ 10167 10162 10161 10158 ] final  146.85 input  -65.29 | X-H torsion
[ 10718 10713 10712 10709 ] final  159.87 input   66.30 | X-H torsion
[ 10763 10752 10751 10750 ] final   91.27 input  -60.55 | X-H torsion
[ 11005 11000 10999 10996 ] final  158.04 input  -57.11 | X-H torsion

> <Gold.Protein.ActiveResidues>
 VAL166  LYS551  ARG553  GLY616  TRP617  ASP618  TYR619  PRO620  LYS621  CYS622 
 ASP623  PHE694  ASN695  SER759  ASP760  ASP761  ALA762  ILE779  LEU786  VAL792 
 PHE793  MET794  SER795  GLU796  ALA797  LYS798  CYS799  TRP800  GLU811  SER814 

> <Gold.Protein.RotatedAtoms>
  151.8916  133.3517  159.3799 H   0  0  0  0  0  0  0  0  0  0  0  0  # atno 6907 bound_to 6896
  150.7102  134.4918  159.5529 H   0  0  0  0  0  0  0  0  0  0  0  0  # atno 6908 bound_to 6896
  152.2489  134.8153  160.0500 H   0  0  0  0  0  0  0  0  0  0  0  0  # atno 6909 bound_to 6896
  145.0198  139.4142  143.5203 H   0  0  0  0  0  0  0  0  0  0  0  0  # atno 7974 bound_to 7965
  155.2223  140.0422  157.2950 H   0  0  0  0  0  0  0  0  0  0  0  0  # atno 8008 bound_to 7997
  154.5941  140.2435  155.7851 H   0  0  0  0  0  0  0  0  0  0  0  0  # atno 8009 bound_to 7997
  156.2279  140.2948  156.0122 H   0  0  0  0  0  0  0  0  0  0  0  0  # atno 8010 bound_to 7997
  139.4900  144.5799  151.6893 H   0  0  0  0  0  0  0  0  0  0  0  0  # atno 10167 bound_to 10162
  157.1583  131.0581  151.2245 H   0  0  0  0  0  0  0  0  0  0  0  0  # atno 10718 bound_to 10713
  153.2064  135.4404  155.0328 H   0  0  0  0  0  0  0  0  0  0  0  0  # atno 10763 bound_to 10752
  154.8176  135.3322  154.7134 H   0  0  0  0  0  0  0  0  0  0  0  0  # atno 10764 bound_to 10752
  153.7575  135.6994  153.4988 H   0  0  0  0  0  0  0  0  0  0  0  0  # atno 10765 bound_to 10752
  140.1827  134.8464  157.2822 H   0  0  0  0  0  0  0  0  0  0  0  0  # atno 11005 bound_to 11000
  146.3483  139.9689  142.8708 LP  0  0  0  0  0  0  0  0  0  0  0  0  # atno 17320 bound_to 7965
  145.1911  140.9812  143.4210 LP  0  0  0  0  0  0  0  0  0  0  0  0  # atno 17321 bound_to 7965
  140.5402  144.0590  150.6086 LP  0  0  0  0  0  0  0  0  0  0  0  0  # atno 17342 bound_to 10162
  140.3610  143.2908  152.0383 LP  0  0  0  0  0  0  0  0  0  0  0  0  # atno 17343 bound_to 10162
  157.4156  130.7409  149.6873 LP  0  0  0  0  0  0  0  0  0  0  0  0  # atno 17370 bound_to 10713
  155.9758  130.4084  150.3822 LP  0  0  0  0  0  0  0  0  0  0  0  0  # atno 17371 bound_to 10713
  140.2249  134.3979  155.7548 LP  0  0  0  0  0  0  0  0  0  0  0  0  # atno 17394 bound_to 11000
  141.2223  133.7185  156.8548 LP  0  0  0  0  0  0  0  0  0  0  0  0  # atno 17395 bound_to 11000

$$$$
