AV-unprocessed.smi:505|AV-procd|sdf|2748|dock5
  -GOLD-   2262023213D 1   1.00000     0.00000
 Structure written by MMmdl.
 37 38  0  0  0  0  0  0  0  0  1 V2000
  152.4751  138.4252  154.9111 C   0  0  0  0  0  0  0  0  0  0  0  0
  152.1731  137.2403  155.6255 O   0  0  0  0  0  0  0  0  0  0  0  0
  150.8154  137.1791  156.0313 C   0  0  0  0  0  0  0  0  0  0  0  0
  150.7248  137.3377  157.5553 C   0  0  0  0  0  0  0  0  0  0  0  0
  151.2082  138.6403  158.0025 N   0  0  0  0  0  0  0  0  0  0  0  0
  150.8223  139.8669  157.5713 C   0  0  0  0  0  0  0  0  0  0  0  0
  149.8678  139.9924  156.5711 N   0  0  0  0  0  0  0  0  0  0  0  0
  149.2816  141.1546  155.9321 C   0  0  0  0  0  0  0  0  0  0  0  0
  149.0940  140.9397  154.4249 C   0  0  0  0  0  0  0  0  0  0  0  0
  150.1747  140.1947  153.9048 O   0  0  0  0  0  0  0  0  0  0  0  0
  151.4335  140.8935  158.1677 N   0  0  0  0  0  0  0  0  0  0  0  0
  152.2978  140.2621  159.0520 C   0  0  0  0  0  0  0  0  0  0  0  0
  152.1828  138.9120  158.9611 C   0  0  0  0  0  0  0  0  0  0  0  0
  152.9936  137.9928  159.7682 C   0  0  0  0  0  0  0  0  0  0  0  0
  152.9079  136.7689  159.6913 O   0  0  0  0  0  0  0  0  0  0  0  0
  153.8497  138.6332  160.6012 N   0  0  0  0  0  0  0  0  0  0  0  0
  154.0148  139.9840  160.7456 C   0  0  0  0  0  0  0  0  0  0  0  0
  154.8416  140.4199  161.5466 O   0  0  0  0  0  0  0  0  0  0  0  0
  153.2354  140.8085  159.9744 N   0  0  0  0  0  0  0  0  0  0  0  0
  153.3681  142.2620  160.0915 C   0  0  0  0  0  0  0  0  0  0  0  0
  154.4345  138.0471  161.1788 H   0  0  0  0  0  0  0  0  0  0  0  0
  153.5260  138.4198  154.6216 H   0  0  0  0  0  0  0  0  0  0  0  0
  152.2988  139.3102  155.5237 H   0  0  0  0  0  0  0  0  0  0  0  0
  151.8758  138.5018  154.0030 H   0  0  0  0  0  0  0  0  0  0  0  0
  150.2449  137.9713  155.5444 H   0  0  0  0  0  0  0  0  0  0  0  0
  150.3768  136.2275  155.7271 H   0  0  0  0  0  0  0  0  0  0  0  0
  149.6943  137.2020  157.8844 H   0  0  0  0  0  0  0  0  0  0  0  0
  151.2966  136.5559  158.0543 H   0  0  0  0  0  0  0  0  0  0  0  0
  149.5612  139.1168  156.1723 H   0  0  0  0  0  0  0  0  0  0  0  0
  148.3099  141.3247  156.3963 H   0  0  0  0  0  0  0  0  0  0  0  0
  149.8864  142.0399  156.1320 H   0  0  0  0  0  0  0  0  0  0  0  0
  148.1467  140.4478  154.2010 H   0  0  0  0  0  0  0  0  0  0  0  0
  149.0837  141.9040  153.9165 H   0  0  0  0  0  0  0  0  0  0  0  0
  149.9126  139.8219  153.0769 H   0  0  0  0  0  0  0  0  0  0  0  0
  153.2243  142.5799  161.1253 H   0  0  0  0  0  0  0  0  0  0  0  0
  152.6389  142.7991  159.4851 H   0  0  0  0  0  0  0  0  0  0  0  0
  154.3607  142.5808  159.7706 H   0  0  0  0  0  0  0  0  0  0  0  0
  1  2  1  0  0  0  0
  1 22  1  0  0  0  0
  1 23  1  0  0  0  0
  1 24  1  0  0  0  0
  2  3  1  0  0  0  0
  3  4  1  0  0  0  0
  3 25  1  0  0  0  0
  3 26  1  0  0  0  0
  4  5  1  0  0  0  0
  4 27  1  0  0  0  0
  4 28  1  0  0  0  0
  5 13  1  0  0  0  0
  5  6  1  0  0  0  0
  6  7  1  0  0  0  0
  6 11  2  0  0  0  0
  7  8  1  0  0  0  0
  7 29  1  0  0  0  0
  8  9  1  0  0  0  0
  8 30  1  0  0  0  0
  8 31  1  0  0  0  0
  9 10  1  0  0  0  0
  9 32  1  0  0  0  0
  9 33  1  0  0  0  0
 10 34  1  0  0  0  0
 11 12  1  0  0  0  0
 12 19  1  0  0  0  0
 12 13  2  0  0  0  0
 13 14  1  0  0  0  0
 14 15  2  0  0  0  0
 14 16  1  0  0  0  0
 16 21  1  0  0  0  0
 16 17  1  0  0  0  0
 17 18  2  0  0  0  0
 17 19  1  0  0  0  0
 19 20  1  0  0  0  0
 20 35  1  0  0  0  0
 20 36  1  0  0  0  0
 20 37  1  0  0  0  0
M  END
> <s_m_source_file>
AV-unprocessed.smi

> <i_m_source_file_index>
505

> <i_lp_mmshare_version>
43012

> <i_f3d_flags>
0

> <s_epik_input>
W09IXVtDSDJdW0NIMl1bTkhdYyhuMSluKFtDSDJdW0NIMl1PW0NIM10pYyhjMTIpYyg9TylbbkhdYyg9TyluMltDSDNd

> <s_epik_cmdline>
J2VwaWtfcHl0aG9uJywgJy1waCcsICc3LjAnLCAnLXRuJywgJzgnLCAnLW1hJywgJzIwMCcsICctbWV0YWxfYmluZGluZycsICctaW1hZScsICc8aW5maWxlLm1hZT4nLCAnLW9tYWUnLCAnPG91dGZpbGUubWFlPic=

> <r_lp_tautomer_probability>
1

> <r_epik_Ionization_Penalty>
7.89905e-05

> <r_epik_Ionization_Penalty_Charging>
2.6983e-05

> <r_epik_Ionization_Penalty_Neutral>
5.20075e-05

> <r_epik_State_Penalty>
-0

> <r_epik_Charging_Adjusted_Penalty>
2.6983e-05

> <i_epik_Tot_Q>
0

> <i_epik_Tot_abs_Q>
0

> <r_epik_Metal_State_Penalty>
0.02526

> <b_epik_Metal_Only>
0

> <s_lp_Force_Field>
OPLS_2005

> <r_lp_Energy>
22.7063

> <b_lp_Chiralities_Consistent>
1

> <s_lp_Variant>
AV-unprocessed.smi:505-1

> <Gold.Version>
5.8.1

> <Gold.Id.Protein>
6NUR|6NUR_protein|mol2

> <Gold.PLP.Fitness>
41.8422

> <Gold.PLP.PLP>
-32.1350

> <Gold.PLP.part.hbond>
-4.0000

> <Gold.PLP.part.metal>
0.0000

> <Gold.PLP.part.buried>
-6.9804

> <Gold.PLP.part.nonpolar>
-21.9133

> <Gold.PLP.part.repulsive>
0.0814

> <Gold.PLP.ligand.clash>
0.0000

> <Gold.PLP.ligand.torsion>
0.6553

> <Gold.PLP.Chemscore.Hbond>
3.6646

> <Gold.PLP.Chemscore.CHOScore>
0.0000

> <Gold.PLP.Chemscore.Metal>
0.0000

> <Gold.Chemscore.Hbonds>
donor molecule, donor type, donor heavy atom, donor atom, acceptor molecule, acceptor atom, score
      L1  H    10    34       P1  7957  0.98
      P1  H  6896  6907       L1    15  1.00
      P1  H  7989  7998       L1    10  0.86
      P1  H 10752 10764       L1     2  0.80

> <Gold.PLP.Chemscore.Internal.Correction>
0.0241

> <Gold.Rescore>
     Score         DG    S(hbond)    S(metal)    S(lipo)     H(rot)  DE(clash)    DE(int)     intcor
     11.98     -13.48       3.18        0.00      44.47       3.06       0.00       1.50       ----

> <Gold.Chemscore.Fitness>
11.9751

> <Gold.Chemscore.DG>
-13.4790

> <Gold.Chemscore.ZeroCoef>
-5.4800

> <Gold.Chemscore.Hbond>
3.1843

> <Gold.Chemscore.Metal>
0.0000

> <Gold.Chemscore.Lipo>
44.4666

> <Gold.Chemscore.Internal_Hbond>
0.0000

> <Gold.Chemscore.DEClash>
0.0038

> <Gold.Chemscore.DEInternal>
1.5002

> <Gold.Chemscore.Rot>
3.0621

> <Gold.Chemscore.Internal.Correction>
   9.000000E+99

> <Gold.Chemscore.Hbonds>
donor molecule, donor type, donor heavy atom, donor atom, acceptor molecule, acceptor atom, score
      L1  H    10    34       P1  7957  0.92
      P1  H  6896  6907       L1    15  0.95
      P1  H  7989  7998       L1    10  0.21
      P1  H 10752 10764       L1     2  0.59

> <Gold.Chemscore.Hbond.Weighted>
-10.6355

> <Gold.Chemscore.Metal.Weighted>
-0.0000

> <Gold.Chemscore.Lipo.Weighted>
-5.2026

> <Gold.Chemscore.Internal_Hbond.Weighted>
0.0000

> <Gold.Chemscore.DEClash.Weighted>
0.0038

> <Gold.Chemscore.DEInternal.Weighted>
1.5002

> <Gold.Chemscore.Rot.Weighted>
7.8390

> <Gold.Chemscore.Internal.Correction.Weighted>
   9.000000E+99

> <Gold.Protein.RotatedTorsions>
[ 6907 6896 6895 6894 ] final   41.20 input  -60.11 | X-H torsion
[ 7974 7965 7964 7962 ] final   66.71 input  175.53 | X-H torsion
[ 8008 7997 7996 7995 ] final -122.04 input   59.86 | X-H torsion
[ 10167 10162 10161 10158 ] final -168.11 input  -65.29 | X-H torsion
[ 10718 10713 10712 10709 ] final  -29.89 input   66.30 | X-H torsion
[ 10763 10752 10751 10750 ] final  -51.78 input  -60.55 | X-H torsion
[ 11005 11000 10999 10996 ] final   27.01 input  -57.11 | X-H torsion

> <Gold.Protein.ActiveResidues>
 VAL166  LYS551  ARG553  GLY616  TRP617  ASP618  TYR619  PRO620  LYS621  CYS622 
 ASP623  PHE694  ASN695  SER759  ASP760  ASP761  ALA762  ILE779  LEU786  VAL792 
 PHE793  MET794  SER795  GLU796  ALA797  LYS798  CYS799  TRP800  GLU811  SER814 

> <Gold.Protein.RotatedAtoms>
  152.1922  134.8662  160.0516 H   0  0  0  0  0  0  0  0  0  0  0  0  # atno 6907 bound_to 6896
  151.9546  133.3671  159.4021 H   0  0  0  0  0  0  0  0  0  0  0  0  # atno 6908 bound_to 6896
  150.6937  134.4228  159.5256 H   0  0  0  0  0  0  0  0  0  0  0  0  # atno 6909 bound_to 6896
  145.8234  139.3097  143.1030 H   0  0  0  0  0  0  0  0  0  0  0  0  # atno 7974 bound_to 7965
  155.1577  140.0405  157.2835 H   0  0  0  0  0  0  0  0  0  0  0  0  # atno 8008 bound_to 7997
  154.6359  140.2535  155.7352 H   0  0  0  0  0  0  0  0  0  0  0  0  # atno 8009 bound_to 7997
  156.2508  140.2866  156.0731 H   0  0  0  0  0  0  0  0  0  0  0  0  # atno 8010 bound_to 7997
  139.6006  144.1019  152.1738 H   0  0  0  0  0  0  0  0  0  0  0  0  # atno 10167 bound_to 10162
  156.4067  130.4400  149.7282 H   0  0  0  0  0  0  0  0  0  0  0  0  # atno 10718 bound_to 10713
  154.1321  135.6518  153.4924 H   0  0  0  0  0  0  0  0  0  0  0  0  # atno 10763 bound_to 10752
  153.0192  135.5295  154.6990 H   0  0  0  0  0  0  0  0  0  0  0  0  # atno 10764 bound_to 10752
  154.6228  135.2966  155.0277 H   0  0  0  0  0  0  0  0  0  0  0  0  # atno 10765 bound_to 10752
  140.3309  134.2439  155.7702 H   0  0  0  0  0  0  0  0  0  0  0  0  # atno 11005 bound_to 11000
  145.9650  140.8805  143.0191 LP  0  0  0  0  0  0  0  0  0  0  0  0  # atno 17320 bound_to 7965
  144.6745  140.1866  143.7400 LP  0  0  0  0  0  0  0  0  0  0  0  0  # atno 17321 bound_to 7965
  140.0614  144.5853  150.7260 LP  0  0  0  0  0  0  0  0  0  0  0  0  # atno 17342 bound_to 10162
  140.7246  143.2623  151.4162 LP  0  0  0  0  0  0  0  0  0  0  0  0  # atno 17343 bound_to 10162
  156.4277  130.7800  151.2819 LP  0  0  0  0  0  0  0  0  0  0  0  0  # atno 17370 bound_to 10713
  157.7506  131.0163  150.3541 LP  0  0  0  0  0  0  0  0  0  0  0  0  # atno 17371 bound_to 10713
  141.2063  133.7835  157.0182 LP  0  0  0  0  0  0  0  0  0  0  0  0  # atno 17394 bound_to 11000
  140.0861  134.9619  157.1703 LP  0  0  0  0  0  0  0  0  0  0  0  0  # atno 17395 bound_to 11000

$$$$
