AV-unprocessed.smi:2960|AV-procd|sdf|11312|dock3
  -GOLD-   2272016213D 1   1.00000     0.00000
 Structure written by MMmdl.
 49 51  0  0  0  0  0  0  0  0  2 V2000
  147.0119  141.4096  153.8463 C   0  0  0  0  0  0  0  0  0  0  0  0
  147.1036  139.9564  153.3935 C   0  0  0  0  0  0  0  0  0  0  0  0
  147.9207  139.1967  153.9132 O   0  0  0  0  0  0  0  0  0  0  0  0
  146.2572  139.5823  152.4224 N   0  0  0  0  0  0  0  0  0  0  0  0
  146.1906  138.2470  151.8406 C   0  0  0  0  0  0  0  0  0  0  0  0
  145.6408  137.2163  152.8405 C   0  0  0  0  0  0  0  0  0  0  0  0
  145.4494  135.8785  152.2015 C   0  0  0  0  0  0  0  0  0  0  0  0
  146.4372  135.1184  151.6488 N   0  3  0  0  0  0  0  0  0  0  0  0
  145.8970  133.9386  151.1360 C   0  0  0  0  0  0  0  0  0  0  0  0
  146.5006  132.8640  150.4899 C   0  0  0  0  0  0  0  0  0  0  0  0
  145.6536  131.8093  150.0901 C   0  0  0  0  0  0  0  0  0  0  0  0
  144.2655  131.8486  150.3353 C   0  0  0  0  0  0  0  0  0  0  0  0
  143.6652  132.9438  150.9910 C   0  0  0  0  0  0  0  0  0  0  0  0
  144.5098  133.9820  151.3831 C   0  0  0  0  0  0  0  0  0  0  0  0
  144.2772  135.1978  152.0360 N   0  0  0  0  0  0  0  0  0  0  0  0
  142.9021  135.5433  152.4231 C   0  0  0  0  0  0  0  0  0  0  0  0
  142.7044  135.5126  153.9445 C   0  0  0  0  0  0  0  0  0  0  0  0
  141.3159  135.3931  154.2168 O   0  0  0  0  0  0  0  0  0  0  0  0
  140.5200  136.5051  154.0418 C   0  0  0  0  0  0  0  0  0  0  0  0
  141.1675  137.7074  153.6904 C   0  0  0  0  0  0  0  0  0  0  0  0
  140.4319  138.8908  153.4884 C   0  0  0  0  0  0  0  0  0  0  0  0
  139.0314  138.8867  153.6362 C   0  0  0  0  0  0  0  0  0  0  0  0
  138.2443  140.1621  153.4151 C   0  0  0  0  0  0  0  0  0  0  0  0
  138.3732  137.6917  153.9888 C   0  0  0  0  0  0  0  0  0  0  0  0
  139.1099  136.5084  154.1915 C   0  0  0  0  0  0  0  0  0  0  0  0
  146.0097  141.6320  154.2145 H   0  0  0  0  0  0  0  0  0  0  0  0
  147.2323  142.0816  153.0163 H   0  0  0  0  0  0  0  0  0  0  0  0
  147.7229  141.6121  154.6484 H   0  0  0  0  0  0  0  0  0  0  0  0
  145.6216  140.2751  152.0530 H   0  0  0  0  0  0  0  0  0  0  0  0
  145.5470  138.2975  150.9633 H   0  0  0  0  0  0  0  0  0  0  0  0
  147.1781  137.9474  151.4848 H   0  0  0  0  0  0  0  0  0  0  0  0
  146.3253  137.1029  153.6821 H   0  0  0  0  0  0  0  0  0  0  0  0
  144.6939  137.5577  153.2590 H   0  0  0  0  0  0  0  0  0  0  0  0
  147.5634  132.8316  150.3005 H   0  0  0  0  0  0  0  0  0  0  0  0
  146.0770  130.9530  149.5853 H   0  0  0  0  0  0  0  0  0  0  0  0
  143.6480  131.0223  150.0138 H   0  0  0  0  0  0  0  0  0  0  0  0
  142.6008  132.9655  151.1734 H   0  0  0  0  0  0  0  0  0  0  0  0
  142.6618  136.5261  152.0161 H   0  0  0  0  0  0  0  0  0  0  0  0
  142.2249  134.8370  151.9434 H   0  0  0  0  0  0  0  0  0  0  0  0
  143.2464  134.6671  154.3694 H   0  0  0  0  0  0  0  0  0  0  0  0
  143.0953  136.4266  154.3939 H   0  0  0  0  0  0  0  0  0  0  0  0
  142.2412  137.7224  153.5736 H   0  0  0  0  0  0  0  0  0  0  0  0
  140.9460  139.8020  153.2190 H   0  0  0  0  0  0  0  0  0  0  0  0
  137.1742  139.9977  153.5454 H   0  0  0  0  0  0  0  0  0  0  0  0
  138.4100  140.5380  152.4052 H   0  0  0  0  0  0  0  0  0  0  0  0
  138.5600  140.9286  154.1235 H   0  0  0  0  0  0  0  0  0  0  0  0
  137.2993  137.6762  154.1051 H   0  0  0  0  0  0  0  0  0  0  0  0
  138.5671  135.6152  154.4604 H   0  0  0  0  0  0  0  0  0  0  0  0
  147.4117  135.3907  151.6267 H   0  0  0  0  0  0  0  0  0  0  0  0
  1  2  1  0  0  0  0
  1 26  1  0  0  0  0
  1 27  1  0  0  0  0
  1 28  1  0  0  0  0
  2  3  2  0  0  0  0
  2  4  1  0  0  0  0
  4  5  1  0  0  0  0
  4 29  1  0  0  0  0
  5  6  1  0  0  0  0
  5 30  1  0  0  0  0
  5 31  1  0  0  0  0
  6  7  1  0  0  0  0
  6 32  1  0  0  0  0
  6 33  1  0  0  0  0
  7 15  1  0  0  0  0
  7  8  2  0  0  0  0
  8  9  1  0  0  0  0
  8 49  1  0  0  0  0
  9 14  2  0  0  0  0
  9 10  1  0  0  0  0
 10 11  2  0  0  0  0
 10 34  1  0  0  0  0
 11 12  1  0  0  0  0
 11 35  1  0  0  0  0
 12 13  2  0  0  0  0
 12 36  1  0  0  0  0
 13 14  1  0  0  0  0
 13 37  1  0  0  0  0
 14 15  1  0  0  0  0
 15 16  1  0  0  0  0
 16 17  1  0  0  0  0
 16 38  1  0  0  0  0
 16 39  1  0  0  0  0
 17 18  1  0  0  0  0
 17 40  1  0  0  0  0
 17 41  1  0  0  0  0
 18 19  1  0  0  0  0
 19 25  1  0  0  0  0
 19 20  2  0  0  0  0
 20 21  1  0  0  0  0
 20 42  1  0  0  0  0
 21 22  2  0  0  0  0
 21 43  1  0  0  0  0
 22 23  1  0  0  0  0
 22 24  1  0  0  0  0
 23 44  1  0  0  0  0
 23 45  1  0  0  0  0
 23 46  1  0  0  0  0
 24 25  2  0  0  0  0
 24 47  1  0  0  0  0
 25 48  1  0  0  0  0
M  CHG  1   8   1
M  END
> <s_m_source_file>
AV-unprocessed.smi

> <i_m_source_file_index>
2960

> <i_lp_mmshare_version>
43012

> <i_f3d_flags>
0

> <s_epik_input>
W0NIM11DKD1PKVtOSF1bQ0gyXVtDSDJdYyhuMSluKGMoYzEyKVtjSF1bY0hdW2NIXVtjSF0yKVtDSDJdW0NIMl1PYzNbY0hdW2NIXWMoW0NIM10pW2NIXVtjSF0z

> <s_epik_cmdline>
J2VwaWtfcHl0aG9uJywgJy1waCcsICc3LjAnLCAnLXRuJywgJzgnLCAnLW1hJywgJzIwMCcsICctbWV0YWxfYmluZGluZycsICctaW1hZScsICc8aW5maWxlLm1hZT4nLCAnLW9tYWUnLCAnPG91dGZpbGUubWFlPic=

> <r_lp_tautomer_probability>
1

> <r_epik_Ionization_Penalty>
1.10884

> <r_epik_Ionization_Penalty_Charging>
1.10884

> <r_epik_Ionization_Penalty_Neutral>
3.05925e-07

> <r_epik_State_Penalty>
1.16664

> <r_epik_Charging_Adjusted_Penalty>
2.27548

> <i_epik_Tot_Q>
1

> <i_epik_Tot_abs_Q>
1

> <r_epik_Metal_State_Penalty>
1.2527

> <b_epik_Metal_Only>
0

> <s_lp_Force_Field>
OPLS_2005

> <r_lp_Energy>
19.8643

> <b_lp_Chiralities_Consistent>
1

> <s_lp_Variant>
AV-unprocessed.smi:2960-2

> <Gold.Version>
5.8.1

> <Gold.Id.Protein>
6NUR|6NUR_protein|mol2

> <Gold.PLP.Fitness>
60.0396

> <Gold.PLP.PLP>
-53.5041

> <Gold.PLP.part.hbond>
-3.0000

> <Gold.PLP.part.metal>
0.0000

> <Gold.PLP.part.buried>
-5.9501

> <Gold.PLP.part.nonpolar>
-47.0507

> <Gold.PLP.part.repulsive>
0.3923

> <Gold.PLP.ligand.clash>
2.1077

> <Gold.PLP.ligand.torsion>
0.3027

> <Gold.PLP.Chemscore.Hbond>
3.0596

> <Gold.PLP.Chemscore.CHOScore>
0.0000

> <Gold.PLP.Chemscore.Metal>
0.0000

> <Gold.Chemscore.Hbonds>
donor molecule, donor type, donor heavy atom, donor atom, acceptor molecule, acceptor atom, score
      L1  H     4    29       P1 10175  0.56
      L1  H     8    49       P1  7948  2.00
      P1  H 11000 11005       L1    18  0.70

> <Gold.PLP.Chemscore.Internal.Correction>
0.0700

> <Gold.Rescore>
     Score         DG    S(hbond)    S(metal)    S(lipo)     H(rot)  DE(clash)    DE(int)     intcor
     20.17     -20.75       1.63        0.00     131.70       2.18       0.09       0.48       ----

> <Gold.Chemscore.Fitness>
20.1734

> <Gold.Chemscore.DG>
-20.7482

> <Gold.Chemscore.ZeroCoef>
-5.4800

> <Gold.Chemscore.Hbond>
1.6284

> <Gold.Chemscore.Metal>
0.0000

> <Gold.Chemscore.Lipo>
131.6977

> <Gold.Chemscore.Internal_Hbond>
0.0000

> <Gold.Chemscore.DEClash>
0.0917

> <Gold.Chemscore.DEInternal>
0.4832

> <Gold.Chemscore.Rot>
2.1793

> <Gold.Chemscore.Internal.Correction>
   9.000000E+99

> <Gold.Chemscore.Hbonds>
donor molecule, donor type, donor heavy atom, donor atom, acceptor molecule, acceptor atom, score
      L1  H     4    29       P1 10175  0.19
      L1  H     8    49       P1  7948  0.96
      P1  H 11000 11005       L1    18  0.27

> <Gold.Chemscore.Hbond.Weighted>
-5.4387

> <Gold.Chemscore.Metal.Weighted>
-0.0000

> <Gold.Chemscore.Lipo.Weighted>
-15.4086

> <Gold.Chemscore.Internal_Hbond.Weighted>
0.0000

> <Gold.Chemscore.DEClash.Weighted>
0.0917

> <Gold.Chemscore.DEInternal.Weighted>
0.4832

> <Gold.Chemscore.Rot.Weighted>
5.5791

> <Gold.Chemscore.Internal.Correction.Weighted>
   9.000000E+99

> <Gold.Protein.RotatedTorsions>
[ 6907 6896 6895 6894 ] final   19.28 input  -60.11 | X-H torsion
[ 7974 7965 7964 7962 ] final  -93.27 input  175.53 | X-H torsion
[ 8008 7997 7996 7995 ] final  -17.95 input   59.86 | X-H torsion
[ 10167 10162 10161 10158 ] final -123.91 input  -65.29 | X-H torsion
[ 10718 10713 10712 10709 ] final   46.18 input   66.30 | X-H torsion
[ 10763 10752 10751 10750 ] final -159.60 input  -60.55 | X-H torsion
[ 11005 11000 10999 10996 ] final   31.11 input  -57.11 | X-H torsion

> <Gold.Protein.ActiveResidues>
 VAL166  LYS551  ARG553  GLY616  TRP617  ASP618  TYR619  PRO620  LYS621  CYS622 
 ASP623  PHE694  ASN695  SER759  ASP760  ASP761  ALA762  ILE779  LEU786  VAL792 
 PHE793  MET794  SER795  GLU796  ALA797  LYS798  CYS799  TRP800  GLU811  SER814 

> <Gold.Protein.RotatedAtoms>
  151.8784  135.0463  160.0486 H   0  0  0  0  0  0  0  0  0  0  0  0  # atno 6907 bound_to 6896
  152.2532  133.5229  159.5346 H   0  0  0  0  0  0  0  0  0  0  0  0  # atno 6908 bound_to 6896
  150.7091  134.0847  159.3953 H   0  0  0  0  0  0  0  0  0  0  0  0  # atno 6909 bound_to 6896
  145.3887  140.9526  143.2353 H   0  0  0  0  0  0  0  0  0  0  0  0  # atno 7974 bound_to 7965
  154.4941  140.2129  155.9485 H   0  0  0  0  0  0  0  0  0  0  0  0  # atno 8008 bound_to 7997
  156.1346  140.3191  155.8369 H   0  0  0  0  0  0  0  0  0  0  0  0  # atno 8009 bound_to 7997
  155.4233  140.0498  157.3015 H   0  0  0  0  0  0  0  0  0  0  0  0  # atno 8010 bound_to 7997
  139.9985  143.5566  152.2313 H   0  0  0  0  0  0  0  0  0  0  0  0  # atno 10167 bound_to 10162
  157.4454  130.8106  149.7735 H   0  0  0  0  0  0  0  0  0  0  0  0  # atno 10718 bound_to 10713
  154.7461  135.3080  154.8642 H   0  0  0  0  0  0  0  0  0  0  0  0  # atno 10763 bound_to 10752
  153.9443  135.6771  153.4748 H   0  0  0  0  0  0  0  0  0  0  0  0  # atno 10764 bound_to 10752
  153.1057  135.4890  154.8874 H   0  0  0  0  0  0  0  0  0  0  0  0  # atno 10765 bound_to 10752
  140.2873  134.2905  155.7785 H   0  0  0  0  0  0  0  0  0  0  0  0  # atno 11005 bound_to 11000
  144.8456  139.5403  143.6880 LP  0  0  0  0  0  0  0  0  0  0  0  0  # atno 17320 bound_to 7965
  146.2808  139.6872  142.9230 LP  0  0  0  0  0  0  0  0  0  0  0  0  # atno 17321 bound_to 7965
  139.6289  144.7641  151.2579 LP  0  0  0  0  0  0  0  0  0  0  0  0  # atno 17342 bound_to 10162
  140.7428  143.6515  150.8244 LP  0  0  0  0  0  0  0  0  0  0  0  0  # atno 17343 bound_to 10162
  155.9965  130.3905  150.2776 LP  0  0  0  0  0  0  0  0  0  0  0  0  # atno 17370 bound_to 10713
  157.0944  131.0178  151.3109 LP  0  0  0  0  0  0  0  0  0  0  0  0  # atno 17371 bound_to 10713
  141.2152  133.7563  156.9571 LP  0  0  0  0  0  0  0  0  0  0  0  0  # atno 17394 bound_to 11000
  140.1228  134.9406  157.2227 LP  0  0  0  0  0  0  0  0  0  0  0  0  # atno 17395 bound_to 11000

$$$$
