AV-unprocessed.smi:261|AV-procd|sdf|1988|dock6
  -GOLD-   2262021173D 1   1.00000     0.00000
 Structure written by MMmdl.
 51 54  0  0  0  0  0  0  0  0  1 V2000
  147.0195  136.9119  162.7583 C   0  0  0  0  0  0  0  0  0  0  0  0
  147.5550  135.6022  162.8560 O   0  0  0  0  0  0  0  0  0  0  0  0
  147.0597  134.7120  161.8665 C   0  0  2  0  0  0  0  0  0  0  0  0
  147.6222  133.2924  161.9856 C   0  0  0  0  0  0  0  0  0  0  0  0
  147.5055  132.7157  160.5646 C   0  0  1  0  0  0  0  0  0  0  0  0
  146.1661  131.9881  160.3507 C   0  0  0  0  0  0  0  0  0  0  0  0
  146.2317  130.7030  159.9950 N   0  0  0  0  0  0  0  0  0  0  0  0
  145.0921  132.5653  160.5151 O   0  0  0  0  0  0  0  0  0  0  0  0
  147.6296  133.8992  159.7097 N   0  0  0  0  0  0  0  0  0  0  0  0
  148.0384  133.8507  158.4116 C   0  0  0  0  0  0  0  0  0  0  0  0
  149.3305  134.1677  158.1295 N   0  0  0  0  0  0  0  0  0  0  0  0
  149.7858  134.1338  156.8748 C   0  0  0  0  0  0  0  0  0  0  0  0
  149.1296  133.8154  155.7593 N   0  0  0  0  0  0  0  0  0  0  0  0
  147.8317  133.4967  156.0269 C   0  0  0  0  0  0  0  0  0  0  0  0
  147.2071  133.4867  157.3085 C   0  0  0  0  0  0  0  0  0  0  0  0
  145.8758  133.1062  157.1680 N   0  0  0  0  0  0  0  0  0  0  0  0
  145.7243  132.9067  155.8881 C   0  0  0  0  0  0  0  0  0  0  0  0
  146.8488  133.1248  155.1277 N   0  0  0  0  0  0  0  0  0  0  0  0
  146.9665  132.9872  153.6873 C   0  0  0  0  0  0  0  0  0  0  0  0
  145.8474  133.7166  152.9135 C   0  0  1  0  0  0  0  0  0  0  0  0
  146.2485  135.0643  152.7688 O   0  0  0  0  0  0  0  0  0  0  0  0
  145.5465  133.1260  151.5179 C   0  0  2  0  0  0  0  0  0  0  0  0
  144.4789  133.8828  150.7253 C   0  0  0  0  0  0  0  0  0  0  0  0
  143.9660  132.8466  149.7393 C   0  0  0  0  0  0  0  0  0  0  0  0
  144.3976  131.5115  150.3507 C   0  0  0  0  0  0  0  0  0  0  0  0
  144.9478  131.8422  151.6178 O   0  0  0  0  0  0  0  0  0  0  0  0
  147.5249  135.1359  160.4727 C   0  0  0  0  0  0  0  0  0  0  0  0
  145.9683  134.6843  161.8830 H   0  0  0  0  0  0  0  0  0  0  0  0
  148.3295  132.0210  160.3917 H   0  0  0  0  0  0  0  0  0  0  0  0
  147.4744  137.5484  163.5171 H   0  0  0  0  0  0  0  0  0  0  0  0
  145.9416  136.9174  162.9227 H   0  0  0  0  0  0  0  0  0  0  0  0
  147.2277  137.3525  161.7826 H   0  0  0  0  0  0  0  0  0  0  0  0
  148.6743  133.3372  162.2710 H   0  0  0  0  0  0  0  0  0  0  0  0
  147.1063  132.6967  162.7399 H   0  0  0  0  0  0  0  0  0  0  0  0
  145.3829  130.1769  159.8476 H   0  0  0  0  0  0  0  0  0  0  0  0
  147.1322  130.2611  159.8807 H   0  0  0  0  0  0  0  0  0  0  0  0
  150.8245  134.4002  156.7466 H   0  0  0  0  0  0  0  0  0  0  0  0
  144.7803  132.6009  155.4613 H   0  0  0  0  0  0  0  0  0  0  0  0
  147.9430  133.3726  153.3909 H   0  0  0  0  0  0  0  0  0  0  0  0
  146.9640  131.9240  153.4422 H   0  0  0  0  0  0  0  0  0  0  0  0
  144.9332  133.7119  153.5081 H   0  0  0  0  0  0  0  0  0  0  0  0
  147.1622  135.0814  152.5288 H   0  0  0  0  0  0  0  0  0  0  0  0
  146.4626  133.0499  150.9288 H   0  0  0  0  0  0  0  0  0  0  0  0
  143.6680  134.1895  151.3875 H   0  0  0  0  0  0  0  0  0  0  0  0
  144.8684  134.7754  150.2351 H   0  0  0  0  0  0  0  0  0  0  0  0
  142.8837  132.9136  149.6223 H   0  0  0  0  0  0  0  0  0  0  0  0
  144.4197  132.9787  148.7564 H   0  0  0  0  0  0  0  0  0  0  0  0
  143.5677  130.8131  150.4601 H   0  0  0  0  0  0  0  0  0  0  0  0
  145.1646  131.0371  149.7374 H   0  0  0  0  0  0  0  0  0  0  0  0
  146.8196  135.8365  160.0249 H   0  0  0  0  0  0  0  0  0  0  0  0
  148.5071  135.6088  160.5194 H   0  0  0  0  0  0  0  0  0  0  0  0
  1  2  1  0  0  0  0
  1 30  1  0  0  0  0
  1 31  1  0  0  0  0
  1 32  1  0  0  0  0
  2  3  1  0  0  0  0
  3 28  1  0  0  0  0
  3 27  1  0  0  0  0
  3  4  1  0  0  0  0
  4  5  1  0  0  0  0
  4 33  1  0  0  0  0
  4 34  1  0  0  0  0
  5 29  1  0  0  0  0
  5  6  1  0  0  0  0
  5  9  1  0  0  0  0
  6  7  1  0  0  0  0
  6  8  2  0  0  0  0
  7 35  1  0  0  0  0
  7 36  1  0  0  0  0
  9 10  1  0  0  0  0
  9 27  1  0  0  0  0
 10 15  1  0  0  0  0
 10 11  2  0  0  0  0
 11 12  1  0  0  0  0
 12 13  2  0  0  0  0
 12 37  1  0  0  0  0
 13 14  1  0  0  0  0
 14 18  1  0  0  0  0
 14 15  2  0  0  0  0
 15 16  1  0  0  0  0
 16 17  2  0  0  0  0
 17 18  1  0  0  0  0
 17 38  1  0  0  0  0
 18 19  1  0  0  0  0
 19 20  1  0  0  0  0
 19 39  1  0  0  0  0
 19 40  1  0  0  0  0
 20 21  1  0  0  0  0
 20 22  1  0  0  0  0
 20 41  1  0  0  0  0
 21 42  1  0  0  0  0
 22 26  1  0  0  0  0
 22 23  1  0  0  0  0
 22 43  1  0  0  0  0
 23 24  1  0  0  0  0
 23 44  1  0  0  0  0
 23 45  1  0  0  0  0
 24 25  1  0  0  0  0
 24 46  1  0  0  0  0
 24 47  1  0  0  0  0
 25 26  1  0  0  0  0
 25 48  1  0  0  0  0
 25 49  1  0  0  0  0
 27 50  1  0  0  0  0
 27 51  1  0  0  0  0
M  END
> <s_m_source_file>
AV-unprocessed.smi

> <i_m_source_file_index>
261

> <i_lp_mmshare_version>
43012

> <i_f3d_flags>
0

> <s_epik_input>
W0NIM11PW0NASF0xW0NIMl1bQ0BASF0oQyg9TylbTkgyXSlOKFtDSDJdMSljKG5bY0hdbjIpYyhjMjMpbltjSF1uM1tDSDJdW0NASF0oW09IXSlbQ0BASF00W0NIMl1bQ0gyXVtDSDJdTzQ=

> <s_epik_cmdline>
J2VwaWtfcHl0aG9uJywgJy1waCcsICc3LjAnLCAnLXRuJywgJzgnLCAnLW1hJywgJzIwMCcsICctbWV0YWxfYmluZGluZycsICctaW1hZScsICc8aW5maWxlLm1hZT4nLCAnLW9tYWUnLCAnPG91dGZpbGUubWFlPic=

> <r_lp_tautomer_probability>
1

> <r_epik_Ionization_Penalty>
0.000713824

> <r_epik_Ionization_Penalty_Charging>
0

> <r_epik_Ionization_Penalty_Neutral>
0.000713824

> <r_epik_State_Penalty>
0.000402132

> <r_epik_Charging_Adjusted_Penalty>
0.000402132

> <i_epik_Tot_Q>
0

> <i_epik_Tot_abs_Q>
0

> <r_epik_Metal_State_Penalty>
-0

> <b_epik_Metal_Only>
0

> <s_lp_Force_Field>
OPLS_2005

> <r_lp_Energy>
43.323

> <b_lp_Chiralities_Consistent>
1

> <s_lp_Variant>
AV-unprocessed.smi:261-6

> <Gold.Version>
5.8.1

> <Gold.Id.Protein>
6NUR|6NUR_protein|mol2

> <Gold.PLP.Fitness>
39.9085

> <Gold.PLP.PLP>
-34.4012

> <Gold.PLP.part.hbond>
-2.0000

> <Gold.PLP.part.metal>
0.0000

> <Gold.PLP.part.buried>
-5.8960

> <Gold.PLP.part.nonpolar>
-26.9403

> <Gold.PLP.part.repulsive>
0.1942

> <Gold.PLP.ligand.clash>
0.0000

> <Gold.PLP.ligand.torsion>
1.8138

> <Gold.PLP.Chemscore.Hbond>
2.0000

> <Gold.PLP.Chemscore.CHOScore>
1.0000

> <Gold.PLP.Chemscore.Metal>
0.0000

> <Gold.Chemscore.Hbonds>
donor molecule, donor type, donor heavy atom, donor atom, acceptor molecule, acceptor atom, score
      L1  H    21    42       P1  7948  0.57
      P1  H  6896  6909       L1    11  1.00
      L1  C    17    38       P1 10957  1.00

> <Gold.PLP.Chemscore.Internal.Correction>
0.1348

> <Gold.Rescore>
     Score         DG    S(hbond)    S(metal)    S(lipo)     H(rot)  DE(clash)    DE(int)     intcor
     10.94     -12.83       1.89        0.00      78.41       3.18       0.01       1.88       ----

> <Gold.Chemscore.Fitness>
10.9447

> <Gold.Chemscore.DG>
-12.8270

> <Gold.Chemscore.ZeroCoef>
-5.4800

> <Gold.Chemscore.Hbond>
1.8925

> <Gold.Chemscore.Metal>
0.0000

> <Gold.Chemscore.Lipo>
78.4148

> <Gold.Chemscore.Internal_Hbond>
0.0000

> <Gold.Chemscore.DEClash>
0.0071

> <Gold.Chemscore.DEInternal>
1.8751

> <Gold.Chemscore.Rot>
3.1831

> <Gold.Chemscore.Internal.Correction>
   9.000000E+99

> <Gold.Chemscore.Hbonds>
donor molecule, donor type, donor heavy atom, donor atom, acceptor molecule, acceptor atom, score
      L1  H    21    42       P1  7948  0.53
      P1  H  6896  6909       L1    11  0.85

> <Gold.Chemscore.Hbond.Weighted>
-6.3211

> <Gold.Chemscore.Metal.Weighted>
-0.0000

> <Gold.Chemscore.Lipo.Weighted>
-9.1745

> <Gold.Chemscore.Internal_Hbond.Weighted>
0.0000

> <Gold.Chemscore.DEClash.Weighted>
0.0071

> <Gold.Chemscore.DEInternal.Weighted>
1.8751

> <Gold.Chemscore.Rot.Weighted>
8.1486

> <Gold.Chemscore.Internal.Correction.Weighted>
   9.000000E+99

> <Gold.Protein.RotatedTorsions>
[ 6907 6896 6895 6894 ] final   22.24 input  -60.11 | X-H torsion
[ 7974 7965 7964 7962 ] final   50.53 input  175.53 | X-H torsion
[ 8008 7997 7996 7995 ] final   10.88 input   59.86 | X-H torsion
[ 10167 10162 10161 10158 ] final  -15.14 input  -65.29 | X-H torsion
[ 10718 10713 10712 10709 ] final -131.32 input   66.30 | X-H torsion
[ 10763 10752 10751 10750 ] final   78.27 input  -60.55 | X-H torsion
[ 11005 11000 10999 10996 ] final -172.30 input  -57.11 | X-H torsion

> <Gold.Protein.ActiveResidues>
 VAL166  LYS551  ARG553  GLY616  TRP617  ASP618  TYR619  PRO620  LYS621  CYS622 
 ASP623  PHE694  ASN695  SER759  ASP760  ASP761  ALA762  ILE779  LEU786  VAL792 
 PHE793  MET794  SER795  GLU796  ALA797  LYS798  CYS799  TRP800  GLU811  SER814 

> <Gold.Protein.RotatedAtoms>
  151.9240  135.0285  160.0523 H   0  0  0  0  0  0  0  0  0  0  0  0  # atno 6907 bound_to 6896
  152.2175  133.4953  159.5152 H   0  0  0  0  0  0  0  0  0  0  0  0  # atno 6908 bound_to 6896
  150.6991  134.1303  159.4110 H   0  0  0  0  0  0  0  0  0  0  0  0  # atno 6909 bound_to 6896
  146.0003  139.4432  143.0019 H   0  0  0  0  0  0  0  0  0  0  0  0  # atno 7974 bound_to 7965
  154.7994  140.2849  155.5932 H   0  0  0  0  0  0  0  0  0  0  0  0  # atno 8008 bound_to 7997
  156.2975  140.2589  156.2788 H   0  0  0  0  0  0  0  0  0  0  0  0  # atno 8009 bound_to 7997
  154.9576  140.0378  157.2164 H   0  0  0  0  0  0  0  0  0  0  0  0  # atno 8010 bound_to 7997
  140.7213  143.5249  150.9589 H   0  0  0  0  0  0  0  0  0  0  0  0  # atno 10167 bound_to 10162
  156.2232  130.6991  151.0779 H   0  0  0  0  0  0  0  0  0  0  0  0  # atno 10718 bound_to 10713
  153.0861  135.4883  154.8600 H   0  0  0  0  0  0  0  0  0  0  0  0  # atno 10763 bound_to 10752
  154.7212  135.3040  154.9046 H   0  0  0  0  0  0  0  0  0  0  0  0  # atno 10764 bound_to 10752
  153.9710  135.6801  153.4800 H   0  0  0  0  0  0  0  0  0  0  0  0  # atno 10765 bound_to 10752
  140.4985  134.5916  157.4979 H   0  0  0  0  0  0  0  0  0  0  0  0  # atno 11005 bound_to 11000
  145.7498  140.9977  143.1256 LP  0  0  0  0  0  0  0  0  0  0  0  0  # atno 17320 bound_to 7965
  144.6917  139.9200  143.7467 LP  0  0  0  0  0  0  0  0  0  0  0  0  # atno 17321 bound_to 7965
  139.8968  143.6885  152.3137 LP  0  0  0  0  0  0  0  0  0  0  0  0  # atno 17342 bound_to 10162
  139.7221  144.7600  151.0939 LP  0  0  0  0  0  0  0  0  0  0  0  0  # atno 17343 bound_to 10162
  157.7098  131.0739  150.6542 LP  0  0  0  0  0  0  0  0  0  0  0  0  # atno 17370 bound_to 10713
  156.6606  130.4511  149.5689 LP  0  0  0  0  0  0  0  0  0  0  0  0  # atno 17371 bound_to 10713
  139.9727  134.7266  156.0009 LP  0  0  0  0  0  0  0  0  0  0  0  0  # atno 17394 bound_to 11000
  141.1448  133.6558  156.3834 LP  0  0  0  0  0  0  0  0  0  0  0  0  # atno 17395 bound_to 11000

$$$$
