AV-unprocessed.smi:3234|AV-procd|sdf|12351|dock7
  -GOLD-   2272018213D 1   1.00000     0.00000
 Structure written by MMmdl.
 37 39  0  0  0  0  0  0  0  0  2 V2000
  146.6410  137.0857  153.5362 O   0  0  0  0  0  0  0  0  0  0  0  0
  146.1852  137.7499  152.6055 C   0  0  0  0  0  0  0  0  0  0  0  0
  146.3661  139.0698  152.4259 N   0  0  0  0  0  0  0  0  0  0  0  0
  147.0601  139.9901  153.2570 C   0  0  0  0  0  0  0  0  0  0  0  0
  148.1806  139.5165  153.9705 C   0  0  0  0  0  0  0  0  0  0  0  0
  148.8938  140.4150  154.7888 C   0  0  0  0  0  0  0  0  0  0  0  0
  148.5669  141.7178  154.9203 N   0  0  0  0  0  0  0  0  0  0  0  0
  147.5040  142.1730  154.2238 C   0  0  0  0  0  0  0  0  0  0  0  0
  146.7226  141.3594  153.3791 C   0  0  0  0  0  0  0  0  0  0  0  0
  145.4523  137.2207  151.6156 N   0  0  0  0  0  0  0  0  0  0  0  0
  145.0833  135.8128  151.5157 C   0  0  1  0  0  0  0  0  0  0  0  0
  144.0466  135.3774  152.5426 C   0  0  0  0  0  0  0  0  0  0  0  0
  143.4847  134.0922  151.9235 C   0  0  0  0  0  0  0  0  0  0  0  0
  143.6381  134.2225  150.4526 N   0  3  2  0  0  0  0  0  0  0  0  0
  144.2333  133.0293  149.8127 C   0  0  0  0  0  0  0  0  0  0  0  0
  143.9170  131.7392  150.5306 C   0  0  0  0  0  0  0  0  0  0  0  0
  145.2925  132.3580  150.6539 C   0  0  0  0  0  0  0  0  0  0  0  0
  144.3913  135.4693  150.1942 C   0  0  0  0  0  0  0  0  0  0  0  0
  146.0058  139.4550  151.5651 H   0  0  0  0  0  0  0  0  0  0  0  0
  148.4880  138.4832  153.9011 H   0  0  0  0  0  0  0  0  0  0  0  0
  149.7514  140.0775  155.3516 H   0  0  0  0  0  0  0  0  0  0  0  0
  147.2711  143.2212  154.3385 H   0  0  0  0  0  0  0  0  0  0  0  0
  145.8987  141.8001  152.8393 H   0  0  0  0  0  0  0  0  0  0  0  0
  145.1197  137.8350  150.8863 H   0  0  0  0  0  0  0  0  0  0  0  0
  145.9739  135.1911  151.6312 H   0  0  0  0  0  0  0  0  0  0  0  0
  144.4692  135.2187  153.5352 H   0  0  0  0  0  0  0  0  0  0  0  0
  143.2567  136.1258  152.6262 H   0  0  0  0  0  0  0  0  0  0  0  0
  144.0545  133.2353  152.2874 H   0  0  0  0  0  0  0  0  0  0  0  0
  142.4414  133.9298  152.1950 H   0  0  0  0  0  0  0  0  0  0  0  0
  144.3208  133.0522  148.7276 H   0  0  0  0  0  0  0  0  0  0  0  0
  143.2669  131.7809  151.4028 H   0  0  0  0  0  0  0  0  0  0  0  0
  143.8278  130.8380  149.9274 H   0  0  0  0  0  0  0  0  0  0  0  0
  146.1094  131.8643  150.1317 H   0  0  0  0  0  0  0  0  0  0  0  0
  145.5565  132.8103  151.6083 H   0  0  0  0  0  0  0  0  0  0  0  0
  143.6729  136.2463  149.9281 H   0  0  0  0  0  0  0  0  0  0  0  0
  145.0945  135.3749  149.3649 H   0  0  0  0  0  0  0  0  0  0  0  0
  142.7179  134.3449  150.0544 H   0  0  0  0  0  0  0  0  0  0  0  0
  1  2  2  0  0  0  0
  2  3  1  0  0  0  0
  2 10  1  0  0  0  0
  3  4  1  0  0  0  0
  3 19  1  0  0  0  0
  4  9  1  0  0  0  0
  4  5  2  0  0  0  0
  5  6  1  0  0  0  0
  5 20  1  0  0  0  0
  6  7  2  0  0  0  0
  6 21  1  0  0  0  0
  7  8  1  0  0  0  0
  8  9  2  0  0  0  0
  8 22  1  0  0  0  0
  9 23  1  0  0  0  0
 10 11  1  0  0  0  0
 10 24  1  0  0  0  0
 11 18  1  0  0  0  0
 11 12  1  0  0  0  0
 11 25  1  0  0  0  0
 12 13  1  0  0  0  0
 12 26  1  0  0  0  0
 12 27  1  0  0  0  0
 13 14  1  0  0  0  0
 13 28  1  0  0  0  0
 13 29  1  0  0  0  0
 14 15  1  0  0  0  0
 14 18  1  0  0  0  0
 14 37  1  0  0  0  0
 15 17  1  0  0  0  0
 15 16  1  0  0  0  0
 15 30  1  0  0  0  0
 16 17  1  0  0  0  0
 16 31  1  0  0  0  0
 16 32  1  0  0  0  0
 17 33  1  0  0  0  0
 17 34  1  0  0  0  0
 18 35  1  0  0  0  0
 18 36  1  0  0  0  0
M  CHG  1  14   1
M  END
> <s_m_source_file>
AV-unprocessed.smi

> <i_m_source_file_index>
3234

> <i_lp_mmshare_version>
43012

> <i_f3d_flags>
0

> <s_epik_input>
W2NIXTFbY0hdbltjSF1bY0hdYzFbTkhdQyg9TylbTkhdW0NAQEhdMltDSDJdW0NIMl1OKFtDSDJdMilbQ0hdM1tDSDJdW0NIMl0z

> <s_epik_cmdline>
J2VwaWtfcHl0aG9uJywgJy1waCcsICc3LjAnLCAnLXRuJywgJzgnLCAnLW1hJywgJzIwMCcsICctbWV0YWxfYmluZGluZycsICctaW1hZScsICc8aW5maWxlLm1hZT4nLCAnLW9tYWUnLCAnPG91dGZpbGUubWFlPic=

> <r_epik_Ionization_Penalty>
0.0934328

> <r_epik_Ionization_Penalty_Charging>
0.000606352

> <r_epik_Ionization_Penalty_Neutral>
0.0928265

> <r_epik_State_Penalty>
0.0830811

> <r_epik_Charging_Adjusted_Penalty>
0.0836875

> <i_epik_Tot_Q>
1

> <i_epik_Tot_abs_Q>
1

> <r_epik_Metal_State_Penalty>
0.0724491

> <b_epik_Metal_Only>
0

> <s_lp_Force_Field>
OPLS_2005

> <r_lp_Energy>
41.5008

> <b_lp_Chiralities_Consistent>
1

> <s_lp_Variant>
AV-unprocessed.smi:3234-4

> <Gold.Version>
5.8.1

> <Gold.Id.Protein>
6NUR|6NUR_protein|mol2

> <Gold.PLP.Fitness>
45.7777

> <Gold.PLP.PLP>
-34.8291

> <Gold.PLP.part.hbond>
-2.8387

> <Gold.PLP.part.metal>
0.0000

> <Gold.PLP.part.buried>
-4.1016

> <Gold.PLP.part.nonpolar>
-28.6839

> <Gold.PLP.part.repulsive>
1.3840

> <Gold.PLP.ligand.clash>
0.0000

> <Gold.PLP.ligand.torsion>
0.9177

> <Gold.PLP.Chemscore.Hbond>
3.0000

> <Gold.PLP.Chemscore.CHOScore>
0.8394

> <Gold.PLP.Chemscore.Metal>
0.0000

> <Gold.Chemscore.Hbonds>
donor molecule, donor type, donor heavy atom, donor atom, acceptor molecule, acceptor atom, score
      L1  H    10    24       P1 10171  1.00
      L1  H    14    37       P1 10186  2.00
      L1  C     8    22       P1  8028  0.81

> <Gold.PLP.Chemscore.Internal.Correction>
1.2658

> <Gold.Rescore>
     Score         DG    S(hbond)    S(metal)    S(lipo)     H(rot)  DE(clash)    DE(int)     intcor
     16.12     -18.90       1.95        0.00      85.58       1.21       0.69       2.09       ----

> <Gold.Chemscore.Fitness>
16.1210

> <Gold.Chemscore.DG>
-18.9038

> <Gold.Chemscore.ZeroCoef>
-5.4800

> <Gold.Chemscore.Hbond>
1.9493

> <Gold.Chemscore.Metal>
0.0000

> <Gold.Chemscore.Lipo>
85.5781

> <Gold.Chemscore.Internal_Hbond>
0.0000

> <Gold.Chemscore.DEClash>
0.6900

> <Gold.Chemscore.DEInternal>
2.0929

> <Gold.Chemscore.Rot>
1.2108

> <Gold.Chemscore.Internal.Correction>
   9.000000E+99

> <Gold.Chemscore.Hbonds>
donor molecule, donor type, donor heavy atom, donor atom, acceptor molecule, acceptor atom, score
      L1  H    10    24       P1 10171  0.99
      L1  H    14    37       P1 10186  0.91

> <Gold.Chemscore.Hbond.Weighted>
-6.5108

> <Gold.Chemscore.Metal.Weighted>
-0.0000

> <Gold.Chemscore.Lipo.Weighted>
-10.0126

> <Gold.Chemscore.Internal_Hbond.Weighted>
0.0000

> <Gold.Chemscore.DEClash.Weighted>
0.6900

> <Gold.Chemscore.DEInternal.Weighted>
2.0929

> <Gold.Chemscore.Rot.Weighted>
3.0996

> <Gold.Chemscore.Internal.Correction.Weighted>
   9.000000E+99

> <Gold.Protein.RotatedTorsions>
[ 6907 6896 6895 6894 ] final  -42.96 input  -60.11 | X-H torsion
[ 7974 7965 7964 7962 ] final  135.77 input  175.53 | X-H torsion
[ 8008 7997 7996 7995 ] final -134.66 input   59.86 | X-H torsion
[ 10167 10162 10161 10158 ] final  -46.34 input  -65.29 | X-H torsion
[ 10718 10713 10712 10709 ] final -141.43 input   66.30 | X-H torsion
[ 10763 10752 10751 10750 ] final -103.00 input  -60.55 | X-H torsion
[ 11005 11000 10999 10996 ] final  -87.97 input  -57.11 | X-H torsion

> <Gold.Protein.ActiveResidues>
 VAL166  LYS551  ARG553  GLY616  TRP617  ASP618  TYR619  PRO620  LYS621  CYS622 
 ASP623  PHE694  ASN695  SER759  ASP760  ASP761  ALA762  ILE779  LEU786  VAL792 
 PHE793  MET794  SER795  GLU796  ALA797  LYS798  CYS799  TRP800  GLU811  SER814 

> <Gold.Protein.RotatedAtoms>
  150.9493  134.8894  159.7661 H   0  0  0  0  0  0  0  0  0  0  0  0  # atno 6907 bound_to 6896
  152.5113  134.3830  159.9367 H   0  0  0  0  0  0  0  0  0  0  0  0  # atno 6908 bound_to 6896
  151.3847  133.3769  159.2749 H   0  0  0  0  0  0  0  0  0  0  0  0  # atno 6909 bound_to 6896
  144.9630  139.4689  143.5470 H   0  0  0  0  0  0  0  0  0  0  0  0  # atno 7974 bound_to 7965
  155.3657  140.0485  157.3046 H   0  0  0  0  0  0  0  0  0  0  0  0  # atno 8008 bound_to 7997
  154.5155  140.2207  155.9037 H   0  0  0  0  0  0  0  0  0  0  0  0  # atno 8009 bound_to 7997
  156.1632  140.3112  155.8848 H   0  0  0  0  0  0  0  0  0  0  0  0  # atno 8010 bound_to 7997
  140.6821  143.2835  151.3769 H   0  0  0  0  0  0  0  0  0  0  0  0  # atno 10167 bound_to 10162
  156.3339  130.7601  151.1724 H   0  0  0  0  0  0  0  0  0  0  0  0  # atno 10718 bound_to 10713
  154.7776  135.4839  153.9776 H   0  0  0  0  0  0  0  0  0  0  0  0  # atno 10763 bound_to 10752
  153.1449  135.6780  153.8977 H   0  0  0  0  0  0  0  0  0  0  0  0  # atno 10764 bound_to 10752
  153.8640  135.3152  155.3417 H   0  0  0  0  0  0  0  0  0  0  0  0  # atno 10765 bound_to 10752
  141.1609  133.7542  156.9383 H   0  0  0  0  0  0  0  0  0  0  0  0  # atno 11005 bound_to 11000
  146.3359  139.8793  142.8827 LP  0  0  0  0  0  0  0  0  0  0  0  0  # atno 17320 bound_to 7965
  145.2671  141.0096  143.3793 LP  0  0  0  0  0  0  0  0  0  0  0  0  # atno 17321 bound_to 7965
  139.6151  144.1019  152.2338 LP  0  0  0  0  0  0  0  0  0  0  0  0  # atno 17342 bound_to 10162
  140.0445  144.5981  150.7384 LP  0  0  0  0  0  0  0  0  0  0  0  0  # atno 17343 bound_to 10162
  157.7435  131.0473  150.4939 LP  0  0  0  0  0  0  0  0  0  0  0  0  # atno 17370 bound_to 10713
  156.5109  130.4139  149.6301 LP  0  0  0  0  0  0  0  0  0  0  0  0  # atno 17371 bound_to 10713
  140.1339  134.9338  157.2375 LP  0  0  0  0  0  0  0  0  0  0  0  0  # atno 17394 bound_to 11000
  140.2919  134.3230  155.7313 LP  0  0  0  0  0  0  0  0  0  0  0  0  # atno 17395 bound_to 11000

$$$$
