AV-unprocessed.smi:496|AV-procd|sdf|2720|dock2
  -GOLD-   2262023163D 1   1.00000     0.00000
 Structure written by MMmdl.
 41 43  0  0  0  0  0  0  0  0  2 V2000
  151.7963  137.9115  154.6236 C   0  0  0  0  0  0  0  0  0  0  0  0
  151.5650  139.2874  154.8651 O   0  0  0  0  0  0  0  0  0  0  0  0
  152.1948  139.7450  156.0511 C   0  0  0  0  0  0  0  0  0  0  0  0
  151.1543  140.4032  156.9702 C   0  0  0  0  0  0  0  0  0  0  0  0
  151.7396  140.8732  158.2290 N   0  0  0  0  0  0  0  0  0  0  0  0
  152.2839  140.1729  159.2723 C   0  0  0  0  0  0  0  0  0  0  0  0
  152.3966  138.6584  159.3267 C   0  0  2  0  0  0  0  0  0  0  0  0
  151.0147  137.9909  159.3869 C   0  0  0  0  0  0  0  0  0  0  0  0
  153.2063  138.2019  160.4584 N   0  5  0  0  0  0  0  0  0  0  0  0
  153.3733  136.8918  160.7965 C   0  0  0  0  0  0  0  0  0  0  0  0
  153.4450  135.8922  160.0729 O   0  0  0  0  0  0  0  0  0  0  0  0
  153.4344  136.7010  162.2634 C   0  0  0  0  0  0  0  0  0  0  0  0
  153.1271  137.5334  163.3098 C   0  0  0  0  0  0  0  0  0  0  0  0
  153.4125  136.8158  164.5041 C   0  0  0  0  0  0  0  0  0  0  0  0
  153.8846  135.5989  164.1053 C   0  0  0  0  0  0  0  0  0  0  0  0
  153.9116  135.5161  162.7475 O   0  0  0  0  0  0  0  0  0  0  0  0
  152.7492  140.9249  160.2759 N   0  0  0  0  0  0  0  0  0  0  0  0
  152.4726  142.2115  159.8649 C   0  0  0  0  0  0  0  0  0  0  0  0
  152.7169  143.4495  160.5014 C   0  0  0  0  0  0  0  0  0  0  0  0
  152.3355  144.6579  159.8829 C   0  0  0  0  0  0  0  0  0  0  0  0
  151.7055  144.6444  158.6220 C   0  0  0  0  0  0  0  0  0  0  0  0
  151.4550  143.4209  157.9713 C   0  0  0  0  0  0  0  0  0  0  0  0
  151.8388  142.2160  158.5923 C   0  0  0  0  0  0  0  0  0  0  0  0
  151.2938  137.6120  153.7040 H   0  0  0  0  0  0  0  0  0  0  0  0
  151.4046  137.2978  155.4358 H   0  0  0  0  0  0  0  0  0  0  0  0
  152.8610  137.7047  154.5093 H   0  0  0  0  0  0  0  0  0  0  0  0
  152.6736  138.9099  156.5639 H   0  0  0  0  0  0  0  0  0  0  0  0
  152.9767  140.4644  155.8042 H   0  0  0  0  0  0  0  0  0  0  0  0
  150.6500  141.2260  156.4631 H   0  0  0  0  0  0  0  0  0  0  0  0
  150.3683  139.6843  157.2006 H   0  0  0  0  0  0  0  0  0  0  0  0
  152.8417  138.3232  158.3901 H   0  0  0  0  0  0  0  0  0  0  0  0
  150.4065  138.2814  158.5299 H   0  0  0  0  0  0  0  0  0  0  0  0
  150.4713  138.2720  160.2898 H   0  0  0  0  0  0  0  0  0  0  0  0
  151.1004  136.9039  159.3755 H   0  0  0  0  0  0  0  0  0  0  0  0
  152.7419  138.5390  163.2244 H   0  0  0  0  0  0  0  0  0  0  0  0
  153.2911  137.1494  165.5239 H   0  0  0  0  0  0  0  0  0  0  0  0
  154.2320  134.7200  164.6281 H   0  0  0  0  0  0  0  0  0  0  0  0
  153.1979  143.4672  161.4680 H   0  0  0  0  0  0  0  0  0  0  0  0
  152.5260  145.5984  160.3785 H   0  0  0  0  0  0  0  0  0  0  0  0
  151.4143  145.5734  158.1543 H   0  0  0  0  0  0  0  0  0  0  0  0
  150.9697  143.4097  157.0070 H   0  0  0  0  0  0  0  0  0  0  0  0
  1  2  1  0  0  0  0
  1 24  1  0  0  0  0
  1 25  1  0  0  0  0
  1 26  1  0  0  0  0
  2  3  1  0  0  0  0
  3  4  1  0  0  0  0
  3 27  1  0  0  0  0
  3 28  1  0  0  0  0
  4  5  1  0  0  0  0
  4 29  1  0  0  0  0
  4 30  1  0  0  0  0
  5 23  1  0  0  0  0
  5  6  1  0  0  0  0
  6  7  1  0  0  0  0
  6 17  2  0  0  0  0
  7  8  1  0  0  0  0
  7  9  1  0  0  0  0
  7 31  1  0  0  0  0
  8 32  1  0  0  0  0
  8 33  1  0  0  0  0
  8 34  1  0  0  0  0
  9 10  1  0  0  0  0
 10 11  2  0  0  0  0
 10 12  1  0  0  0  0
 12 16  1  0  0  0  0
 12 13  2  0  0  0  0
 13 14  1  0  0  0  0
 13 35  1  0  0  0  0
 14 15  2  0  0  0  0
 14 36  1  0  0  0  0
 15 16  1  0  0  0  0
 15 37  1  0  0  0  0
 17 18  1  0  0  0  0
 18 23  2  0  0  0  0
 18 19  1  0  0  0  0
 19 20  2  0  0  0  0
 19 38  1  0  0  0  0
 20 21  1  0  0  0  0
 20 39  1  0  0  0  0
 21 22  2  0  0  0  0
 21 40  1  0  0  0  0
 22 23  1  0  0  0  0
 22 41  1  0  0  0  0
M  CHG  1   9  -1
M  END
> <s_m_source_file>
AV-unprocessed.smi

> <i_m_source_file_index>
496

> <i_lp_mmshare_version>
43012

> <i_f3d_flags>
0

> <s_epik_input>
W2NIXTFbY0hdW2NIXVtjSF1jKGMxMiluKFtDSDJdW0NIMl1PW0NIM10pYyhuMilbQ0BIXShbQ0gzXSlbTkhdQyg9TyljM1tjSF1bY0hdW2NIXW8z

> <s_epik_cmdline>
J2VwaWtfcHl0aG9uJywgJy1waCcsICc3LjAnLCAnLXRuJywgJzgnLCAnLW1hJywgJzIwMCcsICctbWV0YWxfYmluZGluZycsICctaW1hZScsICc8aW5maWxlLm1hZT4nLCAnLW9tYWUnLCAnPG91dGZpbGUubWFlPic=

> <r_epik_Ionization_Penalty>
7.3423

> <r_epik_Ionization_Penalty_Charging>
6.43826

> <r_epik_Ionization_Penalty_Neutral>
0.90404

> <r_epik_State_Penalty>
6.54438

> <r_epik_Charging_Adjusted_Penalty>
12.9826

> <i_epik_Tot_Q>
-1

> <i_epik_Tot_abs_Q>
1

> <r_epik_Metal_State_Penalty>
2.56942

> <b_epik_Metal_Only>
1

> <s_lp_Force_Field>
OPLS_2005

> <r_lp_Energy>
15.948

> <b_lp_Chiralities_Consistent>
1

> <s_lp_Variant>
AV-unprocessed.smi:496-5

> <Gold.Version>
5.8.1

> <Gold.Id.Protein>
6NUR|6NUR_protein|mol2

> <Gold.PLP.Fitness>
56.3037

> <Gold.PLP.PLP>
-51.9479

> <Gold.PLP.part.hbond>
-2.0000

> <Gold.PLP.part.metal>
0.0000

> <Gold.PLP.part.buried>
-6.8886

> <Gold.PLP.part.nonpolar>
-42.6403

> <Gold.PLP.part.repulsive>
0.0698

> <Gold.PLP.ligand.clash>
0.0000

> <Gold.PLP.ligand.torsion>
0.9255

> <Gold.PLP.Chemscore.Hbond>
2.0000

> <Gold.PLP.Chemscore.CHOScore>
0.0000

> <Gold.PLP.Chemscore.Metal>
0.0000

> <Gold.Chemscore.Hbonds>
donor molecule, donor type, donor heavy atom, donor atom, acceptor molecule, acceptor atom, score
      P1  H  6896  6908       L1    11  1.00
      P1  H  7989  7998       L1     2  0.86

> <Gold.PLP.Chemscore.Internal.Correction>
0.2069

> <Gold.Rescore>
     Score         DG    S(hbond)    S(metal)    S(lipo)     H(rot)  DE(clash)    DE(int)     intcor
     20.01     -21.91       1.88        0.00     125.87       1.78       0.01       1.89       ----

> <Gold.Chemscore.Fitness>
20.0133

> <Gold.Chemscore.DG>
-21.9134

> <Gold.Chemscore.ZeroCoef>
-5.4800

> <Gold.Chemscore.Hbond>
1.8767

> <Gold.Chemscore.Metal>
0.0000

> <Gold.Chemscore.Lipo>
125.8700

> <Gold.Chemscore.Internal_Hbond>
0.0000

> <Gold.Chemscore.DEClash>
0.0089

> <Gold.Chemscore.DEInternal>
1.8912

> <Gold.Chemscore.Rot>
1.7819

> <Gold.Chemscore.Internal.Correction>
   9.000000E+99

> <Gold.Chemscore.Hbonds>
donor molecule, donor type, donor heavy atom, donor atom, acceptor molecule, acceptor atom, score
      P1  H  6896  6908       L1    11  0.93
      P1  H  7989  7998       L1     2  0.50

> <Gold.Chemscore.Hbond.Weighted>
-6.2682

> <Gold.Chemscore.Metal.Weighted>
-0.0000

> <Gold.Chemscore.Lipo.Weighted>
-14.7268

> <Gold.Chemscore.Internal_Hbond.Weighted>
0.0000

> <Gold.Chemscore.DEClash.Weighted>
0.0089

> <Gold.Chemscore.DEInternal.Weighted>
1.8912

> <Gold.Chemscore.Rot.Weighted>
4.5617

> <Gold.Chemscore.Internal.Correction.Weighted>
   9.000000E+99

> <Gold.Protein.RotatedTorsions>
[ 6907 6896 6895 6894 ] final  -72.60 input  -60.11 | X-H torsion
[ 7974 7965 7964 7962 ] final  -68.37 input  175.53 | X-H torsion
[ 8008 7997 7996 7995 ] final  137.12 input   59.86 | X-H torsion
[ 10167 10162 10161 10158 ] final -140.58 input  -65.29 | X-H torsion
[ 10718 10713 10712 10709 ] final -176.05 input   66.30 | X-H torsion
[ 10763 10752 10751 10750 ] final  -40.10 input  -60.55 | X-H torsion
[ 11005 11000 10999 10996 ] final  161.01 input  -57.11 | X-H torsion

> <Gold.Protein.ActiveResidues>
 VAL166  LYS551  ARG553  GLY616  TRP617  ASP618  TYR619  PRO620  LYS621  CYS622 
 ASP623  PHE694  ASN695  SER759  ASP760  ASP761  ALA762  ILE779  LEU786  VAL792 
 PHE793  MET794  SER795  GLU796  ALA797  LYS798  CYS799  TRP800  GLU811  SER814 

> <Gold.Protein.RotatedAtoms>
  150.7163  134.5140  159.5620 H   0  0  0  0  0  0  0  0  0  0  0  0  # atno 6907 bound_to 6896
  152.2710  134.7930  160.0423 H   0  0  0  0  0  0  0  0  0  0  0  0  # atno 6908 bound_to 6896
  151.8610  133.3422  159.3740 H   0  0  0  0  0  0  0  0  0  0  0  0  # atno 6909 bound_to 6896
  145.7174  140.9053  143.0648 H   0  0  0  0  0  0  0  0  0  0  0  0  # atno 7974 bound_to 7965
  156.3003  140.2427  156.3857 H   0  0  0  0  0  0  0  0  0  0  0  0  # atno 8008 bound_to 7997
  154.8660  140.0418  157.1714 H   0  0  0  0  0  0  0  0  0  0  0  0  # atno 8009 bound_to 7997
  154.8846  140.2954  155.5409 H   0  0  0  0  0  0  0  0  0  0  0  0  # atno 8010 bound_to 7997
  139.8267  143.7501  152.2666 H   0  0  0  0  0  0  0  0  0  0  0  0  # atno 10167 bound_to 10162
  156.8090  130.9579  151.3116 H   0  0  0  0  0  0  0  0  0  0  0  0  # atno 10718 bound_to 10713
  153.9404  135.6762  153.4744 H   0  0  0  0  0  0  0  0  0  0  0  0  # atno 10763 bound_to 10752
  153.0934  135.4863  154.8730 H   0  0  0  0  0  0  0  0  0  0  0  0  # atno 10764 bound_to 10752
  154.7380  135.3154  154.8736 H   0  0  0  0  0  0  0  0  0  0  0  0  # atno 10765 bound_to 10752
  140.2115  134.8263  157.3126 H   0  0  0  0  0  0  0  0  0  0  0  0  # atno 11005 bound_to 11000
  144.6925  139.9156  143.7465 LP  0  0  0  0  0  0  0  0  0  0  0  0  # atno 17320 bound_to 7965
  146.0657  139.3648  143.0554 LP  0  0  0  0  0  0  0  0  0  0  0  0  # atno 17321 bound_to 7965
  139.7696  144.7481  151.0244 LP  0  0  0  0  0  0  0  0  0  0  0  0  # atno 17342 bound_to 10162
  140.7809  143.4660  151.0212 LP  0  0  0  0  0  0  0  0  0  0  0  0  # atno 17343 bound_to 10162
  157.6515  130.8889  149.9644 LP  0  0  0  0  0  0  0  0  0  0  0  0  # atno 17370 bound_to 10713
  156.1056  130.3653  150.0140 LP  0  0  0  0  0  0  0  0  0  0  0  0  # atno 17371 bound_to 10713
  140.1945  134.4330  155.7697 LP  0  0  0  0  0  0  0  0  0  0  0  0  # atno 17394 bound_to 11000
  141.2226  133.7043  156.8083 LP  0  0  0  0  0  0  0  0  0  0  0  0  # atno 17395 bound_to 11000

$$$$
