AV-unprocessed.smi:674|AV-procd|sdf|3302|dock4
  -GOLD-   22720 0263D 1   1.00000     0.00000
 Structure written by MMmdl.
 47 48  0  0  0  0  0  0  0  0  1 V2000
  145.5780  128.7763  152.2110 C   0  0  0  0  0  0  0  0  0  0  0  0
  146.7338  129.2743  153.0864 C   0  0  0  0  0  0  0  0  0  0  0  0
  147.0034  130.7388  152.8846 C   0  0  0  0  0  0  0  0  0  0  0  0
  147.9115  131.5677  153.6049 C   0  0  0  0  0  0  0  0  0  0  0  0
  147.7443  132.7885  153.0099 C   0  0  0  0  0  0  0  0  0  0  0  0
  148.3580  133.9671  153.2977 N   0  0  0  0  0  0  0  0  0  0  0  0
  149.0357  134.3133  154.4059 C   0  0  0  0  0  0  0  0  0  0  0  0
  149.2617  133.5761  155.3657 O   0  0  0  0  0  0  0  0  0  0  0  0
  149.4449  135.5877  154.3443 N   0  0  0  0  0  0  0  0  0  0  0  0
  150.1859  136.2666  155.4027 C   0  0  1  0  0  0  0  0  0  0  0  0
  151.4834  136.8981  154.9019 C   0  0  0  0  0  0  0  0  0  0  0  0
  151.1958  138.0707  155.8590 C   0  0  2  0  0  0  0  0  0  0  0  0
  151.6378  139.4869  155.4684 C   0  0  0  0  0  0  0  0  0  0  0  0
  151.6457  137.7492  157.1825 O   0  0  0  0  0  0  0  0  0  0  0  0
  151.4870  138.7451  158.1855 C   0  0  0  0  0  0  0  0  0  0  0  0
  149.6827  137.6929  155.7460 C   0  0  0  0  0  0  0  0  0  0  0  0
  148.8841  138.4276  154.6523 C   0  0  0  0  0  0  0  0  0  0  0  0
  148.8483  137.8205  157.0256 C   0  0  0  0  0  0  0  0  0  0  0  0
  146.7960  132.6722  152.0163 N   0  0  0  0  0  0  0  0  0  0  0  0
  146.2662  133.6703  151.1073 C   0  0  0  0  0  0  0  0  0  0  0  0
  146.3451  131.4019  151.9400 N   0  0  0  0  0  0  0  0  0  0  0  0
  145.3956  127.7143  152.3756 H   0  0  0  0  0  0  0  0  0  0  0  0
  145.7967  128.9157  151.1519 H   0  0  0  0  0  0  0  0  0  0  0  0
  144.6556  129.3120  152.4368 H   0  0  0  0  0  0  0  0  0  0  0  0
  146.4999  129.0833  154.1341 H   0  0  0  0  0  0  0  0  0  0  0  0
  147.6320  128.6954  152.8678 H   0  0  0  0  0  0  0  0  0  0  0  0
  148.5635  131.2918  154.4196 H   0  0  0  0  0  0  0  0  0  0  0  0
  148.2793  134.6773  152.5851 H   0  0  0  0  0  0  0  0  0  0  0  0
  149.2216  136.1274  153.5210 H   0  0  0  0  0  0  0  0  0  0  0  0
  150.3537  135.6499  156.2889 H   0  0  0  0  0  0  0  0  0  0  0  0
  152.3769  136.3119  155.1150 H   0  0  0  0  0  0  0  0  0  0  0  0
  151.4501  137.1914  153.8512 H   0  0  0  0  0  0  0  0  0  0  0  0
  151.2195  139.7928  154.5103 H   0  0  0  0  0  0  0  0  0  0  0  0
  152.7195  139.5622  155.3622 H   0  0  0  0  0  0  0  0  0  0  0  0
  151.3214  140.2191  156.2116 H   0  0  0  0  0  0  0  0  0  0  0  0
  152.0149  138.4305  159.0853 H   0  0  0  0  0  0  0  0  0  0  0  0
  150.4397  138.8765  158.4574 H   0  0  0  0  0  0  0  0  0  0  0  0
  151.8943  139.7094  157.8832 H   0  0  0  0  0  0  0  0  0  0  0  0
  148.7405  139.4795  154.9013 H   0  0  0  0  0  0  0  0  0  0  0  0
  147.8933  137.9931  154.5158 H   0  0  0  0  0  0  0  0  0  0  0  0
  149.3826  138.3915  153.6836 H   0  0  0  0  0  0  0  0  0  0  0  0
  148.8051  138.8536  157.3716 H   0  0  0  0  0  0  0  0  0  0  0  0
  149.2567  137.2223  157.8404 H   0  0  0  0  0  0  0  0  0  0  0  0
  147.8236  137.4801  156.8732 H   0  0  0  0  0  0  0  0  0  0  0  0
  146.5419  134.6728  151.4341 H   0  0  0  0  0  0  0  0  0  0  0  0
  145.1783  133.6009  151.0758 H   0  0  0  0  0  0  0  0  0  0  0  0
  146.6635  133.5008  150.1062 H   0  0  0  0  0  0  0  0  0  0  0  0
  1  2  1  0  0  0  0
  1 22  1  0  0  0  0
  1 23  1  0  0  0  0
  1 24  1  0  0  0  0
  2  3  1  0  0  0  0
  2 25  1  0  0  0  0
  2 26  1  0  0  0  0
  3 21  2  0  0  0  0
  3  4  1  0  0  0  0
  4  5  2  0  0  0  0
  4 27  1  0  0  0  0
  5  6  1  0  0  0  0
  5 19  1  0  0  0  0
  6  7  1  0  0  0  0
  6 28  1  0  0  0  0
  7  8  2  0  0  0  0
  7  9  1  0  0  0  0
  9 10  1  0  0  0  0
  9 29  1  0  0  0  0
 10 16  1  0  0  0  0
 10 11  1  0  0  0  0
 10 30  1  0  0  0  0
 11 12  1  0  0  0  0
 11 31  1  0  0  0  0
 11 32  1  0  0  0  0
 12 13  1  0  0  0  0
 12 14  1  0  0  0  0
 12 16  1  0  0  0  0
 13 33  1  0  0  0  0
 13 34  1  0  0  0  0
 13 35  1  0  0  0  0
 14 15  1  0  0  0  0
 15 36  1  0  0  0  0
 15 37  1  0  0  0  0
 15 38  1  0  0  0  0
 16 17  1  0  0  0  0
 16 18  1  0  0  0  0
 17 39  1  0  0  0  0
 17 40  1  0  0  0  0
 17 41  1  0  0  0  0
 18 42  1  0  0  0  0
 18 43  1  0  0  0  0
 18 44  1  0  0  0  0
 19 20  1  0  0  0  0
 19 21  1  0  0  0  0
 20 45  1  0  0  0  0
 20 46  1  0  0  0  0
 20 47  1  0  0  0  0
M  END
> <s_m_source_file>
AV-unprocessed.smi

> <i_m_source_file_index>
674

> <i_lp_mmshare_version>
43012

> <i_f3d_flags>
0

> <s_epik_input>
W0NIM11bQ0gyXWMxW2NIXWMobihuMSlbQ0gzXSlbTkhdQyg9TylbTkhdW0NAQEhdKEMyKFtDSDNdKVtDSDNdKVtDSDJdW0NAQF0yKFtDSDNdKU9bQ0gzXQ==

> <s_epik_cmdline>
J2VwaWtfcHl0aG9uJywgJy1waCcsICc3LjAnLCAnLXRuJywgJzgnLCAnLW1hJywgJzIwMCcsICctbWV0YWxfYmluZGluZycsICctaW1hZScsICc8aW5maWxlLm1hZT4nLCAnLW9tYWUnLCAnPG91dGZpbGUubWFlPic=

> <r_lp_tautomer_probability>
1

> <r_epik_Ionization_Penalty>
0.000101626

> <r_epik_Ionization_Penalty_Charging>
0

> <r_epik_Ionization_Penalty_Neutral>
0.000101626

> <r_epik_State_Penalty>
-0

> <r_epik_Charging_Adjusted_Penalty>
0

> <i_epik_Tot_Q>
0

> <i_epik_Tot_abs_Q>
0

> <r_epik_Metal_State_Penalty>
-0

> <b_epik_Metal_Only>
0

> <s_lp_Force_Field>
OPLS_2005

> <r_lp_Energy>
22.7899

> <b_lp_Chiralities_Consistent>
1

> <s_lp_Variant>
AV-unprocessed.smi:674-4

> <Gold.Version>
5.8.1

> <Gold.Id.Protein>
6NUR|6NUR_protein|mol2

> <Gold.PLP.Fitness>
34.3807

> <Gold.PLP.PLP>
-29.0224

> <Gold.PLP.part.hbond>
-2.0000

> <Gold.PLP.part.metal>
0.0000

> <Gold.PLP.part.buried>
-1.9000

> <Gold.PLP.part.nonpolar>
-25.2433

> <Gold.PLP.part.repulsive>
0.1894

> <Gold.PLP.ligand.clash>
0.0000

> <Gold.PLP.ligand.torsion>
0.4391

> <Gold.PLP.Chemscore.Hbond>
1.9520

> <Gold.PLP.Chemscore.CHOScore>
0.0000

> <Gold.PLP.Chemscore.Metal>
0.0000

> <Gold.Chemscore.Hbonds>
donor molecule, donor type, donor heavy atom, donor atom, acceptor molecule, acceptor atom, score
      L1  H     6    28       P1  7948  0.94
      L1  H     9    29       P1  7948  0.99

> <Gold.PLP.Chemscore.Internal.Correction>
0.3806

> <Gold.Rescore>
     Score         DG    S(hbond)    S(metal)    S(lipo)     H(rot)  DE(clash)    DE(int)     intcor
     13.11     -14.63       1.55        0.00      63.84       1.37       0.05       1.47       ----

> <Gold.Chemscore.Fitness>
13.1133

> <Gold.Chemscore.DG>
-14.6340

> <Gold.Chemscore.ZeroCoef>
-5.4800

> <Gold.Chemscore.Hbond>
1.5514

> <Gold.Chemscore.Metal>
0.0000

> <Gold.Chemscore.Lipo>
63.8357

> <Gold.Chemscore.Internal_Hbond>
0.0000

> <Gold.Chemscore.DEClash>
0.0515

> <Gold.Chemscore.DEInternal>
1.4691

> <Gold.Chemscore.Rot>
1.3658

> <Gold.Chemscore.Internal.Correction>
   9.000000E+99

> <Gold.Chemscore.Hbonds>
donor molecule, donor type, donor heavy atom, donor atom, acceptor molecule, acceptor atom, score
      L1  H     6    28       P1  7948  0.32
      L1  H     9    29       P1  7948  0.80

> <Gold.Chemscore.Hbond.Weighted>
-5.1815

> <Gold.Chemscore.Metal.Weighted>
-0.0000

> <Gold.Chemscore.Lipo.Weighted>
-7.4688

> <Gold.Chemscore.Internal_Hbond.Weighted>
0.0000

> <Gold.Chemscore.DEClash.Weighted>
0.0515

> <Gold.Chemscore.DEInternal.Weighted>
1.4691

> <Gold.Chemscore.Rot.Weighted>
3.4963

> <Gold.Chemscore.Internal.Correction.Weighted>
   9.000000E+99

> <Gold.Protein.RotatedTorsions>
[ 6907 6896 6895 6894 ] final   19.66 input  -60.11 | X-H torsion
[ 7974 7965 7964 7962 ] final   40.47 input  175.53 | X-H torsion
[ 8008 7997 7996 7995 ] final   84.07 input   59.86 | X-H torsion
[ 10167 10162 10161 10158 ] final   84.16 input  -65.29 | X-H torsion
[ 10718 10713 10712 10709 ] final  -68.21 input   66.30 | X-H torsion
[ 10763 10752 10751 10750 ] final -117.70 input  -60.55 | X-H torsion
[ 11005 11000 10999 10996 ] final -141.04 input  -57.11 | X-H torsion

> <Gold.Protein.ActiveResidues>
 VAL166  LYS551  ARG553  GLY616  TRP617  ASP618  TYR619  PRO620  LYS621  CYS622 
 ASP623  PHE694  ASN695  SER759  ASP760  ASP761  ALA762  ILE779  LEU786  VAL792 
 PHE793  MET794  SER795  GLU796  ALA797  LYS798  CYS799  TRP800  GLU811  SER814 

> <Gold.Protein.RotatedAtoms>
  151.8843  135.0441  160.0491 H   0  0  0  0  0  0  0  0  0  0  0  0  # atno 6907 bound_to 6896
  152.2488  133.5192  159.5321 H   0  0  0  0  0  0  0  0  0  0  0  0  # atno 6908 bound_to 6896
  150.7077  134.0905  159.3972 H   0  0  0  0  0  0  0  0  0  0  0  0  # atno 6909 bound_to 6896
  146.0902  139.5529  142.9480 H   0  0  0  0  0  0  0  0  0  0  0  0  # atno 7974 bound_to 7965
  155.9322  140.3414  155.6259 H   0  0  0  0  0  0  0  0  0  0  0  0  # atno 8008 bound_to 7997
  155.7143  140.0775  157.2376 H   0  0  0  0  0  0  0  0  0  0  0  0  # atno 8009 bound_to 7997
  154.4087  140.1617  156.2318 H   0  0  0  0  0  0  0  0  0  0  0  0  # atno 8010 bound_to 7997
  139.9109  144.6272  150.8539 H   0  0  0  0  0  0  0  0  0  0  0  0  # atno 10167 bound_to 10162
  156.0517  130.4291  150.1968 H   0  0  0  0  0  0  0  0  0  0  0  0  # atno 10718 bound_to 10713
  154.8564  135.4300  154.2022 H   0  0  0  0  0  0  0  0  0  0  0  0  # atno 10763 bound_to 10752
  153.3066  135.6973  153.7160 H   0  0  0  0  0  0  0  0  0  0  0  0  # atno 10764 bound_to 10752
  153.6269  135.3492  155.3003 H   0  0  0  0  0  0  0  0  0  0  0  0  # atno 10765 bound_to 10752
  140.8363  134.2455  157.4832 H   0  0  0  0  0  0  0  0  0  0  0  0  # atno 11005 bound_to 11000
  145.6053  141.0348  143.1996 LP  0  0  0  0  0  0  0  0  0  0  0  0  # atno 17320 bound_to 7965
  144.7355  139.7599  143.7331 LP  0  0  0  0  0  0  0  0  0  0  0  0  # atno 17321 bound_to 7965
  140.7685  143.3367  151.2295 LP  0  0  0  0  0  0  0  0  0  0  0  0  # atno 17342 bound_to 10162
  139.6944  143.9638  152.2875 LP  0  0  0  0  0  0  0  0  0  0  0  0  # atno 17343 bound_to 10162
  157.0050  130.9934  151.3381 LP  0  0  0  0  0  0  0  0  0  0  0  0  # atno 17370 bound_to 10713
  157.5449  130.8144  149.8074 LP  0  0  0  0  0  0  0  0  0  0  0  0  # atno 17371 bound_to 10713
  139.8704  134.9612  156.4390 LP  0  0  0  0  0  0  0  0  0  0  0  0  # atno 17394 bound_to 11000
  140.8943  133.7825  155.9607 LP  0  0  0  0  0  0  0  0  0  0  0  0  # atno 17395 bound_to 11000

$$$$
