AV-unprocessed.smi:3011|AV-procd|sdf|11457|dock8
  -GOLD-   2272016393D 1   1.00000     0.00000
 Structure written by MMmdl.
 46 48  0  0  0  0  0  0  0  0  1 V2000
  155.1336  133.1605  160.3526 C   0  0  0  0  0  0  0  0  0  0  0  0
  154.9947  134.5730  160.3495 O   0  0  0  0  0  0  0  0  0  0  0  0
  154.4446  135.1804  161.4598 C   0  0  0  0  0  0  0  0  0  0  0  0
  154.0893  134.4856  162.6436 C   0  0  0  0  0  0  0  0  0  0  0  0
  153.5265  135.1747  163.7335 C   0  0  0  0  0  0  0  0  0  0  0  0
  153.3133  136.5617  163.6544 C   0  0  0  0  0  0  0  0  0  0  0  0
  153.6629  137.2611  162.4851 C   0  0  0  0  0  0  0  0  0  0  0  0
  154.2292  136.5752  161.3819 C   0  0  0  0  0  0  0  0  0  0  0  0
  154.5989  137.1917  160.2072 O   0  0  0  0  0  0  0  0  0  0  0  0
  154.2237  138.5451  159.9936 C   0  0  0  0  0  0  0  0  0  0  0  0
  152.8490  138.5578  159.3110 C   0  0  0  0  0  0  0  0  0  0  0  0
  152.4728  139.8988  158.8823 N   0  0  0  0  0  0  0  0  0  0  0  0
  152.0088  140.3075  157.6721 C   0  0  0  0  0  0  0  0  0  0  0  0
  151.8073  139.3636  156.5125 C   0  0  2  0  0  0  0  0  0  0  0  0
  151.3163  140.0921  155.2539 C   0  0  0  0  0  0  0  0  0  0  0  0
  150.8509  138.3358  156.9112 N   0  0  0  0  0  0  0  0  0  0  0  0
  150.5821  137.2399  156.1904 C   0  0  0  0  0  0  0  0  0  0  0  0
  151.1222  136.9925  155.1152 O   0  0  0  0  0  0  0  0  0  0  0  0
  151.7455  141.6131  157.5694 N   0  0  0  0  0  0  0  0  0  0  0  0
  152.0926  142.0978  158.8140 C   0  0  0  0  0  0  0  0  0  0  0  0
  152.0589  143.4135  159.3290 C   0  0  0  0  0  0  0  0  0  0  0  0
  152.4813  143.6742  160.6489 C   0  0  0  0  0  0  0  0  0  0  0  0
  152.9414  142.6252  161.4707 C   0  0  0  0  0  0  0  0  0  0  0  0
  152.9787  141.3067  160.9779 C   0  0  0  0  0  0  0  0  0  0  0  0
  152.5551  141.0514  159.6595 C   0  0  0  0  0  0  0  0  0  0  0  0
  155.5623  132.8412  159.4028 H   0  0  0  0  0  0  0  0  0  0  0  0
  154.1686  132.6638  160.4616 H   0  0  0  0  0  0  0  0  0  0  0  0
  155.8045  132.8286  161.1460 H   0  0  0  0  0  0  0  0  0  0  0  0
  154.2384  133.4211  162.7406 H   0  0  0  0  0  0  0  0  0  0  0  0
  153.2585  134.6375  164.6313 H   0  0  0  0  0  0  0  0  0  0  0  0
  152.8822  137.0906  164.4916 H   0  0  0  0  0  0  0  0  0  0  0  0
  153.4912  138.3263  162.4590 H   0  0  0  0  0  0  0  0  0  0  0  0
  154.1683  139.0797  160.9428 H   0  0  0  0  0  0  0  0  0  0  0  0
  154.9572  139.0487  159.3628 H   0  0  0  0  0  0  0  0  0  0  0  0
  152.8195  137.8746  158.4627 H   0  0  0  0  0  0  0  0  0  0  0  0
  152.0936  138.1936  160.0076 H   0  0  0  0  0  0  0  0  0  0  0  0
  152.7444  138.8740  156.2519 H   0  0  0  0  0  0  0  0  0  0  0  0
  152.0280  140.8580  154.9444 H   0  0  0  0  0  0  0  0  0  0  0  0
  150.3562  140.5807  155.4237 H   0  0  0  0  0  0  0  0  0  0  0  0
  151.1945  139.3987  154.4212 H   0  0  0  0  0  0  0  0  0  0  0  0
  150.3861  138.4544  157.7998 H   0  0  0  0  0  0  0  0  0  0  0  0
  149.8296  136.6009  156.6792 H   0  0  0  0  0  0  0  0  0  0  0  0
  151.7115  144.2240  158.7056 H   0  0  0  0  0  0  0  0  0  0  0  0
  152.4544  144.6838  161.0318 H   0  0  0  0  0  0  0  0  0  0  0  0
  153.2667  142.8328  162.4796 H   0  0  0  0  0  0  0  0  0  0  0  0
  153.3356  140.5030  161.6044 H   0  0  0  0  0  0  0  0  0  0  0  0
  1  2  1  0  0  0  0
  1 26  1  0  0  0  0
  1 27  1  0  0  0  0
  1 28  1  0  0  0  0
  2  3  1  0  0  0  0
  3  8  1  0  0  0  0
  3  4  2  0  0  0  0
  4  5  1  0  0  0  0
  4 29  1  0  0  0  0
  5  6  2  0  0  0  0
  5 30  1  0  0  0  0
  6  7  1  0  0  0  0
  6 31  1  0  0  0  0
  7  8  2  0  0  0  0
  7 32  1  0  0  0  0
  8  9  1  0  0  0  0
  9 10  1  0  0  0  0
 10 11  1  0  0  0  0
 10 33  1  0  0  0  0
 10 34  1  0  0  0  0
 11 12  1  0  0  0  0
 11 35  1  0  0  0  0
 11 36  1  0  0  0  0
 12 25  1  0  0  0  0
 12 13  1  0  0  0  0
 13 14  1  0  0  0  0
 13 19  2  0  0  0  0
 14 15  1  0  0  0  0
 14 16  1  0  0  0  0
 14 37  1  0  0  0  0
 15 38  1  0  0  0  0
 15 39  1  0  0  0  0
 15 40  1  0  0  0  0
 16 17  1  0  0  0  0
 16 41  1  0  0  0  0
 17 18  2  0  0  0  0
 17 42  1  0  0  0  0
 19 20  1  0  0  0  0
 20 25  2  0  0  0  0
 20 21  1  0  0  0  0
 21 22  2  0  0  0  0
 21 43  1  0  0  0  0
 22 23  1  0  0  0  0
 22 44  1  0  0  0  0
 23 24  2  0  0  0  0
 23 45  1  0  0  0  0
 24 25  1  0  0  0  0
 24 46  1  0  0  0  0
M  END
> <s_m_source_file>
AV-unprocessed.smi

> <i_m_source_file_index>
3011

> <i_lp_mmshare_version>
43012

> <i_f3d_flags>
0

> <s_epik_input>
W0NIM11PYzFbY0hdW2NIXVtjSF1bY0hdYzFPW0NIMl1bQ0gyXW4oYyhuMilbQ0BIXShbQ0gzXSlbTkhdW0NIXT1PKWMoYzIzKVtjSF1bY0hdW2NIXVtjSF0z

> <s_epik_cmdline>
J2VwaWtfcHl0aG9uJywgJy1waCcsICc3LjAnLCAnLXRuJywgJzgnLCAnLW1hJywgJzIwMCcsICctbWV0YWxfYmluZGluZycsICctaW1hZScsICc8aW5maWxlLm1hZT4nLCAnLW9tYWUnLCAnPG91dGZpbGUubWFlPic=

> <r_lp_tautomer_probability>
1

> <r_epik_Ionization_Penalty>
0.0924205

> <r_epik_Ionization_Penalty_Charging>
0

> <r_epik_Ionization_Penalty_Neutral>
0.0924205

> <r_epik_State_Penalty>
0.0827154

> <r_epik_Charging_Adjusted_Penalty>
0.0827154

> <i_epik_Tot_Q>
0

> <i_epik_Tot_abs_Q>
0

> <r_epik_Metal_State_Penalty>
0.071464

> <b_epik_Metal_Only>
0

> <s_lp_Force_Field>
OPLS_2005

> <r_lp_Energy>
15.3464

> <b_lp_Chiralities_Consistent>
1

> <s_lp_Variant>
AV-unprocessed.smi:3011-1

> <Gold.Version>
5.8.1

> <Gold.Id.Protein>
6NUR|6NUR_protein|mol2

> <Gold.PLP.Fitness>
48.6675

> <Gold.PLP.PLP>
-46.4820

> <Gold.PLP.part.hbond>
-1.0000

> <Gold.PLP.part.metal>
0.0000

> <Gold.PLP.part.buried>
-4.1986

> <Gold.PLP.part.nonpolar>
-41.1339

> <Gold.PLP.part.repulsive>
0.0929

> <Gold.PLP.ligand.clash>
0.0000

> <Gold.PLP.ligand.torsion>
0.4912

> <Gold.PLP.Chemscore.Hbond>
1.0000

> <Gold.PLP.Chemscore.CHOScore>
0.0000

> <Gold.PLP.Chemscore.Metal>
0.0000

> <Gold.Chemscore.Hbonds>
donor molecule, donor type, donor heavy atom, donor atom, acceptor molecule, acceptor atom, score
      P1  H 10752 10765       L1    18  0.21

> <Gold.PLP.Chemscore.Internal.Correction>
0.1679

> <Gold.Rescore>
     Score         DG    S(hbond)    S(metal)    S(lipo)     H(rot)  DE(clash)    DE(int)     intcor
     16.61     -18.23       1.00        0.00     137.16       2.59       0.13       1.49       ----

> <Gold.Chemscore.Fitness>
16.6115

> <Gold.Chemscore.DG>
-18.2329

> <Gold.Chemscore.ZeroCoef>
-5.4800

> <Gold.Chemscore.Hbond>
0.9998

> <Gold.Chemscore.Metal>
0.0000

> <Gold.Chemscore.Lipo>
137.1575

> <Gold.Chemscore.Internal_Hbond>
0.0000

> <Gold.Chemscore.DEClash>
0.1297

> <Gold.Chemscore.DEInternal>
1.4916

> <Gold.Chemscore.Rot>
2.5914

> <Gold.Chemscore.Internal.Correction>
   9.000000E+99

> <Gold.Chemscore.Hbonds>
donor molecule, donor type, donor heavy atom, donor atom, acceptor molecule, acceptor atom, score
      P1  H 10752 10765       L1    18  0.21

> <Gold.Chemscore.Hbond.Weighted>
-3.3395

> <Gold.Chemscore.Metal.Weighted>
-0.0000

> <Gold.Chemscore.Lipo.Weighted>
-16.0474

> <Gold.Chemscore.Internal_Hbond.Weighted>
0.0000

> <Gold.Chemscore.DEClash.Weighted>
0.1297

> <Gold.Chemscore.DEInternal.Weighted>
1.4916

> <Gold.Chemscore.Rot.Weighted>
6.6340

> <Gold.Chemscore.Internal.Correction.Weighted>
   9.000000E+99

> <Gold.Protein.RotatedTorsions>
[ 6907 6896 6895 6894 ] final   25.06 input  -60.11 | X-H torsion
[ 7974 7965 7964 7962 ] final  134.91 input  175.53 | X-H torsion
[ 8008 7997 7996 7995 ] final  123.96 input   59.86 | X-H torsion
[ 10167 10162 10161 10158 ] final  156.86 input  -65.29 | X-H torsion
[ 10718 10713 10712 10709 ] final -106.12 input   66.30 | X-H torsion
[ 10763 10752 10751 10750 ] final -178.41 input  -60.55 | X-H torsion
[ 11005 11000 10999 10996 ] final   60.25 input  -57.11 | X-H torsion

> <Gold.Protein.ActiveResidues>
 VAL166  LYS551  ARG553  GLY616  TRP617  ASP618  TYR619  PRO620  LYS621  CYS622 
 ASP623  PHE694  ASN695  SER759  ASP760  ASP761  ALA762  ILE779  LEU786  VAL792 
 PHE793  MET794  SER795  GLU796  ALA797  LYS798  CYS799  TRP800  GLU811  SER814 

> <Gold.Protein.RotatedAtoms>
  151.9668  135.0096  160.0550 H   0  0  0  0  0  0  0  0  0  0  0  0  # atno 6907 bound_to 6896
  152.1819  133.4708  159.4971 H   0  0  0  0  0  0  0  0  0  0  0  0  # atno 6908 bound_to 6896
  150.6919  134.1740  159.4266 H   0  0  0  0  0  0  0  0  0  0  0  0  # atno 6909 bound_to 6896
  144.9716  139.4599  143.5430 H   0  0  0  0  0  0  0  0  0  0  0  0  # atno 7974 bound_to 7965
  156.2784  140.2751  156.1711 H   0  0  0  0  0  0  0  0  0  0  0  0  # atno 8008 bound_to 7997
  155.0654  140.0387  157.2608 H   0  0  0  0  0  0  0  0  0  0  0  0  # atno 8009 bound_to 7997
  154.7083  140.2663  155.6658 H   0  0  0  0  0  0  0  0  0  0  0  0  # atno 8010 bound_to 7997
  139.4822  144.4971  151.8224 H   0  0  0  0  0  0  0  0  0  0  0  0  # atno 10167 bound_to 10162
  156.0376  130.5597  150.7635 H   0  0  0  0  0  0  0  0  0  0  0  0  # atno 10718 bound_to 10713
  154.5480  135.2811  155.1035 H   0  0  0  0  0  0  0  0  0  0  0  0  # atno 10763 bound_to 10752
  154.2492  135.6342  153.5238 H   0  0  0  0  0  0  0  0  0  0  0  0  # atno 10764 bound_to 10752
  152.9995  135.5578  154.6038 H   0  0  0  0  0  0  0  0  0  0  0  0  # atno 10765 bound_to 10752
  140.0245  134.6103  155.9592 H   0  0  0  0  0  0  0  0  0  0  0  0  # atno 11005 bound_to 11000
  146.3383  139.8932  142.8806 LP  0  0  0  0  0  0  0  0  0  0  0  0  # atno 17320 bound_to 7965
  145.2550  141.0057  143.3859 LP  0  0  0  0  0  0  0  0  0  0  0  0  # atno 17321 bound_to 7965
  140.4460  144.1921  150.5894 LP  0  0  0  0  0  0  0  0  0  0  0  0  # atno 17342 bound_to 10162
  140.4634  143.2440  151.9188 LP  0  0  0  0  0  0  0  0  0  0  0  0  # atno 17343 bound_to 10162
  157.5148  131.0928  151.0153 LP  0  0  0  0  0  0  0  0  0  0  0  0  # atno 17370 bound_to 10713
  157.0499  130.5783  149.5369 LP  0  0  0  0  0  0  0  0  0  0  0  0  # atno 17371 bound_to 10713
  141.1794  133.6544  156.4960 LP  0  0  0  0  0  0  0  0  0  0  0  0  # atno 17394 bound_to 11000
  140.4329  134.7085  157.4951 LP  0  0  0  0  0  0  0  0  0  0  0  0  # atno 17395 bound_to 11000

$$$$
