AV-unprocessed.smi:35|AV-procd|sdf|270|dock2
  -GOLD-   2262016 33D 1   1.00000     0.00000
 Structure written by MMmdl.
 28 29  0  0  0  0  0  0  0  0  2 V2000
  151.8850  137.0659  159.4737 O   0  0  0  0  0  0  0  0  0  0  0  0
  151.5480  137.6196  158.4286 C   0  0  0  0  0  0  0  0  0  0  0  0
  152.4464  138.1302  157.5378 N   0  5  0  0  0  0  0  0  0  0  0  0
  152.0669  138.7443  156.3789 C   0  0  0  0  0  0  0  0  0  0  0  0
  152.8686  139.2215  155.5757 O   0  0  0  0  0  0  0  0  0  0  0  0
  150.6811  138.8552  156.0787 N   0  0  0  0  0  0  0  0  0  0  0  0
  150.2666  139.5297  154.7833 C   0  0  1  0  0  0  0  0  0  0  0  0
  149.2835  138.7643  154.1455 O   0  0  0  0  0  0  0  0  0  0  0  0
  148.0232  139.4188  154.2392 C   0  0  2  0  0  0  0  0  0  0  0  0
  147.0445  138.9016  153.1699 C   0  0  0  0  0  0  0  0  0  0  0  0
  147.7154  138.7027  151.9436 O   0  0  0  0  0  0  0  0  0  0  0  0
  148.3935  140.9059  154.1869 C   0  0  2  0  0  0  0  0  0  0  0  0
  148.6271  141.3302  152.8562 O   0  0  0  0  0  0  0  0  0  0  0  0
  149.6862  140.9523  154.9913 C   0  0  1  0  0  0  0  0  0  0  0  0
  149.3930  141.2614  156.3430 O   0  0  0  0  0  0  0  0  0  0  0  0
  149.7457  138.3477  156.9660 C   0  0  0  0  0  0  0  0  0  0  0  0
  150.1283  137.7459  158.1103 C   0  0  0  0  0  0  0  0  0  0  0  0
  148.6837  137.0685  159.2855 Br  0  0  0  0  0  0  0  0  0  0  0  0
  151.1549  139.5141  154.1494 H   0  0  0  0  0  0  0  0  0  0  0  0
  147.6136  139.1987  155.2265 H   0  0  0  0  0  0  0  0  0  0  0  0
  146.5585  137.9760  153.4793 H   0  0  0  0  0  0  0  0  0  0  0  0
  146.2537  139.6345  153.0090 H   0  0  0  0  0  0  0  0  0  0  0  0
  148.4777  139.2609  151.9243 H   0  0  0  0  0  0  0  0  0  0  0  0
  147.6101  141.5367  154.6093 H   0  0  0  0  0  0  0  0  0  0  0  0
  148.8282  140.5694  152.3329 H   0  0  0  0  0  0  0  0  0  0  0  0
  150.3889  141.6967  154.6141 H   0  0  0  0  0  0  0  0  0  0  0  0
  150.0538  141.8592  156.6595 H   0  0  0  0  0  0  0  0  0  0  0  0
  148.6911  138.4266  156.7540 H   0  0  0  0  0  0  0  0  0  0  0  0
  1  2  2  0  0  0  0
  2 17  1  0  0  0  0
  2  3  1  0  0  0  0
  3  4  1  0  0  0  0
  4  5  2  0  0  0  0
  4  6  1  0  0  0  0
  6  7  1  0  0  0  0
  6 16  1  0  0  0  0
  7 14  1  0  0  0  0
  7  8  1  0  0  0  0
  7 19  1  0  0  0  0
  8  9  1  0  0  0  0
  9 10  1  0  0  0  0
  9 12  1  0  0  0  0
  9 20  1  0  0  0  0
 10 11  1  0  0  0  0
 10 21  1  0  0  0  0
 10 22  1  0  0  0  0
 11 23  1  0  0  0  0
 12 13  1  0  0  0  0
 12 14  1  0  0  0  0
 12 24  1  0  0  0  0
 13 25  1  0  0  0  0
 14 15  1  0  0  0  0
 14 26  1  0  0  0  0
 15 27  1  0  0  0  0
 16 17  2  0  0  0  0
 16 28  1  0  0  0  0
 17 18  1  0  0  0  0
M  CHG  1   3  -1
M  END
> <s_m_source_file>
AV-unprocessed.smi

> <i_m_source_file_index>
35

> <i_lp_mmshare_version>
43012

> <i_f3d_flags>
0

> <s_epik_input>
Tz1jMVtuSF1jKD1PKW4oW2NIXWMxQnIpW0NAQEhdMk9bQ0BASF0oW0NIMl1bT0hdKVtDQEBIXShbT0hdKVtDQEhdMltPSF0=

> <s_epik_cmdline>
J2VwaWtfcHl0aG9uJywgJy1waCcsICc3LjAnLCAnLXRuJywgJzgnLCAnLW1hJywgJzIwMCcsICctbWV0YWxfYmluZGluZycsICctaW1hZScsICc8aW5maWxlLm1hZT4nLCAnLW9tYWUnLCAnPG91dGZpbGUubWFlPic=

> <r_epik_Ionization_Penalty>
1.06112

> <r_epik_Ionization_Penalty_Charging>
2.1796e-09

> <r_epik_Ionization_Penalty_Neutral>
1.06112

> <r_epik_State_Penalty>
1.11484

> <r_epik_Charging_Adjusted_Penalty>
1.11484

> <i_epik_Tot_Q>
-1

> <i_epik_Tot_abs_Q>
1

> <r_epik_Metal_State_Penalty>
0.0032876

> <b_epik_Metal_Only>
0

> <s_epik_Chemistry_Notes>
This compound contains an acetal/aminal-like group ( X-CH(R)-Y where X, Y are N, S, or O) that may be acid/base labile, releasing an aldehyde.

> <s_lp_Force_Field>
OPLS_2005

> <r_lp_Energy>
42.6041

> <b_lp_Chiralities_Consistent>
1

> <s_lp_Variant>
AV-unprocessed.smi:35-24

> <Gold.Version>
5.8.1

> <Gold.Id.Protein>
6NUR|6NUR_protein|mol2

> <Gold.PLP.Fitness>
38.5882

> <Gold.PLP.PLP>
-24.3660

> <Gold.PLP.part.hbond>
-5.6875

> <Gold.PLP.part.metal>
0.0000

> <Gold.PLP.part.buried>
-1.2678

> <Gold.PLP.part.nonpolar>
-16.4304

> <Gold.PLP.part.repulsive>
0.2216

> <Gold.PLP.ligand.clash>
0.0000

> <Gold.PLP.ligand.torsion>
0.5231

> <Gold.PLP.Chemscore.Hbond>
5.0758

> <Gold.PLP.Chemscore.CHOScore>
0.0000

> <Gold.PLP.Chemscore.Metal>
0.0000

> <Gold.Chemscore.Hbonds>
donor molecule, donor type, donor heavy atom, donor atom, acceptor molecule, acceptor atom, score
      L1  H    11    23       P1  7957  1.00
      L1  H    13    25       P1  7957  0.82
      P1  H  6896  6909       L1     1  1.00
      P1  H  7954  7966       L1    11  0.24
      P1  H  7997  8009       L1     5  1.00
      P1  H  8011  8017       L1    13  0.94

> <Gold.PLP.Chemscore.Internal.Correction>
0.0411

> <Gold.Rescore>
     Score         DG    S(hbond)    S(metal)    S(lipo)     H(rot)  DE(clash)    DE(int)     intcor
     13.42     -14.21       4.22        0.00      33.41       3.63       0.01       0.79       ----

> <Gold.Chemscore.Fitness>
13.4176

> <Gold.Chemscore.DG>
-14.2142

> <Gold.Chemscore.ZeroCoef>
-5.4800

> <Gold.Chemscore.Hbond>
4.2239

> <Gold.Chemscore.Metal>
0.0000

> <Gold.Chemscore.Lipo>
33.4133

> <Gold.Chemscore.Internal_Hbond>
0.0000

> <Gold.Chemscore.DEClash>
0.0110

> <Gold.Chemscore.DEInternal>
0.7856

> <Gold.Chemscore.Rot>
3.6261

> <Gold.Chemscore.Internal.Correction>
   9.000000E+99

> <Gold.Chemscore.Hbonds>
donor molecule, donor type, donor heavy atom, donor atom, acceptor molecule, acceptor atom, score
      L1  H    11    23       P1  7957  0.90
      L1  H    13    25       P1  7957  0.78
      P1  H  6896  6909       L1     1  0.96
      P1  H  7954  7966       L1    11  0.01
      P1  H  7997  8009       L1     5  1.00
      P1  H  8011  8017       L1    13  0.27

> <Gold.Chemscore.Hbond.Weighted>
-14.1077

> <Gold.Chemscore.Metal.Weighted>
-0.0000

> <Gold.Chemscore.Lipo.Weighted>
-3.9094

> <Gold.Chemscore.Internal_Hbond.Weighted>
0.0000

> <Gold.Chemscore.DEClash.Weighted>
0.0110

> <Gold.Chemscore.DEInternal.Weighted>
0.7856

> <Gold.Chemscore.Rot.Weighted>
9.2828

> <Gold.Chemscore.Internal.Correction.Weighted>
   9.000000E+99

> <Gold.Protein.RotatedTorsions>
[ 6907 6896 6895 6894 ] final  131.37 input  -60.11 | X-H torsion
[ 7974 7965 7964 7962 ] final -109.26 input  175.53 | X-H torsion
[ 8008 7997 7996 7995 ] final -143.73 input   59.86 | X-H torsion
[ 10167 10162 10161 10158 ] final   94.37 input  -65.29 | X-H torsion
[ 10718 10713 10712 10709 ] final   15.27 input   66.30 | X-H torsion
[ 10763 10752 10751 10750 ] final  -28.25 input  -60.55 | X-H torsion
[ 11005 11000 10999 10996 ] final   94.42 input  -57.11 | X-H torsion

> <Gold.Protein.ActiveResidues>
 VAL166  LYS551  ARG553  GLY616  TRP617  ASP618  TYR619  PRO620  LYS621  CYS622 
 ASP623  PHE694  ASN695  SER759  ASP760  ASP761  ALA762  ILE779  LEU786  VAL792 
 PHE793  MET794  SER795  GLU796  ALA797  LYS798  CYS799  TRP800  GLU811  SER814 

> <Gold.Protein.RotatedAtoms>
  152.3433  133.6092  159.5891 H   0  0  0  0  0  0  0  0  0  0  0  0  # atno 6907 bound_to 6896
  150.7492  133.9688  159.3548 H   0  0  0  0  0  0  0  0  0  0  0  0  # atno 6908 bound_to 6896
  151.7550  135.0824  160.0388 H   0  0  0  0  0  0  0  0  0  0  0  0  # atno 6909 bound_to 6896
  145.1827  140.8979  143.3470 H   0  0  0  0  0  0  0  0  0  0  0  0  # atno 7974 bound_to 7965
  155.5154  140.0587  157.2916 H   0  0  0  0  0  0  0  0  0  0  0  0  # atno 8008 bound_to 7997
  154.4537  140.1962  156.0391 H   0  0  0  0  0  0  0  0  0  0  0  0  # atno 8009 bound_to 7997
  156.0755  140.3254  155.7633 H   0  0  0  0  0  0  0  0  0  0  0  0  # atno 8010 bound_to 7997
  139.8090  144.6781  150.9665 H   0  0  0  0  0  0  0  0  0  0  0  0  # atno 10167 bound_to 10162
  157.0511  130.6270  149.5768 H   0  0  0  0  0  0  0  0  0  0  0  0  # atno 10718 bound_to 10713
  153.7453  135.6930  153.4958 H   0  0  0  0  0  0  0  0  0  0  0  0  # atno 10763 bound_to 10752
  153.2041  135.4426  155.0300 H   0  0  0  0  0  0  0  0  0  0  0  0  # atno 10764 bound_to 10752
  154.8206  135.3420  154.6976 H   0  0  0  0  0  0  0  0  0  0  0  0  # atno 10765 bound_to 10752
  139.8799  134.8844  156.3862 H   0  0  0  0  0  0  0  0  0  0  0  0  # atno 11005 bound_to 11000
  145.0120  139.3501  143.6115 LP  0  0  0  0  0  0  0  0  0  0  0  0  # atno 17320 bound_to 7965
  146.3450  139.9386  142.8744 LP  0  0  0  0  0  0  0  0  0  0  0  0  # atno 17321 bound_to 7965
  140.7818  143.4204  151.0850 LP  0  0  0  0  0  0  0  0  0  0  0  0  # atno 17342 bound_to 10162
  139.7872  143.8271  152.3146 LP  0  0  0  0  0  0  0  0  0  0  0  0  # atno 17343 bound_to 10162
  156.0007  130.5086  150.7653 LP  0  0  0  0  0  0  0  0  0  0  0  0  # atno 17370 bound_to 10713
  157.5029  131.0920  151.0292 LP  0  0  0  0  0  0  0  0  0  0  0  0  # atno 17371 bound_to 10713
  140.9365  133.7544  156.0091 LP  0  0  0  0  0  0  0  0  0  0  0  0  # atno 17394 bound_to 11000
  140.8270  134.3223  157.5362 LP  0  0  0  0  0  0  0  0  0  0  0  0  # atno 17395 bound_to 11000

$$$$
