AV-unprocessed.smi:2329|AV-procd|sdf|9308|dock5
  -GOLD-   2272012523D 1   1.00000     0.00000
 Structure written by MMmdl.
 45 48  0  0  0  0  0  0  0  0  1 V2000
  145.2540  137.0520  162.1868 C   0  0  0  0  0  0  0  0  0  0  0  0
  146.4118  136.2831  161.5861 C   0  0  0  0  0  0  0  0  0  0  0  0
  146.7696  135.0111  162.0745 C   0  0  0  0  0  0  0  0  0  0  0  0
  147.8540  134.3502  161.4702 C   0  0  0  0  0  0  0  0  0  0  0  0
  148.5314  134.9838  160.4107 C   0  0  0  0  0  0  0  0  0  0  0  0
  148.1085  136.2619  159.9816 C   0  0  0  0  0  0  0  0  0  0  0  0
  148.8570  136.8126  158.9088 N   0  0  0  0  0  0  0  0  0  0  0  0
  148.4118  137.5292  157.8575 C   0  0  0  0  0  0  0  0  0  0  0  0
  147.2339  137.8127  157.6470 O   0  0  0  0  0  0  0  0  0  0  0  0
  149.3864  137.9397  157.0273 N   0  0  0  0  0  0  0  0  0  0  0  0
  149.2360  138.7345  155.7976 C   0  0  2  0  0  0  0  0  0  0  0  0
  150.3576  138.5290  154.7727 C   0  0  2  0  0  0  0  0  0  0  0  0
  151.3731  137.4769  154.5036 C   0  0  0  0  0  0  0  0  0  0  0  0
  152.5682  138.4243  154.2195 C   0  0  0  0  0  0  0  0  0  0  0  0
  152.1226  139.7519  154.5958 O   0  0  0  0  0  0  0  0  0  0  0  0
  151.1501  139.5212  155.5973 C   0  0  1  0  0  0  0  0  0  0  0  0
  149.7960  140.2054  155.9018 C   0  0  0  0  0  0  0  0  0  0  0  0
  149.2965  141.2462  154.8782 C   0  0  0  0  0  0  0  0  0  0  0  0
  148.8365  142.4911  155.6391 C   0  0  0  0  0  0  0  0  0  0  0  0
  149.5768  142.4216  156.9665 C   0  0  0  0  0  0  0  0  0  0  0  0
  149.6670  140.9253  157.2497 C   0  0  0  0  0  0  0  0  0  0  0  0
  147.0613  136.8914  160.5704 N   0  0  0  0  0  0  0  0  0  0  0  0
  144.8063  136.5073  163.0186 H   0  0  0  0  0  0  0  0  0  0  0  0
  144.4821  137.2214  161.4355 H   0  0  0  0  0  0  0  0  0  0  0  0
  145.5922  138.0202  162.5570 H   0  0  0  0  0  0  0  0  0  0  0  0
  146.2297  134.5515  162.8894 H   0  0  0  0  0  0  0  0  0  0  0  0
  148.1620  133.3734  161.8128 H   0  0  0  0  0  0  0  0  0  0  0  0
  149.3669  134.4903  159.9353 H   0  0  0  0  0  0  0  0  0  0  0  0
  149.8539  136.6616  158.9525 H   0  0  0  0  0  0  0  0  0  0  0  0
  150.3325  137.6964  157.2832 H   0  0  0  0  0  0  0  0  0  0  0  0
  148.2341  138.6915  155.3673 H   0  0  0  0  0  0  0  0  0  0  0  0
  150.0269  138.9542  153.8195 H   0  0  0  0  0  0  0  0  0  0  0  0
  151.5545  136.8432  155.3726 H   0  0  0  0  0  0  0  0  0  0  0  0
  151.1187  136.8498  153.6490 H   0  0  0  0  0  0  0  0  0  0  0  0
  153.4402  138.1349  154.8073 H   0  0  0  0  0  0  0  0  0  0  0  0
  152.8516  138.4187  153.1667 H   0  0  0  0  0  0  0  0  0  0  0  0
  151.6170  139.0939  156.4907 H   0  0  0  0  0  0  0  0  0  0  0  0
  150.1037  141.5239  154.1992 H   0  0  0  0  0  0  0  0  0  0  0  0
  148.4882  140.8593  154.2568 H   0  0  0  0  0  0  0  0  0  0  0  0
  149.0332  143.4151  155.0946 H   0  0  0  0  0  0  0  0  0  0  0  0
  147.7622  142.4330  155.8188 H   0  0  0  0  0  0  0  0  0  0  0  0
  150.5793  142.8357  156.8510 H   0  0  0  0  0  0  0  0  0  0  0  0
  149.0743  142.9732  157.7615 H   0  0  0  0  0  0  0  0  0  0  0  0
  148.7554  140.6056  157.7564 H   0  0  0  0  0  0  0  0  0  0  0  0
  150.4954  140.7030  157.9230 H   0  0  0  0  0  0  0  0  0  0  0  0
  1  2  1  0  0  0  0
  1 23  1  0  0  0  0
  1 24  1  0  0  0  0
  1 25  1  0  0  0  0
  2 22  1  0  0  0  0
  2  3  2  0  0  0  0
  3  4  1  0  0  0  0
  3 26  1  0  0  0  0
  4  5  2  0  0  0  0
  4 27  1  0  0  0  0
  5  6  1  0  0  0  0
  5 28  1  0  0  0  0
  6  7  1  0  0  0  0
  6 22  2  0  0  0  0
  7  8  1  0  0  0  0
  7 29  1  0  0  0  0
  8  9  2  0  0  0  0
  8 10  1  0  0  0  0
 10 11  1  0  0  0  0
 10 30  1  0  0  0  0
 11 17  1  0  0  0  0
 11 12  1  0  0  0  0
 11 31  1  0  0  0  0
 12 16  1  0  0  0  0
 12 13  1  0  0  0  0
 12 32  1  0  0  0  0
 13 14  1  0  0  0  0
 13 33  1  0  0  0  0
 13 34  1  0  0  0  0
 14 15  1  0  0  0  0
 14 35  1  0  0  0  0
 14 36  1  0  0  0  0
 15 16  1  0  0  0  0
 16 17  1  0  0  0  0
 16 37  1  0  0  0  0
 17 21  1  0  0  0  0
 17 18  1  0  0  0  0
 18 19  1  0  0  0  0
 18 38  1  0  0  0  0
 18 39  1  0  0  0  0
 19 20  1  0  0  0  0
 19 40  1  0  0  0  0
 19 41  1  0  0  0  0
 20 21  1  0  0  0  0
 20 42  1  0  0  0  0
 20 43  1  0  0  0  0
 21 44  1  0  0  0  0
 21 45  1  0  0  0  0
M  END
> <s_m_source_file>
AV-unprocessed.smi

> <i_m_source_file_index>
2329

> <i_lp_mmshare_version>
43012

> <i_f3d_flags>
0

> <s_epik_input>
W0NIM11jMVtjSF1bY0hdW2NIXWMobjEpW05IXUMoPU8pW05IXVtDQEBIXTJbQ0BASF0oW0NIMl1bQ0gyXU8zKVtDQEhdM0MyNFtDSDJdW0NIMl1bQ0gyXVtDSDJdNA==

> <s_epik_cmdline>
J2VwaWtfcHl0aG9uJywgJy1waCcsICc3LjAnLCAnLXRuJywgJzgnLCAnLW1hJywgJzIwMCcsICctbWV0YWxfYmluZGluZycsICctaW1hZScsICc8aW5maWxlLm1hZT4nLCAnLW9tYWUnLCAnPG91dGZpbGUubWFlPic=

> <r_lp_tautomer_probability>
1

> <r_epik_Ionization_Penalty>
8.97002e-05

> <r_epik_Ionization_Penalty_Charging>
0

> <r_epik_Ionization_Penalty_Neutral>
8.97002e-05

> <r_epik_State_Penalty>
-0

> <r_epik_Charging_Adjusted_Penalty>
0

> <i_epik_Tot_Q>
0

> <i_epik_Tot_abs_Q>
0

> <r_epik_Metal_State_Penalty>
-0

> <b_epik_Metal_Only>
0

> <s_lp_Force_Field>
OPLS_2005

> <r_lp_Energy>
90.3412

> <b_lp_Chiralities_Consistent>
1

> <s_lp_Variant>
AV-unprocessed.smi:2329-7

> <Gold.Version>
5.8.1

> <Gold.Id.Protein>
6NUR|6NUR_protein|mol2

> <Gold.PLP.Fitness>
49.1399

> <Gold.PLP.PLP>
-40.9260

> <Gold.PLP.part.hbond>
-5.0000

> <Gold.PLP.part.metal>
0.0000

> <Gold.PLP.part.buried>
-6.6438

> <Gold.PLP.part.nonpolar>
-30.3178

> <Gold.PLP.part.repulsive>
0.2585

> <Gold.PLP.ligand.clash>
0.0000

> <Gold.PLP.ligand.torsion>
0.5148

> <Gold.PLP.Chemscore.Hbond>
2.9914

> <Gold.PLP.Chemscore.CHOScore>
0.0000

> <Gold.PLP.Chemscore.Metal>
0.0000

> <Gold.Chemscore.Hbonds>
donor molecule, donor type, donor heavy atom, donor atom, acceptor molecule, acceptor atom, score
      P1  H  6934  6947       L1    22  0.67
      P1  H  7989  7998       L1    15  0.80

> <Gold.PLP.Chemscore.Internal.Correction>
0.2694

> <Gold.Rescore>
     Score         DG    S(hbond)    S(metal)    S(lipo)     H(rot)  DE(clash)    DE(int)     intcor
     18.53     -20.35       1.74        0.00      99.26       1.00       0.29       1.53       ----

> <Gold.Chemscore.Fitness>
18.5331

> <Gold.Chemscore.DG>
-20.3476

> <Gold.Chemscore.ZeroCoef>
-5.4800

> <Gold.Chemscore.Hbond>
1.7409

> <Gold.Chemscore.Metal>
0.0000

> <Gold.Chemscore.Lipo>
99.2562

> <Gold.Chemscore.Internal_Hbond>
0.0000

> <Gold.Chemscore.DEClash>
0.2866

> <Gold.Chemscore.DEInternal>
1.5279

> <Gold.Chemscore.Rot>
1.0000

> <Gold.Chemscore.Internal.Correction>
   9.000000E+99

> <Gold.Chemscore.Hbonds>
donor molecule, donor type, donor heavy atom, donor atom, acceptor molecule, acceptor atom, score
      P1  H  6934  6947       L1    22  0.48
      P1  H  7989  7998       L1    15  0.69

> <Gold.Chemscore.Hbond.Weighted>
-5.8147

> <Gold.Chemscore.Metal.Weighted>
-0.0000

> <Gold.Chemscore.Lipo.Weighted>
-11.6130

> <Gold.Chemscore.Internal_Hbond.Weighted>
0.0000

> <Gold.Chemscore.DEClash.Weighted>
0.2866

> <Gold.Chemscore.DEInternal.Weighted>
1.5279

> <Gold.Chemscore.Rot.Weighted>
2.5600

> <Gold.Chemscore.Internal.Correction.Weighted>
   9.000000E+99

> <Gold.Protein.RotatedTorsions>
[ 6907 6896 6895 6894 ] final -169.89 input  -60.11 | X-H torsion
[ 7974 7965 7964 7962 ] final  -15.40 input  175.53 | X-H torsion
[ 8008 7997 7996 7995 ] final -139.77 input   59.86 | X-H torsion
[ 10167 10162 10161 10158 ] final -156.92 input  -65.29 | X-H torsion
[ 10718 10713 10712 10709 ] final  -77.03 input   66.30 | X-H torsion
[ 10763 10752 10751 10750 ] final  161.91 input  -60.55 | X-H torsion
[ 11005 11000 10999 10996 ] final   48.51 input  -57.11 | X-H torsion

> <Gold.Protein.ActiveResidues>
 VAL166  LYS551  ARG553  GLY616  TRP617  ASP618  TYR619  PRO620  LYS621  CYS622 
 ASP623  PHE694  ASN695  SER759  ASP760  ASP761  ALA762  ILE779  LEU786  VAL792 
 PHE793  MET794  SER795  GLU796  ALA797  LYS798  CYS799  TRP800  GLU811  SER814 

> <Gold.Protein.RotatedAtoms>
  151.4989  133.3508  159.2865 H   0  0  0  0  0  0  0  0  0  0  0  0  # atno 6907 bound_to 6896
  150.8786  134.8175  159.7219 H   0  0  0  0  0  0  0  0  0  0  0  0  # atno 6908 bound_to 6896
  152.4747  134.4884  159.9739 H   0  0  0  0  0  0  0  0  0  0  0  0  # atno 6909 bound_to 6896
  146.2033  140.3488  142.8415 H   0  0  0  0  0  0  0  0  0  0  0  0  # atno 7974 bound_to 7965
  155.4504  140.0538  157.3002 H   0  0  0  0  0  0  0  0  0  0  0  0  # atno 8008 bound_to 7997
  154.4780  140.2069  155.9788 H   0  0  0  0  0  0  0  0  0  0  0  0  # atno 8009 bound_to 7997
  156.1161  140.3196  155.8146 H   0  0  0  0  0  0  0  0  0  0  0  0  # atno 8010 bound_to 7997
  139.6812  143.9578  152.2337 H   0  0  0  0  0  0  0  0  0  0  0  0  # atno 10167 bound_to 10162
  156.0157  130.4481  150.3284 H   0  0  0  0  0  0  0  0  0  0  0  0  # atno 10718 bound_to 10713
  154.2703  135.2766  155.2741 H   0  0  0  0  0  0  0  0  0  0  0  0  # atno 10763 bound_to 10752
  154.5307  135.5730  153.6760 H   0  0  0  0  0  0  0  0  0  0  0  0  # atno 10764 bound_to 10752
  152.9946  135.6227  154.2857 H   0  0  0  0  0  0  0  0  0  0  0  0  # atno 10765 bound_to 10752
  140.1184  134.4861  155.8618 H   0  0  0  0  0  0  0  0  0  0  0  0  # atno 11005 bound_to 11000
  144.8734  140.7303  143.6032 LP  0  0  0  0  0  0  0  0  0  0  0  0  # atno 17320 bound_to 7965
  145.3407  139.1733  143.4487 LP  0  0  0  0  0  0  0  0  0  0  0  0  # atno 17321 bound_to 7965
  139.9369  144.6706  150.8306 LP  0  0  0  0  0  0  0  0  0  0  0  0  # atno 17342 bound_to 10162
  140.7653  143.3271  151.2492 LP  0  0  0  0  0  0  0  0  0  0  0  0  # atno 17343 bound_to 10162
  157.1382  131.0289  151.2939 LP  0  0  0  0  0  0  0  0  0  0  0  0  # atno 17370 bound_to 10713
  157.4494  130.7589  149.7138 LP  0  0  0  0  0  0  0  0  0  0  0  0  # atno 17371 bound_to 10713
  141.2146  133.6752  156.6842 LP  0  0  0  0  0  0  0  0  0  0  0  0  # atno 17394 bound_to 11000
  140.2997  134.8174  157.4087 LP  0  0  0  0  0  0  0  0  0  0  0  0  # atno 17395 bound_to 11000

$$$$
