AV-unprocessed.smi:374|AV-procd|sdf|2451|dock3
  -GOLD-   2262022393D 1   1.00000     0.00000
 Structure written by MMmdl.
 37 38  0  0  0  0  0  0  0  0  1 V2000
  147.4885  140.6796  153.3778 C   0  0  0  0  0  0  0  0  0  0  0  0
  147.9617  141.6367  154.4874 C   0  0  2  0  0  0  0  0  0  0  0  0
  149.4019  141.3577  154.9440 C   0  0  0  0  0  0  0  0  0  0  0  0
  150.0061  140.3576  154.5547 O   0  0  0  0  0  0  0  0  0  0  0  0
  149.9386  142.2557  155.7826 N   0  0  0  0  0  0  0  0  0  0  0  0
  151.2760  142.1599  156.3519 C   0  0  0  0  0  0  0  0  0  0  0  0
  151.2788  142.5116  157.8519 C   0  0  0  0  0  0  0  0  0  0  0  0
  151.5407  144.0170  158.0613 C   0  0  0  0  0  0  0  0  0  0  0  0
  151.5363  144.3951  159.5513 C   0  0  0  0  0  0  0  0  0  0  0  0
  152.5541  143.5577  160.3402 C   0  0  0  0  0  0  0  0  0  0  0  0
  152.3018  142.0552  160.1449 C   0  0  0  0  0  0  0  0  0  0  0  0
  152.3024  141.6767  158.6547 C   0  0  0  0  0  0  0  0  0  0  0  0
  147.0566  141.6030  155.6279 N   0  0  0  0  0  0  0  0  0  0  0  0
  147.0954  142.2490  156.7970 C   0  0  0  0  0  0  0  0  0  0  0  0
  146.0799  141.9664  157.6008 N   0  0  0  0  0  0  0  0  0  0  0  0
  145.4052  141.0786  156.8114 C   0  0  0  0  0  0  0  0  0  0  0  0
  145.9469  140.8262  155.6197 N   0  0  0  0  0  0  0  0  0  0  0  0
  148.1596  140.7072  152.5188 H   0  0  0  0  0  0  0  0  0  0  0  0
  146.4950  140.9576  153.0247 H   0  0  0  0  0  0  0  0  0  0  0  0
  147.4367  139.6476  153.7275 H   0  0  0  0  0  0  0  0  0  0  0  0
  147.9461  142.6470  154.0737 H   0  0  0  0  0  0  0  0  0  0  0  0
  149.3768  143.0483  156.0583 H   0  0  0  0  0  0  0  0  0  0  0  0
  151.6629  141.1504  156.2027 H   0  0  0  0  0  0  0  0  0  0  0  0
  151.9366  142.8377  155.8089 H   0  0  0  0  0  0  0  0  0  0  0  0
  150.2850  142.2916  158.2454 H   0  0  0  0  0  0  0  0  0  0  0  0
  152.5015  144.2882  157.6219 H   0  0  0  0  0  0  0  0  0  0  0  0
  150.7860  144.6037  157.5362 H   0  0  0  0  0  0  0  0  0  0  0  0
  151.7600  145.4558  159.6659 H   0  0  0  0  0  0  0  0  0  0  0  0
  150.5383  144.2431  159.9645 H   0  0  0  0  0  0  0  0  0  0  0  0
  153.5642  143.8049  160.0113 H   0  0  0  0  0  0  0  0  0  0  0  0
  152.5027  143.8101  161.3998 H   0  0  0  0  0  0  0  0  0  0  0  0
  153.0613  141.4794  160.6745 H   0  0  0  0  0  0  0  0  0  0  0  0
  151.3432  141.7853  160.5900 H   0  0  0  0  0  0  0  0  0  0  0  0
  152.0867  140.6121  158.5596 H   0  0  0  0  0  0  0  0  0  0  0  0
  153.3016  141.8250  158.2429 H   0  0  0  0  0  0  0  0  0  0  0  0
  147.8816  142.9405  157.0635 H   0  0  0  0  0  0  0  0  0  0  0  0
  144.4864  140.6049  157.1237 H   0  0  0  0  0  0  0  0  0  0  0  0
  1  2  1  0  0  0  0
  1 18  1  0  0  0  0
  1 19  1  0  0  0  0
  1 20  1  0  0  0  0
  2  3  1  0  0  0  0
  2 13  1  0  0  0  0
  2 21  1  0  0  0  0
  3  4  2  0  0  0  0
  3  5  1  0  0  0  0
  5  6  1  0  0  0  0
  5 22  1  0  0  0  0
  6  7  1  0  0  0  0
  6 23  1  0  0  0  0
  6 24  1  0  0  0  0
  7 12  1  0  0  0  0
  7  8  1  0  0  0  0
  7 25  1  0  0  0  0
  8  9  1  0  0  0  0
  8 26  1  0  0  0  0
  8 27  1  0  0  0  0
  9 10  1  0  0  0  0
  9 28  1  0  0  0  0
  9 29  1  0  0  0  0
 10 11  1  0  0  0  0
 10 30  1  0  0  0  0
 10 31  1  0  0  0  0
 11 12  1  0  0  0  0
 11 32  1  0  0  0  0
 11 33  1  0  0  0  0
 12 34  1  0  0  0  0
 12 35  1  0  0  0  0
 13 17  1  0  0  0  0
 13 14  1  0  0  0  0
 14 15  2  0  0  0  0
 14 36  1  0  0  0  0
 15 16  1  0  0  0  0
 16 17  2  0  0  0  0
 16 37  1  0  0  0  0
M  END
> <s_m_source_file>
AV-unprocessed.smi

> <i_m_source_file_index>
374

> <i_lp_mmshare_version>
43012

> <i_f3d_flags>
0

> <s_epik_input>
bjFbY0hdbltjSF1uMVtDQEhdKFtDSDNdKUMoPU8pW05IXVtDSDJdW0NIXTJbQ0gyXVtDSDJdW0NIMl1bQ0gyXVtDSDJdMg==

> <s_epik_cmdline>
J2VwaWtfcHl0aG9uJywgJy1waCcsICc3LjAnLCAnLXRuJywgJzgnLCAnLW1hJywgJzIwMCcsICctbWV0YWxfYmluZGluZycsICctaW1hZScsICc8aW5maWxlLm1hZT4nLCAnLW9tYWUnLCAnPG91dGZpbGUubWFlPic=

> <r_lp_tautomer_probability>
1

> <r_epik_Ionization_Penalty>
1.24899e-05

> <r_epik_Ionization_Penalty_Charging>
0

> <r_epik_Ionization_Penalty_Neutral>
1.24899e-05

> <r_epik_State_Penalty>
-0

> <r_epik_Charging_Adjusted_Penalty>
0

> <i_epik_Tot_Q>
0

> <i_epik_Tot_abs_Q>
0

> <r_epik_Metal_State_Penalty>
-0

> <b_epik_Metal_Only>
0

> <s_lp_Force_Field>
OPLS_2005

> <r_lp_Energy>
16.088

> <b_lp_Chiralities_Consistent>
1

> <s_lp_Variant>
AV-unprocessed.smi:374-1

> <Gold.Version>
5.8.1

> <Gold.Id.Protein>
6NUR|6NUR_protein|mol2

> <Gold.PLP.Fitness>
40.0017

> <Gold.PLP.PLP>
-33.5051

> <Gold.PLP.part.hbond>
-2.0000

> <Gold.PLP.part.metal>
0.0000

> <Gold.PLP.part.buried>
-4.7173

> <Gold.PLP.part.nonpolar>
-27.0382

> <Gold.PLP.part.repulsive>
0.3870

> <Gold.PLP.ligand.clash>
0.0000

> <Gold.PLP.ligand.torsion>
0.6710

> <Gold.PLP.Chemscore.Hbond>
1.8880

> <Gold.PLP.Chemscore.CHOScore>
0.7023

> <Gold.PLP.Chemscore.Metal>
0.0000

> <Gold.Chemscore.Hbonds>
donor molecule, donor type, donor heavy atom, donor atom, acceptor molecule, acceptor atom, score
      L1  H     5    22       P1  8028  0.91
      P1  H  7989  7998       L1     4  0.94
      L1  C    14    36       P1  8028  0.72

> <Gold.PLP.Chemscore.Internal.Correction>
0.0676

> <Gold.Rescore>
     Score         DG    S(hbond)    S(metal)    S(lipo)     H(rot)  DE(clash)    DE(int)     intcor
     14.41     -16.40       1.70        0.00      91.54       2.14       1.30       0.69       ----

> <Gold.Chemscore.Fitness>
14.4136

> <Gold.Chemscore.DG>
-16.4026

> <Gold.Chemscore.ZeroCoef>
-5.4800

> <Gold.Chemscore.Hbond>
1.7024

> <Gold.Chemscore.Metal>
0.0000

> <Gold.Chemscore.Lipo>
91.5434

> <Gold.Chemscore.Internal_Hbond>
0.0000

> <Gold.Chemscore.DEClash>
1.3022

> <Gold.Chemscore.DEInternal>
0.6868

> <Gold.Chemscore.Rot>
2.1383

> <Gold.Chemscore.Internal.Correction>
   9.000000E+99

> <Gold.Chemscore.Hbonds>
donor molecule, donor type, donor heavy atom, donor atom, acceptor molecule, acceptor atom, score
      L1  H     5    22       P1  8028  0.90
      P1  H  7989  7998       L1     4  0.65

> <Gold.Chemscore.Hbond.Weighted>
-5.6861

> <Gold.Chemscore.Metal.Weighted>
-0.0000

> <Gold.Chemscore.Lipo.Weighted>
-10.7106

> <Gold.Chemscore.Internal_Hbond.Weighted>
0.0000

> <Gold.Chemscore.DEClash.Weighted>
1.3022

> <Gold.Chemscore.DEInternal.Weighted>
0.6868

> <Gold.Chemscore.Rot.Weighted>
5.4741

> <Gold.Chemscore.Internal.Correction.Weighted>
   9.000000E+99

> <Gold.Protein.RotatedTorsions>
[ 6907 6896 6895 6894 ] final -160.22 input  -60.11 | X-H torsion
[ 7974 7965 7964 7962 ] final  128.54 input  175.53 | X-H torsion
[ 8008 7997 7996 7995 ] final   34.44 input   59.86 | X-H torsion
[ 10167 10162 10161 10158 ] final    0.19 input  -65.29 | X-H torsion
[ 10718 10713 10712 10709 ] final  -37.07 input   66.30 | X-H torsion
[ 10763 10752 10751 10750 ] final  -51.85 input  -60.55 | X-H torsion
[ 11005 11000 10999 10996 ] final  -45.40 input  -57.11 | X-H torsion

> <Gold.Protein.ActiveResidues>
 VAL166  LYS551  ARG553  GLY616  TRP617  ASP618  TYR619  PRO620  LYS621  CYS622 
 ASP623  PHE694  ASN695  SER759  ASP760  ASP761  ALA762  ILE779  LEU786  VAL792 
 PHE793  MET794  SER795  GLU796  ALA797  LYS798  CYS799  TRP800  GLU811  SER814 

> <Gold.Protein.RotatedAtoms>
  151.3457  133.3945  159.2675 H   0  0  0  0  0  0  0  0  0  0  0  0  # atno 6907 bound_to 6896
  150.9842  134.9191  159.7872 H   0  0  0  0  0  0  0  0  0  0  0  0  # atno 6908 bound_to 6896
  152.5227  134.3421  159.9273 H   0  0  0  0  0  0  0  0  0  0  0  0  # atno 6909 bound_to 6896
  145.0385  139.3984  143.5114 H   0  0  0  0  0  0  0  0  0  0  0  0  # atno 7974 bound_to 7965
  155.1548  140.3278  155.4423 H   0  0  0  0  0  0  0  0  0  0  0  0  # atno 8008 bound_to 7997
  156.2562  140.1970  156.6609 H   0  0  0  0  0  0  0  0  0  0  0  0  # atno 8009 bound_to 7997
  154.6447  140.0566  156.9873 H   0  0  0  0  0  0  0  0  0  0  0  0  # atno 8010 bound_to 7997
  140.6740  143.6969  150.7982 H   0  0  0  0  0  0  0  0  0  0  0  0  # atno 10167 bound_to 10162
  156.3195  130.4263  149.7974 H   0  0  0  0  0  0  0  0  0  0  0  0  # atno 10718 bound_to 10713
  154.1332  135.6516  153.4926 H   0  0  0  0  0  0  0  0  0  0  0  0  # atno 10763 bound_to 10752
  153.0188  135.5298  154.6979 H   0  0  0  0  0  0  0  0  0  0  0  0  # atno 10764 bound_to 10752
  154.6220  135.2966  155.0285 H   0  0  0  0  0  0  0  0  0  0  0  0  # atno 10765 bound_to 10752
  141.0513  133.6742  156.3008 H   0  0  0  0  0  0  0  0  0  0  0  0  # atno 11005 bound_to 11000
  146.3507  139.9973  142.8679 LP  0  0  0  0  0  0  0  0  0  0  0  0  # atno 17320 bound_to 7965
  145.1678  140.9706  143.4339 LP  0  0  0  0  0  0  0  0  0  0  0  0  # atno 17321 bound_to 7965
  140.0659  143.5108  152.2604 LP  0  0  0  0  0  0  0  0  0  0  0  0  # atno 17342 bound_to 10162
  139.6022  144.7586  151.3145 LP  0  0  0  0  0  0  0  0  0  0  0  0  # atno 17343 bound_to 10162
  156.5287  130.8248  151.3229 LP  0  0  0  0  0  0  0  0  0  0  0  0  # atno 17370 bound_to 10713
  157.7408  130.9858  150.2406 LP  0  0  0  0  0  0  0  0  0  0  0  0  # atno 17371 bound_to 10713
  140.6049  134.5517  157.5524 LP  0  0  0  0  0  0  0  0  0  0  0  0  # atno 17394 bound_to 11000
  139.9353  134.7887  156.0820 LP  0  0  0  0  0  0  0  0  0  0  0  0  # atno 17395 bound_to 11000

$$$$
