AV-unprocessed.smi:3019|AV-procd|sdf|11488|dock3
  -GOLD-   2272016423D 1   1.00000     0.00000
 Structure written by MMmdl.
 31 32  0  0  0  0  0  0  0  0  2 V2000
  152.7421  143.5302  158.6018 C   0  0  0  0  0  0  0  0  0  0  0  0
  152.3903  142.1096  159.0679 C   0  0  0  0  0  0  0  0  0  0  0  0
  153.4971  141.4646  159.9150 C   0  0  0  0  0  0  0  0  0  0  0  0
  151.9880  141.2336  157.9208 C   0  0  0  0  0  0  0  0  0  0  0  0
  152.5836  140.0612  157.7057 N   0  0  0  0  0  0  0  0  0  0  0  0
  151.9395  139.6146  156.6077 N   0  0  0  0  0  0  0  0  0  0  0  0
  151.0186  140.5092  156.2388 C   0  0  0  0  0  0  0  0  0  0  0  0
  150.1447  140.3325  155.0362 C   0  0  1  0  0  0  0  0  0  0  0  0
  150.1884  138.8942  154.4857 C   0  0  0  0  0  0  0  0  0  0  0  0
  149.2511  138.7592  153.3537 N   0  3  0  0  0  0  0  0  0  0  0  0
  147.8850  139.1739  153.7302 C   0  0  0  0  0  0  0  0  0  0  0  0
  147.9053  140.5972  154.3152 C   0  0  0  0  0  0  0  0  0  0  0  0
  148.8072  140.6523  155.4162 O   0  0  0  0  0  0  0  0  0  0  0  0
  151.0037  141.5742  157.0330 N   0  0  0  0  0  0  0  0  0  0  0  0
  152.1488  138.7302  156.1668 H   0  0  0  0  0  0  0  0  0  0  0  0
  151.9068  143.9861  158.0691 H   0  0  0  0  0  0  0  0  0  0  0  0
  153.6029  143.5274  157.9325 H   0  0  0  0  0  0  0  0  0  0  0  0
  152.9834  144.1725  159.4492 H   0  0  0  0  0  0  0  0  0  0  0  0
  151.5218  142.2075  159.7215 H   0  0  0  0  0  0  0  0  0  0  0  0
  153.1848  140.4894  160.2906 H   0  0  0  0  0  0  0  0  0  0  0  0
  153.7442  142.0859  160.7762 H   0  0  0  0  0  0  0  0  0  0  0  0
  154.4097  141.3225  159.3355 H   0  0  0  0  0  0  0  0  0  0  0  0
  150.4782  141.0368  154.2713 H   0  0  0  0  0  0  0  0  0  0  0  0
  151.1948  138.6380  154.1531 H   0  0  0  0  0  0  0  0  0  0  0  0
  149.9139  138.1794  155.2631 H   0  0  0  0  0  0  0  0  0  0  0  0
  149.5714  139.3476  152.5977 H   0  0  0  0  0  0  0  0  0  0  0  0
  147.2377  139.1283  152.8542 H   0  0  0  0  0  0  0  0  0  0  0  0
  147.4860  138.4710  154.4628 H   0  0  0  0  0  0  0  0  0  0  0  0
  148.1956  141.3258  153.5565 H   0  0  0  0  0  0  0  0  0  0  0  0
  146.9092  140.8766  154.6596 H   0  0  0  0  0  0  0  0  0  0  0  0
  149.2373  137.7989  153.0400 H   0  0  0  0  0  0  0  0  0  0  0  0
  1  2  1  0  0  0  0
  1 16  1  0  0  0  0
  1 17  1  0  0  0  0
  1 18  1  0  0  0  0
  2  3  1  0  0  0  0
  2  4  1  0  0  0  0
  2 19  1  0  0  0  0
  3 20  1  0  0  0  0
  3 21  1  0  0  0  0
  3 22  1  0  0  0  0
  4 14  1  0  0  0  0
  4  5  2  0  0  0  0
  5  6  1  0  0  0  0
  6 15  1  0  0  0  0
  6  7  1  0  0  0  0
  7  8  1  0  0  0  0
  7 14  2  0  0  0  0
  8 13  1  0  0  0  0
  8  9  1  0  0  0  0
  8 23  1  0  0  0  0
  9 10  1  0  0  0  0
  9 24  1  0  0  0  0
  9 25  1  0  0  0  0
 10 11  1  0  0  0  0
 10 26  1  0  0  0  0
 10 31  1  0  0  0  0
 11 12  1  0  0  0  0
 11 27  1  0  0  0  0
 11 28  1  0  0  0  0
 12 13  1  0  0  0  0
 12 29  1  0  0  0  0
 12 30  1  0  0  0  0
M  CHG  1  10   1
M  END
> <s_m_source_file>
AV-unprocessed.smi

> <i_m_source_file_index>
3019

> <i_lp_mmshare_version>
43012

> <i_f3d_flags>
0

> <s_epik_input>
W0NIM11bQ0hdKFtDSDNdKWMxbltuSF1jKG4xKVtDQEBIXTJbQ0gyXVtOSF1bQ0gyXVtDSDJdTzI=

> <s_epik_cmdline>
J2VwaWtfcHl0aG9uJywgJy1waCcsICc3LjAnLCAnLXRuJywgJzgnLCAnLW1hJywgJzIwMCcsICctbWV0YWxfYmluZGluZycsICctaW1hZScsICc8aW5maWxlLm1hZT4nLCAnLW9tYWUnLCAnPG91dGZpbGUubWFlPic=

> <r_epik_Ionization_Penalty>
0.162344

> <r_epik_Ionization_Penalty_Charging>
0.125708

> <r_epik_Ionization_Penalty_Neutral>
0.0366363

> <r_epik_State_Penalty>
1.18286

> <r_epik_Charging_Adjusted_Penalty>
1.30856

> <i_epik_Tot_Q>
1

> <i_epik_Tot_abs_Q>
1

> <r_epik_Metal_State_Penalty>
1.49333

> <b_epik_Metal_Only>
0

> <s_lp_Force_Field>
OPLS_2005

> <r_lp_Energy>
8.53266

> <b_lp_Chiralities_Consistent>
1

> <s_lp_Variant>
AV-unprocessed.smi:3019-4

> <Gold.Version>
5.8.1

> <Gold.Id.Protein>
6NUR|6NUR_protein|mol2

> <Gold.PLP.Fitness>
37.9282

> <Gold.PLP.PLP>
-26.5928

> <Gold.PLP.part.hbond>
-2.9091

> <Gold.PLP.part.metal>
0.0000

> <Gold.PLP.part.buried>
-2.8306

> <Gold.PLP.part.nonpolar>
-21.3009

> <Gold.PLP.part.repulsive>
0.3544

> <Gold.PLP.ligand.clash>
0.0000

> <Gold.PLP.ligand.torsion>
0.3289

> <Gold.PLP.Chemscore.Hbond>
3.9760

> <Gold.PLP.Chemscore.CHOScore>
0.0000

> <Gold.PLP.Chemscore.Metal>
0.0000

> <Gold.Chemscore.Hbonds>
donor molecule, donor type, donor heavy atom, donor atom, acceptor molecule, acceptor atom, score
      L1  H    10    26       P1  7957  1.00
      L1  H    10    31       P1  7948  2.00
      P1  H  7997  8010       L1     5  0.78

> <Gold.PLP.Chemscore.Internal.Correction>
0.0652

> <Gold.Rescore>
     Score         DG    S(hbond)    S(metal)    S(lipo)     H(rot)  DE(clash)    DE(int)     intcor
     17.28     -17.84       2.62        0.00      58.70       1.28       0.05       0.51       ----

> <Gold.Chemscore.Fitness>
17.2808

> <Gold.Chemscore.DG>
-17.8396

> <Gold.Chemscore.ZeroCoef>
-5.4800

> <Gold.Chemscore.Hbond>
2.6248

> <Gold.Chemscore.Metal>
0.0000

> <Gold.Chemscore.Lipo>
58.7031

> <Gold.Chemscore.Internal_Hbond>
0.0000

> <Gold.Chemscore.DEClash>
0.0469

> <Gold.Chemscore.DEInternal>
0.5120

> <Gold.Chemscore.Rot>
1.2795

> <Gold.Chemscore.Internal.Correction>
   9.000000E+99

> <Gold.Chemscore.Hbonds>
donor molecule, donor type, donor heavy atom, donor atom, acceptor molecule, acceptor atom, score
      L1  H    10    26       P1  7957  0.97
      L1  H    10    31       P1  7948  0.97
      P1  H  7997  8010       L1     5  0.16

> <Gold.Chemscore.Hbond.Weighted>
-8.7668

> <Gold.Chemscore.Metal.Weighted>
-0.0000

> <Gold.Chemscore.Lipo.Weighted>
-6.8683

> <Gold.Chemscore.Internal_Hbond.Weighted>
0.0000

> <Gold.Chemscore.DEClash.Weighted>
0.0469

> <Gold.Chemscore.DEInternal.Weighted>
0.5120

> <Gold.Chemscore.Rot.Weighted>
3.2754

> <Gold.Chemscore.Internal.Correction.Weighted>
   9.000000E+99

> <Gold.Protein.RotatedTorsions>
[ 6907 6896 6895 6894 ] final  -27.22 input  -60.11 | X-H torsion
[ 7974 7965 7964 7962 ] final   85.37 input  175.53 | X-H torsion
[ 8008 7997 7996 7995 ] final   37.99 input   59.86 | X-H torsion
[ 10167 10162 10161 10158 ] final  124.57 input  -65.29 | X-H torsion
[ 10718 10713 10712 10709 ] final   50.52 input   66.30 | X-H torsion
[ 10763 10752 10751 10750 ] final  100.20 input  -60.55 | X-H torsion
[ 11005 11000 10999 10996 ] final  131.12 input  -57.11 | X-H torsion

> <Gold.Protein.ActiveResidues>
 VAL166  LYS551  ARG553  GLY616  TRP617  ASP618  TYR619  PRO620  LYS621  CYS622 
 ASP623  PHE694  ASN695  SER759  ASP760  ASP761  ALA762  ILE779  LEU786  VAL792 
 PHE793  MET794  SER795  GLU796  ALA797  LYS798  CYS799  TRP800  GLU811  SER814 

> <Gold.Protein.RotatedAtoms>
  151.1499  135.0222  159.8663 H   0  0  0  0  0  0  0  0  0  0  0  0  # atno 6907 bound_to 6896
  152.5453  134.1400  159.8485 H   0  0  0  0  0  0  0  0  0  0  0  0  # atno 6908 bound_to 6896
  151.1484  133.4878  159.2628 H   0  0  0  0  0  0  0  0  0  0  0  0  # atno 6909 bound_to 6896
  145.5864  139.2332  143.2324 H   0  0  0  0  0  0  0  0  0  0  0  0  # atno 7974 bound_to 7965
  155.2129  140.3325  155.4326 H   0  0  0  0  0  0  0  0  0  0  0  0  # atno 8008 bound_to 7997
  156.2363  140.1874  156.7157 H   0  0  0  0  0  0  0  0  0  0  0  0  # atno 8009 bound_to 7997
  154.6066  140.0615  156.9425 H   0  0  0  0  0  0  0  0  0  0  0  0  # atno 8010 bound_to 7997
  139.5734  144.6951  151.3718 H   0  0  0  0  0  0  0  0  0  0  0  0  # atno 10167 bound_to 10162
  157.4893  130.8365  149.8183 H   0  0  0  0  0  0  0  0  0  0  0  0  # atno 10718 bound_to 10713
  153.3109  135.4087  155.1335 H   0  0  0  0  0  0  0  0  0  0  0  0  # atno 10763 bound_to 10752
  154.8575  135.3564  154.5724 H   0  0  0  0  0  0  0  0  0  0  0  0  # atno 10764 bound_to 10752
  153.6153  135.7066  153.5390 H   0  0  0  0  0  0  0  0  0  0  0  0  # atno 10765 bound_to 10752
  139.9712  134.9577  156.9392 H   0  0  0  0  0  0  0  0  0  0  0  0  # atno 11005 bound_to 11000
  146.1679  140.6691  142.9247 LP  0  0  0  0  0  0  0  0  0  0  0  0  # atno 17320 bound_to 7965
  144.7371  140.4838  143.6896 LP  0  0  0  0  0  0  0  0  0  0  0  0  # atno 17321 bound_to 7965
  140.7018  143.7614  150.7415 LP  0  0  0  0  0  0  0  0  0  0  0  0  # atno 17342 bound_to 10162
  140.1126  143.4685  152.2361 LP  0  0  0  0  0  0  0  0  0  0  0  0  # atno 17343 bound_to 10162
  156.0164  130.3812  150.2097 LP  0  0  0  0  0  0  0  0  0  0  0  0  # atno 17370 bound_to 10713
  157.0285  131.0000  151.3319 LP  0  0  0  0  0  0  0  0  0  0  0  0  # atno 17371 bound_to 10713
  140.5290  134.0832  155.7311 LP  0  0  0  0  0  0  0  0  0  0  0  0  # atno 17394 bound_to 11000
  141.1391  133.9170  157.2367 LP  0  0  0  0  0  0  0  0  0  0  0  0  # atno 17395 bound_to 11000

$$$$
