AV-unprocessed.smi:2713|AV-procd|sdf|10478|dock5
  -GOLD-   2272014523D 1   1.00000     0.00000
 Structure written by MMmdl.
 53 54  0  0  0  0  0  0  0  0  2 V2000
  152.8833  144.3890  158.0503 C   0  0  0  0  0  0  0  0  0  0  0  0
  151.9664  143.9223  159.2025 C   0  0  0  0  0  0  0  0  0  0  0  0
  152.5861  142.6275  159.7702 C   0  0  0  0  0  0  0  0  0  0  0  0
  151.9784  144.9745  160.3290 C   0  0  0  0  0  0  0  0  0  0  0  0
  150.5290  143.5620  158.6988 C   0  0  0  0  0  0  0  0  0  0  0  0
  150.2609  142.3653  157.7269 C   0  0  0  0  0  0  0  0  0  0  0  0
  151.3331  142.2496  156.6275 C   0  0  0  0  0  0  0  0  0  0  0  0
  150.3233  141.0576  158.5481 C   0  0  0  0  0  0  0  0  0  0  0  0
  148.9380  142.4647  157.0509 N   0  3  0  0  0  0  0  0  0  0  0  0
  147.7154  142.2650  157.8637 C   0  0  0  0  0  0  0  0  0  0  0  0
  146.5657  143.0620  157.2835 C   0  0  0  0  0  0  0  0  0  0  0  0
  146.2217  142.9873  155.9190 C   0  0  0  0  0  0  0  0  0  0  0  0
  145.1998  143.7042  155.4067 N   0  0  0  0  0  0  0  0  0  0  0  0
  144.5095  144.4978  156.2379 C   0  0  0  0  0  0  0  0  0  0  0  0
  143.4514  145.2408  155.6988 N   0  0  0  0  0  0  0  0  0  0  0  0
  142.8154  146.3322  156.4411 C   0  0  0  0  0  0  0  0  0  0  0  0
  141.3318  146.4648  156.0579 C   0  0  0  0  0  0  0  0  0  0  0  0
  141.2098  146.6213  154.6499 O   0  0  0  0  0  0  0  0  0  0  0  0
  141.7161  145.4894  153.9538 C   0  0  0  0  0  0  0  0  0  0  0  0
  143.2149  145.3206  154.2548 C   0  0  0  0  0  0  0  0  0  0  0  0
  144.7591  144.6327  157.5481 N   0  0  0  0  0  0  0  0  0  0  0  0
  145.7766  143.9203  158.0752 C   0  0  0  0  0  0  0  0  0  0  0  0
  153.9197  144.4632  158.3818 H   0  0  0  0  0  0  0  0  0  0  0  0
  152.6191  145.3703  157.6650 H   0  0  0  0  0  0  0  0  0  0  0  0
  152.8636  143.6890  157.2144 H   0  0  0  0  0  0  0  0  0  0  0  0
  152.6184  141.8383  159.0177 H   0  0  0  0  0  0  0  0  0  0  0  0
  152.0157  142.2471  160.6186 H   0  0  0  0  0  0  0  0  0  0  0  0
  153.6081  142.7879  160.1165 H   0  0  0  0  0  0  0  0  0  0  0  0
  152.9884  145.1275  160.7109 H   0  0  0  0  0  0  0  0  0  0  0  0
  151.3614  144.6645  161.1719 H   0  0  0  0  0  0  0  0  0  0  0  0
  151.6238  145.9461  159.9871 H   0  0  0  0  0  0  0  0  0  0  0  0
  149.9164  143.4038  159.5878 H   0  0  0  0  0  0  0  0  0  0  0  0
  150.0912  144.4537  158.2507 H   0  0  0  0  0  0  0  0  0  0  0  0
  152.3404  142.2846  157.0438 H   0  0  0  0  0  0  0  0  0  0  0  0
  151.2420  143.0397  155.8838 H   0  0  0  0  0  0  0  0  0  0  0  0
  151.2398  141.3081  156.0845 H   0  0  0  0  0  0  0  0  0  0  0  0
  151.3300  140.8796  158.9287 H   0  0  0  0  0  0  0  0  0  0  0  0
  150.0470  140.1910  157.9457 H   0  0  0  0  0  0  0  0  0  0  0  0
  149.6623  141.0823  159.4146 H   0  0  0  0  0  0  0  0  0  0  0  0
  148.8808  143.3810  156.6295 H   0  0  0  0  0  0  0  0  0  0  0  0
  147.4302  141.2137  157.8883 H   0  0  0  0  0  0  0  0  0  0  0  0
  147.8740  142.5837  158.8933 H   0  0  0  0  0  0  0  0  0  0  0  0
  146.7695  142.3565  155.2346 H   0  0  0  0  0  0  0  0  0  0  0  0
  142.8772  146.1899  157.5195 H   0  0  0  0  0  0  0  0  0  0  0  0
  143.3435  147.2591  156.2151 H   0  0  0  0  0  0  0  0  0  0  0  0
  140.7646  145.5938  156.3900 H   0  0  0  0  0  0  0  0  0  0  0  0
  140.8949  147.3340  156.5497 H   0  0  0  0  0  0  0  0  0  0  0  0
  141.1587  144.5946  154.2363 H   0  0  0  0  0  0  0  0  0  0  0  0
  141.5629  145.6341  152.8843 H   0  0  0  0  0  0  0  0  0  0  0  0
  143.7751  146.1663  153.8545 H   0  0  0  0  0  0  0  0  0  0  0  0
  143.5677  144.4312  153.7331 H   0  0  0  0  0  0  0  0  0  0  0  0
  145.9637  144.0425  159.1317 H   0  0  0  0  0  0  0  0  0  0  0  0
  148.9257  141.7792  156.3092 H   0  0  0  0  0  0  0  0  0  0  0  0
  1  2  1  0  0  0  0
  1 23  1  0  0  0  0
  1 24  1  0  0  0  0
  1 25  1  0  0  0  0
  2  3  1  0  0  0  0
  2  4  1  0  0  0  0
  2  5  1  0  0  0  0
  3 26  1  0  0  0  0
  3 27  1  0  0  0  0
  3 28  1  0  0  0  0
  4 29  1  0  0  0  0
  4 30  1  0  0  0  0
  4 31  1  0  0  0  0
  5  6  1  0  0  0  0
  5 32  1  0  0  0  0
  5 33  1  0  0  0  0
  6  7  1  0  0  0  0
  6  8  1  0  0  0  0
  6  9  1  0  0  0  0
  7 34  1  0  0  0  0
  7 35  1  0  0  0  0
  7 36  1  0  0  0  0
  8 37  1  0  0  0  0
  8 38  1  0  0  0  0
  8 39  1  0  0  0  0
  9 10  1  0  0  0  0
  9 40  1  0  0  0  0
  9 53  1  0  0  0  0
 10 11  1  0  0  0  0
 10 41  1  0  0  0  0
 10 42  1  0  0  0  0
 11 22  1  0  0  0  0
 11 12  2  0  0  0  0
 12 13  1  0  0  0  0
 12 43  1  0  0  0  0
 13 14  2  0  0  0  0
 14 15  1  0  0  0  0
 14 21  1  0  0  0  0
 15 20  1  0  0  0  0
 15 16  1  0  0  0  0
 16 17  1  0  0  0  0
 16 44  1  0  0  0  0
 16 45  1  0  0  0  0
 17 18  1  0  0  0  0
 17 46  1  0  0  0  0
 17 47  1  0  0  0  0
 18 19  1  0  0  0  0
 19 20  1  0  0  0  0
 19 48  1  0  0  0  0
 19 49  1  0  0  0  0
 20 50  1  0  0  0  0
 20 51  1  0  0  0  0
 21 22  2  0  0  0  0
 22 52  1  0  0  0  0
M  CHG  1   9   1
M  END
> <s_m_source_file>
AV-unprocessed.smi

> <i_m_source_file_index>
2713

> <i_lp_mmshare_version>
43012

> <i_f3d_flags>
0

> <s_epik_input>
W0NIM11DKFtDSDNdKShbQ0gzXSlbQ0gyXUMoW0NIM10pKFtDSDNdKVtOSF1bQ0gyXWMxW2NIXW5jKG5bY0hdMSlOMltDSDJdW0NIMl1PW0NIMl1bQ0gyXTI=

> <s_epik_cmdline>
J2VwaWtfcHl0aG9uJywgJy1waCcsICc3LjAnLCAnLXRuJywgJzgnLCAnLW1hJywgJzIwMCcsICctbWV0YWxfYmluZGluZycsICctaW1hZScsICc8aW5maWxlLm1hZT4nLCAnLW9tYWUnLCAnPG91dGZpbGUubWFlPic=

> <r_lp_tautomer_probability>
1

> <r_epik_Ionization_Penalty>
0.036663

> <r_epik_Ionization_Penalty_Charging>
0.0366608

> <r_epik_Ionization_Penalty_Neutral>
2.19352e-06

> <r_epik_State_Penalty>
0.0306388

> <r_epik_Charging_Adjusted_Penalty>
0.0672996

> <i_epik_Tot_Q>
1

> <i_epik_Tot_abs_Q>
1

> <r_epik_Metal_State_Penalty>
0.0306391

> <b_epik_Metal_Only>
0

> <s_lp_Force_Field>
OPLS_2005

> <r_lp_Energy>
26.4039

> <b_lp_Chiralities_Consistent>
1

> <s_lp_Variant>
AV-unprocessed.smi:2713-1

> <Gold.Version>
5.8.1

> <Gold.Id.Protein>
6NUR|6NUR_protein|mol2

> <Gold.PLP.Fitness>
41.8960

> <Gold.PLP.PLP>
-37.0525

> <Gold.PLP.part.hbond>
-1.0000

> <Gold.PLP.part.metal>
0.0000

> <Gold.PLP.part.buried>
-6.3160

> <Gold.PLP.part.nonpolar>
-29.7530

> <Gold.PLP.part.repulsive>
0.2565

> <Gold.PLP.ligand.clash>
0.0000

> <Gold.PLP.ligand.torsion>
0.7063

> <Gold.PLP.Chemscore.Hbond>
2.0000

> <Gold.PLP.Chemscore.CHOScore>
0.0000

> <Gold.PLP.Chemscore.Metal>
0.0000

> <Gold.Chemscore.Hbonds>
donor molecule, donor type, donor heavy atom, donor atom, acceptor molecule, acceptor atom, score
      L1  H     9    40       P1  8028  2.00

> <Gold.PLP.Chemscore.Internal.Correction>
0.2561

> <Gold.Rescore>
     Score         DG    S(hbond)    S(metal)    S(lipo)     H(rot)  DE(clash)    DE(int)     intcor
     14.25     -16.50       0.74        0.00     106.52       1.53       0.18       2.07       ----

> <Gold.Chemscore.Fitness>
14.2499

> <Gold.Chemscore.DG>
-16.5009

> <Gold.Chemscore.ZeroCoef>
-5.4800

> <Gold.Chemscore.Hbond>
0.7434

> <Gold.Chemscore.Metal>
0.0000

> <Gold.Chemscore.Lipo>
106.5204

> <Gold.Chemscore.Internal_Hbond>
0.0000

> <Gold.Chemscore.DEClash>
0.1819

> <Gold.Chemscore.DEInternal>
2.0690

> <Gold.Chemscore.Rot>
1.5332

> <Gold.Chemscore.Internal.Correction>
   9.000000E+99

> <Gold.Chemscore.Hbonds>
donor molecule, donor type, donor heavy atom, donor atom, acceptor molecule, acceptor atom, score
      L1  H     9    40       P1  8028  0.88

> <Gold.Chemscore.Hbond.Weighted>
-2.4831

> <Gold.Chemscore.Metal.Weighted>
-0.0000

> <Gold.Chemscore.Lipo.Weighted>
-12.4629

> <Gold.Chemscore.Internal_Hbond.Weighted>
0.0000

> <Gold.Chemscore.DEClash.Weighted>
0.1819

> <Gold.Chemscore.DEInternal.Weighted>
2.0690

> <Gold.Chemscore.Rot.Weighted>
3.9251

> <Gold.Chemscore.Internal.Correction.Weighted>
   9.000000E+99

> <Gold.Protein.RotatedTorsions>
[ 6907 6896 6895 6894 ] final   53.87 input  -60.11 | X-H torsion
[ 7974 7965 7964 7962 ] final  -32.78 input  175.53 | X-H torsion
[ 8008 7997 7996 7995 ] final -105.79 input   59.86 | X-H torsion
[ 10167 10162 10161 10158 ] final -147.67 input  -65.29 | X-H torsion
[ 10718 10713 10712 10709 ] final  -39.62 input   66.30 | X-H torsion
[ 10763 10752 10751 10750 ] final  -90.53 input  -60.55 | X-H torsion
[ 11005 11000 10999 10996 ] final  126.99 input  -57.11 | X-H torsion

> <Gold.Protein.ActiveResidues>
 VAL166  LYS551  ARG553  GLY616  TRP617  ASP618  TYR619  PRO620  LYS621  CYS622 
 ASP623  PHE694  ASN695  SER759  ASP760  ASP761  ALA762  ILE779  LEU786  VAL792 
 PHE793  MET794  SER795  GLU796  ALA797  LYS798  CYS799  TRP800  GLU811  SER814 

> <Gold.Protein.RotatedAtoms>
  152.3381  134.7171  160.0271 H   0  0  0  0  0  0  0  0  0  0  0  0  # atno 6907 bound_to 6896
  151.7565  133.3325  159.3414 H   0  0  0  0  0  0  0  0  0  0  0  0  # atno 6908 bound_to 6896
  150.7463  134.6077  159.6114 H   0  0  0  0  0  0  0  0  0  0  0  0  # atno 6909 bound_to 6896
  146.0963  140.5835  142.8841 H   0  0  0  0  0  0  0  0  0  0  0  0  # atno 7974 bound_to 7965
  154.9050  140.0411  157.1914 H   0  0  0  0  0  0  0  0  0  0  0  0  # atno 8008 bound_to 7997
  154.8405  140.2913  155.5641 H   0  0  0  0  0  0  0  0  0  0  0  0  # atno 8009 bound_to 7997
  156.2992  140.2483  156.3347 H   0  0  0  0  0  0  0  0  0  0  0  0  # atno 8010 bound_to 7997
  139.7601  143.8390  152.2605 H   0  0  0  0  0  0  0  0  0  0  0  0  # atno 10167 bound_to 10162
  156.2904  130.4227  149.8244 H   0  0  0  0  0  0  0  0  0  0  0  0  # atno 10718 bound_to 10713
  154.6667  135.5301  153.8086 H   0  0  0  0  0  0  0  0  0  0  0  0  # atno 10763 bound_to 10752
  153.0475  135.6519  154.0788 H   0  0  0  0  0  0  0  0  0  0  0  0  # atno 10764 bound_to 10752
  154.0691  135.2955  155.3291 H   0  0  0  0  0  0  0  0  0  0  0  0  # atno 10765 bound_to 10752
  139.9484  134.9626  156.8788 H   0  0  0  0  0  0  0  0  0  0  0  0  # atno 11005 bound_to 11000
  144.7398  140.4910  143.6877 LP  0  0  0  0  0  0  0  0  0  0  0  0  # atno 17320 bound_to 7965
  145.5942  139.1498  143.3165 LP  0  0  0  0  0  0  0  0  0  0  0  0  # atno 17321 bound_to 7965
  139.8393  144.7217  150.9351 LP  0  0  0  0  0  0  0  0  0  0  0  0  # atno 17342 bound_to 10162
  140.7806  143.3998  151.1168 LP  0  0  0  0  0  0  0  0  0  0  0  0  # atno 17343 bound_to 10162
  156.5659  130.8404  151.3342 LP  0  0  0  0  0  0  0  0  0  0  0  0  # atno 17370 bound_to 10713
  157.7341  130.9740  150.2010 LP  0  0  0  0  0  0  0  0  0  0  0  0  # atno 17371 bound_to 10713
  140.5778  134.0381  155.7453 LP  0  0  0  0  0  0  0  0  0  0  0  0  # atno 17394 bound_to 11000
  141.1141  133.9569  157.2856 LP  0  0  0  0  0  0  0  0  0  0  0  0  # atno 17395 bound_to 11000

$$$$
