AV-unprocessed.smi:177|AV-procd|sdf|1438|dock2
  -GOLD-   2262019223D 1   1.00000     0.00000
 Structure written by MMmdl.
 61 65  0  0  0  0  0  0  0  0  1 V2000
  156.2857  139.8856  159.7651 C   0  0  0  0  0  0  0  0  0  0  0  0
  155.0492  139.7657  159.0786 O   0  0  0  0  0  0  0  0  0  0  0  0
  153.9023  139.7077  159.9209 C   0  0  1  0  0  0  0  0  0  0  0  0
  153.9710  140.9045  160.8874 C   0  0  0  0  0  0  0  0  0  0  0  0
  153.7596  142.2437  160.1610 C   0  0  0  0  0  0  0  0  0  0  0  0
  152.4455  142.2350  159.3663 C   0  0  1  0  0  0  0  0  0  0  0  0
  152.3000  143.4771  158.6872 O   0  0  0  0  0  0  0  0  0  0  0  0
  151.0509  143.5614  158.0114 C   0  0  0  0  0  0  0  0  0  0  0  0
  150.9705  142.4543  156.9497 C   0  0  0  0  0  0  0  0  0  0  0  0
  151.1931  141.1422  157.5509 N   0  0  0  0  0  0  0  0  0  0  0  0
  150.9794  140.1701  156.6319 C   0  0  0  0  0  0  0  0  0  0  0  0
  151.0446  140.4496  155.3024 N   0  0  0  0  0  0  0  0  0  0  0  0
  150.8041  139.4896  154.4046 C   0  0  0  0  0  0  0  0  0  0  0  0
  150.4740  138.2136  154.6154 N   0  0  0  0  0  0  0  0  0  0  0  0
  150.3939  137.9340  155.9480 C   0  0  0  0  0  0  0  0  0  0  0  0
  150.6353  138.8461  157.0128 C   0  0  0  0  0  0  0  0  0  0  0  0
  150.4753  138.2074  158.2349 N   0  0  0  0  0  0  0  0  0  0  0  0
  150.1568  136.9841  157.9110 C   0  0  0  0  0  0  0  0  0  0  0  0
  150.0599  136.7368  156.5587 N   0  0  0  0  0  0  0  0  0  0  0  0
  149.7117  135.4715  155.9262 C   0  0  0  0  0  0  0  0  0  0  0  0
  148.3469  134.8617  156.3810 C   0  0  0  0  0  0  0  0  0  0  0  0
  148.3408  134.5847  157.9084 C   0  0  0  0  0  0  0  0  0  0  0  0
  149.3978  133.7324  158.3022 O   0  0  0  0  0  0  0  0  0  0  0  0
  147.1616  135.8113  156.0732 C   0  0  0  0  0  0  0  0  0  0  0  0
  146.8607  135.9221  154.5676 C   0  0  0  0  0  0  0  0  0  0  0  0
  146.6008  134.6313  154.0323 O   0  0  0  0  0  0  0  0  0  0  0  0
  147.7168  133.7574  154.1416 C   0  0  0  0  0  0  0  0  0  0  0  0
  148.0717  133.5380  155.6237 C   0  0  0  0  0  0  0  0  0  0  0  0
  152.4261  141.0745  158.3436 C   0  0  2  0  0  0  0  0  0  0  0  0
  152.5905  139.7370  159.1057 C   0  0  0  0  0  0  0  0  0  0  0  0
  157.0893  140.0065  159.0390 H   0  0  0  0  0  0  0  0  0  0  0  0
  156.5110  138.9990  160.3568 H   0  0  0  0  0  0  0  0  0  0  0  0
  156.2945  140.7582  160.4192 H   0  0  0  0  0  0  0  0  0  0  0  0
  153.9430  138.7923  160.5136 H   0  0  0  0  0  0  0  0  0  0  0  0
  153.2047  140.7904  161.6551 H   0  0  0  0  0  0  0  0  0  0  0  0
  154.9283  140.9095  161.4094 H   0  0  0  0  0  0  0  0  0  0  0  0
  153.7514  143.0589  160.8850 H   0  0  0  0  0  0  0  0  0  0  0  0
  154.5964  142.4355  159.4881 H   0  0  0  0  0  0  0  0  0  0  0  0
  151.6181  142.1220  160.0701 H   0  0  0  0  0  0  0  0  0  0  0  0
  150.2288  143.4792  158.7240 H   0  0  0  0  0  0  0  0  0  0  0  0
  150.9669  144.5406  157.5401 H   0  0  0  0  0  0  0  0  0  0  0  0
  149.9957  142.4886  156.4611 H   0  0  0  0  0  0  0  0  0  0  0  0
  151.7216  142.6287  156.1778 H   0  0  0  0  0  0  0  0  0  0  0  0
  150.8825  139.7874  153.3694 H   0  0  0  0  0  0  0  0  0  0  0  0
  149.9721  136.2250  158.6571 H   0  0  0  0  0  0  0  0  0  0  0  0
  149.7346  135.6249  154.8482 H   0  0  0  0  0  0  0  0  0  0  0  0
  150.5206  134.7686  156.1299 H   0  0  0  0  0  0  0  0  0  0  0  0
  148.4064  135.5122  158.4771 H   0  0  0  0  0  0  0  0  0  0  0  0
  147.4039  134.1148  158.2099 H   0  0  0  0  0  0  0  0  0  0  0  0
  149.1994  132.8554  158.0116 H   0  0  0  0  0  0  0  0  0  0  0  0
  146.2617  135.4363  156.5629 H   0  0  0  0  0  0  0  0  0  0  0  0
  147.3315  136.8008  156.4964 H   0  0  0  0  0  0  0  0  0  0  0  0
  145.9816  136.5469  154.4108 H   0  0  0  0  0  0  0  0  0  0  0  0
  147.6789  136.3945  154.0245 H   0  0  0  0  0  0  0  0  0  0  0  0
  147.4570  132.8051  153.6791 H   0  0  0  0  0  0  0  0  0  0  0  0
  148.5632  134.1540  153.5803 H   0  0  0  0  0  0  0  0  0  0  0  0
  148.9286  132.8679  155.6992 H   0  0  0  0  0  0  0  0  0  0  0  0
  147.2382  133.0153  156.0951 H   0  0  0  0  0  0  0  0  0  0  0  0
  153.2708  141.2011  157.6642 H   0  0  0  0  0  0  0  0  0  0  0  0
  152.5537  138.8829  158.4321 H   0  0  0  0  0  0  0  0  0  0  0  0
  151.7461  139.6056  159.7839 H   0  0  0  0  0  0  0  0  0  0  0  0
  1  2  1  0  0  0  0
  1 31  1  0  0  0  0
  1 32  1  0  0  0  0
  1 33  1  0  0  0  0
  2  3  1  0  0  0  0
  3 30  1  0  0  0  0
  3  4  1  0  0  0  0
  3 34  1  0  0  0  0
  4  5  1  0  0  0  0
  4 35  1  0  0  0  0
  4 36  1  0  0  0  0
  5  6  1  0  0  0  0
  5 37  1  0  0  0  0
  5 38  1  0  0  0  0
  6 29  1  0  0  0  0
  6  7  1  0  0  0  0
  6 39  1  0  0  0  0
  7  8  1  0  0  0  0
  8  9  1  0  0  0  0
  8 40  1  0  0  0  0
  8 41  1  0  0  0  0
  9 10  1  0  0  0  0
  9 42  1  0  0  0  0
  9 43  1  0  0  0  0
 10 11  1  0  0  0  0
 10 29  1  0  0  0  0
 11 16  1  0  0  0  0
 11 12  2  0  0  0  0
 12 13  1  0  0  0  0
 13 14  2  0  0  0  0
 13 44  1  0  0  0  0
 14 15  1  0  0  0  0
 15 19  1  0  0  0  0
 15 16  2  0  0  0  0
 16 17  1  0  0  0  0
 17 18  2  0  0  0  0
 18 19  1  0  0  0  0
 18 45  1  0  0  0  0
 19 20  1  0  0  0  0
 20 21  1  0  0  0  0
 20 46  1  0  0  0  0
 20 47  1  0  0  0  0
 21 28  1  0  0  0  0
 21 22  1  0  0  0  0
 21 24  1  0  0  0  0
 22 23  1  0  0  0  0
 22 48  1  0  0  0  0
 22 49  1  0  0  0  0
 23 50  1  0  0  0  0
 24 25  1  0  0  0  0
 24 51  1  0  0  0  0
 24 52  1  0  0  0  0
 25 26  1  0  0  0  0
 25 53  1  0  0  0  0
 25 54  1  0  0  0  0
 26 27  1  0  0  0  0
 27 28  1  0  0  0  0
 27 55  1  0  0  0  0
 27 56  1  0  0  0  0
 28 57  1  0  0  0  0
 28 58  1  0  0  0  0
 29 30  1  0  0  0  0
 29 59  1  0  0  0  0
 30 60  1  0  0  0  0
 30 61  1  0  0  0  0
M  END
> <s_m_source_file>
AV-unprocessed.smi

> <i_m_source_file_index>
177

> <i_lp_mmshare_version>
43012

> <i_f3d_flags>
0

> <s_epik_input>
W0NIM11PW0NASF0oW0NIMl1bQ0gyXTEpW0NIMl1bQ0BIXShbQ0BASF0xMilOKFtDSDJdW0NIMl1PMiljKG5bY0hdbjMpYyhjMzQpbltjSF1uNFtDSDJdQzUoW0NIMl1bT0hdKVtDSDJdW0NIMl1PW0NIMl1bQ0gyXTU=

> <s_epik_cmdline>
J2VwaWtfcHl0aG9uJywgJy1waCcsICc3LjAnLCAnLXRuJywgJzgnLCAnLW1hJywgJzIwMCcsICctbWV0YWxfYmluZGluZycsICctaW1hZScsICc8aW5maWxlLm1hZT4nLCAnLW9tYWUnLCAnPG91dGZpbGUubWFlPic=

> <r_lp_tautomer_probability>
1

> <r_epik_Ionization_Penalty>
0.0065899

> <r_epik_Ionization_Penalty_Charging>
0

> <r_epik_Ionization_Penalty_Neutral>
0.0065899

> <r_epik_State_Penalty>
0.00470042

> <r_epik_Charging_Adjusted_Penalty>
0.00470042

> <i_epik_Tot_Q>
0

> <i_epik_Tot_abs_Q>
0

> <r_epik_Metal_State_Penalty>
-0

> <b_epik_Metal_Only>
0

> <s_lp_Force_Field>
OPLS_2005

> <r_lp_Energy>
42.9311

> <b_lp_Chiralities_Consistent>
1

> <s_lp_Variant>
AV-unprocessed.smi:177-2

> <Gold.Version>
5.8.1

> <Gold.Id.Protein>
6NUR|6NUR_protein|mol2

> <Gold.PLP.Fitness>
43.5116

> <Gold.PLP.PLP>
-35.4626

> <Gold.PLP.part.hbond>
-3.0000

> <Gold.PLP.part.metal>
0.0000

> <Gold.PLP.part.buried>
-5.4010

> <Gold.PLP.part.nonpolar>
-27.4283

> <Gold.PLP.part.repulsive>
0.3270

> <Gold.PLP.ligand.clash>
0.0183

> <Gold.PLP.ligand.torsion>
0.4996

> <Gold.PLP.Chemscore.Hbond>
2.0000

> <Gold.PLP.Chemscore.CHOScore>
0.9668

> <Gold.PLP.Chemscore.Metal>
0.0000

> <Gold.Chemscore.Hbonds>
donor molecule, donor type, donor heavy atom, donor atom, acceptor molecule, acceptor atom, score
      P1  H  6896  6908       L1    23  1.00
      P1  H  7997  8008       L1     2  1.00
      L1  C    13    44       P1  7957  0.96

> <Gold.PLP.Chemscore.Internal.Correction>
0.1662

> <Gold.Rescore>
     Score         DG    S(hbond)    S(metal)    S(lipo)     H(rot)  DE(clash)    DE(int)     intcor
     13.17     -16.16       1.84        0.00      95.13       2.58       0.06       2.93       ----

> <Gold.Chemscore.Fitness>
13.1707

> <Gold.Chemscore.DG>
-16.1638

> <Gold.Chemscore.ZeroCoef>
-5.4800

> <Gold.Chemscore.Hbond>
1.8444

> <Gold.Chemscore.Metal>
0.0000

> <Gold.Chemscore.Lipo>
95.1262

> <Gold.Chemscore.Internal_Hbond>
0.0000

> <Gold.Chemscore.DEClash>
0.0601

> <Gold.Chemscore.DEInternal>
2.9330

> <Gold.Chemscore.Rot>
2.5806

> <Gold.Chemscore.Internal.Correction>
   9.000000E+99

> <Gold.Chemscore.Hbonds>
donor molecule, donor type, donor heavy atom, donor atom, acceptor molecule, acceptor atom, score
      P1  H  6896  6908       L1    23  0.73
      P1  H  7997  8008       L1     2  0.54

> <Gold.Chemscore.Hbond.Weighted>
-6.1602

> <Gold.Chemscore.Metal.Weighted>
-0.0000

> <Gold.Chemscore.Lipo.Weighted>
-11.1298

> <Gold.Chemscore.Internal_Hbond.Weighted>
0.0000

> <Gold.Chemscore.DEClash.Weighted>
0.0601

> <Gold.Chemscore.DEInternal.Weighted>
2.9330

> <Gold.Chemscore.Rot.Weighted>
6.6062

> <Gold.Chemscore.Internal.Correction.Weighted>
   9.000000E+99

> <Gold.Protein.RotatedTorsions>
[ 6907 6896 6895 6894 ] final  113.08 input  -60.11 | X-H torsion
[ 7974 7965 7964 7962 ] final -100.55 input  175.53 | X-H torsion
[ 8008 7997 7996 7995 ] final -137.71 input   59.86 | X-H torsion
[ 10167 10162 10161 10158 ] final  -24.34 input  -65.29 | X-H torsion
[ 10718 10713 10712 10709 ] final  144.43 input   66.30 | X-H torsion
[ 10763 10752 10751 10750 ] final -159.17 input  -60.55 | X-H torsion
[ 11005 11000 10999 10996 ] final -171.61 input  -57.11 | X-H torsion

> <Gold.Protein.ActiveResidues>
 VAL166  LYS551  ARG553  GLY616  TRP617  ASP618  TYR619  PRO620  LYS621  CYS622 
 ASP623  PHE694  ASN695  SER759  ASP760  ASP761  ALA762  ILE779  LEU786  VAL792 
 PHE793  MET794  SER795  GLU796  ALA797  LYS798  CYS799  TRP800  GLU811  SER814 

> <Gold.Protein.RotatedAtoms>
  152.4881  133.8426  159.7159 H   0  0  0  0  0  0  0  0  0  0  0  0  # atno 6907 bound_to 6896
  150.8985  133.7140  159.2892 H   0  0  0  0  0  0  0  0  0  0  0  0  # atno 6908 bound_to 6896
  151.4589  135.1040  159.9771 H   0  0  0  0  0  0  0  0  0  0  0  0  # atno 6909 bound_to 6896
  145.2931  140.9358  143.2866 H   0  0  0  0  0  0  0  0  0  0  0  0  # atno 7974 bound_to 7965
  155.4164  140.0515  157.3028 H   0  0  0  0  0  0  0  0  0  0  0  0  # atno 8008 bound_to 7997
  154.4923  140.2125  155.9482 H   0  0  0  0  0  0  0  0  0  0  0  0  # atno 8009 bound_to 7997
  156.1358  140.3163  155.8424 H   0  0  0  0  0  0  0  0  0  0  0  0  # atno 8010 bound_to 7997
  140.7288  143.4362  151.0727 H   0  0  0  0  0  0  0  0  0  0  0  0  # atno 10167 bound_to 10162
  157.3573  131.0960  151.0947 H   0  0  0  0  0  0  0  0  0  0  0  0  # atno 10718 bound_to 10713
  154.7497  135.3089  154.8580 H   0  0  0  0  0  0  0  0  0  0  0  0  # atno 10763 bound_to 10752
  153.9371  135.6779  153.4749 H   0  0  0  0  0  0  0  0  0  0  0  0  # atno 10764 bound_to 10752
  153.1093  135.4874  154.8934 H   0  0  0  0  0  0  0  0  0  0  0  0  # atno 10765 bound_to 10752
  140.5063  134.5845  157.5004 H   0  0  0  0  0  0  0  0  0  0  0  0  # atno 11005 bound_to 11000
  144.9156  139.4474  143.6566 LP  0  0  0  0  0  0  0  0  0  0  0  0  # atno 17320 bound_to 7965
  146.3178  139.7988  142.8970 LP  0  0  0  0  0  0  0  0  0  0  0  0  # atno 17321 bound_to 7965
  139.8024  143.8065  152.3164 LP  0  0  0  0  0  0  0  0  0  0  0  0  # atno 17342 bound_to 10162
  139.8087  144.7345  150.9727 LP  0  0  0  0  0  0  0  0  0  0  0  0  # atno 17343 bound_to 10162
  157.2100  130.6433  149.5770 LP  0  0  0  0  0  0  0  0  0  0  0  0  # atno 17370 bound_to 10713
  155.9731  130.4663  150.6284 LP  0  0  0  0  0  0  0  0  0  0  0  0  # atno 17371 bound_to 10713
  139.9684  134.7333  156.0090 LP  0  0  0  0  0  0  0  0  0  0  0  0  # atno 17394 bound_to 11000
  141.1409  133.6565  156.3728 LP  0  0  0  0  0  0  0  0  0  0  0  0  # atno 17395 bound_to 11000

$$$$
