AV-unprocessed.smi:3191|AV-procd|sdf|12197|dock2
  -GOLD-   2272018 33D 1   1.00000     0.00000
 Structure written by MMmdl.
 36 37  0  0  0  0  0  0  0  0  2 V2000
  146.3445  142.0120  153.4224 C   0  0  0  0  0  0  0  0  0  0  0  0
  147.2341  140.8499  153.4815 N   0  0  0  0  0  0  0  0  0  0  0  0
  146.9561  139.7074  152.8413 C   0  0  0  0  0  0  0  0  0  0  0  0
  147.9597  138.8662  153.0989 N   0  3  0  0  0  0  0  0  0  0  0  0
  148.8834  139.4718  153.9055 C   0  0  0  0  0  0  0  0  0  0  0  0
  148.4288  140.7448  154.1568 C   0  0  0  0  0  0  0  0  0  0  0  0
  149.0012  141.8700  154.9636 C   0  0  0  0  0  0  0  0  0  0  0  0
  150.0765  141.4062  155.9629 C   0  0  0  0  0  0  0  0  0  0  0  0
  150.4452  142.4729  156.8862 N   0  0  0  0  0  0  0  0  0  0  0  0
  151.1947  142.3144  157.9881 C   0  0  0  0  0  0  0  0  0  0  0  0
  151.6545  141.2235  158.3280 O   0  0  0  0  0  0  0  0  0  0  0  0
  151.4244  143.5852  158.7468 C   0  0  2  0  0  0  0  0  0  0  0  0
  152.7807  144.2489  158.6244 C   0  0  0  0  0  0  0  0  0  0  0  0
  152.3793  143.6165  159.9385 C   0  0  0  0  0  0  0  0  0  0  0  0
  152.0155  144.5033  161.1163 C   0  0  0  0  0  0  0  0  0  0  0  0
  153.1277  142.3853  160.4346 C   0  0  0  0  0  0  0  0  0  0  0  0
  150.5622  144.2475  158.8144 H   0  0  0  0  0  0  0  0  0  0  0  0
  145.4505  141.7745  152.8441 H   0  0  0  0  0  0  0  0  0  0  0  0
  146.8716  142.8407  152.9490 H   0  0  0  0  0  0  0  0  0  0  0  0
  146.0548  142.2935  154.4350 H   0  0  0  0  0  0  0  0  0  0  0  0
  146.0920  139.5028  152.2343 H   0  0  0  0  0  0  0  0  0  0  0  0
  149.7783  138.9632  154.2336 H   0  0  0  0  0  0  0  0  0  0  0  0
  149.4207  142.6065  154.2773 H   0  0  0  0  0  0  0  0  0  0  0  0
  148.1888  142.3642  155.4977 H   0  0  0  0  0  0  0  0  0  0  0  0
  149.7042  140.5673  156.5516 H   0  0  0  0  0  0  0  0  0  0  0  0
  150.9645  141.0510  155.4371 H   0  0  0  0  0  0  0  0  0  0  0  0
  150.1037  143.3998  156.6750 H   0  0  0  0  0  0  0  0  0  0  0  0
  153.5536  143.7531  158.0398 H   0  0  0  0  0  0  0  0  0  0  0  0
  152.7913  145.3351  158.5596 H   0  0  0  0  0  0  0  0  0  0  0  0
  152.9147  144.8323  161.6380 H   0  0  0  0  0  0  0  0  0  0  0  0
  151.3829  143.9599  161.8189 H   0  0  0  0  0  0  0  0  0  0  0  0
  151.4738  145.3887  160.7822 H   0  0  0  0  0  0  0  0  0  0  0  0
  153.9153  142.6738  161.1313 H   0  0  0  0  0  0  0  0  0  0  0  0
  153.6021  141.8453  159.6162 H   0  0  0  0  0  0  0  0  0  0  0  0
  152.4435  141.7093  160.9479 H   0  0  0  0  0  0  0  0  0  0  0  0
  148.0254  137.9197  152.7459 H   0  0  0  0  0  0  0  0  0  0  0  0
  1  2  1  0  0  0  0
  1 18  1  0  0  0  0
  1 19  1  0  0  0  0
  1 20  1  0  0  0  0
  2  6  1  0  0  0  0
  2  3  1  0  0  0  0
  3  4  2  0  0  0  0
  3 21  1  0  0  0  0
  4  5  1  0  0  0  0
  4 36  1  0  0  0  0
  5  6  2  0  0  0  0
  5 22  1  0  0  0  0
  6  7  1  0  0  0  0
  7  8  1  0  0  0  0
  7 23  1  0  0  0  0
  7 24  1  0  0  0  0
  8  9  1  0  0  0  0
  8 25  1  0  0  0  0
  8 26  1  0  0  0  0
  9 10  1  0  0  0  0
  9 27  1  0  0  0  0
 10 11  2  0  0  0  0
 10 12  1  0  0  0  0
 12 17  1  0  0  0  0
 12 14  1  0  0  0  0
 12 13  1  0  0  0  0
 13 14  1  0  0  0  0
 13 28  1  0  0  0  0
 13 29  1  0  0  0  0
 14 15  1  0  0  0  0
 14 16  1  0  0  0  0
 15 30  1  0  0  0  0
 15 31  1  0  0  0  0
 15 32  1  0  0  0  0
 16 33  1  0  0  0  0
 16 34  1  0  0  0  0
 16 35  1  0  0  0  0
M  CHG  1   4   1
M  END
> <s_m_source_file>
AV-unprocessed.smi

> <i_m_source_file_index>
3191

> <i_lp_mmshare_version>
43012

> <i_f3d_flags>
0

> <s_epik_input>
W0NIM11uMVtjSF1uW2NIXWMxW0NIMl1bQ0gyXVtOSF1DKD1PKVtDQEBIXShbQ0gyXTIpQzIoW0NIM10pW0NIM10=

> <s_epik_cmdline>
J2VwaWtfcHl0aG9uJywgJy1waCcsICc3LjAnLCAnLXRuJywgJzgnLCAnLW1hJywgJzIwMCcsICctbWV0YWxfYmluZGluZycsICctaW1hZScsICc8aW5maWxlLm1hZT4nLCAnLW9tYWUnLCAnPG91dGZpbGUubWFlPic=

> <r_lp_tautomer_probability>
1

> <r_epik_Ionization_Penalty>
0.153817

> <r_epik_Ionization_Penalty_Charging>
0

> <r_epik_Ionization_Penalty_Neutral>
0.153817

> <r_epik_State_Penalty>
0.14311

> <r_epik_Charging_Adjusted_Penalty>
0.14311

> <i_epik_Tot_Q>
1

> <i_epik_Tot_abs_Q>
1

> <r_epik_Metal_State_Penalty>
0.464688

> <b_epik_Metal_Only>
0

> <s_lp_Force_Field>
OPLS_2005

> <r_lp_Energy>
13.3662

> <b_lp_Chiralities_Consistent>
1

> <s_lp_Variant>
AV-unprocessed.smi:3191-2

> <Gold.Version>
5.8.1

> <Gold.Id.Protein>
6NUR|6NUR_protein|mol2

> <Gold.PLP.Fitness>
48.1362

> <Gold.PLP.PLP>
-37.9323

> <Gold.PLP.part.hbond>
-3.0000

> <Gold.PLP.part.metal>
0.0000

> <Gold.PLP.part.buried>
1.8786

> <Gold.PLP.part.nonpolar>
-37.7548

> <Gold.PLP.part.repulsive>
0.0982

> <Gold.PLP.ligand.clash>
0.0000

> <Gold.PLP.ligand.torsion>
0.5674

> <Gold.PLP.Chemscore.Hbond>
3.0000

> <Gold.PLP.Chemscore.CHOScore>
0.7481

> <Gold.PLP.Chemscore.Metal>
0.0000

> <Gold.Chemscore.Hbonds>
donor molecule, donor type, donor heavy atom, donor atom, acceptor molecule, acceptor atom, score
      L1  H     4    36       P1  7948  1.62
      L1  H     9    27       P1  8028  0.94
      L1  C     3    21       P1 10175  0.81

> <Gold.PLP.Chemscore.Internal.Correction>
0.0944

> <Gold.Rescore>
     Score         DG    S(hbond)    S(metal)    S(lipo)     H(rot)  DE(clash)    DE(int)     intcor
     17.25     -19.10       1.96        0.00      98.96       1.76       0.33       1.53       ----

> <Gold.Chemscore.Fitness>
17.2497

> <Gold.Chemscore.DG>
-19.1037

> <Gold.Chemscore.ZeroCoef>
-5.4800

> <Gold.Chemscore.Hbond>
1.9585

> <Gold.Chemscore.Metal>
0.0000

> <Gold.Chemscore.Lipo>
98.9565

> <Gold.Chemscore.Internal_Hbond>
0.0000

> <Gold.Chemscore.DEClash>
0.3287

> <Gold.Chemscore.DEInternal>
1.5252

> <Gold.Chemscore.Rot>
1.7561

> <Gold.Chemscore.Internal.Correction>
   9.000000E+99

> <Gold.Chemscore.Hbonds>
donor molecule, donor type, donor heavy atom, donor atom, acceptor molecule, acceptor atom, score
      L1  H     4    36       P1  7948  0.79
      L1  H     9    27       P1  8028  0.88

> <Gold.Chemscore.Hbond.Weighted>
-6.5413

> <Gold.Chemscore.Metal.Weighted>
-0.0000

> <Gold.Chemscore.Lipo.Weighted>
-11.5779

> <Gold.Chemscore.Internal_Hbond.Weighted>
0.0000

> <Gold.Chemscore.DEClash.Weighted>
0.3287

> <Gold.Chemscore.DEInternal.Weighted>
1.5252

> <Gold.Chemscore.Rot.Weighted>
4.4956

> <Gold.Chemscore.Internal.Correction.Weighted>
   9.000000E+99

> <Gold.Protein.RotatedTorsions>
[ 6907 6896 6895 6894 ] final   63.24 input  -60.11 | X-H torsion
[ 7974 7965 7964 7962 ] final  168.84 input  175.53 | X-H torsion
[ 8008 7997 7996 7995 ] final -113.41 input   59.86 | X-H torsion
[ 10167 10162 10161 10158 ] final -134.48 input  -65.29 | X-H torsion
[ 10718 10713 10712 10709 ] final -179.49 input   66.30 | X-H torsion
[ 10763 10752 10751 10750 ] final   99.46 input  -60.55 | X-H torsion
[ 11005 11000 10999 10996 ] final  -50.80 input  -57.11 | X-H torsion

> <Gold.Protein.ActiveResidues>
 VAL166  LYS551  ARG553  GLY616  TRP617  ASP618  TYR619  PRO620  LYS621  CYS622 
 ASP623  PHE694  ASN695  SER759  ASP760  ASP761  ALA762  ILE779  LEU786  VAL792 
 PHE793  MET794  SER795  GLU796  ALA797  LYS798  CYS799  TRP800  GLU811  SER814 

> <Gold.Protein.RotatedAtoms>
  152.4237  134.5907  159.9973 H   0  0  0  0  0  0  0  0  0  0  0  0  # atno 6907 bound_to 6896
  151.6050  133.3347  159.3063 H   0  0  0  0  0  0  0  0  0  0  0  0  # atno 6908 bound_to 6896
  150.8126  134.7327  159.6767 H   0  0  0  0  0  0  0  0  0  0  0  0  # atno 6909 bound_to 6896
  144.7375  139.8967  143.6406 H   0  0  0  0  0  0  0  0  0  0  0  0  # atno 7974 bound_to 7965
  155.0203  140.0393  157.2435 H   0  0  0  0  0  0  0  0  0  0  0  0  # atno 8008 bound_to 7997
  154.7383  140.2744  155.6372 H   0  0  0  0  0  0  0  0  0  0  0  0  # atno 8009 bound_to 7997
  156.2858  140.2670  156.2104 H   0  0  0  0  0  0  0  0  0  0  0  0  # atno 8010 bound_to 7997
  139.8876  143.6762  152.2617 H   0  0  0  0  0  0  0  0  0  0  0  0  # atno 10167 bound_to 10162
  156.8599  130.9748  151.3084 H   0  0  0  0  0  0  0  0  0  0  0  0  # atno 10718 bound_to 10713
  153.3016  135.4113  155.1258 H   0  0  0  0  0  0  0  0  0  0  0  0  # atno 10763 bound_to 10752
  154.8551  135.3543  154.5843 H   0  0  0  0  0  0  0  0  0  0  0  0  # atno 10764 bound_to 10752
  153.6269  135.7062  153.5348 H   0  0  0  0  0  0  0  0  0  0  0  0  # atno 10765 bound_to 10752
  141.0836  133.6647  156.3784 H   0  0  0  0  0  0  0  0  0  0  0  0  # atno 11005 bound_to 11000
  146.1102  139.4106  143.0292 LP  0  0  0  0  0  0  0  0  0  0  0  0  # atno 17320 bound_to 7965
  145.7454  140.9992  143.1279 LP  0  0  0  0  0  0  0  0  0  0  0  0  # atno 17321 bound_to 7965
  139.7139  144.7615  151.1067 LP  0  0  0  0  0  0  0  0  0  0  0  0  # atno 17342 bound_to 10162
  140.7733  143.5295  150.9440 LP  0  0  0  0  0  0  0  0  0  0  0  0  # atno 17343 bound_to 10162
  157.6256  130.8689  149.9183 LP  0  0  0  0  0  0  0  0  0  0  0  0  # atno 17370 bound_to 10713
  156.0782  130.3676  150.0634 LP  0  0  0  0  0  0  0  0  0  0  0  0  # atno 17371 bound_to 10713
  140.5413  134.6117  157.5381 LP  0  0  0  0  0  0  0  0  0  0  0  0  # atno 17394 bound_to 11000
  139.9652  134.7385  156.0154 LP  0  0  0  0  0  0  0  0  0  0  0  0  # atno 17395 bound_to 11000

$$$$
