AV-unprocessed.smi:3|AV-procd|sdf|31|dock4
  -GOLD-   2262015143D 1   1.00000     0.00000
 Structure written by MMmdl.
 33 35  0  0  0  0  0  0  0  0  1 V2000
  150.8153  141.9556  156.7857 C   0  0  0  0  0  0  0  0  0  0  0  0
  151.6390  141.1444  157.6702 N   0  0  0  0  0  0  0  0  0  0  0  0
  152.2757  139.9426  157.1364 C   0  0  0  0  0  0  0  0  0  0  0  0
  151.7527  139.5876  155.7464 C   0  0  1  0  0  0  0  0  0  0  0  0
  152.5782  138.6733  154.8280 C   0  0  0  0  0  0  0  0  0  0  0  0
  151.2694  138.0647  154.3152 C   0  0  1  0  0  0  0  0  0  0  0  0
  151.2539  136.6751  154.0773 O   0  0  0  0  0  0  0  0  0  0  0  0
  150.6197  138.5610  155.6114 C   0  0  0  0  0  0  0  0  0  0  0  0
  152.1365  141.6809  158.8778 C   0  0  0  0  0  0  0  0  0  0  0  0
  152.9079  140.8675  159.6430 N   0  0  0  0  0  0  0  0  0  0  0  0
  153.3955  141.3635  160.8076 C   0  0  0  0  0  0  0  0  0  0  0  0
  153.2154  142.6026  161.3249 N   0  0  0  0  0  0  0  0  0  0  0  0
  152.4520  143.4448  160.5685 C   0  0  0  0  0  0  0  0  0  0  0  0
  152.1387  144.7094  160.8307 N   0  0  0  0  0  0  0  0  0  0  0  0
  151.3968  145.1352  159.7958 C   0  0  0  0  0  0  0  0  0  0  0  0
  151.1933  144.1226  158.7826 C   0  0  0  0  0  0  0  0  0  0  0  0
  151.8981  143.0084  159.3387 C   0  0  0  0  0  0  0  0  0  0  0  0
  151.4680  140.4843  155.1919 H   0  0  0  0  0  0  0  0  0  0  0  0
  150.8876  138.5971  153.4424 H   0  0  0  0  0  0  0  0  0  0  0  0
  150.2074  142.6649  157.3479 H   0  0  0  0  0  0  0  0  0  0  0  0
  150.1351  141.3191  156.2193 H   0  0  0  0  0  0  0  0  0  0  0  0
  151.4341  142.5005  156.0728 H   0  0  0  0  0  0  0  0  0  0  0  0
  153.3605  140.0490  157.1230 H   0  0  0  0  0  0  0  0  0  0  0  0
  152.0773  139.1203  157.8243 H   0  0  0  0  0  0  0  0  0  0  0  0
  153.1619  139.2036  154.0750 H   0  0  0  0  0  0  0  0  0  0  0  0
  153.1933  137.9589  155.3785 H   0  0  0  0  0  0  0  0  0  0  0  0
  151.0173  136.5521  153.1705 H   0  0  0  0  0  0  0  0  0  0  0  0
  150.6270  137.8111  156.4047 H   0  0  0  0  0  0  0  0  0  0  0  0
  149.6287  138.9984  155.4858 H   0  0  0  0  0  0  0  0  0  0  0  0
  154.0026  140.6887  161.3927 H   0  0  0  0  0  0  0  0  0  0  0  0
  151.0138  146.1475  159.7589 H   0  0  0  0  0  0  0  0  0  0  0  0
  150.6493  144.2095  157.8517 H   0  0  0  0  0  0  0  0  0  0  0  0
  153.6444  142.8403  162.2078 H   0  0  0  0  0  0  0  0  0  0  0  0
  1  2  1  0  0  0  0
  1 20  1  0  0  0  0
  1 21  1  0  0  0  0
  1 22  1  0  0  0  0
  2  3  1  0  0  0  0
  2  9  1  0  0  0  0
  3  4  1  0  0  0  0
  3 23  1  0  0  0  0
  3 24  1  0  0  0  0
  4 18  1  0  0  0  0
  4  8  1  0  0  0  0
  4  5  1  0  0  0  0
  5  6  1  0  0  0  0
  5 25  1  0  0  0  0
  5 26  1  0  0  0  0
  6 19  1  0  0  0  0
  6  7  1  0  0  0  0
  6  8  1  0  0  0  0
  7 27  1  0  0  0  0
  8 28  1  0  0  0  0
  8 29  1  0  0  0  0
  9 17  2  0  0  0  0
  9 10  1  0  0  0  0
 10 11  2  0  0  0  0
 11 12  1  0  0  0  0
 11 30  1  0  0  0  0
 12 13  1  0  0  0  0
 12 33  1  0  0  0  0
 13 17  1  0  0  0  0
 13 14  2  0  0  0  0
 14 15  1  0  0  0  0
 15 16  2  0  0  0  0
 15 31  1  0  0  0  0
 16 17  1  0  0  0  0
 16 32  1  0  0  0  0
M  END
> <s_m_source_file>
AV-unprocessed.smi

> <i_m_source_file_index>
3

> <i_lp_mmshare_version>
43012

> <i_f3d_flags>
0

> <s_epik_input>
W25IXTFbY0hdW2NIXWMoYzEyKWMobltjSF1uMilOKFtDSDNdKVtDSDJdW0NASF0zW0NIMl1bQ0BASF0oW09IXSlbQ0gyXTM=

> <s_epik_cmdline>
J2VwaWtfcHl0aG9uJywgJy1waCcsICc3LjAnLCAnLXRuJywgJzgnLCAnLW1hJywgJzIwMCcsICctbWV0YWxfYmluZGluZycsICctaW1hZScsICc8aW5maWxlLm1hZT4nLCAnLW9tYWUnLCAnPG91dGZpbGUubWFlPic=

> <r_lp_tautomer_probability>
1.75997e-05

> <r_epik_Ionization_Penalty>
5.52529

> <r_epik_Ionization_Penalty_Charging>
0

> <r_epik_Ionization_Penalty_Neutral>
5.52529

> <r_epik_State_Penalty>
8.99615

> <r_epik_Charging_Adjusted_Penalty>
8.99615

> <i_epik_Tot_Q>
0

> <i_epik_Tot_abs_Q>
0

> <r_epik_Metal_State_Penalty>
6.01519

> <b_epik_Metal_Only>
1

> <s_lp_Force_Field>
OPLS_2005

> <r_lp_Energy>
25.1021

> <b_lp_Chiralities_Consistent>
1

> <s_lp_Variant>
AV-unprocessed.smi:3-5

> <Gold.Version>
5.8.1

> <Gold.Id.Protein>
6NUR|6NUR_protein|mol2

> <Gold.PLP.Fitness>
45.3695

> <Gold.PLP.PLP>
-40.0260

> <Gold.PLP.part.hbond>
-2.5659

> <Gold.PLP.part.metal>
0.0000

> <Gold.PLP.part.buried>
-4.9315

> <Gold.PLP.part.nonpolar>
-33.4424

> <Gold.PLP.part.repulsive>
0.1975

> <Gold.PLP.ligand.clash>
0.9650

> <Gold.PLP.ligand.torsion>
0.4843

> <Gold.PLP.Chemscore.Hbond>
2.0000

> <Gold.PLP.Chemscore.CHOScore>
0.0000

> <Gold.PLP.Chemscore.Metal>
0.0000

> <Gold.Chemscore.Hbonds>
donor molecule, donor type, donor heavy atom, donor atom, acceptor molecule, acceptor atom, score
      L1  H     7    27       P1  7949  1.00
      P1  H 10752 10763       L1     7  1.00

> <Gold.PLP.Chemscore.Internal.Correction>
1.2770

> <Gold.Rescore>
     Score         DG    S(hbond)    S(metal)    S(lipo)     H(rot)  DE(clash)    DE(int)     intcor
     12.69     -14.40       1.50        0.00      73.59       1.84       0.05       1.66       ----

> <Gold.Chemscore.Fitness>
12.6939

> <Gold.Chemscore.DG>
-14.3982

> <Gold.Chemscore.ZeroCoef>
-5.4800

> <Gold.Chemscore.Hbond>
1.5024

> <Gold.Chemscore.Metal>
0.0000

> <Gold.Chemscore.Lipo>
73.5876

> <Gold.Chemscore.Internal_Hbond>
0.0000

> <Gold.Chemscore.DEClash>
0.0488

> <Gold.Chemscore.DEInternal>
1.6555

> <Gold.Chemscore.Rot>
1.8396

> <Gold.Chemscore.Internal.Correction>
   9.000000E+99

> <Gold.Chemscore.Hbonds>
donor molecule, donor type, donor heavy atom, donor atom, acceptor molecule, acceptor atom, score
      L1  H     7    27       P1  7949  0.25
      P1  H 10752 10763       L1     7  0.64

> <Gold.Chemscore.Hbond.Weighted>
-5.0179

> <Gold.Chemscore.Metal.Weighted>
-0.0000

> <Gold.Chemscore.Lipo.Weighted>
-8.6097

> <Gold.Chemscore.Internal_Hbond.Weighted>
0.0000

> <Gold.Chemscore.DEClash.Weighted>
0.0488

> <Gold.Chemscore.DEInternal.Weighted>
1.6555

> <Gold.Chemscore.Rot.Weighted>
4.7095

> <Gold.Chemscore.Internal.Correction.Weighted>
   9.000000E+99

> <Gold.Protein.RotatedTorsions>
[ 6907 6896 6895 6894 ] final  -48.28 input  -60.11 | X-H torsion
[ 7974 7965 7964 7962 ] final   43.57 input  175.53 | X-H torsion
[ 8008 7997 7996 7995 ] final -162.53 input   59.86 | X-H torsion
[ 10167 10162 10161 10158 ] final   87.52 input  -65.29 | X-H torsion
[ 10718 10713 10712 10709 ] final   14.76 input   66.30 | X-H torsion
[ 10763 10752 10751 10750 ] final   53.67 input  -60.55 | X-H torsion
[ 11005 11000 10999 10996 ] final  -43.42 input  -57.11 | X-H torsion

> <Gold.Protein.ActiveResidues>
 VAL166  LYS551  ARG553  GLY616  TRP617  ASP618  TYR619  PRO620  LYS621  CYS622 
 ASP623  PHE694  ASN695  SER759  ASP760  ASP761  ALA762  ILE779  LEU786  VAL792 
 PHE793  MET794  SER795  GLU796  ALA797  LYS798  CYS799  TRP800  GLU811  SER814 

> <Gold.Protein.RotatedAtoms>
  150.8922  134.8327  159.7300 H   0  0  0  0  0  0  0  0  0  0  0  0  # atno 6907 bound_to 6896
  152.4844  134.4631  159.9621 H   0  0  0  0  0  0  0  0  0  0  0  0  # atno 6908 bound_to 6896
  151.4692  133.3534  159.2856 H   0  0  0  0  0  0  0  0  0  0  0  0  # atno 6909 bound_to 6896
  146.0644  139.5172  142.9637 H   0  0  0  0  0  0  0  0  0  0  0  0  # atno 7974 bound_to 7965
  155.8082  140.0901  157.1919 H   0  0  0  0  0  0  0  0  0  0  0  0  # atno 8008 bound_to 7997
  154.3980  140.1459  156.3414 H   0  0  0  0  0  0  0  0  0  0  0  0  # atno 8009 bound_to 7997
  155.8393  140.3439  155.5624 H   0  0  0  0  0  0  0  0  0  0  0  0  # atno 8010 bound_to 7997
  139.8765  144.6464  150.8890 H   0  0  0  0  0  0  0  0  0  0  0  0  # atno 10167 bound_to 10162
  157.0438  130.6242  149.5755 H   0  0  0  0  0  0  0  0  0  0  0  0  # atno 10718 bound_to 10713
  152.9797  135.5771  154.4779 H   0  0  0  0  0  0  0  0  0  0  0  0  # atno 10763 bound_to 10752
  154.4332  135.2774  155.1900 H   0  0  0  0  0  0  0  0  0  0  0  0  # atno 10764 bound_to 10752
  154.3599  135.6191  153.5739 H   0  0  0  0  0  0  0  0  0  0  0  0  # atno 10765 bound_to 10752
  141.0382  133.6791  156.2730 H   0  0  0  0  0  0  0  0  0  0  0  0  # atno 11005 bound_to 11000
  145.6503  141.0264  143.1764 LP  0  0  0  0  0  0  0  0  0  0  0  0  # atno 17320 bound_to 7965
  144.7194  139.8083  143.7387 LP  0  0  0  0  0  0  0  0  0  0  0  0  # atno 17321 bound_to 7965
  140.7752  143.3620  151.1810 LP  0  0  0  0  0  0  0  0  0  0  0  0  # atno 17342 bound_to 10162
  139.7235  143.9185  152.2994 LP  0  0  0  0  0  0  0  0  0  0  0  0  # atno 17343 bound_to 10162
  156.0029  130.5112  150.7729 LP  0  0  0  0  0  0  0  0  0  0  0  0  # atno 17370 bound_to 10713
  157.5084  131.0923  151.0229 LP  0  0  0  0  0  0  0  0  0  0  0  0  # atno 17371 bound_to 10713
  140.6283  134.5290  157.5556 LP  0  0  0  0  0  0  0  0  0  0  0  0  # atno 17394 bound_to 11000
  139.9256  134.8062  156.1078 LP  0  0  0  0  0  0  0  0  0  0  0  0  # atno 17395 bound_to 11000

$$$$
