AV-unprocessed.smi:2881|AV-procd|sdf|11063|dock7
  -GOLD-   2272015533D 1   1.00000     0.00000
 Structure written by MMmdl.
 40 42  0  0  0  0  0  0  0  0  1 V2000
  152.0501  145.8884  160.2453 C   0  0  0  0  0  0  0  0  0  0  0  0
  151.9401  144.6178  159.4548 C   0  0  0  0  0  0  0  0  0  0  0  0
  152.0302  143.2760  159.9286 C   0  0  0  0  0  0  0  0  0  0  0  0
  151.8607  142.5099  158.8093 C   0  0  0  0  0  0  0  0  0  0  0  0
  151.8437  141.0272  158.6202 C   0  0  0  0  0  0  0  0  0  0  0  0
  151.5019  140.6700  157.1742 C   0  0  0  0  0  0  0  0  0  0  0  0
  152.3539  140.1514  156.4533 O   0  0  0  0  0  0  0  0  0  0  0  0
  150.2581  140.9624  156.7645 N   0  0  0  0  0  0  0  0  0  0  0  0
  149.7292  140.7226  155.4237 C   0  0  2  0  0  0  0  0  0  0  0  0
  148.2866  141.2640  155.3130 C   0  0  1  0  0  0  0  0  0  0  0  0
  147.9077  141.3615  153.8245 C   0  0  0  0  0  0  0  0  0  0  0  0
  147.7359  139.8829  153.4286 C   0  0  0  0  0  0  0  0  0  0  0  0
  148.0473  139.1333  154.7426 C   0  0  2  0  0  0  0  0  0  0  0  0
  147.4395  140.0795  155.7696 C   0  0  0  0  0  0  0  0  0  0  0  0
  149.5481  139.2134  155.1125 C   0  0  1  0  0  0  0  0  0  0  0  0
  150.5063  138.6484  154.0455 C   0  0  0  0  0  0  0  0  0  0  0  0
  150.4734  137.2378  154.0551 O   0  0  0  0  0  0  0  0  0  0  0  0
  151.6894  143.3907  157.7652 N   0  0  0  0  0  0  0  0  0  0  0  0
  151.7360  144.6803  158.1473 N   0  0  0  0  0  0  0  0  0  0  0  0
  151.5356  143.1283  156.8016 H   0  0  0  0  0  0  0  0  0  0  0  0
  151.8999  145.7036  161.3092 H   0  0  0  0  0  0  0  0  0  0  0  0
  151.3045  146.6186  159.9287 H   0  0  0  0  0  0  0  0  0  0  0  0
  153.0343  146.3409  160.1221 H   0  0  0  0  0  0  0  0  0  0  0  0
  152.1918  142.9297  160.9387 H   0  0  0  0  0  0  0  0  0  0  0  0
  151.1195  140.5705  159.2962 H   0  0  0  0  0  0  0  0  0  0  0  0
  152.8159  140.6038  158.8757 H   0  0  0  0  0  0  0  0  0  0  0  0
  149.6307  141.3918  157.4288 H   0  0  0  0  0  0  0  0  0  0  0  0
  150.3660  141.2144  154.6858 H   0  0  0  0  0  0  0  0  0  0  0  0
  148.1159  142.1923  155.8597 H   0  0  0  0  0  0  0  0  0  0  0  0
  146.9700  141.9035  153.6967 H   0  0  0  0  0  0  0  0  0  0  0  0
  148.6694  141.8686  153.2309 H   0  0  0  0  0  0  0  0  0  0  0  0
  146.7072  139.6944  153.1186 H   0  0  0  0  0  0  0  0  0  0  0  0
  148.3800  139.5909  152.6000 H   0  0  0  0  0  0  0  0  0  0  0  0
  147.6482  138.1188  154.7694 H   0  0  0  0  0  0  0  0  0  0  0  0
  147.6289  139.7811  156.8023 H   0  0  0  0  0  0  0  0  0  0  0  0
  146.3675  140.2363  155.6356 H   0  0  0  0  0  0  0  0  0  0  0  0
  149.6809  138.6293  156.0257 H   0  0  0  0  0  0  0  0  0  0  0  0
  150.2111  138.9893  153.0529 H   0  0  0  0  0  0  0  0  0  0  0  0
  151.5320  138.9771  154.2119 H   0  0  0  0  0  0  0  0  0  0  0  0
  149.8691  136.9456  153.3899 H   0  0  0  0  0  0  0  0  0  0  0  0
  1 21  1  0  0  0  0
  1 22  1  0  0  0  0
  1 23  1  0  0  0  0
  1  2  1  0  0  0  0
  2 19  2  0  0  0  0
  2  3  1  0  0  0  0
  3  4  2  0  0  0  0
  3 24  1  0  0  0  0
  4 18  1  0  0  0  0
  4  5  1  0  0  0  0
  5  6  1  0  0  0  0
  5 25  1  0  0  0  0
  5 26  1  0  0  0  0
  6  7  2  0  0  0  0
  6  8  1  0  0  0  0
  8  9  1  0  0  0  0
  8 27  1  0  0  0  0
  9 15  1  0  0  0  0
  9 10  1  0  0  0  0
  9 28  1  0  0  0  0
 10 14  1  0  0  0  0
 10 11  1  0  0  0  0
 10 29  1  0  0  0  0
 11 12  1  0  0  0  0
 11 30  1  0  0  0  0
 11 31  1  0  0  0  0
 12 13  1  0  0  0  0
 12 32  1  0  0  0  0
 12 33  1  0  0  0  0
 13 14  1  0  0  0  0
 13 15  1  0  0  0  0
 13 34  1  0  0  0  0
 14 35  1  0  0  0  0
 14 36  1  0  0  0  0
 15 16  1  0  0  0  0
 15 37  1  0  0  0  0
 16 17  1  0  0  0  0
 16 38  1  0  0  0  0
 16 39  1  0  0  0  0
 17 40  1  0  0  0  0
 18 19  1  0  0  0  0
 18 20  1  0  0  0  0
M  END
> <s_m_source_file>
AV-unprocessed.smi

> <i_m_source_file_index>
2881

> <i_lp_mmshare_version>
43012

> <i_f3d_flags>
0

> <s_epik_input>
W0NIM11jMVtjSF1jKG5bbkhdMSlbQ0gyXUMoPU8pW05IXVtDQEhdKFtDQEBIXTIzKVtDQEhdKFtDSDJdW09IXSlbQ0BASF0oW0NIMl0zKVtDSDJdW0NIMl0y

> <s_epik_cmdline>
J2VwaWtfcHl0aG9uJywgJy1waCcsICc3LjAnLCAnLXRuJywgJzgnLCAnLW1hJywgJzIwMCcsICctbWV0YWxfYmluZGluZycsICctaW1hZScsICc8aW5maWxlLm1hZT4nLCAnLW9tYWUnLCAnPG91dGZpbGUubWFlPic=

> <r_lp_tautomer_probability>
0.5

> <r_epik_Ionization_Penalty>
0.00013396

> <r_epik_Ionization_Penalty_Charging>
0

> <r_epik_Ionization_Penalty_Neutral>
0.00013396

> <r_epik_State_Penalty>
0.41068

> <r_epik_Charging_Adjusted_Penalty>
0.41068

> <i_epik_Tot_Q>
0

> <i_epik_Tot_abs_Q>
0

> <r_epik_Metal_State_Penalty>
0.41066

> <b_epik_Metal_Only>
0

> <s_lp_Force_Field>
OPLS_2005

> <r_lp_Energy>
47.2043

> <b_lp_Chiralities_Consistent>
1

> <s_lp_Variant>
AV-unprocessed.smi:2881-9

> <Gold.Version>
5.8.1

> <Gold.Id.Protein>
6NUR|6NUR_protein|mol2

> <Gold.PLP.Fitness>
39.7148

> <Gold.PLP.PLP>
-34.1302

> <Gold.PLP.part.hbond>
-3.0000

> <Gold.PLP.part.metal>
0.0000

> <Gold.PLP.part.buried>
-3.4141

> <Gold.PLP.part.nonpolar>
-28.3572

> <Gold.PLP.part.repulsive>
0.1580

> <Gold.PLP.ligand.clash>
0.0000

> <Gold.PLP.ligand.torsion>
0.2222

> <Gold.PLP.Chemscore.Hbond>
2.0000

> <Gold.PLP.Chemscore.CHOScore>
0.0000

> <Gold.PLP.Chemscore.Metal>
0.0000

> <Gold.Chemscore.Hbonds>
donor molecule, donor type, donor heavy atom, donor atom, acceptor molecule, acceptor atom, score
      L1  H    17    40       P1  7948  1.00
      P1  H  7997  8010       L1     7  1.00

> <Gold.PLP.Chemscore.Internal.Correction>
0.0290

> <Gold.Rescore>
     Score         DG    S(hbond)    S(metal)    S(lipo)     H(rot)  DE(clash)    DE(int)     intcor
     14.99     -16.24       1.62        0.00      95.39       2.28       0.18       1.08       ----

> <Gold.Chemscore.Fitness>
14.9867

> <Gold.Chemscore.DG>
-16.2421

> <Gold.Chemscore.ZeroCoef>
-5.4800

> <Gold.Chemscore.Hbond>
1.6249

> <Gold.Chemscore.Metal>
0.0000

> <Gold.Chemscore.Lipo>
95.3864

> <Gold.Chemscore.Internal_Hbond>
0.0000

> <Gold.Chemscore.DEClash>
0.1796

> <Gold.Chemscore.DEInternal>
1.0758

> <Gold.Chemscore.Rot>
2.2755

> <Gold.Chemscore.Internal.Correction>
   9.000000E+99

> <Gold.Chemscore.Hbonds>
donor molecule, donor type, donor heavy atom, donor atom, acceptor molecule, acceptor atom, score
      L1  H    17    40       P1  7948  0.35
      P1  H  7997  8010       L1     7  0.96

> <Gold.Chemscore.Hbond.Weighted>
-5.4271

> <Gold.Chemscore.Metal.Weighted>
-0.0000

> <Gold.Chemscore.Lipo.Weighted>
-11.1602

> <Gold.Chemscore.Internal_Hbond.Weighted>
0.0000

> <Gold.Chemscore.DEClash.Weighted>
0.1796

> <Gold.Chemscore.DEInternal.Weighted>
1.0758

> <Gold.Chemscore.Rot.Weighted>
5.8252

> <Gold.Chemscore.Internal.Correction.Weighted>
   9.000000E+99

> <Gold.Protein.RotatedTorsions>
[ 6907 6896 6895 6894 ] final -125.49 input  -60.11 | X-H torsion
[ 7974 7965 7964 7962 ] final   60.37 input  175.53 | X-H torsion
[ 8008 7997 7996 7995 ] final   72.29 input   59.86 | X-H torsion
[ 10167 10162 10161 10158 ] final  -56.86 input  -65.29 | X-H torsion
[ 10718 10713 10712 10709 ] final  158.00 input   66.30 | X-H torsion
[ 10763 10752 10751 10750 ] final -171.59 input  -60.55 | X-H torsion
[ 11005 11000 10999 10996 ] final  -67.37 input  -57.11 | X-H torsion

> <Gold.Protein.ActiveResidues>
 VAL166  LYS551  ARG553  GLY616  TRP617  ASP618  TYR619  PRO620  LYS621  CYS622 
 ASP623  PHE694  ASN695  SER759  ASP760  ASP761  ALA762  ILE779  LEU786  VAL792 
 PHE793  MET794  SER795  GLU796  ALA797  LYS798  CYS799  TRP800  GLU811  SER814 

> <Gold.Protein.RotatedAtoms>
  150.8873  133.7290  159.2914 H   0  0  0  0  0  0  0  0  0  0  0  0  # atno 6907 bound_to 6896
  151.4852  135.1053  159.9798 H   0  0  0  0  0  0  0  0  0  0  0  0  # atno 6908 bound_to 6896
  152.4798  133.8180  159.7094 H   0  0  0  0  0  0  0  0  0  0  0  0  # atno 6909 bound_to 6896
  145.8968  139.3552  143.0616 H   0  0  0  0  0  0  0  0  0  0  0  0  # atno 7974 bound_to 7965
  155.7666  140.3485  155.5225 H   0  0  0  0  0  0  0  0  0  0  0  0  # atno 8008 bound_to 7997
  155.8862  140.1010  157.1471 H   0  0  0  0  0  0  0  0  0  0  0  0  # atno 8009 bound_to 7997
  154.4029  140.1313  156.4246 H   0  0  0  0  0  0  0  0  0  0  0  0  # atno 8010 bound_to 7997
  140.6292  143.2452  151.5284 H   0  0  0  0  0  0  0  0  0  0  0  0  # atno 10167 bound_to 10162
  157.1838  131.0638  151.2117 H   0  0  0  0  0  0  0  0  0  0  0  0  # atno 10718 bound_to 10713
  154.6287  135.2884  155.0241 H   0  0  0  0  0  0  0  0  0  0  0  0  # atno 10763 bound_to 10752
  154.1410  135.6518  153.4946 H   0  0  0  0  0  0  0  0  0  0  0  0  # atno 10764 bound_to 10752
  153.0269  135.5333  154.7106 H   0  0  0  0  0  0  0  0  0  0  0  0  # atno 10765 bound_to 10752
  141.1506  133.6718  156.6283 H   0  0  0  0  0  0  0  0  0  0  0  0  # atno 11005 bound_to 11000
  145.8840  140.9345  143.0586 LP  0  0  0  0  0  0  0  0  0  0  0  0  # atno 17320 bound_to 7965
  144.6733  140.0818  143.7469 LP  0  0  0  0  0  0  0  0  0  0  0  0  # atno 17321 bound_to 7965
  139.5508  144.2399  152.1527 LP  0  0  0  0  0  0  0  0  0  0  0  0  # atno 17342 bound_to 10162
  140.1639  144.5000  150.6617 LP  0  0  0  0  0  0  0  0  0  0  0  0  # atno 17343 bound_to 10162
  157.3927  130.7290  149.6709 LP  0  0  0  0  0  0  0  0  0  0  0  0  # atno 17370 bound_to 10713
  155.9721  130.4142  150.4120 LP  0  0  0  0  0  0  0  0  0  0  0  0  # atno 17371 bound_to 10713
  140.3487  134.7787  157.4451 LP  0  0  0  0  0  0  0  0  0  0  0  0  # atno 17394 bound_to 11000
  140.0879  134.5642  155.8474 LP  0  0  0  0  0  0  0  0  0  0  0  0  # atno 17395 bound_to 11000

$$$$
