AV-unprocessed.smi:959|AV-procd|sdf|4270|dock1
  -GOLD-   22720 2173D 1   1.00000     0.00000
 Structure written by MMmdl.
 33 34  0  0  0  0  0  0  0  0  2 V2000
  152.4013  144.5051  159.0613 C   0  0  0  0  0  0  0  0  0  0  0  0
  152.0806  143.3492  160.0250 C   0  0  0  0  0  0  0  0  0  0  0  0
  152.5025  143.6828  161.4637 C   0  0  0  0  0  0  0  0  0  0  0  0
  152.6779  142.0872  159.5958 N   0  0  0  0  0  0  0  0  0  0  0  0
  153.6115  141.3438  160.2162 C   0  0  0  0  0  0  0  0  0  0  0  0
  153.9531  140.2199  159.5902 N   0  0  0  0  0  0  0  0  0  0  0  0
  153.1648  140.2013  158.4610 N   0  0  0  0  0  0  0  0  0  0  0  0
  152.4108  141.3070  158.5220 C   0  0  0  0  0  0  0  0  0  0  0  0
  151.3940  141.6549  157.4689 C   0  0  1  0  0  0  0  0  0  0  0  0
  151.3160  140.5776  156.3710 C   0  0  0  0  0  0  0  0  0  0  0  0
  150.2597  140.9531  155.3205 C   0  0  0  0  0  0  0  0  0  0  0  0
  148.8977  141.2222  155.9817 C   0  0  0  0  0  0  0  0  0  0  0  0
  149.0193  142.2665  157.0221 N   0  3  0  0  0  0  0  0  0  0  0  0
  149.9997  141.9213  158.0754 C   0  0  0  0  0  0  0  0  0  0  0  0
  151.8579  145.4073  159.3441 H   0  0  0  0  0  0  0  0  0  0  0  0
  152.1143  144.2588  158.0385 H   0  0  0  0  0  0  0  0  0  0  0  0
  153.4632  144.7527  159.0640 H   0  0  0  0  0  0  0  0  0  0  0  0
  150.9980  143.2258  160.0006 H   0  0  0  0  0  0  0  0  0  0  0  0
  152.0284  144.6025  161.8078 H   0  0  0  0  0  0  0  0  0  0  0  0
  153.5822  143.8178  161.5375 H   0  0  0  0  0  0  0  0  0  0  0  0
  152.2195  142.8886  162.1549 H   0  0  0  0  0  0  0  0  0  0  0  0
  154.0633  141.6294  161.1545 H   0  0  0  0  0  0  0  0  0  0  0  0
  151.6968  142.5840  156.9885 H   0  0  0  0  0  0  0  0  0  0  0  0
  152.2889  140.4554  155.8932 H   0  0  0  0  0  0  0  0  0  0  0  0
  151.0624  139.6124  156.8121 H   0  0  0  0  0  0  0  0  0  0  0  0
  150.5845  141.8401  154.7749 H   0  0  0  0  0  0  0  0  0  0  0  0
  150.1661  140.1541  154.5844 H   0  0  0  0  0  0  0  0  0  0  0  0
  148.1716  141.5460  155.2357 H   0  0  0  0  0  0  0  0  0  0  0  0
  148.5068  140.3090  156.4326 H   0  0  0  0  0  0  0  0  0  0  0  0
  149.3108  143.1270  156.5806 H   0  0  0  0  0  0  0  0  0  0  0  0
  149.6386  141.0452  158.6165 H   0  0  0  0  0  0  0  0  0  0  0  0
  150.0479  142.7415  158.7928 H   0  0  0  0  0  0  0  0  0  0  0  0
  148.1154  142.4097  157.4498 H   0  0  0  0  0  0  0  0  0  0  0  0
  1  2  1  0  0  0  0
  1 15  1  0  0  0  0
  1 16  1  0  0  0  0
  1 17  1  0  0  0  0
  2  3  1  0  0  0  0
  2  4  1  0  0  0  0
  2 18  1  0  0  0  0
  3 19  1  0  0  0  0
  3 20  1  0  0  0  0
  3 21  1  0  0  0  0
  4  8  1  0  0  0  0
  4  5  1  0  0  0  0
  5  6  2  0  0  0  0
  5 22  1  0  0  0  0
  6  7  1  0  0  0  0
  7  8  2  0  0  0  0
  8  9  1  0  0  0  0
  9 14  1  0  0  0  0
  9 10  1  0  0  0  0
  9 23  1  0  0  0  0
 10 11  1  0  0  0  0
 10 24  1  0  0  0  0
 10 25  1  0  0  0  0
 11 12  1  0  0  0  0
 11 26  1  0  0  0  0
 11 27  1  0  0  0  0
 12 13  1  0  0  0  0
 12 28  1  0  0  0  0
 12 29  1  0  0  0  0
 13 14  1  0  0  0  0
 13 30  1  0  0  0  0
 13 33  1  0  0  0  0
 14 31  1  0  0  0  0
 14 32  1  0  0  0  0
M  CHG  1  13   1
M  END
> <s_m_source_file>
AV-unprocessed.smi

> <i_m_source_file_index>
959

> <i_lp_mmshare_version>
43012

> <i_f3d_flags>
0

> <s_epik_input>
W0NIM11bQ0hdKFtDSDNdKW4xW2NIXW5uYzFbQ0BASF0yW0NIMl1bQ0gyXVtDSDJdW05IXVtDSDJdMg==

> <s_epik_cmdline>
J2VwaWtfcHl0aG9uJywgJy1waCcsICc3LjAnLCAnLXRuJywgJzgnLCAnLW1hJywgJzIwMCcsICctbWV0YWxfYmluZGluZycsICctaW1hZScsICc8aW5maWxlLm1hZT4nLCAnLW9tYWUnLCAnPG91dGZpbGUubWFlPic=

> <r_lp_tautomer_probability>
1

> <r_epik_Ionization_Penalty>
0.000442722

> <r_epik_Ionization_Penalty_Charging>
0.000426856

> <r_epik_Ionization_Penalty_Neutral>
1.58656e-05

> <r_epik_State_Penalty>
-0

> <r_epik_Charging_Adjusted_Penalty>
0.000426856

> <i_epik_Tot_Q>
1

> <i_epik_Tot_abs_Q>
1

> <r_epik_Metal_State_Penalty>
-0

> <b_epik_Metal_Only>
0

> <s_lp_Force_Field>
OPLS_2005

> <r_lp_Energy>
20.311

> <b_lp_Chiralities_Consistent>
1

> <s_lp_Variant>
AV-unprocessed.smi:959-2

> <Gold.Version>
5.8.1

> <Gold.Id.Protein>
6NUR|6NUR_protein|mol2

> <Gold.PLP.Fitness>
41.5845

> <Gold.PLP.PLP>
-32.9805

> <Gold.PLP.part.hbond>
-2.0000

> <Gold.PLP.part.metal>
0.0000

> <Gold.PLP.part.buried>
-2.4666

> <Gold.PLP.part.nonpolar>
-27.3567

> <Gold.PLP.part.repulsive>
0.0182

> <Gold.PLP.ligand.clash>
0.0000

> <Gold.PLP.ligand.torsion>
0.1745

> <Gold.PLP.Chemscore.Hbond>
2.9600

> <Gold.PLP.Chemscore.CHOScore>
0.0000

> <Gold.PLP.Chemscore.Metal>
0.0000

> <Gold.Chemscore.Hbonds>
donor molecule, donor type, donor heavy atom, donor atom, acceptor molecule, acceptor atom, score
      L1  H    13    30       P1  8028  1.98
      P1  H  7997  8009       L1     7  0.96

> <Gold.PLP.Chemscore.Internal.Correction>
0.0730

> <Gold.Rescore>
     Score         DG    S(hbond)    S(metal)    S(lipo)     H(rot)  DE(clash)    DE(int)     intcor
     14.46     -14.75       1.37        0.00      67.23       1.24       0.14       0.16       ----

> <Gold.Chemscore.Fitness>
14.4554

> <Gold.Chemscore.DG>
-14.7496

> <Gold.Chemscore.ZeroCoef>
-5.4800

> <Gold.Chemscore.Hbond>
1.3673

> <Gold.Chemscore.Metal>
0.0000

> <Gold.Chemscore.Lipo>
67.2316

> <Gold.Chemscore.Internal_Hbond>
0.0000

> <Gold.Chemscore.DEClash>
0.1363

> <Gold.Chemscore.DEInternal>
0.1578

> <Gold.Chemscore.Rot>
1.2357

> <Gold.Chemscore.Internal.Correction>
   9.000000E+99

> <Gold.Chemscore.Hbonds>
donor molecule, donor type, donor heavy atom, donor atom, acceptor molecule, acceptor atom, score
      L1  H    13    30       P1  8028  0.94
      P1  H  7997  8009       L1     7  0.22

> <Gold.Chemscore.Hbond.Weighted>
-4.5669

> <Gold.Chemscore.Metal.Weighted>
-0.0000

> <Gold.Chemscore.Lipo.Weighted>
-7.8661

> <Gold.Chemscore.Internal_Hbond.Weighted>
0.0000

> <Gold.Chemscore.DEClash.Weighted>
0.1363

> <Gold.Chemscore.DEInternal.Weighted>
0.1578

> <Gold.Chemscore.Rot.Weighted>
3.1634

> <Gold.Chemscore.Internal.Correction.Weighted>
   9.000000E+99

> <Gold.Protein.RotatedTorsions>
[ 6907 6896 6895 6894 ] final  -33.40 input  -60.11 | X-H torsion
[ 7974 7965 7964 7962 ] final -137.20 input  175.53 | X-H torsion
[ 8008 7997 7996 7995 ] final  154.09 input   59.86 | X-H torsion
[ 10167 10162 10161 10158 ] final   12.32 input  -65.29 | X-H torsion
[ 10718 10713 10712 10709 ] final   -2.45 input   66.30 | X-H torsion
[ 10763 10752 10751 10750 ] final  -41.24 input  -60.55 | X-H torsion
[ 11005 11000 10999 10996 ] final -143.90 input  -57.11 | X-H torsion

> <Gold.Protein.ActiveResidues>
 VAL166  LYS551  ARG553  GLY616  TRP617  ASP618  TYR619  PRO620  LYS621  CYS622 
 ASP623  PHE694  ASN695  SER759  ASP760  ASP761  ALA762  ILE779  LEU786  VAL792 
 PHE793  MET794  SER795  GLU796  ALA797  LYS798  CYS799  TRP800  GLU811  SER814 

> <Gold.Protein.RotatedAtoms>
  151.0661  134.9768  159.8284 H   0  0  0  0  0  0  0  0  0  0  0  0  # atno 6907 bound_to 6896
  152.5402  134.2357  159.8852 H   0  0  0  0  0  0  0  0  0  0  0  0  # atno 6908 bound_to 6896
  151.2379  133.4372  159.2640 H   0  0  0  0  0  0  0  0  0  0  0  0  # atno 6909 bound_to 6896
  144.8862  140.6578  143.5174 H   0  0  0  0  0  0  0  0  0  0  0  0  # atno 7974 bound_to 7965
  156.2549  140.1976  156.6591 H   0  0  0  0  0  0  0  0  0  0  0  0  # atno 8008 bound_to 7997
  154.6478  140.0575  156.9946 H   0  0  0  0  0  0  0  0  0  0  0  0  # atno 8009 bound_to 7997
  155.1464  140.3247  155.4443 H   0  0  0  0  0  0  0  0  0  0  0  0  # atno 8010 bound_to 7997
  140.6075  143.8477  150.7030 H   0  0  0  0  0  0  0  0  0  0  0  0  # atno 10167 bound_to 10162
  156.7907  130.5360  149.5736 H   0  0  0  0  0  0  0  0  0  0  0  0  # atno 10718 bound_to 10713
  153.9593  135.6741  153.4745 H   0  0  0  0  0  0  0  0  0  0  0  0  # atno 10763 bound_to 10752
  153.0846  135.4905  154.8568 H   0  0  0  0  0  0  0  0  0  0  0  0  # atno 10764 bound_to 10752
  154.7282  135.3132  154.8896 H   0  0  0  0  0  0  0  0  0  0  0  0  # atno 10765 bound_to 10752
  140.8079  134.2780  157.4953 H   0  0  0  0  0  0  0  0  0  0  0  0  # atno 11005 bound_to 11000
  145.3864  139.1626  143.4252 LP  0  0  0  0  0  0  0  0  0  0  0  0  # atno 17320 bound_to 7965
  146.3026  140.3950  142.8698 LP  0  0  0  0  0  0  0  0  0  0  0  0  # atno 17321 bound_to 7965
  140.2037  143.3938  152.1772 LP  0  0  0  0  0  0  0  0  0  0  0  0  # atno 17342 bound_to 10162
  139.5336  144.7186  151.4970 LP  0  0  0  0  0  0  0  0  0  0  0  0  # atno 17343 bound_to 10162
  156.1161  130.6076  151.0122 LP  0  0  0  0  0  0  0  0  0  0  0  0  # atno 17370 bound_to 10713
  157.6602  131.0882  150.7856 LP  0  0  0  0  0  0  0  0  0  0  0  0  # atno 17371 bound_to 10713
  139.8716  134.9466  156.3944 LP  0  0  0  0  0  0  0  0  0  0  0  0  # atno 17394 bound_to 11000
  140.9228  133.7633  155.9928 LP  0  0  0  0  0  0  0  0  0  0  0  0  # atno 17395 bound_to 11000

$$$$
