AV-unprocessed.smi:109|AV-procd|sdf|1060|dock6
  -GOLD-   2262018133D 1   1.00000     0.00000
 Structure written by MMmdl.
 58 61  0  0  0  0  0  0  0  0  1 V2000
  148.2623  141.3456  154.1570 O   0  0  0  0  0  0  0  0  0  0  0  0
  147.8843  140.5333  155.2472 C   0  0  0  0  0  0  0  0  0  0  0  0
  148.4589  141.1096  156.5509 C   0  0  0  0  0  0  0  0  0  0  0  0
  149.9997  141.0208  156.6217 C   0  0  1  0  0  0  0  0  0  0  0  0
  150.5830  141.5481  155.3882 N   0  0  0  0  0  0  0  0  0  0  0  0
  151.4785  140.8380  154.6659 C   0  0  0  0  0  0  0  0  0  0  0  0
  152.5302  141.4408  154.0527 N   0  0  0  0  0  0  0  0  0  0  0  0
  153.4025  140.7110  153.3519 C   0  0  0  0  0  0  0  0  0  0  0  0
  153.4106  139.3927  153.1454 N   0  0  0  0  0  0  0  0  0  0  0  0
  152.3580  138.7794  153.7599 C   0  0  0  0  0  0  0  0  0  0  0  0
  151.3540  139.4311  154.5299 C   0  0  0  0  0  0  0  0  0  0  0  0
  150.4373  138.4984  154.9955 N   0  0  0  0  0  0  0  0  0  0  0  0
  150.8805  137.3619  154.5301 C   0  0  0  0  0  0  0  0  0  0  0  0
  152.0322  137.4364  153.7780 N   0  0  0  0  0  0  0  0  0  0  0  0
  152.7650  136.2964  153.1344 C   0  0  2  0  0  0  0  0  0  0  0  0
  151.8551  135.4773  152.4596 O   0  0  0  0  0  0  0  0  0  0  0  0
  151.8866  134.1506  152.9864 C   0  0  1  0  0  0  0  0  0  0  0  0
  151.5703  133.1418  151.8718 C   0  0  0  0  0  0  0  0  0  0  0  0
  151.0656  133.8149  150.7382 O   0  0  0  0  0  0  0  0  0  0  0  0
  153.3116  134.0383  153.5311 C   0  0  2  0  0  0  0  0  0  0  0  0
  153.4769  132.9901  154.4669 O   0  0  0  0  0  0  0  0  0  0  0  0
  153.5353  135.4163  154.1371 C   0  0  2  0  0  0  0  0  0  0  0  0
  153.0517  135.5121  155.4686 O   0  0  0  0  0  0  0  0  0  0  0  0
  150.6179  141.7165  157.8661 C   0  0  0  0  0  0  0  0  0  0  0  0
  150.2011  143.1982  157.9919 C   0  0  0  0  0  0  0  0  0  0  0  0
  150.7454  143.8279  159.2846 C   0  0  0  0  0  0  0  0  0  0  0  0
  152.2731  143.6863  159.3702 C   0  0  0  0  0  0  0  0  0  0  0  0
  152.7000  142.2155  159.2467 C   0  0  0  0  0  0  0  0  0  0  0  0
  152.1553  141.5827  157.9554 C   0  0  0  0  0  0  0  0  0  0  0  0
  153.4185  136.7695  152.4004 H   0  0  0  0  0  0  0  0  0  0  0  0
  151.1758  134.0622  153.8098 H   0  0  0  0  0  0  0  0  0  0  0  0
  154.0087  133.8899  152.7046 H   0  0  0  0  0  0  0  0  0  0  0  0
  154.5896  135.6947  154.1339 H   0  0  0  0  0  0  0  0  0  0  0  0
  148.3440  140.7996  153.3900 H   0  0  0  0  0  0  0  0  0  0  0  0
  146.7959  140.4882  155.2940 H   0  0  0  0  0  0  0  0  0  0  0  0
  148.2466  139.5197  155.0732 H   0  0  0  0  0  0  0  0  0  0  0  0
  148.1366  142.1454  156.6644 H   0  0  0  0  0  0  0  0  0  0  0  0
  148.0160  140.5610  157.3809 H   0  0  0  0  0  0  0  0  0  0  0  0
  150.2421  139.9595  156.6881 H   0  0  0  0  0  0  0  0  0  0  0  0
  150.3262  142.4969  155.1562 H   0  0  0  0  0  0  0  0  0  0  0  0
  154.2112  141.2608  152.8932 H   0  0  0  0  0  0  0  0  0  0  0  0
  150.3757  136.4273  154.7273 H   0  0  0  0  0  0  0  0  0  0  0  0
  152.4497  132.5547  151.6056 H   0  0  0  0  0  0  0  0  0  0  0  0
  150.8023  132.4429  152.2045 H   0  0  0  0  0  0  0  0  0  0  0  0
  151.0755  133.2193  150.0049 H   0  0  0  0  0  0  0  0  0  0  0  0
  154.4020  132.8142  154.5521 H   0  0  0  0  0  0  0  0  0  0  0  0
  152.3778  134.8609  155.5896 H   0  0  0  0  0  0  0  0  0  0  0  0
  150.2072  141.2174  158.7450 H   0  0  0  0  0  0  0  0  0  0  0  0
  150.5668  143.7740  157.1424 H   0  0  0  0  0  0  0  0  0  0  0  0
  149.1139  143.2815  157.9769 H   0  0  0  0  0  0  0  0  0  0  0  0
  150.4670  144.8811  159.3304 H   0  0  0  0  0  0  0  0  0  0  0  0
  150.2841  143.3478  160.1486 H   0  0  0  0  0  0  0  0  0  0  0  0
  152.7394  144.2697  158.5754 H   0  0  0  0  0  0  0  0  0  0  0  0
  152.6338  144.1012  160.3117 H   0  0  0  0  0  0  0  0  0  0  0  0
  153.7876  142.1413  159.2668 H   0  0  0  0  0  0  0  0  0  0  0  0
  152.3365  141.6560  160.1096 H   0  0  0  0  0  0  0  0  0  0  0  0
  152.4466  140.5327  157.9184 H   0  0  0  0  0  0  0  0  0  0  0  0
  152.6264  142.0656  157.0990 H   0  0  0  0  0  0  0  0  0  0  0  0
  1  2  1  0  0  0  0
  1 34  1  0  0  0  0
  2  3  1  0  0  0  0
  2 35  1  0  0  0  0
  2 36  1  0  0  0  0
  3  4  1  0  0  0  0
  3 37  1  0  0  0  0
  3 38  1  0  0  0  0
  4  5  1  0  0  0  0
  4 24  1  0  0  0  0
  4 39  1  0  0  0  0
  5  6  1  0  0  0  0
  5 40  1  0  0  0  0
  6 11  1  0  0  0  0
  6  7  2  0  0  0  0
  7  8  1  0  0  0  0
  8  9  2  0  0  0  0
  8 41  1  0  0  0  0
  9 10  1  0  0  0  0
 10 14  1  0  0  0  0
 10 11  2  0  0  0  0
 11 12  1  0  0  0  0
 12 13  2  0  0  0  0
 13 14  1  0  0  0  0
 13 42  1  0  0  0  0
 14 15  1  0  0  0  0
 15 30  1  0  0  0  0
 15 22  1  0  0  0  0
 15 16  1  0  0  0  0
 16 17  1  0  0  0  0
 17 31  1  0  0  0  0
 17 18  1  0  0  0  0
 17 20  1  0  0  0  0
 18 19  1  0  0  0  0
 18 43  1  0  0  0  0
 18 44  1  0  0  0  0
 19 45  1  0  0  0  0
 20 32  1  0  0  0  0
 20 21  1  0  0  0  0
 20 22  1  0  0  0  0
 21 46  1  0  0  0  0
 22 33  1  0  0  0  0
 22 23  1  0  0  0  0
 23 47  1  0  0  0  0
 24 29  1  0  0  0  0
 24 25  1  0  0  0  0
 24 48  1  0  0  0  0
 25 26  1  0  0  0  0
 25 49  1  0  0  0  0
 25 50  1  0  0  0  0
 26 27  1  0  0  0  0
 26 51  1  0  0  0  0
 26 52  1  0  0  0  0
 27 28  1  0  0  0  0
 27 53  1  0  0  0  0
 27 54  1  0  0  0  0
 28 29  1  0  0  0  0
 28 55  1  0  0  0  0
 28 56  1  0  0  0  0
 29 57  1  0  0  0  0
 29 58  1  0  0  0  0
M  END
> <s_m_source_file>
AV-unprocessed.smi

> <i_m_source_file_index>
109

> <i_lp_mmshare_version>
43012

> <i_f3d_flags>
0

> <s_epik_input>
W0NIMl0xW0NIMl1bQ0gyXVtDSDJdW0NIMl1bQ0hdMVtDQEhdKFtDSDJdW0NIMl1bT0hdKVtOSF1jKG5bY0hdbjIpYyhjMjMpbltjSF1uM1tDQEBIXTRPW0NASF0oW0NIMl1bT0hdKVtDQEBIXShbT0hdKVtDQEhdNFtPSF0=

> <s_epik_cmdline>
J2VwaWtfcHl0aG9uJywgJy1waCcsICc3LjAnLCAnLXRuJywgJzgnLCAnLW1hJywgJzIwMCcsICctbWV0YWxfYmluZGluZycsICctaW1hZScsICc8aW5maWxlLm1hZT4nLCAnLW9tYWUnLCAnPG91dGZpbGUubWFlPic=

> <r_lp_tautomer_probability>
1

> <r_epik_Ionization_Penalty>
0.000793976

> <r_epik_Ionization_Penalty_Charging>
0

> <r_epik_Ionization_Penalty_Neutral>
0.000793976

> <r_epik_State_Penalty>
-0

> <r_epik_Charging_Adjusted_Penalty>
0

> <i_epik_Tot_Q>
0

> <i_epik_Tot_abs_Q>
0

> <r_epik_Metal_State_Penalty>
-0

> <b_epik_Metal_Only>
0

> <s_epik_Chemistry_Notes>
This compound contains an acetal/aminal-like group ( X-CH(R)-Y where X, Y are N, S, or O) that may be acid/base labile, releasing an aldehyde.

> <s_lp_Force_Field>
OPLS_2005

> <r_lp_Energy>
62.1287

> <b_lp_Chiralities_Consistent>
1

> <s_lp_Variant>
AV-unprocessed.smi:109-30

> <Gold.Version>
5.8.1

> <Gold.Id.Protein>
6NUR|6NUR_protein|mol2

> <Gold.PLP.Fitness>
56.1432

> <Gold.PLP.PLP>
-46.8568

> <Gold.PLP.part.hbond>
-7.0812

> <Gold.PLP.part.metal>
0.0000

> <Gold.PLP.part.buried>
-2.4501

> <Gold.PLP.part.nonpolar>
-38.4639

> <Gold.PLP.part.repulsive>
2.1110

> <Gold.PLP.ligand.clash>
0.0000

> <Gold.PLP.ligand.torsion>
1.4873

> <Gold.PLP.Chemscore.Hbond>
3.9417

> <Gold.PLP.Chemscore.CHOScore>
0.0000

> <Gold.PLP.Chemscore.Metal>
0.0000

> <Gold.PLP.Chemscore.Internal.Correction>
0.4361

> <Gold.Rescore>
     Score         DG    S(hbond)    S(metal)    S(lipo)     H(rot)  DE(clash)    DE(int)     intcor
      4.44     -10.60       2.50        0.00      91.92       5.47       2.01       4.15       ----

> <Gold.Chemscore.Fitness>
4.4397

> <Gold.Chemscore.DG>
-10.5977

> <Gold.Chemscore.ZeroCoef>
-5.4800

> <Gold.Chemscore.Hbond>
2.5021

> <Gold.Chemscore.Metal>
0.0000

> <Gold.Chemscore.Lipo>
91.9152

> <Gold.Chemscore.Internal_Hbond>
0.0000

> <Gold.Chemscore.DEClash>
2.0084

> <Gold.Chemscore.DEInternal>
4.1497

> <Gold.Chemscore.Rot>
5.4662

> <Gold.Chemscore.Internal.Correction>
   9.000000E+99

> <Gold.Chemscore.Hbond.Weighted>
-8.3572

> <Gold.Chemscore.Metal.Weighted>
-0.0000

> <Gold.Chemscore.Lipo.Weighted>
-10.7541

> <Gold.Chemscore.Internal_Hbond.Weighted>
0.0000

> <Gold.Chemscore.DEClash.Weighted>
2.0084

> <Gold.Chemscore.DEInternal.Weighted>
4.1497

> <Gold.Chemscore.Rot.Weighted>
13.9935

> <Gold.Chemscore.Internal.Correction.Weighted>
   9.000000E+99

> <Gold.Protein.RotatedTorsions>
[ 6907 6896 6895 6894 ] final   15.44 input  -60.11 | X-H torsion
[ 7974 7965 7964 7962 ] final  -56.25 input  175.53 | X-H torsion
[ 8008 7997 7996 7995 ] final   88.32 input   59.86 | X-H torsion
[ 10167 10162 10161 10158 ] final   41.99 input  -65.29 | X-H torsion
[ 10718 10713 10712 10709 ] final -154.93 input   66.30 | X-H torsion
[ 10763 10752 10751 10750 ] final   52.59 input  -60.55 | X-H torsion
[ 11005 11000 10999 10996 ] final  -97.99 input  -57.11 | X-H torsion

> <Gold.Protein.ActiveResidues>
 VAL166  LYS551  ARG553  GLY616  TRP617  ASP618  TYR619  PRO620  LYS621  CYS622 
 ASP623  PHE694  ASN695  SER759  ASP760  ASP761  ALA762  ILE779  LEU786  VAL792 
 PHE793  MET794  SER795  GLU796  ALA797  LYS798  CYS799  TRP800  GLU811  SER814 

> <Gold.Protein.RotatedAtoms>
  151.8182  135.0660  160.0421 H   0  0  0  0  0  0  0  0  0  0  0  0  # atno 6907 bound_to 6896
  152.2971  133.5614  159.5603 H   0  0  0  0  0  0  0  0  0  0  0  0  # atno 6908 bound_to 6896
  150.7256  134.0261  159.3760 H   0  0  0  0  0  0  0  0  0  0  0  0  # atno 6909 bound_to 6896
  145.8648  140.8259  142.9918 H   0  0  0  0  0  0  0  0  0  0  0  0  # atno 7974 bound_to 7965
  155.9864  140.3373  155.6711 H   0  0  0  0  0  0  0  0  0  0  0  0  # atno 8008 bound_to 7997
  155.6480  140.0702  157.2614 H   0  0  0  0  0  0  0  0  0  0  0  0  # atno 8009 bound_to 7997
  154.4206  140.1731  156.1631 H   0  0  0  0  0  0  0  0  0  0  0  0  # atno 8010 bound_to 7997
  140.3588  144.2255  150.6139 H   0  0  0  0  0  0  0  0  0  0  0  0  # atno 10167 bound_to 10162
  156.5059  130.8413  151.2627 H   0  0  0  0  0  0  0  0  0  0  0  0  # atno 10718 bound_to 10713
  152.9790  135.5807  154.4603 H   0  0  0  0  0  0  0  0  0  0  0  0  # atno 10763 bound_to 10752
  154.4180  135.2771  155.1996 H   0  0  0  0  0  0  0  0  0  0  0  0  # atno 10764 bound_to 10752
  154.3758  135.6158  153.5818 H   0  0  0  0  0  0  0  0  0  0  0  0  # atno 10765 bound_to 10752
  141.1360  133.8212  157.0780 H   0  0  0  0  0  0  0  0  0  0  0  0  # atno 11005 bound_to 11000
  144.6726  140.1150  143.7453 LP  0  0  0  0  0  0  0  0  0  0  0  0  # atno 17320 bound_to 7965
  145.9206  139.2543  143.1384 LP  0  0  0  0  0  0  0  0  0  0  0  0  # atno 17321 bound_to 7965
  140.5147  143.2281  151.8481 LP  0  0  0  0  0  0  0  0  0  0  0  0  # atno 17342 bound_to 10162
  139.4817  144.4908  151.9188 LP  0  0  0  0  0  0  0  0  0  0  0  0  # atno 17343 bound_to 10162
  157.7457  130.9966  150.2785 LP  0  0  0  0  0  0  0  0  0  0  0  0  # atno 17370 bound_to 10713
  156.3287  130.3797  149.7510 LP  0  0  0  0  0  0  0  0  0  0  0  0  # atno 17371 bound_to 10713
  140.0469  134.9825  157.1066 LP  0  0  0  0  0  0  0  0  0  0  0  0  # atno 17394 bound_to 11000
  140.4049  134.2043  155.7163 LP  0  0  0  0  0  0  0  0  0  0  0  0  # atno 17395 bound_to 11000

$$$$
