AV-unprocessed.smi:1496|AV-procd|sdf|6055|dock1
  -GOLD-   22720 6173D 1   1.00000     0.00000
 Structure written by MMmdl.
 42 43  0  0  0  0  0  0  0  0  1 V2000
  150.4759  139.1105  156.4828 C   0  0  0  0  0  0  0  0  0  0  0  0
  150.3774  139.1050  154.9430 C   0  0  0  0  0  0  0  0  0  0  0  0
  151.5572  138.3119  154.3597 C   0  0  0  0  0  0  0  0  0  0  0  0
  149.0416  138.4946  154.4566 C   0  0  0  0  0  0  0  0  0  0  0  0
  147.8890  139.3496  154.7316 N   0  0  0  0  0  0  0  0  0  0  0  0
  146.6305  138.7669  154.2653 C   0  0  0  0  0  0  0  0  0  0  0  0
  146.4788  138.6616  152.7346 C   0  0  0  0  0  0  0  0  0  0  0  0
  146.6988  137.3004  152.2566 N   0  0  0  0  0  0  0  0  0  0  0  0
  145.7346  136.3978  152.0302 C   0  0  0  0  0  0  0  0  0  0  0  0
  144.5360  136.6378  152.1718 O   0  0  0  0  0  0  0  0  0  0  0  0
  146.2554  135.2264  151.6259 N   0  0  0  0  0  0  0  0  0  0  0  0
  145.5874  134.0153  151.2960 C   0  0  0  0  0  0  0  0  0  0  0  0
  144.1824  133.8380  151.3212 C   0  0  0  0  0  0  0  0  0  0  0  0
  143.6501  132.5785  150.9846 C   0  0  0  0  0  0  0  0  0  0  0  0
  144.5389  131.5413  150.6423 C   0  0  0  0  0  0  0  0  0  0  0  0
  145.8797  131.6921  150.6249 N   0  0  0  0  0  0  0  0  0  0  0  0
  146.3826  132.9025  150.9485 C   0  0  0  0  0  0  0  0  0  0  0  0
  148.1160  140.6571  154.1325 C   0  0  0  0  0  0  0  0  0  0  0  0
  149.4083  141.3028  154.6520 C   0  0  0  0  0  0  0  0  0  0  0  0
  150.5140  140.4318  154.4241 O   0  0  0  0  0  0  0  0  0  0  0  0
  150.4627  138.0946  156.8789 H   0  0  0  0  0  0  0  0  0  0  0  0
  149.6469  139.6437  156.9476 H   0  0  0  0  0  0  0  0  0  0  0  0
  151.4004  139.5827  156.8159 H   0  0  0  0  0  0  0  0  0  0  0  0
  151.5376  137.2723  154.6882 H   0  0  0  0  0  0  0  0  0  0  0  0
  152.5119  138.7392  154.6685 H   0  0  0  0  0  0  0  0  0  0  0  0
  151.5346  138.3148  153.2693 H   0  0  0  0  0  0  0  0  0  0  0  0
  149.1003  138.3110  153.3824 H   0  0  0  0  0  0  0  0  0  0  0  0
  148.9113  137.5198  154.9259 H   0  0  0  0  0  0  0  0  0  0  0  0
  146.5337  137.7617  154.6780 H   0  0  0  0  0  0  0  0  0  0  0  0
  145.7909  139.3331  154.6712 H   0  0  0  0  0  0  0  0  0  0  0  0
  145.4853  139.0013  152.4373 H   0  0  0  0  0  0  0  0  0  0  0  0
  147.1814  139.3234  152.2290 H   0  0  0  0  0  0  0  0  0  0  0  0
  147.6577  137.0192  152.1138 H   0  0  0  0  0  0  0  0  0  0  0  0
  147.2571  135.2108  151.5018 H   0  0  0  0  0  0  0  0  0  0  0  0
  143.5038  134.6282  151.6005 H   0  0  0  0  0  0  0  0  0  0  0  0
  142.5833  132.4106  150.9930 H   0  0  0  0  0  0  0  0  0  0  0  0
  144.1631  130.5633  150.3807 H   0  0  0  0  0  0  0  0  0  0  0  0
  147.4597  132.9851  150.9260 H   0  0  0  0  0  0  0  0  0  0  0  0
  148.1680  140.5636  153.0466 H   0  0  0  0  0  0  0  0  0  0  0  0
  147.2747  141.3164  154.3494 H   0  0  0  0  0  0  0  0  0  0  0  0
  149.5915  142.2447  154.1349 H   0  0  0  0  0  0  0  0  0  0  0  0
  149.3226  141.5414  155.7123 H   0  0  0  0  0  0  0  0  0  0  0  0
  1  2  1  0  0  0  0
  1 21  1  0  0  0  0
  1 22  1  0  0  0  0
  1 23  1  0  0  0  0
  2 20  1  0  0  0  0
  2  3  1  0  0  0  0
  2  4  1  0  0  0  0
  3 24  1  0  0  0  0
  3 25  1  0  0  0  0
  3 26  1  0  0  0  0
  4  5  1  0  0  0  0
  4 27  1  0  0  0  0
  4 28  1  0  0  0  0
  5  6  1  0  0  0  0
  5 18  1  0  0  0  0
  6  7  1  0  0  0  0
  6 29  1  0  0  0  0
  6 30  1  0  0  0  0
  7  8  1  0  0  0  0
  7 31  1  0  0  0  0
  7 32  1  0  0  0  0
  8  9  1  0  0  0  0
  8 33  1  0  0  0  0
  9 10  2  0  0  0  0
  9 11  1  0  0  0  0
 11 12  1  0  0  0  0
 11 34  1  0  0  0  0
 12 17  1  0  0  0  0
 12 13  2  0  0  0  0
 13 14  1  0  0  0  0
 13 35  1  0  0  0  0
 14 15  2  0  0  0  0
 14 36  1  0  0  0  0
 15 16  1  0  0  0  0
 15 37  1  0  0  0  0
 16 17  2  0  0  0  0
 17 38  1  0  0  0  0
 18 19  1  0  0  0  0
 18 39  1  0  0  0  0
 18 40  1  0  0  0  0
 19 20  1  0  0  0  0
 19 41  1  0  0  0  0
 19 42  1  0  0  0  0
M  END
> <s_m_source_file>
AV-unprocessed.smi

> <i_m_source_file_index>
1496

> <i_lp_mmshare_version>
43012

> <i_f3d_flags>
0

> <s_epik_input>
W0NIM11DMShbQ0gzXSlbQ0gyXU4oW0NIMl1bQ0gyXU8xKVtDSDJdW0NIMl1bTkhdQyg9TylbTkhdYzJbY0hdW2NIXVtjSF1uW2NIXTI=

> <s_epik_cmdline>
J2VwaWtfcHl0aG9uJywgJy1waCcsICc3LjAnLCAnLXRuJywgJzgnLCAnLW1hJywgJzIwMCcsICctbWV0YWxfYmluZGluZycsICctaW1hZScsICc8aW5maWxlLm1hZT4nLCAnLW9tYWUnLCAnPG91dGZpbGUubWFlPic=

> <r_epik_Ionization_Penalty>
0.270703

> <r_epik_Ionization_Penalty_Charging>
0

> <r_epik_Ionization_Penalty_Neutral>
0.270703

> <r_epik_State_Penalty>
0.268226

> <r_epik_Charging_Adjusted_Penalty>
0.268226

> <i_epik_Tot_Q>
0

> <i_epik_Tot_abs_Q>
0

> <r_epik_Metal_State_Penalty>
0.26483

> <b_epik_Metal_Only>
0

> <s_lp_Force_Field>
OPLS_2005

> <r_lp_Energy>
30.2545

> <b_lp_Chiralities_Consistent>
1

> <s_lp_Variant>
AV-unprocessed.smi:1496-1

> <Gold.Version>
5.8.1

> <Gold.Id.Protein>
6NUR|6NUR_protein|mol2

> <Gold.PLP.Fitness>
43.9986

> <Gold.PLP.PLP>
-34.8050

> <Gold.PLP.part.hbond>
-2.7676

> <Gold.PLP.part.metal>
0.0000

> <Gold.PLP.part.buried>
-6.5730

> <Gold.PLP.part.nonpolar>
-27.3587

> <Gold.PLP.part.repulsive>
0.8729

> <Gold.PLP.ligand.clash>
0.0000

> <Gold.PLP.ligand.torsion>
0.5006

> <Gold.PLP.Chemscore.Hbond>
2.9120

> <Gold.PLP.Chemscore.CHOScore>
0.4770

> <Gold.PLP.Chemscore.Metal>
0.0000

> <Gold.Chemscore.Hbonds>
donor molecule, donor type, donor heavy atom, donor atom, acceptor molecule, acceptor atom, score
      L1  H     8    33       P1  7948  0.98
      L1  H    11    34       P1  7948  0.91
      P1  H  7989  7998       L1    20  0.96
      L1  C    17    38       P1 10747  0.50

> <Gold.PLP.Chemscore.Internal.Correction>
0.0277

> <Gold.Rescore>
     Score         DG    S(hbond)    S(metal)    S(lipo)     H(rot)  DE(clash)    DE(int)     intcor
     19.03     -20.74       2.68        0.00      86.06       1.46       0.02       1.69       ----

> <Gold.Chemscore.Fitness>
19.0323

> <Gold.Chemscore.DG>
-20.7449

> <Gold.Chemscore.ZeroCoef>
-5.4800

> <Gold.Chemscore.Hbond>
2.6768

> <Gold.Chemscore.Metal>
0.0000

> <Gold.Chemscore.Lipo>
86.0595

> <Gold.Chemscore.Internal_Hbond>
0.0000

> <Gold.Chemscore.DEClash>
0.0177

> <Gold.Chemscore.DEInternal>
1.6949

> <Gold.Chemscore.Rot>
1.4627

> <Gold.Chemscore.Internal.Correction>
   9.000000E+99

> <Gold.Chemscore.Hbonds>
donor molecule, donor type, donor heavy atom, donor atom, acceptor molecule, acceptor atom, score
      L1  H     8    33       P1  7948  0.91
      L1  H    11    34       P1  7948  0.77
      P1  H  7989  7998       L1    20  0.84

> <Gold.Chemscore.Hbond.Weighted>
-8.9403

> <Gold.Chemscore.Metal.Weighted>
-0.0000

> <Gold.Chemscore.Lipo.Weighted>
-10.0690

> <Gold.Chemscore.Internal_Hbond.Weighted>
0.0000

> <Gold.Chemscore.DEClash.Weighted>
0.0177

> <Gold.Chemscore.DEInternal.Weighted>
1.6949

> <Gold.Chemscore.Rot.Weighted>
3.7444

> <Gold.Chemscore.Internal.Correction.Weighted>
   9.000000E+99

> <Gold.Protein.RotatedTorsions>
[ 6907 6896 6895 6894 ] final  -52.84 input  -60.11 | X-H torsion
[ 7974 7965 7964 7962 ] final   52.48 input  175.53 | X-H torsion
[ 8008 7997 7996 7995 ] final -179.71 input   59.86 | X-H torsion
[ 10167 10162 10161 10158 ] final  -24.46 input  -65.29 | X-H torsion
[ 10718 10713 10712 10709 ] final -169.40 input   66.30 | X-H torsion
[ 10763 10752 10751 10750 ] final -141.06 input  -60.55 | X-H torsion
[ 11005 11000 10999 10996 ] final  -76.10 input  -57.11 | X-H torsion

> <Gold.Protein.ActiveResidues>
 VAL166  LYS551  ARG553  GLY616  TRP617  ASP618  TYR619  PRO620  LYS621  CYS622 
 ASP623  PHE694  ASN695  SER759  ASP760  ASP761  ALA762  ILE779  LEU786  VAL792 
 PHE793  MET794  SER795  GLU796  ALA797  LYS798  CYS799  TRP800  GLU811  SER814 

> <Gold.Protein.RotatedAtoms>
  150.8481  134.7797  159.6986 H   0  0  0  0  0  0  0  0  0  0  0  0  # atno 6907 bound_to 6896
  152.4553  134.5302  159.9818 H   0  0  0  0  0  0  0  0  0  0  0  0  # atno 6908 bound_to 6896
  151.5428  133.3392  159.2974 H   0  0  0  0  0  0  0  0  0  0  0  0  # atno 6909 bound_to 6896
  145.9809  139.4241  143.0133 H   0  0  0  0  0  0  0  0  0  0  0  0  # atno 7974 bound_to 7965
  156.0336  140.1287  157.0232 H   0  0  0  0  0  0  0  0  0  0  0  0  # atno 8008 bound_to 7997
  154.4360  140.1044  156.6205 H   0  0  0  0  0  0  0  0  0  0  0  0  # atno 8009 bound_to 7997
  155.5771  140.3467  155.4532 H   0  0  0  0  0  0  0  0  0  0  0  0  # atno 8010 bound_to 7997
  140.7288  143.4352  151.0741 H   0  0  0  0  0  0  0  0  0  0  0  0  # atno 10167 bound_to 10162
  156.7110  130.9233  151.3089 H   0  0  0  0  0  0  0  0  0  0  0  0  # atno 10718 bound_to 10713
  154.8558  135.3535  154.5807 H   0  0  0  0  0  0  0  0  0  0  0  0  # atno 10763 bound_to 10752
  153.6418  135.6998  153.5243 H   0  0  0  0  0  0  0  0  0  0  0  0  # atno 10764 bound_to 10752
  153.2965  135.4219  155.1173 H   0  0  0  0  0  0  0  0  0  0  0  0  # atno 10765 bound_to 10752
  141.1651  133.6971  156.7617 H   0  0  0  0  0  0  0  0  0  0  0  0  # atno 11005 bound_to 11000
  145.7771  140.9872  143.1119 LP  0  0  0  0  0  0  0  0  0  0  0  0  # atno 17320 bound_to 7965
  144.6861  139.9519  143.7478 LP  0  0  0  0  0  0  0  0  0  0  0  0  # atno 17321 bound_to 7965
  139.8013  143.8080  152.3163 LP  0  0  0  0  0  0  0  0  0  0  0  0  # atno 17342 bound_to 10162
  139.8098  144.7340  150.9713 LP  0  0  0  0  0  0  0  0  0  0  0  0  # atno 17343 bound_to 10162
  157.6936  130.9259  150.0582 LP  0  0  0  0  0  0  0  0  0  0  0  0  # atno 17370 bound_to 10713
  156.1661  130.3645  149.9230 LP  0  0  0  0  0  0  0  0  0  0  0  0  # atno 17371 bound_to 10713
  140.2529  134.8527  157.3684 LP  0  0  0  0  0  0  0  0  0  0  0  0  # atno 17394 bound_to 11000
  140.1685  134.4638  155.7847 LP  0  0  0  0  0  0  0  0  0  0  0  0  # atno 17395 bound_to 11000

$$$$
