AV-unprocessed.smi:94|AV-procd|sdf|853|dock8
  -GOLD-   2262017293D 1   1.00000     0.00000
 Structure written by MMmdl.
 53 55  0  0  0  0  0  0  0  0  1 V2000
  149.1803  140.9234  154.3176 C   0  0  0  0  0  0  0  0  0  0  0  0
  150.1961  140.0159  154.7197 O   0  0  0  0  0  0  0  0  0  0  0  0
  150.8520  140.2478  155.9122 C   0  0  0  0  0  0  0  0  0  0  0  0
  150.7144  141.4486  156.6551 C   0  0  0  0  0  0  0  0  0  0  0  0
  151.4014  141.6266  157.8704 C   0  0  0  0  0  0  0  0  0  0  0  0
  152.2330  140.6064  158.3674 C   0  0  0  0  0  0  0  0  0  0  0  0
  152.9712  140.7810  159.6785 C   0  0  0  0  0  0  0  0  0  0  0  0
  152.3738  139.4110  157.6403 C   0  0  0  0  0  0  0  0  0  0  0  0
  151.6997  139.2258  156.4089 C   0  0  0  0  0  0  0  0  0  0  0  0
  151.8690  137.9206  155.6292 C   0  0  2  0  0  0  0  0  0  0  0  0
  152.1887  138.2041  154.1519 C   0  0  0  0  0  0  0  0  0  0  0  0
  150.6816  137.0813  155.7413 N   0  0  0  0  0  0  0  0  0  0  0  0
  150.6204  135.7806  156.0663 C   0  0  0  0  0  0  0  0  0  0  0  0
  151.6171  135.0997  156.3029 O   0  0  0  0  0  0  0  0  0  0  0  0
  149.2219  135.1388  156.1460 C   0  0  0  0  0  0  0  0  0  0  0  0
  148.9702  134.0980  155.1189 N   0  0  0  0  0  0  0  0  0  0  0  0
  149.7419  132.9098  155.1578 C   0  0  0  0  0  0  0  0  0  0  0  0
  150.6190  132.7446  156.0066 O   0  0  0  0  0  0  0  0  0  0  0  0
  149.4158  131.9136  154.1442 C   0  0  0  0  0  0  0  0  0  0  0  0
  150.1144  130.7671  154.0876 F   0  0  0  0  0  0  0  0  0  0  0  0
  148.4172  132.1222  153.2623 C   0  0  0  0  0  0  0  0  0  0  0  0
  147.6439  133.2664  153.2596 N   0  0  0  0  0  0  0  0  0  0  0  0
  146.5450  133.4041  152.2292 C   0  0  1  0  0  0  0  0  0  0  0  0
  147.0452  133.2870  150.7817 C   0  0  0  0  0  0  0  0  0  0  0  0
  145.8764  132.5876  150.1224 C   0  0  0  0  0  0  0  0  0  0  0  0
  145.3842  131.6701  151.2368 C   0  0  0  0  0  0  0  0  0  0  0  0
  145.5856  132.4085  152.4395 O   0  0  0  0  0  0  0  0  0  0  0  0
  147.9313  134.3029  154.1781 C   0  0  0  0  0  0  0  0  0  0  0  0
  147.2865  135.3519  154.1784 O   0  0  0  0  0  0  0  0  0  0  0  0
  148.7691  140.6007  153.3611 H   0  0  0  0  0  0  0  0  0  0  0  0
  149.5767  141.9307  154.1826 H   0  0  0  0  0  0  0  0  0  0  0  0
  148.3601  140.9491  155.0361 H   0  0  0  0  0  0  0  0  0  0  0  0
  150.0829  142.2547  156.3143 H   0  0  0  0  0  0  0  0  0  0  0  0
  151.2821  142.5484  158.4205 H   0  0  0  0  0  0  0  0  0  0  0  0
  152.5094  140.1681  160.4529 H   0  0  0  0  0  0  0  0  0  0  0  0
  152.9545  141.8205  160.0082 H   0  0  0  0  0  0  0  0  0  0  0  0
  154.0129  140.4746  159.5735 H   0  0  0  0  0  0  0  0  0  0  0  0
  153.0064  138.6342  158.0449 H   0  0  0  0  0  0  0  0  0  0  0  0
  152.6982  137.3637  156.0689 H   0  0  0  0  0  0  0  0  0  0  0  0
  153.0974  138.7990  154.0560 H   0  0  0  0  0  0  0  0  0  0  0  0
  151.3792  138.7542  153.6707 H   0  0  0  0  0  0  0  0  0  0  0  0
  152.3438  137.2817  153.5916 H   0  0  0  0  0  0  0  0  0  0  0  0
  149.8023  137.5454  155.5666 H   0  0  0  0  0  0  0  0  0  0  0  0
  149.0960  134.7280  157.1487 H   0  0  0  0  0  0  0  0  0  0  0  0
  148.4763  135.9336  156.0949 H   0  0  0  0  0  0  0  0  0  0  0  0
  148.2153  131.3502  152.5340 H   0  0  0  0  0  0  0  0  0  0  0  0
  146.0736  134.3696  152.4176 H   0  0  0  0  0  0  0  0  0  0  0  0
  147.2586  134.2700  150.3619 H   0  0  0  0  0  0  0  0  0  0  0  0
  147.9450  132.6766  150.7154 H   0  0  0  0  0  0  0  0  0  0  0  0
  145.1028  133.3124  149.8657 H   0  0  0  0  0  0  0  0  0  0  0  0
  146.1550  132.0478  149.2170 H   0  0  0  0  0  0  0  0  0  0  0  0
  144.3385  131.3881  151.1145 H   0  0  0  0  0  0  0  0  0  0  0  0
  145.9760  130.7551  151.2681 H   0  0  0  0  0  0  0  0  0  0  0  0
  1  2  1  0  0  0  0
  1 30  1  0  0  0  0
  1 31  1  0  0  0  0
  1 32  1  0  0  0  0
  2  3  1  0  0  0  0
  3  9  1  0  0  0  0
  3  4  2  0  0  0  0
  4  5  1  0  0  0  0
  4 33  1  0  0  0  0
  5  6  2  0  0  0  0
  5 34  1  0  0  0  0
  6  7  1  0  0  0  0
  6  8  1  0  0  0  0
  7 35  1  0  0  0  0
  7 36  1  0  0  0  0
  7 37  1  0  0  0  0
  8  9  2  0  0  0  0
  8 38  1  0  0  0  0
  9 10  1  0  0  0  0
 10 11  1  0  0  0  0
 10 12  1  0  0  0  0
 10 39  1  0  0  0  0
 11 40  1  0  0  0  0
 11 41  1  0  0  0  0
 11 42  1  0  0  0  0
 12 13  1  0  0  0  0
 12 43  1  0  0  0  0
 13 14  2  0  0  0  0
 13 15  1  0  0  0  0
 15 16  1  0  0  0  0
 15 44  1  0  0  0  0
 15 45  1  0  0  0  0
 16 28  1  0  0  0  0
 16 17  1  0  0  0  0
 17 18  2  0  0  0  0
 17 19  1  0  0  0  0
 19 20  1  0  0  0  0
 19 21  2  0  0  0  0
 21 22  1  0  0  0  0
 21 46  1  0  0  0  0
 22 23  1  0  0  0  0
 22 28  1  0  0  0  0
 23 27  1  0  0  0  0
 23 24  1  0  0  0  0
 23 47  1  0  0  0  0
 24 25  1  0  0  0  0
 24 48  1  0  0  0  0
 24 49  1  0  0  0  0
 25 26  1  0  0  0  0
 25 50  1  0  0  0  0
 25 51  1  0  0  0  0
 26 27  1  0  0  0  0
 26 52  1  0  0  0  0
 26 53  1  0  0  0  0
 28 29  2  0  0  0  0
M  END
> <s_m_source_file>
AV-unprocessed.smi

> <i_m_source_file_index>
94

> <i_lp_mmshare_version>
43012

> <i_f3d_flags>
0

> <s_epik_input>
W0NIM11PYzFbY0hdW2NIXWMoW0NIM10pW2NIXWMxW0NASF0oW0NIM10pW05IXUMoPU8pW0NIMl1uMmMoPU8pYyhGKVtjSF1uKGMyPU8pW0NAQEhdM1tDSDJdW0NIMl1bQ0gyXU8z

> <s_epik_cmdline>
J2VwaWtfcHl0aG9uJywgJy1waCcsICc3LjAnLCAnLXRuJywgJzgnLCAnLW1hJywgJzIwMCcsICctbWV0YWxfYmluZGluZycsICctaW1hZScsICc8aW5maWxlLm1hZT4nLCAnLW9tYWUnLCAnPG91dGZpbGUubWFlPic=

> <r_lp_tautomer_probability>
1

> <r_epik_Ionization_Penalty>
3.37009e-08

> <r_epik_Ionization_Penalty_Charging>
3.59856e-09

> <r_epik_Ionization_Penalty_Neutral>
3.01024e-08

> <r_epik_State_Penalty>
-0

> <r_epik_Charging_Adjusted_Penalty>
3.59856e-09

> <i_epik_Tot_Q>
0

> <i_epik_Tot_abs_Q>
0

> <r_epik_Metal_State_Penalty>
-0

> <b_epik_Metal_Only>
0

> <s_epik_Chemistry_Notes>
This compound contains an acetal/aminal-like group ( X-CH(R)-Y where X, Y are N, S, or O) that may be acid/base labile, releasing an aldehyde.

> <s_lp_Force_Field>
OPLS_2005

> <r_lp_Energy>
25.2965

> <b_lp_Chiralities_Consistent>
1

> <s_lp_Variant>
AV-unprocessed.smi:94-3

> <Gold.Version>
5.8.1

> <Gold.Id.Protein>
6NUR|6NUR_protein|mol2

> <Gold.PLP.Fitness>
53.4818

> <Gold.PLP.PLP>
-47.0287

> <Gold.PLP.part.hbond>
-2.0000

> <Gold.PLP.part.metal>
0.0000

> <Gold.PLP.part.buried>
-6.4785

> <Gold.PLP.part.nonpolar>
-38.2262

> <Gold.PLP.part.repulsive>
0.9120

> <Gold.PLP.ligand.clash>
0.0000

> <Gold.PLP.ligand.torsion>
0.5627

> <Gold.PLP.Chemscore.Hbond>
1.5070

> <Gold.PLP.Chemscore.CHOScore>
0.9966

> <Gold.PLP.Chemscore.Metal>
0.0000

> <Gold.Chemscore.Hbonds>
donor molecule, donor type, donor heavy atom, donor atom, acceptor molecule, acceptor atom, score
      P1  H  7989  7998       L1     2  0.50
      P1  H 10752 10764       L1    14  1.00
      L1  C    21    46       P1 10747  1.00

> <Gold.PLP.Chemscore.Internal.Correction>
0.0677

> <Gold.Rescore>
     Score         DG    S(hbond)    S(metal)    S(lipo)     H(rot)  DE(clash)    DE(int)     intcor
     11.00     -15.42       0.92        0.00     109.93       2.34       0.42       4.01       ----

> <Gold.Chemscore.Fitness>
10.9955

> <Gold.Chemscore.DG>
-15.4218

> <Gold.Chemscore.ZeroCoef>
-5.4800

> <Gold.Chemscore.Hbond>
0.9170

> <Gold.Chemscore.Metal>
0.0000

> <Gold.Chemscore.Lipo>
109.9280

> <Gold.Chemscore.Internal_Hbond>
0.0000

> <Gold.Chemscore.DEClash>
0.4168

> <Gold.Chemscore.DEInternal>
4.0094

> <Gold.Chemscore.Rot>
2.3370

> <Gold.Chemscore.Internal.Correction>
   9.000000E+99

> <Gold.Chemscore.Hbonds>
donor molecule, donor type, donor heavy atom, donor atom, acceptor molecule, acceptor atom, score
      P1  H  7989  7998       L1     2  0.01
      P1  H 10752 10764       L1    14  0.83

> <Gold.Chemscore.Hbond.Weighted>
-3.0629

> <Gold.Chemscore.Metal.Weighted>
-0.0000

> <Gold.Chemscore.Lipo.Weighted>
-12.8616

> <Gold.Chemscore.Internal_Hbond.Weighted>
0.0000

> <Gold.Chemscore.DEClash.Weighted>
0.4168

> <Gold.Chemscore.DEInternal.Weighted>
4.0094

> <Gold.Chemscore.Rot.Weighted>
5.9827

> <Gold.Chemscore.Internal.Correction.Weighted>
   9.000000E+99

> <Gold.Protein.RotatedTorsions>
[ 6907 6896 6895 6894 ] final   -4.08 input  -60.11 | X-H torsion
[ 7974 7965 7964 7962 ] final  -31.48 input  175.53 | X-H torsion
[ 8008 7997 7996 7995 ] final   16.05 input   59.86 | X-H torsion
[ 10167 10162 10161 10158 ] final  172.90 input  -65.29 | X-H torsion
[ 10718 10713 10712 10709 ] final  -59.04 input   66.30 | X-H torsion
[ 10763 10752 10751 10750 ] final  -30.25 input  -60.55 | X-H torsion
[ 11005 11000 10999 10996 ] final   48.08 input  -57.11 | X-H torsion

> <Gold.Protein.ActiveResidues>
 VAL166  LYS551  ARG553  GLY616  TRP617  ASP618  TYR619  PRO620  LYS621  CYS622 
 ASP623  PHE694  ASN695  SER759  ASP760  ASP761  ALA762  ILE779  LEU786  VAL792 
 PHE793  MET794  SER795  GLU796  ALA797  LYS798  CYS799  TRP800  GLU811  SER814 

> <Gold.Protein.RotatedAtoms>
  151.5033  135.1062  159.9834 H   0  0  0  0  0  0  0  0  0  0  0  0  # atno 6907 bound_to 6896
  152.4692  133.7988  159.6952 H   0  0  0  0  0  0  0  0  0  0  0  0  # atno 6908 bound_to 6896
  150.8692  133.7467  159.2992 H   0  0  0  0  0  0  0  0  0  0  0  0  # atno 6909 bound_to 6896
  146.1064  140.5672  142.8798 H   0  0  0  0  0  0  0  0  0  0  0  0  # atno 7974 bound_to 7965
  154.8714  140.2959  155.5479 H   0  0  0  0  0  0  0  0  0  0  0  0  # atno 8008 bound_to 7997
  156.3021  140.2459  156.3637 H   0  0  0  0  0  0  0  0  0  0  0  0  # atno 8009 bound_to 7997
  154.8813  140.0398  157.1773 H   0  0  0  0  0  0  0  0  0  0  0  0  # atno 8010 bound_to 7997
  139.5091  144.3322  152.0100 H   0  0  0  0  0  0  0  0  0  0  0  0  # atno 10167 bound_to 10162
  156.1090  130.4177  150.0661 H   0  0  0  0  0  0  0  0  0  0  0  0  # atno 10718 bound_to 10713
  153.7779  135.6907  153.4894 H   0  0  0  0  0  0  0  0  0  0  0  0  # atno 10763 bound_to 10752
  153.1831  135.4499  155.0052 H   0  0  0  0  0  0  0  0  0  0  0  0  # atno 10764 bound_to 10752
  154.8093  135.3370  154.7284 H   0  0  0  0  0  0  0  0  0  0  0  0  # atno 10765 bound_to 10752
  140.1222  134.4814  155.8588 H   0  0  0  0  0  0  0  0  0  0  0  0  # atno 11005 bound_to 11000
  144.7474  140.5104  143.6826 LP  0  0  0  0  0  0  0  0  0  0  0  0  # atno 17320 bound_to 7965
  145.5752  139.1485  143.3266 LP  0  0  0  0  0  0  0  0  0  0  0  0  # atno 17321 bound_to 7965
  140.2761  144.3911  150.6134 LP  0  0  0  0  0  0  0  0  0  0  0  0  # atno 17342 bound_to 10162
  140.6052  143.2167  151.6994 LP  0  0  0  0  0  0  0  0  0  0  0  0  # atno 17343 bound_to 10162
  156.8629  130.9498  151.3616 LP  0  0  0  0  0  0  0  0  0  0  0  0  # atno 17370 bound_to 10713
  157.6270  130.8699  149.9207 LP  0  0  0  0  0  0  0  0  0  0  0  0  # atno 17371 bound_to 10713
  141.2154  133.6765  156.6911 LP  0  0  0  0  0  0  0  0  0  0  0  0  # atno 17394 bound_to 11000
  140.2950  134.8210  157.4049 LP  0  0  0  0  0  0  0  0  0  0  0  0  # atno 17395 bound_to 11000

$$$$
