AV-unprocessed.smi:3342|AV-procd|sdf|12887|dock3
  -GOLD-   2272019293D 1   1.00000     0.00000
 Structure written by MMmdl.
 42 43  0  0  0  0  0  0  0  0  2 V2000
  146.4733  129.0278  151.9949 C   0  0  0  0  0  0  0  0  0  0  0  0
  146.1761  130.5348  152.0532 C   0  0  2  0  0  0  0  0  0  0  0  0
  145.6673  131.1048  150.7110 C   0  0  0  0  0  0  0  0  0  0  0  0
  144.8274  132.2944  150.8765 N   0  0  0  0  0  0  0  0  0  0  0  0
  145.2082  133.5115  151.3799 C   0  0  0  0  0  0  0  0  0  0  0  0
  144.0998  134.3173  151.3346 C   0  0  0  0  0  0  0  0  0  0  0  0
  143.0912  133.5594  150.8024 N   0  3  0  0  0  0  0  0  0  0  0  0
  143.5362  132.3303  150.5216 C   0  0  0  0  0  0  0  0  0  0  0  0
  147.3803  131.2462  152.4717 N   0  0  0  0  0  0  0  0  0  0  0  0
  148.0003  131.1018  153.6560 C   0  0  0  0  0  0  0  0  0  0  0  0
  147.6098  130.2966  154.5029 O   0  0  0  0  0  0  0  0  0  0  0  0
  149.0780  131.9066  153.8354 N   0  0  0  0  0  0  0  0  0  0  0  0
  149.2580  133.2580  153.2795 C   0  0  0  0  0  0  0  0  0  0  0  0
  149.0086  134.2849  154.3989 C   0  0  0  0  0  0  0  0  0  0  0  0
  149.9479  134.0350  155.6037 C   0  0  0  0  0  0  0  0  0  0  0  0
  149.6000  134.9630  156.7753 C   0  0  0  0  0  0  0  0  0  0  0  0
  149.6347  136.2773  156.5423 N   0  0  0  0  0  0  0  0  0  0  0  0
  149.3024  134.5022  157.8759 O   0  0  0  0  0  0  0  0  0  0  0  0
  149.9060  132.5513  156.0412 C   0  0  0  0  0  0  0  0  0  0  0  0
  150.1070  131.6102  154.8389 C   0  0  0  0  0  0  0  0  0  0  0  0
  145.5756  128.4513  151.7711 H   0  0  0  0  0  0  0  0  0  0  0  0
  146.8577  128.6676  152.9499 H   0  0  0  0  0  0  0  0  0  0  0  0
  147.2164  128.7993  151.2303 H   0  0  0  0  0  0  0  0  0  0  0  0
  145.4058  130.6852  152.8119 H   0  0  0  0  0  0  0  0  0  0  0  0
  146.5032  131.3904  150.0709 H   0  0  0  0  0  0  0  0  0  0  0  0
  145.0969  130.3515  150.1652 H   0  0  0  0  0  0  0  0  0  0  0  0
  146.2140  133.7070  151.7238 H   0  0  0  0  0  0  0  0  0  0  0  0
  143.9574  135.3462  151.6315 H   0  0  0  0  0  0  0  0  0  0  0  0
  142.9641  131.5259  150.0944 H   0  0  0  0  0  0  0  0  0  0  0  0
  147.7619  131.9185  151.8222 H   0  0  0  0  0  0  0  0  0  0  0  0
  150.2774  133.3592  152.9043 H   0  0  0  0  0  0  0  0  0  0  0  0
  148.6172  133.4741  152.4247 H   0  0  0  0  0  0  0  0  0  0  0  0
  149.1581  135.2936  154.0117 H   0  0  0  0  0  0  0  0  0  0  0  0
  147.9642  134.2253  154.7098 H   0  0  0  0  0  0  0  0  0  0  0  0
  150.9666  134.2550  155.2791 H   0  0  0  0  0  0  0  0  0  0  0  0
  149.4120  136.9277  157.2816 H   0  0  0  0  0  0  0  0  0  0  0  0
  149.8828  136.6159  155.6242 H   0  0  0  0  0  0  0  0  0  0  0  0
  150.6760  132.3596  156.7895 H   0  0  0  0  0  0  0  0  0  0  0  0
  148.9508  132.3221  156.5169 H   0  0  0  0  0  0  0  0  0  0  0  0
  150.0868  130.5709  155.1698 H   0  0  0  0  0  0  0  0  0  0  0  0
  151.0961  131.7609  154.4040 H   0  0  0  0  0  0  0  0  0  0  0  0
  142.1449  133.8813  150.6414 H   0  0  0  0  0  0  0  0  0  0  0  0
  1  2  1  0  0  0  0
  1 21  1  0  0  0  0
  1 22  1  0  0  0  0
  1 23  1  0  0  0  0
  2  3  1  0  0  0  0
  2  9  1  0  0  0  0
  2 24  1  0  0  0  0
  3  4  1  0  0  0  0
  3 25  1  0  0  0  0
  3 26  1  0  0  0  0
  4  8  1  0  0  0  0
  4  5  1  0  0  0  0
  5  6  2  0  0  0  0
  5 27  1  0  0  0  0
  6  7  1  0  0  0  0
  6 28  1  0  0  0  0
  7  8  2  0  0  0  0
  7 42  1  0  0  0  0
  8 29  1  0  0  0  0
  9 10  1  0  0  0  0
  9 30  1  0  0  0  0
 10 11  2  0  0  0  0
 10 12  1  0  0  0  0
 12 20  1  0  0  0  0
 12 13  1  0  0  0  0
 13 14  1  0  0  0  0
 13 31  1  0  0  0  0
 13 32  1  0  0  0  0
 14 15  1  0  0  0  0
 14 33  1  0  0  0  0
 14 34  1  0  0  0  0
 15 16  1  0  0  0  0
 15 19  1  0  0  0  0
 15 35  1  0  0  0  0
 16 17  1  0  0  0  0
 16 18  2  0  0  0  0
 17 36  1  0  0  0  0
 17 37  1  0  0  0  0
 19 20  1  0  0  0  0
 19 38  1  0  0  0  0
 19 39  1  0  0  0  0
 20 40  1  0  0  0  0
 20 41  1  0  0  0  0
M  CHG  1   7   1
M  END
> <s_m_source_file>
AV-unprocessed.smi

> <i_m_source_file_index>
3342

> <i_lp_mmshare_version>
43012

> <i_f3d_flags>
0

> <s_epik_input>
W2NIXTFuW2NIXVtjSF1uMVtDSDJdW0NAQEhdKFtDSDNdKVtOSF1DKD1PKU4yW0NIMl1bQ0gyXVtDSF0oQyg9TylbTkgyXSlbQ0gyXVtDSDJdMg==

> <s_epik_cmdline>
J2VwaWtfcHl0aG9uJywgJy1waCcsICc3LjAnLCAnLXRuJywgJzgnLCAnLW1hJywgJzIwMCcsICctbWV0YWxfYmluZGluZycsICctaW1hZScsICc8aW5maWxlLm1hZT4nLCAnLW9tYWUnLCAnPG91dGZpbGUubWFlPic=

> <r_lp_tautomer_probability>
1

> <r_epik_Ionization_Penalty>
0.254015

> <r_epik_Ionization_Penalty_Charging>
0

> <r_epik_Ionization_Penalty_Neutral>
0.254015

> <r_epik_State_Penalty>
0.245417

> <r_epik_Charging_Adjusted_Penalty>
0.245417

> <i_epik_Tot_Q>
1

> <i_epik_Tot_abs_Q>
1

> <r_epik_Metal_State_Penalty>
0.535589

> <b_epik_Metal_Only>
0

> <s_lp_Force_Field>
OPLS_2005

> <r_lp_Energy>
30.9276

> <b_lp_Chiralities_Consistent>
1

> <s_lp_Variant>
AV-unprocessed.smi:3342-1

> <Gold.Version>
5.8.1

> <Gold.Id.Protein>
6NUR|6NUR_protein|mol2

> <Gold.PLP.Fitness>
48.6554

> <Gold.PLP.PLP>
-36.8335

> <Gold.PLP.part.hbond>
-3.0000

> <Gold.PLP.part.metal>
0.0000

> <Gold.PLP.part.buried>
-6.5844

> <Gold.PLP.part.nonpolar>
-27.8318

> <Gold.PLP.part.repulsive>
0.1383

> <Gold.PLP.ligand.clash>
0.0000

> <Gold.PLP.ligand.torsion>
0.6304

> <Gold.PLP.Chemscore.Hbond>
3.3235

> <Gold.PLP.Chemscore.CHOScore>
1.0000

> <Gold.PLP.Chemscore.Metal>
0.0000

> <Gold.Chemscore.Hbonds>
donor molecule, donor type, donor heavy atom, donor atom, acceptor molecule, acceptor atom, score
      L1  H     7    42       P1 10186  1.95
      L1  H     9    30       P1 10747  0.09
      P1  H  6896  6909       L1    18  0.52
      L1  C     8    29       P1 10952  1.00

> <Gold.PLP.Chemscore.Internal.Correction>
0.1122

> <Gold.Rescore>
     Score         DG    S(hbond)    S(metal)    S(lipo)     H(rot)  DE(clash)    DE(int)     intcor
     14.07     -17.28       2.85        0.00      70.68       2.34       1.76       1.45       ----

> <Gold.Chemscore.Fitness>
14.0671

> <Gold.Chemscore.DG>
-17.2767

> <Gold.Chemscore.ZeroCoef>
-5.4800

> <Gold.Chemscore.Hbond>
2.8495

> <Gold.Chemscore.Metal>
0.0000

> <Gold.Chemscore.Lipo>
70.6810

> <Gold.Chemscore.Internal_Hbond>
0.0000

> <Gold.Chemscore.DEClash>
1.7627

> <Gold.Chemscore.DEInternal>
1.4469

> <Gold.Chemscore.Rot>
2.3400

> <Gold.Chemscore.Internal.Correction>
   9.000000E+99

> <Gold.Chemscore.Hbonds>
donor molecule, donor type, donor heavy atom, donor atom, acceptor molecule, acceptor atom, score
      L1  H     7    42       P1 10186  0.65
      L1  H     9    30       P1 10747  0.10
      P1  H  6896  6909       L1    18  0.51

> <Gold.Chemscore.Hbond.Weighted>
-9.5174

> <Gold.Chemscore.Metal.Weighted>
-0.0000

> <Gold.Chemscore.Lipo.Weighted>
-8.2697

> <Gold.Chemscore.Internal_Hbond.Weighted>
0.0000

> <Gold.Chemscore.DEClash.Weighted>
1.7627

> <Gold.Chemscore.DEInternal.Weighted>
1.4469

> <Gold.Chemscore.Rot.Weighted>
5.9904

> <Gold.Chemscore.Internal.Correction.Weighted>
   9.000000E+99

> <Gold.Protein.RotatedTorsions>
[ 6907 6896 6895 6894 ] final   -3.68 input  -60.11 | X-H torsion
[ 7974 7965 7964 7962 ] final  -48.33 input  175.53 | X-H torsion
[ 8008 7997 7996 7995 ] final -129.60 input   59.86 | X-H torsion
[ 10167 10162 10161 10158 ] final   14.31 input  -65.29 | X-H torsion
[ 10718 10713 10712 10709 ] final  179.17 input   66.30 | X-H torsion
[ 10763 10752 10751 10750 ] final  -38.65 input  -60.55 | X-H torsion
[ 11005 11000 10999 10996 ] final -123.29 input  -57.11 | X-H torsion

> <Gold.Protein.ActiveResidues>
 VAL166  LYS551  ARG553  GLY616  TRP617  ASP618  TYR619  PRO620  LYS621  CYS622 
 ASP623  PHE694  ASN695  SER759  ASP760  ASP761  ALA762  ILE779  LEU786  VAL792 
 PHE793  MET794  SER795  GLU796  ALA797  LYS798  CYS799  TRP800  GLU811  SER814 

> <Gold.Protein.RotatedAtoms>
  151.5099  135.1064  159.9850 H   0  0  0  0  0  0  0  0  0  0  0  0  # atno 6907 bound_to 6896
  152.4666  133.7932  159.6924 H   0  0  0  0  0  0  0  0  0  0  0  0  # atno 6908 bound_to 6896
  150.8653  133.7521  159.3004 H   0  0  0  0  0  0  0  0  0  0  0  0  # atno 6909 bound_to 6896
  145.9522  140.7561  142.9499 H   0  0  0  0  0  0  0  0  0  0  0  0  # atno 7974 bound_to 7965
  155.2818  140.0444  157.3016 H   0  0  0  0  0  0  0  0  0  0  0  0  # atno 8008 bound_to 7997
  154.5592  140.2341  155.8330 H   0  0  0  0  0  0  0  0  0  0  0  0  # atno 8009 bound_to 7997
  156.2033  140.3019  155.9580 H   0  0  0  0  0  0  0  0  0  0  0  0  # atno 8010 bound_to 7997
  140.5944  143.8731  150.6904 H   0  0  0  0  0  0  0  0  0  0  0  0  # atno 10167 bound_to 10162
  156.8798  130.9812  151.3063 H   0  0  0  0  0  0  0  0  0  0  0  0  # atno 10718 bound_to 10713
  153.9163  135.6787  153.4749 H   0  0  0  0  0  0  0  0  0  0  0  0  # atno 10763 bound_to 10752
  153.1052  135.4809  154.8935 H   0  0  0  0  0  0  0  0  0  0  0  0  # atno 10764 bound_to 10752
  154.7501  135.3182  154.8529 H   0  0  0  0  0  0  0  0  0  0  0  0  # atno 10765 bound_to 10752
  140.9930  134.0512  157.3632 H   0  0  0  0  0  0  0  0  0  0  0  0  # atno 11005 bound_to 11000
  144.6798  140.2454  143.7338 LP  0  0  0  0  0  0  0  0  0  0  0  0  # atno 17320 bound_to 7965
  145.8155  139.2021  143.1968 LP  0  0  0  0  0  0  0  0  0  0  0  0  # atno 17321 bound_to 7965
  140.2262  143.3771  152.1603 LP  0  0  0  0  0  0  0  0  0  0  0  0  # atno 17342 bound_to 10162
  139.5248  144.7088  151.5270 LP  0  0  0  0  0  0  0  0  0  0  0  0  # atno 17343 bound_to 10162
  157.6147  130.8609  149.9009 LP  0  0  0  0  0  0  0  0  0  0  0  0  # atno 17370 bound_to 10713
  156.0683  130.3689  150.0830 LP  0  0  0  0  0  0  0  0  0  0  0  0  # atno 17371 bound_to 10713
  139.9001  135.0161  156.7227 LP  0  0  0  0  0  0  0  0  0  0  0  0  # atno 17394 bound_to 11000
  140.7010  133.9306  155.8024 LP  0  0  0  0  0  0  0  0  0  0  0  0  # atno 17395 bound_to 11000

$$$$
