AV-unprocessed.smi:3173|AV-procd|sdf|12120|dock7
  -GOLD-   2272017563D 1   1.00000     0.00000
 Structure written by MMmdl.
 36 37  0  0  0  0  0  0  0  0  2 V2000
  153.4535  140.2362  158.3808 O   0  0  0  0  0  0  0  0  0  0  0  0
  152.5301  140.8352  158.9328 C   0  0  0  0  0  0  0  0  0  0  0  0
  152.7440  141.5143  160.2902 C   0  0  0  0  0  0  0  0  0  0  0  0
  153.0558  143.0217  160.1835 C   0  0  1  0  0  0  0  0  0  0  0  0
  152.6047  143.6050  158.8692 C   0  0  0  0  0  0  0  0  0  0  0  0
  151.8590  144.6977  159.0189 C   0  0  0  0  0  0  0  0  0  0  0  0
  151.6594  145.0647  160.4629 C   0  0  0  0  0  0  0  0  0  0  0  0
  152.3303  143.9060  161.2334 C   0  0  0  0  0  0  0  0  0  0  0  0
  151.3026  140.9412  158.4008 N   0  0  0  0  0  0  0  0  0  0  0  0
  150.8910  140.3600  157.1281 C   0  0  0  0  0  0  0  0  0  0  0  0
  150.6889  141.4378  156.0495 C   0  0  0  0  0  0  0  0  0  0  0  0
  149.4856  141.1524  155.1723 C   0  0  0  0  0  0  0  0  0  0  0  0
  149.3634  139.9546  154.4351 C   0  0  0  0  0  0  0  0  0  0  0  0
  148.2145  139.7465  153.6437 C   0  0  0  0  0  0  0  0  0  0  0  0
  147.2133  140.7389  153.6062 C   0  0  0  0  0  0  0  0  0  0  0  0
  147.3859  141.9155  154.3637 C   0  0  0  0  0  0  0  0  0  0  0  0
  148.5004  142.0775  155.1104 N   0  3  0  0  0  0  0  0  0  0  0  0
  151.8402  141.3674  160.8824 H   0  0  0  0  0  0  0  0  0  0  0  0
  153.5496  141.0106  160.8272 H   0  0  0  0  0  0  0  0  0  0  0  0
  154.1332  143.1832  160.2466 H   0  0  0  0  0  0  0  0  0  0  0  0
  152.8858  143.1714  157.9205 H   0  0  0  0  0  0  0  0  0  0  0  0
  151.4431  145.2834  158.2123 H   0  0  0  0  0  0  0  0  0  0  0  0
  152.1406  146.0209  160.6715 H   0  0  0  0  0  0  0  0  0  0  0  0
  150.5977  145.1480  160.6977 H   0  0  0  0  0  0  0  0  0  0  0  0
  151.5640  143.3342  161.7586 H   0  0  0  0  0  0  0  0  0  0  0  0
  153.0243  144.2765  161.9885 H   0  0  0  0  0  0  0  0  0  0  0  0
  150.6030  141.4519  158.9204 H   0  0  0  0  0  0  0  0  0  0  0  0
  151.6291  139.6256  156.8003 H   0  0  0  0  0  0  0  0  0  0  0  0
  149.9612  139.8142  157.2903 H   0  0  0  0  0  0  0  0  0  0  0  0
  150.5640  142.4159  156.5163 H   0  0  0  0  0  0  0  0  0  0  0  0
  151.5742  141.5111  155.4163 H   0  0  0  0  0  0  0  0  0  0  0  0
  150.1384  139.2028  154.4763 H   0  0  0  0  0  0  0  0  0  0  0  0
  148.1026  138.8364  153.0726 H   0  0  0  0  0  0  0  0  0  0  0  0
  146.3258  140.5987  153.0062 H   0  0  0  0  0  0  0  0  0  0  0  0
  146.6715  142.7251  154.3949 H   0  0  0  0  0  0  0  0  0  0  0  0
  148.6033  142.9368  155.6508 H   0  0  0  0  0  0  0  0  0  0  0  0
  1  2  2  0  0  0  0
  2  3  1  0  0  0  0
  2  9  1  0  0  0  0
  3  4  1  0  0  0  0
  3 18  1  0  0  0  0
  3 19  1  0  0  0  0
  4  8  1  0  0  0  0
  4  5  1  0  0  0  0
  4 20  1  0  0  0  0
  5  6  2  0  0  0  0
  5 21  1  0  0  0  0
  6  7  1  0  0  0  0
  6 22  1  0  0  0  0
  7  8  1  0  0  0  0
  7 23  1  0  0  0  0
  7 24  1  0  0  0  0
  8 25  1  0  0  0  0
  8 26  1  0  0  0  0
  9 10  1  0  0  0  0
  9 27  1  0  0  0  0
 10 11  1  0  0  0  0
 10 28  1  0  0  0  0
 10 29  1  0  0  0  0
 11 12  1  0  0  0  0
 11 30  1  0  0  0  0
 11 31  1  0  0  0  0
 12 17  1  0  0  0  0
 12 13  2  0  0  0  0
 13 14  1  0  0  0  0
 13 32  1  0  0  0  0
 14 15  2  0  0  0  0
 14 33  1  0  0  0  0
 15 16  1  0  0  0  0
 15 34  1  0  0  0  0
 16 17  2  0  0  0  0
 16 35  1  0  0  0  0
 17 36  1  0  0  0  0
M  CHG  1  17   1
M  END
> <s_m_source_file>
AV-unprocessed.smi

> <i_m_source_file_index>
3173

> <i_lp_mmshare_version>
43012

> <i_f3d_flags>
0

> <s_epik_input>
W0NIMl0xW0NIMl1bQ0hdPVtDSF1bQ0BIXTFbQ0gyXUMoPU8pW05IXVtDSDJdW0NIMl1jMltjSF1bY0hdW2NIXVtjSF1uMg==

> <s_epik_cmdline>
J2VwaWtfcHl0aG9uJywgJy1waCcsICc3LjAnLCAnLXRuJywgJzgnLCAnLW1hJywgJzIwMCcsICctbWV0YWxfYmluZGluZycsICctaW1hZScsICc8aW5maWxlLm1hZT4nLCAnLW9tYWUnLCAnPG91dGZpbGUubWFlPic=

> <r_epik_Ionization_Penalty>
1.86798

> <r_epik_Ionization_Penalty_Charging>
1.86798

> <r_epik_Ionization_Penalty_Neutral>
1.53848e-08

> <r_epik_State_Penalty>
1.98677

> <r_epik_Charging_Adjusted_Penalty>
3.85475

> <i_epik_Tot_Q>
1

> <i_epik_Tot_abs_Q>
1

> <r_epik_Metal_State_Penalty>
2.01174

> <b_epik_Metal_Only>
0

> <s_lp_Force_Field>
OPLS_2005

> <r_lp_Energy>
20.3145

> <b_lp_Chiralities_Consistent>
1

> <s_lp_Variant>
AV-unprocessed.smi:3173-4

> <Gold.Version>
5.8.1

> <Gold.Id.Protein>
6NUR|6NUR_protein|mol2

> <Gold.PLP.Fitness>
51.6640

> <Gold.PLP.PLP>
-45.1397

> <Gold.PLP.part.hbond>
-2.0000

> <Gold.PLP.part.metal>
0.0000

> <Gold.PLP.part.buried>
-2.3630

> <Gold.PLP.part.nonpolar>
-41.1362

> <Gold.PLP.part.repulsive>
0.3216

> <Gold.PLP.ligand.clash>
0.0000

> <Gold.PLP.ligand.torsion>
1.2454

> <Gold.PLP.Chemscore.Hbond>
2.9920

> <Gold.PLP.Chemscore.CHOScore>
0.0000

> <Gold.PLP.Chemscore.Metal>
0.0000

> <Gold.Chemscore.Hbonds>
donor molecule, donor type, donor heavy atom, donor atom, acceptor molecule, acceptor atom, score
      L1  H    17    36       P1  8028  1.92
      P1  H  7997  8010       L1     1  0.91

> <Gold.PLP.Chemscore.Internal.Correction>
0.0391

> <Gold.Rescore>
     Score         DG    S(hbond)    S(metal)    S(lipo)     H(rot)  DE(clash)    DE(int)     intcor
     19.42     -21.66       1.96        0.00     117.64       1.61       0.04       2.20       ----

> <Gold.Chemscore.Fitness>
19.4234

> <Gold.Chemscore.DG>
-21.6606

> <Gold.Chemscore.ZeroCoef>
-5.4800

> <Gold.Chemscore.Hbond>
1.9593

> <Gold.Chemscore.Metal>
0.0000

> <Gold.Chemscore.Lipo>
117.6376

> <Gold.Chemscore.Internal_Hbond>
0.0000

> <Gold.Chemscore.DEClash>
0.0356

> <Gold.Chemscore.DEInternal>
2.2016

> <Gold.Chemscore.Rot>
1.6122

> <Gold.Chemscore.Internal.Correction>
   9.000000E+99

> <Gold.Chemscore.Hbonds>
donor molecule, donor type, donor heavy atom, donor atom, acceptor molecule, acceptor atom, score
      L1  H    17    36       P1  8028  0.92
      P1  H  7997  8010       L1     1  0.88

> <Gold.Chemscore.Hbond.Weighted>
-6.5441

> <Gold.Chemscore.Metal.Weighted>
-0.0000

> <Gold.Chemscore.Lipo.Weighted>
-13.7636

> <Gold.Chemscore.Internal_Hbond.Weighted>
0.0000

> <Gold.Chemscore.DEClash.Weighted>
0.0356

> <Gold.Chemscore.DEInternal.Weighted>
2.2016

> <Gold.Chemscore.Rot.Weighted>
4.1271

> <Gold.Chemscore.Internal.Correction.Weighted>
   9.000000E+99

> <Gold.Protein.RotatedTorsions>
[ 6907 6896 6895 6894 ] final -151.51 input  -60.11 | X-H torsion
[ 7974 7965 7964 7962 ] final  163.73 input  175.53 | X-H torsion
[ 8008 7997 7996 7995 ] final   25.40 input   59.86 | X-H torsion
[ 10167 10162 10161 10158 ] final -178.57 input  -65.29 | X-H torsion
[ 10718 10713 10712 10709 ] final  -29.81 input   66.30 | X-H torsion
[ 10763 10752 10751 10750 ] final   39.98 input  -60.55 | X-H torsion
[ 11005 11000 10999 10996 ] final  -91.04 input  -57.11 | X-H torsion

> <Gold.Protein.ActiveResidues>
 VAL166  LYS551  ARG553  GLY616  TRP617  ASP618  TYR619  PRO620  LYS621  CYS622 
 ASP623  PHE694  ASN695  SER759  ASP760  ASP761  ALA762  ILE779  LEU786  VAL792 
 PHE793  MET794  SER795  GLU796  ALA797  LYS798  CYS799  TRP800  GLU811  SER814 

> <Gold.Protein.RotatedAtoms>
  151.2141  133.4539  159.2598 H   0  0  0  0  0  0  0  0  0  0  0  0  # atno 6907 bound_to 6896
  151.0947  134.9937  159.8430 H   0  0  0  0  0  0  0  0  0  0  0  0  # atno 6908 bound_to 6896
  152.5438  134.2072  159.8788 H   0  0  0  0  0  0  0  0  0  0  0  0  # atno 6909 bound_to 6896
  144.7576  139.8225  143.6344 H   0  0  0  0  0  0  0  0  0  0  0  0  # atno 7974 bound_to 7965
  155.0111  140.3136  155.4829 H   0  0  0  0  0  0  0  0  0  0  0  0  # atno 8008 bound_to 7997
  156.2909  140.2214  156.5167 H   0  0  0  0  0  0  0  0  0  0  0  0  # atno 8009 bound_to 7997
  154.7534  140.0464  157.0900 H   0  0  0  0  0  0  0  0  0  0  0  0  # atno 8010 bound_to 7997
  139.5426  144.2321  152.0926 H   0  0  0  0  0  0  0  0  0  0  0  0  # atno 10167 bound_to 10162
  156.4078  130.4402  149.7275 H   0  0  0  0  0  0  0  0  0  0  0  0  # atno 10718 bound_to 10713
  152.9950  135.6204  154.2553 H   0  0  0  0  0  0  0  0  0  0  0  0  # atno 10763 bound_to 10752
  154.2290  135.2793  155.2898 H   0  0  0  0  0  0  0  0  0  0  0  0  # atno 10764 bound_to 10752
  154.5465  135.5746  153.6942 H   0  0  0  0  0  0  0  0  0  0  0  0  # atno 10765 bound_to 10752
  141.1553  133.7730  156.9823 H   0  0  0  0  0  0  0  0  0  0  0  0  # atno 11005 bound_to 11000
  146.1605  139.4717  142.9991 LP  0  0  0  0  0  0  0  0  0  0  0  0  # atno 17320 bound_to 7965
  145.6725  141.0212  143.1650 LP  0  0  0  0  0  0  0  0  0  0  0  0  # atno 17321 bound_to 7965
  140.1802  144.4851  150.6532 LP  0  0  0  0  0  0  0  0  0  0  0  0  # atno 17342 bound_to 10162
  140.6662  143.2269  151.5736 LP  0  0  0  0  0  0  0  0  0  0  0  0  # atno 17343 bound_to 10162
  156.4265  130.7794  151.2813 LP  0  0  0  0  0  0  0  0  0  0  0  0  # atno 17370 bound_to 10713
  157.7506  131.0167  150.3554 LP  0  0  0  0  0  0  0  0  0  0  0  0  # atno 17371 bound_to 10713
  140.1057  134.9508  157.1991 LP  0  0  0  0  0  0  0  0  0  0  0  0  # atno 17394 bound_to 11000
  140.3259  134.2864  155.7237 LP  0  0  0  0  0  0  0  0  0  0  0  0  # atno 17395 bound_to 11000

$$$$
