AV-unprocessed.smi:2097|AV-procd|sdf|8564|dock5
  -GOLD-   2272011293D 1   1.00000     0.00000
 Structure written by MMmdl.
 41 42  0  0  0  0  0  0  0  0  1 V2000
  154.4594  135.5489  163.2640 C   0  0  0  0  0  0  0  0  0  0  0  0
  154.7994  135.7049  161.7746 C   0  0  1  0  0  0  0  0  0  0  0  0
  154.3625  134.5215  161.1105 O   0  0  0  0  0  0  0  0  0  0  0  0
  154.8748  133.3001  161.6343 C   0  0  0  0  0  0  0  0  0  0  0  0
  155.1595  132.3321  160.4799 C   0  0  0  0  0  0  0  0  0  0  0  0
  156.0117  132.9029  159.6291 F   0  0  0  0  0  0  0  0  0  0  0  0
  155.7060  131.2086  160.9436 F   0  0  0  0  0  0  0  0  0  0  0  0
  154.0321  132.0469  159.8292 F   0  0  0  0  0  0  0  0  0  0  0  0
  154.1101  136.9406  161.1734 C   0  0  0  0  0  0  0  0  0  0  0  0
  153.1814  136.7910  160.3804 O   0  0  0  0  0  0  0  0  0  0  0  0
  154.6170  138.1307  161.5464 N   0  0  0  0  0  0  0  0  0  0  0  0
  154.2147  139.4376  161.1566 C   0  0  0  0  0  0  0  0  0  0  0  0
  154.6049  140.6290  161.8143 C   0  0  0  0  0  0  0  0  0  0  0  0
  154.1404  141.8630  161.3199 C   0  0  0  0  0  0  0  0  0  0  0  0
  153.3087  141.8717  160.1818 C   0  0  0  0  0  0  0  0  0  0  0  0
  152.8342  143.0982  159.6959 N   0  0  0  0  0  0  0  0  0  0  0  0
  152.1267  143.8831  160.6999 C   0  0  0  0  0  0  0  0  0  0  0  0
  151.7544  145.2607  160.1252 C   0  0  0  0  0  0  0  0  0  0  0  0
  150.9917  145.0907  158.9337 O   0  0  0  0  0  0  0  0  0  0  0  0
  151.7168  144.3855  157.9300 C   0  0  0  0  0  0  0  0  0  0  0  0
  152.0878  142.9851  158.4488 C   0  0  0  0  0  0  0  0  0  0  0  0
  152.9441  140.7377  159.5380 N   0  0  0  0  0  0  0  0  0  0  0  0
  153.3927  139.5584  160.0169 C   0  0  0  0  0  0  0  0  0  0  0  0
  154.7616  136.4284  163.8338 H   0  0  0  0  0  0  0  0  0  0  0  0
  154.9767  134.6885  163.6889 H   0  0  0  0  0  0  0  0  0  0  0  0
  153.3902  135.3989  163.4191 H   0  0  0  0  0  0  0  0  0  0  0  0
  155.8831  135.7958  161.6777 H   0  0  0  0  0  0  0  0  0  0  0  0
  155.7927  133.4689  162.1983 H   0  0  0  0  0  0  0  0  0  0  0  0
  154.1488  132.8573  162.3178 H   0  0  0  0  0  0  0  0  0  0  0  0
  155.4274  138.0921  162.1476 H   0  0  0  0  0  0  0  0  0  0  0  0
  155.2540  140.6278  162.6757 H   0  0  0  0  0  0  0  0  0  0  0  0
  154.4197  142.7859  161.8071 H   0  0  0  0  0  0  0  0  0  0  0  0
  151.2233  143.3567  161.0112 H   0  0  0  0  0  0  0  0  0  0  0  0
  152.7533  144.0024  161.5848 H   0  0  0  0  0  0  0  0  0  0  0  0
  151.1637  145.8226  160.8488 H   0  0  0  0  0  0  0  0  0  0  0  0
  152.6490  145.8497  159.9161 H   0  0  0  0  0  0  0  0  0  0  0  0
  151.0987  144.3043  157.0359 H   0  0  0  0  0  0  0  0  0  0  0  0
  152.6102  144.9465  157.6511 H   0  0  0  0  0  0  0  0  0  0  0  0
  152.6862  142.4564  157.7059 H   0  0  0  0  0  0  0  0  0  0  0  0
  151.1819  142.3996  158.6117 H   0  0  0  0  0  0  0  0  0  0  0  0
  153.0778  138.6797  159.4729 H   0  0  0  0  0  0  0  0  0  0  0  0
  1  2  1  0  0  0  0
  1 24  1  0  0  0  0
  1 25  1  0  0  0  0
  1 26  1  0  0  0  0
  2  3  1  0  0  0  0
  2  9  1  0  0  0  0
  2 27  1  0  0  0  0
  3  4  1  0  0  0  0
  4  5  1  0  0  0  0
  4 28  1  0  0  0  0
  4 29  1  0  0  0  0
  5  6  1  0  0  0  0
  5  7  1  0  0  0  0
  5  8  1  0  0  0  0
  9 10  2  0  0  0  0
  9 11  1  0  0  0  0
 11 12  1  0  0  0  0
 11 30  1  0  0  0  0
 12 23  1  0  0  0  0
 12 13  2  0  0  0  0
 13 14  1  0  0  0  0
 13 31  1  0  0  0  0
 14 15  2  0  0  0  0
 14 32  1  0  0  0  0
 15 16  1  0  0  0  0
 15 22  1  0  0  0  0
 16 21  1  0  0  0  0
 16 17  1  0  0  0  0
 17 18  1  0  0  0  0
 17 33  1  0  0  0  0
 17 34  1  0  0  0  0
 18 19  1  0  0  0  0
 18 35  1  0  0  0  0
 18 36  1  0  0  0  0
 19 20  1  0  0  0  0
 20 21  1  0  0  0  0
 20 37  1  0  0  0  0
 20 38  1  0  0  0  0
 21 39  1  0  0  0  0
 21 40  1  0  0  0  0
 22 23  2  0  0  0  0
 23 41  1  0  0  0  0
M  END
> <s_m_source_file>
AV-unprocessed.smi

> <i_m_source_file_index>
2097

> <i_lp_mmshare_version>
43012

> <i_f3d_flags>
0

> <s_epik_input>
RkMoRikoRilbQ0gyXU9bQ0BASF0oW0NIM10pQyg9TylbTkhdYzFbY0hdW2NIXWMobltjSF0xKU4yW0NIMl1bQ0gyXU9bQ0gyXVtDSDJdMg==

> <s_epik_cmdline>
J2VwaWtfcHl0aG9uJywgJy1waCcsICc3LjAnLCAnLXRuJywgJzgnLCAnLW1hJywgJzIwMCcsICctbWV0YWxfYmluZGluZycsICctaW1hZScsICc8aW5maWxlLm1hZT4nLCAnLW9tYWUnLCAnPG91dGZpbGUubWFlPic=

> <r_lp_tautomer_probability>
1

> <r_epik_Ionization_Penalty>
0.000443452

> <r_epik_Ionization_Penalty_Charging>
0

> <r_epik_Ionization_Penalty_Neutral>
0.000443452

> <r_epik_State_Penalty>
0.00027288

> <r_epik_Charging_Adjusted_Penalty>
0.00027288

> <i_epik_Tot_Q>
0

> <i_epik_Tot_abs_Q>
0

> <r_epik_Metal_State_Penalty>
-0

> <b_epik_Metal_Only>
0

> <s_lp_Force_Field>
OPLS_2005

> <r_lp_Energy>
27.3588

> <b_lp_Chiralities_Consistent>
1

> <s_lp_Variant>
AV-unprocessed.smi:2097-2

> <Gold.Version>
5.8.1

> <Gold.Id.Protein>
6NUR|6NUR_protein|mol2

> <Gold.PLP.Fitness>
40.1993

> <Gold.PLP.PLP>
-38.9858

> <Gold.PLP.part.hbond>
-1.5270

> <Gold.PLP.part.metal>
0.0000

> <Gold.PLP.part.buried>
-5.1723

> <Gold.PLP.part.nonpolar>
-32.8949

> <Gold.PLP.part.repulsive>
0.1519

> <Gold.PLP.ligand.clash>
0.0000

> <Gold.PLP.ligand.torsion>
0.6094

> <Gold.PLP.Chemscore.Hbond>
0.7638

> <Gold.PLP.Chemscore.CHOScore>
0.0000

> <Gold.PLP.Chemscore.Metal>
0.0000

> <Gold.Chemscore.Hbonds>
donor molecule, donor type, donor heavy atom, donor atom, acceptor molecule, acceptor atom, score
      P1  H  6896  6907       L1    10  0.81

> <Gold.PLP.Chemscore.Internal.Correction>
0.1411

> <Gold.Rescore>
     Score         DG    S(hbond)    S(metal)    S(lipo)     H(rot)  DE(clash)    DE(int)     intcor
     13.33     -15.45       0.97        0.00     100.13       1.95       0.05       2.07       ----

> <Gold.Chemscore.Fitness>
13.3333

> <Gold.Chemscore.DG>
-15.4543

> <Gold.Chemscore.ZeroCoef>
-5.4800

> <Gold.Chemscore.Hbond>
0.9726

> <Gold.Chemscore.Metal>
0.0000

> <Gold.Chemscore.Lipo>
100.1321

> <Gold.Chemscore.Internal_Hbond>
0.0000

> <Gold.Chemscore.DEClash>
0.0477

> <Gold.Chemscore.DEInternal>
2.0732

> <Gold.Chemscore.Rot>
1.9491

> <Gold.Chemscore.Internal.Correction>
   9.000000E+99

> <Gold.Chemscore.Hbonds>
donor molecule, donor type, donor heavy atom, donor atom, acceptor molecule, acceptor atom, score
      P1  H  6896  6907       L1    10  0.80

> <Gold.Chemscore.Hbond.Weighted>
-3.2486

> <Gold.Chemscore.Metal.Weighted>
-0.0000

> <Gold.Chemscore.Lipo.Weighted>
-11.7155

> <Gold.Chemscore.Internal_Hbond.Weighted>
0.0000

> <Gold.Chemscore.DEClash.Weighted>
0.0477

> <Gold.Chemscore.DEInternal.Weighted>
2.0732

> <Gold.Chemscore.Rot.Weighted>
4.9897

> <Gold.Chemscore.Internal.Correction.Weighted>
   9.000000E+99

> <Gold.Protein.RotatedTorsions>
[ 6907 6896 6895 6894 ] final   33.75 input  -60.11 | X-H torsion
[ 7974 7965 7964 7962 ] final  -29.14 input  175.53 | X-H torsion
[ 8008 7997 7996 7995 ] final   17.17 input   59.86 | X-H torsion
[ 10167 10162 10161 10158 ] final   25.66 input  -65.29 | X-H torsion
[ 10718 10713 10712 10709 ] final  -50.53 input   66.30 | X-H torsion
[ 10763 10752 10751 10750 ] final -171.06 input  -60.55 | X-H torsion
[ 11005 11000 10999 10996 ] final -171.71 input  -57.11 | X-H torsion

> <Gold.Protein.ActiveResidues>
 VAL166  LYS551  ARG553  GLY616  TRP617  ASP618  TYR619  PRO620  LYS621  CYS622 
 ASP623  PHE694  ASN695  SER759  ASP760  ASP761  ALA762  ILE779  LEU786  VAL792 
 PHE793  MET794  SER795  GLU796  ALA797  LYS798  CYS799  TRP800  GLU811  SER814 

> <Gold.Protein.RotatedAtoms>
  152.0928  134.9395  160.0571 H   0  0  0  0  0  0  0  0  0  0  0  0  # atno 6907 bound_to 6896
  152.0640  133.4070  159.4438 H   0  0  0  0  0  0  0  0  0  0  0  0  # atno 6908 bound_to 6896
  150.6837  134.3088  159.4781 H   0  0  0  0  0  0  0  0  0  0  0  0  # atno 6909 bound_to 6896
  146.1238  140.5374  142.8724 H   0  0  0  0  0  0  0  0  0  0  0  0  # atno 7974 bound_to 7965
  154.8875  140.2982  155.5389 H   0  0  0  0  0  0  0  0  0  0  0  0  # atno 8008 bound_to 7997
  156.3021  140.2431  156.3820 H   0  0  0  0  0  0  0  0  0  0  0  0  # atno 8009 bound_to 7997
  154.8653  140.0403  157.1679 H   0  0  0  0  0  0  0  0  0  0  0  0  # atno 8010 bound_to 7997
  140.5087  144.0196  150.6363 H   0  0  0  0  0  0  0  0  0  0  0  0  # atno 10167 bound_to 10162
  156.1792  130.4150  149.9531 H   0  0  0  0  0  0  0  0  0  0  0  0  # atno 10718 bound_to 10713
  154.6346  135.2891  155.0175 H   0  0  0  0  0  0  0  0  0  0  0  0  # atno 10763 bound_to 10752
  154.1324  135.6531  153.4928 H   0  0  0  0  0  0  0  0  0  0  0  0  # atno 10764 bound_to 10752
  153.0296  135.5313  154.7188 H   0  0  0  0  0  0  0  0  0  0  0  0  # atno 10765 bound_to 10752
  140.5052  134.5855  157.5001 H   0  0  0  0  0  0  0  0  0  0  0  0  # atno 11005 bound_to 11000
  144.7622  140.5449  143.6727 LP  0  0  0  0  0  0  0  0  0  0  0  0  # atno 17320 bound_to 7965
  145.5410  139.1475  143.3447 LP  0  0  0  0  0  0  0  0  0  0  0  0  # atno 17321 bound_to 7965
  140.3512  143.2962  152.0485 LP  0  0  0  0  0  0  0  0  0  0  0  0  # atno 17342 bound_to 10162
  139.4890  144.6372  151.6951 LP  0  0  0  0  0  0  0  0  0  0  0  0  # atno 17343 bound_to 10162
  156.7307  130.9042  151.3625 LP  0  0  0  0  0  0  0  0  0  0  0  0  # atno 17370 bound_to 10713
  157.6857  130.9183  150.0380 LP  0  0  0  0  0  0  0  0  0  0  0  0  # atno 17371 bound_to 10713
  139.9690  134.7324  156.0079 LP  0  0  0  0  0  0  0  0  0  0  0  0  # atno 17394 bound_to 11000
  141.1415  133.6564  156.3743 LP  0  0  0  0  0  0  0  0  0  0  0  0  # atno 17395 bound_to 11000

$$$$
