AV-unprocessed.smi:37|AV-procd|sdf|306|dock2
  -GOLD-   2262016113D 1   1.00000     0.00000
 Structure written by MMmdl.
 44 45  0  0  0  0  0  0  0  0  1 V2000
  148.1556  134.9295  161.4229 C   0  0  0  0  0  0  0  0  0  0  0  0
  148.1706  134.2384  160.0515 C   0  0  0  0  0  0  0  0  0  0  0  0
  148.0617  135.2104  158.8751 C   0  0  0  0  0  0  0  0  0  0  0  0
  147.0864  135.2328  158.1222 O   0  0  0  0  0  0  0  0  0  0  0  0
  149.1403  135.9984  158.7787 O   0  0  0  0  0  0  0  0  0  0  0  0
  149.1513  137.0712  157.8520 C   0  0  0  0  0  0  0  0  0  0  0  0
  150.0868  138.1969  158.3270 C   0  0  1  0  0  0  0  0  0  0  0  0
  151.4230  137.6937  158.3958 O   0  0  0  0  0  0  0  0  0  0  0  0
  152.3323  138.6636  157.9678 C   0  0  2  0  0  0  0  0  0  0  0  0
  152.7928  139.5165  159.1411 N   0  0  0  0  0  0  0  0  0  0  0  0
  152.3608  140.8255  159.3354 C   0  0  0  0  0  0  0  0  0  0  0  0
  152.7422  141.5814  160.3922 C   0  0  0  0  0  0  0  0  0  0  0  0
  152.2816  142.8386  160.5086 F   0  0  0  0  0  0  0  0  0  0  0  0
  153.6317  141.0401  161.4141 C   0  0  0  0  0  0  0  0  0  0  0  0
  154.0434  141.6511  162.3981 O   0  0  0  0  0  0  0  0  0  0  0  0
  154.0008  139.7087  161.2079 N   0  0  0  0  0  0  0  0  0  0  0  0
  153.6059  138.9154  160.1299 C   0  0  0  0  0  0  0  0  0  0  0  0
  153.9625  137.7392  160.0736 O   0  0  0  0  0  0  0  0  0  0  0  0
  151.5690  139.4929  156.9251 C   0  0  1  0  0  0  0  0  0  0  0  0
  151.6817  138.5653  155.1608 Br  0  0  0  0  0  0  0  0  0  0  0  0
  150.1490  139.4826  157.4755 C   0  0  1  0  0  0  0  0  0  0  0  0
  149.1837  139.5948  156.4350 O   0  0  0  0  0  0  0  0  0  0  0  0
  149.3332  140.5119  155.4618 C   0  0  0  0  0  0  0  0  0  0  0  0
  150.2379  141.3434  155.3879 O   0  0  0  0  0  0  0  0  0  0  0  0
  148.2385  140.4307  154.3998 C   0  0  0  0  0  0  0  0  0  0  0  0
  147.3906  141.7083  154.3335 C   0  0  0  0  0  0  0  0  0  0  0  0
  154.5942  139.2815  161.9043 H   0  0  0  0  0  0  0  0  0  0  0  0
  148.2301  134.1935  162.2234 H   0  0  0  0  0  0  0  0  0  0  0  0
  147.2327  135.4906  161.5759 H   0  0  0  0  0  0  0  0  0  0  0  0
  148.9938  135.6188  161.5305 H   0  0  0  0  0  0  0  0  0  0  0  0
  149.0896  133.6626  159.9397 H   0  0  0  0  0  0  0  0  0  0  0  0
  147.3456  133.5283  159.9905 H   0  0  0  0  0  0  0  0  0  0  0  0
  149.4749  136.7130  156.8738 H   0  0  0  0  0  0  0  0  0  0  0  0
  148.1374  137.4552  157.7330 H   0  0  0  0  0  0  0  0  0  0  0  0
  149.7703  138.4788  159.3310 H   0  0  0  0  0  0  0  0  0  0  0  0
  153.2459  138.2005  157.5906 H   0  0  0  0  0  0  0  0  0  0  0  0
  151.6793  141.2865  158.6379 H   0  0  0  0  0  0  0  0  0  0  0  0
  151.9643  140.4989  156.7933 H   0  0  0  0  0  0  0  0  0  0  0  0
  150.0637  140.3359  158.1509 H   0  0  0  0  0  0  0  0  0  0  0  0
  148.7052  140.2494  153.4312 H   0  0  0  0  0  0  0  0  0  0  0  0
  147.6037  139.5700  154.6111 H   0  0  0  0  0  0  0  0  0  0  0  0
  146.6775  141.6537  153.5109 H   0  0  0  0  0  0  0  0  0  0  0  0
  148.0108  142.5912  154.1749 H   0  0  0  0  0  0  0  0  0  0  0  0
  146.8209  141.8554  155.2516 H   0  0  0  0  0  0  0  0  0  0  0  0
  1  2  1  0  0  0  0
  1 28  1  0  0  0  0
  1 29  1  0  0  0  0
  1 30  1  0  0  0  0
  2  3  1  0  0  0  0
  2 31  1  0  0  0  0
  2 32  1  0  0  0  0
  3  4  2  0  0  0  0
  3  5  1  0  0  0  0
  5  6  1  0  0  0  0
  6  7  1  0  0  0  0
  6 33  1  0  0  0  0
  6 34  1  0  0  0  0
  7 21  1  0  0  0  0
  7  8  1  0  0  0  0
  7 35  1  0  0  0  0
  8  9  1  0  0  0  0
  9 10  1  0  0  0  0
  9 19  1  0  0  0  0
  9 36  1  0  0  0  0
 10 17  1  0  0  0  0
 10 11  1  0  0  0  0
 11 12  2  0  0  0  0
 11 37  1  0  0  0  0
 12 13  1  0  0  0  0
 12 14  1  0  0  0  0
 14 15  2  0  0  0  0
 14 16  1  0  0  0  0
 16 27  1  0  0  0  0
 16 17  1  0  0  0  0
 17 18  2  0  0  0  0
 19 20  1  0  0  0  0
 19 21  1  0  0  0  0
 19 38  1  0  0  0  0
 21 22  1  0  0  0  0
 21 39  1  0  0  0  0
 22 23  1  0  0  0  0
 23 24  2  0  0  0  0
 23 25  1  0  0  0  0
 25 26  1  0  0  0  0
 25 40  1  0  0  0  0
 25 41  1  0  0  0  0
 26 42  1  0  0  0  0
 26 43  1  0  0  0  0
 26 44  1  0  0  0  0
M  END
> <s_m_source_file>
AV-unprocessed.smi

> <i_m_source_file_index>
37

> <i_lp_mmshare_version>
43012

> <i_f3d_flags>
0

> <s_epik_input>
W0NIM11bQ0gyXUMoPU8pT1tDSDJdW0NAQEhdMU9bQ0BASF0objJbY0hdYyhGKWMoPU8pW25IXWMyPU8pW0NAQEhdKEJyKVtDQEhdMU9DKD1PKVtDSDJdW0NIM10=

> <s_epik_cmdline>
J2VwaWtfcHl0aG9uJywgJy1waCcsICc3LjAnLCAnLXRuJywgJzgnLCAnLW1hJywgJzIwMCcsICctbWV0YWxfYmluZGluZycsICctaW1hZScsICc8aW5maWxlLm1hZT4nLCAnLW9tYWUnLCAnPG91dGZpbGUubWFlPic=

> <r_lp_tautomer_probability>
0.999537

> <r_epik_Ionization_Penalty>
0.104106

> <r_epik_Ionization_Penalty_Charging>
0.104106

> <r_epik_Ionization_Penalty_Neutral>
3.94675e-16

> <r_epik_State_Penalty>
0.0940182

> <r_epik_Charging_Adjusted_Penalty>
0.198124

> <i_epik_Tot_Q>
0

> <i_epik_Tot_abs_Q>
0

> <r_epik_Metal_State_Penalty>
3.05314

> <b_epik_Metal_Only>
0

> <s_epik_Chemistry_Notes>
This compound has an ester and may undergo hydrolysis at high or low pH. This compound contains an acetal/aminal-like group ( X-CH(R)-Y where X, Y are N, S, or O) that may be acid/base labile, releasing an aldehyde.

> <s_lp_Force_Field>
OPLS_2005

> <r_lp_Energy>
23.6922

> <b_lp_Chiralities_Consistent>
1

> <s_lp_Variant>
AV-unprocessed.smi:37-4

> <Gold.Version>
5.8.1

> <Gold.Id.Protein>
6NUR|6NUR_protein|mol2

> <Gold.PLP.Fitness>
40.4066

> <Gold.PLP.PLP>
-39.3905

> <Gold.PLP.part.hbond>
-2.0000

> <Gold.PLP.part.metal>
0.0000

> <Gold.PLP.part.buried>
-4.5898

> <Gold.PLP.part.nonpolar>
-32.6114

> <Gold.PLP.part.repulsive>
0.1134

> <Gold.PLP.ligand.clash>
0.0223

> <Gold.PLP.ligand.torsion>
0.5636

> <Gold.PLP.Chemscore.Hbond>
0.6344

> <Gold.PLP.Chemscore.CHOScore>
0.0000

> <Gold.PLP.Chemscore.Metal>
0.0000

> <Gold.Chemscore.Hbonds>
donor molecule, donor type, donor heavy atom, donor atom, acceptor molecule, acceptor atom, score
      P1  H  7989  7998       L1    24  0.07

> <Gold.PLP.Chemscore.Internal.Correction>
0.2625

> <Gold.Rescore>
     Score         DG    S(hbond)    S(metal)    S(lipo)     H(rot)  DE(clash)    DE(int)     intcor
      8.05     -10.37       1.98        0.00      58.07       3.33       0.01       2.31       ----

> <Gold.Chemscore.Fitness>
8.0469

> <Gold.Chemscore.DG>
-10.3678

> <Gold.Chemscore.ZeroCoef>
-5.4800

> <Gold.Chemscore.Hbond>
1.9818

> <Gold.Chemscore.Metal>
0.0000

> <Gold.Chemscore.Lipo>
58.0690

> <Gold.Chemscore.Internal_Hbond>
0.0000

> <Gold.Chemscore.DEClash>
0.0126

> <Gold.Chemscore.DEInternal>
2.3083

> <Gold.Chemscore.Rot>
3.3303

> <Gold.Chemscore.Internal.Correction>
   9.000000E+99

> <Gold.Chemscore.Hbonds>
donor molecule, donor type, donor heavy atom, donor atom, acceptor molecule, acceptor atom, score
      P1  H  7989  7998       L1    24  0.07

> <Gold.Chemscore.Hbond.Weighted>
-6.6193

> <Gold.Chemscore.Metal.Weighted>
-0.0000

> <Gold.Chemscore.Lipo.Weighted>
-6.7941

> <Gold.Chemscore.Internal_Hbond.Weighted>
0.0000

> <Gold.Chemscore.DEClash.Weighted>
0.0126

> <Gold.Chemscore.DEInternal.Weighted>
2.3083

> <Gold.Chemscore.Rot.Weighted>
8.5256

> <Gold.Chemscore.Internal.Correction.Weighted>
   9.000000E+99

> <Gold.Protein.RotatedTorsions>
[ 6907 6896 6895 6894 ] final  147.66 input  -60.11 | X-H torsion
[ 7974 7965 7964 7962 ] final  -55.54 input  175.53 | X-H torsion
[ 8008 7997 7996 7995 ] final -178.26 input   59.86 | X-H torsion
[ 10167 10162 10161 10158 ] final -102.85 input  -65.29 | X-H torsion
[ 10718 10713 10712 10709 ] final  -59.17 input   66.30 | X-H torsion
[ 10763 10752 10751 10750 ] final -176.03 input  -60.55 | X-H torsion
[ 11005 11000 10999 10996 ] final  -24.49 input  -57.11 | X-H torsion

> <Gold.Protein.ActiveResidues>
 VAL166  LYS551  ARG553  GLY616  TRP617  ASP618  TYR619  PRO620  LYS621  CYS622 
 ASP623  PHE694  ASN695  SER759  ASP760  ASP761  ALA762  ILE779  LEU786  VAL792 
 PHE793  MET794  SER795  GLU796  ALA797  LYS798  CYS799  TRP800  GLU811  SER814 

> <Gold.Protein.RotatedAtoms>
  152.1518  133.4527  159.4817 H   0  0  0  0  0  0  0  0  0  0  0  0  # atno 6907 bound_to 6896
  150.6896  134.2179  159.4394 H   0  0  0  0  0  0  0  0  0  0  0  0  # atno 6908 bound_to 6896
  152.0076  134.9893  160.0618 H   0  0  0  0  0  0  0  0  0  0  0  0  # atno 6909 bound_to 6896
  145.8730  140.8202  142.9879 H   0  0  0  0  0  0  0  0  0  0  0  0  # atno 7974 bound_to 7965
  156.0168  140.1252  157.0398 H   0  0  0  0  0  0  0  0  0  0  0  0  # atno 8008 bound_to 7997
  154.4296  140.1077  156.5976 H   0  0  0  0  0  0  0  0  0  0  0  0  # atno 8009 bound_to 7997
  155.6002  140.3470  155.4594 H   0  0  0  0  0  0  0  0  0  0  0  0  # atno 8010 bound_to 7997
  140.2263  143.3639  152.0926 H   0  0  0  0  0  0  0  0  0  0  0  0  # atno 10167 bound_to 10162
  156.1081  130.4178  150.0679 H   0  0  0  0  0  0  0  0  0  0  0  0  # atno 10718 bound_to 10713
  154.5773  135.2833  155.0768 H   0  0  0  0  0  0  0  0  0  0  0  0  # atno 10763 bound_to 10752
  154.2118  135.6406  153.5121 H   0  0  0  0  0  0  0  0  0  0  0  0  # atno 10764 bound_to 10752
  153.0076  135.5493  154.6415 H   0  0  0  0  0  0  0  0  0  0  0  0  # atno 10765 bound_to 10752
  140.8850  133.7627  156.0349 H   0  0  0  0  0  0  0  0  0  0  0  0  # atno 11005 bound_to 11000
  144.6726  140.1267  143.7446 LP  0  0  0  0  0  0  0  0  0  0  0  0  # atno 17320 bound_to 7965
  145.9114  139.2489  143.1435 LP  0  0  0  0  0  0  0  0  0  0  0  0  # atno 17321 bound_to 7965
  139.5126  144.6919  151.5736 LP  0  0  0  0  0  0  0  0  0  0  0  0  # atno 17342 bound_to 10162
  140.6218  143.9244  150.6532 LP  0  0  0  0  0  0  0  0  0  0  0  0  # atno 17343 bound_to 10162
  156.8649  130.9504  151.3614 LP  0  0  0  0  0  0  0  0  0  0  0  0  # atno 17370 bound_to 10713
  157.6260  130.8691  149.9189 LP  0  0  0  0  0  0  0  0  0  0  0  0  # atno 17371 bound_to 10713
  140.8415  134.3060  157.5311 LP  0  0  0  0  0  0  0  0  0  0  0  0  # atno 17394 bound_to 11000
  139.8723  134.9419  156.3809 LP  0  0  0  0  0  0  0  0  0  0  0  0  # atno 17395 bound_to 11000

$$$$
