AV-unprocessed.smi:101|AV-procd|sdf|937|dock1
  -GOLD-   2262017453D 1   1.00000     0.00000
 Structure written by MMmdl.
 43 45  0  0  0  0  0  0  0  0  2 V2000
  146.2227  144.3132  159.1210 C   0  0  0  0  0  0  0  0  0  0  0  0
  145.6620  143.2667  158.1739 C   0  0  0  0  0  0  0  0  0  0  0  0
  146.4519  142.3696  157.5430 C   0  0  0  0  0  0  0  0  0  0  0  0
  145.9370  141.4132  156.6830 N   0  0  0  0  0  0  0  0  0  0  0  0
  146.8286  140.3948  155.9926 C   0  0  2  0  0  0  0  0  0  0  0  0
  148.1509  140.5686  156.4110 O   0  0  0  0  0  0  0  0  0  0  0  0
  148.8999  141.2043  155.3820 C   0  0  1  0  0  0  0  0  0  0  0  0
  150.4068  141.0053  155.5909 C   0  0  0  0  0  0  0  0  0  0  0  0
  150.7733  141.6419  156.8035 O   0  0  0  0  0  0  0  0  0  0  0  0
  151.7933  141.1676  157.5418 C   0  0  0  0  0  0  0  0  0  0  0  0
  152.4140  140.1381  157.2691 O   0  0  0  0  0  0  0  0  0  0  0  0
  152.0907  142.0218  158.7279 C   0  0  0  0  0  0  0  0  0  0  0  0
  151.5448  143.3248  158.7995 C   0  0  0  0  0  0  0  0  0  0  0  0
  151.8094  144.1535  159.9073 C   0  0  0  0  0  0  0  0  0  0  0  0
  152.6223  143.6890  160.9576 C   0  0  0  0  0  0  0  0  0  0  0  0
  153.1715  142.3949  160.8985 C   0  0  0  0  0  0  0  0  0  0  0  0
  152.9092  141.5652  159.7911 C   0  0  0  0  0  0  0  0  0  0  0  0
  148.3076  140.5949  154.1098 C   0  0  1  0  0  0  0  0  0  0  0  0
  148.8423  139.3049  153.8760 O   0  0  0  0  0  0  0  0  0  0  0  0
  146.8226  140.5123  154.4451 C   0  0  2  0  0  0  0  0  0  0  0  0
  146.1668  141.6702  153.9576 O   0  0  0  0  0  0  0  0  0  0  0  0
  144.5366  141.3567  156.4588 C   0  0  0  0  0  0  0  0  0  0  0  0
  144.1115  140.4933  155.6906 O   0  0  0  0  0  0  0  0  0  0  0  0
  143.7321  142.2584  157.0892 N   0  5  0  0  0  0  0  0  0  0  0  0
  144.2149  143.2142  157.9340 C   0  0  0  0  0  0  0  0  0  0  0  0
  143.4774  144.0244  158.4945 O   0  0  0  0  0  0  0  0  0  0  0  0
  147.3089  144.2466  159.1881 H   0  0  0  0  0  0  0  0  0  0  0  0
  145.8134  144.1779  160.1227 H   0  0  0  0  0  0  0  0  0  0  0  0
  145.9671  145.3157  158.7762 H   0  0  0  0  0  0  0  0  0  0  0  0
  147.5136  142.4105  157.7294 H   0  0  0  0  0  0  0  0  0  0  0  0
  146.4892  139.4228  156.3549 H   0  0  0  0  0  0  0  0  0  0  0  0
  148.6725  142.2717  155.3824 H   0  0  0  0  0  0  0  0  0  0  0  0
  150.6562  139.9435  155.6162 H   0  0  0  0  0  0  0  0  0  0  0  0
  150.9636  141.4599  154.7706 H   0  0  0  0  0  0  0  0  0  0  0  0
  150.9177  143.7030  158.0048 H   0  0  0  0  0  0  0  0  0  0  0  0
  151.3880  145.1470  159.9504 H   0  0  0  0  0  0  0  0  0  0  0  0
  152.8247  144.3243  161.8073 H   0  0  0  0  0  0  0  0  0  0  0  0
  153.7960  142.0366  161.7038 H   0  0  0  0  0  0  0  0  0  0  0  0
  153.3477  140.5778  159.7780 H   0  0  0  0  0  0  0  0  0  0  0  0
  148.5094  141.2090  153.2309 H   0  0  0  0  0  0  0  0  0  0  0  0
  149.1585  139.2718  152.9859 H   0  0  0  0  0  0  0  0  0  0  0  0
  146.3436  139.6344  154.0096 H   0  0  0  0  0  0  0  0  0  0  0  0
  145.3607  141.3998  153.5432 H   0  0  0  0  0  0  0  0  0  0  0  0
  1  2  1  0  0  0  0
  1 27  1  0  0  0  0
  1 28  1  0  0  0  0
  1 29  1  0  0  0  0
  2 25  1  0  0  0  0
  2  3  2  0  0  0  0
  3  4  1  0  0  0  0
  3 30  1  0  0  0  0
  4  5  1  0  0  0  0
  4 22  1  0  0  0  0
  5 20  1  0  0  0  0
  5  6  1  0  0  0  0
  5 31  1  0  0  0  0
  6  7  1  0  0  0  0
  7  8  1  0  0  0  0
  7 18  1  0  0  0  0
  7 32  1  0  0  0  0
  8  9  1  0  0  0  0
  8 33  1  0  0  0  0
  8 34  1  0  0  0  0
  9 10  1  0  0  0  0
 10 11  2  0  0  0  0
 10 12  1  0  0  0  0
 12 17  1  0  0  0  0
 12 13  2  0  0  0  0
 13 14  1  0  0  0  0
 13 35  1  0  0  0  0
 14 15  2  0  0  0  0
 14 36  1  0  0  0  0
 15 16  1  0  0  0  0
 15 37  1  0  0  0  0
 16 17  2  0  0  0  0
 16 38  1  0  0  0  0
 17 39  1  0  0  0  0
 18 19  1  0  0  0  0
 18 20  1  0  0  0  0
 18 40  1  0  0  0  0
 19 41  1  0  0  0  0
 20 21  1  0  0  0  0
 20 42  1  0  0  0  0
 21 43  1  0  0  0  0
 22 23  2  0  0  0  0
 22 24  1  0  0  0  0
 24 25  1  0  0  0  0
 25 26  2  0  0  0  0
M  CHG  1  24  -1
M  END
> <s_m_source_file>
AV-unprocessed.smi

> <i_m_source_file_index>
101

> <i_lp_mmshare_version>
43012

> <i_f3d_flags>
0

> <s_epik_input>
Tz1jMVtuSF1jKD1PKW4oW2NIXWMxW0NIM10pW0NAQEhdMk9bQ0BIXShbQ0BASF0oW09IXSlbQ0BIXTJbT0hdKVtDSDJdT0MoPU8pYzNbY0hdW2NIXVtjSF1bY0hdW2NIXTM=

> <s_epik_cmdline>
J2VwaWtfcHl0aG9uJywgJy1waCcsICc3LjAnLCAnLXRuJywgJzgnLCAnLW1hJywgJzIwMCcsICctbWV0YWxfYmluZGluZycsICctaW1hZScsICc8aW5maWxlLm1hZT4nLCAnLW9tYWUnLCAnPG91dGZpbGUubWFlPic=

> <r_lp_tautomer_probability>
0.999537

> <r_epik_Ionization_Penalty>
3.21006

> <r_epik_Ionization_Penalty_Charging>
5.75142e-08

> <r_epik_Ionization_Penalty_Neutral>
3.21006

> <r_epik_State_Penalty>
3.20925

> <r_epik_Charging_Adjusted_Penalty>
3.20925

> <i_epik_Tot_Q>
-1

> <i_epik_Tot_abs_Q>
1

> <r_epik_Metal_State_Penalty>
0.119957

> <b_epik_Metal_Only>
1

> <s_epik_Chemistry_Notes>
This compound has an ester and may undergo hydrolysis at high or low pH. This compound contains an acetal/aminal-like group ( X-CH(R)-Y where X, Y are N, S, or O) that may be acid/base labile, releasing an aldehyde.

> <s_lp_Force_Field>
OPLS_2005

> <r_lp_Energy>
45.504

> <b_lp_Chiralities_Consistent>
1

> <s_lp_Variant>
AV-unprocessed.smi:101-25

> <Gold.Version>
5.8.1

> <Gold.Id.Protein>
6NUR|6NUR_protein|mol2

> <Gold.PLP.Fitness>
44.5919

> <Gold.PLP.PLP>
-36.6003

> <Gold.PLP.part.hbond>
-2.8710

> <Gold.PLP.part.metal>
0.0000

> <Gold.PLP.part.buried>
-5.9847

> <Gold.PLP.part.nonpolar>
-27.7319

> <Gold.PLP.part.repulsive>
0.2178

> <Gold.PLP.ligand.clash>
0.0000

> <Gold.PLP.ligand.torsion>
0.3285

> <Gold.PLP.Chemscore.Hbond>
2.7638

> <Gold.PLP.Chemscore.CHOScore>
0.0000

> <Gold.PLP.Chemscore.Metal>
0.0000

> <Gold.Chemscore.Hbonds>
donor molecule, donor type, donor heavy atom, donor atom, acceptor molecule, acceptor atom, score
      L1  H    19    41       P1  7957  1.00
      L1  H    21    43       P1 10175  0.60
      P1  H  7997  8010       L1    11  0.93

> <Gold.PLP.Chemscore.Internal.Correction>
0.3574

> <Gold.Rescore>
     Score         DG    S(hbond)    S(metal)    S(lipo)     H(rot)  DE(clash)    DE(int)     intcor
     15.55     -16.07       2.47        0.00      91.52       3.27       0.05       0.47       ----

> <Gold.Chemscore.Fitness>
15.5506

> <Gold.Chemscore.DG>
-16.0748

> <Gold.Chemscore.ZeroCoef>
-5.4800

> <Gold.Chemscore.Hbond>
2.4690

> <Gold.Chemscore.Metal>
0.0000

> <Gold.Chemscore.Lipo>
91.5234

> <Gold.Chemscore.Internal_Hbond>
0.0000

> <Gold.Chemscore.DEClash>
0.0529

> <Gold.Chemscore.DEInternal>
0.4713

> <Gold.Chemscore.Rot>
3.2656

> <Gold.Chemscore.Internal.Correction>
   9.000000E+99

> <Gold.Chemscore.Hbonds>
donor molecule, donor type, donor heavy atom, donor atom, acceptor molecule, acceptor atom, score
      L1  H    19    41       P1  7957  0.92
      L1  H    21    43       P1 10175  0.14
      P1  H  7997  8010       L1    11  0.85

> <Gold.Chemscore.Hbond.Weighted>
-8.2464

> <Gold.Chemscore.Metal.Weighted>
-0.0000

> <Gold.Chemscore.Lipo.Weighted>
-10.7082

> <Gold.Chemscore.Internal_Hbond.Weighted>
0.0000

> <Gold.Chemscore.DEClash.Weighted>
0.0529

> <Gold.Chemscore.DEInternal.Weighted>
0.4713

> <Gold.Chemscore.Rot.Weighted>
8.3598

> <Gold.Chemscore.Internal.Correction.Weighted>
   9.000000E+99

> <Gold.Protein.RotatedTorsions>
[ 6907 6896 6895 6894 ] final -135.82 input  -60.11 | X-H torsion
[ 7974 7965 7964 7962 ] final -124.96 input  175.53 | X-H torsion
[ 8008 7997 7996 7995 ] final   55.85 input   59.86 | X-H torsion
[ 10167 10162 10161 10158 ] final  151.34 input  -65.29 | X-H torsion
[ 10718 10713 10712 10709 ] final -101.76 input   66.30 | X-H torsion
[ 10763 10752 10751 10750 ] final   14.08 input  -60.55 | X-H torsion
[ 11005 11000 10999 10996 ] final   90.64 input  -57.11 | X-H torsion

> <Gold.Protein.ActiveResidues>
 VAL166  LYS551  ARG553  GLY616  TRP617  ASP618  TYR619  PRO620  LYS621  CYS622 
 ASP623  PHE694  ASN695  SER759  ASP760  ASP761  ALA762  ILE779  LEU786  VAL792 
 PHE793  MET794  SER795  GLU796  ALA797  LYS798  CYS799  TRP800  GLU811  SER814 

> <Gold.Protein.RotatedAtoms>
  151.0025  133.6043  159.2692 H   0  0  0  0  0  0  0  0  0  0  0  0  # atno 6907 bound_to 6896
  151.3224  135.0821  159.9320 H   0  0  0  0  0  0  0  0  0  0  0  0  # atno 6908 bound_to 6896
  152.5277  133.9670  159.7798 H   0  0  0  0  0  0  0  0  0  0  0  0  # atno 6909 bound_to 6896
  145.0026  140.7834  143.4487 H   0  0  0  0  0  0  0  0  0  0  0  0  # atno 7974 bound_to 7965
  155.5078  140.3476  155.4383 H   0  0  0  0  0  0  0  0  0  0  0  0  # atno 8008 bound_to 7997
  156.0870  140.1401  156.9668 H   0  0  0  0  0  0  0  0  0  0  0  0  # atno 8009 bound_to 7997
  154.4612  140.0934  156.6875 H   0  0  0  0  0  0  0  0  0  0  0  0  # atno 8010 bound_to 7997
  139.4841  144.5448  151.7502 H   0  0  0  0  0  0  0  0  0  0  0  0  # atno 10167 bound_to 10162
  156.0205  130.5388  150.7010 H   0  0  0  0  0  0  0  0  0  0  0  0  # atno 10718 bound_to 10713
  153.1657  135.6804  153.8678 H   0  0  0  0  0  0  0  0  0  0  0  0  # atno 10763 bound_to 10752
  153.8059  135.3149  155.3396 H   0  0  0  0  0  0  0  0  0  0  0  0  # atno 10764 bound_to 10752
  154.7964  135.4804  154.0261 H   0  0  0  0  0  0  0  0  0  0  0  0  # atno 10765 bound_to 10752
  139.8852  134.8626  156.3314 H   0  0  0  0  0  0  0  0  0  0  0  0  # atno 11005 bound_to 11000
  145.2132  139.2194  143.5132 LP  0  0  0  0  0  0  0  0  0  0  0  0  # atno 17320 bound_to 7965
  146.3455  140.1974  142.8589 LP  0  0  0  0  0  0  0  0  0  0  0  0  # atno 17321 bound_to 7965
  140.4993  144.1192  150.5967 LP  0  0  0  0  0  0  0  0  0  0  0  0  # atno 17342 bound_to 10162
  140.4080  143.2671  151.9867 LP  0  0  0  0  0  0  0  0  0  0  0  0  # atno 17343 bound_to 10162
  157.4670  131.0889  151.0684 LP  0  0  0  0  0  0  0  0  0  0  0  0  # atno 17370 bound_to 10713
  157.1155  130.6039  149.5492 LP  0  0  0  0  0  0  0  0  0  0  0  0  # atno 17371 bound_to 10713
  140.9720  133.7321  156.0548 LP  0  0  0  0  0  0  0  0  0  0  0  0  # atno 17394 bound_to 11000
  140.7858  134.3673  157.5476 LP  0  0  0  0  0  0  0  0  0  0  0  0  # atno 17395 bound_to 11000

$$$$
