AV-unprocessed.smi:672|AV-procd|sdf|3294|dock4
  -GOLD-   22720 0253D 1   1.00000     0.00000
 Structure written by MMmdl.
 35 36  0  0  0  0  0  0  0  0  2 V2000
  146.6932  139.4049  151.4513 C   0  0  0  0  0  0  0  0  0  0  0  0
  146.8019  138.6267  152.7670 C   0  0  0  0  0  0  0  0  0  0  0  0
  147.6334  139.3344  153.7841 C   0  0  0  0  0  0  0  0  0  0  0  0
  148.8341  138.8955  154.1713 N   0  0  0  0  0  0  0  0  0  0  0  0
  149.3974  139.7062  155.1459 N   0  0  0  0  0  0  0  0  0  0  0  0
  148.6070  140.7292  155.5007 C   0  0  0  0  0  0  0  0  0  0  0  0
  148.9673  141.6292  156.4304 N   0  5  0  0  0  0  0  0  0  0  0  0
  150.2299  141.6303  156.9156 C   0  0  0  0  0  0  0  0  0  0  0  0
  150.9376  140.6396  157.1123 O   0  0  0  0  0  0  0  0  0  0  0  0
  150.7031  142.8548  157.1890 N   0  0  0  0  0  0  0  0  0  0  0  0
  152.0283  143.1607  157.7237 C   0  0  1  0  0  0  0  0  0  0  0  0
  152.1738  144.6587  158.0610 C   0  0  0  0  0  0  0  0  0  0  0  0
  152.2493  144.7452  159.5859 C   0  0  0  0  0  0  0  0  0  0  0  0
  152.8892  143.4226  160.0036 C   0  0  1  0  0  0  0  0  0  0  0  0
  152.5967  143.0020  161.7464 S   0  0  0  0  0  0  0  0  0  0  0  0
  153.7599  141.6267  161.9463 C   0  0  0  0  0  0  0  0  0  0  0  0
  152.2776  142.4015  159.0406 C   0  0  0  0  0  0  0  0  0  0  0  0
  147.0817  140.7782  154.6170 S   0  0  0  0  0  0  0  0  0  0  0  0
  146.0833  138.8630  150.7286 H   0  0  0  0  0  0  0  0  0  0  0  0
  147.6759  139.5636  151.0063 H   0  0  0  0  0  0  0  0  0  0  0  0
  146.2351  140.3818  151.6094 H   0  0  0  0  0  0  0  0  0  0  0  0
  145.8077  138.4546  153.1810 H   0  0  0  0  0  0  0  0  0  0  0  0
  147.2373  137.6441  152.5828 H   0  0  0  0  0  0  0  0  0  0  0  0
  150.0912  143.6376  157.0105 H   0  0  0  0  0  0  0  0  0  0  0  0
  152.7913  142.8768  156.9963 H   0  0  0  0  0  0  0  0  0  0  0  0
  153.1037  145.0332  157.6315 H   0  0  0  0  0  0  0  0  0  0  0  0
  151.3677  145.2750  157.6606 H   0  0  0  0  0  0  0  0  0  0  0  0
  152.8136  145.6147  159.9237 H   0  0  0  0  0  0  0  0  0  0  0  0
  151.2414  144.8194  159.9969 H   0  0  0  0  0  0  0  0  0  0  0  0
  153.9648  143.4709  159.8271 H   0  0  0  0  0  0  0  0  0  0  0  0
  153.6872  141.2190  162.9545 H   0  0  0  0  0  0  0  0  0  0  0  0
  154.7841  141.9621  161.7843 H   0  0  0  0  0  0  0  0  0  0  0  0
  153.5355  140.8316  161.2355 H   0  0  0  0  0  0  0  0  0  0  0  0
  151.3343  142.0360  159.4505 H   0  0  0  0  0  0  0  0  0  0  0  0
  152.9234  141.5342  158.8995 H   0  0  0  0  0  0  0  0  0  0  0  0
  1  2  1  0  0  0  0
  1 19  1  0  0  0  0
  1 20  1  0  0  0  0
  1 21  1  0  0  0  0
  2  3  1  0  0  0  0
  2 22  1  0  0  0  0
  2 23  1  0  0  0  0
  3 18  1  0  0  0  0
  3  4  2  0  0  0  0
  4  5  1  0  0  0  0
  5  6  2  0  0  0  0
  6  7  1  0  0  0  0
  6 18  1  0  0  0  0
  7  8  1  0  0  0  0
  8  9  2  0  0  0  0
  8 10  1  0  0  0  0
 10 11  1  0  0  0  0
 10 24  1  0  0  0  0
 11 17  1  0  0  0  0
 11 12  1  0  0  0  0
 11 25  1  0  0  0  0
 12 13  1  0  0  0  0
 12 26  1  0  0  0  0
 12 27  1  0  0  0  0
 13 14  1  0  0  0  0
 13 28  1  0  0  0  0
 13 29  1  0  0  0  0
 14 15  1  0  0  0  0
 14 17  1  0  0  0  0
 14 30  1  0  0  0  0
 15 16  1  0  0  0  0
 16 31  1  0  0  0  0
 16 32  1  0  0  0  0
 16 33  1  0  0  0  0
 17 34  1  0  0  0  0
 17 35  1  0  0  0  0
M  CHG  1   7  -1
M  END
> <s_m_source_file>
AV-unprocessed.smi

> <i_m_source_file_index>
672

> <i_lp_mmshare_version>
43012

> <i_f3d_flags>
0

> <s_epik_input>
W0NIM11bQ0gyXWMxbm5jKHMxKVtOSF1DKD1PKVtOSF1bQ0BASF0yW0NIMl1bQ0gyXVtDQEhdKFtDSDJdMilTW0NIM10=

> <s_epik_cmdline>
J2VwaWtfcHl0aG9uJywgJy1waCcsICc3LjAnLCAnLXRuJywgJzgnLCAnLW1hJywgJzIwMCcsICctbWV0YWxfYmluZGluZycsICctaW1hZScsICc8aW5maWxlLm1hZT4nLCAnLW9tYWUnLCAnPG91dGZpbGUubWFlPic=

> <r_lp_tautomer_probability>
1

> <r_epik_Ionization_Penalty>
4.49964

> <r_epik_Ionization_Penalty_Charging>
4.32991

> <r_epik_Ionization_Penalty_Neutral>
0.169727

> <r_epik_State_Penalty>
4.32952

> <r_epik_Charging_Adjusted_Penalty>
8.65943

> <i_epik_Tot_Q>
-1

> <i_epik_Tot_abs_Q>
1

> <r_epik_Metal_State_Penalty>
0.740482

> <b_epik_Metal_Only>
1

> <s_lp_Force_Field>
OPLS_2005

> <r_lp_Energy>
10.5366

> <b_lp_Chiralities_Consistent>
1

> <s_lp_Variant>
AV-unprocessed.smi:672-6

> <Gold.Version>
5.8.1

> <Gold.Id.Protein>
6NUR|6NUR_protein|mol2

> <Gold.PLP.Fitness>
41.2186

> <Gold.PLP.PLP>
-39.1282

> <Gold.PLP.part.hbond>
-1.0000

> <Gold.PLP.part.metal>
0.0000

> <Gold.PLP.part.buried>
-3.6498

> <Gold.PLP.part.nonpolar>
-34.8271

> <Gold.PLP.part.repulsive>
0.6674

> <Gold.PLP.ligand.clash>
0.0000

> <Gold.PLP.ligand.torsion>
0.4896

> <Gold.PLP.Chemscore.Hbond>
1.0000

> <Gold.PLP.Chemscore.CHOScore>
0.0000

> <Gold.PLP.Chemscore.Metal>
0.0000

> <Gold.Chemscore.Hbonds>
donor molecule, donor type, donor heavy atom, donor atom, acceptor molecule, acceptor atom, score
      L1  H    10    24       P1  8028  0.82

> <Gold.PLP.Chemscore.Internal.Correction>
0.0695

> <Gold.Rescore>
     Score         DG    S(hbond)    S(metal)    S(lipo)     H(rot)  DE(clash)    DE(int)     intcor
     14.56     -18.63       0.98        0.00     113.69       1.34       0.71       3.36       ----

> <Gold.Chemscore.Fitness>
14.5608

> <Gold.Chemscore.DG>
-18.6292

> <Gold.Chemscore.ZeroCoef>
-5.4800

> <Gold.Chemscore.Hbond>
0.9823

> <Gold.Chemscore.Metal>
0.0000

> <Gold.Chemscore.Lipo>
113.6852

> <Gold.Chemscore.Internal_Hbond>
0.0000

> <Gold.Chemscore.DEClash>
0.7051

> <Gold.Chemscore.DEInternal>
3.3632

> <Gold.Chemscore.Rot>
1.3410

> <Gold.Chemscore.Internal.Correction>
   9.000000E+99

> <Gold.Chemscore.Hbonds>
donor molecule, donor type, donor heavy atom, donor atom, acceptor molecule, acceptor atom, score
      L1  H    10    24       P1  8028  0.77

> <Gold.Chemscore.Hbond.Weighted>
-3.2809

> <Gold.Chemscore.Metal.Weighted>
-0.0000

> <Gold.Chemscore.Lipo.Weighted>
-13.3012

> <Gold.Chemscore.Internal_Hbond.Weighted>
0.0000

> <Gold.Chemscore.DEClash.Weighted>
0.7051

> <Gold.Chemscore.DEInternal.Weighted>
3.3632

> <Gold.Chemscore.Rot.Weighted>
3.4329

> <Gold.Chemscore.Internal.Correction.Weighted>
   9.000000E+99

> <Gold.Protein.RotatedTorsions>
[ 6907 6896 6895 6894 ] final  144.15 input  -60.11 | X-H torsion
[ 7974 7965 7964 7962 ] final   82.29 input  175.53 | X-H torsion
[ 8008 7997 7996 7995 ] final -165.54 input   59.86 | X-H torsion
[ 10167 10162 10161 10158 ] final  -98.75 input  -65.29 | X-H torsion
[ 10718 10713 10712 10709 ] final -127.34 input   66.30 | X-H torsion
[ 10763 10752 10751 10750 ] final  169.57 input  -60.55 | X-H torsion
[ 11005 11000 10999 10996 ] final -105.35 input  -57.11 | X-H torsion

> <Gold.Protein.ActiveResidues>
 VAL166  LYS551  ARG553  GLY616  TRP617  ASP618  TYR619  PRO620  LYS621  CYS622 
 ASP623  PHE694  ASN695  SER759  ASP760  ASP761  ALA762  ILE779  LEU786  VAL792 
 PHE793  MET794  SER795  GLU796  ALA797  LYS798  CYS799  TRP800  GLU811  SER814 

> <Gold.Protein.RotatedAtoms>
  152.1973  133.4815  159.5039 H   0  0  0  0  0  0  0  0  0  0  0  0  # atno 6907 bound_to 6896
  150.6962  134.1636  159.4194 H   0  0  0  0  0  0  0  0  0  0  0  0  # atno 6908 bound_to 6896
  151.9552  135.0150  160.0595 H   0  0  0  0  0  0  0  0  0  0  0  0  # atno 6909 bound_to 6896
  145.6270  139.2397  143.2106 H   0  0  0  0  0  0  0  0  0  0  0  0  # atno 7974 bound_to 7965
  155.8512  140.0963  157.1674 H   0  0  0  0  0  0  0  0  0  0  0  0  # atno 8008 bound_to 7997
  154.3985  140.1383  156.3908 H   0  0  0  0  0  0  0  0  0  0  0  0  # atno 8009 bound_to 7997
  155.7959  140.3454  155.5378 H   0  0  0  0  0  0  0  0  0  0  0  0  # atno 8010 bound_to 7997
  140.2696  143.3353  152.0547 H   0  0  0  0  0  0  0  0  0  0  0  0  # atno 10167 bound_to 10162
  156.1848  130.6756  151.0351 H   0  0  0  0  0  0  0  0  0  0  0  0  # atno 10718 bound_to 10713
  154.3851  135.2753  155.2188 H   0  0  0  0  0  0  0  0  0  0  0  0  # atno 10763 bound_to 10752
  154.4278  135.5984  153.6053 H   0  0  0  0  0  0  0  0  0  0  0  0  # atno 10764 bound_to 10752
  152.9833  135.5988  154.4099 H   0  0  0  0  0  0  0  0  0  0  0  0  # atno 10765 bound_to 10752
  141.1058  133.8800  157.1723 H   0  0  0  0  0  0  0  0  0  0  0  0  # atno 11005 bound_to 11000
  146.1386  140.7088  142.9377 LP  0  0  0  0  0  0  0  0  0  0  0  0  # atno 17320 bound_to 7965
  144.7208  140.4367  143.7009 LP  0  0  0  0  0  0  0  0  0  0  0  0  # atno 17321 bound_to 7965
  139.4992  144.6665  151.6344 LP  0  0  0  0  0  0  0  0  0  0  0  0  # atno 17342 bound_to 10162
  140.5900  143.9796  150.6319 LP  0  0  0  0  0  0  0  0  0  0  0  0  # atno 17343 bound_to 10162
  157.6892  131.0815  150.7157 LP  0  0  0  0  0  0  0  0  0  0  0  0  # atno 17370 bound_to 10713
  156.7213  130.4681  149.5522 LP  0  0  0  0  0  0  0  0  0  0  0  0  # atno 17371 bound_to 10713
  139.9927  135.0058  157.0012 LP  0  0  0  0  0  0  0  0  0  0  0  0  # atno 17394 bound_to 11000
  140.4907  134.1196  155.7232 LP  0  0  0  0  0  0  0  0  0  0  0  0  # atno 17395 bound_to 11000

$$$$
