AV-unprocessed.smi:111|AV-procd|sdf|1080|dock2
  -GOLD-   2262018173D 1   1.00000     0.00000
 Structure written by MMmdl.
 46 48  0  0  0  0  0  0  0  0  1 V2000
  151.0453  137.2129  159.8929 O   0  0  0  0  0  0  0  0  0  0  0  0
  150.9066  137.7834  158.8095 C   0  0  0  0  0  0  0  0  0  0  0  0
  149.6053  138.0521  158.2084 C   0  0  0  0  0  0  0  0  0  0  0  0
  148.4869  137.6545  158.8384 F   0  0  0  0  0  0  0  0  0  0  0  0
  149.5040  138.6898  157.0228 C   0  0  0  0  0  0  0  0  0  0  0  0
  150.6031  139.1300  156.3059 N   0  0  0  0  0  0  0  0  0  0  0  0
  150.4353  139.8452  154.9844 C   0  0  1  0  0  0  0  0  0  0  0  0
  149.5746  139.0092  154.0305 C   0  0  0  0  0  0  0  0  0  0  0  0
  148.2082  139.6361  154.2062 C   0  0  0  0  0  0  0  0  0  0  0  0
  148.5701  141.0967  154.4451 C   0  0  0  0  0  0  0  0  0  0  0  0
  149.7733  141.0573  155.2061 O   0  0  0  0  0  0  0  0  0  0  0  0
  151.9047  138.8891  156.7978 C   0  0  0  0  0  0  0  0  0  0  0  0
  152.8945  139.2390  156.1510 O   0  0  0  0  0  0  0  0  0  0  0  0
  152.0152  138.2252  158.0446 N   0  0  0  0  0  0  0  0  0  0  0  0
  153.3439  137.9574  158.5811 C   0  0  0  0  0  0  0  0  0  0  0  0
  153.8788  139.0561  159.5296 C   0  0  2  0  0  0  0  0  0  0  0  0
  153.7031  138.6176  160.8610 O   0  0  0  0  0  0  0  0  0  0  0  0
  153.2093  140.4409  159.3600 C   0  0  0  0  0  0  0  0  0  0  0  0
  153.6758  141.4824  160.3917 C   0  0  0  0  0  0  0  0  0  0  0  0
  153.0794  142.8583  160.1443 C   0  0  0  0  0  0  0  0  0  0  0  0
  152.4443  143.5618  161.1898 C   0  0  0  0  0  0  0  0  0  0  0  0
  151.9139  144.8461  160.9592 C   0  0  0  0  0  0  0  0  0  0  0  0
  152.0100  145.4293  159.6812 C   0  0  0  0  0  0  0  0  0  0  0  0
  152.6357  144.7272  158.6336 C   0  0  0  0  0  0  0  0  0  0  0  0
  153.1702  143.4453  158.8648 C   0  0  0  0  0  0  0  0  0  0  0  0
  148.5139  138.8540  156.6244 H   0  0  0  0  0  0  0  0  0  0  0  0
  151.4394  140.0471  154.6085 H   0  0  0  0  0  0  0  0  0  0  0  0
  149.9359  139.1620  153.0128 H   0  0  0  0  0  0  0  0  0  0  0  0
  149.6118  137.9444  154.2611 H   0  0  0  0  0  0  0  0  0  0  0  0
  147.5569  139.4922  153.3439 H   0  0  0  0  0  0  0  0  0  0  0  0
  147.7107  139.2239  155.0841 H   0  0  0  0  0  0  0  0  0  0  0  0
  148.7687  141.5998  153.4979 H   0  0  0  0  0  0  0  0  0  0  0  0
  147.7853  141.6456  154.9658 H   0  0  0  0  0  0  0  0  0  0  0  0
  153.3485  136.9789  159.0621 H   0  0  0  0  0  0  0  0  0  0  0  0
  153.9944  137.8413  157.7117 H   0  0  0  0  0  0  0  0  0  0  0  0
  154.9552  139.1446  159.3935 H   0  0  0  0  0  0  0  0  0  0  0  0
  153.2013  139.2681  161.3279 H   0  0  0  0  0  0  0  0  0  0  0  0
  153.3936  140.8426  158.3659 H   0  0  0  0  0  0  0  0  0  0  0  0
  152.1245  140.3384  159.4185 H   0  0  0  0  0  0  0  0  0  0  0  0
  153.3839  141.1595  161.3915 H   0  0  0  0  0  0  0  0  0  0  0  0
  154.7649  141.5431  160.3978 H   0  0  0  0  0  0  0  0  0  0  0  0
  152.3716  143.1241  162.1747 H   0  0  0  0  0  0  0  0  0  0  0  0
  151.4351  145.3844  161.7638 H   0  0  0  0  0  0  0  0  0  0  0  0
  151.6044  146.4147  159.5052 H   0  0  0  0  0  0  0  0  0  0  0  0
  152.7075  145.1724  157.6529 H   0  0  0  0  0  0  0  0  0  0  0  0
  153.6552  142.9144  158.0589 H   0  0  0  0  0  0  0  0  0  0  0  0
  1  2  2  0  0  0  0
  2 14  1  0  0  0  0
  2  3  1  0  0  0  0
  3  4  1  0  0  0  0
  3  5  2  0  0  0  0
  5  6  1  0  0  0  0
  5 26  1  0  0  0  0
  6  7  1  0  0  0  0
  6 12  1  0  0  0  0
  7 11  1  0  0  0  0
  7  8  1  0  0  0  0
  7 27  1  0  0  0  0
  8  9  1  0  0  0  0
  8 28  1  0  0  0  0
  8 29  1  0  0  0  0
  9 10  1  0  0  0  0
  9 30  1  0  0  0  0
  9 31  1  0  0  0  0
 10 11  1  0  0  0  0
 10 32  1  0  0  0  0
 10 33  1  0  0  0  0
 12 13  2  0  0  0  0
 12 14  1  0  0  0  0
 14 15  1  0  0  0  0
 15 16  1  0  0  0  0
 15 34  1  0  0  0  0
 15 35  1  0  0  0  0
 16 17  1  0  0  0  0
 16 18  1  0  0  0  0
 16 36  1  0  0  0  0
 17 37  1  0  0  0  0
 18 19  1  0  0  0  0
 18 38  1  0  0  0  0
 18 39  1  0  0  0  0
 19 20  1  0  0  0  0
 19 40  1  0  0  0  0
 19 41  1  0  0  0  0
 20 25  1  0  0  0  0
 20 21  2  0  0  0  0
 21 22  1  0  0  0  0
 21 42  1  0  0  0  0
 22 23  2  0  0  0  0
 22 43  1  0  0  0  0
 23 24  1  0  0  0  0
 23 44  1  0  0  0  0
 24 25  2  0  0  0  0
 24 45  1  0  0  0  0
 25 46  1  0  0  0  0
M  END
> <s_m_source_file>
AV-unprocessed.smi

> <i_m_source_file_index>
111

> <i_lp_mmshare_version>
43012

> <i_f3d_flags>
0

> <s_epik_input>
TzFbQ0gyXVtDSDJdW0NIMl1bQ0BIXTFuKFtjSF1jKEYpYzI9TyljKD1PKW4yW0NIMl1bQ0BIXShbT0hdKVtDSDJdW0NIMl1jM1tjSF1bY0hdW2NIXVtjSF1bY0hdMw==

> <s_epik_cmdline>
J2VwaWtfcHl0aG9uJywgJy1waCcsICc3LjAnLCAnLXRuJywgJzgnLCAnLW1hJywgJzIwMCcsICctbWV0YWxfYmluZGluZycsICctaW1hZScsICc8aW5maWxlLm1hZT4nLCAnLW9tYWUnLCAnPG91dGZpbGUubWFlPic=

> <r_lp_tautomer_probability>
1

> <r_epik_Ionization_Penalty>
1.88248e-07

> <r_epik_Ionization_Penalty_Charging>
4.03974e-08

> <r_epik_Ionization_Penalty_Neutral>
1.47851e-07

> <r_epik_State_Penalty>
-0

> <r_epik_Charging_Adjusted_Penalty>
4.03974e-08

> <i_epik_Tot_Q>
0

> <i_epik_Tot_abs_Q>
0

> <r_epik_Metal_State_Penalty>
-0

> <b_epik_Metal_Only>
0

> <s_epik_Chemistry_Notes>
This compound contains an acetal/aminal-like group ( X-CH(R)-Y where X, Y are N, S, or O) that may be acid/base labile, releasing an aldehyde.

> <s_lp_Force_Field>
OPLS_2005

> <r_lp_Energy>
34.7798

> <b_lp_Chiralities_Consistent>
1

> <s_lp_Variant>
AV-unprocessed.smi:111-2

> <Gold.Version>
5.8.1

> <Gold.Id.Protein>
6NUR|6NUR_protein|mol2

> <Gold.PLP.Fitness>
54.7713

> <Gold.PLP.PLP>
-50.8335

> <Gold.PLP.part.hbond>
-1.9259

> <Gold.PLP.part.metal>
0.0000

> <Gold.PLP.part.buried>
-3.9812

> <Gold.PLP.part.nonpolar>
-45.1171

> <Gold.PLP.part.repulsive>
0.1022

> <Gold.PLP.ligand.clash>
0.0000

> <Gold.PLP.ligand.torsion>
1.0700

> <Gold.PLP.Chemscore.Hbond>
2.0000

> <Gold.PLP.Chemscore.CHOScore>
0.0000

> <Gold.PLP.Chemscore.Metal>
0.0000

> <Gold.Chemscore.Hbonds>
donor molecule, donor type, donor heavy atom, donor atom, acceptor molecule, acceptor atom, score
      P1  H  6896  6908       L1     1  0.88
      P1  H  7997  8010       L1    13  1.00

> <Gold.PLP.Chemscore.Internal.Correction>
0.0777

> <Gold.Rescore>
     Score         DG    S(hbond)    S(metal)    S(lipo)     H(rot)  DE(clash)    DE(int)     intcor
     19.15     -20.28       1.94        0.00     129.55       2.67       0.04       1.10       ----

> <Gold.Chemscore.Fitness>
19.1467

> <Gold.Chemscore.DG>
-20.2807

> <Gold.Chemscore.ZeroCoef>
-5.4800

> <Gold.Chemscore.Hbond>
1.9429

> <Gold.Chemscore.Metal>
0.0000

> <Gold.Chemscore.Lipo>
129.5527

> <Gold.Chemscore.Internal_Hbond>
0.0000

> <Gold.Chemscore.DEClash>
0.0385

> <Gold.Chemscore.DEInternal>
1.0955

> <Gold.Chemscore.Rot>
2.6743

> <Gold.Chemscore.Internal.Correction>
   9.000000E+99

> <Gold.Chemscore.Hbonds>
donor molecule, donor type, donor heavy atom, donor atom, acceptor molecule, acceptor atom, score
      P1  H  6896  6908       L1     1  0.84
      P1  H  7997  8010       L1    13  0.99

> <Gold.Chemscore.Hbond.Weighted>
-6.4893

> <Gold.Chemscore.Metal.Weighted>
-0.0000

> <Gold.Chemscore.Lipo.Weighted>
-15.1577

> <Gold.Chemscore.Internal_Hbond.Weighted>
0.0000

> <Gold.Chemscore.DEClash.Weighted>
0.0385

> <Gold.Chemscore.DEInternal.Weighted>
1.0955

> <Gold.Chemscore.Rot.Weighted>
6.8463

> <Gold.Chemscore.Internal.Correction.Weighted>
   9.000000E+99

> <Gold.Protein.RotatedTorsions>
[ 6907 6896 6895 6894 ] final -128.98 input  -60.11 | X-H torsion
[ 7974 7965 7964 7962 ] final   57.42 input  175.53 | X-H torsion
[ 8008 7997 7996 7995 ] final   64.87 input   59.86 | X-H torsion
[ 10167 10162 10161 10158 ] final   68.36 input  -65.29 | X-H torsion
[ 10718 10713 10712 10709 ] final  -83.01 input   66.30 | X-H torsion
[ 10763 10752 10751 10750 ] final  -57.17 input  -60.55 | X-H torsion
[ 11005 11000 10999 10996 ] final  147.56 input  -57.11 | X-H torsion

> <Gold.Protein.ActiveResidues>
 VAL166  LYS551  ARG553  GLY616  TRP617  ASP618  TYR619  PRO620  LYS621  CYS622 
 ASP623  PHE694  ASN695  SER759  ASP760  ASP761  ALA762  ILE779  LEU786  VAL792 
 PHE793  MET794  SER795  GLU796  ALA797  LYS798  CYS799  TRP800  GLU811  SER814 

> <Gold.Protein.RotatedAtoms>
  150.9238  133.6849  159.2825 H   0  0  0  0  0  0  0  0  0  0  0  0  # atno 6907 bound_to 6896
  151.4294  135.1006  159.9647 H   0  0  0  0  0  0  0  0  0  0  0  0  # atno 6908 bound_to 6896
  152.4992  133.8671  159.7335 H   0  0  0  0  0  0  0  0  0  0  0  0  # atno 6909 bound_to 6896
  145.9292  139.3793  143.0431 H   0  0  0  0  0  0  0  0  0  0  0  0  # atno 7974 bound_to 7965
  155.6528  140.3497  155.4754 H   0  0  0  0  0  0  0  0  0  0  0  0  # atno 8008 bound_to 7997
  155.9834  140.1179  157.0729 H   0  0  0  0  0  0  0  0  0  0  0  0  # atno 8009 bound_to 7997
  154.4198  140.1134  156.5452 H   0  0  0  0  0  0  0  0  0  0  0  0  # atno 8010 bound_to 7997
  140.0795  144.5083  150.7172 H   0  0  0  0  0  0  0  0  0  0  0  0  # atno 10167 bound_to 10162
  156.0024  130.4652  150.4192 H   0  0  0  0  0  0  0  0  0  0  0  0  # atno 10718 bound_to 10713
  154.2182  135.6382  153.5136 H   0  0  0  0  0  0  0  0  0  0  0  0  # atno 10763 bound_to 10752
  152.9974  135.5490  154.6142 H   0  0  0  0  0  0  0  0  0  0  0  0  # atno 10764 bound_to 10752
  154.5596  135.2908  155.0906 H   0  0  0  0  0  0  0  0  0  0  0  0  # atno 10765 bound_to 10752
  140.0886  134.9055  157.1615 H   0  0  0  0  0  0  0  0  0  0  0  0  # atno 11005 bound_to 11000
  145.8448  140.9561  143.0780 LP  0  0  0  0  0  0  0  0  0  0  0  0  # atno 17320 bound_to 7965
  144.6762  140.0331  143.7482 LP  0  0  0  0  0  0  0  0  0  0  0  0  # atno 17321 bound_to 7965
  140.7085  143.2486  151.4654 LP  0  0  0  0  0  0  0  0  0  0  0  0  # atno 17342 bound_to 10162
  139.5788  144.1757  152.1940 LP  0  0  0  0  0  0  0  0  0  0  0  0  # atno 17343 bound_to 10162
  157.2249  131.0491  151.2525 LP  0  0  0  0  0  0  0  0  0  0  0  0  # atno 17370 bound_to 10713
  157.3766  130.7209  149.6601 LP  0  0  0  0  0  0  0  0  0  0  0  0  # atno 17371 bound_to 10713
  140.3385  134.2730  155.7216 LP  0  0  0  0  0  0  0  0  0  0  0  0  # atno 17394 bound_to 11000
  141.2070  133.7816  157.0141 LP  0  0  0  0  0  0  0  0  0  0  0  0  # atno 17395 bound_to 11000

$$$$
