AV-unprocessed.smi:1605|AV-procd|sdf|6455|dock2
  -GOLD-   22720 7103D 1   1.00000     0.00000
 Structure written by MMmdl.
 52 54  0  0  0  0  0  0  0  0  3 V2000
  146.6637  133.9226  153.3209 C   0  0  0  0  0  0  0  0  0  0  0  0
  146.8740  133.7871  154.7181 O   0  0  0  0  0  0  0  0  0  0  0  0
  147.9563  134.5566  155.2252 C   0  0  2  0  0  0  0  0  0  0  0  0
  147.6384  136.0367  154.9672 C   0  0  0  0  0  0  0  0  0  0  0  0
  148.8049  136.9402  155.3995 C   0  0  0  0  0  0  0  0  0  0  0  0
  150.0621  136.5581  154.7032 N   0  3  1  0  0  0  0  0  0  0  0  0
  151.1964  137.4761  154.9839 C   0  0  0  0  0  0  0  0  0  0  0  0
  150.7457  138.9324  155.2170 C   0  0  2  0  0  0  0  0  0  0  0  0
  150.4117  139.5058  153.9681 O   0  0  0  0  0  0  0  0  0  0  0  0
  151.8553  139.7647  155.8908 C   0  0  0  0  0  0  0  0  0  0  0  0
  151.3754  141.0509  156.4185 N   0  0  0  0  0  0  0  0  0  0  0  0
  150.4897  141.9341  155.8814 C   0  0  0  0  0  0  0  0  0  0  0  0
  150.3604  142.9701  156.7555 N   0  3  0  0  0  0  0  0  0  0  0  0
  151.1738  142.7462  157.8681 C   0  0  0  0  0  0  0  0  0  0  0  0
  151.3816  143.5084  159.0116 C   0  0  0  0  0  0  0  0  0  0  0  0
  152.2866  142.9997  159.9703 C   0  0  0  0  0  0  0  0  0  0  0  0
  152.5377  143.8087  161.2315 C   0  0  0  0  0  0  0  0  0  0  0  0
  152.9478  141.7613  159.7645 C   0  0  0  0  0  0  0  0  0  0  0  0
  153.9217  141.2247  160.7998 C   0  0  0  0  0  0  0  0  0  0  0  0
  152.7209  140.9999  158.5959 C   0  0  0  0  0  0  0  0  0  0  0  0
  151.8275  141.5160  157.6599 C   0  0  0  0  0  0  0  0  0  0  0  0
  150.4134  135.1371  154.9583 C   0  0  0  0  0  0  0  0  0  0  0  0
  149.2788  134.1936  154.5246 C   0  0  0  0  0  0  0  0  0  0  0  0
  145.8453  133.2718  153.0133 H   0  0  0  0  0  0  0  0  0  0  0  0
  147.5508  133.6315  152.7571 H   0  0  0  0  0  0  0  0  0  0  0  0
  146.3934  134.9421  153.0469 H   0  0  0  0  0  0  0  0  0  0  0  0
  148.0495  134.4044  156.3023 H   0  0  0  0  0  0  0  0  0  0  0  0
  147.4322  136.1911  153.9069 H   0  0  0  0  0  0  0  0  0  0  0  0
  146.7320  136.3209  155.5029 H   0  0  0  0  0  0  0  0  0  0  0  0
  148.5471  137.9755  155.1805 H   0  0  0  0  0  0  0  0  0  0  0  0
  148.9496  136.8733  156.4791 H   0  0  0  0  0  0  0  0  0  0  0  0
  151.7548  137.1042  155.8445 H   0  0  0  0  0  0  0  0  0  0  0  0
  151.8935  137.4651  154.1442 H   0  0  0  0  0  0  0  0  0  0  0  0
  149.8602  138.9630  155.8510 H   0  0  0  0  0  0  0  0  0  0  0  0
  149.5171  139.2794  153.7626 H   0  0  0  0  0  0  0  0  0  0  0  0
  152.2687  139.2107  156.7348 H   0  0  0  0  0  0  0  0  0  0  0  0
  152.6879  139.9440  155.2100 H   0  0  0  0  0  0  0  0  0  0  0  0
  149.9776  141.8309  154.9355 H   0  0  0  0  0  0  0  0  0  0  0  0
  150.8736  144.4498  159.1623 H   0  0  0  0  0  0  0  0  0  0  0  0
  152.2084  143.2552  162.1110 H   0  0  0  0  0  0  0  0  0  0  0  0
  151.9977  144.7558  161.2121 H   0  0  0  0  0  0  0  0  0  0  0  0
  153.5990  144.0337  161.3395 H   0  0  0  0  0  0  0  0  0  0  0  0
  154.3044  140.2437  160.5167 H   0  0  0  0  0  0  0  0  0  0  0  0
  153.4355  141.1231  161.7704 H   0  0  0  0  0  0  0  0  0  0  0  0
  154.7733  141.8970  160.9062 H   0  0  0  0  0  0  0  0  0  0  0  0
  153.2283  140.0594  158.4406 H   0  0  0  0  0  0  0  0  0  0  0  0
  151.3195  134.8767  154.4100 H   0  0  0  0  0  0  0  0  0  0  0  0
  150.6334  134.9995  156.0183 H   0  0  0  0  0  0  0  0  0  0  0  0
  149.5639  133.1659  154.7480 H   0  0  0  0  0  0  0  0  0  0  0  0
  149.1500  134.2512  153.4427 H   0  0  0  0  0  0  0  0  0  0  0  0
  149.8846  136.6284  153.7108 H   0  0  0  0  0  0  0  0  0  0  0  0
  149.7579  143.7689  156.6031 H   0  0  0  0  0  0  0  0  0  0  0  0
  1  2  1  0  0  0  0
  1 24  1  0  0  0  0
  1 25  1  0  0  0  0
  1 26  1  0  0  0  0
  2  3  1  0  0  0  0
  3 23  1  0  0  0  0
  3  4  1  0  0  0  0
  3 27  1  0  0  0  0
  4  5  1  0  0  0  0
  4 28  1  0  0  0  0
  4 29  1  0  0  0  0
  5  6  1  0  0  0  0
  5 30  1  0  0  0  0
  5 31  1  0  0  0  0
  6  7  1  0  0  0  0
  6 22  1  0  0  0  0
  6 51  1  0  0  0  0
  7  8  1  0  0  0  0
  7 32  1  0  0  0  0
  7 33  1  0  0  0  0
  8  9  1  0  0  0  0
  8 10  1  0  0  0  0
  8 34  1  0  0  0  0
  9 35  1  0  0  0  0
 10 11  1  0  0  0  0
 10 36  1  0  0  0  0
 10 37  1  0  0  0  0
 11 21  1  0  0  0  0
 11 12  1  0  0  0  0
 12 13  2  0  0  0  0
 12 38  1  0  0  0  0
 13 14  1  0  0  0  0
 13 52  1  0  0  0  0
 14 21  2  0  0  0  0
 14 15  1  0  0  0  0
 15 16  2  0  0  0  0
 15 39  1  0  0  0  0
 16 17  1  0  0  0  0
 16 18  1  0  0  0  0
 17 40  1  0  0  0  0
 17 41  1  0  0  0  0
 17 42  1  0  0  0  0
 18 19  1  0  0  0  0
 18 20  2  0  0  0  0
 19 43  1  0  0  0  0
 19 44  1  0  0  0  0
 19 45  1  0  0  0  0
 20 21  1  0  0  0  0
 20 46  1  0  0  0  0
 22 23  1  0  0  0  0
 22 47  1  0  0  0  0
 22 48  1  0  0  0  0
 23 49  1  0  0  0  0
 23 50  1  0  0  0  0
M  CHG  1   6   1
M  CHG  1  13   1
M  END
> <s_m_source_file>
AV-unprocessed.smi

> <i_m_source_file_index>
1605

> <i_lp_mmshare_version>
43012

> <i_f3d_flags>
0

> <s_epik_input>
W0NIM11PW0NIXTFbQ0gyXVtDSDJdTihbQ0gyXVtDSDJdMSlbQ0gyXVtDQEhdKFtPSF0pW0NIMl1uKFtjSF1uMiljKGMyMylbY0hdYyhbQ0gzXSljKFtjSF0zKVtDSDNd

> <s_epik_cmdline>
J2VwaWtfcHl0aG9uJywgJy1waCcsICc3LjAnLCAnLXRuJywgJzgnLCAnLW1hJywgJzIwMCcsICctbWV0YWxfYmluZGluZycsICctaW1hZScsICc8aW5maWxlLm1hZT4nLCAnLW9tYWUnLCAnPG91dGZpbGUubWFlPic=

> <r_epik_Ionization_Penalty>
1.19848

> <r_epik_Ionization_Penalty_Charging>
1.19848

> <r_epik_Ionization_Penalty_Neutral>
1.67134e-06

> <r_epik_State_Penalty>
1.2782

> <r_epik_Charging_Adjusted_Penalty>
2.47668

> <i_epik_Tot_Q>
2

> <i_epik_Tot_abs_Q>
2

> <r_epik_Metal_State_Penalty>
5.29544

> <b_epik_Metal_Only>
0

> <s_lp_Force_Field>
OPLS_2005

> <r_lp_Energy>
31.9631

> <b_lp_Chiralities_Consistent>
1

> <s_lp_Variant>
AV-unprocessed.smi:1605-5

> <Gold.Version>
5.8.1

> <Gold.Id.Protein>
6NUR|6NUR_protein|mol2

> <Gold.PLP.Fitness>
59.2852

> <Gold.PLP.PLP>
-45.6492

> <Gold.PLP.part.hbond>
-4.0000

> <Gold.PLP.part.metal>
0.0000

> <Gold.PLP.part.buried>
-4.9206

> <Gold.PLP.part.nonpolar>
-36.4027

> <Gold.PLP.part.repulsive>
0.1412

> <Gold.PLP.ligand.clash>
0.0000

> <Gold.PLP.ligand.torsion>
0.7507

> <Gold.PLP.Chemscore.Hbond>
5.0000

> <Gold.PLP.Chemscore.CHOScore>
0.0000

> <Gold.PLP.Chemscore.Metal>
0.0000

> <Gold.Chemscore.Hbonds>
donor molecule, donor type, donor heavy atom, donor atom, acceptor molecule, acceptor atom, score
      L1  H     6    51       P1  7948  1.79
      L1  H    13    52       P1  8028  2.00
      P1  H  7989  7998       L1     9  1.00

> <Gold.PLP.Chemscore.Internal.Correction>
0.1374

> <Gold.Rescore>
     Score         DG    S(hbond)    S(metal)    S(lipo)     H(rot)  DE(clash)    DE(int)     intcor
     20.81     -21.62       2.62        0.00     113.10       2.28       0.17       0.64       ----

> <Gold.Chemscore.Fitness>
20.8067

> <Gold.Chemscore.DG>
-21.6212

> <Gold.Chemscore.ZeroCoef>
-5.4800

> <Gold.Chemscore.Hbond>
2.6212

> <Gold.Chemscore.Metal>
0.0000

> <Gold.Chemscore.Lipo>
113.1041

> <Gold.Chemscore.Internal_Hbond>
0.0000

> <Gold.Chemscore.DEClash>
0.1721

> <Gold.Chemscore.DEInternal>
0.6424

> <Gold.Chemscore.Rot>
2.2839

> <Gold.Chemscore.Internal.Correction>
   9.000000E+99

> <Gold.Chemscore.Hbonds>
donor molecule, donor type, donor heavy atom, donor atom, acceptor molecule, acceptor atom, score
      L1  H     6    51       P1  7948  0.30
      L1  H    13    52       P1  8028  0.95
      P1  H  7989  7998       L1     9  0.80

> <Gold.Chemscore.Hbond.Weighted>
-8.7549

> <Gold.Chemscore.Metal.Weighted>
-0.0000

> <Gold.Chemscore.Lipo.Weighted>
-13.2332

> <Gold.Chemscore.Internal_Hbond.Weighted>
0.0000

> <Gold.Chemscore.DEClash.Weighted>
0.1721

> <Gold.Chemscore.DEInternal.Weighted>
0.6424

> <Gold.Chemscore.Rot.Weighted>
5.8469

> <Gold.Chemscore.Internal.Correction.Weighted>
   9.000000E+99

> <Gold.Protein.RotatedTorsions>
[ 6907 6896 6895 6894 ] final   21.76 input  -60.11 | X-H torsion
[ 7974 7965 7964 7962 ] final  101.19 input  175.53 | X-H torsion
[ 8008 7997 7996 7995 ] final   99.14 input   59.86 | X-H torsion
[ 10167 10162 10161 10158 ] final -179.35 input  -65.29 | X-H torsion
[ 10718 10713 10712 10709 ] final   11.25 input   66.30 | X-H torsion
[ 10763 10752 10751 10750 ] final  -65.12 input  -60.55 | X-H torsion
[ 11005 11000 10999 10996 ] final   74.82 input  -57.11 | X-H torsion

> <Gold.Protein.ActiveResidues>
 VAL166  LYS551  ARG553  GLY616  TRP617  ASP618  TYR619  PRO620  LYS621  CYS622 
 ASP623  PHE694  ASN695  SER759  ASP760  ASP761  ALA762  ILE779  LEU786  VAL792 
 PHE793  MET794  SER795  GLU796  ALA797  LYS798  CYS799  TRP800  GLU811  SER814 

> <Gold.Protein.RotatedAtoms>
  151.9168  135.0315  160.0518 H   0  0  0  0  0  0  0  0  0  0  0  0  # atno 6907 bound_to 6896
  152.2233  133.4996  159.5183 H   0  0  0  0  0  0  0  0  0  0  0  0  # atno 6908 bound_to 6896
  150.7005  134.1230  159.4084 H   0  0  0  0  0  0  0  0  0  0  0  0  # atno 6909 bound_to 6896
  145.3755  139.2389  143.3432 H   0  0  0  0  0  0  0  0  0  0  0  0  # atno 7974 bound_to 7965
  156.1075  140.3233  155.8026 H   0  0  0  0  0  0  0  0  0  0  0  0  # atno 8008 bound_to 7997
  155.4730  140.0548  157.2994 H   0  0  0  0  0  0  0  0  0  0  0  0  # atno 8009 bound_to 7997
  154.4737  140.2023  155.9944 H   0  0  0  0  0  0  0  0  0  0  0  0  # atno 8010 bound_to 7997
  139.5390  144.2416  152.0855 H   0  0  0  0  0  0  0  0  0  0  0  0  # atno 10167 bound_to 10162
  156.9928  130.6049  149.5688 H   0  0  0  0  0  0  0  0  0  0  0  0  # atno 10718 bound_to 10713
  154.3403  135.6158  153.5593 H   0  0  0  0  0  0  0  0  0  0  0  0  # atno 10763 bound_to 10752
  152.9805  135.5768  154.4861 H   0  0  0  0  0  0  0  0  0  0  0  0  # atno 10764 bound_to 10752
  154.4563  135.2854  155.1722 H   0  0  0  0  0  0  0  0  0  0  0  0  # atno 10765 bound_to 10752
  139.9372  134.7466  156.1195 H   0  0  0  0  0  0  0  0  0  0  0  0  # atno 11005 bound_to 11000
  146.2866  140.4414  142.8755 LP  0  0  0  0  0  0  0  0  0  0  0  0  # atno 17320 bound_to 7965
  144.8545  140.7050  143.6147 LP  0  0  0  0  0  0  0  0  0  0  0  0  # atno 17321 bound_to 7965
  140.1891  144.4769  150.6488 LP  0  0  0  0  0  0  0  0  0  0  0  0  # atno 17342 bound_to 10162
  140.6611  143.2252  151.5854 LP  0  0  0  0  0  0  0  0  0  0  0  0  # atno 17343 bound_to 10162
  156.0200  130.5295  150.8249 LP  0  0  0  0  0  0  0  0  0  0  0  0  # atno 17370 bound_to 10713
  157.5446  131.0942  150.9780 LP  0  0  0  0  0  0  0  0  0  0  0  0  # atno 17371 bound_to 10713
  141.0992  133.6684  156.2714 LP  0  0  0  0  0  0  0  0  0  0  0  0  # atno 17394 bound_to 11000
  140.6044  134.5522  157.5523 LP  0  0  0  0  0  0  0  0  0  0  0  0  # atno 17395 bound_to 11000

$$$$
