AV-unprocessed.smi:3044|AV-procd|sdf|11608|dock2
  -GOLD-   2272016583D 1   1.00000     0.00000
 Structure written by MMmdl.
 41 42  0  0  0  0  0  0  0  0  1 V2000
  152.5832  139.0364  154.0343 C   0  0  0  0  0  0  0  0  0  0  0  0
  152.7612  138.4510  155.4244 C   0  0  0  0  0  0  0  0  0  0  0  0
  153.1405  137.1540  155.4606 N   0  0  0  0  0  0  0  0  0  0  0  0
  153.3121  136.5715  156.6650 C   0  0  0  0  0  0  0  0  0  0  0  0
  153.1083  137.2464  157.8826 C   0  0  0  0  0  0  0  0  0  0  0  0
  152.7135  138.5968  157.8438 C   0  0  0  0  0  0  0  0  0  0  0  0
  152.5443  139.2305  156.5880 C   0  0  0  0  0  0  0  0  0  0  0  0
  152.1285  140.5849  156.4440 N   0  0  0  0  0  0  0  0  0  0  0  0
  151.2216  141.2702  157.1648 C   0  0  0  0  0  0  0  0  0  0  0  0
  150.6072  140.8214  158.1318 O   0  0  0  0  0  0  0  0  0  0  0  0
  150.9897  142.7188  156.7420 C   0  0  0  0  0  0  0  0  0  0  0  0
  150.8771  143.5132  157.9135 O   0  0  0  0  0  0  0  0  0  0  0  0
  152.0323  144.2847  158.2241 C   0  0  1  0  0  0  0  0  0  0  0  0
  151.7294  145.3493  159.2998 C   0  0  0  0  0  0  0  0  0  0  0  0
  151.3651  144.7057  160.6468 C   0  0  0  0  0  0  0  0  0  0  0  0
  152.4709  143.7513  161.1230 C   0  0  0  0  0  0  0  0  0  0  0  0
  152.7774  142.6702  160.0692 C   0  0  2  0  0  0  0  0  0  0  0  0
  153.8917  141.7261  160.5432 C   0  0  0  0  0  0  0  0  0  0  0  0
  153.1268  143.3176  158.7127 C   0  0  0  0  0  0  0  0  0  0  0  0
  153.2762  139.8638  153.8805 H   0  0  0  0  0  0  0  0  0  0  0  0
  151.5665  139.4076  153.9043 H   0  0  0  0  0  0  0  0  0  0  0  0
  152.7698  138.2928  153.2583 H   0  0  0  0  0  0  0  0  0  0  0  0
  153.6135  135.5346  156.6583 H   0  0  0  0  0  0  0  0  0  0  0  0
  153.2462  136.7381  158.8253 H   0  0  0  0  0  0  0  0  0  0  0  0
  152.5343  139.1109  158.7750 H   0  0  0  0  0  0  0  0  0  0  0  0
  152.6230  141.1160  155.7420 H   0  0  0  0  0  0  0  0  0  0  0  0
  151.8135  143.0736  156.1199 H   0  0  0  0  0  0  0  0  0  0  0  0
  150.0801  142.7627  156.1435 H   0  0  0  0  0  0  0  0  0  0  0  0
  152.3927  144.7731  157.3172 H   0  0  0  0  0  0  0  0  0  0  0  0
  152.6100  145.9787  159.4343 H   0  0  0  0  0  0  0  0  0  0  0  0
  150.9334  146.0195  158.9786 H   0  0  0  0  0  0  0  0  0  0  0  0
  151.1974  145.4809  161.3950 H   0  0  0  0  0  0  0  0  0  0  0  0
  150.4250  144.1609  160.5509 H   0  0  0  0  0  0  0  0  0  0  0  0
  153.3745  144.3226  161.3398 H   0  0  0  0  0  0  0  0  0  0  0  0
  152.1697  143.2838  162.0611 H   0  0  0  0  0  0  0  0  0  0  0  0
  151.8769  142.0691  159.9349 H   0  0  0  0  0  0  0  0  0  0  0  0
  154.8281  142.2635  160.6975 H   0  0  0  0  0  0  0  0  0  0  0  0
  154.0764  140.9381  159.8126 H   0  0  0  0  0  0  0  0  0  0  0  0
  153.6246  141.2456  161.4848 H   0  0  0  0  0  0  0  0  0  0  0  0
  153.2938  142.5448  157.9612 H   0  0  0  0  0  0  0  0  0  0  0  0
  154.0679  143.8615  158.8040 H   0  0  0  0  0  0  0  0  0  0  0  0
  1  2  1  0  0  0  0
  1 20  1  0  0  0  0
  1 21  1  0  0  0  0
  1 22  1  0  0  0  0
  2  7  1  0  0  0  0
  2  3  2  0  0  0  0
  3  4  1  0  0  0  0
  4  5  2  0  0  0  0
  4 23  1  0  0  0  0
  5  6  1  0  0  0  0
  5 24  1  0  0  0  0
  6  7  2  0  0  0  0
  6 25  1  0  0  0  0
  7  8  1  0  0  0  0
  8  9  1  0  0  0  0
  8 26  1  0  0  0  0
  9 10  2  0  0  0  0
  9 11  1  0  0  0  0
 11 12  1  0  0  0  0
 11 27  1  0  0  0  0
 11 28  1  0  0  0  0
 12 13  1  0  0  0  0
 13 19  1  0  0  0  0
 13 14  1  0  0  0  0
 13 29  1  0  0  0  0
 14 15  1  0  0  0  0
 14 30  1  0  0  0  0
 14 31  1  0  0  0  0
 15 16  1  0  0  0  0
 15 32  1  0  0  0  0
 15 33  1  0  0  0  0
 16 17  1  0  0  0  0
 16 34  1  0  0  0  0
 16 35  1  0  0  0  0
 17 18  1  0  0  0  0
 17 19  1  0  0  0  0
 17 36  1  0  0  0  0
 18 37  1  0  0  0  0
 18 38  1  0  0  0  0
 18 39  1  0  0  0  0
 19 40  1  0  0  0  0
 19 41  1  0  0  0  0
M  END
> <s_m_source_file>
AV-unprocessed.smi

> <i_m_source_file_index>
3044

> <i_lp_mmshare_version>
43012

> <i_f3d_flags>
0

> <s_epik_input>
W0NIM11jMW5bY0hdW2NIXVtjSF1jMVtOSF1DKD1PKVtDSDJdT1tDQEBIXTJbQ0gyXVtDSDJdW0NIMl1bQ0BASF0oW0NIM10pW0NIMl0y

> <s_epik_cmdline>
J2VwaWtfcHl0aG9uJywgJy1waCcsICc3LjAnLCAnLXRuJywgJzgnLCAnLW1hJywgJzIwMCcsICctbWV0YWxfYmluZGluZycsICctaW1hZScsICc8aW5maWxlLm1hZT4nLCAnLW9tYWUnLCAnPG91dGZpbGUubWFlPic=

> <r_epik_Ionization_Penalty>
0.0077122

> <r_epik_Ionization_Penalty_Charging>
0

> <r_epik_Ionization_Penalty_Neutral>
0.0077122

> <r_epik_State_Penalty>
0.00577497

> <r_epik_Charging_Adjusted_Penalty>
0.00577497

> <i_epik_Tot_Q>
0

> <i_epik_Tot_abs_Q>
0

> <r_epik_Metal_State_Penalty>
-0

> <b_epik_Metal_Only>
0

> <s_lp_Force_Field>
OPLS_2005

> <r_lp_Energy>
18.191

> <b_lp_Chiralities_Consistent>
1

> <s_lp_Variant>
AV-unprocessed.smi:3044-4

> <Gold.Version>
5.8.1

> <Gold.Id.Protein>
6NUR|6NUR_protein|mol2

> <Gold.PLP.Fitness>
43.1101

> <Gold.PLP.PLP>
-42.5118

> <Gold.PLP.part.hbond>
-1.0000

> <Gold.PLP.part.metal>
0.0000

> <Gold.PLP.part.buried>
-3.6812

> <Gold.PLP.part.nonpolar>
-38.2632

> <Gold.PLP.part.repulsive>
0.2928

> <Gold.PLP.ligand.clash>
0.0000

> <Gold.PLP.ligand.torsion>
0.9571

> <Gold.PLP.Chemscore.Hbond>
0.8320

> <Gold.PLP.Chemscore.CHOScore>
0.0000

> <Gold.PLP.Chemscore.Metal>
0.0000

> <Gold.PLP.Chemscore.Internal.Correction>
0.0165

> <Gold.Rescore>
     Score         DG    S(hbond)    S(metal)    S(lipo)     H(rot)  DE(clash)    DE(int)     intcor
     18.46     -19.88       0.91        0.00     125.72       1.31       0.00       1.42       ----

> <Gold.Chemscore.Fitness>
18.4629

> <Gold.Chemscore.DG>
-19.8800

> <Gold.Chemscore.ZeroCoef>
-5.4800

> <Gold.Chemscore.Hbond>
0.9087

> <Gold.Chemscore.Metal>
0.0000

> <Gold.Chemscore.Lipo>
125.7195

> <Gold.Chemscore.Internal_Hbond>
0.0000

> <Gold.Chemscore.DEClash>
0.0000

> <Gold.Chemscore.DEInternal>
1.4171

> <Gold.Chemscore.Rot>
1.3064

> <Gold.Chemscore.Internal.Correction>
   9.000000E+99

> <Gold.Chemscore.Hbond.Weighted>
-3.0351

> <Gold.Chemscore.Metal.Weighted>
-0.0000

> <Gold.Chemscore.Lipo.Weighted>
-14.7092

> <Gold.Chemscore.Internal_Hbond.Weighted>
0.0000

> <Gold.Chemscore.DEClash.Weighted>
0.0000

> <Gold.Chemscore.DEInternal.Weighted>
1.4171

> <Gold.Chemscore.Rot.Weighted>
3.3443

> <Gold.Chemscore.Internal.Correction.Weighted>
   9.000000E+99

> <Gold.Protein.RotatedTorsions>
[ 6907 6896 6895 6894 ] final -114.38 input  -60.11 | X-H torsion
[ 7974 7965 7964 7962 ] final   52.23 input  175.53 | X-H torsion
[ 8008 7997 7996 7995 ] final -143.04 input   59.86 | X-H torsion
[ 10167 10162 10161 10158 ] final   65.49 input  -65.29 | X-H torsion
[ 10718 10713 10712 10709 ] final -146.25 input   66.30 | X-H torsion
[ 10763 10752 10751 10750 ] final  111.78 input  -60.55 | X-H torsion
[ 11005 11000 10999 10996 ] final  139.42 input  -57.11 | X-H torsion

> <Gold.Protein.ActiveResidues>
 VAL166  LYS551  ARG553  GLY616  TRP617  ASP618  TYR619  PRO620  LYS621  CYS622 
 ASP623  PHE694  ASN695  SER759  ASP760  ASP761  ALA762  ILE779  LEU786  VAL792 
 PHE793  MET794  SER795  GLU796  ALA797  LYS798  CYS799  TRP800  GLU811  SER814 

> <Gold.Protein.RotatedAtoms>
  150.7898  133.8809  159.3285 H   0  0  0  0  0  0  0  0  0  0  0  0  # atno 6907 bound_to 6896
  151.6650  135.0982  160.0196 H   0  0  0  0  0  0  0  0  0  0  0  0  # atno 6908 bound_to 6896
  152.3970  133.6722  159.6320 H   0  0  0  0  0  0  0  0  0  0  0  0  # atno 6909 bound_to 6896
  145.9834  139.4265  143.0118 H   0  0  0  0  0  0  0  0  0  0  0  0  # atno 7974 bound_to 7965
  155.5041  140.0578  157.2934 H   0  0  0  0  0  0  0  0  0  0  0  0  # atno 8008 bound_to 7997
  154.4576  140.1980  156.0285 H   0  0  0  0  0  0  0  0  0  0  0  0  # atno 8009 bound_to 7997
  156.0829  140.3244  155.7721 H   0  0  0  0  0  0  0  0  0  0  0  0  # atno 8010 bound_to 7997
  140.1107  144.4821  150.6980 H   0  0  0  0  0  0  0  0  0  0  0  0  # atno 10167 bound_to 10162
  156.3925  130.7893  151.2096 H   0  0  0  0  0  0  0  0  0  0  0  0  # atno 10718 bound_to 10713
  153.4682  135.3706  155.2376 H   0  0  0  0  0  0  0  0  0  0  0  0  # atno 10763 bound_to 10752
  154.8757  135.3925  154.3843 H   0  0  0  0  0  0  0  0  0  0  0  0  # atno 10764 bound_to 10752
  153.4427  135.7084  153.6223 H   0  0  0  0  0  0  0  0  0  0  0  0  # atno 10765 bound_to 10752
  140.0253  134.9377  157.0556 H   0  0  0  0  0  0  0  0  0  0  0  0  # atno 11005 bound_to 11000
  145.7737  140.9886  143.1136 LP  0  0  0  0  0  0  0  0  0  0  0  0  # atno 17320 bound_to 7965
  144.6868  139.9478  143.7477 LP  0  0  0  0  0  0  0  0  0  0  0  0  # atno 17321 bound_to 7965
  140.6927  143.2385  151.5086 LP  0  0  0  0  0  0  0  0  0  0  0  0  # atno 17342 bound_to 10162
  139.5621  144.2131  152.1707 LP  0  0  0  0  0  0  0  0  0  0  0  0  # atno 17343 bound_to 10162
  157.7500  131.0311  150.4167 LP  0  0  0  0  0  0  0  0  0  0  0  0  # atno 17370 bound_to 10713
  156.4431  130.3996  149.6684 LP  0  0  0  0  0  0  0  0  0  0  0  0  # atno 17371 bound_to 10713
  140.4317  134.1774  155.7168 LP  0  0  0  0  0  0  0  0  0  0  0  0  # atno 17394 bound_to 11000
  141.1799  133.8436  157.1294 LP  0  0  0  0  0  0  0  0  0  0  0  0  # atno 17395 bound_to 11000

$$$$
