AV-unprocessed.smi:3314|AV-procd|sdf|12737|dock3
  -GOLD-   2272019 83D 1   1.00000     0.00000
 Structure written by MMmdl.
 38 39  0  0  0  0  0  0  0  0  2 V2000
  151.3732  145.5556  159.7718 C   0  0  0  0  0  0  0  0  0  0  0  0
  151.7667  144.1341  159.4255 C   0  0  0  0  0  0  0  0  0  0  0  0
  152.5905  143.3569  160.3359 C   0  0  0  0  0  0  0  0  0  0  0  0
  152.9292  142.0980  160.0098 C   0  0  0  0  0  0  0  0  0  0  0  0
  153.7812  141.2026  160.8847 C   0  0  0  0  0  0  0  0  0  0  0  0
  152.5033  141.5315  158.8150 N   0  0  0  0  0  0  0  0  0  0  0  0
  151.7042  142.2163  157.8827 C   0  0  0  0  0  0  0  0  0  0  0  0
  151.2784  141.7319  156.7522 N   0  0  0  0  0  0  0  0  0  0  0  0
  151.5851  140.4430  156.3238 C   0  0  0  0  0  0  0  0  0  0  0  0
  152.5111  139.7030  156.6684 O   0  0  0  0  0  0  0  0  0  0  0  0
  150.5831  139.9336  155.2809 C   0  0  2  0  0  0  0  0  0  0  0  0
  149.4597  140.9651  155.0418 C   0  0  0  0  0  0  0  0  0  0  0  0
  148.4471  140.4207  154.1082 N   0  3  2  0  0  0  0  0  0  0  0  0
  147.3665  141.3855  153.8128 C   0  0  0  0  0  0  0  0  0  0  0  0
  147.9350  139.1161  154.5850 C   0  0  0  0  0  0  0  0  0  0  0  0
  149.1006  138.1444  154.8295 C   0  0  0  0  0  0  0  0  0  0  0  0
  150.0103  138.7189  155.7595 O   0  0  0  0  0  0  0  0  0  0  0  0
  151.3528  143.5761  158.2634 C   0  0  0  0  0  0  0  0  0  0  0  0
  151.7811  145.8543  160.7378 H   0  0  0  0  0  0  0  0  0  0  0  0
  150.2877  145.6481  159.8175 H   0  0  0  0  0  0  0  0  0  0  0  0
  151.7468  146.2472  159.0161 H   0  0  0  0  0  0  0  0  0  0  0  0
  152.9274  143.7882  161.2672 H   0  0  0  0  0  0  0  0  0  0  0  0
  154.0889  141.7174  161.7954 H   0  0  0  0  0  0  0  0  0  0  0  0
  154.6790  140.8914  160.3500 H   0  0  0  0  0  0  0  0  0  0  0  0
  153.2238  140.3101  161.1704 H   0  0  0  0  0  0  0  0  0  0  0  0
  151.1079  139.7290  154.3449 H   0  0  0  0  0  0  0  0  0  0  0  0
  148.9772  141.2303  155.9848 H   0  0  0  0  0  0  0  0  0  0  0  0
  149.8766  141.8838  154.6260 H   0  0  0  0  0  0  0  0  0  0  0  0
  146.8035  141.6322  154.7139 H   0  0  0  0  0  0  0  0  0  0  0  0
  146.6735  140.9740  153.0781 H   0  0  0  0  0  0  0  0  0  0  0  0
  147.7776  142.3085  153.4027 H   0  0  0  0  0  0  0  0  0  0  0  0
  147.3685  139.2579  155.5068 H   0  0  0  0  0  0  0  0  0  0  0  0
  147.2496  138.6964  153.8477 H   0  0  0  0  0  0  0  0  0  0  0  0
  148.7273  137.2039  155.2353 H   0  0  0  0  0  0  0  0  0  0  0  0
  149.6150  137.9074  153.8968 H   0  0  0  0  0  0  0  0  0  0  0  0
  150.7417  144.1848  157.6120 H   0  0  0  0  0  0  0  0  0  0  0  0
  152.8026  140.5821  158.6439 H   0  0  0  0  0  0  0  0  0  0  0  0
  148.9239  140.2432  153.2355 H   0  0  0  0  0  0  0  0  0  0  0  0
  1  2  1  0  0  0  0
  1 19  1  0  0  0  0
  1 20  1  0  0  0  0
  1 21  1  0  0  0  0
  2 18  2  0  0  0  0
  2  3  1  0  0  0  0
  3  4  2  0  0  0  0
  3 22  1  0  0  0  0
  4  5  1  0  0  0  0
  4  6  1  0  0  0  0
  5 23  1  0  0  0  0
  5 24  1  0  0  0  0
  5 25  1  0  0  0  0
  6  7  1  0  0  0  0
  6 37  1  0  0  0  0
  7  8  2  0  0  0  0
  7 18  1  0  0  0  0
  8  9  1  0  0  0  0
  9 10  2  0  0  0  0
  9 11  1  0  0  0  0
 11 17  1  0  0  0  0
 11 12  1  0  0  0  0
 11 26  1  0  0  0  0
 12 13  1  0  0  0  0
 12 27  1  0  0  0  0
 12 28  1  0  0  0  0
 13 14  1  0  0  0  0
 13 15  1  0  0  0  0
 13 38  1  0  0  0  0
 14 29  1  0  0  0  0
 14 30  1  0  0  0  0
 14 31  1  0  0  0  0
 15 16  1  0  0  0  0
 15 32  1  0  0  0  0
 15 33  1  0  0  0  0
 16 17  1  0  0  0  0
 16 34  1  0  0  0  0
 16 35  1  0  0  0  0
 18 36  1  0  0  0  0
M  CHG  1  13   1
M  END
> <s_m_source_file>
AV-unprocessed.smi

> <i_m_source_file_index>
3314

> <i_lp_mmshare_version>
43012

> <i_f3d_flags>
0

> <s_epik_input>
W0NIM11jMVtjSF1jKFtDSDNdKW5jKFtjSF0xKVtOSF1DKD1PKVtDQEBIXTJbQ0gyXU4oW0NIM10pW0NIMl1bQ0gyXU8y

> <s_epik_cmdline>
J2VwaWtfcHl0aG9uJywgJy1waCcsICc3LjAnLCAnLXRuJywgJzgnLCAnLW1hJywgJzIwMCcsICctbWV0YWxfYmluZGluZycsICctaW1hZScsICc8aW5maWxlLm1hZT4nLCAnLW9tYWUnLCAnPG91dGZpbGUubWFlPic=

> <r_epik_Ionization_Penalty>
0.519783

> <r_epik_Ionization_Penalty_Charging>
0.519783

> <r_epik_Ionization_Penalty_Neutral>
1.74183e-13

> <r_epik_State_Penalty>
2.39351

> <r_epik_Charging_Adjusted_Penalty>
2.91329

> <i_epik_Tot_Q>
1

> <i_epik_Tot_abs_Q>
1

> <r_epik_Metal_State_Penalty>
2.41924

> <b_epik_Metal_Only>
0

> <s_lp_Force_Field>
OPLS_2005

> <r_lp_Energy>
34.3137

> <b_lp_Chiralities_Consistent>
1

> <s_lp_Variant>
AV-unprocessed.smi:3314-7

> <Gold.Version>
5.8.1

> <Gold.Id.Protein>
6NUR|6NUR_protein|mol2

> <Gold.PLP.Fitness>
45.0671

> <Gold.PLP.PLP>
-39.3052

> <Gold.PLP.part.hbond>
-2.0000

> <Gold.PLP.part.metal>
0.0000

> <Gold.PLP.part.buried>
-2.3997

> <Gold.PLP.part.nonpolar>
-33.5717

> <Gold.PLP.part.repulsive>
0.3430

> <Gold.PLP.ligand.clash>
0.0000

> <Gold.PLP.ligand.torsion>
0.1191

> <Gold.PLP.Chemscore.Hbond>
2.0000

> <Gold.PLP.Chemscore.CHOScore>
0.0000

> <Gold.PLP.Chemscore.Metal>
0.0000

> <Gold.Chemscore.Hbonds>
donor molecule, donor type, donor heavy atom, donor atom, acceptor molecule, acceptor atom, score
      L1  H    13    38       P1  7957  0.59
      P1  H  7997  8010       L1    10  1.00

> <Gold.PLP.Chemscore.Internal.Correction>
0.0002

> <Gold.Rescore>
     Score         DG    S(hbond)    S(metal)    S(lipo)     H(rot)  DE(clash)    DE(int)     intcor
     19.04     -21.04       1.97        0.00      98.66       1.00       0.51       1.48       ----

> <Gold.Chemscore.Fitness>
19.0364

> <Gold.Chemscore.DG>
-21.0351

> <Gold.Chemscore.ZeroCoef>
-5.4800

> <Gold.Chemscore.Hbond>
1.9678

> <Gold.Chemscore.Metal>
0.0000

> <Gold.Chemscore.Lipo>
98.6551

> <Gold.Chemscore.Internal_Hbond>
0.0000

> <Gold.Chemscore.DEClash>
0.5149

> <Gold.Chemscore.DEInternal>
1.4838

> <Gold.Chemscore.Rot>
1.0000

> <Gold.Chemscore.Internal.Correction>
   9.000000E+99

> <Gold.Chemscore.Hbonds>
donor molecule, donor type, donor heavy atom, donor atom, acceptor molecule, acceptor atom, score
      L1  H    13    38       P1  7957  0.58
      P1  H  7997  8010       L1    10  1.00

> <Gold.Chemscore.Hbond.Weighted>
-6.5725

> <Gold.Chemscore.Metal.Weighted>
-0.0000

> <Gold.Chemscore.Lipo.Weighted>
-11.5427

> <Gold.Chemscore.Internal_Hbond.Weighted>
0.0000

> <Gold.Chemscore.DEClash.Weighted>
0.5149

> <Gold.Chemscore.DEInternal.Weighted>
1.4838

> <Gold.Chemscore.Rot.Weighted>
2.5600

> <Gold.Chemscore.Internal.Correction.Weighted>
   9.000000E+99

> <Gold.Protein.RotatedTorsions>
[ 6907 6896 6895 6894 ] final   76.98 input  -60.11 | X-H torsion
[ 7974 7965 7964 7962 ] final   22.49 input  175.53 | X-H torsion
[ 8008 7997 7996 7995 ] final   62.16 input   59.86 | X-H torsion
[ 10167 10162 10161 10158 ] final  -46.93 input  -65.29 | X-H torsion
[ 10718 10713 10712 10709 ] final   78.48 input   66.30 | X-H torsion
[ 10763 10752 10751 10750 ] final  -32.77 input  -60.55 | X-H torsion
[ 11005 11000 10999 10996 ] final   99.18 input  -57.11 | X-H torsion

> <Gold.Protein.ActiveResidues>
 VAL166  LYS551  ARG553  GLY616  TRP617  ASP618  TYR619  PRO620  LYS621  CYS622 
 ASP623  PHE694  ASN695  SER759  ASP760  ASP761  ALA762  ILE779  LEU786  VAL792 
 PHE793  MET794  SER795  GLU796  ALA797  LYS798  CYS799  TRP800  GLU811  SER814 

> <Gold.Protein.RotatedAtoms>
  152.5097  134.3886  159.9375 H   0  0  0  0  0  0  0  0  0  0  0  0  # atno 6907 bound_to 6896
  151.3846  133.3803  159.2721 H   0  0  0  0  0  0  0  0  0  0  0  0  # atno 6908 bound_to 6896
  150.9479  134.8902  159.7712 H   0  0  0  0  0  0  0  0  0  0  0  0  # atno 6909 bound_to 6896
  146.2026  139.7877  142.8750 H   0  0  0  0  0  0  0  0  0  0  0  0  # atno 7974 bound_to 7965
  155.6099  140.3495  155.4619 H   0  0  0  0  0  0  0  0  0  0  0  0  # atno 8008 bound_to 7997
  156.0163  140.1244  157.0428 H   0  0  0  0  0  0  0  0  0  0  0  0  # atno 8009 bound_to 7997
  154.4298  140.1071  156.5886 H   0  0  0  0  0  0  0  0  0  0  0  0  # atno 8010 bound_to 7997
  140.6797  143.2808  151.3854 H   0  0  0  0  0  0  0  0  0  0  0  0  # atno 10167 bound_to 10162
  157.6746  130.9870  150.1793 H   0  0  0  0  0  0  0  0  0  0  0  0  # atno 10718 bound_to 10713
  153.8192  135.6876  153.4829 H   0  0  0  0  0  0  0  0  0  0  0  0  # atno 10763 bound_to 10752
  153.1580  135.4591  154.9729 H   0  0  0  0  0  0  0  0  0  0  0  0  # atno 10764 bound_to 10752
  154.7935  135.3310  154.7666 H   0  0  0  0  0  0  0  0  0  0  0  0  # atno 10765 bound_to 10752
  139.8771  134.9084  156.4567 H   0  0  0  0  0  0  0  0  0  0  0  0  # atno 11005 bound_to 11000
  145.3431  141.0292  143.3381 LP  0  0  0  0  0  0  0  0  0  0  0  0  # atno 17320 bound_to 7965
  144.8718  139.5027  143.6764 LP  0  0  0  0  0  0  0  0  0  0  0  0  # atno 17321 bound_to 7965
  139.6111  144.1097  152.2299 LP  0  0  0  0  0  0  0  0  0  0  0  0  # atno 17342 bound_to 10162
  140.0511  144.5931  150.7335 LP  0  0  0  0  0  0  0  0  0  0  0  0  # atno 17343 bound_to 10162
  156.2529  130.3702  149.8213 LP  0  0  0  0  0  0  0  0  0  0  0  0  # atno 17370 bound_to 10713
  156.5981  130.8535  151.3425 LP  0  0  0  0  0  0  0  0  0  0  0  0  # atno 17371 bound_to 10713
  140.8893  133.7860  155.9554 LP  0  0  0  0  0  0  0  0  0  0  0  0  # atno 17394 bound_to 11000
  140.8771  134.2657  157.5163 LP  0  0  0  0  0  0  0  0  0  0  0  0  # atno 17395 bound_to 11000

$$$$
