AV-unprocessed.smi:2021|AV-procd|sdf|8178|dock8
  -GOLD-   2272010433D 1   1.00000     0.00000
 Structure written by MMmdl.
 42 43  0  0  0  0  0  0  0  0  2 V2000
  151.8972  144.2480  157.7071 C   0  0  0  0  0  0  0  0  0  0  0  0
  151.2657  142.8621  157.9216 C   0  0  0  0  0  0  0  0  0  0  0  0
  152.1752  141.9880  158.7983 C   0  0  0  0  0  0  0  0  0  0  0  0
  150.9641  142.1550  156.5830 C   0  0  0  0  0  0  0  0  0  0  0  0
  149.5210  142.1600  156.2311 N   0  3  2  0  0  0  0  0  0  0  0  0
  148.6397  141.6835  157.3255 C   0  0  0  0  0  0  0  0  0  0  0  0
  147.1664  141.7464  156.8923 C   0  0  0  0  0  0  0  0  0  0  0  0
  146.9900  140.9866  155.7045 O   0  0  0  0  0  0  0  0  0  0  0  0
  147.7482  141.4996  154.6136 C   0  0  2  0  0  0  0  0  0  0  0  0
  147.4251  140.6835  153.3492 C   0  0  0  0  0  0  0  0  0  0  0  0
  146.1629  139.9619  153.4764 N   0  0  0  0  0  0  0  0  0  0  0  0
  146.0363  138.7097  153.9395 C   0  0  0  0  0  0  0  0  0  0  0  0
  146.9899  138.0265  154.3135 O   0  0  0  0  0  0  0  0  0  0  0  0
  144.7503  138.3173  153.9398 N   0  0  0  0  0  0  0  0  0  0  0  0
  144.2119  137.0693  154.3516 C   0  0  0  0  0  0  0  0  0  0  0  0
  144.9555  136.0573  154.8257 N   0  0  0  0  0  0  0  0  0  0  0  0
  144.1807  134.9521  155.1529 N   0  0  0  0  0  0  0  0  0  0  0  0
  142.8851  135.1736  154.9138 C   0  0  0  0  0  0  0  0  0  0  0  0
  142.4843  136.7555  154.2675 S   0  0  0  0  0  0  0  0  0  0  0  0
  149.2427  141.4140  154.9805 C   0  0  0  0  0  0  0  0  0  0  0  0
  152.8318  144.1752  157.1501 H   0  0  0  0  0  0  0  0  0  0  0  0
  152.1158  144.7318  158.6595 H   0  0  0  0  0  0  0  0  0  0  0  0
  151.2303  144.9098  157.1542 H   0  0  0  0  0  0  0  0  0  0  0  0
  150.3359  142.9986  158.4731 H   0  0  0  0  0  0  0  0  0  0  0  0
  153.1367  141.8068  158.3166 H   0  0  0  0  0  0  0  0  0  0  0  0
  151.7160  141.0196  158.9986 H   0  0  0  0  0  0  0  0  0  0  0  0
  152.3700  142.4625  159.7606 H   0  0  0  0  0  0  0  0  0  0  0  0
  151.5292  142.6595  155.7975 H   0  0  0  0  0  0  0  0  0  0  0  0
  151.3253  141.1254  156.6010 H   0  0  0  0  0  0  0  0  0  0  0  0
  148.9043  140.6586  157.5902 H   0  0  0  0  0  0  0  0  0  0  0  0
  148.7759  142.2901  158.2200 H   0  0  0  0  0  0  0  0  0  0  0  0
  146.5265  141.3343  157.6726 H   0  0  0  0  0  0  0  0  0  0  0  0
  146.8487  142.7778  156.7313 H   0  0  0  0  0  0  0  0  0  0  0  0
  147.4752  142.5423  154.4395 H   0  0  0  0  0  0  0  0  0  0  0  0
  147.3309  141.3549  152.4954 H   0  0  0  0  0  0  0  0  0  0  0  0
  148.2422  139.9999  153.1117 H   0  0  0  0  0  0  0  0  0  0  0  0
  145.3274  140.4506  153.1895 H   0  0  0  0  0  0  0  0  0  0  0  0
  144.0758  138.9877  153.6019 H   0  0  0  0  0  0  0  0  0  0  0  0
  142.1604  134.4001  155.1200 H   0  0  0  0  0  0  0  0  0  0  0  0
  149.8427  141.8258  154.1678 H   0  0  0  0  0  0  0  0  0  0  0  0
  149.5425  140.3717  155.1045 H   0  0  0  0  0  0  0  0  0  0  0  0
  149.2727  143.1217  156.0472 H   0  0  0  0  0  0  0  0  0  0  0  0
  1  2  1  0  0  0  0
  1 21  1  0  0  0  0
  1 22  1  0  0  0  0
  1 23  1  0  0  0  0
  2  3  1  0  0  0  0
  2  4  1  0  0  0  0
  2 24  1  0  0  0  0
  3 25  1  0  0  0  0
  3 26  1  0  0  0  0
  3 27  1  0  0  0  0
  4  5  1  0  0  0  0
  4 28  1  0  0  0  0
  4 29  1  0  0  0  0
  5 20  1  0  0  0  0
  5  6  1  0  0  0  0
  5 42  1  0  0  0  0
  6  7  1  0  0  0  0
  6 30  1  0  0  0  0
  6 31  1  0  0  0  0
  7  8  1  0  0  0  0
  7 32  1  0  0  0  0
  7 33  1  0  0  0  0
  8  9  1  0  0  0  0
  9 10  1  0  0  0  0
  9 20  1  0  0  0  0
  9 34  1  0  0  0  0
 10 11  1  0  0  0  0
 10 35  1  0  0  0  0
 10 36  1  0  0  0  0
 11 12  1  0  0  0  0
 11 37  1  0  0  0  0
 12 13  2  0  0  0  0
 12 14  1  0  0  0  0
 14 15  1  0  0  0  0
 14 38  1  0  0  0  0
 15 19  1  0  0  0  0
 15 16  2  0  0  0  0
 16 17  1  0  0  0  0
 17 18  2  0  0  0  0
 18 19  1  0  0  0  0
 18 39  1  0  0  0  0
 20 40  1  0  0  0  0
 20 41  1  0  0  0  0
M  CHG  1   5   1
M  END
> <s_m_source_file>
AV-unprocessed.smi

> <i_m_source_file_index>
2021

> <i_lp_mmshare_version>
43012

> <i_f3d_flags>
0

> <s_epik_input>
W0NIM11bQ0hdKFtDSDNdKVtDSDJdTjFbQ0gyXVtDSDJdT1tDQEhdKFtDSDJdMSlbQ0gyXVtOSF1DKD1PKVtOSF1jMm5uW2NIXXMy

> <s_epik_cmdline>
J2VwaWtfcHl0aG9uJywgJy1waCcsICc3LjAnLCAnLXRuJywgJzgnLCAnLW1hJywgJzIwMCcsICctbWV0YWxfYmluZGluZycsICctaW1hZScsICc8aW5maWxlLm1hZT4nLCAnLW9tYWUnLCAnPG91dGZpbGUubWFlPic=

> <r_lp_tautomer_probability>
1

> <r_epik_Ionization_Penalty>
0.102019

> <r_epik_Ionization_Penalty_Charging>
0.098413

> <r_epik_Ionization_Penalty_Neutral>
0.00360555

> <r_epik_State_Penalty>
0.0884988

> <r_epik_Charging_Adjusted_Penalty>
0.186912

> <i_epik_Tot_Q>
1

> <i_epik_Tot_abs_Q>
1

> <r_epik_Metal_State_Penalty>
0.454709

> <b_epik_Metal_Only>
0

> <s_lp_Force_Field>
OPLS_2005

> <r_lp_Energy>
16.3226

> <b_lp_Chiralities_Consistent>
1

> <s_lp_Variant>
AV-unprocessed.smi:2021-4

> <Gold.Version>
5.8.1

> <Gold.Id.Protein>
6NUR|6NUR_protein|mol2

> <Gold.PLP.Fitness>
42.5978

> <Gold.PLP.PLP>
-27.7199

> <Gold.PLP.part.hbond>
-3.0000

> <Gold.PLP.part.metal>
0.0000

> <Gold.PLP.part.buried>
-4.2343

> <Gold.PLP.part.nonpolar>
-22.3370

> <Gold.PLP.part.repulsive>
0.3516

> <Gold.PLP.ligand.clash>
0.0000

> <Gold.PLP.ligand.torsion>
1.4424

> <Gold.PLP.Chemscore.Hbond>
4.0000

> <Gold.PLP.Chemscore.CHOScore>
1.9122

> <Gold.PLP.Chemscore.Metal>
0.0000

> <Gold.Chemscore.Hbonds>
donor molecule, donor type, donor heavy atom, donor atom, acceptor molecule, acceptor atom, score
      L1  H     5    42       P1  8028  2.00
      L1  H    11    37       P1 10175  1.00
      L1  H    14    38       P1 10175  0.99
      L1  C    18    39       P1 10957  0.54
      L1  C    18    39       P1 11000  1.00

> <Gold.PLP.Chemscore.Internal.Correction>
0.0261

> <Gold.Rescore>
     Score         DG    S(hbond)    S(metal)    S(lipo)     H(rot)  DE(clash)    DE(int)     intcor
     16.31     -19.08       2.85        0.00      75.93       1.88       0.01       2.76       ----

> <Gold.Chemscore.Fitness>
16.3117

> <Gold.Chemscore.DG>
-19.0815

> <Gold.Chemscore.ZeroCoef>
-5.4800

> <Gold.Chemscore.Hbond>
2.8542

> <Gold.Chemscore.Metal>
0.0000

> <Gold.Chemscore.Lipo>
75.9339

> <Gold.Chemscore.Internal_Hbond>
0.0000

> <Gold.Chemscore.DEClash>
0.0141

> <Gold.Chemscore.DEInternal>
2.7557

> <Gold.Chemscore.Rot>
1.8812

> <Gold.Chemscore.Internal.Correction>
   9.000000E+99

> <Gold.Chemscore.Hbonds>
donor molecule, donor type, donor heavy atom, donor atom, acceptor molecule, acceptor atom, score
      L1  H     5    42       P1  8028  1.00
      L1  H    11    37       P1 10175  0.92
      L1  H    14    38       P1 10175  0.94

> <Gold.Chemscore.Hbond.Weighted>
-9.5331

> <Gold.Chemscore.Metal.Weighted>
-0.0000

> <Gold.Chemscore.Lipo.Weighted>
-8.8843

> <Gold.Chemscore.Internal_Hbond.Weighted>
0.0000

> <Gold.Chemscore.DEClash.Weighted>
0.0141

> <Gold.Chemscore.DEInternal.Weighted>
2.7557

> <Gold.Chemscore.Rot.Weighted>
4.8159

> <Gold.Chemscore.Internal.Correction.Weighted>
   9.000000E+99

> <Gold.Protein.RotatedTorsions>
[ 6907 6896 6895 6894 ] final  -52.72 input  -60.11 | X-H torsion
[ 7974 7965 7964 7962 ] final  174.45 input  175.53 | X-H torsion
[ 8008 7997 7996 7995 ] final   70.85 input   59.86 | X-H torsion
[ 10167 10162 10161 10158 ] final   33.05 input  -65.29 | X-H torsion
[ 10718 10713 10712 10709 ] final -112.78 input   66.30 | X-H torsion
[ 10763 10752 10751 10750 ] final  -15.71 input  -60.55 | X-H torsion
[ 11005 11000 10999 10996 ] final  168.44 input  -57.11 | X-H torsion

> <Gold.Protein.ActiveResidues>
 VAL166  LYS551  ARG553  GLY616  TRP617  ASP618  TYR619  PRO620  LYS621  CYS622 
 ASP623  PHE694  ASN695  SER759  ASP760  ASP761  ALA762  ILE779  LEU786  VAL792 
 PHE793  MET794  SER795  GLU796  ALA797  LYS798  CYS799  TRP800  GLU811  SER814 

> <Gold.Protein.RotatedAtoms>
  150.8492  134.7811  159.6994 H   0  0  0  0  0  0  0  0  0  0  0  0  # atno 6907 bound_to 6896
  152.4561  134.5285  159.9814 H   0  0  0  0  0  0  0  0  0  0  0  0  # atno 6908 bound_to 6896
  151.5410  133.3395  159.2971 H   0  0  0  0  0  0  0  0  0  0  0  0  # atno 6909 bound_to 6896
  144.7221  139.9799  143.6438 H   0  0  0  0  0  0  0  0  0  0  0  0  # atno 7974 bound_to 7965
  155.7450  140.3489  155.5122 H   0  0  0  0  0  0  0  0  0  0  0  0  # atno 8008 bound_to 7997
  155.9058  140.1042  157.1337 H   0  0  0  0  0  0  0  0  0  0  0  0  # atno 8009 bound_to 7997
  154.4049  140.1277  156.4481 H   0  0  0  0  0  0  0  0  0  0  0  0  # atno 8010 bound_to 7997
  140.4443  144.1142  150.6179 H   0  0  0  0  0  0  0  0  0  0  0  0  # atno 10167 bound_to 10162
  156.0726  130.5938  150.8555 H   0  0  0  0  0  0  0  0  0  0  0  0  # atno 10718 bound_to 10713
  153.5475  135.7012  153.5607 H   0  0  0  0  0  0  0  0  0  0  0  0  # atno 10763 bound_to 10752
  153.3546  135.3986  155.1672 H   0  0  0  0  0  0  0  0  0  0  0  0  # atno 10764 bound_to 10752
  154.8665  135.3773  154.4984 H   0  0  0  0  0  0  0  0  0  0  0  0  # atno 10765 bound_to 10752
  140.2872  134.7702  157.3808 H   0  0  0  0  0  0  0  0  0  0  0  0  # atno 11005 bound_to 11000
  146.0496  139.3498  143.0647 LP  0  0  0  0  0  0  0  0  0  0  0  0  # atno 17320 bound_to 7965
  145.8232  140.9669  143.0888 LP  0  0  0  0  0  0  0  0  0  0  0  0  # atno 17321 bound_to 7965
  140.4282  143.2580  151.9629 LP  0  0  0  0  0  0  0  0  0  0  0  0  # atno 17342 bound_to 10162
  139.4791  144.5768  151.7998 LP  0  0  0  0  0  0  0  0  0  0  0  0  # atno 17343 bound_to 10162
  157.5806  131.0946  150.9277 LP  0  0  0  0  0  0  0  0  0  0  0  0  # atno 17370 bound_to 10713
  156.9474  130.5407  149.5281 LP  0  0  0  0  0  0  0  0  0  0  0  0  # atno 17371 bound_to 10713
  140.1228  134.5197  155.8169 LP  0  0  0  0  0  0  0  0  0  0  0  0  # atno 17394 bound_to 11000
  141.2152  133.6762  156.6897 LP  0  0  0  0  0  0  0  0  0  0  0  0  # atno 17395 bound_to 11000

$$$$
