AV-unprocessed.smi:2784|AV-procd|sdf|10735|dock4
  -GOLD-   2272015173D 1   1.00000     0.00000
 Structure written by MMmdl.
 31 32  0  0  0  0  0  0  0  0  1 V2000
  153.6839  141.8694  160.0241 C   0  0  0  0  0  0  0  0  0  0  0  0
  152.7231  142.3911  159.1208 O   0  0  0  0  0  0  0  0  0  0  0  0
  151.6181  143.0252  159.7596 C   0  0  1  0  0  0  0  0  0  0  0  0
  152.1690  144.2742  160.4502 C   0  0  0  0  0  0  0  0  0  0  0  0
  152.2250  145.3228  159.3432 C   0  0  0  0  0  0  0  0  0  0  0  0
  150.9813  145.0515  158.4935 C   0  0  0  0  0  0  0  0  0  0  0  0
  150.6078  143.5735  158.7236 C   0  0  1  0  0  0  0  0  0  0  0  0
  150.6161  142.8302  157.4647 N   0  0  0  0  0  0  0  0  0  0  0  0
  150.7582  141.5022  157.3436 C   0  0  0  0  0  0  0  0  0  0  0  0
  150.8966  140.7752  158.3325 O   0  0  0  0  0  0  0  0  0  0  0  0
  150.7344  141.1435  156.0032 N   0  0  0  0  0  0  0  0  0  0  0  0
  150.9731  139.9167  155.6523 C   0  0  0  0  0  0  0  0  0  0  0  0
  151.2746  138.7641  156.3729 N   0  0  0  0  0  0  0  0  0  0  0  0
  151.4292  137.7351  155.4866 C   0  0  0  0  0  0  0  0  0  0  0  0
  151.2362  138.2143  154.2617 C   0  0  0  0  0  0  0  0  0  0  0  0
  150.9556  139.5460  154.3312 O   0  0  0  0  0  0  0  0  0  0  0  0
  154.4763  141.3692  159.4675 H   0  0  0  0  0  0  0  0  0  0  0  0
  153.2393  141.1424  160.7040 H   0  0  0  0  0  0  0  0  0  0  0  0
  154.1380  142.6669  160.6136 H   0  0  0  0  0  0  0  0  0  0  0  0
  151.1349  142.3658  160.4837 H   0  0  0  0  0  0  0  0  0  0  0  0
  151.4739  144.6004  161.2248 H   0  0  0  0  0  0  0  0  0  0  0  0
  153.1370  144.1066  160.9240 H   0  0  0  0  0  0  0  0  0  0  0  0
  152.2552  146.3415  159.7302 H   0  0  0  0  0  0  0  0  0  0  0  0
  153.1213  145.1698  158.7407 H   0  0  0  0  0  0  0  0  0  0  0  0
  150.1618  145.6889  158.8272 H   0  0  0  0  0  0  0  0  0  0  0  0
  151.1626  145.2895  157.4442 H   0  0  0  0  0  0  0  0  0  0  0  0
  149.6068  143.5521  159.1588 H   0  0  0  0  0  0  0  0  0  0  0  0
  150.5194  143.3720  156.6180 H   0  0  0  0  0  0  0  0  0  0  0  0
  151.3680  138.6601  157.3732 H   0  0  0  0  0  0  0  0  0  0  0  0
  151.6672  136.7419  155.8378 H   0  0  0  0  0  0  0  0  0  0  0  0
  151.2611  137.7582  153.2831 H   0  0  0  0  0  0  0  0  0  0  0  0
  1  2  1  0  0  0  0
  1 17  1  0  0  0  0
  1 18  1  0  0  0  0
  1 19  1  0  0  0  0
  2  3  1  0  0  0  0
  3  7  1  0  0  0  0
  3  4  1  0  0  0  0
  3 20  1  0  0  0  0
  4  5  1  0  0  0  0
  4 21  1  0  0  0  0
  4 22  1  0  0  0  0
  5  6  1  0  0  0  0
  5 23  1  0  0  0  0
  5 24  1  0  0  0  0
  6  7  1  0  0  0  0
  6 25  1  0  0  0  0
  6 26  1  0  0  0  0
  7  8  1  0  0  0  0
  7 27  1  0  0  0  0
  8 28  1  0  0  0  0
  8  9  1  0  0  0  0
  9 11  1  0  0  0  0
  9 10  2  0  0  0  0
 11 12  2  0  0  0  0
 12 16  1  0  0  0  0
 12 13  1  0  0  0  0
 13 29  1  0  0  0  0
 13 14  1  0  0  0  0
 14 30  1  0  0  0  0
 14 15  2  0  0  0  0
 15 31  1  0  0  0  0
 15 16  1  0  0  0  0
M  END
> <s_m_source_file>
AV-unprocessed.smi

> <i_m_source_file_index>
2784

> <i_lp_mmshare_version>
43012

> <i_f3d_flags>
0

> <s_epik_input>
W0NIM11PW0NAQEhdMVtDSDJdW0NIMl1bQ0gyXVtDQEhdMVtOSF1DKD1PKVtOSF1jMm5bY0hdW2NIXW8y

> <s_epik_cmdline>
J2VwaWtfcHl0aG9uJywgJy1waCcsICc3LjAnLCAnLXRuJywgJzgnLCAnLW1hJywgJzIwMCcsICctbWV0YWxfYmluZGluZycsICctaW1hZScsICc8aW5maWxlLm1hZT4nLCAnLW9tYWUnLCAnPG91dGZpbGUubWFlPic=

> <r_lp_tautomer_probability>
0.107061

> <r_epik_Ionization_Penalty>
1.29244

> <r_epik_Ionization_Penalty_Charging>
1.29208

> <r_epik_Ionization_Penalty_Neutral>
0.000359742

> <r_epik_State_Penalty>
2.59896

> <r_epik_Charging_Adjusted_Penalty>
3.89105

> <i_epik_Tot_Q>
0

> <i_epik_Tot_abs_Q>
0

> <r_epik_Metal_State_Penalty>
3.62496

> <b_epik_Metal_Only>
0

> <s_lp_Force_Field>
OPLS_2005

> <r_lp_Energy>
46.0915

> <b_lp_Chiralities_Consistent>
1

> <s_lp_Variant>
AV-unprocessed.smi:2784-10

> <Gold.Version>
5.8.1

> <Gold.Id.Protein>
6NUR|6NUR_protein|mol2

> <Gold.PLP.Fitness>
38.3238

> <Gold.PLP.PLP>
-32.3189

> <Gold.PLP.part.hbond>
-1.6564

> <Gold.PLP.part.metal>
0.0000

> <Gold.PLP.part.buried>
-6.5197

> <Gold.PLP.part.nonpolar>
-24.7924

> <Gold.PLP.part.repulsive>
0.2674

> <Gold.PLP.ligand.clash>
0.0000

> <Gold.PLP.ligand.torsion>
0.3340

> <Gold.PLP.Chemscore.Hbond>
1.2200

> <Gold.PLP.Chemscore.CHOScore>
1.0000

> <Gold.PLP.Chemscore.Metal>
0.0000

> <Gold.Chemscore.Hbonds>
donor molecule, donor type, donor heavy atom, donor atom, acceptor molecule, acceptor atom, score
      L1  H     8    28       P1  8028  0.22
      P1  H  7989  7998       L1    16  1.00
      L1  C    15    31       P1  7949  1.00

> <Gold.PLP.Chemscore.Internal.Correction>
0.0131

> <Gold.Rescore>
     Score         DG    S(hbond)    S(metal)    S(lipo)     H(rot)  DE(clash)    DE(int)     intcor
     11.69     -16.44       1.54        0.00      78.78       1.32       0.10       4.65       ----

> <Gold.Chemscore.Fitness>
11.6882

> <Gold.Chemscore.DG>
-16.4397

> <Gold.Chemscore.ZeroCoef>
-5.4800

> <Gold.Chemscore.Hbond>
1.5362

> <Gold.Chemscore.Metal>
0.0000

> <Gold.Chemscore.Lipo>
78.7765

> <Gold.Chemscore.Internal_Hbond>
0.0000

> <Gold.Chemscore.DEClash>
0.1025

> <Gold.Chemscore.DEInternal>
4.6491

> <Gold.Chemscore.Rot>
1.3235

> <Gold.Chemscore.Internal.Correction>
   9.000000E+99

> <Gold.Chemscore.Hbonds>
donor molecule, donor type, donor heavy atom, donor atom, acceptor molecule, acceptor atom, score
      L1  H     8    28       P1  8028  0.21
      P1  H  7989  7998       L1    16  0.55

> <Gold.Chemscore.Hbond.Weighted>
-5.1311

> <Gold.Chemscore.Metal.Weighted>
-0.0000

> <Gold.Chemscore.Lipo.Weighted>
-9.2168

> <Gold.Chemscore.Internal_Hbond.Weighted>
0.0000

> <Gold.Chemscore.DEClash.Weighted>
0.1025

> <Gold.Chemscore.DEInternal.Weighted>
4.6491

> <Gold.Chemscore.Rot.Weighted>
3.3882

> <Gold.Chemscore.Internal.Correction.Weighted>
   9.000000E+99

> <Gold.Protein.RotatedTorsions>
[ 6907 6896 6895 6894 ] final   28.89 input  -60.11 | X-H torsion
[ 7974 7965 7964 7962 ] final   -3.98 input  175.53 | X-H torsion
[ 8008 7997 7996 7995 ] final -117.06 input   59.86 | X-H torsion
[ 10167 10162 10161 10158 ] final   81.06 input  -65.29 | X-H torsion
[ 10718 10713 10712 10709 ] final  -94.34 input   66.30 | X-H torsion
[ 10763 10752 10751 10750 ] final -158.83 input  -60.55 | X-H torsion
[ 11005 11000 10999 10996 ] final   98.50 input  -57.11 | X-H torsion

> <Gold.Protein.ActiveResidues>
 VAL166  LYS551  ARG553  GLY616  TRP617  ASP618  TYR619  PRO620  LYS621  CYS622 
 ASP623  PHE694  ASN695  SER759  ASP760  ASP761  ALA762  ILE779  LEU786  VAL792 
 PHE793  MET794  SER795  GLU796  ALA797  LYS798  CYS799  TRP800  GLU811  SER814 

> <Gold.Protein.RotatedAtoms>
  152.0235  134.9809  160.0570 H   0  0  0  0  0  0  0  0  0  0  0  0  # atno 6907 bound_to 6896
  152.1314  133.4405  159.4731 H   0  0  0  0  0  0  0  0  0  0  0  0  # atno 6908 bound_to 6896
  150.6856  134.2335  159.4487 H   0  0  0  0  0  0  0  0  0  0  0  0  # atno 6909 bound_to 6896
  146.2380  140.1803  142.8332 H   0  0  0  0  0  0  0  0  0  0  0  0  # atno 7974 bound_to 7965
  155.0777  140.0394  157.2629 H   0  0  0  0  0  0  0  0  0  0  0  0  # atno 8008 bound_to 7997
  154.6932  140.2657  155.6767 H   0  0  0  0  0  0  0  0  0  0  0  0  # atno 8009 bound_to 7997
  156.2736  140.2755  156.1517 H   0  0  0  0  0  0  0  0  0  0  0  0  # atno 8010 bound_to 7997
  139.9432  144.6076  150.8231 H   0  0  0  0  0  0  0  0  0  0  0  0  # atno 10167 bound_to 10162
  156.0025  130.5063  150.5911 H   0  0  0  0  0  0  0  0  0  0  0  0  # atno 10718 bound_to 10713
  154.7525  135.3096  154.8532 H   0  0  0  0  0  0  0  0  0  0  0  0  # atno 10763 bound_to 10752
  153.9315  135.6785  153.4749 H   0  0  0  0  0  0  0  0  0  0  0  0  # atno 10764 bound_to 10752
  153.1121  135.4861  154.8981 H   0  0  0  0  0  0  0  0  0  0  0  0  # atno 10765 bound_to 10752
  139.8772  134.9052  156.4466 H   0  0  0  0  0  0  0  0  0  0  0  0  # atno 11005 bound_to 11000
  144.9940  140.8573  143.5322 LP  0  0  0  0  0  0  0  0  0  0  0  0  # atno 17320 bound_to 7965
  145.1812  139.2350  143.5291 LP  0  0  0  0  0  0  0  0  0  0  0  0  # atno 17321 bound_to 7965
  140.7605  143.3152  151.2750 LP  0  0  0  0  0  0  0  0  0  0  0  0  # atno 17342 bound_to 10162
  139.6687  144.0058  152.2739 LP  0  0  0  0  0  0  0  0  0  0  0  0  # atno 17343 bound_to 10162
  157.3776  131.0775  151.1504 LP  0  0  0  0  0  0  0  0  0  0  0  0  # atno 17370 bound_to 10713
  157.2238  130.6493  149.5821 LP  0  0  0  0  0  0  0  0  0  0  0  0  # atno 17371 bound_to 10713
  140.8962  133.7812  155.9627 LP  0  0  0  0  0  0  0  0  0  0  0  0  # atno 17394 bound_to 11000
  140.8701  134.2737  157.5195 LP  0  0  0  0  0  0  0  0  0  0  0  0  # atno 17395 bound_to 11000

$$$$
