AV-unprocessed.smi:158|AV-procd|sdf|1338|dock8
  -GOLD-   2262019 33D 1   1.00000     0.00000
 Structure written by MMmdl.
 31 33  0  0  0  0  0  0  0  0  1 V2000
  144.6962  136.2072  149.7599 N   0  0  0  0  0  0  0  0  0  0  0  0
  144.8716  135.7179  150.9958 C   0  0  0  0  0  0  0  0  0  0  0  0
  144.3051  136.3743  152.0350 N   0  0  0  0  0  0  0  0  0  0  0  0
  144.4571  135.9195  153.2848 C   0  0  0  0  0  0  0  0  0  0  0  0
  143.6966  136.8324  154.5344 Cl  0  0  0  0  0  0  0  0  0  0  0  0
  145.1346  134.8356  153.6757 N   0  0  0  0  0  0  0  0  0  0  0  0
  145.7070  134.1692  152.6320 C   0  0  0  0  0  0  0  0  0  0  0  0
  145.6224  134.5472  151.2651 C   0  0  0  0  0  0  0  0  0  0  0  0
  146.3250  133.6440  150.4793 N   0  0  0  0  0  0  0  0  0  0  0  0
  146.7969  132.7815  151.3395 C   0  0  0  0  0  0  0  0  0  0  0  0
  146.4719  133.0197  152.6574 N   0  0  0  0  0  0  0  0  0  0  0  0
  146.8667  132.2081  153.8533 C   0  0  1  0  0  0  0  0  0  0  0  0
  146.5463  130.8753  153.5921 O   0  0  0  0  0  0  0  0  0  0  0  0
  147.6514  130.0340  153.9043 C   0  0  1  0  0  0  0  0  0  0  0  0
  147.5937  128.7681  153.0340 C   0  0  0  0  0  0  0  0  0  0  0  0
  147.3879  129.1077  151.6791 O   0  0  0  0  0  0  0  0  0  0  0  0
  148.8781  130.9220  153.6718 C   0  0  2  0  0  0  0  0  0  0  0  0
  149.9845  130.5077  154.4484 O   0  0  0  0  0  0  0  0  0  0  0  0
  148.3787  132.2805  154.1307 C   0  0  1  0  0  0  0  0  0  0  0  0
  148.9619  133.2869  153.4751 F   0  0  0  0  0  0  0  0  0  0  0  0
  146.2613  132.6050  154.6690 H   0  0  0  0  0  0  0  0  0  0  0  0
  147.5639  129.7761  154.9617 H   0  0  0  0  0  0  0  0  0  0  0  0
  149.1480  130.9491  152.6160 H   0  0  0  0  0  0  0  0  0  0  0  0
  148.5277  132.4301  155.2010 H   0  0  0  0  0  0  0  0  0  0  0  0
  145.1101  135.7344  148.9692 H   0  0  0  0  0  0  0  0  0  0  0  0
  144.1504  137.0454  149.6210 H   0  0  0  0  0  0  0  0  0  0  0  0
  147.3983  131.9382  151.0324 H   0  0  0  0  0  0  0  0  0  0  0  0
  148.5358  128.2240  153.1045 H   0  0  0  0  0  0  0  0  0  0  0  0
  146.8067  128.0924  153.3702 H   0  0  0  0  0  0  0  0  0  0  0  0
  148.1607  129.5475  151.3590 H   0  0  0  0  0  0  0  0  0  0  0  0
  149.9330  129.5726  154.5734 H   0  0  0  0  0  0  0  0  0  0  0  0
  1  2  1  0  0  0  0
  1 25  1  0  0  0  0
  1 26  1  0  0  0  0
  2  8  1  0  0  0  0
  2  3  2  0  0  0  0
  3  4  1  0  0  0  0
  4  5  1  0  0  0  0
  4  6  2  0  0  0  0
  6  7  1  0  0  0  0
  7 11  1  0  0  0  0
  7  8  2  0  0  0  0
  8  9  1  0  0  0  0
  9 10  2  0  0  0  0
 10 11  1  0  0  0  0
 10 27  1  0  0  0  0
 11 12  1  0  0  0  0
 12 21  1  0  0  0  0
 12 19  1  0  0  0  0
 12 13  1  0  0  0  0
 13 14  1  0  0  0  0
 14 22  1  0  0  0  0
 14 15  1  0  0  0  0
 14 17  1  0  0  0  0
 15 16  1  0  0  0  0
 15 28  1  0  0  0  0
 15 29  1  0  0  0  0
 16 30  1  0  0  0  0
 17 23  1  0  0  0  0
 17 18  1  0  0  0  0
 17 19  1  0  0  0  0
 18 31  1  0  0  0  0
 19 24  1  0  0  0  0
 19 20  1  0  0  0  0
M  END
> <s_m_source_file>
AV-unprocessed.smi

> <i_m_source_file_index>
158

> <i_lp_mmshare_version>
43012

> <i_f3d_flags>
0

> <s_epik_input>
Q2xjKG4xKW5jKFtOSDJdKWMoYzEyKW5bY0hdbjJbQ0BASF0zT1tDQEhdKFtDSDJdW09IXSlbQ0BASF0oW09IXSlbQ0BASF0zRg==

> <s_epik_cmdline>
J2VwaWtfcHl0aG9uJywgJy1waCcsICc3LjAnLCAnLXRuJywgJzgnLCAnLW1hJywgJzIwMCcsICctbWV0YWxfYmluZGluZycsICctaW1hZScsICc8aW5maWxlLm1hZT4nLCAnLW9tYWUnLCAnPG91dGZpbGUubWFlPic=

> <r_lp_tautomer_probability>
1

> <r_epik_Ionization_Penalty>
6.51543e-05

> <r_epik_Ionization_Penalty_Charging>
0

> <r_epik_Ionization_Penalty_Neutral>
6.51543e-05

> <r_epik_State_Penalty>
-0

> <r_epik_Charging_Adjusted_Penalty>
0

> <i_epik_Tot_Q>
0

> <i_epik_Tot_abs_Q>
0

> <r_epik_Metal_State_Penalty>
-0

> <b_epik_Metal_Only>
0

> <s_epik_Chemistry_Notes>
This compound contains an acetal/aminal-like group ( X-CH(R)-Y where X, Y are N, S, or O) that may be acid/base labile, releasing an aldehyde.

> <s_lp_Force_Field>
OPLS_2005

> <r_lp_Energy>
35.9184

> <b_lp_Chiralities_Consistent>
1

> <s_lp_Variant>
AV-unprocessed.smi:158-16

> <Gold.Version>
5.8.1

> <Gold.Id.Protein>
6NUR|6NUR_protein|mol2

> <Gold.PLP.Fitness>
37.7733

> <Gold.PLP.PLP>
-26.1140

> <Gold.PLP.part.hbond>
-2.9747

> <Gold.PLP.part.metal>
0.0000

> <Gold.PLP.part.buried>
-4.7385

> <Gold.PLP.part.nonpolar>
-19.5934

> <Gold.PLP.part.repulsive>
1.0039

> <Gold.PLP.ligand.clash>
0.0000

> <Gold.PLP.ligand.torsion>
0.1869

> <Gold.PLP.Chemscore.Hbond>
3.0000

> <Gold.PLP.Chemscore.CHOScore>
1.0000

> <Gold.PLP.Chemscore.Metal>
0.0000

> <Gold.Chemscore.Hbonds>
donor molecule, donor type, donor heavy atom, donor atom, acceptor molecule, acceptor atom, score
      L1  H     1    25       P1  7921  1.00
      L1  H     1    26       P1 10171  1.00
      L1  H    16    30       P1 10747  1.00
      L1  C    10    27       P1 10747  1.00

> <Gold.PLP.Chemscore.Internal.Correction>
0.0331

> <Gold.Rescore>
     Score         DG    S(hbond)    S(metal)    S(lipo)     H(rot)  DE(clash)    DE(int)     intcor
      8.76      -9.66       2.70        0.00      27.09       3.12       0.09       0.81       ----

> <Gold.Chemscore.Fitness>
8.7598

> <Gold.Chemscore.DG>
-9.6557

> <Gold.Chemscore.ZeroCoef>
-5.4800

> <Gold.Chemscore.Hbond>
2.6950

> <Gold.Chemscore.Metal>
0.0000

> <Gold.Chemscore.Lipo>
27.0872

> <Gold.Chemscore.Internal_Hbond>
0.0000

> <Gold.Chemscore.DEClash>
0.0859

> <Gold.Chemscore.DEInternal>
0.8099

> <Gold.Chemscore.Rot>
3.1230

> <Gold.Chemscore.Internal.Correction>
   9.000000E+99

> <Gold.Chemscore.Hbonds>
donor molecule, donor type, donor heavy atom, donor atom, acceptor molecule, acceptor atom, score
      L1  H     1    25       P1  7921  1.00
      L1  H     1    26       P1 10171  0.93
      L1  H    16    30       P1 10747  0.58

> <Gold.Chemscore.Hbond.Weighted>
-9.0014

> <Gold.Chemscore.Metal.Weighted>
-0.0000

> <Gold.Chemscore.Lipo.Weighted>
-3.1692

> <Gold.Chemscore.Internal_Hbond.Weighted>
0.0000

> <Gold.Chemscore.DEClash.Weighted>
0.0859

> <Gold.Chemscore.DEInternal.Weighted>
0.8099

> <Gold.Chemscore.Rot.Weighted>
7.9950

> <Gold.Chemscore.Internal.Correction.Weighted>
   9.000000E+99

> <Gold.Protein.RotatedTorsions>
[ 6907 6896 6895 6894 ] final   48.97 input  -60.11 | X-H torsion
[ 7974 7965 7964 7962 ] final  106.85 input  175.53 | X-H torsion
[ 8008 7997 7996 7995 ] final  176.98 input   59.86 | X-H torsion
[ 10167 10162 10161 10158 ] final  165.88 input  -65.29 | X-H torsion
[ 10718 10713 10712 10709 ] final   94.34 input   66.30 | X-H torsion
[ 10763 10752 10751 10750 ] final  172.03 input  -60.55 | X-H torsion
[ 11005 11000 10999 10996 ] final   57.54 input  -57.11 | X-H torsion

> <Gold.Protein.ActiveResidues>
 VAL166  LYS551  ARG553  GLY616  TRP617  ASP618  TYR619  PRO620  LYS621  CYS622 
 ASP623  PHE694  ASN695  SER759  ASP760  ASP761  ALA762  ILE779  LEU786  VAL792 
 PHE793  MET794  SER795  GLU796  ALA797  LYS798  CYS799  TRP800  GLU811  SER814 

> <Gold.Protein.RotatedAtoms>
  152.2855  134.7780  160.0387 H   0  0  0  0  0  0  0  0  0  0  0  0  # atno 6907 bound_to 6896
  151.8345  133.3408  159.3632 H   0  0  0  0  0  0  0  0  0  0  0  0  # atno 6908 bound_to 6896
  150.7208  134.5380  159.5777 H   0  0  0  0  0  0  0  0  0  0  0  0  # atno 6909 bound_to 6896
  145.3012  139.2569  143.3813 H   0  0  0  0  0  0  0  0  0  0  0  0  # atno 7974 bound_to 7965
  156.0706  140.1370  156.9833 H   0  0  0  0  0  0  0  0  0  0  0  0  # atno 8008 bound_to 7997
  154.4530  140.0972  156.6725 H   0  0  0  0  0  0  0  0  0  0  0  0  # atno 8009 bound_to 7997
  155.5234  140.3457  155.4413 H   0  0  0  0  0  0  0  0  0  0  0  0  # atno 8010 bound_to 7997
  139.4914  144.4086  151.9326 H   0  0  0  0  0  0  0  0  0  0  0  0  # atno 10167 bound_to 10162
  157.6948  131.0509  150.4171 H   0  0  0  0  0  0  0  0  0  0  0  0  # atno 10718 bound_to 10713
  154.4203  135.2758  155.1980 H   0  0  0  0  0  0  0  0  0  0  0  0  # atno 10763 bound_to 10752
  154.3928  135.6062  153.5856 H   0  0  0  0  0  0  0  0  0  0  0  0  # atno 10764 bound_to 10752
  152.9833  135.5907  154.4498 H   0  0  0  0  0  0  0  0  0  0  0  0  # atno 10765 bound_to 10752
  140.0444  134.5826  155.9340 H   0  0  0  0  0  0  0  0  0  0  0  0  # atno 11005 bound_to 11000
  146.3151  140.3527  142.8657 LP  0  0  0  0  0  0  0  0  0  0  0  0  # atno 17320 bound_to 7965
  144.9092  140.7736  143.5818 LP  0  0  0  0  0  0  0  0  0  0  0  0  # atno 17321 bound_to 7965
  140.3527  144.3069  150.5946 LP  0  0  0  0  0  0  0  0  0  0  0  0  # atno 17342 bound_to 10162
  140.5471  143.2213  151.7989 LP  0  0  0  0  0  0  0  0  0  0  0  0  # atno 17343 bound_to 10162
  156.4549  130.4019  149.6612 LP  0  0  0  0  0  0  0  0  0  0  0  0  # atno 17370 bound_to 10713
  156.3748  130.7549  151.2536 LP  0  0  0  0  0  0  0  0  0  0  0  0  # atno 17371 bound_to 10713
  141.1900  133.6567  156.5391 LP  0  0  0  0  0  0  0  0  0  0  0  0  # atno 17394 bound_to 11000
  140.4016  134.7351  157.4783 LP  0  0  0  0  0  0  0  0  0  0  0  0  # atno 17395 bound_to 11000

$$$$
