AV-unprocessed.smi:1843|AV-procd|sdf|7502|dock8
  -GOLD-   22720 9203D 1   1.00000     0.00000
 Structure written by MMmdl.
 37 39  0  0  0  0  0  0  0  0  1 V2000
  150.5867  134.2307  155.6028 O   0  0  0  0  0  0  0  0  0  0  0  0
  149.6466  134.7759  155.0242 C   0  0  0  0  0  0  0  0  0  0  0  0
  148.7088  134.1445  154.2964 N   0  0  0  0  0  0  0  0  0  0  0  0
  148.5848  132.7538  154.0374 C   0  0  0  0  0  0  0  0  0  0  0  0
  149.5965  131.8822  154.1488 N   0  0  0  0  0  0  0  0  0  0  0  0
  149.2019  130.5883  153.8385 N   0  0  0  0  0  0  0  0  0  0  0  0
  147.9081  130.5178  153.5039 C   0  0  0  0  0  0  0  0  0  0  0  0
  147.2507  129.2306  153.1323 C   0  0  0  0  0  0  0  0  0  0  0  0
  146.8818  128.9136  151.6993 C   0  0  0  0  0  0  0  0  0  0  0  0
  145.7999  129.1975  152.7096 C   0  0  0  0  0  0  0  0  0  0  0  0
  147.0537  132.0571  153.5367 S   0  0  0  0  0  0  0  0  0  0  0  0
  149.4339  136.0997  155.0458 N   0  0  0  0  0  0  0  0  0  0  0  0
  150.2610  137.0760  155.7526 C   0  0  2  0  0  0  0  0  0  0  0  0
  149.5341  138.4315  155.8450 C   0  0  0  0  0  0  0  0  0  0  0  0
  150.3835  139.4651  156.6020 C   0  0  0  0  0  0  0  0  0  0  0  0
  151.7695  139.6298  155.9584 C   0  0  0  0  0  0  0  0  0  0  0  0
  152.5033  138.2809  155.8442 C   0  0  0  0  0  0  0  0  0  0  0  0
  151.6622  137.2191  155.1088 C   0  0  2  0  0  0  0  0  0  0  0  0
  151.5560  137.5787  153.7433 O   0  0  0  0  0  0  0  0  0  0  0  0
  147.9961  134.7265  153.8817 H   0  0  0  0  0  0  0  0  0  0  0  0
  147.6198  128.4171  153.7538 H   0  0  0  0  0  0  0  0  0  0  0  0
  147.0628  129.6716  150.9398 H   0  0  0  0  0  0  0  0  0  0  0  0
  147.0015  127.8844  151.3674 H   0  0  0  0  0  0  0  0  0  0  0  0
  145.1967  128.3588  153.0513 H   0  0  0  0  0  0  0  0  0  0  0  0
  145.2748  130.1473  152.6287 H   0  0  0  0  0  0  0  0  0  0  0  0
  148.6384  136.4628  154.5416 H   0  0  0  0  0  0  0  0  0  0  0  0
  150.3975  136.7177  156.7752 H   0  0  0  0  0  0  0  0  0  0  0  0
  149.3083  138.8060  154.8456 H   0  0  0  0  0  0  0  0  0  0  0  0
  148.5759  138.3073  156.3508 H   0  0  0  0  0  0  0  0  0  0  0  0
  149.8675  140.4254  156.6235 H   0  0  0  0  0  0  0  0  0  0  0  0
  150.4981  139.1524  157.6407 H   0  0  0  0  0  0  0  0  0  0  0  0
  151.6608  140.0746  154.9686 H   0  0  0  0  0  0  0  0  0  0  0  0
  152.3688  140.3280  156.5431 H   0  0  0  0  0  0  0  0  0  0  0  0
  153.4624  138.4176  155.3431 H   0  0  0  0  0  0  0  0  0  0  0  0
  152.7349  137.9183  156.8466 H   0  0  0  0  0  0  0  0  0  0  0  0
  152.1866  136.2637  155.1521 H   0  0  0  0  0  0  0  0  0  0  0  0
  151.1570  138.4338  153.6914 H   0  0  0  0  0  0  0  0  0  0  0  0
  1  2  2  0  0  0  0
  2  3  1  0  0  0  0
  2 12  1  0  0  0  0
  3  4  1  0  0  0  0
  3 20  1  0  0  0  0
  4 11  1  0  0  0  0
  4  5  2  0  0  0  0
  5  6  1  0  0  0  0
  6  7  2  0  0  0  0
  7  8  1  0  0  0  0
  7 11  1  0  0  0  0
  8 10  1  0  0  0  0
  8  9  1  0  0  0  0
  8 21  1  0  0  0  0
  9 10  1  0  0  0  0
  9 22  1  0  0  0  0
  9 23  1  0  0  0  0
 10 24  1  0  0  0  0
 10 25  1  0  0  0  0
 12 13  1  0  0  0  0
 12 26  1  0  0  0  0
 13 18  1  0  0  0  0
 13 14  1  0  0  0  0
 13 27  1  0  0  0  0
 14 15  1  0  0  0  0
 14 28  1  0  0  0  0
 14 29  1  0  0  0  0
 15 16  1  0  0  0  0
 15 30  1  0  0  0  0
 15 31  1  0  0  0  0
 16 17  1  0  0  0  0
 16 32  1  0  0  0  0
 16 33  1  0  0  0  0
 17 18  1  0  0  0  0
 17 34  1  0  0  0  0
 17 35  1  0  0  0  0
 18 19  1  0  0  0  0
 18 36  1  0  0  0  0
 19 37  1  0  0  0  0
M  END
> <s_m_source_file>
AV-unprocessed.smi

> <i_m_source_file_index>
1843

> <i_lp_mmshare_version>
43012

> <i_f3d_flags>
0

> <s_epik_input>
W09IXVtDQEBIXTFbQ0gyXVtDSDJdW0NIMl1bQ0gyXVtDQEhdMVtOSF1DKD1PKVtOSF1jMm5uYyhzMilbQ0hdM1tDSDJdW0NIMl0z

> <s_epik_cmdline>
J2VwaWtfcHl0aG9uJywgJy1waCcsICc3LjAnLCAnLXRuJywgJzgnLCAnLW1hJywgJzIwMCcsICctbWV0YWxfYmluZGluZycsICctaW1hZScsICc8aW5maWxlLm1hZT4nLCAnLW9tYWUnLCAnPG91dGZpbGUubWFlPic=

> <r_lp_tautomer_probability>
1

> <r_epik_Ionization_Penalty>
0.000257313

> <r_epik_Ionization_Penalty_Charging>
0

> <r_epik_Ionization_Penalty_Neutral>
0.000257313

> <r_epik_State_Penalty>
-0

> <r_epik_Charging_Adjusted_Penalty>
0

> <i_epik_Tot_Q>
0

> <i_epik_Tot_abs_Q>
0

> <r_epik_Metal_State_Penalty>
0.147479

> <b_epik_Metal_Only>
0

> <s_lp_Force_Field>
OPLS_2005

> <r_lp_Energy>
10.7354

> <b_lp_Chiralities_Consistent>
1

> <s_lp_Variant>
AV-unprocessed.smi:1843-3

> <Gold.Version>
5.8.1

> <Gold.Id.Protein>
6NUR|6NUR_protein|mol2

> <Gold.PLP.Fitness>
39.2994

> <Gold.PLP.PLP>
-31.6295

> <Gold.PLP.part.hbond>
-4.0239

> <Gold.PLP.part.metal>
0.0000

> <Gold.PLP.part.buried>
-1.0468

> <Gold.PLP.part.nonpolar>
-26.4161

> <Gold.PLP.part.repulsive>
0.1246

> <Gold.PLP.ligand.clash>
0.0000

> <Gold.PLP.ligand.torsion>
0.3750

> <Gold.PLP.Chemscore.Hbond>
2.7600

> <Gold.PLP.Chemscore.CHOScore>
0.0000

> <Gold.PLP.Chemscore.Metal>
0.0000

> <Gold.PLP.Chemscore.Internal.Correction>
0.1400

> <Gold.Rescore>
     Score         DG    S(hbond)    S(metal)    S(lipo)     H(rot)  DE(clash)    DE(int)     intcor
     15.94     -17.34       2.56        0.00      66.29       1.74       0.00       1.40       ----

> <Gold.Chemscore.Fitness>
15.9394

> <Gold.Chemscore.DG>
-17.3404

> <Gold.Chemscore.ZeroCoef>
-5.4800

> <Gold.Chemscore.Hbond>
2.5627

> <Gold.Chemscore.Metal>
0.0000

> <Gold.Chemscore.Lipo>
66.2948

> <Gold.Chemscore.Internal_Hbond>
0.0000

> <Gold.Chemscore.DEClash>
0.0009

> <Gold.Chemscore.DEInternal>
1.4001

> <Gold.Chemscore.Rot>
1.7404

> <Gold.Chemscore.Internal.Correction>
   9.000000E+99

> <Gold.Chemscore.Hbond.Weighted>
-8.5594

> <Gold.Chemscore.Metal.Weighted>
-0.0000

> <Gold.Chemscore.Lipo.Weighted>
-7.7565

> <Gold.Chemscore.Internal_Hbond.Weighted>
0.0000

> <Gold.Chemscore.DEClash.Weighted>
0.0009

> <Gold.Chemscore.DEInternal.Weighted>
1.4001

> <Gold.Chemscore.Rot.Weighted>
4.4555

> <Gold.Chemscore.Internal.Correction.Weighted>
   9.000000E+99

> <Gold.Protein.RotatedTorsions>
[ 6907 6896 6895 6894 ] final   54.41 input  -60.11 | X-H torsion
[ 7974 7965 7964 7962 ] final   13.35 input  175.53 | X-H torsion
[ 8008 7997 7996 7995 ] final  128.30 input   59.86 | X-H torsion
[ 10167 10162 10161 10158 ] final   94.03 input  -65.29 | X-H torsion
[ 10718 10713 10712 10709 ] final   80.76 input   66.30 | X-H torsion
[ 10763 10752 10751 10750 ] final  -87.41 input  -60.55 | X-H torsion
[ 11005 11000 10999 10996 ] final  -35.48 input  -57.11 | X-H torsion

> <Gold.Protein.ActiveResidues>
 VAL166  LYS551  ARG553  GLY616  TRP617  ASP618  TYR619  PRO620  LYS621  CYS622 
 ASP623  PHE694  ASN695  SER759  ASP760  ASP761  ALA762  ILE779  LEU786  VAL792 
 PHE793  MET794  SER795  GLU796  ALA797  LYS798  CYS799  TRP800  GLU811  SER814 

> <Gold.Protein.RotatedAtoms>
  152.3436  134.7101  160.0256 H   0  0  0  0  0  0  0  0  0  0  0  0  # atno 6907 bound_to 6896
  151.7478  133.3320  159.3391 H   0  0  0  0  0  0  0  0  0  0  0  0  # atno 6908 bound_to 6896
  150.7495  134.6153  159.6152 H   0  0  0  0  0  0  0  0  0  0  0  0  # atno 6909 bound_to 6896
  146.2331  139.9202  142.8511 H   0  0  0  0  0  0  0  0  0  0  0  0  # atno 7974 bound_to 7965
  156.2911  140.2648  156.2413 H   0  0  0  0  0  0  0  0  0  0  0  0  # atno 8008 bound_to 7997
  154.9975  140.0388  157.2364 H   0  0  0  0  0  0  0  0  0  0  0  0  # atno 8009 bound_to 7997
  154.7631  140.2764  155.6203 H   0  0  0  0  0  0  0  0  0  0  0  0  # atno 8010 bound_to 7997
  139.8123  144.6768  150.9624 H   0  0  0  0  0  0  0  0  0  0  0  0  # atno 10167 bound_to 10162
  157.6815  130.9973  150.2126 H   0  0  0  0  0  0  0  0  0  0  0  0  # atno 10718 bound_to 10713
  154.6333  135.5414  153.7705 H   0  0  0  0  0  0  0  0  0  0  0  0  # atno 10763 bound_to 10752
  153.0295  135.6441  154.1269 H   0  0  0  0  0  0  0  0  0  0  0  0  # atno 10764 bound_to 10752
  154.1198  135.2921  155.3191 H   0  0  0  0  0  0  0  0  0  0  0  0  # atno 10765 bound_to 10752
  140.9799  133.7062  156.1666 H   0  0  0  0  0  0  0  0  0  0  0  0  # atno 11005 bound_to 11000
  145.2144  140.9909  143.4082 LP  0  0  0  0  0  0  0  0  0  0  0  0  # atno 17320 bound_to 7965
  144.9664  139.3926  143.6331 LP  0  0  0  0  0  0  0  0  0  0  0  0  # atno 17321 bound_to 7965
  140.7817  143.4173  151.0897 LP  0  0  0  0  0  0  0  0  0  0  0  0  # atno 17342 bound_to 10162
  139.7839  143.8316  152.3142 LP  0  0  0  0  0  0  0  0  0  0  0  0  # atno 17343 bound_to 10162
  156.2794  130.3731  149.7951 LP  0  0  0  0  0  0  0  0  0  0  0  0  # atno 17370 bound_to 10713
  156.5644  130.8397  151.3338 LP  0  0  0  0  0  0  0  0  0  0  0  0  # atno 17371 bound_to 10713
  140.7202  134.4367  157.5575 LP  0  0  0  0  0  0  0  0  0  0  0  0  # atno 17394 bound_to 11000
  139.8946  134.8703  156.2170 LP  0  0  0  0  0  0  0  0  0  0  0  0  # atno 17395 bound_to 11000

$$$$
