AV-unprocessed.smi:2718|AV-procd|sdf|10486|dock9
  -GOLD-   2272014533D 1   1.00000     0.00000
 Structure written by MMmdl.
 47 48  0  0  0  0  0  0  0  0  1 V2000
  142.3287  133.2204  161.3599 C   0  0  0  0  0  0  0  0  0  0  0  0
  143.3981  134.2392  161.7000 C   0  0  0  0  0  0  0  0  0  0  0  0
  143.0873  135.1063  162.9076 C   0  0  0  0  0  0  0  0  0  0  0  0
  144.5286  134.3481  160.9764 C   0  0  0  0  0  0  0  0  0  0  0  0
  145.6433  135.3014  161.2183 C   0  0  2  0  0  0  0  0  0  0  0  0
  146.9099  135.2514  160.3822 C   0  0  1  0  0  0  0  0  0  0  0  0
  147.5647  136.5370  159.9843 C   0  0  0  0  0  0  0  0  0  0  0  0
  147.9549  137.3806  160.7922 O   0  0  0  0  0  0  0  0  0  0  0  0
  147.6844  136.6863  158.6570 N   0  0  0  0  0  0  0  0  0  0  0  0
  148.2650  137.8402  157.9742 C   0  0  0  0  0  0  0  0  0  0  0  0
  149.6575  137.5681  157.3578 C   0  0  2  0  0  0  0  0  0  0  0  0
  150.7665  137.6197  158.4185 C   0  0  0  0  0  0  0  0  0  0  0  0
  149.9702  138.4615  156.1870 C   0  0  0  0  0  0  0  0  0  0  0  0
  151.0545  139.2459  156.1226 N   0  0  0  0  0  0  0  0  0  0  0  0
  150.9786  139.8902  154.9047 N   0  0  0  0  0  0  0  0  0  0  0  0
  149.8652  139.4191  154.3459 C   0  0  0  0  0  0  0  0  0  0  0  0
  149.1948  138.5217  155.0836 N   0  0  0  0  0  0  0  0  0  0  0  0
  147.9717  137.8179  154.7513 C   0  0  0  0  0  0  0  0  0  0  0  0
  146.9445  134.8331  161.8474 C   0  0  0  0  0  0  0  0  0  0  0  0
  147.5713  135.6851  162.9432 C   0  0  0  0  0  0  0  0  0  0  0  0
  147.1922  133.3632  162.1513 C   0  0  0  0  0  0  0  0  0  0  0  0
  141.3823  133.7205  161.1520 H   0  0  0  0  0  0  0  0  0  0  0  0
  142.1794  132.5373  162.1963 H   0  0  0  0  0  0  0  0  0  0  0  0
  142.5998  132.6300  160.4840 H   0  0  0  0  0  0  0  0  0  0  0  0
  142.9728  134.4848  163.7960 H   0  0  0  0  0  0  0  0  0  0  0  0
  142.1553  135.6494  162.7492 H   0  0  0  0  0  0  0  0  0  0  0  0
  143.8688  135.8382  163.1096 H   0  0  0  0  0  0  0  0  0  0  0  0
  144.6634  133.6908  160.1298 H   0  0  0  0  0  0  0  0  0  0  0  0
  145.2727  136.2829  161.5095 H   0  0  0  0  0  0  0  0  0  0  0  0
  146.9943  134.4436  159.6563 H   0  0  0  0  0  0  0  0  0  0  0  0
  147.3423  135.9403  158.0685 H   0  0  0  0  0  0  0  0  0  0  0  0
  147.5680  138.1148  157.1818 H   0  0  0  0  0  0  0  0  0  0  0  0
  148.3067  138.6926  158.6539 H   0  0  0  0  0  0  0  0  0  0  0  0
  149.6360  136.5405  156.9969 H   0  0  0  0  0  0  0  0  0  0  0  0
  151.7296  137.3380  157.9914 H   0  0  0  0  0  0  0  0  0  0  0  0
  150.5561  136.9348  159.2403 H   0  0  0  0  0  0  0  0  0  0  0  0
  150.8687  138.6210  158.8385 H   0  0  0  0  0  0  0  0  0  0  0  0
  149.5335  139.7334  153.3671 H   0  0  0  0  0  0  0  0  0  0  0  0
  147.5830  138.1715  153.7956 H   0  0  0  0  0  0  0  0  0  0  0  0
  147.2214  137.9911  155.5223 H   0  0  0  0  0  0  0  0  0  0  0  0
  148.1723  136.7487  154.6802 H   0  0  0  0  0  0  0  0  0  0  0  0
  148.6584  135.6232  162.8936 H   0  0  0  0  0  0  0  0  0  0  0  0
  147.2500  135.3350  163.9244 H   0  0  0  0  0  0  0  0  0  0  0  0
  147.2756  136.7299  162.8573 H   0  0  0  0  0  0  0  0  0  0  0  0
  148.2617  133.1692  162.2361 H   0  0  0  0  0  0  0  0  0  0  0  0
  146.7955  132.7256  161.3610 H   0  0  0  0  0  0  0  0  0  0  0  0
  146.7110  133.0824  163.0885 H   0  0  0  0  0  0  0  0  0  0  0  0
  1  2  1  0  0  0  0
  1 22  1  0  0  0  0
  1 23  1  0  0  0  0
  1 24  1  0  0  0  0
  2  3  1  0  0  0  0
  2  4  2  0  0  0  0
  3 25  1  0  0  0  0
  3 26  1  0  0  0  0
  3 27  1  0  0  0  0
  4  5  1  0  0  0  0
  4 28  1  0  0  0  0
  5 19  1  0  0  0  0
  5  6  1  0  0  0  0
  5 29  1  0  0  0  0
  6  7  1  0  0  0  0
  6 19  1  0  0  0  0
  6 30  1  0  0  0  0
  7  8  2  0  0  0  0
  7  9  1  0  0  0  0
  9 10  1  0  0  0  0
  9 31  1  0  0  0  0
 10 11  1  0  0  0  0
 10 32  1  0  0  0  0
 10 33  1  0  0  0  0
 11 12  1  0  0  0  0
 11 13  1  0  0  0  0
 11 34  1  0  0  0  0
 12 35  1  0  0  0  0
 12 36  1  0  0  0  0
 12 37  1  0  0  0  0
 13 17  1  0  0  0  0
 13 14  2  0  0  0  0
 14 15  1  0  0  0  0
 15 16  2  0  0  0  0
 16 17  1  0  0  0  0
 16 38  1  0  0  0  0
 17 18  1  0  0  0  0
 18 39  1  0  0  0  0
 18 40  1  0  0  0  0
 18 41  1  0  0  0  0
 19 20  1  0  0  0  0
 19 21  1  0  0  0  0
 20 42  1  0  0  0  0
 20 43  1  0  0  0  0
 20 44  1  0  0  0  0
 21 45  1  0  0  0  0
 21 46  1  0  0  0  0
 21 47  1  0  0  0  0
M  END
> <s_m_source_file>
AV-unprocessed.smi

> <i_m_source_file_index>
2718

> <i_lp_mmshare_version>
43012

> <i_f3d_flags>
0

> <s_epik_input>
W0NIM11DKFtDSDNdKT1bQ0hdW0NAQEhdKEMxKFtDSDNdKVtDSDNdKVtDQEhdMUMoPU8pW05IXVtDSDJdW0NASF0oW0NIM10pYzJubltjSF1uMltDSDNd

> <s_epik_cmdline>
J2VwaWtfcHl0aG9uJywgJy1waCcsICc3LjAnLCAnLXRuJywgJzgnLCAnLW1hJywgJzIwMCcsICctbWV0YWxfYmluZGluZycsICctaW1hZScsICc8aW5maWxlLm1hZT4nLCAnLW9tYWUnLCAnPG91dGZpbGUubWFlPic=

> <r_lp_tautomer_probability>
1

> <r_epik_Ionization_Penalty>
0.000449586

> <r_epik_Ionization_Penalty_Charging>
0

> <r_epik_Ionization_Penalty_Neutral>
0.000449586

> <r_epik_State_Penalty>
0.000243372

> <r_epik_Charging_Adjusted_Penalty>
0.000243372

> <i_epik_Tot_Q>
0

> <i_epik_Tot_abs_Q>
0

> <r_epik_Metal_State_Penalty>
-0

> <b_epik_Metal_Only>
0

> <s_lp_Force_Field>
OPLS_2005

> <r_lp_Energy>
15.15

> <b_lp_Chiralities_Consistent>
1

> <s_lp_Variant>
AV-unprocessed.smi:2718-1

> <Gold.Version>
5.8.1

> <Gold.Id.Protein>
6NUR|6NUR_protein|mol2

> <Gold.PLP.Fitness>
39.5511

> <Gold.PLP.PLP>
-29.8321

> <Gold.PLP.part.hbond>
-3.0000

> <Gold.PLP.part.metal>
0.0000

> <Gold.PLP.part.buried>
-4.3410

> <Gold.PLP.part.nonpolar>
-22.5340

> <Gold.PLP.part.repulsive>
0.1396

> <Gold.PLP.ligand.clash>
0.0000

> <Gold.PLP.ligand.torsion>
0.5708

> <Gold.PLP.Chemscore.Hbond>
2.5360

> <Gold.PLP.Chemscore.CHOScore>
1.0000

> <Gold.PLP.Chemscore.Metal>
0.0000

> <Gold.Chemscore.Hbonds>
donor molecule, donor type, donor heavy atom, donor atom, acceptor molecule, acceptor atom, score
      P1  H  6931  6943       L1     8  0.77
      P1  H  6934  6947       L1     8  0.74
      P1  H  7989  7998       L1    15  1.00
      L1  C    16    38       P1  7957  1.00

> <Gold.PLP.Chemscore.Internal.Correction>
0.2526

> <Gold.Rescore>
     Score         DG    S(hbond)    S(metal)    S(lipo)     H(rot)  DE(clash)    DE(int)     intcor
     15.03     -17.19       2.63        0.00      67.59       1.95       0.04       2.12       ----

> <Gold.Chemscore.Fitness>
15.0324

> <Gold.Chemscore.DG>
-17.1868

> <Gold.Chemscore.ZeroCoef>
-5.4800

> <Gold.Chemscore.Hbond>
2.6344

> <Gold.Chemscore.Metal>
0.0000

> <Gold.Chemscore.Lipo>
67.5927

> <Gold.Chemscore.Internal_Hbond>
0.0000

> <Gold.Chemscore.DEClash>
0.0383

> <Gold.Chemscore.DEInternal>
2.1161

> <Gold.Chemscore.Rot>
1.9533

> <Gold.Chemscore.Internal.Correction>
   9.000000E+99

> <Gold.Chemscore.Hbonds>
donor molecule, donor type, donor heavy atom, donor atom, acceptor molecule, acceptor atom, score
      P1  H  6931  6943       L1     8  0.76
      P1  H  6934  6947       L1     8  0.73
      P1  H  7989  7998       L1    15  0.26

> <Gold.Chemscore.Hbond.Weighted>
-8.7990

> <Gold.Chemscore.Metal.Weighted>
-0.0000

> <Gold.Chemscore.Lipo.Weighted>
-7.9083

> <Gold.Chemscore.Internal_Hbond.Weighted>
0.0000

> <Gold.Chemscore.DEClash.Weighted>
0.0383

> <Gold.Chemscore.DEInternal.Weighted>
2.1161

> <Gold.Chemscore.Rot.Weighted>
5.0005

> <Gold.Chemscore.Internal.Correction.Weighted>
   9.000000E+99

> <Gold.Protein.RotatedTorsions>
[ 6907 6896 6895 6894 ] final  -97.59 input  -60.11 | X-H torsion
[ 7974 7965 7964 7962 ] final   65.43 input  175.53 | X-H torsion
[ 8008 7997 7996 7995 ] final -147.90 input   59.86 | X-H torsion
[ 10167 10162 10161 10158 ] final   -5.45 input  -65.29 | X-H torsion
[ 10718 10713 10712 10709 ] final   55.91 input   66.30 | X-H torsion
[ 10763 10752 10751 10750 ] final  -98.21 input  -60.55 | X-H torsion
[ 11005 11000 10999 10996 ] final  -67.86 input  -57.11 | X-H torsion

> <Gold.Protein.ActiveResidues>
 VAL166  LYS551  ARG553  GLY616  TRP617  ASP618  TYR619  PRO620  LYS621  CYS622 
 ASP623  PHE694  ASN695  SER759  ASP760  ASP761  ALA762  ILE779  LEU786  VAL792 
 PHE793  MET794  SER795  GLU796  ALA797  LYS798  CYS799  TRP800  GLU811  SER814 

> <Gold.Protein.RotatedAtoms>
  150.7021  134.1326  159.4074 H   0  0  0  0  0  0  0  0  0  0  0  0  # atno 6907 bound_to 6896
  151.9311  135.0253  160.0538 H   0  0  0  0  0  0  0  0  0  0  0  0  # atno 6908 bound_to 6896
  152.2175  133.4922  159.5180 H   0  0  0  0  0  0  0  0  0  0  0  0  # atno 6909 bound_to 6896
  145.8386  139.3181  143.0945 H   0  0  0  0  0  0  0  0  0  0  0  0  # atno 7974 bound_to 7965
  155.5831  140.0645  157.2778 H   0  0  0  0  0  0  0  0  0  0  0  0  # atno 8008 bound_to 7997
  154.4327  140.1848  156.1043 H   0  0  0  0  0  0  0  0  0  0  0  0  # atno 8009 bound_to 7997
  156.0290  140.3308  155.7123 H   0  0  0  0  0  0  0  0  0  0  0  0  # atno 8010 bound_to 7997
  140.6963  143.6307  150.8525 H   0  0  0  0  0  0  0  0  0  0  0  0  # atno 10167 bound_to 10162
  157.5386  130.8681  149.8789 H   0  0  0  0  0  0  0  0  0  0  0  0  # atno 10718 bound_to 10713
  154.7394  135.5018  153.9097 H   0  0  0  0  0  0  0  0  0  0  0  0  # atno 10763 bound_to 10752
  153.1028  135.6689  153.9650 H   0  0  0  0  0  0  0  0  0  0  0  0  # atno 10764 bound_to 10752
  153.9431  135.3065  155.3421 H   0  0  0  0  0  0  0  0  0  0  0  0  # atno 10765 bound_to 10752
  141.1518  133.6728  156.6357 H   0  0  0  0  0  0  0  0  0  0  0  0  # atno 11005 bound_to 11000
  145.9491  140.8922  143.0268 LP  0  0  0  0  0  0  0  0  0  0  0  0  # atno 17320 bound_to 7965
  144.6735  140.1655  143.7419 LP  0  0  0  0  0  0  0  0  0  0  0  0  # atno 17321 bound_to 7965
  140.0025  143.5728  152.2870 LP  0  0  0  0  0  0  0  0  0  0  0  0  # atno 17342 bound_to 10162
  139.6423  144.7655  151.2314 LP  0  0  0  0  0  0  0  0  0  0  0  0  # atno 17343 bound_to 10162
  156.0478  130.3724  150.1274 LP  0  0  0  0  0  0  0  0  0  0  0  0  # atno 17370 bound_to 10713
  156.9455  130.9758  151.3508 LP  0  0  0  0  0  0  0  0  0  0  0  0  # atno 17371 bound_to 10713
  140.3432  134.7831  157.4413 LP  0  0  0  0  0  0  0  0  0  0  0  0  # atno 17394 bound_to 11000
  140.0921  134.5587  155.8434 LP  0  0  0  0  0  0  0  0  0  0  0  0  # atno 17395 bound_to 11000

$$$$
