AV-unprocessed.smi:2564|AV-procd|sdf|10066|dock4
  -GOLD-   2272014103D 1   1.00000     0.00000
 Structure written by MMmdl.
 28 29  0  0  0  0  0  0  0  0  1 V2000
  152.0245  145.2203  160.0264 C   0  0  0  0  0  0  0  0  0  0  0  0
  151.8725  144.3042  161.0828 C   0  0  0  0  0  0  0  0  0  0  0  0
  151.2385  143.1194  160.9334 N   0  0  0  0  0  0  0  0  0  0  0  0
  150.7242  142.7804  159.7457 N   0  0  0  0  0  0  0  0  0  0  0  0
  150.8293  143.6178  158.6827 C   0  0  0  0  0  0  0  0  0  0  0  0
  150.2791  143.2378  157.4500 N   0  0  0  0  0  0  0  0  0  0  0  0
  149.8029  141.8789  157.2183 C   0  0  0  0  0  0  0  0  0  0  0  0
  150.5804  141.1645  156.0998 C   0  0  2  0  0  0  0  0  0  0  0  0
  149.6642  140.8179  154.9092 C   0  0  0  0  0  0  0  0  0  0  0  0
  150.4031  140.0684  153.8941 N   0  0  0  0  0  0  0  0  0  0  0  0
  151.0275  138.8764  154.4640 C   0  0  0  0  0  0  0  0  0  0  0  0
  151.9015  139.2578  155.6710 C   0  0  0  0  0  0  0  0  0  0  0  0
  151.1079  139.9499  156.6287 O   0  0  0  0  0  0  0  0  0  0  0  0
  151.4831  144.8623  158.7796 C   0  0  0  0  0  0  0  0  0  0  0  0
  152.5361  146.1607  160.1682 H   0  0  0  0  0  0  0  0  0  0  0  0
  152.2656  144.5239  162.0644 H   0  0  0  0  0  0  0  0  0  0  0  0
  149.9926  143.9568  156.8016 H   0  0  0  0  0  0  0  0  0  0  0  0
  149.8972  141.3184  158.1486 H   0  0  0  0  0  0  0  0  0  0  0  0
  148.7376  141.9009  156.9855 H   0  0  0  0  0  0  0  0  0  0  0  0
  151.3960  141.8024  155.7536 H   0  0  0  0  0  0  0  0  0  0  0  0
  148.8136  140.2303  155.2569 H   0  0  0  0  0  0  0  0  0  0  0  0
  149.2565  141.7301  154.4729 H   0  0  0  0  0  0  0  0  0  0  0  0
  149.7735  139.7977  153.1456 H   0  0  0  0  0  0  0  0  0  0  0  0
  150.2588  138.1692  154.7780 H   0  0  0  0  0  0  0  0  0  0  0  0
  151.6296  138.3709  153.7087 H   0  0  0  0  0  0  0  0  0  0  0  0
  152.3111  138.3605  156.1349 H   0  0  0  0  0  0  0  0  0  0  0  0
  152.7489  139.8732  155.3641 H   0  0  0  0  0  0  0  0  0  0  0  0
  151.5658  145.5230  157.9291 H   0  0  0  0  0  0  0  0  0  0  0  0
  1 14  1  0  0  0  0
  1  2  2  0  0  0  0
  1 15  1  0  0  0  0
  2  3  1  0  0  0  0
  2 16  1  0  0  0  0
  3  4  2  0  0  0  0
  4  5  1  0  0  0  0
  5  6  1  0  0  0  0
  5 14  2  0  0  0  0
  6  7  1  0  0  0  0
  6 17  1  0  0  0  0
  7  8  1  0  0  0  0
  7 18  1  0  0  0  0
  7 19  1  0  0  0  0
  8 13  1  0  0  0  0
  8  9  1  0  0  0  0
  8 20  1  0  0  0  0
  9 10  1  0  0  0  0
  9 21  1  0  0  0  0
  9 22  1  0  0  0  0
 10 11  1  0  0  0  0
 10 23  1  0  0  0  0
 11 12  1  0  0  0  0
 11 24  1  0  0  0  0
 11 25  1  0  0  0  0
 12 13  1  0  0  0  0
 12 26  1  0  0  0  0
 12 27  1  0  0  0  0
 14 28  1  0  0  0  0
M  END
> <s_m_source_file>
AV-unprocessed.smi

> <i_m_source_file_index>
2564

> <i_lp_mmshare_version>
43012

> <i_f3d_flags>
0

> <s_epik_input>
W2NIXTFbY0hdW2NIXW5uYzFbTkhdW0NIMl1bQ0BASF0yW0NIMl1bTkhdW0NIMl1bQ0gyXU8y

> <s_epik_cmdline>
J2VwaWtfcHl0aG9uJywgJy1waCcsICc3LjAnLCAnLXRuJywgJzgnLCAnLW1hJywgJzIwMCcsICctbWV0YWxfYmluZGluZycsICctaW1hZScsICc8aW5maWxlLm1hZT4nLCAnLW9tYWUnLCAnPG91dGZpbGUubWFlPic=

> <r_lp_tautomer_probability>
0.999978

> <r_epik_Ionization_Penalty>
2.48194

> <r_epik_Ionization_Penalty_Charging>
0

> <r_epik_Ionization_Penalty_Neutral>
2.48194

> <r_epik_State_Penalty>
2.63388

> <r_epik_Charging_Adjusted_Penalty>
2.63388

> <i_epik_Tot_Q>
0

> <i_epik_Tot_abs_Q>
0

> <r_epik_Metal_State_Penalty>
2.61931

> <b_epik_Metal_Only>
0

> <s_lp_Force_Field>
OPLS_2005

> <r_lp_Energy>
19.9467

> <b_lp_Chiralities_Consistent>
1

> <s_lp_Variant>
AV-unprocessed.smi:2564-5

> <Gold.Version>
5.8.1

> <Gold.Id.Protein>
6NUR|6NUR_protein|mol2

> <Gold.PLP.Fitness>
40.3667

> <Gold.PLP.PLP>
-33.7393

> <Gold.PLP.part.hbond>
-4.7408

> <Gold.PLP.part.metal>
0.0000

> <Gold.PLP.part.buried>
-3.6432

> <Gold.PLP.part.nonpolar>
-25.0782

> <Gold.PLP.part.repulsive>
0.1387

> <Gold.PLP.ligand.clash>
0.0000

> <Gold.PLP.ligand.torsion>
0.7711

> <Gold.PLP.Chemscore.Hbond>
2.7224

> <Gold.PLP.Chemscore.CHOScore>
0.0000

> <Gold.PLP.Chemscore.Metal>
0.0000

> <Gold.Chemscore.Hbonds>
donor molecule, donor type, donor heavy atom, donor atom, acceptor molecule, acceptor atom, score
      L1  H     6    17       P1  8028  1.00
      L1  H    10    23       P1  7957  0.77
      P1  H  6933  6945       L1     3  0.10
      P1  H  7989  7998       L1    10  0.92

> <Gold.PLP.Chemscore.Internal.Correction>
0.0023

> <Gold.Rescore>
     Score         DG    S(hbond)    S(metal)    S(lipo)     H(rot)  DE(clash)    DE(int)     intcor
     14.98     -15.83       1.54        0.00      72.98       1.30       0.05       0.80       ----

> <Gold.Chemscore.Fitness>
14.9789

> <Gold.Chemscore.DG>
-15.8305

> <Gold.Chemscore.ZeroCoef>
-5.4800

> <Gold.Chemscore.Hbond>
1.5394

> <Gold.Chemscore.Metal>
0.0000

> <Gold.Chemscore.Lipo>
72.9772

> <Gold.Chemscore.Internal_Hbond>
0.0000

> <Gold.Chemscore.DEClash>
0.0509

> <Gold.Chemscore.DEInternal>
0.8007

> <Gold.Chemscore.Rot>
1.3006

> <Gold.Chemscore.Internal.Correction>
   9.000000E+99

> <Gold.Chemscore.Hbonds>
donor molecule, donor type, donor heavy atom, donor atom, acceptor molecule, acceptor atom, score
      L1  H     6    17       P1  8028  0.97
      L1  H    10    23       P1  7957  0.73
      P1  H  6933  6945       L1     3  0.02
      P1  H  7989  7998       L1    10  0.18

> <Gold.Chemscore.Hbond.Weighted>
-5.1417

> <Gold.Chemscore.Metal.Weighted>
-0.0000

> <Gold.Chemscore.Lipo.Weighted>
-8.5383

> <Gold.Chemscore.Internal_Hbond.Weighted>
0.0000

> <Gold.Chemscore.DEClash.Weighted>
0.0509

> <Gold.Chemscore.DEInternal.Weighted>
0.8007

> <Gold.Chemscore.Rot.Weighted>
3.3296

> <Gold.Chemscore.Internal.Correction.Weighted>
   9.000000E+99

> <Gold.Protein.RotatedTorsions>
[ 6907 6896 6895 6894 ] final  111.91 input  -60.11 | X-H torsion
[ 7974 7965 7964 7962 ] final  -96.17 input  175.53 | X-H torsion
[ 8008 7997 7996 7995 ] final  110.03 input   59.86 | X-H torsion
[ 10167 10162 10161 10158 ] final  -25.33 input  -65.29 | X-H torsion
[ 10718 10713 10712 10709 ] final  114.00 input   66.30 | X-H torsion
[ 10763 10752 10751 10750 ] final -103.97 input  -60.55 | X-H torsion
[ 11005 11000 10999 10996 ] final    8.20 input  -57.11 | X-H torsion

> <Gold.Protein.ActiveResidues>
 VAL166  LYS551  ARG553  GLY616  TRP617  ASP618  TYR619  PRO620  LYS621  CYS622 
 ASP623  PHE694  ASN695  SER759  ASP760  ASP761  ALA762  ILE779  LEU786  VAL792 
 PHE793  MET794  SER795  GLU796  ALA797  LYS798  CYS799  TRP800  GLU811  SER814 

> <Gold.Protein.RotatedAtoms>
  152.4944  133.8590  159.7240 H   0  0  0  0  0  0  0  0  0  0  0  0  # atno 6907 bound_to 6896
  150.9107  133.6992  159.2862 H   0  0  0  0  0  0  0  0  0  0  0  0  # atno 6908 bound_to 6896
  151.4402  135.1023  159.9720 H   0  0  0  0  0  0  0  0  0  0  0  0  # atno 6909 bound_to 6896
  145.3504  140.9475  143.2557 H   0  0  0  0  0  0  0  0  0  0  0  0  # atno 7974 bound_to 7965
  156.2023  140.3046  155.9553 H   0  0  0  0  0  0  0  0  0  0  0  0  # atno 8008 bound_to 7997
  155.2924  140.0442  157.3041 H   0  0  0  0  0  0  0  0  0  0  0  0  # atno 8009 bound_to 7997
  154.5587  140.2313  155.8378 H   0  0  0  0  0  0  0  0  0  0  0  0  # atno 8010 bound_to 7997
  140.7286  143.4274  151.0855 H   0  0  0  0  0  0  0  0  0  0  0  0  # atno 10167 bound_to 10162
  157.6306  131.0992  150.7122 H   0  0  0  0  0  0  0  0  0  0  0  0  # atno 10718 bound_to 10713
  154.7846  135.4803  153.9917 H   0  0  0  0  0  0  0  0  0  0  0  0  # atno 10763 bound_to 10752
  153.1541  135.6796  153.8845 H   0  0  0  0  0  0  0  0  0  0  0  0  # atno 10764 bound_to 10752
  153.8480  135.3171  155.3409 H   0  0  0  0  0  0  0  0  0  0  0  0  # atno 10765 bound_to 10752
  140.5397  134.0387  155.7900 H   0  0  0  0  0  0  0  0  0  0  0  0  # atno 11005 bound_to 11000
  144.8722  139.5022  143.6762 LP  0  0  0  0  0  0  0  0  0  0  0  0  # atno 17320 bound_to 7965
  146.2970  139.7309  142.9119 LP  0  0  0  0  0  0  0  0  0  0  0  0  # atno 17321 bound_to 7965
  139.7927  143.8195  152.3154 LP  0  0  0  0  0  0  0  0  0  0  0  0  # atno 17342 bound_to 10162
  139.8185  144.7306  150.9604 LP  0  0  0  0  0  0  0  0  0  0  0  0  # atno 17343 bound_to 10162
  156.7462  130.4754  149.5466 LP  0  0  0  0  0  0  0  0  0  0  0  0  # atno 17370 bound_to 10713
  156.1508  130.6308  151.0592 LP  0  0  0  0  0  0  0  0  0  0  0  0  # atno 17371 bound_to 10713
  141.1234  133.9423  157.2683 LP  0  0  0  0  0  0  0  0  0  0  0  0  # atno 17394 bound_to 11000
  139.9511  135.0175  156.8995 LP  0  0  0  0  0  0  0  0  0  0  0  0  # atno 17395 bound_to 11000

$$$$
