AV-unprocessed.smi:1194|AV-procd|sdf|4993|dock2
  -GOLD-   22720 3593D 1   1.00000     0.00000
 Structure written by MMmdl.
 48 49  0  0  0  0  0  0  0  0  2 V2000
  152.8038  143.2612  160.4241 C   0  0  0  0  0  0  0  0  0  0  0  0
  153.0599  142.1564  159.3929 C   0  0  0  0  0  0  0  0  0  0  0  0
  151.8314  141.8874  158.5025 C   0  0  0  0  0  0  0  0  0  0  0  0
  151.8908  140.5526  157.7364 C   0  0  0  0  0  0  0  0  0  0  0  0
  152.9188  139.8775  157.8124 O   0  0  0  0  0  0  0  0  0  0  0  0
  150.8113  140.1498  157.0146 N   0  0  0  0  0  0  0  0  0  0  0  0
  149.5824  140.9535  156.8460 C   0  0  0  0  0  0  0  0  0  0  0  0
  149.4413  141.3810  155.3746 C   0  0  0  0  0  0  0  0  0  0  0  0
  149.4767  140.1616  154.4382 C   0  0  0  0  0  0  0  0  0  0  0  0
  150.7196  139.2978  154.7170 C   0  0  0  0  0  0  0  0  0  0  0  0
  150.8335  138.9034  156.2105 C   0  0  2  0  0  0  0  0  0  0  0  0
  149.8109  137.8417  156.6709 C   0  0  0  0  0  0  0  0  0  0  0  0
  148.9236  137.4597  155.9076 O   0  0  0  0  0  0  0  0  0  0  0  0
  149.9449  137.3613  157.9173 N   0  0  0  0  0  0  0  0  0  0  0  0
  149.0744  136.3587  158.5122 C   0  0  0  0  0  0  0  0  0  0  0  0
  148.0469  137.0190  159.4403 C   0  0  0  0  0  0  0  0  0  0  0  0
  147.6505  136.1108  160.5880 C   0  0  0  0  0  0  0  0  0  0  0  0
  147.7372  136.5627  161.9235 C   0  0  0  0  0  0  0  0  0  0  0  0
  147.3697  135.6943  162.9727 C   0  0  0  0  0  0  0  0  0  0  0  0
  146.9245  134.3931  162.6623 C   0  0  0  0  0  0  0  0  0  0  0  0
  146.8553  133.9956  161.3726 N   0  3  0  0  0  0  0  0  0  0  0  0
  147.1978  134.7967  160.3398 C   0  0  0  0  0  0  0  0  0  0  0  0
  153.6899  143.4347  161.0351 H   0  0  0  0  0  0  0  0  0  0  0  0
  151.9857  142.9932  161.0932 H   0  0  0  0  0  0  0  0  0  0  0  0
  152.5458  144.2023  159.9377 H   0  0  0  0  0  0  0  0  0  0  0  0
  153.9122  142.4407  158.7741 H   0  0  0  0  0  0  0  0  0  0  0  0
  153.3469  141.2438  159.9174 H   0  0  0  0  0  0  0  0  0  0  0  0
  150.9372  141.8920  159.1271 H   0  0  0  0  0  0  0  0  0  0  0  0
  151.7327  142.7007  157.7822 H   0  0  0  0  0  0  0  0  0  0  0  0
  148.7144  140.3618  157.1367 H   0  0  0  0  0  0  0  0  0  0  0  0
  149.5346  141.8386  157.4769 H   0  0  0  0  0  0  0  0  0  0  0  0
  148.5123  141.9335  155.2319 H   0  0  0  0  0  0  0  0  0  0  0  0
  150.2513  142.0642  155.1155 H   0  0  0  0  0  0  0  0  0  0  0  0
  148.5732  139.5669  154.5774 H   0  0  0  0  0  0  0  0  0  0  0  0
  149.4732  140.4876  153.3978 H   0  0  0  0  0  0  0  0  0  0  0  0
  150.7094  138.4128  154.0796 H   0  0  0  0  0  0  0  0  0  0  0  0
  151.6112  139.8570  154.4296 H   0  0  0  0  0  0  0  0  0  0  0  0
  151.7911  138.3904  156.3059 H   0  0  0  0  0  0  0  0  0  0  0  0
  150.7016  137.7148  158.4850 H   0  0  0  0  0  0  0  0  0  0  0  0
  148.5670  135.8073  157.7190 H   0  0  0  0  0  0  0  0  0  0  0  0
  149.6778  135.6414  159.0712 H   0  0  0  0  0  0  0  0  0  0  0  0
  148.4517  137.9470  159.8466 H   0  0  0  0  0  0  0  0  0  0  0  0
  147.1539  137.2929  158.8767 H   0  0  0  0  0  0  0  0  0  0  0  0
  148.0838  137.5622  162.1430 H   0  0  0  0  0  0  0  0  0  0  0  0
  147.4302  136.0216  164.0004 H   0  0  0  0  0  0  0  0  0  0  0  0
  146.6248  133.6636  163.4008 H   0  0  0  0  0  0  0  0  0  0  0  0
  147.1021  134.3641  159.3545 H   0  0  0  0  0  0  0  0  0  0  0  0
  146.5313  133.0493  161.1701 H   0  0  0  0  0  0  0  0  0  0  0  0
  1  2  1  0  0  0  0
  1 23  1  0  0  0  0
  1 24  1  0  0  0  0
  1 25  1  0  0  0  0
  2  3  1  0  0  0  0
  2 26  1  0  0  0  0
  2 27  1  0  0  0  0
  3  4  1  0  0  0  0
  3 28  1  0  0  0  0
  3 29  1  0  0  0  0
  4  5  2  0  0  0  0
  4  6  1  0  0  0  0
  6 11  1  0  0  0  0
  6  7  1  0  0  0  0
  7  8  1  0  0  0  0
  7 30  1  0  0  0  0
  7 31  1  0  0  0  0
  8  9  1  0  0  0  0
  8 32  1  0  0  0  0
  8 33  1  0  0  0  0
  9 10  1  0  0  0  0
  9 34  1  0  0  0  0
  9 35  1  0  0  0  0
 10 11  1  0  0  0  0
 10 36  1  0  0  0  0
 10 37  1  0  0  0  0
 11 12  1  0  0  0  0
 11 38  1  0  0  0  0
 12 13  2  0  0  0  0
 12 14  1  0  0  0  0
 14 15  1  0  0  0  0
 14 39  1  0  0  0  0
 15 16  1  0  0  0  0
 15 40  1  0  0  0  0
 15 41  1  0  0  0  0
 16 17  1  0  0  0  0
 16 42  1  0  0  0  0
 16 43  1  0  0  0  0
 17 22  1  0  0  0  0
 17 18  2  0  0  0  0
 18 19  1  0  0  0  0
 18 44  1  0  0  0  0
 19 20  2  0  0  0  0
 19 45  1  0  0  0  0
 20 21  1  0  0  0  0
 20 46  1  0  0  0  0
 21 22  2  0  0  0  0
 21 48  1  0  0  0  0
 22 47  1  0  0  0  0
M  CHG  1  21   1
M  END
> <s_m_source_file>
AV-unprocessed.smi

> <i_m_source_file_index>
1194

> <i_lp_mmshare_version>
43012

> <i_f3d_flags>
0

> <s_epik_input>
W0NIM11bQ0gyXVtDSDJdQyg9TylOMVtDSDJdW0NIMl1bQ0gyXVtDSDJdW0NASF0xQyg9TylbTkhdW0NIMl1bQ0gyXWMyW2NIXVtjSF1bY0hdbltjSF0y

> <s_epik_cmdline>
J2VwaWtfcHl0aG9uJywgJy1waCcsICc3LjAnLCAnLXRuJywgJzgnLCAnLW1hJywgJzIwMCcsICctbWV0YWxfYmluZGluZycsICctaW1hZScsICc8aW5maWxlLm1hZT4nLCAnLW9tYWUnLCAnPG91dGZpbGUubWFlPic=

> <r_epik_Ionization_Penalty>
2.26523

> <r_epik_Ionization_Penalty_Charging>
2.26523

> <r_epik_Ionization_Penalty_Neutral>
5.33649e-08

> <r_epik_State_Penalty>
2.41338

> <r_epik_Charging_Adjusted_Penalty>
4.67861

> <i_epik_Tot_Q>
1

> <i_epik_Tot_abs_Q>
1

> <r_epik_Metal_State_Penalty>
2.42628

> <b_epik_Metal_Only>
0

> <s_lp_Force_Field>
OPLS_2005

> <r_lp_Energy>
33.0292

> <b_lp_Chiralities_Consistent>
1

> <s_lp_Variant>
AV-unprocessed.smi:1194-4

> <Gold.Version>
5.8.1

> <Gold.Id.Protein>
6NUR|6NUR_protein|mol2

> <Gold.PLP.Fitness>
44.4815

> <Gold.PLP.PLP>
-42.3592

> <Gold.PLP.part.hbond>
-1.0000

> <Gold.PLP.part.metal>
0.0000

> <Gold.PLP.part.buried>
-3.6260

> <Gold.PLP.part.nonpolar>
-37.6311

> <Gold.PLP.part.repulsive>
0.1376

> <Gold.PLP.ligand.clash>
0.0000

> <Gold.PLP.ligand.torsion>
0.5175

> <Gold.PLP.Chemscore.Hbond>
1.0000

> <Gold.PLP.Chemscore.CHOScore>
0.0000

> <Gold.PLP.Chemscore.Metal>
0.0000

> <Gold.Chemscore.Hbonds>
donor molecule, donor type, donor heavy atom, donor atom, acceptor molecule, acceptor atom, score
      P1  H  7997  8009       L1     5  1.00

> <Gold.PLP.Chemscore.Internal.Correction>
0.1573

> <Gold.Rescore>
     Score         DG    S(hbond)    S(metal)    S(lipo)     H(rot)  DE(clash)    DE(int)     intcor
     16.63     -17.14       0.99        0.00     110.64       1.80       0.00       0.51       ----

> <Gold.Chemscore.Fitness>
16.6267

> <Gold.Chemscore.DG>
-17.1384

> <Gold.Chemscore.ZeroCoef>
-5.4800

> <Gold.Chemscore.Hbond>
0.9935

> <Gold.Chemscore.Metal>
0.0000

> <Gold.Chemscore.Lipo>
110.6354

> <Gold.Chemscore.Internal_Hbond>
0.0000

> <Gold.Chemscore.DEClash>
0.0034

> <Gold.Chemscore.DEInternal>
0.5082

> <Gold.Chemscore.Rot>
1.7985

> <Gold.Chemscore.Internal.Correction>
   9.000000E+99

> <Gold.Chemscore.Hbonds>
donor molecule, donor type, donor heavy atom, donor atom, acceptor molecule, acceptor atom, score
      P1  H  7997  8009       L1     5  0.99

> <Gold.Chemscore.Hbond.Weighted>
-3.3181

> <Gold.Chemscore.Metal.Weighted>
-0.0000

> <Gold.Chemscore.Lipo.Weighted>
-12.9443

> <Gold.Chemscore.Internal_Hbond.Weighted>
0.0000

> <Gold.Chemscore.DEClash.Weighted>
0.0034

> <Gold.Chemscore.DEInternal.Weighted>
0.5082

> <Gold.Chemscore.Rot.Weighted>
4.6041

> <Gold.Chemscore.Internal.Correction.Weighted>
   9.000000E+99

> <Gold.Protein.RotatedTorsions>
[ 6907 6896 6895 6894 ] final   75.44 input  -60.11 | X-H torsion
[ 7974 7965 7964 7962 ] final  127.24 input  175.53 | X-H torsion
[ 8008 7997 7996 7995 ] final  159.77 input   59.86 | X-H torsion
[ 10167 10162 10161 10158 ] final  -14.28 input  -65.29 | X-H torsion
[ 10718 10713 10712 10709 ] final   96.96 input   66.30 | X-H torsion
[ 10763 10752 10751 10750 ] final -136.32 input  -60.55 | X-H torsion
[ 11005 11000 10999 10996 ] final   84.98 input  -57.11 | X-H torsion

> <Gold.Protein.ActiveResidues>
 VAL166  LYS551  ARG553  GLY616  TRP617  ASP618  TYR619  PRO620  LYS621  CYS622 
 ASP623  PHE694  ASN695  SER759  ASP760  ASP761  ALA762  ILE779  LEU786  VAL792 
 PHE793  MET794  SER795  GLU796  ALA797  LYS798  CYS799  TRP800  GLU811  SER814 

> <Gold.Protein.RotatedAtoms>
  152.5026  134.4120  159.9451 H   0  0  0  0  0  0  0  0  0  0  0  0  # atno 6907 bound_to 6896
  151.4088  133.3728  159.2749 H   0  0  0  0  0  0  0  0  0  0  0  0  # atno 6908 bound_to 6896
  150.9307  134.8743  159.7608 H   0  0  0  0  0  0  0  0  0  0  0  0  # atno 6909 bound_to 6896
  145.0528  139.3869  143.5045 H   0  0  0  0  0  0  0  0  0  0  0  0  # atno 7974 bound_to 7965
  156.2217  140.1822  156.7461 H   0  0  0  0  0  0  0  0  0  0  0  0  # atno 8008 bound_to 7997
  154.5876  140.0656  156.9222 H   0  0  0  0  0  0  0  0  0  0  0  0  # atno 8009 bound_to 7997
  155.2393  140.3320  155.4296 H   0  0  0  0  0  0  0  0  0  0  0  0  # atno 8010 bound_to 7997
  140.7198  143.5338  150.9489 H   0  0  0  0  0  0  0  0  0  0  0  0  # atno 10167 bound_to 10162
  157.6919  131.0594  150.4571 H   0  0  0  0  0  0  0  0  0  0  0  0  # atno 10718 bound_to 10713
  154.8686  135.3676  154.5041 H   0  0  0  0  0  0  0  0  0  0  0  0  # atno 10763 bound_to 10752
  153.5680  135.7021  153.5522 H   0  0  0  0  0  0  0  0  0  0  0  0  # atno 10764 bound_to 10752
  153.3568  135.4057  155.1651 H   0  0  0  0  0  0  0  0  0  0  0  0  # atno 10765 bound_to 10752
  139.8984  134.8255  156.2519 H   0  0  0  0  0  0  0  0  0  0  0  0  # atno 11005 bound_to 11000
  146.3519  140.0187  142.8660 LP  0  0  0  0  0  0  0  0  0  0  0  0  # atno 17320 bound_to 7965
  145.1506  140.9620  143.4435 LP  0  0  0  0  0  0  0  0  0  0  0  0  # atno 17321 bound_to 7965
  139.9059  143.6779  152.3123 LP  0  0  0  0  0  0  0  0  0  0  0  0  # atno 17342 bound_to 10162
  139.7145  144.7614  151.1057 LP  0  0  0  0  0  0  0  0  0  0  0  0  # atno 17343 bound_to 10162
  156.4918  130.4097  149.6402 LP  0  0  0  0  0  0  0  0  0  0  0  0  # atno 17370 bound_to 10713
  156.3410  130.7382  151.2327 LP  0  0  0  0  0  0  0  0  0  0  0  0  # atno 17371 bound_to 10713
  141.0218  133.7037  156.1281 LP  0  0  0  0  0  0  0  0  0  0  0  0  # atno 17394 bound_to 11000
  140.7223  134.4345  157.5574 LP  0  0  0  0  0  0  0  0  0  0  0  0  # atno 17395 bound_to 11000

$$$$
