AV-unprocessed.smi:1195|AV-procd|sdf|4995|dock4
  -GOLD-   22720 4 03D 1   1.00000     0.00000
 Structure written by MMmdl.
 39 40  0  0  0  0  0  0  0  0  1 V2000
  145.2945  138.2340  151.8487 N   0  0  0  0  0  0  0  0  0  0  0  0
  146.5353  138.6673  151.6136 C   0  0  0  0  0  0  0  0  0  0  0  0
  147.4284  137.9088  151.2383 O   0  0  0  0  0  0  0  0  0  0  0  0
  146.7882  140.1645  151.8359 C   0  0  0  0  0  0  0  0  0  0  0  0
  147.6493  140.4289  152.9773 N   0  0  0  0  0  0  0  0  0  0  0  0
  147.9337  141.6452  153.5669 C   0  0  0  0  0  0  0  0  0  0  0  0
  148.7823  141.3660  154.6005 C   0  0  0  0  0  0  0  0  0  0  0  0
  149.3790  142.2476  155.5370 N   0  0  0  0  0  0  0  0  0  0  0  0
  150.3803  141.9737  156.3893 C   0  0  0  0  0  0  0  0  0  0  0  0
  150.9406  140.8825  156.4951 O   0  0  0  0  0  0  0  0  0  0  0  0
  150.7017  143.0472  157.1255 N   0  0  0  0  0  0  0  0  0  0  0  0
  151.7426  143.0844  158.1482 C   0  0  2  0  0  0  0  0  0  0  0  0
  151.6783  141.8035  158.9994 C   0  0  0  0  0  0  0  0  0  0  0  0
  152.7325  141.8168  160.1206 C   0  0  0  0  0  0  0  0  0  0  0  0
  152.6339  143.0769  161.0014 C   0  0  2  0  0  0  0  0  0  0  0  0
  151.4617  143.0263  161.7906 O   0  0  0  0  0  0  0  0  0  0  0  0
  152.6448  144.3636  160.1548 C   0  0  0  0  0  0  0  0  0  0  0  0
  151.5891  144.3356  159.0358 C   0  0  0  0  0  0  0  0  0  0  0  0
  148.9693  139.9595  154.5789 C   0  0  0  0  0  0  0  0  0  0  0  0
  148.2844  139.4000  153.5930 N   0  0  0  0  0  0  0  0  0  0  0  0
  145.0730  137.2576  151.7171 H   0  0  0  0  0  0  0  0  0  0  0  0
  144.5826  138.8807  152.1553 H   0  0  0  0  0  0  0  0  0  0  0  0
  147.2368  140.5952  150.9393 H   0  0  0  0  0  0  0  0  0  0  0  0
  145.8379  140.6750  151.9969 H   0  0  0  0  0  0  0  0  0  0  0  0
  147.5105  142.5702  153.2044 H   0  0  0  0  0  0  0  0  0  0  0  0
  149.0020  143.1838  155.5621 H   0  0  0  0  0  0  0  0  0  0  0  0
  150.1902  143.9032  156.9676 H   0  0  0  0  0  0  0  0  0  0  0  0
  152.7179  143.1158  157.6586 H   0  0  0  0  0  0  0  0  0  0  0  0
  150.6842  141.6989  159.4365 H   0  0  0  0  0  0  0  0  0  0  0  0
  151.8294  140.9273  158.3678 H   0  0  0  0  0  0  0  0  0  0  0  0
  152.6393  140.9189  160.7328 H   0  0  0  0  0  0  0  0  0  0  0  0
  153.7256  141.7750  159.6714 H   0  0  0  0  0  0  0  0  0  0  0  0
  153.4793  143.0961  161.6898 H   0  0  0  0  0  0  0  0  0  0  0  0
  151.5385  143.6638  162.4840 H   0  0  0  0  0  0  0  0  0  0  0  0
  152.4947  145.2371  160.7904 H   0  0  0  0  0  0  0  0  0  0  0  0
  153.6306  144.4831  159.7037 H   0  0  0  0  0  0  0  0  0  0  0  0
  151.6777  145.2396  158.4323 H   0  0  0  0  0  0  0  0  0  0  0  0
  150.5905  144.3575  159.4745 H   0  0  0  0  0  0  0  0  0  0  0  0
  149.5670  139.3389  155.2301 H   0  0  0  0  0  0  0  0  0  0  0  0
  1  2  1  0  0  0  0
  1 21  1  0  0  0  0
  1 22  1  0  0  0  0
  2  3  2  0  0  0  0
  2  4  1  0  0  0  0
  4  5  1  0  0  0  0
  4 23  1  0  0  0  0
  4 24  1  0  0  0  0
  5 20  1  0  0  0  0
  5  6  1  0  0  0  0
  6  7  2  0  0  0  0
  6 25  1  0  0  0  0
  7  8  1  0  0  0  0
  7 19  1  0  0  0  0
  8  9  1  0  0  0  0
  8 26  1  0  0  0  0
  9 10  2  0  0  0  0
  9 11  1  0  0  0  0
 11 12  1  0  0  0  0
 11 27  1  0  0  0  0
 12 18  1  0  0  0  0
 12 13  1  0  0  0  0
 12 28  1  0  0  0  0
 13 14  1  0  0  0  0
 13 29  1  0  0  0  0
 13 30  1  0  0  0  0
 14 15  1  0  0  0  0
 14 31  1  0  0  0  0
 14 32  1  0  0  0  0
 15 16  1  0  0  0  0
 15 17  1  0  0  0  0
 15 33  1  0  0  0  0
 16 34  1  0  0  0  0
 17 18  1  0  0  0  0
 17 35  1  0  0  0  0
 17 36  1  0  0  0  0
 18 37  1  0  0  0  0
 18 38  1  0  0  0  0
 19 20  2  0  0  0  0
 19 39  1  0  0  0  0
M  END
> <s_m_source_file>
AV-unprocessed.smi

> <i_m_source_file_index>
1195

> <i_lp_mmshare_version>
43012

> <i_f3d_flags>
0

> <s_epik_input>
W05IMl1DKD1PKVtDSDJdbjFbY0hdYyhbY0hdbjEpW05IXUMoPU8pW05IXVtDQEBIXTJbQ0gyXVtDSDJdW0NAQEhdKFtPSF0pW0NIMl1bQ0gyXTI=

> <s_epik_cmdline>
J2VwaWtfcHl0aG9uJywgJy1waCcsICc3LjAnLCAnLXRuJywgJzgnLCAnLW1hJywgJzIwMCcsICctbWV0YWxfYmluZGluZycsICctaW1hZScsICc8aW5maWxlLm1hZT4nLCAnLW9tYWUnLCAnPG91dGZpbGUubWFlPic=

> <r_lp_tautomer_probability>
1

> <r_epik_Ionization_Penalty>
4.75851e-05

> <r_epik_Ionization_Penalty_Charging>
0

> <r_epik_Ionization_Penalty_Neutral>
4.75851e-05

> <r_epik_State_Penalty>
-0

> <r_epik_Charging_Adjusted_Penalty>
0

> <i_epik_Tot_Q>
0

> <i_epik_Tot_abs_Q>
0

> <r_epik_Metal_State_Penalty>
-0

> <b_epik_Metal_Only>
0

> <s_lp_Force_Field>
OPLS_2005

> <r_lp_Energy>
14.5792

> <b_lp_Chiralities_Consistent>
1

> <s_lp_Variant>
AV-unprocessed.smi:1195-2

> <Gold.Version>
5.8.1

> <Gold.Id.Protein>
6NUR|6NUR_protein|mol2

> <Gold.PLP.Fitness>
50.1394

> <Gold.PLP.PLP>
-37.5389

> <Gold.PLP.part.hbond>
-7.0000

> <Gold.PLP.part.metal>
0.0000

> <Gold.PLP.part.buried>
-2.2170

> <Gold.PLP.part.nonpolar>
-36.0380

> <Gold.PLP.part.repulsive>
6.6915

> <Gold.PLP.ligand.clash>
0.0000

> <Gold.PLP.ligand.torsion>
0.4044

> <Gold.PLP.Chemscore.Hbond>
4.4640

> <Gold.PLP.Chemscore.CHOScore>
0.0000

> <Gold.PLP.Chemscore.Metal>
0.0000

> <Gold.Chemscore.Hbonds>
donor molecule, donor type, donor heavy atom, donor atom, acceptor molecule, acceptor atom, score
      L1  H     1    22       P1 10175  1.00
      L1  H     8    26       P1  8028  1.00
      L1  H    11    27       P1  8028  0.83
      P1  H  6933  6945       L1    16  0.62
      P1  H  7954  7966       L1     3  0.99

> <Gold.PLP.Chemscore.Internal.Correction>
0.0173

> <Gold.Rescore>
     Score         DG    S(hbond)    S(metal)    S(lipo)     H(rot)  DE(clash)    DE(int)     intcor
     15.70     -23.27       4.00        0.00      95.16       2.62       4.31       3.26       ----

> <Gold.Chemscore.Fitness>
15.6975

> <Gold.Chemscore.DG>
-23.2730

> <Gold.Chemscore.ZeroCoef>
-5.4800

> <Gold.Chemscore.Hbond>
4.0028

> <Gold.Chemscore.Metal>
0.0000

> <Gold.Chemscore.Lipo>
95.1614

> <Gold.Chemscore.Internal_Hbond>
0.0000

> <Gold.Chemscore.DEClash>
4.3123

> <Gold.Chemscore.DEInternal>
3.2631

> <Gold.Chemscore.Rot>
2.6212

> <Gold.Chemscore.Internal.Correction>
   9.000000E+99

> <Gold.Chemscore.Hbonds>
donor molecule, donor type, donor heavy atom, donor atom, acceptor molecule, acceptor atom, score
      L1  H     1    22       P1 10175  1.00
      L1  H     8    26       P1  8028  0.94
      L1  H    11    27       P1  8028  0.79
      P1  H  6933  6945       L1    16  0.43
      P1  H  7954  7966       L1     3  0.93

> <Gold.Chemscore.Hbond.Weighted>
-13.3694

> <Gold.Chemscore.Metal.Weighted>
-0.0000

> <Gold.Chemscore.Lipo.Weighted>
-11.1339

> <Gold.Chemscore.Internal_Hbond.Weighted>
0.0000

> <Gold.Chemscore.DEClash.Weighted>
4.3123

> <Gold.Chemscore.DEInternal.Weighted>
3.2631

> <Gold.Chemscore.Rot.Weighted>
6.7103

> <Gold.Chemscore.Internal.Correction.Weighted>
   9.000000E+99

> <Gold.Protein.RotatedTorsions>
[ 6907 6896 6895 6894 ] final  168.71 input  -60.11 | X-H torsion
[ 7974 7965 7964 7962 ] final -173.63 input  175.53 | X-H torsion
[ 8008 7997 7996 7995 ] final  126.87 input   59.86 | X-H torsion
[ 10167 10162 10161 10158 ] final  172.99 input  -65.29 | X-H torsion
[ 10718 10713 10712 10709 ] final  -34.49 input   66.30 | X-H torsion
[ 10763 10752 10751 10750 ] final  -86.85 input  -60.55 | X-H torsion
[ 11005 11000 10999 10996 ] final -137.94 input  -57.11 | X-H torsion

> <Gold.Protein.ActiveResidues>
 VAL166  LYS551  ARG553  GLY616  TRP617  ASP618  TYR619  PRO620  LYS621  CYS622 
 ASP623  PHE694  ASN695  SER759  ASP760  ASP761  ALA762  ILE779  LEU786  VAL792 
 PHE793  MET794  SER795  GLU796  ALA797  LYS798  CYS799  TRP800  GLU811  SER814 

> <Gold.Protein.RotatedAtoms>
  151.8434  133.3427  159.3649 H   0  0  0  0  0  0  0  0  0  0  0  0  # atno 6907 bound_to 6896
  150.7228  134.5369  159.5737 H   0  0  0  0  0  0  0  0  0  0  0  0  # atno 6908 bound_to 6896
  152.2848  134.7789  160.0440 H   0  0  0  0  0  0  0  0  0  0  0  0  # atno 6909 bound_to 6896
  144.7136  140.1593  143.6377 H   0  0  0  0  0  0  0  0  0  0  0  0  # atno 7974 bound_to 7965
  156.2876  140.2682  156.2181 H   0  0  0  0  0  0  0  0  0  0  0  0  # atno 8008 bound_to 7997
  155.0195  140.0386  157.2450 H   0  0  0  0  0  0  0  0  0  0  0  0  # atno 8009 bound_to 7997
  154.7448  140.2732  155.6348 H   0  0  0  0  0  0  0  0  0  0  0  0  # atno 8010 bound_to 7997
  139.5094  144.3311  152.0110 H   0  0  0  0  0  0  0  0  0  0  0  0  # atno 10167 bound_to 10162
  156.3500  130.4307  149.7713 H   0  0  0  0  0  0  0  0  0  0  0  0  # atno 10718 bound_to 10713
  154.6271  135.5434  153.7639 H   0  0  0  0  0  0  0  0  0  0  0  0  # atno 10763 bound_to 10752
  153.0266  135.6427  154.1356 H   0  0  0  0  0  0  0  0  0  0  0  0  # atno 10764 bound_to 10752
  154.1287  135.2915  155.3170 H   0  0  0  0  0  0  0  0  0  0  0  0  # atno 10765 bound_to 10752
  140.8663  134.2106  157.4677 H   0  0  0  0  0  0  0  0  0  0  0  0  # atno 11005 bound_to 11000
  145.9045  139.2450  143.1474 LP  0  0  0  0  0  0  0  0  0  0  0  0  # atno 17320 bound_to 7965
  145.9778  140.8708  143.0130 LP  0  0  0  0  0  0  0  0  0  0  0  0  # atno 17321 bound_to 7965
  140.2751  144.3921  150.6138 LP  0  0  0  0  0  0  0  0  0  0  0  0  # atno 17342 bound_to 10162
  140.6060  143.2168  151.6980 LP  0  0  0  0  0  0  0  0  0  0  0  0  # atno 17343 bound_to 10162
  156.4917  130.8088  151.3097 LP  0  0  0  0  0  0  0  0  0  0  0  0  # atno 17370 bound_to 10713
  157.7460  130.9973  150.2812 LP  0  0  0  0  0  0  0  0  0  0  0  0  # atno 17371 bound_to 10713
  139.8709  134.9753  156.4880 LP  0  0  0  0  0  0  0  0  0  0  0  0  # atno 17394 bound_to 11000
  140.8624  133.8049  155.9279 LP  0  0  0  0  0  0  0  0  0  0  0  0  # atno 17395 bound_to 11000

$$$$
