AV-unprocessed.smi:21|AV-procd|sdf|159|dock3
  -GOLD-   2262015393D 1   1.00000     0.00000
 Structure written by MMmdl.
 61 64  0  0  0  0  0  0  0  0  1 V2000
  154.0788  142.1569  162.0582 C   0  0  0  0  0  0  0  0  0  0  0  0
  153.6463  141.2955  161.0178 O   0  0  0  0  0  0  0  0  0  0  0  0
  153.6390  141.9127  159.7380 C   0  0  1  0  0  0  0  0  0  0  0  0
  152.7041  141.1530  158.7844 C   0  0  0  0  0  0  0  0  0  0  0  0
  151.6187  142.1738  158.4047 C   0  0  2  0  0  0  0  0  0  0  0  0
  150.9993  141.9305  157.0107 C   0  0  0  0  0  0  0  0  0  0  0  0
  150.3703  140.6145  156.8951 N   0  0  0  0  0  0  0  0  0  0  0  0
  151.2258  139.4433  156.7560 C   0  0  0  0  0  0  0  0  0  0  0  0
  149.0740  140.5435  156.4921 C   0  0  0  0  0  0  0  0  0  0  0  0
  148.2894  141.6372  156.6787 N   0  0  0  0  0  0  0  0  0  0  0  0
  147.0084  141.6281  156.3008 C   0  0  0  0  0  0  0  0  0  0  0  0
  146.3172  140.6455  155.7225 N   0  0  0  0  0  0  0  0  0  0  0  0
  147.0965  139.5449  155.5244 C   0  0  0  0  0  0  0  0  0  0  0  0
  148.4713  139.4071  155.8735 C   0  0  0  0  0  0  0  0  0  0  0  0
  148.9230  138.1483  155.4901 N   0  0  0  0  0  0  0  0  0  0  0  0
  147.8796  137.5760  154.9563 C   0  0  0  0  0  0  0  0  0  0  0  0
  146.7335  138.3368  154.9553 N   0  0  0  0  0  0  0  0  0  0  0  0
  145.4378  137.9543  154.4230 C   0  0  0  0  0  0  0  0  0  0  0  0
  145.4485  137.5097  152.9337 C   0  0  1  0  0  0  0  0  0  0  0  0
  146.3136  138.5007  152.1173 C   0  0  0  0  0  0  0  0  0  0  0  0
  146.1831  138.2753  150.7287 O   0  0  0  0  0  0  0  0  0  0  0  0
  145.9241  136.0381  152.7394 C   0  0  2  0  0  0  0  0  0  0  0  0
  145.5728  135.4146  151.3958 C   0  0  0  0  0  0  0  0  0  0  0  0
  145.7119  133.9273  151.6812 C   0  0  0  0  0  0  0  0  0  0  0  0
  145.1734  133.7778  152.9839 O   0  0  0  0  0  0  0  0  0  0  0  0
  145.3053  135.0034  153.6980 C   0  0  0  0  0  0  0  0  0  0  0  0
  152.2630  143.4677  158.5637 N   0  0  0  0  0  0  0  0  0  0  0  0
  151.3310  144.5853  158.6347 C   0  0  0  0  0  0  0  0  0  0  0  0
  153.0350  143.3227  159.7822 C   0  0  0  0  0  0  0  0  0  0  0  0
  154.6434  141.9337  159.3110 H   0  0  0  0  0  0  0  0  0  0  0  0
  150.8267  142.0989  159.1523 H   0  0  0  0  0  0  0  0  0  0  0  0
  154.0771  141.6149  163.0038 H   0  0  0  0  0  0  0  0  0  0  0  0
  153.4197  143.0189  162.1663 H   0  0  0  0  0  0  0  0  0  0  0  0
  155.0939  142.5130  161.8783 H   0  0  0  0  0  0  0  0  0  0  0  0
  153.2638  140.8357  157.9034 H   0  0  0  0  0  0  0  0  0  0  0  0
  152.2743  140.2599  159.2399 H   0  0  0  0  0  0  0  0  0  0  0  0
  150.2247  142.6721  156.8169 H   0  0  0  0  0  0  0  0  0  0  0  0
  151.7500  142.0876  156.2359 H   0  0  0  0  0  0  0  0  0  0  0  0
  150.6952  138.5347  157.0425 H   0  0  0  0  0  0  0  0  0  0  0  0
  152.1005  139.5332  157.4002 H   0  0  0  0  0  0  0  0  0  0  0  0
  151.5741  139.3376  155.7285 H   0  0  0  0  0  0  0  0  0  0  0  0
  146.4588  142.5384  156.4896 H   0  0  0  0  0  0  0  0  0  0  0  0
  147.9159  136.5728  154.5572 H   0  0  0  0  0  0  0  0  0  0  0  0
  145.0627  137.1523  155.0591 H   0  0  0  0  0  0  0  0  0  0  0  0
  144.7502  138.7908  154.5543 H   0  0  0  0  0  0  0  0  0  0  0  0
  144.4327  137.5809  152.5429 H   0  0  0  0  0  0  0  0  0  0  0  0
  146.0415  139.5321  152.3433 H   0  0  0  0  0  0  0  0  0  0  0  0
  147.3726  138.3912  152.3462 H   0  0  0  0  0  0  0  0  0  0  0  0
  145.4278  138.7496  150.4168 H   0  0  0  0  0  0  0  0  0  0  0  0
  147.0097  136.0001  152.8444 H   0  0  0  0  0  0  0  0  0  0  0  0
  144.5425  135.6459  151.1213 H   0  0  0  0  0  0  0  0  0  0  0  0
  146.2279  135.7384  150.5866 H   0  0  0  0  0  0  0  0  0  0  0  0
  145.1885  133.3053  150.9551 H   0  0  0  0  0  0  0  0  0  0  0  0
  146.7629  133.6349  151.6925 H   0  0  0  0  0  0  0  0  0  0  0  0
  145.9227  134.8470  154.5816 H   0  0  0  0  0  0  0  0  0  0  0  0
  144.3118  135.3065  154.0293 H   0  0  0  0  0  0  0  0  0  0  0  0
  151.8659  145.5179  158.8157 H   0  0  0  0  0  0  0  0  0  0  0  0
  150.6077  144.4484  159.4394 H   0  0  0  0  0  0  0  0  0  0  0  0
  150.7828  144.6988  157.6998 H   0  0  0  0  0  0  0  0  0  0  0  0
  152.3754  143.4059  160.6480 H   0  0  0  0  0  0  0  0  0  0  0  0
  153.7962  144.0983  159.8708 H   0  0  0  0  0  0  0  0  0  0  0  0
  1  2  1  0  0  0  0
  1 32  1  0  0  0  0
  1 33  1  0  0  0  0
  1 34  1  0  0  0  0
  2  3  1  0  0  0  0
  3 30  1  0  0  0  0
  3 29  1  0  0  0  0
  3  4  1  0  0  0  0
  4  5  1  0  0  0  0
  4 35  1  0  0  0  0
  4 36  1  0  0  0  0
  5 31  1  0  0  0  0
  5  6  1  0  0  0  0
  5 27  1  0  0  0  0
  6  7  1  0  0  0  0
  6 37  1  0  0  0  0
  6 38  1  0  0  0  0
  7  8  1  0  0  0  0
  7  9  1  0  0  0  0
  8 39  1  0  0  0  0
  8 40  1  0  0  0  0
  8 41  1  0  0  0  0
  9 14  1  0  0  0  0
  9 10  2  0  0  0  0
 10 11  1  0  0  0  0
 11 12  2  0  0  0  0
 11 42  1  0  0  0  0
 12 13  1  0  0  0  0
 13 17  1  0  0  0  0
 13 14  2  0  0  0  0
 14 15  1  0  0  0  0
 15 16  2  0  0  0  0
 16 17  1  0  0  0  0
 16 43  1  0  0  0  0
 17 18  1  0  0  0  0
 18 19  1  0  0  0  0
 18 44  1  0  0  0  0
 18 45  1  0  0  0  0
 19 20  1  0  0  0  0
 19 22  1  0  0  0  0
 19 46  1  0  0  0  0
 20 21  1  0  0  0  0
 20 47  1  0  0  0  0
 20 48  1  0  0  0  0
 21 49  1  0  0  0  0
 22 26  1  0  0  0  0
 22 23  1  0  0  0  0
 22 50  1  0  0  0  0
 23 24  1  0  0  0  0
 23 51  1  0  0  0  0
 23 52  1  0  0  0  0
 24 25  1  0  0  0  0
 24 53  1  0  0  0  0
 24 54  1  0  0  0  0
 25 26  1  0  0  0  0
 26 55  1  0  0  0  0
 26 56  1  0  0  0  0
 27 28  1  0  0  0  0
 27 29  1  0  0  0  0
 28 57  1  0  0  0  0
 28 58  1  0  0  0  0
 28 59  1  0  0  0  0
 29 60  1  0  0  0  0
 29 61  1  0  0  0  0
M  END
> <s_m_source_file>
AV-unprocessed.smi

> <i_m_source_file_index>
21

> <i_lp_mmshare_version>
43012

> <i_f3d_flags>
0

> <s_epik_input>
W0NIM11PW0NASF0xW0NIMl1bQ0BIXShOKFtDSDNdKVtDSDJdMSlbQ0gyXU4oW0NIM10pYyhuW2NIXW4yKWMoYzIzKW5bY0hdbjNbQ0gyXVtDQEhdKFtDSDJdW09IXSlbQ0BASF00W0NIMl1bQ0gyXU9bQ0gyXTQ=

> <s_epik_cmdline>
J2VwaWtfcHl0aG9uJywgJy1waCcsICc3LjAnLCAnLXRuJywgJzgnLCAnLW1hJywgJzIwMCcsICctbWV0YWxfYmluZGluZycsICctaW1hZScsICc8aW5maWxlLm1hZT4nLCAnLW9tYWUnLCAnPG91dGZpbGUubWFlPic=

> <r_lp_tautomer_probability>
1

> <r_epik_Ionization_Penalty>
2.17574

> <r_epik_Ionization_Penalty_Charging>
0

> <r_epik_Ionization_Penalty_Neutral>
2.17574

> <r_epik_State_Penalty>
2.31336

> <r_epik_Charging_Adjusted_Penalty>
2.31336

> <i_epik_Tot_Q>
0

> <i_epik_Tot_abs_Q>
0

> <r_epik_Metal_State_Penalty>
2.31025

> <b_epik_Metal_Only>
0

> <s_lp_Force_Field>
OPLS_2005

> <r_lp_Energy>
70.5477

> <b_lp_Chiralities_Consistent>
1

> <s_lp_Variant>
AV-unprocessed.smi:21-39

> <Gold.Version>
5.8.1

> <Gold.Id.Protein>
6NUR|6NUR_protein|mol2

> <Gold.PLP.Fitness>
46.8776

> <Gold.PLP.PLP>
-42.2039

> <Gold.PLP.part.hbond>
-2.1419

> <Gold.PLP.part.metal>
0.0000

> <Gold.PLP.part.buried>
-8.0326

> <Gold.PLP.part.nonpolar>
-32.9813

> <Gold.PLP.part.repulsive>
0.4572

> <Gold.PLP.ligand.clash>
0.0000

> <Gold.PLP.ligand.torsion>
0.7908

> <Gold.PLP.Chemscore.Hbond>
1.8560

> <Gold.PLP.Chemscore.CHOScore>
0.0000

> <Gold.PLP.Chemscore.Metal>
0.0000

> <Gold.Chemscore.Hbonds>
donor molecule, donor type, donor heavy atom, donor atom, acceptor molecule, acceptor atom, score
      L1  H    21    49       P1 10171  0.91
      P1  H  7954  7966       L1    21  0.57
      L1  C    16    43       P1  7948  0.05

> <Gold.PLP.Chemscore.Internal.Correction>
0.6873

> <Gold.Rescore>
     Score         DG    S(hbond)    S(metal)    S(lipo)     H(rot)  DE(clash)    DE(int)     intcor
     13.01     -15.25       1.72        0.00     100.13       3.00       0.02       2.22       ----

> <Gold.Chemscore.Fitness>
13.0088

> <Gold.Chemscore.DG>
-15.2463

> <Gold.Chemscore.ZeroCoef>
-5.4800

> <Gold.Chemscore.Hbond>
1.7183

> <Gold.Chemscore.Metal>
0.0000

> <Gold.Chemscore.Lipo>
100.1283

> <Gold.Chemscore.Internal_Hbond>
0.0000

> <Gold.Chemscore.DEClash>
0.0173

> <Gold.Chemscore.DEInternal>
2.2202

> <Gold.Chemscore.Rot>
3.0031

> <Gold.Chemscore.Internal.Correction>
   9.000000E+99

> <Gold.Chemscore.Hbonds>
donor molecule, donor type, donor heavy atom, donor atom, acceptor molecule, acceptor atom, score
      L1  H    21    49       P1 10171  0.89
      P1  H  7954  7966       L1    21  0.39

> <Gold.Chemscore.Hbond.Weighted>
-5.7392

> <Gold.Chemscore.Metal.Weighted>
-0.0000

> <Gold.Chemscore.Lipo.Weighted>
-11.7150

> <Gold.Chemscore.Internal_Hbond.Weighted>
0.0000

> <Gold.Chemscore.DEClash.Weighted>
0.0173

> <Gold.Chemscore.DEInternal.Weighted>
2.2202

> <Gold.Chemscore.Rot.Weighted>
7.6880

> <Gold.Chemscore.Internal.Correction.Weighted>
   9.000000E+99

> <Gold.Protein.RotatedTorsions>
[ 6907 6896 6895 6894 ] final  177.80 input  -60.11 | X-H torsion
[ 7974 7965 7964 7962 ] final -122.46 input  175.53 | X-H torsion
[ 8008 7997 7996 7995 ] final -120.34 input   59.86 | X-H torsion
[ 10167 10162 10161 10158 ] final   90.79 input  -65.29 | X-H torsion
[ 10718 10713 10712 10709 ] final -147.71 input   66.30 | X-H torsion
[ 10763 10752 10751 10750 ] final -149.77 input  -60.55 | X-H torsion
[ 11005 11000 10999 10996 ] final  -44.84 input  -57.11 | X-H torsion

> <Gold.Protein.ActiveResidues>
 VAL166  LYS551  ARG553  GLY616  TRP617  ASP618  TYR619  PRO620  LYS621  CYS622 
 ASP623  PHE694  ASN695  SER759  ASP760  ASP761  ALA762  ILE779  LEU786  VAL792 
 PHE793  MET794  SER795  GLU796  ALA797  LYS798  CYS799  TRP800  GLU811  SER814 

> <Gold.Protein.RotatedAtoms>
  151.6981  133.3311  159.3259 H   0  0  0  0  0  0  0  0  0  0  0  0  # atno 6907 bound_to 6896
  150.7748  134.6640  159.6364 H   0  0  0  0  0  0  0  0  0  0  0  0  # atno 6908 bound_to 6896
  152.3787  134.6627  160.0203 H   0  0  0  0  0  0  0  0  0  0  0  0  # atno 6909 bound_to 6896
  145.0292  140.8053  143.4334 H   0  0  0  0  0  0  0  0  0  0  0  0  # atno 7974 bound_to 7965
  155.1302  140.0400  157.2773 H   0  0  0  0  0  0  0  0  0  0  0  0  # atno 8008 bound_to 7997
  154.6548  140.2577  155.7147 H   0  0  0  0  0  0  0  0  0  0  0  0  # atno 8009 bound_to 7997
  156.2593  140.2829  156.0997 H   0  0  0  0  0  0  0  0  0  0  0  0  # atno 8010 bound_to 7997
  139.8438  144.6628  150.9251 H   0  0  0  0  0  0  0  0  0  0  0  0  # atno 10167 bound_to 10162
  156.4110  130.7981  151.2199 H   0  0  0  0  0  0  0  0  0  0  0  0  # atno 10718 bound_to 10713
  154.8158  135.3301  154.7180 H   0  0  0  0  0  0  0  0  0  0  0  0  # atno 10763 bound_to 10752
  153.7821  135.6917  153.4891 H   0  0  0  0  0  0  0  0  0  0  0  0  # atno 10764 bound_to 10752
  153.1973  135.4529  155.0171 H   0  0  0  0  0  0  0  0  0  0  0  0  # atno 10765 bound_to 10752
  141.0476  133.6755  156.2929 H   0  0  0  0  0  0  0  0  0  0  0  0  # atno 11005 bound_to 11000
  145.1793  139.2360  143.5301 LP  0  0  0  0  0  0  0  0  0  0  0  0  # atno 17320 bound_to 7965
  146.3496  140.1563  142.8591 LP  0  0  0  0  0  0  0  0  0  0  0  0  # atno 17321 bound_to 7965
  140.7795  143.3888  151.1346 LP  0  0  0  0  0  0  0  0  0  0  0  0  # atno 17342 bound_to 10162
  139.7532  143.8747  152.3082 LP  0  0  0  0  0  0  0  0  0  0  0  0  # atno 17343 bound_to 10162
  157.7507  131.0257  150.3932 LP  0  0  0  0  0  0  0  0  0  0  0  0  # atno 17370 bound_to 10713
  156.4231  130.3957  149.6811 LP  0  0  0  0  0  0  0  0  0  0  0  0  # atno 17371 bound_to 10713
  140.6116  134.5453  157.5534 LP  0  0  0  0  0  0  0  0  0  0  0  0  # atno 17394 bound_to 11000
  139.9324  134.7938  156.0893 LP  0  0  0  0  0  0  0  0  0  0  0  0  # atno 17395 bound_to 11000

$$$$
