AV-unprocessed.smi:1526|AV-procd|sdf|6146|dock2
  -GOLD-   22720 6293D 1   1.00000     0.00000
 Structure written by MMmdl.
 34 35  0  0  0  0  0  0  0  0  3 V2000
  153.4121  140.0533  158.5429 O   0  0  0  0  0  0  0  0  0  0  0  0
  152.2172  140.3355  158.6228 C   0  0  0  0  0  0  0  0  0  0  0  0
  151.2019  139.5349  157.7882 C   0  0  0  0  0  0  0  0  0  0  0  0
  150.2981  140.3519  156.9569 N   0  0  0  0  0  0  0  0  0  0  0  0
  149.1911  140.9371  157.6028 C   0  0  0  0  0  0  0  0  0  0  0  0
  148.3033  141.7086  156.9453 C   0  0  0  0  0  0  0  0  0  0  0  0
  147.1773  142.3082  157.6271 N   0  3  0  0  0  0  0  0  0  0  0  0
  147.0031  142.0510  158.8139 O   0  0  0  0  0  0  0  0  0  0  0  0
  146.4302  143.0537  157.0007 O   0  5  0  0  0  0  0  0  0  0  0  0
  148.5177  141.9239  155.5274 C   0  0  0  0  0  0  0  0  0  0  0  0
  149.5769  141.3707  154.9044 C   0  0  0  0  0  0  0  0  0  0  0  0
  150.5457  140.5373  155.6237 C   0  0  0  0  0  0  0  0  0  0  0  0
  151.5235  140.0420  155.0639 O   0  0  0  0  0  0  0  0  0  0  0  0
  151.7570  141.3205  159.4101 N   0  0  0  0  0  0  0  0  0  0  0  0
  152.5861  142.1838  160.2364 C   0  0  0  0  0  0  0  0  0  0  0  0
  152.5240  143.6157  159.7194 C   0  0  0  0  0  0  0  0  0  0  0  0
  151.2038  144.3989  159.7954 C   0  0  0  0  0  0  0  0  0  0  0  0
  151.5812  145.0711  158.4726 C   0  0  0  0  0  0  0  0  0  0  0  0
  152.5049  143.8790  158.2065 C   0  0  0  0  0  0  0  0  0  0  0  0
  151.7499  138.8251  157.1663 H   0  0  0  0  0  0  0  0  0  0  0  0
  150.6215  138.9140  158.4722 H   0  0  0  0  0  0  0  0  0  0  0  0
  149.1246  140.7215  158.6598 H   0  0  0  0  0  0  0  0  0  0  0  0
  147.8311  142.5301  154.9550 H   0  0  0  0  0  0  0  0  0  0  0  0
  149.7179  141.5443  153.8476 H   0  0  0  0  0  0  0  0  0  0  0  0
  150.7627  141.4939  159.4250 H   0  0  0  0  0  0  0  0  0  0  0  0
  152.2403  142.1359  161.2698 H   0  0  0  0  0  0  0  0  0  0  0  0
  153.6135  141.8165  160.2261 H   0  0  0  0  0  0  0  0  0  0  0  0
  153.3148  144.2223  160.1672 H   0  0  0  0  0  0  0  0  0  0  0  0
  150.3248  143.7581  159.7068 H   0  0  0  0  0  0  0  0  0  0  0  0
  151.1231  145.0748  160.6474 H   0  0  0  0  0  0  0  0  0  0  0  0
  150.7598  145.1800  157.7638 H   0  0  0  0  0  0  0  0  0  0  0  0
  152.1255  146.0064  158.6129 H   0  0  0  0  0  0  0  0  0  0  0  0
  153.4727  144.1374  157.7755 H   0  0  0  0  0  0  0  0  0  0  0  0
  152.0134  143.0841  157.6429 H   0  0  0  0  0  0  0  0  0  0  0  0
  1  2  2  0  0  0  0
  2  3  1  0  0  0  0
  2 14  1  0  0  0  0
  3  4  1  0  0  0  0
  3 20  1  0  0  0  0
  3 21  1  0  0  0  0
  4 12  1  0  0  0  0
  4  5  1  0  0  0  0
  5  6  2  0  0  0  0
  5 22  1  0  0  0  0
  6  7  1  0  0  0  0
  6 10  1  0  0  0  0
  7  8  2  0  0  0  0
  7  9  1  0  0  0  0
 10 11  2  0  0  0  0
 10 23  1  0  0  0  0
 11 12  1  0  0  0  0
 11 24  1  0  0  0  0
 12 13  2  0  0  0  0
 14 15  1  0  0  0  0
 14 25  1  0  0  0  0
 15 16  1  0  0  0  0
 15 26  1  0  0  0  0
 15 27  1  0  0  0  0
 16 19  1  0  0  0  0
 16 17  1  0  0  0  0
 16 28  1  0  0  0  0
 17 18  1  0  0  0  0
 17 29  1  0  0  0  0
 17 30  1  0  0  0  0
 18 19  1  0  0  0  0
 18 31  1  0  0  0  0
 18 32  1  0  0  0  0
 19 33  1  0  0  0  0
 19 34  1  0  0  0  0
M  CHG  1   7   1
M  CHG  1   9  -1
M  END
> <s_m_source_file>
AV-unprocessed.smi

> <i_m_source_file_index>
1526

> <i_lp_mmshare_version>
43012

> <i_f3d_flags>
0

> <s_epik_input>
W0NIMl0xW0NIMl1bQ0gyXVtDSF0xW0NIMl1bTkhdQyg9TylbQ0gyXW4yW2NIXWMoW04rXSg9TylbTy1dKVtjSF1bY0hdYzI9Tw==

> <s_epik_cmdline>
J2VwaWtfcHl0aG9uJywgJy1waCcsICc3LjAnLCAnLXRuJywgJzgnLCAnLW1hJywgJzIwMCcsICctbWV0YWxfYmluZGluZycsICctaW1hZScsICc8aW5maWxlLm1hZT4nLCAnLW9tYWUnLCAnPG91dGZpbGUubWFlPic=

> <r_lp_tautomer_probability>
1

> <r_epik_Ionization_Penalty>
1.93777e-08

> <r_epik_Ionization_Penalty_Charging>
7.59562e-11

> <r_epik_Ionization_Penalty_Neutral>
1.93017e-08

> <r_epik_State_Penalty>
-0

> <r_epik_Charging_Adjusted_Penalty>
7.59562e-11

> <i_epik_Tot_Q>
0

> <i_epik_Tot_abs_Q>
2

> <r_epik_Metal_State_Penalty>
-0

> <b_epik_Metal_Only>
0

> <s_lp_Force_Field>
OPLS_2005

> <r_lp_Energy>
24.467

> <b_lp_Chiralities_Consistent>
1

> <s_lp_Variant>
AV-unprocessed.smi:1526-1

> <Gold.Version>
5.8.1

> <Gold.Id.Protein>
6NUR|6NUR_protein|mol2

> <Gold.PLP.Fitness>
43.7279

> <Gold.PLP.PLP>
-36.8543

> <Gold.PLP.part.hbond>
-3.0000

> <Gold.PLP.part.metal>
0.0000

> <Gold.PLP.part.buried>
-3.3801

> <Gold.PLP.part.nonpolar>
-30.5274

> <Gold.PLP.part.repulsive>
0.3954

> <Gold.PLP.ligand.clash>
0.0000

> <Gold.PLP.ligand.torsion>
0.4838

> <Gold.PLP.Chemscore.Hbond>
2.5760

> <Gold.PLP.Chemscore.CHOScore>
0.0000

> <Gold.PLP.Chemscore.Metal>
0.0000

> <Gold.Chemscore.Hbonds>
donor molecule, donor type, donor heavy atom, donor atom, acceptor molecule, acceptor atom, score
      P1  H  6934  6946       L1     8  0.32
      P1  H  7989  7998       L1    13  1.00
      P1  H  7997  8008       L1     1  1.00

> <Gold.PLP.Chemscore.Internal.Correction>
0.1130

> <Gold.Rescore>
     Score         DG    S(hbond)    S(metal)    S(lipo)     H(rot)  DE(clash)    DE(int)     intcor
     17.84     -18.41       2.45        0.00      80.32       1.82       0.05       0.53       ----

> <Gold.Chemscore.Fitness>
17.8393

> <Gold.Chemscore.DG>
-18.4140

> <Gold.Chemscore.ZeroCoef>
-5.4800

> <Gold.Chemscore.Hbond>
2.4532

> <Gold.Chemscore.Metal>
0.0000

> <Gold.Chemscore.Lipo>
80.3169

> <Gold.Chemscore.Internal_Hbond>
0.0000

> <Gold.Chemscore.DEClash>
0.0476

> <Gold.Chemscore.DEInternal>
0.5271

> <Gold.Chemscore.Rot>
1.8190

> <Gold.Chemscore.Internal.Correction>
   9.000000E+99

> <Gold.Chemscore.Hbonds>
donor molecule, donor type, donor heavy atom, donor atom, acceptor molecule, acceptor atom, score
      P1  H  6934  6946       L1     8  0.32
      P1  H  7989  7998       L1    13  0.54
      P1  H  7997  8008       L1     1  0.96

> <Gold.Chemscore.Hbond.Weighted>
-8.1936

> <Gold.Chemscore.Metal.Weighted>
-0.0000

> <Gold.Chemscore.Lipo.Weighted>
-9.3971

> <Gold.Chemscore.Internal_Hbond.Weighted>
0.0000

> <Gold.Chemscore.DEClash.Weighted>
0.0476

> <Gold.Chemscore.DEInternal.Weighted>
0.5271

> <Gold.Chemscore.Rot.Weighted>
4.6567

> <Gold.Chemscore.Internal.Correction.Weighted>
   9.000000E+99

> <Gold.Protein.RotatedTorsions>
[ 6907 6896 6895 6894 ] final  -54.53 input  -60.11 | X-H torsion
[ 7974 7965 7964 7962 ] final  131.43 input  175.53 | X-H torsion
[ 8008 7997 7996 7995 ] final  -94.90 input   59.86 | X-H torsion
[ 10167 10162 10161 10158 ] final  -66.58 input  -65.29 | X-H torsion
[ 10718 10713 10712 10709 ] final  158.80 input   66.30 | X-H torsion
[ 10763 10752 10751 10750 ] final   70.50 input  -60.55 | X-H torsion
[ 11005 11000 10999 10996 ] final -158.72 input  -57.11 | X-H torsion

> <Gold.Protein.ActiveResidues>
 VAL166  LYS551  ARG553  GLY616  TRP617  ASP618  TYR619  PRO620  LYS621  CYS622 
 ASP623  PHE694  ASN695  SER759  ASP760  ASP761  ALA762  ILE779  LEU786  VAL792 
 PHE793  MET794  SER795  GLU796  ALA797  LYS798  CYS799  TRP800  GLU811  SER814 

> <Gold.Protein.RotatedAtoms>
  150.8330  134.7591  159.6869 H   0  0  0  0  0  0  0  0  0  0  0  0  # atno 6907 bound_to 6896
  152.4431  134.5546  159.9886 H   0  0  0  0  0  0  0  0  0  0  0  0  # atno 6908 bound_to 6896
  151.5703  133.3353  159.3024 H   0  0  0  0  0  0  0  0  0  0  0  0  # atno 6909 bound_to 6896
  145.0074  139.4253  143.5262 H   0  0  0  0  0  0  0  0  0  0  0  0  # atno 7974 bound_to 7965
  154.7544  140.0485  157.0920 H   0  0  0  0  0  0  0  0  0  0  0  0  # atno 8008 bound_to 7997
  155.0016  140.3125  155.4845 H   0  0  0  0  0  0  0  0  0  0  0  0  # atno 8009 bound_to 7997
  156.2892  140.2200  156.5127 H   0  0  0  0  0  0  0  0  0  0  0  0  # atno 8010 bound_to 7997
  140.5646  143.2314  151.6660 H   0  0  0  0  0  0  0  0  0  0  0  0  # atno 10167 bound_to 10162
  157.1730  131.0614  151.2173 H   0  0  0  0  0  0  0  0  0  0  0  0  # atno 10718 bound_to 10713
  153.0345  135.5171  154.7450 H   0  0  0  0  0  0  0  0  0  0  0  0  # atno 10763 bound_to 10752
  154.6438  135.2916  155.0073 H   0  0  0  0  0  0  0  0  0  0  0  0  # atno 10764 bound_to 10752
  154.0981  135.6640  153.4916 H   0  0  0  0  0  0  0  0  0  0  0  0  # atno 10765 bound_to 10752
  140.6505  134.4456  157.5235 H   0  0  0  0  0  0  0  0  0  0  0  0  # atno 11005 bound_to 11000
  146.3463  139.9497  142.8730 LP  0  0  0  0  0  0  0  0  0  0  0  0  # atno 17320 bound_to 7965
  145.2070  140.9879  143.4122 LP  0  0  0  0  0  0  0  0  0  0  0  0  # atno 17321 bound_to 7965
  139.5087  144.3603  152.0568 LP  0  0  0  0  0  0  0  0  0  0  0  0  # atno 17342 bound_to 10162
  140.2733  144.3940  150.6143 LP  0  0  0  0  0  0  0  0  0  0  0  0  # atno 17343 bound_to 10162
  157.4025  130.7341  149.6778 LP  0  0  0  0  0  0  0  0  0  0  0  0  # atno 17370 bound_to 10713
  155.9735  130.4117  150.3993 LP  0  0  0  0  0  0  0  0  0  0  0  0  # atno 17371 bound_to 10713
  139.9048  134.8475  156.1751 LP  0  0  0  0  0  0  0  0  0  0  0  0  # atno 17394 bound_to 11000
  141.0540  133.6874  156.1826 LP  0  0  0  0  0  0  0  0  0  0  0  0  # atno 17395 bound_to 11000

$$$$
