AV-unprocessed.smi:2510|AV-procd|sdf|9874|dock6
  -GOLD-   2272013503D 1   1.00000     0.00000
 Structure written by MMmdl.
 48 49  0  0  0  0  0  0  0  0  1 V2000
  148.3580  140.3852  154.6171 C   0  0  0  0  0  0  0  0  0  0  0  0
  149.5492  139.4696  154.2894 C   0  0  0  0  0  0  0  0  0  0  0  0
  149.8018  138.2700  155.2470 C   0  0  0  0  0  0  0  0  0  0  0  0
  150.1646  138.8794  156.6237 C   0  0  0  0  0  0  0  0  0  0  0  0
  150.1081  137.8939  157.8045 C   0  0  0  0  0  0  0  0  0  0  0  0
  148.7274  137.1434  155.3332 C   0  0  1  0  0  0  0  0  0  0  0  0
  147.9187  136.9889  154.1229 N   0  0  0  0  0  0  0  0  0  0  0  0
  146.5809  136.8853  154.1086 C   0  0  0  0  0  0  0  0  0  0  0  0
  145.8880  136.9195  155.1253 O   0  0  0  0  0  0  0  0  0  0  0  0
  145.9211  136.7200  152.7390 C   0  0  0  0  0  0  0  0  0  0  0  0
  145.4144  135.3123  152.5709 C   0  0  0  0  0  0  0  0  0  0  0  0
  145.7562  134.3693  151.5561 C   0  0  0  0  0  0  0  0  0  0  0  0
  145.0337  133.2537  151.8729 C   0  0  0  0  0  0  0  0  0  0  0  0
  144.9498  131.9153  151.2218 C   0  0  0  0  0  0  0  0  0  0  0  0
  144.3202  133.5674  153.0063 N   0  0  0  0  0  0  0  0  0  0  0  0
  144.5419  134.8220  153.4408 N   0  0  0  0  0  0  0  0  0  0  0  0
  149.8493  136.0925  155.4185 C   0  0  1  0  0  0  0  0  0  0  0  0
  149.6750  134.7194  154.7733 C   0  0  0  0  0  0  0  0  0  0  0  0
  150.7573  137.1420  154.7614 C   0  0  2  0  0  0  0  0  0  0  0  0
  152.0597  137.2519  155.3173 O   0  0  0  0  0  0  0  0  0  0  0  0
  152.7568  138.4087  154.8887 C   0  0  0  0  0  0  0  0  0  0  0  0
  143.6862  132.9446  153.4866 H   0  0  0  0  0  0  0  0  0  0  0  0
  148.3166  141.2216  153.9191 H   0  0  0  0  0  0  0  0  0  0  0  0
  148.4235  140.8034  155.6198 H   0  0  0  0  0  0  0  0  0  0  0  0
  147.4121  139.8497  154.5343 H   0  0  0  0  0  0  0  0  0  0  0  0
  149.3875  139.1184  153.2697 H   0  0  0  0  0  0  0  0  0  0  0  0
  150.4476  140.0845  154.2316 H   0  0  0  0  0  0  0  0  0  0  0  0
  151.1690  139.3019  156.5971 H   0  0  0  0  0  0  0  0  0  0  0  0
  149.5140  139.7269  156.8426 H   0  0  0  0  0  0  0  0  0  0  0  0
  150.4087  138.3891  158.7280 H   0  0  0  0  0  0  0  0  0  0  0  0
  150.7765  137.0460  157.6585 H   0  0  0  0  0  0  0  0  0  0  0  0
  149.1030  137.5029  157.9610 H   0  0  0  0  0  0  0  0  0  0  0  0
  148.1345  137.1622  156.2484 H   0  0  0  0  0  0  0  0  0  0  0  0
  148.4098  136.9574  153.2410 H   0  0  0  0  0  0  0  0  0  0  0  0
  145.1127  137.4463  152.6403 H   0  0  0  0  0  0  0  0  0  0  0  0
  146.6452  136.9542  151.9579 H   0  0  0  0  0  0  0  0  0  0  0  0
  146.4374  134.4935  150.7272 H   0  0  0  0  0  0  0  0  0  0  0  0
  145.3876  131.9400  150.2236 H   0  0  0  0  0  0  0  0  0  0  0  0
  143.9130  131.5915  151.1269 H   0  0  0  0  0  0  0  0  0  0  0  0
  145.4868  131.1680  151.8063 H   0  0  0  0  0  0  0  0  0  0  0  0
  150.1308  135.9767  156.4664 H   0  0  0  0  0  0  0  0  0  0  0  0
  149.5754  134.7908  153.6898 H   0  0  0  0  0  0  0  0  0  0  0  0
  148.7857  134.2171  155.1545 H   0  0  0  0  0  0  0  0  0  0  0  0
  150.5278  134.0733  154.9794 H   0  0  0  0  0  0  0  0  0  0  0  0
  150.7784  137.0127  153.6789 H   0  0  0  0  0  0  0  0  0  0  0  0
  153.7221  138.4593  155.3921 H   0  0  0  0  0  0  0  0  0  0  0  0
  152.2036  139.3173  155.1306 H   0  0  0  0  0  0  0  0  0  0  0  0
  152.9432  138.3855  153.8152 H   0  0  0  0  0  0  0  0  0  0  0  0
  1  2  1  0  0  0  0
  1 23  1  0  0  0  0
  1 24  1  0  0  0  0
  1 25  1  0  0  0  0
  2  3  1  0  0  0  0
  2 26  1  0  0  0  0
  2 27  1  0  0  0  0
  3 19  1  0  0  0  0
  3  4  1  0  0  0  0
  3  6  1  0  0  0  0
  4  5  1  0  0  0  0
  4 28  1  0  0  0  0
  4 29  1  0  0  0  0
  5 30  1  0  0  0  0
  5 31  1  0  0  0  0
  5 32  1  0  0  0  0
  6  7  1  0  0  0  0
  6 17  1  0  0  0  0
  6 33  1  0  0  0  0
  7  8  1  0  0  0  0
  7 34  1  0  0  0  0
  8  9  2  0  0  0  0
  8 10  1  0  0  0  0
 10 11  1  0  0  0  0
 10 35  1  0  0  0  0
 10 36  1  0  0  0  0
 11 16  2  0  0  0  0
 11 12  1  0  0  0  0
 12 13  2  0  0  0  0
 12 37  1  0  0  0  0
 13 14  1  0  0  0  0
 13 15  1  0  0  0  0
 14 38  1  0  0  0  0
 14 39  1  0  0  0  0
 14 40  1  0  0  0  0
 15 22  1  0  0  0  0
 15 16  1  0  0  0  0
 17 18  1  0  0  0  0
 17 19  1  0  0  0  0
 17 41  1  0  0  0  0
 18 42  1  0  0  0  0
 18 43  1  0  0  0  0
 18 44  1  0  0  0  0
 19 20  1  0  0  0  0
 19 45  1  0  0  0  0
 20 21  1  0  0  0  0
 21 46  1  0  0  0  0
 21 47  1  0  0  0  0
 21 48  1  0  0  0  0
M  END
> <s_m_source_file>
AV-unprocessed.smi

> <i_m_source_file_index>
2510

> <i_lp_mmshare_version>
43012

> <i_f3d_flags>
0

> <s_epik_input>
W0NIM11PW0NAQEhdMVtDQEhdKFtDSDNdKVtDQEBIXShDMShbQ0gyXVtDSDNdKVtDSDJdW0NIM10pW05IXUMoPU8pW0NIMl1jMltjSF1jKFtDSDNdKVtuSF1uMg==

> <s_epik_cmdline>
J2VwaWtfcHl0aG9uJywgJy1waCcsICc3LjAnLCAnLXRuJywgJzgnLCAnLW1hJywgJzIwMCcsICctbWV0YWxfYmluZGluZycsICctaW1hZScsICc8aW5maWxlLm1hZT4nLCAnLW9tYWUnLCAnPG91dGZpbGUubWFlPic=

> <r_lp_tautomer_probability>
0.5

> <r_epik_Ionization_Penalty>
9.73156e-05

> <r_epik_Ionization_Penalty_Charging>
0

> <r_epik_Ionization_Penalty_Neutral>
9.73156e-05

> <r_epik_State_Penalty>
0.41068

> <r_epik_Charging_Adjusted_Penalty>
0.41068

> <i_epik_Tot_Q>
0

> <i_epik_Tot_abs_Q>
0

> <r_epik_Metal_State_Penalty>
0.410699

> <b_epik_Metal_Only>
0

> <s_lp_Force_Field>
OPLS_2005

> <r_lp_Energy>
25.9502

> <b_lp_Chiralities_Consistent>
1

> <s_lp_Variant>
AV-unprocessed.smi:2510-5

> <Gold.Version>
5.8.1

> <Gold.Id.Protein>
6NUR|6NUR_protein|mol2

> <Gold.PLP.Fitness>
35.5261

> <Gold.PLP.PLP>
-27.4969

> <Gold.PLP.part.hbond>
-3.0000

> <Gold.PLP.part.metal>
0.0000

> <Gold.PLP.part.buried>
-4.0650

> <Gold.PLP.part.nonpolar>
-21.5553

> <Gold.PLP.part.repulsive>
0.1495

> <Gold.PLP.ligand.clash>
0.0000

> <Gold.PLP.ligand.torsion>
0.5656

> <Gold.PLP.Chemscore.Hbond>
2.8640

> <Gold.PLP.Chemscore.CHOScore>
0.0000

> <Gold.PLP.Chemscore.Metal>
0.0000

> <Gold.Chemscore.Hbonds>
donor molecule, donor type, donor heavy atom, donor atom, acceptor molecule, acceptor atom, score
      L1  H     7    34       P1  7948  1.00
      L1  H    15    22       P1 10957  1.00
      P1  H 10752 10765       L1    20  0.90

> <Gold.PLP.Chemscore.Internal.Correction>
0.5684

> <Gold.Rescore>
     Score         DG    S(hbond)    S(metal)    S(lipo)     H(rot)  DE(clash)    DE(int)     intcor
     16.80     -18.88       2.72        0.00      76.56       1.81       0.34       1.74       ----

> <Gold.Chemscore.Fitness>
16.8033

> <Gold.Chemscore.DG>
-18.8816

> <Gold.Chemscore.ZeroCoef>
-5.4800

> <Gold.Chemscore.Hbond>
2.7178

> <Gold.Chemscore.Metal>
0.0000

> <Gold.Chemscore.Lipo>
76.5647

> <Gold.Chemscore.Internal_Hbond>
0.0000

> <Gold.Chemscore.DEClash>
0.3387

> <Gold.Chemscore.DEInternal>
1.7396

> <Gold.Chemscore.Rot>
1.8102

> <Gold.Chemscore.Internal.Correction>
   9.000000E+99

> <Gold.Chemscore.Hbonds>
donor molecule, donor type, donor heavy atom, donor atom, acceptor molecule, acceptor atom, score
      L1  H     7    34       P1  7948  0.98
      L1  H    15    22       P1 10957  0.78
      P1  H 10752 10765       L1    20  0.25

> <Gold.Chemscore.Hbond.Weighted>
-9.0776

> <Gold.Chemscore.Metal.Weighted>
-0.0000

> <Gold.Chemscore.Lipo.Weighted>
-8.9581

> <Gold.Chemscore.Internal_Hbond.Weighted>
0.0000

> <Gold.Chemscore.DEClash.Weighted>
0.3387

> <Gold.Chemscore.DEInternal.Weighted>
1.7396

> <Gold.Chemscore.Rot.Weighted>
4.6341

> <Gold.Chemscore.Internal.Correction.Weighted>
   9.000000E+99

> <Gold.Protein.RotatedTorsions>
[ 6907 6896 6895 6894 ] final -108.95 input  -60.11 | X-H torsion
[ 7974 7965 7964 7962 ] final  -40.11 input  175.53 | X-H torsion
[ 8008 7997 7996 7995 ] final  157.41 input   59.86 | X-H torsion
[ 10167 10162 10161 10158 ] final -172.40 input  -65.29 | X-H torsion
[ 10718 10713 10712 10709 ] final  -93.25 input   66.30 | X-H torsion
[ 10763 10752 10751 10750 ] final -175.59 input  -60.55 | X-H torsion
[ 11005 11000 10999 10996 ] final -142.80 input  -57.11 | X-H torsion

> <Gold.Protein.ActiveResidues>
 VAL166  LYS551  ARG553  GLY616  TRP617  ASP618  TYR619  PRO620  LYS621  CYS622 
 ASP623  PHE694  ASN695  SER759  ASP760  ASP761  ALA762  ILE779  LEU786  VAL792 
 PHE793  MET794  SER795  GLU796  ALA797  LYS798  CYS799  TRP800  GLU811  SER814 

> <Gold.Protein.RotatedAtoms>
  150.7532  133.9602  159.3512 H   0  0  0  0  0  0  0  0  0  0  0  0  # atno 6907 bound_to 6896
  151.7527  135.0827  160.0343 H   0  0  0  0  0  0  0  0  0  0  0  0  # atno 6908 bound_to 6896
  152.3456  133.6080  159.5943 H   0  0  0  0  0  0  0  0  0  0  0  0  # atno 6909 bound_to 6896
  146.0335  140.6701  142.9121 H   0  0  0  0  0  0  0  0  0  0  0  0  # atno 7974 bound_to 7965
  156.2366  140.1886  156.7104 H   0  0  0  0  0  0  0  0  0  0  0  0  # atno 8008 bound_to 7997
  154.6117  140.0621  156.9529 H   0  0  0  0  0  0  0  0  0  0  0  0  # atno 8009 bound_to 7997
  155.2005  140.3292  155.4346 H   0  0  0  0  0  0  0  0  0  0  0  0  # atno 8010 bound_to 7997
  139.5747  144.1561  152.1433 H   0  0  0  0  0  0  0  0  0  0  0  0  # atno 10167 bound_to 10162
  156.0011  130.5019  150.5748 H   0  0  0  0  0  0  0  0  0  0  0  0  # atno 10718 bound_to 10713
  154.5826  135.2837  155.0718 H   0  0  0  0  0  0  0  0  0  0  0  0  # atno 10763 bound_to 10752
  154.2048  135.6418  153.5101 H   0  0  0  0  0  0  0  0  0  0  0  0  # atno 10764 bound_to 10752
  153.0093  135.5477  154.6484 H   0  0  0  0  0  0  0  0  0  0  0  0  # atno 10765 bound_to 10752
  140.8189  134.2654  157.4909 H   0  0  0  0  0  0  0  0  0  0  0  0  # atno 11005 bound_to 11000
  144.7041  140.3778  143.7132 LP  0  0  0  0  0  0  0  0  0  0  0  0  # atno 17320 bound_to 7965
  145.7002  139.1659  143.2597 LP  0  0  0  0  0  0  0  0  0  0  0  0  # atno 17321 bound_to 7965
  140.1101  144.5464  150.6931 LP  0  0  0  0  0  0  0  0  0  0  0  0  # atno 17342 bound_to 10162
  140.7030  143.2448  151.4810 LP  0  0  0  0  0  0  0  0  0  0  0  0  # atno 17343 bound_to 10162
  157.3637  131.0754  151.1615 LP  0  0  0  0  0  0  0  0  0  0  0  0  # atno 17370 bound_to 10713
  157.2391  130.6561  149.5882 LP  0  0  0  0  0  0  0  0  0  0  0  0  # atno 17371 bound_to 10713
  139.8709  134.9524  156.4115 LP  0  0  0  0  0  0  0  0  0  0  0  0  # atno 17394 bound_to 11000
  140.9119  133.7705  155.9802 LP  0  0  0  0  0  0  0  0  0  0  0  0  # atno 17395 bound_to 11000

$$$$
