AV-unprocessed.smi:281|AV-procd|sdf|2106|dock10
  -GOLD-   2262021403D 1   1.00000     0.00000
 Structure written by MMmdl.
 55 59  0  0  0  0  0  0  0  0  1 V2000
  152.6021  138.6933  154.8272 C   0  0  0  0  0  0  0  0  0  0  0  0
  151.6123  139.5152  155.6592 C   0  0  1  0  0  0  0  0  0  0  0  0
  150.4840  138.6440  156.2387 C   0  0  0  0  0  0  0  0  0  0  0  0
  149.6351  139.4481  157.1059 N   0  0  0  0  0  0  0  0  0  0  0  0
  148.5197  138.8159  157.5249 C   0  0  0  0  0  0  0  0  0  0  0  0
  147.3337  139.3030  157.0865 N   0  0  0  0  0  0  0  0  0  0  0  0
  146.1923  138.7221  157.4687 C   0  0  0  0  0  0  0  0  0  0  0  0
  146.0184  137.6675  158.2685 N   0  0  0  0  0  0  0  0  0  0  0  0
  147.2117  137.1794  158.7148 C   0  0  0  0  0  0  0  0  0  0  0  0
  148.5013  137.6870  158.3919 C   0  0  0  0  0  0  0  0  0  0  0  0
  149.4810  136.9304  159.0236 N   0  0  0  0  0  0  0  0  0  0  0  0
  148.8084  136.0262  159.6817 C   0  0  0  0  0  0  0  0  0  0  0  0
  147.4389  136.1080  159.5614 N   0  0  0  0  0  0  0  0  0  0  0  0
  146.4532  135.2351  160.1819 C   0  0  0  0  0  0  0  0  0  0  0  0
  145.9762  135.7193  161.5731 C   0  0  1  0  0  0  0  0  0  0  0  0
  144.8509  134.9559  161.9676 O   0  0  0  0  0  0  0  0  0  0  0  0
  147.0660  135.5876  162.6397 C   0  0  0  0  0  0  0  0  0  0  0  0
  147.4695  137.0297  162.9218 C   0  0  0  0  0  0  0  0  0  0  0  0
  146.2454  137.7272  162.7791 O   0  0  0  0  0  0  0  0  0  0  0  0
  145.6101  137.2166  161.6161 C   0  0  0  0  0  0  0  0  0  0  0  0
  150.3814  140.0901  158.1790 C   0  0  0  0  0  0  0  0  0  0  0  0
  151.5417  140.9385  157.6006 C   0  0  1  0  0  0  0  0  0  0  0  0
  151.0581  142.2059  156.9027 C   0  0  0  0  0  0  0  0  0  0  0  0
  150.9013  143.1949  158.0522 C   0  0  0  0  0  0  0  0  0  0  0  0
  151.8786  142.8212  159.0163 O   0  0  0  0  0  0  0  0  0  0  0  0
  152.4571  141.5657  158.6700 C   0  0  1  0  0  0  0  0  0  0  0  0
  152.7362  140.7255  159.9250 C   0  0  0  0  0  0  0  0  0  0  0  0
  152.3360  140.1303  156.7260 O   0  0  0  0  0  0  0  0  0  0  0  0
  152.1024  138.2097  153.9876 H   0  0  0  0  0  0  0  0  0  0  0  0
  153.0738  137.9165  155.4295 H   0  0  0  0  0  0  0  0  0  0  0  0
  153.3918  139.3274  154.4236 H   0  0  0  0  0  0  0  0  0  0  0  0
  151.1843  140.2862  155.0171 H   0  0  0  0  0  0  0  0  0  0  0  0
  149.8881  138.2154  155.4316 H   0  0  0  0  0  0  0  0  0  0  0  0
  150.9092  137.8136  156.8037 H   0  0  0  0  0  0  0  0  0  0  0  0
  145.2883  139.1669  157.0798 H   0  0  0  0  0  0  0  0  0  0  0  0
  149.2989  135.2709  160.2781 H   0  0  0  0  0  0  0  0  0  0  0  0
  145.6041  135.1419  159.5031 H   0  0  0  0  0  0  0  0  0  0  0  0
  146.8881  134.2380  160.2628 H   0  0  0  0  0  0  0  0  0  0  0  0
  144.6063  135.2139  162.8434 H   0  0  0  0  0  0  0  0  0  0  0  0
  146.6682  135.1458  163.5550 H   0  0  0  0  0  0  0  0  0  0  0  0
  147.9122  134.9761  162.3240 H   0  0  0  0  0  0  0  0  0  0  0  0
  147.8984  137.1617  163.9153 H   0  0  0  0  0  0  0  0  0  0  0  0
  148.1874  137.3883  162.1824 H   0  0  0  0  0  0  0  0  0  0  0  0
  146.0252  137.7479  160.7592 H   0  0  0  0  0  0  0  0  0  0  0  0
  144.5357  137.4053  161.6318 H   0  0  0  0  0  0  0  0  0  0  0  0
  149.7145  140.7049  158.7849 H   0  0  0  0  0  0  0  0  0  0  0  0
  150.7782  139.3127  158.8318 H   0  0  0  0  0  0  0  0  0  0  0  0
  151.8266  142.5684  156.2183 H   0  0  0  0  0  0  0  0  0  0  0  0
  150.1387  142.0761  156.3307 H   0  0  0  0  0  0  0  0  0  0  0  0
  151.0334  144.2283  157.7311 H   0  0  0  0  0  0  0  0  0  0  0  0
  149.9126  143.1052  158.5037 H   0  0  0  0  0  0  0  0  0  0  0  0
  153.4130  141.8001  158.1985 H   0  0  0  0  0  0  0  0  0  0  0  0
  153.1498  139.7520  159.6606 H   0  0  0  0  0  0  0  0  0  0  0  0
  151.8318  140.5635  160.5117 H   0  0  0  0  0  0  0  0  0  0  0  0
  153.4569  141.2271  160.5710 H   0  0  0  0  0  0  0  0  0  0  0  0
  1  2  1  0  0  0  0
  1 29  1  0  0  0  0
  1 30  1  0  0  0  0
  1 31  1  0  0  0  0
  2 28  1  0  0  0  0
  2  3  1  0  0  0  0
  2 32  1  0  0  0  0
  3  4  1  0  0  0  0
  3 33  1  0  0  0  0
  3 34  1  0  0  0  0
  4  5  1  0  0  0  0
  4 21  1  0  0  0  0
  5 10  1  0  0  0  0
  5  6  2  0  0  0  0
  6  7  1  0  0  0  0
  7  8  2  0  0  0  0
  7 35  1  0  0  0  0
  8  9  1  0  0  0  0
  9 13  1  0  0  0  0
  9 10  2  0  0  0  0
 10 11  1  0  0  0  0
 11 12  2  0  0  0  0
 12 13  1  0  0  0  0
 12 36  1  0  0  0  0
 13 14  1  0  0  0  0
 14 15  1  0  0  0  0
 14 37  1  0  0  0  0
 14 38  1  0  0  0  0
 15 20  1  0  0  0  0
 15 16  1  0  0  0  0
 15 17  1  0  0  0  0
 16 39  1  0  0  0  0
 17 18  1  0  0  0  0
 17 40  1  0  0  0  0
 17 41  1  0  0  0  0
 18 19  1  0  0  0  0
 18 42  1  0  0  0  0
 18 43  1  0  0  0  0
 19 20  1  0  0  0  0
 20 44  1  0  0  0  0
 20 45  1  0  0  0  0
 21 22  1  0  0  0  0
 21 46  1  0  0  0  0
 21 47  1  0  0  0  0
 22 26  1  0  0  0  0
 22 23  1  0  0  0  0
 22 28  1  0  0  0  0
 23 24  1  0  0  0  0
 23 48  1  0  0  0  0
 23 49  1  0  0  0  0
 24 25  1  0  0  0  0
 24 50  1  0  0  0  0
 24 51  1  0  0  0  0
 25 26  1  0  0  0  0
 26 27  1  0  0  0  0
 26 52  1  0  0  0  0
 27 53  1  0  0  0  0
 27 54  1  0  0  0  0
 27 55  1  0  0  0  0
M  END
> <s_m_source_file>
AV-unprocessed.smi

> <i_m_source_file_index>
281

> <i_lp_mmshare_version>
43012

> <i_f3d_flags>
0

> <s_epik_input>
W0NIM11bQ0BASF0xT1tDSDJdW0NIMl1bQ0BAXTEyW0NIMl1OKFtDSDJdW0NASF0oTzIpW0NIM10pYyhuW2NIXW4zKWMoYzM0KW5bY0hdbjRbQ0gyXVtDQEBdNShbT0hdKVtDSDJdW0NIMl1PW0NIMl01

> <s_epik_cmdline>
J2VwaWtfcHl0aG9uJywgJy1waCcsICc3LjAnLCAnLXRuJywgJzgnLCAnLW1hJywgJzIwMCcsICctbWV0YWxfYmluZGluZycsICctaW1hZScsICc8aW5maWxlLm1hZT4nLCAnLW9tYWUnLCAnPG91dGZpbGUubWFlPic=

> <r_lp_tautomer_probability>
1

> <r_epik_Ionization_Penalty>
0.00571331

> <r_epik_Ionization_Penalty_Charging>
0

> <r_epik_Ionization_Penalty_Neutral>
0.00571331

> <r_epik_State_Penalty>
0.00399586

> <r_epik_Charging_Adjusted_Penalty>
0.00399586

> <i_epik_Tot_Q>
0

> <i_epik_Tot_abs_Q>
0

> <r_epik_Metal_State_Penalty>
-0

> <b_epik_Metal_Only>
0

> <s_lp_Force_Field>
OPLS_2005

> <r_lp_Energy>
56.3854

> <b_lp_Chiralities_Consistent>
1

> <s_lp_Variant>
AV-unprocessed.smi:281-6

> <Gold.Version>
5.8.1

> <Gold.Id.Protein>
6NUR|6NUR_protein|mol2

> <Gold.PLP.Fitness>
40.2727

> <Gold.PLP.PLP>
-38.2183

> <Gold.PLP.part.hbond>
-1.7184

> <Gold.PLP.part.metal>
0.0000

> <Gold.PLP.part.buried>
-3.4840

> <Gold.PLP.part.nonpolar>
-33.7005

> <Gold.PLP.part.repulsive>
0.0052

> <Gold.PLP.ligand.clash>
0.0000

> <Gold.PLP.ligand.torsion>
0.5342

> <Gold.PLP.Chemscore.Hbond>
1.0000

> <Gold.PLP.Chemscore.CHOScore>
0.0000

> <Gold.PLP.Chemscore.Metal>
0.0000

> <Gold.Chemscore.Hbonds>
donor molecule, donor type, donor heavy atom, donor atom, acceptor molecule, acceptor atom, score
      P1  H  7997  8010       L1    28  1.00

> <Gold.PLP.Chemscore.Internal.Correction>
0.1228

> <Gold.Rescore>
     Score         DG    S(hbond)    S(metal)    S(lipo)     H(rot)  DE(clash)    DE(int)     intcor
     14.61     -15.22       0.96        0.00     101.65       2.09       0.10       0.50       ----

> <Gold.Chemscore.Fitness>
14.6136

> <Gold.Chemscore.DG>
-15.2152

> <Gold.Chemscore.ZeroCoef>
-5.4800

> <Gold.Chemscore.Hbond>
0.9578

> <Gold.Chemscore.Metal>
0.0000

> <Gold.Chemscore.Lipo>
101.6530

> <Gold.Chemscore.Internal_Hbond>
0.0000

> <Gold.Chemscore.DEClash>
0.0998

> <Gold.Chemscore.DEInternal>
0.5018

> <Gold.Chemscore.Rot>
2.0927

> <Gold.Chemscore.Internal.Correction>
   9.000000E+99

> <Gold.Chemscore.Hbonds>
donor molecule, donor type, donor heavy atom, donor atom, acceptor molecule, acceptor atom, score
      P1  H  7997  8010       L1    28  0.79

> <Gold.Chemscore.Hbond.Weighted>
-3.1991

> <Gold.Chemscore.Metal.Weighted>
-0.0000

> <Gold.Chemscore.Lipo.Weighted>
-11.8934

> <Gold.Chemscore.Internal_Hbond.Weighted>
0.0000

> <Gold.Chemscore.DEClash.Weighted>
0.0998

> <Gold.Chemscore.DEInternal.Weighted>
0.5018

> <Gold.Chemscore.Rot.Weighted>
5.3573

> <Gold.Chemscore.Internal.Correction.Weighted>
   9.000000E+99

> <Gold.Protein.RotatedTorsions>
[ 6907 6896 6895 6894 ] final  -52.98 input  -60.11 | X-H torsion
[ 7974 7965 7964 7962 ] final  -20.38 input  175.53 | X-H torsion
[ 8008 7997 7996 7995 ] final   71.52 input   59.86 | X-H torsion
[ 10167 10162 10161 10158 ] final   88.50 input  -65.29 | X-H torsion
[ 10718 10713 10712 10709 ] final  -42.05 input   66.30 | X-H torsion
[ 10763 10752 10751 10750 ] final -152.83 input  -60.55 | X-H torsion
[ 11005 11000 10999 10996 ] final -111.20 input  -57.11 | X-H torsion

> <Gold.Protein.ActiveResidues>
 VAL166  LYS551  ARG553  GLY616  TRP617  ASP618  TYR619  PRO620  LYS621  CYS622 
 ASP623  PHE694  ASN695  SER759  ASP760  ASP761  ALA762  ILE779  LEU786  VAL792 
 PHE793  MET794  SER795  GLU796  ALA797  LYS798  CYS799  TRP800  GLU811  SER814 

> <Gold.Protein.RotatedAtoms>
  150.8468  134.7780  159.6976 H   0  0  0  0  0  0  0  0  0  0  0  0  # atno 6907 bound_to 6896
  152.4543  134.5322  159.9824 H   0  0  0  0  0  0  0  0  0  0  0  0  # atno 6908 bound_to 6896
  151.5451  133.3388  159.2978 H   0  0  0  0  0  0  0  0  0  0  0  0  # atno 6909 bound_to 6896
  146.1791  140.4194  142.8502 H   0  0  0  0  0  0  0  0  0  0  0  0  # atno 7974 bound_to 7965
  155.7551  140.3488  155.5170 H   0  0  0  0  0  0  0  0  0  0  0  0  # atno 8008 bound_to 7997
  155.8967  140.1027  157.1400 H   0  0  0  0  0  0  0  0  0  0  0  0  # atno 8009 bound_to 7997
  154.4039  140.1294  156.4371 H   0  0  0  0  0  0  0  0  0  0  0  0  # atno 8010 bound_to 7997
  139.8667  144.6515  150.8996 H   0  0  0  0  0  0  0  0  0  0  0  0  # atno 10167 bound_to 10162
  156.2637  130.4199  149.8513 H   0  0  0  0  0  0  0  0  0  0  0  0  # atno 10718 bound_to 10713
  154.7968  135.3227  154.7647 H   0  0  0  0  0  0  0  0  0  0  0  0  # atno 10763 bound_to 10752
  153.8324  135.6878  153.4817 H   0  0  0  0  0  0  0  0  0  0  0  0  # atno 10764 bound_to 10752
  153.1664  135.4640  154.9784 H   0  0  0  0  0  0  0  0  0  0  0  0  # atno 10765 bound_to 10752
  141.0748  133.9319  157.2412 H   0  0  0  0  0  0  0  0  0  0  0  0  # atno 11005 bound_to 11000
  144.8285  140.6668  143.6306 LP  0  0  0  0  0  0  0  0  0  0  0  0  # atno 17320 bound_to 7965
  145.4128  139.1577  143.4116 LP  0  0  0  0  0  0  0  0  0  0  0  0  # atno 17321 bound_to 7965
  140.7767  143.3698  151.1670 LP  0  0  0  0  0  0  0  0  0  0  0  0  # atno 17342 bound_to 10162
  139.7323  143.9054  152.3023 LP  0  0  0  0  0  0  0  0  0  0  0  0  # atno 17343 bound_to 10162
  156.6019  130.8550  151.3434 LP  0  0  0  0  0  0  0  0  0  0  0  0  # atno 17370 bound_to 10713
  157.7260  130.9623  150.1637 LP  0  0  0  0  0  0  0  0  0  0  0  0  # atno 17371 bound_to 10713
  139.9560  135.0165  156.9130 LP  0  0  0  0  0  0  0  0  0  0  0  0  # atno 17394 bound_to 11000
  140.5597  134.0547  155.7395 LP  0  0  0  0  0  0  0  0  0  0  0  0  # atno 17395 bound_to 11000

$$$$
