AV-unprocessed.smi:2813|AV-procd|sdf|10838|dock7
  -GOLD-   2272015283D 1   1.00000     0.00000
 Structure written by MMmdl.
 41 42  0  0  0  0  0  0  0  0  1 V2000
  145.8465  141.8524  155.7779 C   0  0  0  0  0  0  0  0  0  0  0  0
  147.0761  141.0104  155.4865 C   0  0  0  0  0  0  0  0  0  0  0  0
  147.9095  141.4903  154.4720 N   0  0  0  0  0  0  0  0  0  0  0  0
  148.9801  140.8385  154.1546 C   0  0  0  0  0  0  0  0  0  0  0  0
  149.3414  139.6491  154.8086 N   0  0  0  0  0  0  0  0  0  0  0  0
  150.5858  139.0060  154.3533 C   0  0  0  0  0  0  0  0  0  0  0  0
  151.7112  139.1023  155.4088 C   0  0  1  0  0  0  0  0  0  0  0  0
  152.8463  139.6672  154.7818 O   0  0  0  0  0  0  0  0  0  0  0  0
  151.3286  140.0303  156.5745 C   0  0  0  0  0  0  0  0  0  0  0  0
  152.1502  139.7236  157.6937 O   0  0  0  0  0  0  0  0  0  0  0  0
  152.3839  140.7119  158.6258 C   0  0  0  0  0  0  0  0  0  0  0  0
  153.1715  140.3630  159.7413 C   0  0  0  0  0  0  0  0  0  0  0  0
  153.4584  141.3083  160.7434 C   0  0  0  0  0  0  0  0  0  0  0  0
  152.9612  142.6200  160.6371 C   0  0  0  0  0  0  0  0  0  0  0  0
  152.1758  142.9927  159.5256 C   0  0  0  0  0  0  0  0  0  0  0  0
  151.6271  144.4071  159.4057 C   0  0  0  0  0  0  0  0  0  0  0  0
  152.2292  145.0620  158.4123 F   0  0  0  0  0  0  0  0  0  0  0  0
  150.3203  144.3504  159.1522 F   0  0  0  0  0  0  0  0  0  0  0  0
  151.8154  145.0958  160.5319 F   0  0  0  0  0  0  0  0  0  0  0  0
  151.8847  142.0355  158.5289 C   0  0  0  0  0  0  0  0  0  0  0  0
  148.5801  139.1065  155.8027 C   0  0  0  0  0  0  0  0  0  0  0  0
  148.8988  138.0544  156.3598 O   0  0  0  0  0  0  0  0  0  0  0  0
  147.3654  139.8600  156.1541 C   0  0  0  0  0  0  0  0  0  0  0  0
  146.4944  139.2883  157.2658 C   0  0  0  0  0  0  0  0  0  0  0  0
  145.8508  142.1907  156.8145 H   0  0  0  0  0  0  0  0  0  0  0  0
  144.9386  141.2745  155.6024 H   0  0  0  0  0  0  0  0  0  0  0  0
  145.8094  142.7359  155.1392 H   0  0  0  0  0  0  0  0  0  0  0  0
  149.6594  141.1663  153.3659 H   0  0  0  0  0  0  0  0  0  0  0  0
  150.4272  137.9677  154.0539 H   0  0  0  0  0  0  0  0  0  0  0  0
  150.9038  139.5002  153.4337 H   0  0  0  0  0  0  0  0  0  0  0  0
  151.9543  138.1128  155.7982 H   0  0  0  0  0  0  0  0  0  0  0  0
  153.2073  139.0320  154.1825 H   0  0  0  0  0  0  0  0  0  0  0  0
  151.4171  141.0781  156.2815 H   0  0  0  0  0  0  0  0  0  0  0  0
  150.2908  139.8498  156.8593 H   0  0  0  0  0  0  0  0  0  0  0  0
  153.5584  139.3583  159.8311 H   0  0  0  0  0  0  0  0  0  0  0  0
  154.0599  141.0258  161.5947 H   0  0  0  0  0  0  0  0  0  0  0  0
  153.1848  143.3357  161.4143 H   0  0  0  0  0  0  0  0  0  0  0  0
  151.2714  142.3396  157.6948 H   0  0  0  0  0  0  0  0  0  0  0  0
  146.1456  138.2913  156.9948 H   0  0  0  0  0  0  0  0  0  0  0  0
  145.6167  139.8959  157.4799 H   0  0  0  0  0  0  0  0  0  0  0  0
  147.0689  139.2070  158.1892 H   0  0  0  0  0  0  0  0  0  0  0  0
  1  2  1  0  0  0  0
  1 25  1  0  0  0  0
  1 26  1  0  0  0  0
  1 27  1  0  0  0  0
  2 23  2  0  0  0  0
  2  3  1  0  0  0  0
  3  4  2  0  0  0  0
  4  5  1  0  0  0  0
  4 28  1  0  0  0  0
  5  6  1  0  0  0  0
  5 21  1  0  0  0  0
  6  7  1  0  0  0  0
  6 29  1  0  0  0  0
  6 30  1  0  0  0  0
  7  8  1  0  0  0  0
  7  9  1  0  0  0  0
  7 31  1  0  0  0  0
  8 32  1  0  0  0  0
  9 10  1  0  0  0  0
  9 33  1  0  0  0  0
  9 34  1  0  0  0  0
 10 11  1  0  0  0  0
 11 20  1  0  0  0  0
 11 12  2  0  0  0  0
 12 13  1  0  0  0  0
 12 35  1  0  0  0  0
 13 14  2  0  0  0  0
 13 36  1  0  0  0  0
 14 15  1  0  0  0  0
 14 37  1  0  0  0  0
 15 16  1  0  0  0  0
 15 20  2  0  0  0  0
 16 17  1  0  0  0  0
 16 18  1  0  0  0  0
 16 19  1  0  0  0  0
 20 38  1  0  0  0  0
 21 22  2  0  0  0  0
 21 23  1  0  0  0  0
 23 24  1  0  0  0  0
 24 39  1  0  0  0  0
 24 40  1  0  0  0  0
 24 41  1  0  0  0  0
M  END
> <s_m_source_file>
AV-unprocessed.smi

> <i_m_source_file_index>
2813

> <i_lp_mmshare_version>
43012

> <i_f3d_flags>
0

> <s_epik_input>
W0NIM11jMW5bY0hdbihjKD1PKWMxW0NIM10pW0NIMl1bQ0BIXShbT0hdKVtDSDJdT2MyW2NIXVtjSF1bY0hdYyhDKEYpKEYpRilbY0hdMg==

> <s_epik_cmdline>
J2VwaWtfcHl0aG9uJywgJy1waCcsICc3LjAnLCAnLXRuJywgJzgnLCAnLW1hJywgJzIwMCcsICctbWV0YWxfYmluZGluZycsICctaW1hZScsICc8aW5maWxlLm1hZT4nLCAnLW9tYWUnLCAnPG91dGZpbGUubWFlPic=

> <r_lp_tautomer_probability>
1

> <r_epik_Ionization_Penalty>
3.72236e-05

> <r_epik_Ionization_Penalty_Charging>
8.38864e-08

> <r_epik_Ionization_Penalty_Neutral>
3.71397e-05

> <r_epik_State_Penalty>
-0

> <r_epik_Charging_Adjusted_Penalty>
8.38864e-08

> <i_epik_Tot_Q>
0

> <i_epik_Tot_abs_Q>
0

> <r_epik_Metal_State_Penalty>
-0

> <b_epik_Metal_Only>
0

> <s_lp_Force_Field>
OPLS_2005

> <r_lp_Energy>
24.625

> <b_lp_Chiralities_Consistent>
1

> <s_lp_Variant>
AV-unprocessed.smi:2813-2

> <Gold.Version>
5.8.1

> <Gold.Id.Protein>
6NUR|6NUR_protein|mol2

> <Gold.PLP.Fitness>
53.9735

> <Gold.PLP.PLP>
-50.6061

> <Gold.PLP.part.hbond>
-2.0000

> <Gold.PLP.part.metal>
0.0000

> <Gold.PLP.part.buried>
-6.3421

> <Gold.PLP.part.nonpolar>
-42.8247

> <Gold.PLP.part.repulsive>
0.1435

> <Gold.PLP.ligand.clash>
0.7220

> <Gold.PLP.ligand.torsion>
1.4510

> <Gold.PLP.Chemscore.Hbond>
1.1945

> <Gold.PLP.Chemscore.CHOScore>
0.7866

> <Gold.PLP.Chemscore.Metal>
0.0000

> <Gold.Chemscore.Hbonds>
donor molecule, donor type, donor heavy atom, donor atom, acceptor molecule, acceptor atom, score
      P1  H  7989  7998       L1     8  0.27
      P1  H  7997  8008       L1     8  1.00
      L1  C     4    28       P1  7957  0.81

> <Gold.PLP.Chemscore.Internal.Correction>
1.0481

> <Gold.Rescore>
     Score         DG    S(hbond)    S(metal)    S(lipo)     H(rot)  DE(clash)    DE(int)     intcor
     11.64     -13.07       0.92        0.00      98.31       2.73       0.26       1.16       ----

> <Gold.Chemscore.Fitness>
11.6400

> <Gold.Chemscore.DG>
-13.0660

> <Gold.Chemscore.ZeroCoef>
-5.4800

> <Gold.Chemscore.Hbond>
0.9201

> <Gold.Chemscore.Metal>
0.0000

> <Gold.Chemscore.Lipo>
98.3056

> <Gold.Chemscore.Internal_Hbond>
0.0000

> <Gold.Chemscore.DEClash>
0.2621

> <Gold.Chemscore.DEInternal>
1.1639

> <Gold.Chemscore.Rot>
2.7300

> <Gold.Chemscore.Internal.Correction>
   9.000000E+99

> <Gold.Chemscore.Hbonds>
donor molecule, donor type, donor heavy atom, donor atom, acceptor molecule, acceptor atom, score
      P1  H  7989  7998       L1     8  0.01
      P1  H  7997  8008       L1     8  0.24

> <Gold.Chemscore.Hbond.Weighted>
-3.0730

> <Gold.Chemscore.Metal.Weighted>
-0.0000

> <Gold.Chemscore.Lipo.Weighted>
-11.5018

> <Gold.Chemscore.Internal_Hbond.Weighted>
0.0000

> <Gold.Chemscore.DEClash.Weighted>
0.2621

> <Gold.Chemscore.DEInternal.Weighted>
1.1639

> <Gold.Chemscore.Rot.Weighted>
6.9888

> <Gold.Chemscore.Internal.Correction.Weighted>
   9.000000E+99

> <Gold.Protein.RotatedTorsions>
[ 6907 6896 6895 6894 ] final   68.26 input  -60.11 | X-H torsion
[ 7974 7965 7964 7962 ] final  -45.15 input  175.53 | X-H torsion
[ 8008 7997 7996 7995 ] final   -8.52 input   59.86 | X-H torsion
[ 10167 10162 10161 10158 ] final  179.40 input  -65.29 | X-H torsion
[ 10718 10713 10712 10709 ] final  148.32 input   66.30 | X-H torsion
[ 10763 10752 10751 10750 ] final   53.20 input  -60.55 | X-H torsion
[ 11005 11000 10999 10996 ] final   17.82 input  -57.11 | X-H torsion

> <Gold.Protein.ActiveResidues>
 VAL166  LYS551  ARG553  GLY616  TRP617  ASP618  TYR619  PRO620  LYS621  CYS622 
 ASP623  PHE694  ASN695  SER759  ASP760  ASP761  ALA762  ILE779  LEU786  VAL792 
 PHE793  MET794  SER795  GLU796  ALA797  LYS798  CYS799  TRP800  GLU811  SER814 

> <Gold.Protein.RotatedAtoms>
  152.4608  134.5188  159.9775 H   0  0  0  0  0  0  0  0  0  0  0  0  # atno 6907 bound_to 6896
  151.5237  133.3456  159.2914 H   0  0  0  0  0  0  0  0  0  0  0  0  # atno 6908 bound_to 6896
  150.8570  134.7942  159.7116 H   0  0  0  0  0  0  0  0  0  0  0  0  # atno 6909 bound_to 6896
  145.9849  140.7243  142.9345 H   0  0  0  0  0  0  0  0  0  0  0  0  # atno 7974 bound_to 7965
  154.5733  140.2379  155.8159 H   0  0  0  0  0  0  0  0  0  0  0  0  # atno 8008 bound_to 7997
  156.2124  140.3022  155.9719 H   0  0  0  0  0  0  0  0  0  0  0  0  # atno 8009 bound_to 7997
  155.2673  140.0417  157.2994 H   0  0  0  0  0  0  0  0  0  0  0  0  # atno 8010 bound_to 7997
  139.5335  144.2566  152.0741 H   0  0  0  0  0  0  0  0  0  0  0  0  # atno 10167 bound_to 10162
  157.3100  131.0886  151.1323 H   0  0  0  0  0  0  0  0  0  0  0  0  # atno 10718 bound_to 10713
  152.9793  135.5787  154.4703 H   0  0  0  0  0  0  0  0  0  0  0  0  # atno 10763 bound_to 10752
  154.4266  135.2772  155.1942 H   0  0  0  0  0  0  0  0  0  0  0  0  # atno 10764 bound_to 10752
  154.3668  135.6176  153.5773 H   0  0  0  0  0  0  0  0  0  0  0  0  # atno 10765 bound_to 10752
  140.4317  134.1413  155.7681 H   0  0  0  0  0  0  0  0  0  0  0  0  # atno 11005 bound_to 11000
  144.6872  140.2972  143.7269 LP  0  0  0  0  0  0  0  0  0  0  0  0  # atno 17320 bound_to 7965
  145.7715  139.1859  143.2210 LP  0  0  0  0  0  0  0  0  0  0  0  0  # atno 17321 bound_to 7965
  140.2033  144.4636  150.6421 LP  0  0  0  0  0  0  0  0  0  0  0  0  # atno 17342 bound_to 10162
  140.6527  143.2229  151.6040 LP  0  0  0  0  0  0  0  0  0  0  0  0  # atno 17343 bound_to 10162
  157.2649  130.6676  149.5992 LP  0  0  0  0  0  0  0  0  0  0  0  0  # atno 17370 bound_to 10713
  155.9677  130.4497  150.5669 LP  0  0  0  0  0  0  0  0  0  0  0  0  # atno 17371 bound_to 10713
  141.1743  133.8546  157.1473 LP  0  0  0  0  0  0  0  0  0  0  0  0  # atno 17394 bound_to 11000
  140.0130  134.9980  157.0434 LP  0  0  0  0  0  0  0  0  0  0  0  0  # atno 17395 bound_to 11000

$$$$
