AV-unprocessed.smi:81|AV-procd|sdf|791|dock1
  -GOLD-   2262017163D 1   1.00000     0.00000
 Structure written by MMmdl.
 64 67  0  0  0  0  0  0  0  0  2 V2000
  151.3025  142.5087  158.8806 C   0  0  0  0  0  0  0  0  0  0  0  0
  150.1145  142.4491  157.9064 C   0  0  0  0  0  0  0  0  0  0  0  0
  148.9443  143.2672  158.4734 C   0  0  0  0  0  0  0  0  0  0  0  0
  149.6462  141.0041  157.5997 C   0  0  0  0  0  0  0  0  0  0  0  0
  150.6592  140.1158  157.0113 N   0  0  0  0  0  0  0  0  0  0  0  0
  150.6282  138.8807  157.5700 C   0  0  0  0  0  0  0  0  0  0  0  0
  151.7512  138.1147  157.5892 N   0  0  0  0  0  0  0  0  0  0  0  0
  151.7150  136.8895  158.1218 C   0  0  0  0  0  0  0  0  0  0  0  0
  150.6819  136.2498  158.6744 N   0  0  0  0  0  0  0  0  0  0  0  0
  149.5540  137.0168  158.6545 C   0  0  0  0  0  0  0  0  0  0  0  0
  149.4429  138.3335  158.1288 C   0  0  0  0  0  0  0  0  0  0  0  0
  148.1480  138.8075  158.2944 N   0  0  0  0  0  0  0  0  0  0  0  0
  147.5233  137.8193  158.8747 C   0  0  0  0  0  0  0  0  0  0  0  0
  148.2885  136.6999  159.1166 N   0  0  0  0  0  0  0  0  0  0  0  0
  147.8445  135.4582  159.7311 C   0  0  0  0  0  0  0  0  0  0  0  0
  147.4822  135.6087  161.2294 C   0  0  2  0  0  0  0  0  0  0  0  0
  148.3154  136.6103  161.7893 O   0  0  0  0  0  0  0  0  0  0  0  0
  147.7067  134.3099  162.0106 C   0  0  0  0  0  0  0  0  0  0  0  0
  146.3008  133.8518  162.3796 C   0  0  0  0  0  0  0  0  0  0  0  0
  145.6056  135.0738  162.5501 O   0  0  0  0  0  0  0  0  0  0  0  0
  145.9812  135.9169  161.4711 C   0  0  1  0  0  0  0  0  0  0  0  0
  145.6012  137.3775  161.7658 C   0  0  0  0  0  0  0  0  0  0  0  0
  151.0814  140.2169  155.6009 C   0  0  2  0  0  0  0  0  0  0  0  0
  150.2631  141.2598  154.7961 C   0  0  0  0  0  0  0  0  0  0  0  0
  148.7940  140.8292  154.6325 C   0  0  0  0  0  0  0  0  0  0  0  0
  148.6972  139.5070  153.9662 N   0  3  2  0  0  0  0  0  0  0  0  0
  147.2965  139.1017  153.7230 C   0  0  0  0  0  0  0  0  0  0  0  0
  149.4734  138.4599  154.6757 C   0  0  0  0  0  0  0  0  0  0  0  0
  150.9466  138.8785  154.8396 C   0  0  0  0  0  0  0  0  0  0  0  0
  151.0682  142.0098  159.8210 H   0  0  0  0  0  0  0  0  0  0  0  0
  151.5638  143.5413  159.1130 H   0  0  0  0  0  0  0  0  0  0  0  0
  152.1958  142.0454  158.4686 H   0  0  0  0  0  0  0  0  0  0  0  0
  150.4121  142.9382  156.9793 H   0  0  0  0  0  0  0  0  0  0  0  0
  148.5824  142.8456  159.4116 H   0  0  0  0  0  0  0  0  0  0  0  0
  148.1072  143.2923  157.7750 H   0  0  0  0  0  0  0  0  0  0  0  0
  149.2391  144.2998  158.6632 H   0  0  0  0  0  0  0  0  0  0  0  0
  149.2192  140.5516  158.4931 H   0  0  0  0  0  0  0  0  0  0  0  0
  148.8088  141.0526  156.9025 H   0  0  0  0  0  0  0  0  0  0  0  0
  152.6461  136.3424  158.1001 H   0  0  0  0  0  0  0  0  0  0  0  0
  146.4762  137.8754  159.1357 H   0  0  0  0  0  0  0  0  0  0  0  0
  146.9829  135.0889  159.1735 H   0  0  0  0  0  0  0  0  0  0  0  0
  148.6311  134.7132  159.6029 H   0  0  0  0  0  0  0  0  0  0  0  0
  148.9025  136.1989  162.4050 H   0  0  0  0  0  0  0  0  0  0  0  0
  148.2496  133.5510  161.4459 H   0  0  0  0  0  0  0  0  0  0  0  0
  148.2693  134.4938  162.9275 H   0  0  0  0  0  0  0  0  0  0  0  0
  145.8486  133.2802  161.5673 H   0  0  0  0  0  0  0  0  0  0  0  0
  146.2789  133.2442  163.2843 H   0  0  0  0  0  0  0  0  0  0  0  0
  145.4017  135.5771  160.6119 H   0  0  0  0  0  0  0  0  0  0  0  0
  145.9069  138.0370  160.9534 H   0  0  0  0  0  0  0  0  0  0  0  0
  146.0634  137.7367  162.6854 H   0  0  0  0  0  0  0  0  0  0  0  0
  144.5222  137.4773  161.8817 H   0  0  0  0  0  0  0  0  0  0  0  0
  152.1250  140.5292  155.5868 H   0  0  0  0  0  0  0  0  0  0  0  0
  150.3098  142.2522  155.2428 H   0  0  0  0  0  0  0  0  0  0  0  0
  150.7091  141.3746  153.8071 H   0  0  0  0  0  0  0  0  0  0  0  0
  148.2984  140.7893  155.6038 H   0  0  0  0  0  0  0  0  0  0  0  0
  148.2619  141.5730  154.0384 H   0  0  0  0  0  0  0  0  0  0  0  0
  146.7589  138.9684  154.6627 H   0  0  0  0  0  0  0  0  0  0  0  0
  147.2580  138.1628  153.1698 H   0  0  0  0  0  0  0  0  0  0  0  0
  146.7744  139.8562  153.1337 H   0  0  0  0  0  0  0  0  0  0  0  0
  149.0215  138.2645  155.6496 H   0  0  0  0  0  0  0  0  0  0  0  0
  149.4218  137.5276  154.1122 H   0  0  0  0  0  0  0  0  0  0  0  0
  151.3943  138.9861  153.8507 H   0  0  0  0  0  0  0  0  0  0  0  0
  151.5138  138.0833  155.3208 H   0  0  0  0  0  0  0  0  0  0  0  0
  149.1266  139.6137  153.0582 H   0  0  0  0  0  0  0  0  0  0  0  0
  1  2  1  0  0  0  0
  1 30  1  0  0  0  0
  1 31  1  0  0  0  0
  1 32  1  0  0  0  0
  2  3  1  0  0  0  0
  2  4  1  0  0  0  0
  2 33  1  0  0  0  0
  3 34  1  0  0  0  0
  3 35  1  0  0  0  0
  3 36  1  0  0  0  0
  4  5  1  0  0  0  0
  4 37  1  0  0  0  0
  4 38  1  0  0  0  0
  5  6  1  0  0  0  0
  5 23  1  0  0  0  0
  6 11  1  0  0  0  0
  6  7  2  0  0  0  0
  7  8  1  0  0  0  0
  8  9  2  0  0  0  0
  8 39  1  0  0  0  0
  9 10  1  0  0  0  0
 10 14  1  0  0  0  0
 10 11  2  0  0  0  0
 11 12  1  0  0  0  0
 12 13  2  0  0  0  0
 13 14  1  0  0  0  0
 13 40  1  0  0  0  0
 14 15  1  0  0  0  0
 15 16  1  0  0  0  0
 15 41  1  0  0  0  0
 15 42  1  0  0  0  0
 16 21  1  0  0  0  0
 16 17  1  0  0  0  0
 16 18  1  0  0  0  0
 17 43  1  0  0  0  0
 18 19  1  0  0  0  0
 18 44  1  0  0  0  0
 18 45  1  0  0  0  0
 19 20  1  0  0  0  0
 19 46  1  0  0  0  0
 19 47  1  0  0  0  0
 20 21  1  0  0  0  0
 21 22  1  0  0  0  0
 21 48  1  0  0  0  0
 22 49  1  0  0  0  0
 22 50  1  0  0  0  0
 22 51  1  0  0  0  0
 23 29  1  0  0  0  0
 23 24  1  0  0  0  0
 23 52  1  0  0  0  0
 24 25  1  0  0  0  0
 24 53  1  0  0  0  0
 24 54  1  0  0  0  0
 25 26  1  0  0  0  0
 25 55  1  0  0  0  0
 25 56  1  0  0  0  0
 26 27  1  0  0  0  0
 26 28  1  0  0  0  0
 26 64  1  0  0  0  0
 27 57  1  0  0  0  0
 27 58  1  0  0  0  0
 27 59  1  0  0  0  0
 28 29  1  0  0  0  0
 28 60  1  0  0  0  0
 28 61  1  0  0  0  0
 29 62  1  0  0  0  0
 29 63  1  0  0  0  0
M  CHG  1  26   1
M  END
> <s_m_source_file>
AV-unprocessed.smi

> <i_m_source_file_index>
81

> <i_lp_mmshare_version>
43012

> <i_f3d_flags>
0

> <s_epik_input>
W0NIMl0xW0NIMl1OKFtDSDNdKVtDSDJdW0NIMl1bQ0hdMU4oW0NIMl1bQ0hdKFtDSDNdKVtDSDNdKWMobltjSF1uMiljKGMyMyluW2NIXW4zW0NIMl1bQ0BAXTQoW09IXSlbQ0gyXVtDSDJdT1tDQEhdNFtDSDNd

> <s_epik_cmdline>
J2VwaWtfcHl0aG9uJywgJy1waCcsICc3LjAnLCAnLXRuJywgJzgnLCAnLW1hJywgJzIwMCcsICctbWV0YWxfYmluZGluZycsICctaW1hZScsICc8aW5maWxlLm1hZT4nLCAnLW9tYWUnLCAnPG91dGZpbGUubWFlPic=

> <r_lp_tautomer_probability>
1

> <r_epik_Ionization_Penalty>
0.00272708

> <r_epik_Ionization_Penalty_Charging>
0.00158983

> <r_epik_Ionization_Penalty_Neutral>
0.00113725

> <r_epik_State_Penalty>
-0

> <r_epik_Charging_Adjusted_Penalty>
0.00158983

> <i_epik_Tot_Q>
1

> <i_epik_Tot_abs_Q>
1

> <r_epik_Metal_State_Penalty>
-0

> <b_epik_Metal_Only>
0

> <s_lp_Force_Field>
OPLS_2005

> <r_lp_Energy>
49.6566

> <b_lp_Chiralities_Consistent>
1

> <s_lp_Variant>
AV-unprocessed.smi:81-6

> <Gold.Version>
5.8.1

> <Gold.Id.Protein>
6NUR|6NUR_protein|mol2

> <Gold.PLP.Fitness>
44.0475

> <Gold.PLP.PLP>
-38.3476

> <Gold.PLP.part.hbond>
-4.0000

> <Gold.PLP.part.metal>
0.0000

> <Gold.PLP.part.buried>
-0.4518

> <Gold.PLP.part.nonpolar>
-33.2409

> <Gold.PLP.part.repulsive>
0.0801

> <Gold.PLP.ligand.clash>
0.8288

> <Gold.PLP.ligand.torsion>
1.8411

> <Gold.PLP.Chemscore.Hbond>
2.7460

> <Gold.PLP.Chemscore.CHOScore>
0.0000

> <Gold.PLP.Chemscore.Metal>
0.0000

> <Gold.Chemscore.Hbonds>
donor molecule, donor type, donor heavy atom, donor atom, acceptor molecule, acceptor atom, score
      L1  H    26    64       P1  7957  1.00
      P1  H  6896  6907       L1     9  0.88
      P1  H  6931  6943       L1    17  0.75

> <Gold.PLP.Chemscore.Internal.Correction>
1.9730

> <Gold.Rescore>
     Score         DG    S(hbond)    S(metal)    S(lipo)     H(rot)  DE(clash)    DE(int)     intcor
     12.03     -19.13       2.40        0.00      98.96       2.32       2.72       4.39       ----

> <Gold.Chemscore.Fitness>
12.0255

> <Gold.Chemscore.DG>
-19.1318

> <Gold.Chemscore.ZeroCoef>
-5.4800

> <Gold.Chemscore.Hbond>
2.3963

> <Gold.Chemscore.Metal>
0.0000

> <Gold.Chemscore.Lipo>
98.9558

> <Gold.Chemscore.Internal_Hbond>
0.0000

> <Gold.Chemscore.DEClash>
2.7187

> <Gold.Chemscore.DEInternal>
4.3875

> <Gold.Chemscore.Rot>
2.3163

> <Gold.Chemscore.Internal.Correction>
   9.000000E+99

> <Gold.Chemscore.Hbonds>
donor molecule, donor type, donor heavy atom, donor atom, acceptor molecule, acceptor atom, score
      L1  H    26    64       P1  7957  0.96
      P1  H  6896  6907       L1     9  0.85
      P1  H  6931  6943       L1    17  0.09

> <Gold.Chemscore.Hbond.Weighted>
-8.0037

> <Gold.Chemscore.Metal.Weighted>
-0.0000

> <Gold.Chemscore.Lipo.Weighted>
-11.5778

> <Gold.Chemscore.Internal_Hbond.Weighted>
0.0000

> <Gold.Chemscore.DEClash.Weighted>
2.7187

> <Gold.Chemscore.DEInternal.Weighted>
4.3875

> <Gold.Chemscore.Rot.Weighted>
5.9297

> <Gold.Chemscore.Internal.Correction.Weighted>
   9.000000E+99

> <Gold.Protein.RotatedTorsions>
[ 6907 6896 6895 6894 ] final  -44.23 input  -60.11 | X-H torsion
[ 7974 7965 7964 7962 ] final  -30.81 input  175.53 | X-H torsion
[ 8008 7997 7996 7995 ] final  -18.49 input   59.86 | X-H torsion
[ 10167 10162 10161 10158 ] final   11.71 input  -65.29 | X-H torsion
[ 10718 10713 10712 10709 ] final -132.67 input   66.30 | X-H torsion
[ 10763 10752 10751 10750 ] final    0.64 input  -60.55 | X-H torsion
[ 11005 11000 10999 10996 ] final   12.80 input  -57.11 | X-H torsion

> <Gold.Protein.ActiveResidues>
 VAL166  LYS551  ARG553  GLY616  TRP617  ASP618  TYR619  PRO620  LYS621  CYS622 
 ASP623  PHE694  ASN695  SER759  ASP760  ASP761  ALA762  ILE779  LEU786  VAL792 
 PHE793  MET794  SER795  GLU796  ALA797  LYS798  CYS799  TRP800  GLU811  SER814 

> <Gold.Protein.RotatedAtoms>
  150.9352  134.8764  159.7576 H   0  0  0  0  0  0  0  0  0  0  0  0  # atno 6907 bound_to 6896
  152.5056  134.4022  159.9430 H   0  0  0  0  0  0  0  0  0  0  0  0  # atno 6908 bound_to 6896
  151.4046  133.3706  159.2771 H   0  0  0  0  0  0  0  0  0  0  0  0  # atno 6909 bound_to 6896
  146.1115  140.5588  142.8776 H   0  0  0  0  0  0  0  0  0  0  0  0  # atno 7974 bound_to 7965
  154.4902  140.2114  155.9565 H   0  0  0  0  0  0  0  0  0  0  0  0  # atno 8008 bound_to 7997
  156.1295  140.3199  155.8295 H   0  0  0  0  0  0  0  0  0  0  0  0  # atno 8009 bound_to 7997
  155.4323  140.0504  157.3008 H   0  0  0  0  0  0  0  0  0  0  0  0  # atno 8010 bound_to 7997
  140.6114  143.8399  150.7070 H   0  0  0  0  0  0  0  0  0  0  0  0  # atno 10167 bound_to 10162
  156.2370  130.7072  151.0918 H   0  0  0  0  0  0  0  0  0  0  0  0  # atno 10718 bound_to 10713
  153.3180  135.6967  153.7055 H   0  0  0  0  0  0  0  0  0  0  0  0  # atno 10763 bound_to 10752
  153.5907  135.3480  155.2910 H   0  0  0  0  0  0  0  0  0  0  0  0  # atno 10764 bound_to 10752
  154.8591  135.4317  154.2337 H   0  0  0  0  0  0  0  0  0  0  0  0  # atno 10765 bound_to 10752
  140.4879  134.0869  155.7765 H   0  0  0  0  0  0  0  0  0  0  0  0  # atno 11005 bound_to 11000
  144.7515  140.5204  143.6798 LP  0  0  0  0  0  0  0  0  0  0  0  0  # atno 17320 bound_to 7965
  145.5654  139.1481  143.3318 LP  0  0  0  0  0  0  0  0  0  0  0  0  # atno 17321 bound_to 7965
  140.1968  143.3991  152.1821 LP  0  0  0  0  0  0  0  0  0  0  0  0  # atno 17342 bound_to 10162
  139.5364  144.7214  151.4878 LP  0  0  0  0  0  0  0  0  0  0  0  0  # atno 17343 bound_to 10162
  157.7158  131.0710  150.6330 LP  0  0  0  0  0  0  0  0  0  0  0  0  # atno 17370 bound_to 10713
  156.6401  130.4456  149.5755 LP  0  0  0  0  0  0  0  0  0  0  0  0  # atno 17371 bound_to 10713
  141.1498  133.8988  157.2125 LP  0  0  0  0  0  0  0  0  0  0  0  0  # atno 17394 bound_to 11000
  139.9786  135.0105  156.9694 LP  0  0  0  0  0  0  0  0  0  0  0  0  # atno 17395 bound_to 11000

$$$$
