AV-unprocessed.smi:1922|AV-procd|sdf|7788|dock6
  -GOLD-   22720 9533D 1   1.00000     0.00000
 Structure written by MMmdl.
 35 36  0  0  0  0  0  0  0  0  1 V2000
  152.5176  139.9875  157.6065 O   0  0  0  0  0  0  0  0  0  0  0  0
  151.3997  140.4982  157.6637 C   0  0  0  0  0  0  0  0  0  0  0  0
  150.1841  139.7086  157.1460 C   0  0  0  0  0  0  0  0  0  0  0  0
  149.3131  140.4530  156.2208 N   0  0  0  0  0  0  0  0  0  0  0  0
  148.1808  140.9886  156.8162 N   0  0  0  0  0  0  0  0  0  0  0  0
  147.3274  141.6450  156.1053 C   0  0  0  0  0  0  0  0  0  0  0  0
  146.2183  142.1553  156.7342 O   0  0  0  0  0  0  0  0  0  0  0  0
  147.5280  141.8401  154.6861 C   0  0  0  0  0  0  0  0  0  0  0  0
  148.6353  141.3173  154.1155 C   0  0  0  0  0  0  0  0  0  0  0  0
  149.6220  140.5648  154.8919 C   0  0  0  0  0  0  0  0  0  0  0  0
  150.6320  140.0670  154.3956 O   0  0  0  0  0  0  0  0  0  0  0  0
  151.1864  141.7232  158.1686 N   0  0  0  0  0  0  0  0  0  0  0  0
  152.2108  142.5879  158.7345 C   0  0  0  0  0  0  0  0  0  0  0  0
  152.3024  142.3891  160.2565 C   0  0  0  0  0  0  0  0  0  0  0  0
  152.3247  143.6965  161.0493 C   0  0  0  0  0  0  0  0  0  0  0  0
  152.8710  143.3068  162.4263 C   0  0  0  0  0  0  0  0  0  0  0  0
  153.7159  142.0414  162.2108 C   0  0  0  0  0  0  0  0  0  0  0  0
  153.5714  141.6712  160.7295 C   0  0  0  0  0  0  0  0  0  0  0  0
  145.7465  142.6306  156.0678 H   0  0  0  0  0  0  0  0  0  0  0  0
  150.5562  138.8063  156.6577 H   0  0  0  0  0  0  0  0  0  0  0  0
  149.6073  139.3539  158.0020 H   0  0  0  0  0  0  0  0  0  0  0  0
  146.8057  142.3933  154.1039 H   0  0  0  0  0  0  0  0  0  0  0  0
  148.7986  141.4559  153.0568 H   0  0  0  0  0  0  0  0  0  0  0  0
  150.2389  142.0721  158.1777 H   0  0  0  0  0  0  0  0  0  0  0  0
  153.1690  142.3644  158.2629 H   0  0  0  0  0  0  0  0  0  0  0  0
  151.9754  143.6289  158.5084 H   0  0  0  0  0  0  0  0  0  0  0  0
  151.4399  141.8080  160.5881 H   0  0  0  0  0  0  0  0  0  0  0  0
  153.0048  144.4068  160.5767 H   0  0  0  0  0  0  0  0  0  0  0  0
  151.3434  144.1682  161.1082 H   0  0  0  0  0  0  0  0  0  0  0  0
  153.4486  144.1165  162.8734 H   0  0  0  0  0  0  0  0  0  0  0  0
  152.0452  143.0840  163.1033 H   0  0  0  0  0  0  0  0  0  0  0  0
  154.7618  142.2030  162.4746 H   0  0  0  0  0  0  0  0  0  0  0  0
  153.3423  141.2343  162.8426 H   0  0  0  0  0  0  0  0  0  0  0  0
  153.5245  140.5925  160.5749 H   0  0  0  0  0  0  0  0  0  0  0  0
  154.4353  142.0442  160.1771 H   0  0  0  0  0  0  0  0  0  0  0  0
  1  2  2  0  0  0  0
  2  3  1  0  0  0  0
  2 12  1  0  0  0  0
  3 20  1  0  0  0  0
  3 21  1  0  0  0  0
  3  4  1  0  0  0  0
  4  5  1  0  0  0  0
  4 10  1  0  0  0  0
  5  6  2  0  0  0  0
  6  7  1  0  0  0  0
  6  8  1  0  0  0  0
  7 19  1  0  0  0  0
  8 22  1  0  0  0  0
  8  9  2  0  0  0  0
  9 23  1  0  0  0  0
  9 10  1  0  0  0  0
 10 11  2  0  0  0  0
 12 13  1  0  0  0  0
 12 24  1  0  0  0  0
 13 14  1  0  0  0  0
 13 25  1  0  0  0  0
 13 26  1  0  0  0  0
 14 18  1  0  0  0  0
 14 15  1  0  0  0  0
 14 27  1  0  0  0  0
 15 16  1  0  0  0  0
 15 28  1  0  0  0  0
 15 29  1  0  0  0  0
 16 17  1  0  0  0  0
 16 30  1  0  0  0  0
 16 31  1  0  0  0  0
 17 18  1  0  0  0  0
 17 32  1  0  0  0  0
 17 33  1  0  0  0  0
 18 34  1  0  0  0  0
 18 35  1  0  0  0  0
M  END
> <s_m_source_file>
AV-unprocessed.smi

> <i_m_source_file_index>
1922

> <i_lp_mmshare_version>
43012

> <i_f3d_flags>
0

> <s_epik_input>
W0NIMl0xW0NIMl1bQ0gyXVtDSDJdW0NIXTFbQ0gyXVtOSF1DKD1PKVtDSDJdbjJbbkhdYyg9TylbY0hdW2NIXWMyPU8=

> <s_epik_cmdline>
J2VwaWtfcHl0aG9uJywgJy1waCcsICc3LjAnLCAnLXRuJywgJzgnLCAnLW1hJywgJzIwMCcsICctbWV0YWxfYmluZGluZycsICctaW1hZScsICc8aW5maWxlLm1hZT4nLCAnLW9tYWUnLCAnPG91dGZpbGUubWFlPic=

> <r_lp_tautomer_probability>
0.9996

> <r_epik_Ionization_Penalty>
2.12182

> <r_epik_Ionization_Penalty_Charging>
3.68417e-08

> <r_epik_Ionization_Penalty_Neutral>
2.12182

> <r_epik_State_Penalty>
1.69868

> <r_epik_Charging_Adjusted_Penalty>
1.69868

> <i_epik_Tot_Q>
0

> <i_epik_Tot_abs_Q>
0

> <r_epik_Metal_State_Penalty>
1.69868

> <b_epik_Metal_Only>
0

> <s_lp_Force_Field>
OPLS_2005

> <r_lp_Energy>
31.2069

> <b_lp_Chiralities_Consistent>
1

> <s_lp_Variant>
AV-unprocessed.smi:1922-2

> <Gold.Version>
5.8.1

> <Gold.Id.Protein>
6NUR|6NUR_protein|mol2

> <Gold.PLP.Fitness>
40.4232

> <Gold.PLP.PLP>
-36.9700

> <Gold.PLP.part.hbond>
-1.9840

> <Gold.PLP.part.metal>
0.0000

> <Gold.PLP.part.buried>
-4.4042

> <Gold.PLP.part.nonpolar>
-31.2672

> <Gold.PLP.part.repulsive>
0.2296

> <Gold.PLP.ligand.clash>
0.0000

> <Gold.PLP.ligand.torsion>
1.2641

> <Gold.PLP.Chemscore.Hbond>
1.9913

> <Gold.PLP.Chemscore.CHOScore>
0.0000

> <Gold.PLP.Chemscore.Metal>
0.0000

> <Gold.Chemscore.Hbonds>
donor molecule, donor type, donor heavy atom, donor atom, acceptor molecule, acceptor atom, score
      P1  H  7989  7998       L1    11  1.00
      P1  H  7997  8008       L1     1  0.88

> <Gold.PLP.Chemscore.Internal.Correction>
0.0076

> <Gold.Rescore>
     Score         DG    S(hbond)    S(metal)    S(lipo)     H(rot)  DE(clash)    DE(int)     intcor
     14.11     -15.40       1.93        0.00      85.85       2.56       0.04       1.26       ----

> <Gold.Chemscore.Fitness>
14.1085

> <Gold.Chemscore.DG>
-15.4044

> <Gold.Chemscore.ZeroCoef>
-5.4800

> <Gold.Chemscore.Hbond>
1.9265

> <Gold.Chemscore.Metal>
0.0000

> <Gold.Chemscore.Lipo>
85.8509

> <Gold.Chemscore.Internal_Hbond>
0.0000

> <Gold.Chemscore.DEClash>
0.0392

> <Gold.Chemscore.DEInternal>
1.2566

> <Gold.Chemscore.Rot>
2.5605

> <Gold.Chemscore.Internal.Correction>
   9.000000E+99

> <Gold.Chemscore.Hbonds>
donor molecule, donor type, donor heavy atom, donor atom, acceptor molecule, acceptor atom, score
      P1  H  7989  7998       L1    11  0.95
      P1  H  7997  8008       L1     1  0.85

> <Gold.Chemscore.Hbond.Weighted>
-6.4346

> <Gold.Chemscore.Metal.Weighted>
-0.0000

> <Gold.Chemscore.Lipo.Weighted>
-10.0446

> <Gold.Chemscore.Internal_Hbond.Weighted>
0.0000

> <Gold.Chemscore.DEClash.Weighted>
0.0392

> <Gold.Chemscore.DEInternal.Weighted>
1.2566

> <Gold.Chemscore.Rot.Weighted>
6.5548

> <Gold.Chemscore.Internal.Correction.Weighted>
   9.000000E+99

> <Gold.Protein.RotatedTorsions>
[ 6907 6896 6895 6894 ] final  -39.36 input  -60.11 | X-H torsion
[ 7974 7965 7964 7962 ] final  -38.95 input  175.53 | X-H torsion
[ 8008 7997 7996 7995 ] final  -67.49 input   59.86 | X-H torsion
[ 10167 10162 10161 10158 ] final   88.39 input  -65.29 | X-H torsion
[ 10718 10713 10712 10709 ] final  -89.80 input   66.30 | X-H torsion
[ 10763 10752 10751 10750 ] final  -29.46 input  -60.55 | X-H torsion
[ 11005 11000 10999 10996 ] final  144.40 input  -57.11 | X-H torsion

> <Gold.Protein.ActiveResidues>
 VAL166  LYS551  ARG553  GLY616  TRP617  ASP618  TYR619  PRO620  LYS621  CYS622 
 ASP623  PHE694  ASN695  SER759  ASP760  ASP761  ALA762  ILE779  LEU786  VAL792 
 PHE793  MET794  SER795  GLU796  ALA797  LYS798  CYS799  TRP800  GLU811  SER814 

> <Gold.Protein.RotatedAtoms>
  150.9913  134.9247  159.7900 H   0  0  0  0  0  0  0  0  0  0  0  0  # atno 6907 bound_to 6896
  152.5251  134.3278  159.9182 H   0  0  0  0  0  0  0  0  0  0  0  0  # atno 6908 bound_to 6896
  151.3284  133.3969  159.2695 H   0  0  0  0  0  0  0  0  0  0  0  0  # atno 6909 bound_to 6896
  146.0440  140.6571  142.9073 H   0  0  0  0  0  0  0  0  0  0  0  0  # atno 7974 bound_to 7965
  154.4803  140.0891  156.7362 H   0  0  0  0  0  0  0  0  0  0  0  0  # atno 8008 bound_to 7997
  155.4487  140.3456  155.4280 H   0  0  0  0  0  0  0  0  0  0  0  0  # atno 8009 bound_to 7997
  156.1181  140.1466  156.9232 H   0  0  0  0  0  0  0  0  0  0  0  0  # atno 8010 bound_to 7997
  139.8677  144.6509  150.8985 H   0  0  0  0  0  0  0  0  0  0  0  0  # atno 10167 bound_to 10162
  155.9985  130.4886  150.5226 H   0  0  0  0  0  0  0  0  0  0  0  0  # atno 10718 bound_to 10713
  153.7649  135.6916  153.4918 H   0  0  0  0  0  0  0  0  0  0  0  0  # atno 10763 bound_to 10752
  153.1913  135.4470  155.0151 H   0  0  0  0  0  0  0  0  0  0  0  0  # atno 10764 bound_to 10752
  154.8139  135.3390  154.7162 H   0  0  0  0  0  0  0  0  0  0  0  0  # atno 10765 bound_to 10752
  140.0629  134.9194  157.1215 H   0  0  0  0  0  0  0  0  0  0  0  0  # atno 11005 bound_to 11000
  144.7088  140.3960  143.7096 LP  0  0  0  0  0  0  0  0  0  0  0  0  # atno 17320 bound_to 7965
  145.6837  139.1624  143.2686 LP  0  0  0  0  0  0  0  0  0  0  0  0  # atno 17321 bound_to 7965
  140.7765  143.3690  151.1685 LP  0  0  0  0  0  0  0  0  0  0  0  0  # atno 17342 bound_to 10162
  139.7313  143.9068  152.3020 LP  0  0  0  0  0  0  0  0  0  0  0  0  # atno 17343 bound_to 10162
  157.3186  131.0677  151.1949 LP  0  0  0  0  0  0  0  0  0  0  0  0  # atno 17370 bound_to 10713
  157.2870  130.6777  149.6094 LP  0  0  0  0  0  0  0  0  0  0  0  0  # atno 17371 bound_to 10713
  140.3742  134.2357  155.7175 LP  0  0  0  0  0  0  0  0  0  0  0  0  # atno 17394 bound_to 11000
  141.1981  133.8044  157.0599 LP  0  0  0  0  0  0  0  0  0  0  0  0  # atno 17395 bound_to 11000

$$$$
