AV-unprocessed.smi:2047|AV-procd|sdf|8317|dock3
  -GOLD-   2272010583D 1   1.00000     0.00000
 Structure written by MMmdl.
 43 45  0  0  0  0  0  0  0  0  2 V2000
  150.4402  133.9354  155.5172 O   0  0  0  0  0  0  0  0  0  0  0  0
  149.8779  134.5263  154.5956 C   0  0  0  0  0  0  0  0  0  0  0  0
  149.0722  133.9535  153.6853 N   0  0  0  0  0  0  0  0  0  0  0  0
  148.7069  132.5810  153.5657 C   0  0  0  0  0  0  0  0  0  0  0  0
  149.5047  131.5354  154.0982 C   0  0  0  0  0  0  0  0  0  0  0  0
  149.0982  130.1958  153.9449 C   0  0  0  0  0  0  0  0  0  0  0  0
  147.9056  129.9191  153.2534 C   0  0  0  0  0  0  0  0  0  0  0  0
  147.1777  130.9340  152.7436 N   0  3  0  0  0  0  0  0  0  0  0  0
  147.5186  132.2412  152.8624 C   0  0  0  0  0  0  0  0  0  0  0  0
  146.6963  133.2174  152.2619 N   0  0  0  0  0  0  0  0  0  0  0  0
  146.5731  133.0739  150.8134 C   0  0  0  0  0  0  0  0  0  0  0  0
  145.1285  133.4362  150.4616 C   0  0  0  0  0  0  0  0  0  0  0  0
  144.3685  133.1113  151.7415 C   0  0  0  0  0  0  0  0  0  0  0  0
  145.3753  133.4908  152.8256 C   0  0  0  0  0  0  0  0  0  0  0  0
  149.9824  135.8469  154.3908 N   0  0  0  0  0  0  0  0  0  0  0  0
  150.7771  136.7591  155.2087 C   0  0  2  0  0  0  0  0  0  0  0  0
  149.9640  137.3532  156.3773 C   0  0  0  0  0  0  0  0  0  0  0  0
  150.7265  138.5560  156.9473 C   0  0  0  0  0  0  0  0  0  0  0  0
  151.6668  139.2760  155.5479 S   0  0  0  0  0  0  0  0  0  0  0  0
  151.0046  140.5060  155.0877 O   0  0  0  0  0  0  0  0  0  0  0  0
  153.0992  139.2658  155.8809 O   0  0  0  0  0  0  0  0  0  0  0  0
  151.3080  137.9248  154.3632 C   0  0  0  0  0  0  0  0  0  0  0  0
  148.6045  134.5836  153.0504 H   0  0  0  0  0  0  0  0  0  0  0  0
  150.4321  131.7351  154.6128 H   0  0  0  0  0  0  0  0  0  0  0  0
  149.6973  129.3924  154.3481 H   0  0  0  0  0  0  0  0  0  0  0  0
  147.5193  128.9242  153.0851 H   0  0  0  0  0  0  0  0  0  0  0  0
  147.2805  133.7195  150.2924 H   0  0  0  0  0  0  0  0  0  0  0  0
  146.7803  132.0438  150.5175 H   0  0  0  0  0  0  0  0  0  0  0  0
  145.0545  134.5042  150.2513 H   0  0  0  0  0  0  0  0  0  0  0  0
  144.7546  132.8941  149.5925 H   0  0  0  0  0  0  0  0  0  0  0  0
  143.4254  133.6518  151.8288 H   0  0  0  0  0  0  0  0  0  0  0  0
  144.1547  132.0424  151.7874 H   0  0  0  0  0  0  0  0  0  0  0  0
  145.1684  132.9817  153.7670 H   0  0  0  0  0  0  0  0  0  0  0  0
  145.3172  134.5611  153.0272 H   0  0  0  0  0  0  0  0  0  0  0  0
  149.4812  136.2522  153.6138 H   0  0  0  0  0  0  0  0  0  0  0  0
  151.6360  136.2258  155.6208 H   0  0  0  0  0  0  0  0  0  0  0  0
  148.9988  137.6981  156.0035 H   0  0  0  0  0  0  0  0  0  0  0  0
  149.7582  136.6116  157.1498 H   0  0  0  0  0  0  0  0  0  0  0  0
  150.0696  139.3064  157.3873 H   0  0  0  0  0  0  0  0  0  0  0  0
  151.4435  138.2356  157.7037 H   0  0  0  0  0  0  0  0  0  0  0  0
  152.2061  137.6712  153.7994 H   0  0  0  0  0  0  0  0  0  0  0  0
  150.5507  138.2889  153.6680 H   0  0  0  0  0  0  0  0  0  0  0  0
  146.3238  130.7029  152.2353 H   0  0  0  0  0  0  0  0  0  0  0  0
  1  2  2  0  0  0  0
  2  3  1  0  0  0  0
  2 15  1  0  0  0  0
  3  4  1  0  0  0  0
  3 23  1  0  0  0  0
  4  9  1  0  0  0  0
  4  5  2  0  0  0  0
  5  6  1  0  0  0  0
  5 24  1  0  0  0  0
  6  7  2  0  0  0  0
  6 25  1  0  0  0  0
  7  8  1  0  0  0  0
  7 26  1  0  0  0  0
  8  9  2  0  0  0  0
  8 43  1  0  0  0  0
  9 10  1  0  0  0  0
 10 14  1  0  0  0  0
 10 11  1  0  0  0  0
 11 12  1  0  0  0  0
 11 27  1  0  0  0  0
 11 28  1  0  0  0  0
 12 13  1  0  0  0  0
 12 29  1  0  0  0  0
 12 30  1  0  0  0  0
 13 14  1  0  0  0  0
 13 31  1  0  0  0  0
 13 32  1  0  0  0  0
 14 33  1  0  0  0  0
 14 34  1  0  0  0  0
 15 16  1  0  0  0  0
 15 35  1  0  0  0  0
 16 22  1  0  0  0  0
 16 17  1  0  0  0  0
 16 36  1  0  0  0  0
 17 18  1  0  0  0  0
 17 37  1  0  0  0  0
 17 38  1  0  0  0  0
 18 19  1  0  0  0  0
 18 39  1  0  0  0  0
 18 40  1  0  0  0  0
 19 20  2  0  0  0  0
 19 21  2  0  0  0  0
 19 22  1  0  0  0  0
 22 41  1  0  0  0  0
 22 42  1  0  0  0  0
M  CHG  1   8   1
M  END
> <s_m_source_file>
AV-unprocessed.smi

> <i_m_source_file_index>
2047

> <i_lp_mmshare_version>
43012

> <i_f3d_flags>
0

> <s_epik_input>
Tz1TMSg9TylbQ0gyXVtDSDJdW0NASF0oW0NIMl0xKVtOSF1DKD1PKVtOSF1jMltjSF1bY0hdW2NIXW5jMk4zW0NIMl1bQ0gyXVtDSDJdW0NIMl0z

> <s_epik_cmdline>
J2VwaWtfcHl0aG9uJywgJy1waCcsICc3LjAnLCAnLXRuJywgJzgnLCAnLW1hJywgJzIwMCcsICctbWV0YWxfYmluZGluZycsICctaW1hZScsICc8aW5maWxlLm1hZT4nLCAnLW9tYWUnLCAnPG91dGZpbGUubWFlPic=

> <r_lp_tautomer_probability>
0.999994

> <r_epik_Ionization_Penalty>
1.20225

> <r_epik_Ionization_Penalty_Charging>
1.20223

> <r_epik_Ionization_Penalty_Neutral>
2.10783e-05

> <r_epik_State_Penalty>
1.26794

> <r_epik_Charging_Adjusted_Penalty>
2.47017

> <i_epik_Tot_Q>
1

> <i_epik_Tot_abs_Q>
1

> <r_epik_Metal_State_Penalty>
1.34322

> <b_epik_Metal_Only>
0

> <s_lp_Force_Field>
OPLS_2005

> <r_lp_Energy>
42.4659

> <b_lp_Chiralities_Consistent>
1

> <s_lp_Variant>
AV-unprocessed.smi:2047-3

> <Gold.Version>
5.8.1

> <Gold.Id.Protein>
6NUR|6NUR_protein|mol2

> <Gold.PLP.Fitness>
46.5056

> <Gold.PLP.PLP>
-36.0455

> <Gold.PLP.part.hbond>
-5.6022

> <Gold.PLP.part.metal>
0.0000

> <Gold.PLP.part.buried>
-4.1650

> <Gold.PLP.part.nonpolar>
-26.3039

> <Gold.PLP.part.repulsive>
0.2801

> <Gold.PLP.ligand.clash>
0.0000

> <Gold.PLP.ligand.torsion>
0.5812

> <Gold.PLP.Chemscore.Hbond>
3.8320

> <Gold.PLP.Chemscore.CHOScore>
0.0000

> <Gold.PLP.Chemscore.Metal>
0.0000

> <Gold.Chemscore.Hbonds>
donor molecule, donor type, donor heavy atom, donor atom, acceptor molecule, acceptor atom, score
      L1  H     3    23       P1  7948  0.82
      L1  H    15    35       P1  7948  0.99
      P1  H  7989  7998       L1    20  0.99
      P1  H  7997  8009       L1    21  1.00

> <Gold.PLP.Chemscore.Internal.Correction>
0.1265

> <Gold.Rescore>
     Score         DG    S(hbond)    S(metal)    S(lipo)     H(rot)  DE(clash)    DE(int)     intcor
     18.59     -20.50       3.26        0.00      62.81       1.26       0.04       1.87       ----

> <Gold.Chemscore.Fitness>
18.5860

> <Gold.Chemscore.DG>
-20.5017

> <Gold.Chemscore.ZeroCoef>
-5.4800

> <Gold.Chemscore.Hbond>
3.2622

> <Gold.Chemscore.Metal>
0.0000

> <Gold.Chemscore.Lipo>
62.8121

> <Gold.Chemscore.Internal_Hbond>
0.0000

> <Gold.Chemscore.DEClash>
0.0442

> <Gold.Chemscore.DEInternal>
1.8714

> <Gold.Chemscore.Rot>
1.2590

> <Gold.Chemscore.Internal.Correction>
   9.000000E+99

> <Gold.Chemscore.Hbonds>
donor molecule, donor type, donor heavy atom, donor atom, acceptor molecule, acceptor atom, score
      L1  H     3    23       P1  7948  0.20
      L1  H    15    35       P1  7948  0.62
      P1  H  7989  7998       L1    20  0.62
      P1  H  7997  8009       L1    21  0.96

> <Gold.Chemscore.Hbond.Weighted>
-10.8957

> <Gold.Chemscore.Metal.Weighted>
-0.0000

> <Gold.Chemscore.Lipo.Weighted>
-7.3490

> <Gold.Chemscore.Internal_Hbond.Weighted>
0.0000

> <Gold.Chemscore.DEClash.Weighted>
0.0442

> <Gold.Chemscore.DEInternal.Weighted>
1.8714

> <Gold.Chemscore.Rot.Weighted>
3.2231

> <Gold.Chemscore.Internal.Correction.Weighted>
   9.000000E+99

> <Gold.Protein.RotatedTorsions>
[ 6907 6896 6895 6894 ] final  -52.58 input  -60.11 | X-H torsion
[ 7974 7965 7964 7962 ] final  148.36 input  175.53 | X-H torsion
[ 8008 7997 7996 7995 ] final -158.53 input   59.86 | X-H torsion
[ 10167 10162 10161 10158 ] final   80.54 input  -65.29 | X-H torsion
[ 10718 10713 10712 10709 ] final  -83.36 input   66.30 | X-H torsion
[ 10763 10752 10751 10750 ] final -115.72 input  -60.55 | X-H torsion
[ 11005 11000 10999 10996 ] final   -1.79 input  -57.11 | X-H torsion

> <Gold.Protein.ActiveResidues>
 VAL166  LYS551  ARG553  GLY616  TRP617  ASP618  TYR619  PRO620  LYS621  CYS622 
 ASP623  PHE694  ASN695  SER759  ASP760  ASP761  ALA762  ILE779  LEU786  VAL792 
 PHE793  MET794  SER795  GLU796  ALA797  LYS798  CYS799  TRP800  GLU811  SER814 

> <Gold.Protein.RotatedAtoms>
  150.8505  134.7828  159.7004 H   0  0  0  0  0  0  0  0  0  0  0  0  # atno 6907 bound_to 6896
  152.4571  134.5264  159.9808 H   0  0  0  0  0  0  0  0  0  0  0  0  # atno 6908 bound_to 6896
  151.5386  133.3398  159.2967 H   0  0  0  0  0  0  0  0  0  0  0  0  # atno 6909 bound_to 6896
  144.8520  139.6144  143.5969 H   0  0  0  0  0  0  0  0  0  0  0  0  # atno 7974 bound_to 7965
  155.7489  140.0824  157.2210 H   0  0  0  0  0  0  0  0  0  0  0  0  # atno 8008 bound_to 7997
  154.4014  140.1564  156.2757 H   0  0  0  0  0  0  0  0  0  0  0  0  # atno 8009 bound_to 7997
  155.8949  140.3413  155.5986 H   0  0  0  0  0  0  0  0  0  0  0  0  # atno 8010 bound_to 7997
  139.9486  144.6041  150.8182 H   0  0  0  0  0  0  0  0  0  0  0  0  # atno 10167 bound_to 10162
  156.0019  130.4663  150.4246 H   0  0  0  0  0  0  0  0  0  0  0  0  # atno 10718 bound_to 10713
  154.8492  135.4371  154.1708 H   0  0  0  0  0  0  0  0  0  0  0  0  # atno 10763 bound_to 10752
  153.2822  135.6954  153.7381 H   0  0  0  0  0  0  0  0  0  0  0  0  # atno 10764 bound_to 10752
  153.6580  135.3440  155.3094 H   0  0  0  0  0  0  0  0  0  0  0  0  # atno 10765 bound_to 10752
  140.6512  133.9403  155.8381 H   0  0  0  0  0  0  0  0  0  0  0  0  # atno 11005 bound_to 11000
  146.2792  139.6833  142.9241 LP  0  0  0  0  0  0  0  0  0  0  0  0  # atno 17320 bound_to 7965
  145.4481  141.0426  143.2820 LP  0  0  0  0  0  0  0  0  0  0  0  0  # atno 17321 bound_to 7965
  140.7589  143.3118  151.2826 LP  0  0  0  0  0  0  0  0  0  0  0  0  # atno 17342 bound_to 10162
  139.6646  144.0128  152.2715 LP  0  0  0  0  0  0  0  0  0  0  0  0  # atno 17343 bound_to 10162
  157.2300  131.0502  151.2498 LP  0  0  0  0  0  0  0  0  0  0  0  0  # atno 17370 bound_to 10713
  157.3720  130.7186  149.6571 LP  0  0  0  0  0  0  0  0  0  0  0  0  # atno 17371 bound_to 10713
  141.0535  134.0450  157.3752 LP  0  0  0  0  0  0  0  0  0  0  0  0  # atno 17394 bound_to 11000
  139.9045  135.0175  156.7423 LP  0  0  0  0  0  0  0  0  0  0  0  0  # atno 17395 bound_to 11000

$$$$
