AV-unprocessed.smi:3133|AV-procd|sdf|11940|dock9
  -GOLD-   2272017333D 1   1.00000     0.00000
 Structure written by MMmdl.
 32 33  0  0  0  0  0  0  0  0  1 V2000
  151.6320  137.9188  154.7087 C   0  0  0  0  0  0  0  0  0  0  0  0
  151.8654  138.7130  156.0101 C   0  0  1  0  0  0  0  0  0  0  0  0
  151.2890  140.1352  155.9387 C   0  0  0  0  0  0  0  0  0  0  0  0
  150.6588  140.5072  154.9482 O   0  0  0  0  0  0  0  0  0  0  0  0
  151.5092  140.9207  157.0047 N   0  0  0  0  0  0  0  0  0  0  0  0
  151.0408  142.2944  157.1467 C   0  0  0  0  0  0  0  0  0  0  0  0
  151.7318  143.0142  158.3167 C   0  0  1  0  0  0  0  0  0  0  0  0
  151.9805  144.4983  158.0652 C   0  0  0  0  0  0  0  0  0  0  0  0
  152.1464  145.0177  159.4758 C   0  0  0  0  0  0  0  0  0  0  0  0
  151.1408  144.1722  160.2571 C   0  0  0  0  0  0  0  0  0  0  0  0
  150.9097  142.9990  159.4792 O   0  0  0  0  0  0  0  0  0  0  0  0
  151.3468  138.0217  157.1845 N   0  0  0  0  0  0  0  0  0  0  0  0
  151.9870  137.5781  158.2688 C   0  0  0  0  0  0  0  0  0  0  0  0
  151.1925  137.0331  159.1793 N   0  0  0  0  0  0  0  0  0  0  0  0
  149.9877  137.1960  158.5567 C   0  0  0  0  0  0  0  0  0  0  0  0
  150.0219  137.7927  157.3655 N   0  0  0  0  0  0  0  0  0  0  0  0
  152.0728  138.4306  153.8525 H   0  0  0  0  0  0  0  0  0  0  0  0
  150.5714  137.7774  154.4965 H   0  0  0  0  0  0  0  0  0  0  0  0
  152.0902  136.9314  154.7696 H   0  0  0  0  0  0  0  0  0  0  0  0
  152.9454  138.7986  156.1429 H   0  0  0  0  0  0  0  0  0  0  0  0
  152.0422  140.5412  157.7736 H   0  0  0  0  0  0  0  0  0  0  0  0
  151.2097  142.8380  156.2155 H   0  0  0  0  0  0  0  0  0  0  0  0
  149.9617  142.2756  157.3019 H   0  0  0  0  0  0  0  0  0  0  0  0
  152.6799  142.5320  158.5611 H   0  0  0  0  0  0  0  0  0  0  0  0
  152.8505  144.6844  157.4345 H   0  0  0  0  0  0  0  0  0  0  0  0
  151.1107  144.9614  157.5967 H   0  0  0  0  0  0  0  0  0  0  0  0
  153.1591  144.8162  159.8284 H   0  0  0  0  0  0  0  0  0  0  0  0
  151.9623  146.0886  159.5634 H   0  0  0  0  0  0  0  0  0  0  0  0
  151.5104  143.9178  161.2507 H   0  0  0  0  0  0  0  0  0  0  0  0
  150.1959  144.7034  160.3740 H   0  0  0  0  0  0  0  0  0  0  0  0
  153.0565  137.6598  158.3965 H   0  0  0  0  0  0  0  0  0  0  0  0
  149.0566  136.8711  158.9977 H   0  0  0  0  0  0  0  0  0  0  0  0
  1  2  1  0  0  0  0
  1 17  1  0  0  0  0
  1 18  1  0  0  0  0
  1 19  1  0  0  0  0
  2  3  1  0  0  0  0
  2 12  1  0  0  0  0
  2 20  1  0  0  0  0
  3  4  2  0  0  0  0
  3  5  1  0  0  0  0
  5  6  1  0  0  0  0
  5 21  1  0  0  0  0
  6  7  1  0  0  0  0
  6 22  1  0  0  0  0
  6 23  1  0  0  0  0
  7 11  1  0  0  0  0
  7  8  1  0  0  0  0
  7 24  1  0  0  0  0
  8  9  1  0  0  0  0
  8 25  1  0  0  0  0
  8 26  1  0  0  0  0
  9 10  1  0  0  0  0
  9 27  1  0  0  0  0
  9 28  1  0  0  0  0
 10 11  1  0  0  0  0
 10 29  1  0  0  0  0
 10 30  1  0  0  0  0
 12 16  1  0  0  0  0
 12 13  1  0  0  0  0
 13 14  2  0  0  0  0
 13 31  1  0  0  0  0
 14 15  1  0  0  0  0
 15 16  2  0  0  0  0
 15 32  1  0  0  0  0
M  END
> <s_m_source_file>
AV-unprocessed.smi

> <i_m_source_file_index>
3133

> <i_lp_mmshare_version>
43012

> <i_f3d_flags>
0

> <s_epik_input>
bjFbY0hdbltjSF1uMVtDQEhdKFtDSDNdKUMoPU8pW05IXVtDSDJdW0NAQEhdMltDSDJdW0NIMl1bQ0gyXU8y

> <s_epik_cmdline>
J2VwaWtfcHl0aG9uJywgJy1waCcsICc3LjAnLCAnLXRuJywgJzgnLCAnLW1hJywgJzIwMCcsICctbWV0YWxfYmluZGluZycsICctaW1hZScsICc8aW5maWxlLm1hZT4nLCAnLW9tYWUnLCAnPG91dGZpbGUubWFlPic=

> <r_lp_tautomer_probability>
1

> <r_epik_Ionization_Penalty>
1.2027e-05

> <r_epik_Ionization_Penalty_Charging>
0

> <r_epik_Ionization_Penalty_Neutral>
1.2027e-05

> <r_epik_State_Penalty>
-0

> <r_epik_Charging_Adjusted_Penalty>
0

> <i_epik_Tot_Q>
0

> <i_epik_Tot_abs_Q>
0

> <r_epik_Metal_State_Penalty>
-0

> <b_epik_Metal_Only>
0

> <s_lp_Force_Field>
OPLS_2005

> <r_lp_Energy>
22.8462

> <b_lp_Chiralities_Consistent>
1

> <s_lp_Variant>
AV-unprocessed.smi:3133-4

> <Gold.Version>
5.8.1

> <Gold.Id.Protein>
6NUR|6NUR_protein|mol2

> <Gold.PLP.Fitness>
37.1840

> <Gold.PLP.PLP>
-32.3287

> <Gold.PLP.part.hbond>
-2.2416

> <Gold.PLP.part.metal>
0.0000

> <Gold.PLP.part.buried>
-5.6670

> <Gold.PLP.part.nonpolar>
-24.9135

> <Gold.PLP.part.repulsive>
0.1999

> <Gold.PLP.ligand.clash>
0.0000

> <Gold.PLP.ligand.torsion>
0.6249

> <Gold.PLP.Chemscore.Hbond>
2.0000

> <Gold.PLP.Chemscore.CHOScore>
0.0000

> <Gold.PLP.Chemscore.Metal>
0.0000

> <Gold.Chemscore.Hbonds>
donor molecule, donor type, donor heavy atom, donor atom, acceptor molecule, acceptor atom, score
      P1  H  6896  6908       L1    14  1.00
      P1  H  7989  7998       L1     4  1.00

> <Gold.PLP.Chemscore.Internal.Correction>
0.1052

> <Gold.Rescore>
     Score         DG    S(hbond)    S(metal)    S(lipo)     H(rot)  DE(clash)    DE(int)     intcor
     13.82     -14.41       1.90        0.00      71.35       2.26       0.00       0.59       ----

> <Gold.Chemscore.Fitness>
13.8207

> <Gold.Chemscore.DG>
-14.4109

> <Gold.Chemscore.ZeroCoef>
-5.4800

> <Gold.Chemscore.Hbond>
1.9037

> <Gold.Chemscore.Metal>
0.0000

> <Gold.Chemscore.Lipo>
71.3452

> <Gold.Chemscore.Internal_Hbond>
0.0000

> <Gold.Chemscore.DEClash>
0.0000

> <Gold.Chemscore.DEInternal>
0.5902

> <Gold.Chemscore.Rot>
2.2558

> <Gold.Chemscore.Internal.Correction>
   9.000000E+99

> <Gold.Chemscore.Hbonds>
donor molecule, donor type, donor heavy atom, donor atom, acceptor molecule, acceptor atom, score
      P1  H  6896  6908       L1    14  0.73
      P1  H  7989  7998       L1     4  0.88

> <Gold.Chemscore.Hbond.Weighted>
-6.3582

> <Gold.Chemscore.Metal.Weighted>
-0.0000

> <Gold.Chemscore.Lipo.Weighted>
-8.3474

> <Gold.Chemscore.Internal_Hbond.Weighted>
0.0000

> <Gold.Chemscore.DEClash.Weighted>
0.0000

> <Gold.Chemscore.DEInternal.Weighted>
0.5902

> <Gold.Chemscore.Rot.Weighted>
5.7747

> <Gold.Chemscore.Internal.Correction.Weighted>
   9.000000E+99

> <Gold.Protein.RotatedTorsions>
[ 6907 6896 6895 6894 ] final -131.06 input  -60.11 | X-H torsion
[ 7974 7965 7964 7962 ] final  133.55 input  175.53 | X-H torsion
[ 8008 7997 7996 7995 ] final  -58.65 input   59.86 | X-H torsion
[ 10167 10162 10161 10158 ] final -130.62 input  -65.29 | X-H torsion
[ 10718 10713 10712 10709 ] final  -23.23 input   66.30 | X-H torsion
[ 10763 10752 10751 10750 ] final -145.73 input  -60.55 | X-H torsion
[ 11005 11000 10999 10996 ] final  -61.31 input  -57.11 | X-H torsion

> <Gold.Protein.ActiveResidues>
 VAL166  LYS551  ARG553  GLY616  TRP617  ASP618  TYR619  PRO620  LYS621  CYS622 
 ASP623  PHE694  ASN695  SER759  ASP760  ASP761  ALA762  ILE779  LEU786  VAL792 
 PHE793  MET794  SER795  GLU796  ALA797  LYS798  CYS799  TRP800  GLU811  SER814 

> <Gold.Protein.RotatedAtoms>
  150.9468  133.6594  159.2779 H   0  0  0  0  0  0  0  0  0  0  0  0  # atno 6907 bound_to 6896
  151.3965  135.0963  159.9552 H   0  0  0  0  0  0  0  0  0  0  0  0  # atno 6908 bound_to 6896
  152.5093  133.8971  159.7477 H   0  0  0  0  0  0  0  0  0  0  0  0  # atno 6909 bound_to 6896
  144.9853  139.4462  143.5366 H   0  0  0  0  0  0  0  0  0  0  0  0  # atno 7974 bound_to 7965
  154.4318  140.1079  156.5991 H   0  0  0  0  0  0  0  0  0  0  0  0  # atno 8008 bound_to 7997
  155.5930  140.3492  155.4553 H   0  0  0  0  0  0  0  0  0  0  0  0  # atno 8009 bound_to 7997
  156.0232  140.1244  157.0325 H   0  0  0  0  0  0  0  0  0  0  0  0  # atno 8010 bound_to 7997
  139.9274  143.6311  152.2538 H   0  0  0  0  0  0  0  0  0  0  0  0  # atno 10167 bound_to 10162
  156.4939  130.4572  149.6740 H   0  0  0  0  0  0  0  0  0  0  0  0  # atno 10718 bound_to 10713
  154.8370  135.3405  154.6550 H   0  0  0  0  0  0  0  0  0  0  0  0  # atno 10763 bound_to 10752
  153.7164  135.6961  153.5028 H   0  0  0  0  0  0  0  0  0  0  0  0  # atno 10764 bound_to 10752
  153.2414  135.4383  155.0655 H   0  0  0  0  0  0  0  0  0  0  0  0  # atno 10765 bound_to 10752
  141.1320  133.6629  156.5356 H   0  0  0  0  0  0  0  0  0  0  0  0  # atno 11005 bound_to 11000
  146.3418  139.9151  142.8774 LP  0  0  0  0  0  0  0  0  0  0  0  0  # atno 17320 bound_to 7965
  145.2362  140.9992  143.3962 LP  0  0  0  0  0  0  0  0  0  0  0  0  # atno 17321 bound_to 7965
  139.6810  144.7655  151.1608 LP  0  0  0  0  0  0  0  0  0  0  0  0  # atno 17342 bound_to 10162
  140.7646  143.5725  150.8981 LP  0  0  0  0  0  0  0  0  0  0  0  0  # atno 17343 bound_to 10162
  156.3399  130.7376  151.2320 LP  0  0  0  0  0  0  0  0  0  0  0  0  # atno 17370 bound_to 10713
  157.7471  131.0406  150.4607 LP  0  0  0  0  0  0  0  0  0  0  0  0  # atno 17371 bound_to 10713
  140.4181  134.7212  157.4874 LP  0  0  0  0  0  0  0  0  0  0  0  0  # atno 17394 bound_to 11000
  140.0379  134.6310  155.9019 LP  0  0  0  0  0  0  0  0  0  0  0  0  # atno 17395 bound_to 11000

$$$$
