AV-unprocessed.smi:1709|AV-procd|sdf|6895|dock9
  -GOLD-   22720 8103D 1   1.00000     0.00000
 Structure written by MMmdl.
 43 45  0  0  0  0  0  0  0  0  2 V2000
  147.5878  133.0806  152.6315 C   0  0  0  0  0  0  0  0  0  0  0  0
  146.3107  133.1241  151.8076 C   0  0  0  0  0  0  0  0  0  0  0  0
  145.6687  131.9133  151.4709 C   0  0  0  0  0  0  0  0  0  0  0  0
  144.4899  131.9510  150.7076 C   0  0  0  0  0  0  0  0  0  0  0  0
  144.0011  133.2061  150.3090 C   0  0  0  0  0  0  0  0  0  0  0  0
  144.6088  134.3678  150.6258 N   0  0  0  0  0  0  0  0  0  0  0  0
  145.7461  134.3521  151.3684 C   0  0  0  0  0  0  0  0  0  0  0  0
  146.4611  135.5340  151.7368 N   0  0  0  0  0  0  0  0  0  0  0  0
  146.2011  136.4883  152.6555 C   0  0  0  0  0  0  0  0  0  0  0  0
  145.1956  136.4343  153.3613 O   0  0  0  0  0  0  0  0  0  0  0  0
  147.0985  137.4836  152.7467 N   0  0  0  0  0  0  0  0  0  0  0  0
  147.0441  138.6033  153.6835 C   0  0  2  0  0  0  0  0  0  0  0  0
  146.8033  139.9542  152.9819 C   0  0  0  0  0  0  0  0  0  0  0  0
  147.7537  140.9322  153.6798 C   0  0  0  0  0  0  0  0  0  0  0  0
  148.8970  140.0837  154.0346 N   0  3  1  0  0  0  0  0  0  0  0  0
  149.9211  140.6274  154.9495 C   0  0  0  0  0  0  0  0  0  0  0  0
  151.0944  139.6265  155.0199 C   0  0  0  0  0  0  0  0  0  0  0  0
  150.6231  138.1965  155.3678 C   0  0  0  0  0  0  0  0  0  0  0  0
  149.4650  137.7371  154.4562 C   0  0  0  0  0  0  0  0  0  0  0  0
  148.3480  138.7961  154.4931 C   0  0  2  0  0  0  0  0  0  0  0  0
  147.8465  132.0584  152.9097 H   0  0  0  0  0  0  0  0  0  0  0  0
  147.4714  133.6570  153.5497 H   0  0  0  0  0  0  0  0  0  0  0  0
  148.4215  133.4953  152.0645 H   0  0  0  0  0  0  0  0  0  0  0  0
  146.0730  130.9644  151.7922 H   0  0  0  0  0  0  0  0  0  0  0  0
  143.9749  131.0419  150.4343 H   0  0  0  0  0  0  0  0  0  0  0  0
  143.0991  133.2813  149.7202 H   0  0  0  0  0  0  0  0  0  0  0  0
  147.2803  135.7121  151.1740 H   0  0  0  0  0  0  0  0  0  0  0  0
  147.8944  137.4469  152.1248 H   0  0  0  0  0  0  0  0  0  0  0  0
  146.2246  138.4396  154.3862 H   0  0  0  0  0  0  0  0  0  0  0  0
  147.0719  139.8860  151.9263 H   0  0  0  0  0  0  0  0  0  0  0  0
  145.7628  140.2762  153.0353 H   0  0  0  0  0  0  0  0  0  0  0  0
  148.0464  141.7652  153.0398 H   0  0  0  0  0  0  0  0  0  0  0  0
  147.2963  141.3333  154.5857 H   0  0  0  0  0  0  0  0  0  0  0  0
  150.2710  141.5919  154.5802 H   0  0  0  0  0  0  0  0  0  0  0  0
  149.4913  140.7947  155.9384 H   0  0  0  0  0  0  0  0  0  0  0  0
  151.6039  139.6066  154.0555 H   0  0  0  0  0  0  0  0  0  0  0  0
  151.8321  139.9647  155.7482 H   0  0  0  0  0  0  0  0  0  0  0  0
  151.4576  137.4989  155.2932 H   0  0  0  0  0  0  0  0  0  0  0  0
  150.2940  138.1707  156.4073 H   0  0  0  0  0  0  0  0  0  0  0  0
  149.8252  137.5983  153.4358 H   0  0  0  0  0  0  0  0  0  0  0  0
  149.0899  136.7715  154.7958 H   0  0  0  0  0  0  0  0  0  0  0  0
  148.0436  138.9231  155.5345 H   0  0  0  0  0  0  0  0  0  0  0  0
  149.3672  139.8896  153.1621 H   0  0  0  0  0  0  0  0  0  0  0  0
  1  2  1  0  0  0  0
  1 21  1  0  0  0  0
  1 22  1  0  0  0  0
  1 23  1  0  0  0  0
  2  7  1  0  0  0  0
  2  3  2  0  0  0  0
  3  4  1  0  0  0  0
  3 24  1  0  0  0  0
  4  5  2  0  0  0  0
  4 25  1  0  0  0  0
  5  6  1  0  0  0  0
  5 26  1  0  0  0  0
  6  7  2  0  0  0  0
  7  8  1  0  0  0  0
  8  9  1  0  0  0  0
  8 27  1  0  0  0  0
  9 10  2  0  0  0  0
  9 11  1  0  0  0  0
 11 12  1  0  0  0  0
 11 28  1  0  0  0  0
 12 20  1  0  0  0  0
 12 13  1  0  0  0  0
 12 29  1  0  0  0  0
 13 14  1  0  0  0  0
 13 30  1  0  0  0  0
 13 31  1  0  0  0  0
 14 15  1  0  0  0  0
 14 32  1  0  0  0  0
 14 33  1  0  0  0  0
 15 20  1  0  0  0  0
 15 16  1  0  0  0  0
 15 43  1  0  0  0  0
 16 17  1  0  0  0  0
 16 34  1  0  0  0  0
 16 35  1  0  0  0  0
 17 18  1  0  0  0  0
 17 36  1  0  0  0  0
 17 37  1  0  0  0  0
 18 19  1  0  0  0  0
 18 38  1  0  0  0  0
 18 39  1  0  0  0  0
 19 20  1  0  0  0  0
 19 40  1  0  0  0  0
 19 41  1  0  0  0  0
 20 42  1  0  0  0  0
M  CHG  1  15   1
M  END
> <s_m_source_file>
AV-unprocessed.smi

> <i_m_source_file_index>
1709

> <i_lp_mmshare_version>
43012

> <i_f3d_flags>
0

> <s_epik_input>
W0NIM11jMVtjSF1bY0hdW2NIXW5jMVtOSF1DKD1PKVtOSF1bQ0BIXShbQ0gyXVtDSDJdMilbQ0BASF0oTjIzKVtDSDJdW0NIMl1bQ0gyXVtDSDJdMw==

> <s_epik_cmdline>
J2VwaWtfcHl0aG9uJywgJy1waCcsICc3LjAnLCAnLXRuJywgJzgnLCAnLW1hJywgJzIwMCcsICctbWV0YWxfYmluZGluZycsICctaW1hZScsICc8aW5maWxlLm1hZT4nLCAnLW9tYWUnLCAnPG91dGZpbGUubWFlPic=

> <r_epik_Ionization_Penalty>
0.00101524

> <r_epik_Ionization_Penalty_Charging>
0.000974069

> <r_epik_Ionization_Penalty_Neutral>
4.11757e-05

> <r_epik_State_Penalty>
0.000633842

> <r_epik_Charging_Adjusted_Penalty>
0.00160791

> <i_epik_Tot_Q>
1

> <i_epik_Tot_abs_Q>
1

> <r_epik_Metal_State_Penalty>
-0

> <b_epik_Metal_Only>
0

> <s_lp_Force_Field>
OPLS_2005

> <r_lp_Energy>
46.0593

> <b_lp_Chiralities_Consistent>
1

> <s_lp_Variant>
AV-unprocessed.smi:1709-5

> <Gold.Version>
5.8.1

> <Gold.Id.Protein>
6NUR|6NUR_protein|mol2

> <Gold.PLP.Fitness>
38.3954

> <Gold.PLP.PLP>
-30.3519

> <Gold.PLP.part.hbond>
-2.4803

> <Gold.PLP.part.metal>
0.0000

> <Gold.PLP.part.buried>
0.7611

> <Gold.PLP.part.nonpolar>
-29.8675

> <Gold.PLP.part.repulsive>
0.5264

> <Gold.PLP.ligand.clash>
0.0000

> <Gold.PLP.ligand.torsion>
0.7545

> <Gold.PLP.Chemscore.Hbond>
2.1840

> <Gold.PLP.Chemscore.CHOScore>
1.0000

> <Gold.PLP.Chemscore.Metal>
0.0000

> <Gold.Chemscore.Hbonds>
donor molecule, donor type, donor heavy atom, donor atom, acceptor molecule, acceptor atom, score
      L1  H     8    27       P1  7948  0.53
      L1  H    11    28       P1  7948  0.62
      L1  H    15    43       P1  7957  1.00
      L1  C     5    26       P1 10186  1.00

> <Gold.PLP.Chemscore.Internal.Correction>
0.0006

> <Gold.Rescore>
     Score         DG    S(hbond)    S(metal)    S(lipo)     H(rot)  DE(clash)    DE(int)     intcor
     18.47     -19.70       2.16        0.00      81.80       1.00       0.49       0.74       ----

> <Gold.Chemscore.Fitness>
18.4699

> <Gold.Chemscore.DG>
-19.7024

> <Gold.Chemscore.ZeroCoef>
-5.4800

> <Gold.Chemscore.Hbond>
2.1592

> <Gold.Chemscore.Metal>
0.0000

> <Gold.Chemscore.Lipo>
81.8013

> <Gold.Chemscore.Internal_Hbond>
0.0000

> <Gold.Chemscore.DEClash>
0.4945

> <Gold.Chemscore.DEInternal>
0.7379

> <Gold.Chemscore.Rot>
1.0000

> <Gold.Chemscore.Internal.Correction>
   9.000000E+99

> <Gold.Chemscore.Hbonds>
donor molecule, donor type, donor heavy atom, donor atom, acceptor molecule, acceptor atom, score
      L1  H     8    27       P1  7948  0.47
      L1  H    11    28       P1  7948  0.61
      L1  H    15    43       P1  7957  0.92

> <Gold.Chemscore.Hbond.Weighted>
-7.2116

> <Gold.Chemscore.Metal.Weighted>
-0.0000

> <Gold.Chemscore.Lipo.Weighted>
-9.5708

> <Gold.Chemscore.Internal_Hbond.Weighted>
0.0000

> <Gold.Chemscore.DEClash.Weighted>
0.4945

> <Gold.Chemscore.DEInternal.Weighted>
0.7379

> <Gold.Chemscore.Rot.Weighted>
2.5600

> <Gold.Chemscore.Internal.Correction.Weighted>
   9.000000E+99

> <Gold.Protein.RotatedTorsions>
[ 6907 6896 6895 6894 ] final -132.27 input  -60.11 | X-H torsion
[ 7974 7965 7964 7962 ] final  -45.86 input  175.53 | X-H torsion
[ 8008 7997 7996 7995 ] final  102.75 input   59.86 | X-H torsion
[ 10167 10162 10161 10158 ] final   41.23 input  -65.29 | X-H torsion
[ 10718 10713 10712 10709 ] final  164.13 input   66.30 | X-H torsion
[ 10763 10752 10751 10750 ] final  -32.77 input  -60.55 | X-H torsion
[ 11005 11000 10999 10996 ] final  128.86 input  -57.11 | X-H torsion

> <Gold.Protein.ActiveResidues>
 VAL166  LYS551  ARG553  GLY616  TRP617  ASP618  TYR619  PRO620  LYS621  CYS622 
 ASP623  PHE694  ASN695  SER759  ASP760  ASP761  ALA762  ILE779  LEU786  VAL792 
 PHE793  MET794  SER795  GLU796  ALA797  LYS798  CYS799  TRP800  GLU811  SER814 

> <Gold.Protein.RotatedAtoms>
  150.9604  133.6451  159.2755 H   0  0  0  0  0  0  0  0  0  0  0  0  # atno 6907 bound_to 6896
  151.3776  135.0933  159.9495 H   0  0  0  0  0  0  0  0  0  0  0  0  # atno 6908 bound_to 6896
  152.5145  133.9145  159.7559 H   0  0  0  0  0  0  0  0  0  0  0  0  # atno 6909 bound_to 6896
  145.9778  140.7315  142.9378 H   0  0  0  0  0  0  0  0  0  0  0  0  # atno 7974 bound_to 7965
  156.1421  140.3176  155.8513 H   0  0  0  0  0  0  0  0  0  0  0  0  # atno 8008 bound_to 7997
  155.4133  140.0507  157.3047 H   0  0  0  0  0  0  0  0  0  0  0  0  # atno 8009 bound_to 7997
  154.4985  140.2120  155.9408 H   0  0  0  0  0  0  0  0  0  0  0  0  # atno 8010 bound_to 7997
  140.3664  144.2162  150.6135 H   0  0  0  0  0  0  0  0  0  0  0  0  # atno 10167 bound_to 10162
  157.0987  131.0437  151.2507 H   0  0  0  0  0  0  0  0  0  0  0  0  # atno 10718 bound_to 10713
  153.8192  135.6876  153.4829 H   0  0  0  0  0  0  0  0  0  0  0  0  # atno 10763 bound_to 10752
  153.1580  135.4591  154.9730 H   0  0  0  0  0  0  0  0  0  0  0  0  # atno 10764 bound_to 10752
  154.7935  135.3310  154.7665 H   0  0  0  0  0  0  0  0  0  0  0  0  # atno 10765 bound_to 10752
  139.9583  134.9608  156.9063 H   0  0  0  0  0  0  0  0  0  0  0  0  # atno 11005 bound_to 11000
  144.6853  140.2857  143.7285 LP  0  0  0  0  0  0  0  0  0  0  0  0  # atno 17320 bound_to 7965
  145.7813  139.1892  143.2156 LP  0  0  0  0  0  0  0  0  0  0  0  0  # atno 17321 bound_to 7965
  140.5077  143.2299  151.8583 LP  0  0  0  0  0  0  0  0  0  0  0  0  # atno 17342 bound_to 10162
  139.4808  144.4986  151.9090 LP  0  0  0  0  0  0  0  0  0  0  0  0  # atno 17343 bound_to 10162
  157.4659  130.7680  149.7278 LP  0  0  0  0  0  0  0  0  0  0  0  0  # atno 17370 bound_to 10713
  155.9879  130.3963  150.3143 LP  0  0  0  0  0  0  0  0  0  0  0  0  # atno 17371 bound_to 10713
  140.5557  134.0583  155.7383 LP  0  0  0  0  0  0  0  0  0  0  0  0  # atno 17394 bound_to 11000
  141.1258  133.9386  157.2639 LP  0  0  0  0  0  0  0  0  0  0  0  0  # atno 17395 bound_to 11000

$$$$
