AV-unprocessed.smi:196|AV-procd|sdf|1543|dock1
  -GOLD-   2262019403D 1   1.00000     0.00000
 Structure written by MMmdl.
 47 50  0  0  0  0  0  0  0  0  1 V2000
  151.7094  140.6606  157.5814 C   0  0  0  0  0  0  0  0  0  0  0  0
  151.8738  140.2254  156.1168 C   0  0  1  0  0  0  0  0  0  0  0  0
  152.8979  139.2342  156.0779 O   0  0  0  0  0  0  0  0  0  0  0  0
  152.6208  138.3270  155.0261 C   0  0  0  0  0  0  0  0  0  0  0  0
  151.1120  138.1640  155.1241 C   0  0  0  0  0  0  0  0  0  0  0  0
  150.6341  139.5796  155.4348 C   0  0  2  0  0  0  0  0  0  0  0  0
  150.4256  140.2437  154.1994 O   0  0  0  0  0  0  0  0  0  0  0  0
  149.3029  139.6300  156.2297 C   0  0  0  0  0  0  0  0  0  0  0  0
  148.3266  138.6473  155.7840 N   0  0  0  0  0  0  0  0  0  0  0  0
  147.9651  137.4883  156.4349 C   0  0  0  0  0  0  0  0  0  0  0  0
  147.0567  136.7702  155.8325 N   0  0  0  0  0  0  0  0  0  0  0  0
  146.7831  137.4820  154.6723 C   0  0  0  0  0  0  0  0  0  0  0  0
  145.9132  137.2748  153.5713 C   0  0  0  0  0  0  0  0  0  0  0  0
  145.1036  136.1953  153.4970 N   0  0  0  0  0  0  0  0  0  0  0  0
  144.2447  135.9769  154.6566 C   0  0  0  0  0  0  0  0  0  0  0  0
  142.8727  135.5798  154.1049 C   0  0  1  0  0  0  0  0  0  0  0  0
  142.0909  136.6590  154.0454 F   0  0  0  0  0  0  0  0  0  0  0  0
  143.1834  135.0990  152.6908 C   0  0  0  0  0  0  0  0  0  0  0  0
  144.3382  136.0130  152.2624 C   0  0  2  0  0  0  0  0  0  0  0  0
  145.1837  135.3886  151.1428 C   0  0  0  0  0  0  0  0  0  0  0  0
  145.2675  136.0741  150.0005 N   0  0  0  0  0  0  0  0  0  0  0  0
  145.7426  134.3035  151.2967 O   0  0  0  0  0  0  0  0  0  0  0  0
  145.9031  138.2051  152.5809 N   0  0  0  0  0  0  0  0  0  0  0  0
  146.7050  139.2713  152.6616 C   0  0  0  0  0  0  0  0  0  0  0  0
  147.5712  139.5936  153.6252 N   0  0  0  0  0  0  0  0  0  0  0  0
  147.5753  138.6619  154.6218 C   0  0  0  0  0  0  0  0  0  0  0  0
  142.3598  134.8353  154.7143 H   0  0  0  0  0  0  0  0  0  0  0  0
  143.9298  136.9675  151.9245 H   0  0  0  0  0  0  0  0  0  0  0  0
  150.9430  141.4288  157.6853 H   0  0  0  0  0  0  0  0  0  0  0  0
  152.6416  141.0760  157.9646 H   0  0  0  0  0  0  0  0  0  0  0  0
  151.4410  139.8196  158.2213 H   0  0  0  0  0  0  0  0  0  0  0  0
  152.2219  141.0842  155.5395 H   0  0  0  0  0  0  0  0  0  0  0  0
  152.9093  138.7677  154.0707 H   0  0  0  0  0  0  0  0  0  0  0  0
  153.1575  137.3865  155.1520 H   0  0  0  0  0  0  0  0  0  0  0  0
  150.6657  137.7324  154.2269 H   0  0  0  0  0  0  0  0  0  0  0  0
  150.8880  137.4999  155.9593 H   0  0  0  0  0  0  0  0  0  0  0  0
  150.3222  139.5910  153.5240 H   0  0  0  0  0  0  0  0  0  0  0  0
  149.4831  139.4572  157.2908 H   0  0  0  0  0  0  0  0  0  0  0  0
  148.8492  140.6188  156.1512 H   0  0  0  0  0  0  0  0  0  0  0  0
  148.3949  137.1933  157.3813 H   0  0  0  0  0  0  0  0  0  0  0  0
  144.6700  135.1538  155.2317 H   0  0  0  0  0  0  0  0  0  0  0  0
  144.1793  136.8402  155.3221 H   0  0  0  0  0  0  0  0  0  0  0  0
  143.5031  134.0557  152.7223 H   0  0  0  0  0  0  0  0  0  0  0  0
  142.3216  135.1653  152.0256 H   0  0  0  0  0  0  0  0  0  0  0  0
  145.8091  135.7081  149.2311 H   0  0  0  0  0  0  0  0  0  0  0  0
  144.7859  136.9570  149.9104 H   0  0  0  0  0  0  0  0  0  0  0  0
  146.6438  139.9656  151.8367 H   0  0  0  0  0  0  0  0  0  0  0  0
  1  2  1  0  0  0  0
  1 29  1  0  0  0  0
  1 30  1  0  0  0  0
  1 31  1  0  0  0  0
  2  6  1  0  0  0  0
  2  3  1  0  0  0  0
  2 32  1  0  0  0  0
  3  4  1  0  0  0  0
  4  5  1  0  0  0  0
  4 33  1  0  0  0  0
  4 34  1  0  0  0  0
  5  6  1  0  0  0  0
  5 35  1  0  0  0  0
  5 36  1  0  0  0  0
  6  7  1  0  0  0  0
  6  8  1  0  0  0  0
  7 37  1  0  0  0  0
  8  9  1  0  0  0  0
  8 38  1  0  0  0  0
  8 39  1  0  0  0  0
  9 26  1  0  0  0  0
  9 10  1  0  0  0  0
 10 11  2  0  0  0  0
 10 40  1  0  0  0  0
 11 12  1  0  0  0  0
 12 26  2  0  0  0  0
 12 13  1  0  0  0  0
 13 14  1  0  0  0  0
 13 23  2  0  0  0  0
 14 19  1  0  0  0  0
 14 15  1  0  0  0  0
 15 16  1  0  0  0  0
 15 41  1  0  0  0  0
 15 42  1  0  0  0  0
 16 27  1  0  0  0  0
 16 17  1  0  0  0  0
 16 18  1  0  0  0  0
 18 19  1  0  0  0  0
 18 43  1  0  0  0  0
 18 44  1  0  0  0  0
 19 28  1  0  0  0  0
 19 20  1  0  0  0  0
 20 21  1  0  0  0  0
 20 22  2  0  0  0  0
 21 45  1  0  0  0  0
 21 46  1  0  0  0  0
 23 24  1  0  0  0  0
 24 25  2  0  0  0  0
 24 47  1  0  0  0  0
 25 26  1  0  0  0  0
M  END
> <s_m_source_file>
AV-unprocessed.smi

> <i_m_source_file_index>
196

> <i_lp_mmshare_version>
43012

> <i_f3d_flags>
0

> <s_epik_input>
W0NIMl0xW0NIMl1PW0NAQEhdKFtDSDNdKVtDQEBdMShbT0hdKVtDSDJdbihbY0hdbjIpYyhjMjMpbltjSF1uYzNONFtDSDJdW0NASF0oRilbQ0gyXVtDQEhdNEMoPU8pW05IMl0=

> <s_epik_cmdline>
J2VwaWtfcHl0aG9uJywgJy1waCcsICc3LjAnLCAnLXRuJywgJzgnLCAnLW1hJywgJzIwMCcsICctbWV0YWxfYmluZGluZycsICctaW1hZScsICc8aW5maWxlLm1hZT4nLCAnLW9tYWUnLCAnPG91dGZpbGUubWFlPic=

> <r_lp_tautomer_probability>
1

> <r_epik_Ionization_Penalty>
0.000857933

> <r_epik_Ionization_Penalty_Charging>
0

> <r_epik_Ionization_Penalty_Neutral>
0.000857933

> <r_epik_State_Penalty>
0.000462053

> <r_epik_Charging_Adjusted_Penalty>
0.000462053

> <i_epik_Tot_Q>
0

> <i_epik_Tot_abs_Q>
0

> <r_epik_Metal_State_Penalty>
-0

> <b_epik_Metal_Only>
0

> <s_lp_Force_Field>
OPLS_2005

> <r_lp_Energy>
44.4191

> <b_lp_Chiralities_Consistent>
1

> <s_lp_Variant>
AV-unprocessed.smi:196-16

> <Gold.Version>
5.8.1

> <Gold.Id.Protein>
6NUR|6NUR_protein|mol2

> <Gold.PLP.Fitness>
48.5410

> <Gold.PLP.PLP>
-35.8429

> <Gold.PLP.part.hbond>
-4.8585

> <Gold.PLP.part.metal>
0.0000

> <Gold.PLP.part.buried>
-6.1985

> <Gold.PLP.part.nonpolar>
-25.8682

> <Gold.PLP.part.repulsive>
1.0511

> <Gold.PLP.ligand.clash>
0.0000

> <Gold.PLP.ligand.torsion>
0.5150

> <Gold.PLP.Chemscore.Hbond>
4.3600

> <Gold.PLP.Chemscore.CHOScore>
0.1174

> <Gold.PLP.Chemscore.Metal>
0.0000

> <Gold.Chemscore.Hbonds>
donor molecule, donor type, donor heavy atom, donor atom, acceptor molecule, acceptor atom, score
      L1  H    21    45       P1  7921  1.00
      L1  H    21    46       P1 10171  1.00
      P1  H  7989  7998       L1     7  0.59
      P1  H  7997  8009       L1     3  1.00

> <Gold.PLP.Chemscore.Internal.Correction>
0.2959

> <Gold.Rescore>
     Score         DG    S(hbond)    S(metal)    S(lipo)     H(rot)  DE(clash)    DE(int)     intcor
     15.20     -15.79       3.65        0.00      50.56       3.04       0.02       0.56       ----

> <Gold.Chemscore.Fitness>
15.2043

> <Gold.Chemscore.DG>
-15.7915

> <Gold.Chemscore.ZeroCoef>
-5.4800

> <Gold.Chemscore.Hbond>
3.6472

> <Gold.Chemscore.Metal>
0.0000

> <Gold.Chemscore.Lipo>
50.5594

> <Gold.Chemscore.Internal_Hbond>
0.0000

> <Gold.Chemscore.DEClash>
0.0234

> <Gold.Chemscore.DEInternal>
0.5638

> <Gold.Chemscore.Rot>
3.0413

> <Gold.Chemscore.Internal.Correction>
   9.000000E+99

> <Gold.Chemscore.Hbonds>
donor molecule, donor type, donor heavy atom, donor atom, acceptor molecule, acceptor atom, score
      L1  H     7    37       P1  7957  0.01
      L1  H    21    45       P1  7921  0.99
      L1  H    21    46       P1 10171  1.00
      P1  H  7989  7998       L1     7  0.04
      P1  H  7997  8009       L1     3  0.45

> <Gold.Chemscore.Hbond.Weighted>
-12.1817

> <Gold.Chemscore.Metal.Weighted>
-0.0000

> <Gold.Chemscore.Lipo.Weighted>
-5.9155

> <Gold.Chemscore.Internal_Hbond.Weighted>
0.0000

> <Gold.Chemscore.DEClash.Weighted>
0.0234

> <Gold.Chemscore.DEInternal.Weighted>
0.5638

> <Gold.Chemscore.Rot.Weighted>
7.7856

> <Gold.Chemscore.Internal.Correction.Weighted>
   9.000000E+99

> <Gold.Protein.RotatedTorsions>
[ 6907 6896 6895 6894 ] final   56.30 input  -60.11 | X-H torsion
[ 7974 7965 7964 7962 ] final  -90.34 input  175.53 | X-H torsion
[ 8008 7997 7996 7995 ] final -158.02 input   59.86 | X-H torsion
[ 10167 10162 10161 10158 ] final   66.03 input  -65.29 | X-H torsion
[ 10718 10713 10712 10709 ] final   23.10 input   66.30 | X-H torsion
[ 10763 10752 10751 10750 ] final  -91.48 input  -60.55 | X-H torsion
[ 11005 11000 10999 10996 ] final   78.78 input  -57.11 | X-H torsion

> <Gold.Protein.ActiveResidues>
 VAL166  LYS551  ARG553  GLY616  TRP617  ASP618  TYR619  PRO620  LYS621  CYS622 
 ASP623  PHE694  ASN695  SER759  ASP760  ASP761  ALA762  ILE779  LEU786  VAL792 
 PHE793  MET794  SER795  GLU796  ALA797  LYS798  CYS799  TRP800  GLU811  SER814 

> <Gold.Protein.RotatedAtoms>
  152.3623  134.6854  160.0202 H   0  0  0  0  0  0  0  0  0  0  0  0  # atno 6907 bound_to 6896
  151.7174  133.3308  159.3314 H   0  0  0  0  0  0  0  0  0  0  0  0  # atno 6908 bound_to 6896
  150.7613  134.6413  159.6283 H   0  0  0  0  0  0  0  0  0  0  0  0  # atno 6909 bound_to 6896
  145.4277  140.9554  143.2145 H   0  0  0  0  0  0  0  0  0  0  0  0  # atno 7974 bound_to 7965
  155.7413  140.0814  157.2244 H   0  0  0  0  0  0  0  0  0  0  0  0  # atno 8008 bound_to 7997
  154.4021  140.1577  156.2674 H   0  0  0  0  0  0  0  0  0  0  0  0  # atno 8009 bound_to 7997
  155.9018  140.3409  155.6035 H   0  0  0  0  0  0  0  0  0  0  0  0  # atno 8010 bound_to 7997
  140.1048  144.4871  150.7014 H   0  0  0  0  0  0  0  0  0  0  0  0  # atno 10167 bound_to 10162
  157.1615  130.6719  149.6045 H   0  0  0  0  0  0  0  0  0  0  0  0  # atno 10718 bound_to 10713
  154.6765  135.5266  153.8206 H   0  0  0  0  0  0  0  0  0  0  0  0  # atno 10763 bound_to 10752
  153.0536  135.6542  154.0643 H   0  0  0  0  0  0  0  0  0  0  0  0  # atno 10764 bound_to 10752
  154.0535  135.2967  155.3316 H   0  0  0  0  0  0  0  0  0  0  0  0  # atno 10765 bound_to 10752
  139.9199  134.7790  156.1693 H   0  0  0  0  0  0  0  0  0  0  0  0  # atno 11005 bound_to 11000
  144.8203  139.5804  143.6990 LP  0  0  0  0  0  0  0  0  0  0  0  0  # atno 17320 bound_to 7965
  146.2623  139.6439  142.9353 LP  0  0  0  0  0  0  0  0  0  0  0  0  # atno 17321 bound_to 7965
  140.6958  143.2403  151.5005 LP  0  0  0  0  0  0  0  0  0  0  0  0  # atno 17342 bound_to 10162
  139.5651  144.2062  152.1752 LP  0  0  0  0  0  0  0  0  0  0  0  0  # atno 17343 bound_to 10162
  155.9753  130.4710  150.6450 LP  0  0  0  0  0  0  0  0  0  0  0  0  # atno 17370 bound_to 10713
  157.4128  131.0826  151.1204 LP  0  0  0  0  0  0  0  0  0  0  0  0  # atno 17371 bound_to 10713
  141.0710  133.6797  156.2140 LP  0  0  0  0  0  0  0  0  0  0  0  0  # atno 17394 bound_to 11000
  140.6507  134.5070  157.5577 LP  0  0  0  0  0  0  0  0  0  0  0  0  # atno 17395 bound_to 11000

$$$$
