AV-unprocessed.smi:2438|AV-procd|sdf|9595|dock10
  -GOLD-   2272013233D 1   1.00000     0.00000
 Structure written by MMmdl.
 43 44  0  0  0  0  0  0  0  0  1 V2000
  149.3472  137.1773  155.0037 C   0  0  0  0  0  0  0  0  0  0  0  0
  149.9033  138.2865  154.2409 N   0  0  0  0  0  0  0  0  0  0  0  0
  151.3330  138.5220  154.3994 C   0  0  0  0  0  0  0  0  0  0  0  0
  149.0782  139.4294  154.2400 C   0  0  0  0  0  0  0  0  0  0  0  0
  149.4952  140.5144  154.9369 N   0  0  0  0  0  0  0  0  0  0  0  0
  148.7001  141.5853  154.9472 C   0  0  0  0  0  0  0  0  0  0  0  0
  147.5243  141.7101  154.3323 N   0  0  0  0  0  0  0  0  0  0  0  0
  147.0896  140.6429  153.6305 C   0  0  0  0  0  0  0  0  0  0  0  0
  147.8362  139.4411  153.5517 C   0  0  0  0  0  0  0  0  0  0  0  0
  147.4314  138.3155  152.7812 N   0  0  0  0  0  0  0  0  0  0  0  0
  146.1934  137.9914  152.3747 C   0  0  0  0  0  0  0  0  0  0  0  0
  145.1781  138.6517  152.5928 O   0  0  0  0  0  0  0  0  0  0  0  0
  146.1936  136.8274  151.7102 N   0  0  0  0  0  0  0  0  0  0  0  0
  145.0135  136.1645  151.1571 C   0  0  2  0  0  0  0  0  0  0  0  0
  143.8678  136.0965  152.1888 C   0  0  0  0  0  0  0  0  0  0  0  0
  144.1797  135.1191  153.3334 C   0  0  0  0  0  0  0  0  0  0  0  0
  144.5202  133.7209  152.7947 C   0  0  0  0  0  0  0  0  0  0  0  0
  145.6933  133.7651  151.7928 C   0  0  1  0  0  0  0  0  0  0  0  0
  146.0510  132.3623  151.2594 C   0  0  0  0  0  0  0  0  0  0  0  0
  146.4347  131.5594  152.2524 F   0  0  0  0  0  0  0  0  0  0  0  0
  144.9939  131.8227  150.6524 F   0  0  0  0  0  0  0  0  0  0  0  0
  147.0400  132.4509  150.3699 F   0  0  0  0  0  0  0  0  0  0  0  0
  145.3803  134.7561  150.6475 C   0  0  0  0  0  0  0  0  0  0  0  0
  148.3697  136.8781  154.6258 H   0  0  0  0  0  0  0  0  0  0  0  0
  149.2380  137.4531  156.0533 H   0  0  0  0  0  0  0  0  0  0  0  0
  150.0045  136.3090  154.9480 H   0  0  0  0  0  0  0  0  0  0  0  0
  151.6644  139.3489  153.7701 H   0  0  0  0  0  0  0  0  0  0  0  0
  151.8955  137.6345  154.1086 H   0  0  0  0  0  0  0  0  0  0  0  0
  151.5766  138.7551  155.4367 H   0  0  0  0  0  0  0  0  0  0  0  0
  149.0467  142.4403  155.5081 H   0  0  0  0  0  0  0  0  0  0  0  0
  146.1523  140.7781  153.1134 H   0  0  0  0  0  0  0  0  0  0  0  0
  148.1542  137.6338  152.6012 H   0  0  0  0  0  0  0  0  0  0  0  0
  147.0774  136.3563  151.5840 H   0  0  0  0  0  0  0  0  0  0  0  0
  144.6726  136.7480  150.2998 H   0  0  0  0  0  0  0  0  0  0  0  0
  143.6524  137.0870  152.5911 H   0  0  0  0  0  0  0  0  0  0  0  0
  142.9557  135.7729  151.6857 H   0  0  0  0  0  0  0  0  0  0  0  0
  145.0132  135.4976  153.9264 H   0  0  0  0  0  0  0  0  0  0  0  0
  143.3261  135.0577  154.0091 H   0  0  0  0  0  0  0  0  0  0  0  0
  144.7637  133.0630  153.6292 H   0  0  0  0  0  0  0  0  0  0  0  0
  143.6392  133.2939  152.3138 H   0  0  0  0  0  0  0  0  0  0  0  0
  146.5687  134.1368  152.3275 H   0  0  0  0  0  0  0  0  0  0  0  0
  144.5490  134.3689  150.0571 H   0  0  0  0  0  0  0  0  0  0  0  0
  146.2275  134.8228  149.9637 H   0  0  0  0  0  0  0  0  0  0  0  0
  1  2  1  0  0  0  0
  1 24  1  0  0  0  0
  1 25  1  0  0  0  0
  1 26  1  0  0  0  0
  2  3  1  0  0  0  0
  2  4  1  0  0  0  0
  3 27  1  0  0  0  0
  3 28  1  0  0  0  0
  3 29  1  0  0  0  0
  4  9  1  0  0  0  0
  4  5  2  0  0  0  0
  5  6  1  0  0  0  0
  6  7  2  0  0  0  0
  6 30  1  0  0  0  0
  7  8  1  0  0  0  0
  8  9  2  0  0  0  0
  8 31  1  0  0  0  0
  9 10  1  0  0  0  0
 10 11  1  0  0  0  0
 10 32  1  0  0  0  0
 11 12  2  0  0  0  0
 11 13  1  0  0  0  0
 13 14  1  0  0  0  0
 13 33  1  0  0  0  0
 14 23  1  0  0  0  0
 14 15  1  0  0  0  0
 14 34  1  0  0  0  0
 15 16  1  0  0  0  0
 15 35  1  0  0  0  0
 15 36  1  0  0  0  0
 16 17  1  0  0  0  0
 16 37  1  0  0  0  0
 16 38  1  0  0  0  0
 17 18  1  0  0  0  0
 17 39  1  0  0  0  0
 17 40  1  0  0  0  0
 18 19  1  0  0  0  0
 18 23  1  0  0  0  0
 18 41  1  0  0  0  0
 19 20  1  0  0  0  0
 19 21  1  0  0  0  0
 19 22  1  0  0  0  0
 23 42  1  0  0  0  0
 23 43  1  0  0  0  0
M  END
> <s_m_source_file>
AV-unprocessed.smi

> <i_m_source_file_index>
2438

> <i_lp_mmshare_version>
43012

> <i_f3d_flags>
0

> <s_epik_input>
W0NIM11OKFtDSDNdKWMxbltjSF1uW2NIXWMxW05IXUMoPU8pW05IXVtDQEBIXTJbQ0gyXVtDSDJdW0NIMl1bQ0BASF0oQyhGKShGKUYpW0NIMl0y

> <s_epik_cmdline>
J2VwaWtfcHl0aG9uJywgJy1waCcsICc3LjAnLCAnLXRuJywgJzgnLCAnLW1hJywgJzIwMCcsICctbWV0YWxfYmluZGluZycsICctaW1hZScsICc8aW5maWxlLm1hZT4nLCAnLW9tYWUnLCAnPG91dGZpbGUubWFlPic=

> <r_lp_tautomer_probability>
1

> <r_epik_Ionization_Penalty>
0.01759

> <r_epik_Ionization_Penalty_Charging>
0

> <r_epik_Ionization_Penalty_Neutral>
0.01759

> <r_epik_State_Penalty>
0.0133536

> <r_epik_Charging_Adjusted_Penalty>
0.0133536

> <i_epik_Tot_Q>
0

> <i_epik_Tot_abs_Q>
0

> <r_epik_Metal_State_Penalty>
0.0129828

> <b_epik_Metal_Only>
0

> <s_lp_Force_Field>
OPLS_2005

> <r_lp_Energy>
11.7103

> <b_lp_Chiralities_Consistent>
1

> <s_lp_Variant>
AV-unprocessed.smi:2438-1

> <Gold.Version>
5.8.1

> <Gold.Id.Protein>
6NUR|6NUR_protein|mol2

> <Gold.PLP.Fitness>
39.3646

> <Gold.PLP.PLP>
-28.4794

> <Gold.PLP.part.hbond>
-2.4478

> <Gold.PLP.part.metal>
0.0000

> <Gold.PLP.part.buried>
2.6590

> <Gold.PLP.part.nonpolar>
-34.3827

> <Gold.PLP.part.repulsive>
5.9880

> <Gold.PLP.ligand.clash>
0.0000

> <Gold.PLP.ligand.torsion>
0.6825

> <Gold.PLP.Chemscore.Hbond>
2.0000

> <Gold.PLP.Chemscore.CHOScore>
1.9682

> <Gold.PLP.Chemscore.Metal>
0.0000

> <Gold.Chemscore.Hbonds>
donor molecule, donor type, donor heavy atom, donor atom, acceptor molecule, acceptor atom, score
      L1  H    10    32       P1  7948  1.00
      L1  H    13    33       P1  7948  1.00
      L1  C     6    30       P1  8028  1.00
      L1  C     8    31       P1 10175  0.93

> <Gold.PLP.Chemscore.Internal.Correction>
0.3456

> <Gold.Rescore>
     Score         DG    S(hbond)    S(metal)    S(lipo)     H(rot)  DE(clash)    DE(int)     intcor
      9.91     -15.53       1.94        0.00      58.85       1.30       2.48       3.14       ----

> <Gold.Chemscore.Fitness>
9.9098

> <Gold.Chemscore.DG>
-15.5291

> <Gold.Chemscore.ZeroCoef>
-5.4800

> <Gold.Chemscore.Hbond>
1.9427

> <Gold.Chemscore.Metal>
0.0000

> <Gold.Chemscore.Lipo>
58.8453

> <Gold.Chemscore.Internal_Hbond>
0.0000

> <Gold.Chemscore.DEClash>
2.4843

> <Gold.Chemscore.DEInternal>
3.1351

> <Gold.Chemscore.Rot>
1.2987

> <Gold.Chemscore.Internal.Correction>
   9.000000E+99

> <Gold.Chemscore.Hbonds>
donor molecule, donor type, donor heavy atom, donor atom, acceptor molecule, acceptor atom, score
      L1  H    10    32       P1  7948  0.99
      L1  H    13    33       P1  7948  0.96

> <Gold.Chemscore.Hbond.Weighted>
-6.4888

> <Gold.Chemscore.Metal.Weighted>
-0.0000

> <Gold.Chemscore.Lipo.Weighted>
-6.8849

> <Gold.Chemscore.Internal_Hbond.Weighted>
0.0000

> <Gold.Chemscore.DEClash.Weighted>
2.4843

> <Gold.Chemscore.DEInternal.Weighted>
3.1351

> <Gold.Chemscore.Rot.Weighted>
3.3246

> <Gold.Chemscore.Internal.Correction.Weighted>
   9.000000E+99

> <Gold.Protein.RotatedTorsions>
[ 6907 6896 6895 6894 ] final   68.30 input  -60.11 | X-H torsion
[ 7974 7965 7964 7962 ] final   25.94 input  175.53 | X-H torsion
[ 8008 7997 7996 7995 ] final  172.27 input   59.86 | X-H torsion
[ 10167 10162 10161 10158 ] final -131.25 input  -65.29 | X-H torsion
[ 10718 10713 10712 10709 ] final   92.76 input   66.30 | X-H torsion
[ 10763 10752 10751 10750 ] final   45.86 input  -60.55 | X-H torsion
[ 11005 11000 10999 10996 ] final  -51.61 input  -57.11 | X-H torsion

> <Gold.Protein.ActiveResidues>
 VAL166  LYS551  ARG553  GLY616  TRP617  ASP618  TYR619  PRO620  LYS621  CYS622 
 ASP623  PHE694  ASN695  SER759  ASP760  ASP761  ALA762  ILE779  LEU786  VAL792 
 PHE793  MET794  SER795  GLU796  ALA797  LYS798  CYS799  TRP800  GLU811  SER814 

> <Gold.Protein.RotatedAtoms>
  152.4611  134.5181  159.9774 H   0  0  0  0  0  0  0  0  0  0  0  0  # atno 6907 bound_to 6896
  151.5230  133.3457  159.2912 H   0  0  0  0  0  0  0  0  0  0  0  0  # atno 6908 bound_to 6896
  150.8575  134.7947  159.7119 H   0  0  0  0  0  0  0  0  0  0  0  0  # atno 6909 bound_to 6896
  146.1863  139.7397  142.8864 H   0  0  0  0  0  0  0  0  0  0  0  0  # atno 7974 bound_to 7965
  156.1190  140.1490  156.9231 H   0  0  0  0  0  0  0  0  0  0  0  0  # atno 8008 bound_to 7997
  154.4822  140.0876  156.7445 H   0  0  0  0  0  0  0  0  0  0  0  0  # atno 8009 bound_to 7997
  155.4461  140.3433  155.4297 H   0  0  0  0  0  0  0  0  0  0  0  0  # atno 8010 bound_to 7997
  139.9208  143.6384  152.2554 H   0  0  0  0  0  0  0  0  0  0  0  0  # atno 10167 bound_to 10162
  157.6957  131.0454  150.3931 H   0  0  0  0  0  0  0  0  0  0  0  0  # atno 10718 bound_to 10713
  152.9818  135.6026  154.3506 H   0  0  0  0  0  0  0  0  0  0  0  0  # atno 10763 bound_to 10752
  154.3195  135.2770  155.2528 H   0  0  0  0  0  0  0  0  0  0  0  0  # atno 10764 bound_to 10752
  154.4701  135.5944  153.6371 H   0  0  0  0  0  0  0  0  0  0  0  0  # atno 10765 bound_to 10752
  141.0880  133.6638  156.3903 H   0  0  0  0  0  0  0  0  0  0  0  0  # atno 11005 bound_to 11000
  145.3928  141.0374  143.3114 LP  0  0  0  0  0  0  0  0  0  0  0  0  # atno 17320 bound_to 7965
  144.8404  139.5482  143.6903 LP  0  0  0  0  0  0  0  0  0  0  0  0  # atno 17321 bound_to 7965
  139.6863  144.7651  151.1518 LP  0  0  0  0  0  0  0  0  0  0  0  0  # atno 17342 bound_to 10162
  140.7662  143.5652  150.9055 LP  0  0  0  0  0  0  0  0  0  0  0  0  # atno 17343 bound_to 10162
  156.4332  130.3976  149.6746 LP  0  0  0  0  0  0  0  0  0  0  0  0  # atno 17370 bound_to 10713
  156.3956  130.7649  151.2653 LP  0  0  0  0  0  0  0  0  0  0  0  0  # atno 17371 bound_to 10713
  140.5317  134.6206  157.5352 LP  0  0  0  0  0  0  0  0  0  0  0  0  # atno 17394 bound_to 11000
  139.9702  134.7306  156.0058 LP  0  0  0  0  0  0  0  0  0  0  0  0  # atno 17395 bound_to 11000

$$$$
