AV-unprocessed.smi:3250|AV-procd|sdf|12428|dock1
  -GOLD-   2272018313D 1   1.00000     0.00000
 Structure written by MMmdl.
 39 40  0  0  0  0  0  0  0  0  2 V2000
  147.1353  138.8253  153.3813 C   0  0  0  0  0  0  0  0  0  0  0  0
  147.3666  137.6999  154.3998 C   0  0  0  0  0  0  0  0  0  0  0  0
  148.7370  137.1342  154.3266 N   0  3  2  0  0  0  0  0  0  0  0  0
  148.9238  135.9979  155.2598 C   0  0  0  0  0  0  0  0  0  0  0  0
  150.3399  135.4162  155.1253 C   0  0  0  0  0  0  0  0  0  0  0  0
  151.2950  136.4430  155.3563 O   0  0  0  0  0  0  0  0  0  0  0  0
  151.2008  137.4932  154.3990 C   0  0  2  0  0  0  0  0  0  0  0  0
  152.3225  138.5016  154.6817 C   0  0  0  0  0  0  0  0  0  0  0  0
  151.9168  139.4962  155.6630 N   0  0  0  0  0  0  0  0  0  0  0  0
  152.3538  139.5084  156.9739 C   0  0  0  0  0  0  0  0  0  0  0  0
  152.7711  138.3575  157.5135 N   0  0  0  0  0  0  0  0  0  0  0  0
  153.1919  138.3997  158.7962 C   0  0  0  0  0  0  0  0  0  0  0  0
  153.1951  139.5985  159.5367 C   0  0  0  0  0  0  0  0  0  0  0  0
  152.7374  140.7520  158.8686 C   0  0  0  0  0  0  0  0  0  0  0  0
  152.7201  141.9591  159.5358 O   0  0  0  0  0  0  0  0  0  0  0  0
  153.3849  142.0417  160.7912 C   0  0  0  0  0  0  0  0  0  0  0  0
  152.3142  140.6968  157.5802 N   0  0  0  0  0  0  0  0  0  0  0  0
  149.8082  138.1435  154.5205 C   0  0  0  0  0  0  0  0  0  0  0  0
  146.0941  139.1484  153.3992 H   0  0  0  0  0  0  0  0  0  0  0  0
  147.3592  138.4924  152.3673 H   0  0  0  0  0  0  0  0  0  0  0  0
  147.7472  139.7016  153.5927 H   0  0  0  0  0  0  0  0  0  0  0  0
  147.1586  138.0496  155.4122 H   0  0  0  0  0  0  0  0  0  0  0  0
  146.6451  136.9085  154.1920 H   0  0  0  0  0  0  0  0  0  0  0  0
  148.7554  136.3345  156.2842 H   0  0  0  0  0  0  0  0  0  0  0  0
  148.1877  135.2208  155.0515 H   0  0  0  0  0  0  0  0  0  0  0  0
  150.4913  134.6226  155.8571 H   0  0  0  0  0  0  0  0  0  0  0  0
  150.4904  134.9740  154.1392 H   0  0  0  0  0  0  0  0  0  0  0  0
  151.3273  137.0888  153.3926 H   0  0  0  0  0  0  0  0  0  0  0  0
  153.1987  137.9780  155.0657 H   0  0  0  0  0  0  0  0  0  0  0  0
  152.6243  139.0007  153.7600 H   0  0  0  0  0  0  0  0  0  0  0  0
  151.3964  140.3006  155.3444 H   0  0  0  0  0  0  0  0  0  0  0  0
  153.5289  137.4718  159.2343 H   0  0  0  0  0  0  0  0  0  0  0  0
  153.5324  139.6314  160.5622 H   0  0  0  0  0  0  0  0  0  0  0  0
  153.2716  143.0481  161.1940 H   0  0  0  0  0  0  0  0  0  0  0  0
  154.4529  141.8434  160.6909 H   0  0  0  0  0  0  0  0  0  0  0  0
  152.9582  141.3461  161.5155 H   0  0  0  0  0  0  0  0  0  0  0  0
  149.7175  138.9360  153.7781 H   0  0  0  0  0  0  0  0  0  0  0  0
  149.6959  138.6092  155.5010 H   0  0  0  0  0  0  0  0  0  0  0  0
  148.8470  136.7584  153.3952 H   0  0  0  0  0  0  0  0  0  0  0  0
  1  2  1  0  0  0  0
  1 19  1  0  0  0  0
  1 20  1  0  0  0  0
  1 21  1  0  0  0  0
  2  3  1  0  0  0  0
  2 22  1  0  0  0  0
  2 23  1  0  0  0  0
  3 18  1  0  0  0  0
  3  4  1  0  0  0  0
  3 39  1  0  0  0  0
  4  5  1  0  0  0  0
  4 24  1  0  0  0  0
  4 25  1  0  0  0  0
  5  6  1  0  0  0  0
  5 26  1  0  0  0  0
  5 27  1  0  0  0  0
  6  7  1  0  0  0  0
  7  8  1  0  0  0  0
  7 18  1  0  0  0  0
  7 28  1  0  0  0  0
  8  9  1  0  0  0  0
  8 29  1  0  0  0  0
  8 30  1  0  0  0  0
  9 10  1  0  0  0  0
  9 31  1  0  0  0  0
 10 17  1  0  0  0  0
 10 11  2  0  0  0  0
 11 12  1  0  0  0  0
 12 13  2  0  0  0  0
 12 32  1  0  0  0  0
 13 14  1  0  0  0  0
 13 33  1  0  0  0  0
 14 15  1  0  0  0  0
 14 17  2  0  0  0  0
 15 16  1  0  0  0  0
 16 34  1  0  0  0  0
 16 35  1  0  0  0  0
 16 36  1  0  0  0  0
 18 37  1  0  0  0  0
 18 38  1  0  0  0  0
M  CHG  1   3   1
M  END
> <s_m_source_file>
AV-unprocessed.smi

> <i_m_source_file_index>
3250

> <i_lp_mmshare_version>
43012

> <i_f3d_flags>
0

> <s_epik_input>
W0NIM11bQ0gyXU4xW0NIMl1bQ0gyXU9bQ0BIXShbQ0gyXTEpW0NIMl1bTkhdYzJuW2NIXVtjSF1jKG4yKU9bQ0gzXQ==

> <s_epik_cmdline>
J2VwaWtfcHl0aG9uJywgJy1waCcsICc3LjAnLCAnLXRuJywgJzgnLCAnLW1hJywgJzIwMCcsICctbWV0YWxfYmluZGluZycsICctaW1hZScsICc8aW5maWxlLm1hZT4nLCAnLW9tYWUnLCAnPG91dGZpbGUubWFlPic=

> <r_lp_tautomer_probability>
1

> <r_epik_Ionization_Penalty>
0.19684

> <r_epik_Ionization_Penalty_Charging>
0.178504

> <r_epik_Ionization_Penalty_Neutral>
0.0183356

> <r_epik_State_Penalty>
0.162939

> <r_epik_Charging_Adjusted_Penalty>
0.341443

> <i_epik_Tot_Q>
1

> <i_epik_Tot_abs_Q>
1

> <r_epik_Metal_State_Penalty>
0.1608

> <b_epik_Metal_Only>
0

> <s_lp_Force_Field>
OPLS_2005

> <r_lp_Energy>
8.82404

> <b_lp_Chiralities_Consistent>
1

> <s_lp_Variant>
AV-unprocessed.smi:3250-4

> <Gold.Version>
5.8.1

> <Gold.Id.Protein>
6NUR|6NUR_protein|mol2

> <Gold.PLP.Fitness>
34.3157

> <Gold.PLP.PLP>
-26.4725

> <Gold.PLP.part.hbond>
-2.1534

> <Gold.PLP.part.metal>
0.0000

> <Gold.PLP.part.buried>
-4.3694

> <Gold.PLP.part.nonpolar>
-21.0380

> <Gold.PLP.part.repulsive>
0.2536

> <Gold.PLP.ligand.clash>
0.0000

> <Gold.PLP.ligand.torsion>
0.6548

> <Gold.PLP.Chemscore.Hbond>
3.0000

> <Gold.PLP.Chemscore.CHOScore>
0.0000

> <Gold.PLP.Chemscore.Metal>
0.0000

> <Gold.Chemscore.Hbonds>
donor molecule, donor type, donor heavy atom, donor atom, acceptor molecule, acceptor atom, score
      L1  H     3    39       P1  7948  2.00
      P1  H 10752 10765       L1     6  1.00

> <Gold.PLP.Chemscore.Internal.Correction>
0.1528

> <Gold.Rescore>
     Score         DG    S(hbond)    S(metal)    S(lipo)     H(rot)  DE(clash)    DE(int)     intcor
     12.01     -12.81       1.33        0.00      62.10       1.71       0.16       0.63       ----

> <Gold.Chemscore.Fitness>
12.0098

> <Gold.Chemscore.DG>
-12.8083

> <Gold.Chemscore.ZeroCoef>
-5.4800

> <Gold.Chemscore.Hbond>
1.3316

> <Gold.Chemscore.Metal>
0.0000

> <Gold.Chemscore.Lipo>
62.0963

> <Gold.Chemscore.Internal_Hbond>
0.0000

> <Gold.Chemscore.DEClash>
0.1643

> <Gold.Chemscore.DEInternal>
0.6342

> <Gold.Chemscore.Rot>
1.7127

> <Gold.Chemscore.Internal.Correction>
   9.000000E+99

> <Gold.Chemscore.Hbonds>
donor molecule, donor type, donor heavy atom, donor atom, acceptor molecule, acceptor atom, score
      L1  H     3    39       P1  7948  0.99
      P1  H 10752 10765       L1     6  0.09

> <Gold.Chemscore.Hbond.Weighted>
-4.4476

> <Gold.Chemscore.Metal.Weighted>
-0.0000

> <Gold.Chemscore.Lipo.Weighted>
-7.2653

> <Gold.Chemscore.Internal_Hbond.Weighted>
0.0000

> <Gold.Chemscore.DEClash.Weighted>
0.1643

> <Gold.Chemscore.DEInternal.Weighted>
0.6342

> <Gold.Chemscore.Rot.Weighted>
4.3846

> <Gold.Chemscore.Internal.Correction.Weighted>
   9.000000E+99

> <Gold.Protein.RotatedTorsions>
[ 6907 6896 6895 6894 ] final -108.79 input  -60.11 | X-H torsion
[ 7974 7965 7964 7962 ] final -100.66 input  175.53 | X-H torsion
[ 8008 7997 7996 7995 ] final   86.73 input   59.86 | X-H torsion
[ 10167 10162 10161 10158 ] final  137.16 input  -65.29 | X-H torsion
[ 10718 10713 10712 10709 ] final   61.21 input   66.30 | X-H torsion
[ 10763 10752 10751 10750 ] final -169.48 input  -60.55 | X-H torsion
[ 11005 11000 10999 10996 ] final  -19.96 input  -57.11 | X-H torsion

> <Gold.Protein.ActiveResidues>
 VAL166  LYS551  ARG553  GLY616  TRP617  ASP618  TYR619  PRO620  LYS621  CYS622 
 ASP623  PHE694  ASN695  SER759  ASP760  ASP761  ALA762  ILE779  LEU786  VAL792 
 PHE793  MET794  SER795  GLU796  ALA797  LYS798  CYS799  TRP800  GLU811  SER814 

> <Gold.Protein.RotatedAtoms>
  150.7523  133.9625  159.3519 H   0  0  0  0  0  0  0  0  0  0  0  0  # atno 6907 bound_to 6896
  151.7552  135.0821  160.0346 H   0  0  0  0  0  0  0  0  0  0  0  0  # atno 6908 bound_to 6896
  152.3440  133.6063  159.5933 H   0  0  0  0  0  0  0  0  0  0  0  0  # atno 6909 bound_to 6896
  145.2917  140.9354  143.2874 H   0  0  0  0  0  0  0  0  0  0  0  0  # atno 7974 bound_to 7965
  155.9664  140.3389  155.6537 H   0  0  0  0  0  0  0  0  0  0  0  0  # atno 8008 bound_to 7997
  155.6731  140.0729  157.2531 H   0  0  0  0  0  0  0  0  0  0  0  0  # atno 8009 bound_to 7997
  154.4155  140.1688  156.1888 H   0  0  0  0  0  0  0  0  0  0  0  0  # atno 8010 bound_to 7997
  139.5154  144.6425  151.5529 H   0  0  0  0  0  0  0  0  0  0  0  0  # atno 10167 bound_to 10162
  157.5811  130.8982  149.9433 H   0  0  0  0  0  0  0  0  0  0  0  0  # atno 10718 bound_to 10713
  154.6518  135.2912  154.9977 H   0  0  0  0  0  0  0  0  0  0  0  0  # atno 10763 bound_to 10752
  154.1067  135.6568  153.4881 H   0  0  0  0  0  0  0  0  0  0  0  0  # atno 10764 bound_to 10752
  153.0381  135.5255  154.7430 H   0  0  0  0  0  0  0  0  0  0  0  0  # atno 10765 bound_to 10752
  140.8418  133.7921  155.9869 H   0  0  0  0  0  0  0  0  0  0  0  0  # atno 11005 bound_to 11000
  144.9167  139.4462  143.6561 LP  0  0  0  0  0  0  0  0  0  0  0  0  # atno 17320 bound_to 7965
  146.3182  139.8005  142.8966 LP  0  0  0  0  0  0  0  0  0  0  0  0  # atno 17321 bound_to 7965
  140.6197  143.9281  150.6517 LP  0  0  0  0  0  0  0  0  0  0  0  0  # atno 17342 bound_to 10162
  140.2550  143.3565  152.1372 LP  0  0  0  0  0  0  0  0  0  0  0  0  # atno 17343 bound_to 10162
  156.0857  130.3668  150.0492 LP  0  0  0  0  0  0  0  0  0  0  0  0  # atno 17370 bound_to 10713
  156.8631  130.9498  151.3616 LP  0  0  0  0  0  0  0  0  0  0  0  0  # atno 17371 bound_to 10713
  140.8887  134.2522  157.5106 LP  0  0  0  0  0  0  0  0  0  0  0  0  # atno 17394 bound_to 11000
  139.8703  134.9651  156.4516 LP  0  0  0  0  0  0  0  0  0  0  0  0  # atno 17395 bound_to 11000

$$$$
