AV-unprocessed.smi:1278|AV-procd|sdf|5348|dock2
  -GOLD-   22720 4483D 1   1.00000     0.00000
 Structure written by MMmdl.
 39 40  0  0  0  0  0  0  0  0  2 V2000
  146.1049  143.1803  153.5009 C   0  0  0  0  0  0  0  0  0  0  0  0
  146.8324  142.5165  154.6835 C   0  0  1  0  0  0  0  0  0  0  0  0
  146.0366  142.6023  155.9991 C   0  0  0  0  0  0  0  0  0  0  0  0
  144.8492  141.6295  155.9971 C   0  0  0  0  0  0  0  0  0  0  0  0
  145.3060  140.2003  155.6643 C   0  0  0  0  0  0  0  0  0  0  0  0
  146.0332  140.1583  154.3694 N   0  3  2  0  0  0  0  0  0  0  0  0
  146.3488  138.7710  153.9466 C   0  0  0  0  0  0  0  0  0  0  0  0
  146.3642  138.6155  152.4135 C   0  0  0  0  0  0  0  0  0  0  0  0
  146.5545  137.2247  152.0179 N   0  0  0  0  0  0  0  0  0  0  0  0
  145.5617  136.3585  151.7688 C   0  0  0  0  0  0  0  0  0  0  0  0
  144.3697  136.6540  151.8616 O   0  0  0  0  0  0  0  0  0  0  0  0
  146.0400  135.1529  151.4148 N   0  0  0  0  0  0  0  0  0  0  0  0
  145.3077  133.9837  151.0797 C   0  0  0  0  0  0  0  0  0  0  0  0
  145.8471  132.8859  150.5366 N   0  0  0  0  0  0  0  0  0  0  0  0
  144.8934  131.8896  150.3121 C   0  0  0  0  0  0  0  0  0  0  0  0
  143.6241  132.2492  150.6917 C   0  0  0  0  0  0  0  0  0  0  0  0
  143.5751  133.8631  151.3494 S   0  0  0  0  0  0  0  0  0  0  0  0
  147.2213  141.0548  154.3803 C   0  0  0  0  0  0  0  0  0  0  0  0
  145.1718  142.6720  153.2579 H   0  0  0  0  0  0  0  0  0  0  0  0
  146.7264  143.1700  152.6051 H   0  0  0  0  0  0  0  0  0  0  0  0
  145.8677  144.2213  153.7218 H   0  0  0  0  0  0  0  0  0  0  0  0
  147.7570  143.0771  154.8276 H   0  0  0  0  0  0  0  0  0  0  0  0
  146.6952  142.3567  156.8335 H   0  0  0  0  0  0  0  0  0  0  0  0
  145.6915  143.6221  156.1740 H   0  0  0  0  0  0  0  0  0  0  0  0
  144.3580  141.6441  156.9704 H   0  0  0  0  0  0  0  0  0  0  0  0
  144.1009  141.9546  155.2737 H   0  0  0  0  0  0  0  0  0  0  0  0
  145.9485  139.8134  156.4569 H   0  0  0  0  0  0  0  0  0  0  0  0
  144.4310  139.5507  155.6195 H   0  0  0  0  0  0  0  0  0  0  0  0
  147.3001  138.4579  154.3796 H   0  0  0  0  0  0  0  0  0  0  0  0
  145.5916  138.0979  154.3511 H   0  0  0  0  0  0  0  0  0  0  0  0
  145.4392  139.0013  151.9810 H   0  0  0  0  0  0  0  0  0  0  0  0
  147.1762  139.1915  151.9714 H   0  0  0  0  0  0  0  0  0  0  0  0
  147.5063  136.9025  151.9177 H   0  0  0  0  0  0  0  0  0  0  0  0
  147.0444  135.0598  151.3768 H   0  0  0  0  0  0  0  0  0  0  0  0
  145.2064  130.9522  149.8766 H   0  0  0  0  0  0  0  0  0  0  0  0
  142.7186  131.6646  150.6242 H   0  0  0  0  0  0  0  0  0  0  0  0
  147.7436  141.0143  153.4251 H   0  0  0  0  0  0  0  0  0  0  0  0
  147.9272  140.6981  155.1322 H   0  0  0  0  0  0  0  0  0  0  0  0
  145.3929  140.5255  153.6795 H   0  0  0  0  0  0  0  0  0  0  0  0
  1  2  1  0  0  0  0
  1 19  1  0  0  0  0
  1 20  1  0  0  0  0
  1 21  1  0  0  0  0
  2 18  1  0  0  0  0
  2  3  1  0  0  0  0
  2 22  1  0  0  0  0
  3  4  1  0  0  0  0
  3 23  1  0  0  0  0
  3 24  1  0  0  0  0
  4  5  1  0  0  0  0
  4 25  1  0  0  0  0
  4 26  1  0  0  0  0
  5  6  1  0  0  0  0
  5 27  1  0  0  0  0
  5 28  1  0  0  0  0
  6  7  1  0  0  0  0
  6 18  1  0  0  0  0
  6 39  1  0  0  0  0
  7  8  1  0  0  0  0
  7 29  1  0  0  0  0
  7 30  1  0  0  0  0
  8  9  1  0  0  0  0
  8 31  1  0  0  0  0
  8 32  1  0  0  0  0
  9 10  1  0  0  0  0
  9 33  1  0  0  0  0
 10 11  2  0  0  0  0
 10 12  1  0  0  0  0
 12 13  1  0  0  0  0
 12 34  1  0  0  0  0
 13 17  1  0  0  0  0
 13 14  2  0  0  0  0
 14 15  1  0  0  0  0
 15 16  2  0  0  0  0
 15 35  1  0  0  0  0
 16 17  1  0  0  0  0
 16 36  1  0  0  0  0
 18 37  1  0  0  0  0
 18 38  1  0  0  0  0
M  CHG  1   6   1
M  END
> <s_m_source_file>
AV-unprocessed.smi

> <i_m_source_file_index>
1278

> <i_lp_mmshare_version>
43012

> <i_f3d_flags>
0

> <s_epik_input>
W0NIM11bQ0BASF0xW0NIMl1bQ0gyXVtDSDJdTihbQ0gyXTEpW0NIMl1bQ0gyXVtOSF1DKD1PKVtOSF1jMm5bY0hdW2NIXXMy

> <s_epik_cmdline>
J2VwaWtfcHl0aG9uJywgJy1waCcsICc3LjAnLCAnLXRuJywgJzgnLCAnLW1hJywgJzIwMCcsICctbWV0YWxfYmluZGluZycsICctaW1hZScsICc8aW5maWxlLm1hZT4nLCAnLW9tYWUnLCAnPG91dGZpbGUubWFlPic=

> <r_lp_tautomer_probability>
0.999

> <r_epik_Ionization_Penalty>
0.00222194

> <r_epik_Ionization_Penalty_Charging>
0.00208169

> <r_epik_Ionization_Penalty_Neutral>
0.000140251

> <r_epik_State_Penalty>
0.00142585

> <r_epik_Charging_Adjusted_Penalty>
0.00350754

> <i_epik_Tot_Q>
1

> <i_epik_Tot_abs_Q>
1

> <r_epik_Metal_State_Penalty>
0.0570424

> <b_epik_Metal_Only>
0

> <s_lp_Force_Field>
OPLS_2005

> <r_lp_Energy>
16.7193

> <b_lp_Chiralities_Consistent>
1

> <s_lp_Variant>
AV-unprocessed.smi:1278-2

> <Gold.Version>
5.8.1

> <Gold.Id.Protein>
6NUR|6NUR_protein|mol2

> <Gold.PLP.Fitness>
42.2452

> <Gold.PLP.PLP>
-30.1862

> <Gold.PLP.part.hbond>
-2.9736

> <Gold.PLP.part.metal>
0.0000

> <Gold.PLP.part.buried>
-6.7244

> <Gold.PLP.part.nonpolar>
-23.3541

> <Gold.PLP.part.repulsive>
2.1364

> <Gold.PLP.ligand.clash>
0.0000

> <Gold.PLP.ligand.torsion>
0.5473

> <Gold.PLP.Chemscore.Hbond>
3.7635

> <Gold.PLP.Chemscore.CHOScore>
0.6115

> <Gold.PLP.Chemscore.Metal>
0.0000

> <Gold.Chemscore.Hbonds>
donor molecule, donor type, donor heavy atom, donor atom, acceptor molecule, acceptor atom, score
      L1  H     6    39       P1 10175  1.72
      L1  H     9    33       P1  7948  1.00
      L1  H    12    34       P1  7948  0.39
      L1  C    16    36       P1 10952  0.99

> <Gold.PLP.Chemscore.Internal.Correction>
0.0288

> <Gold.Rescore>
     Score         DG    S(hbond)    S(metal)    S(lipo)     H(rot)  DE(clash)    DE(int)     intcor
     15.60     -17.59       2.87        0.00      56.51       1.60       0.16       1.84       ----

> <Gold.Chemscore.Fitness>
15.5958

> <Gold.Chemscore.DG>
-17.5896

> <Gold.Chemscore.ZeroCoef>
-5.4800

> <Gold.Chemscore.Hbond>
2.8725

> <Gold.Chemscore.Metal>
0.0000

> <Gold.Chemscore.Lipo>
56.5111

> <Gold.Chemscore.Internal_Hbond>
0.0000

> <Gold.Chemscore.DEClash>
0.1586

> <Gold.Chemscore.DEInternal>
1.8352

> <Gold.Chemscore.Rot>
1.6001

> <Gold.Chemscore.Internal.Correction>
   9.000000E+99

> <Gold.Chemscore.Hbonds>
donor molecule, donor type, donor heavy atom, donor atom, acceptor molecule, acceptor atom, score
      L1  H     6    39       P1 10175  0.81
      L1  H     9    33       P1  7948  0.97
      L1  H    12    34       P1  7948  0.33

> <Gold.Chemscore.Hbond.Weighted>
-9.5941

> <Gold.Chemscore.Metal.Weighted>
-0.0000

> <Gold.Chemscore.Lipo.Weighted>
-6.6118

> <Gold.Chemscore.Internal_Hbond.Weighted>
0.0000

> <Gold.Chemscore.DEClash.Weighted>
0.1586

> <Gold.Chemscore.DEInternal.Weighted>
1.8352

> <Gold.Chemscore.Rot.Weighted>
4.0963

> <Gold.Chemscore.Internal.Correction.Weighted>
   9.000000E+99

> <Gold.Protein.RotatedTorsions>
[ 6907 6896 6895 6894 ] final   31.98 input  -60.11 | X-H torsion
[ 7974 7965 7964 7962 ] final   16.09 input  175.53 | X-H torsion
[ 8008 7997 7996 7995 ] final   60.12 input   59.86 | X-H torsion
[ 10167 10162 10161 10158 ] final  151.88 input  -65.29 | X-H torsion
[ 10718 10713 10712 10709 ] final   -8.48 input   66.30 | X-H torsion
[ 10763 10752 10751 10750 ] final   75.29 input  -60.55 | X-H torsion
[ 11005 11000 10999 10996 ] final  164.86 input  -57.11 | X-H torsion

> <Gold.Protein.ActiveResidues>
 VAL166  LYS551  ARG553  GLY616  TRP617  ASP618  TYR619  PRO620  LYS621  CYS622 
 ASP623  PHE694  ASN695  SER759  ASP760  ASP761  ALA762  ILE779  LEU786  VAL792 
 PHE793  MET794  SER795  GLU796  ALA797  LYS798  CYS799  TRP800  GLU811  SER814 

> <Gold.Protein.RotatedAtoms>
  152.0679  134.9552  160.0574 H   0  0  0  0  0  0  0  0  0  0  0  0  # atno 6907 bound_to 6896
  152.0890  133.4186  159.4543 H   0  0  0  0  0  0  0  0  0  0  0  0  # atno 6908 bound_to 6896
  150.6836  134.2814  159.4672 H   0  0  0  0  0  0  0  0  0  0  0  0  # atno 6909 bound_to 6896
  146.2260  139.8799  142.8572 H   0  0  0  0  0  0  0  0  0  0  0  0  # atno 7974 bound_to 7965
  155.5772  140.3491  155.4530 H   0  0  0  0  0  0  0  0  0  0  0  0  # atno 8008 bound_to 7997
  156.0400  140.1294  157.0191 H   0  0  0  0  0  0  0  0  0  0  0  0  # atno 8009 bound_to 7997
  154.4388  140.1026  156.6209 H   0  0  0  0  0  0  0  0  0  0  0  0  # atno 8010 bound_to 7997
  139.4837  144.5404  151.7574 H   0  0  0  0  0  0  0  0  0  0  0  0  # atno 10167 bound_to 10162
  156.7019  130.5096  149.5915 H   0  0  0  0  0  0  0  0  0  0  0  0  # atno 10718 bound_to 10713
  153.0645  135.4994  154.8168 H   0  0  0  0  0  0  0  0  0  0  0  0  # atno 10763 bound_to 10752
  154.6933  135.2988  154.9451 H   0  0  0  0  0  0  0  0  0  0  0  0  # atno 10764 bound_to 10752
  154.0199  135.6743  153.4824 H   0  0  0  0  0  0  0  0  0  0  0  0  # atno 10765 bound_to 10752
  140.2503  134.7982  157.3495 H   0  0  0  0  0  0  0  0  0  0  0  0  # atno 11005 bound_to 11000
  145.2523  141.0048  143.3874 LP  0  0  0  0  0  0  0  0  0  0  0  0  # atno 17320 bound_to 7965
  144.9365  139.4238  143.6470 LP  0  0  0  0  0  0  0  0  0  0  0  0  # atno 17321 bound_to 7965
  140.4943  144.1264  150.5957 LP  0  0  0  0  0  0  0  0  0  0  0  0  # atno 17342 bound_to 10162
  140.4135  143.2645  151.9803 LP  0  0  0  0  0  0  0  0  0  0  0  0  # atno 17343 bound_to 10162
  156.1722  130.6444  151.0851 LP  0  0  0  0  0  0  0  0  0  0  0  0  # atno 17370 bound_to 10713
  157.6969  131.0790  150.6940 LP  0  0  0  0  0  0  0  0  0  0  0  0  # atno 17371 bound_to 10713
  140.1565  134.4783  155.7924 LP  0  0  0  0  0  0  0  0  0  0  0  0  # atno 17394 bound_to 11000
  141.2202  133.6883  156.7470 LP  0  0  0  0  0  0  0  0  0  0  0  0  # atno 17395 bound_to 11000

$$$$
