AV-unprocessed.smi:81|AV-procd|sdf|791|dock8
  -GOLD-   2262017163D 1   1.00000     0.00000
 Structure written by MMmdl.
 64 67  0  0  0  0  0  0  0  0  2 V2000
  145.8761  136.4246  161.6133 C   0  0  0  0  0  0  0  0  0  0  0  0
  147.1690  135.8799  162.2422 C   0  0  0  0  0  0  0  0  0  0  0  0
  147.6022  136.7941  163.3983 C   0  0  0  0  0  0  0  0  0  0  0  0
  148.3292  135.7317  161.2256 C   0  0  0  0  0  0  0  0  0  0  0  0
  147.9297  135.5543  159.8220 N   0  0  0  0  0  0  0  0  0  0  0  0
  148.0955  136.6935  159.1056 C   0  0  0  0  0  0  0  0  0  0  0  0
  147.0171  137.3192  158.5637 N   0  0  0  0  0  0  0  0  0  0  0  0
  147.1832  138.4309  157.8407 C   0  0  0  0  0  0  0  0  0  0  0  0
  148.3162  139.0700  157.5410 N   0  0  0  0  0  0  0  0  0  0  0  0
  149.3993  138.4424  158.0831 C   0  0  0  0  0  0  0  0  0  0  0  0
  149.3766  137.2614  158.8749 C   0  0  0  0  0  0  0  0  0  0  0  0
  150.6654  136.9213  159.2646 N   0  0  0  0  0  0  0  0  0  0  0  0
  151.4119  137.8439  158.7214 C   0  0  0  0  0  0  0  0  0  0  0  0
  150.7353  138.7900  157.9837 N   0  0  0  0  0  0  0  0  0  0  0  0
  151.3176  139.9113  157.2626 C   0  0  0  0  0  0  0  0  0  0  0  0
  151.1433  139.8122  155.7269 C   0  0  2  0  0  0  0  0  0  0  0  0
  152.3872  140.1174  155.1181 O   0  0  0  0  0  0  0  0  0  0  0  0
  150.0988  140.8015  155.1996 C   0  0  0  0  0  0  0  0  0  0  0  0
  148.9472  139.9149  154.7409 C   0  0  0  0  0  0  0  0  0  0  0  0
  149.6089  138.7463  154.2911 O   0  0  0  0  0  0  0  0  0  0  0  0
  150.6024  138.4363  155.2569 C   0  0  1  0  0  0  0  0  0  0  0  0
  151.6220  137.4371  154.6854 C   0  0  0  0  0  0  0  0  0  0  0  0
  148.0815  134.2712  159.1090 C   0  0  2  0  0  0  0  0  0  0  0  0
  146.7274  133.6621  158.6613 C   0  0  0  0  0  0  0  0  0  0  0  0
  145.8706  133.2294  159.8651 C   0  0  0  0  0  0  0  0  0  0  0  0
  146.5959  132.2492  160.7104 N   0  3  2  0  0  0  0  0  0  0  0  0
  145.7690  131.7539  161.8314 C   0  0  0  0  0  0  0  0  0  0  0  0
  147.9134  132.7606  161.1629 C   0  0  0  0  0  0  0  0  0  0  0  0
  148.7810  133.1911  159.9653 C   0  0  0  0  0  0  0  0  0  0  0  0
  146.0456  137.3883  161.1329 H   0  0  0  0  0  0  0  0  0  0  0  0
  145.1046  136.5664  162.3705 H   0  0  0  0  0  0  0  0  0  0  0  0
  145.4634  135.7471  160.8696 H   0  0  0  0  0  0  0  0  0  0  0  0
  146.9476  134.9085  162.6836 H   0  0  0  0  0  0  0  0  0  0  0  0
  147.8424  137.7968  163.0433 H   0  0  0  0  0  0  0  0  0  0  0  0
  148.4849  136.3993  163.9024 H   0  0  0  0  0  0  0  0  0  0  0  0
  146.8147  136.8849  164.1470 H   0  0  0  0  0  0  0  0  0  0  0  0
  149.0185  136.5692  161.3199 H   0  0  0  0  0  0  0  0  0  0  0  0
  148.9275  134.8645  161.5077 H   0  0  0  0  0  0  0  0  0  0  0  0
  146.2798  138.8698  157.4435 H   0  0  0  0  0  0  0  0  0  0  0  0
  152.4864  137.8549  158.8358 H   0  0  0  0  0  0  0  0  0  0  0  0
  150.8611  140.8305  157.6320 H   0  0  0  0  0  0  0  0  0  0  0  0
  152.3755  139.9722  157.5222 H   0  0  0  0  0  0  0  0  0  0  0  0
  152.7815  140.8346  155.5904 H   0  0  0  0  0  0  0  0  0  0  0  0
  149.7806  141.5346  155.9418 H   0  0  0  0  0  0  0  0  0  0  0  0
  150.4800  141.3565  154.3408 H   0  0  0  0  0  0  0  0  0  0  0  0
  148.2867  139.6677  155.5736 H   0  0  0  0  0  0  0  0  0  0  0  0
  148.3517  140.3722  153.9507 H   0  0  0  0  0  0  0  0  0  0  0  0
  150.0757  137.9563  156.0826 H   0  0  0  0  0  0  0  0  0  0  0  0
  152.4030  137.2106  155.4114 H   0  0  0  0  0  0  0  0  0  0  0  0
  152.0994  137.8198  153.7832 H   0  0  0  0  0  0  0  0  0  0  0  0
  151.1342  136.4984  154.4240 H   0  0  0  0  0  0  0  0  0  0  0  0
  148.6763  134.4549  158.2149 H   0  0  0  0  0  0  0  0  0  0  0  0
  146.1592  134.3437  158.0292 H   0  0  0  0  0  0  0  0  0  0  0  0
  146.9200  132.7905  158.0341 H   0  0  0  0  0  0  0  0  0  0  0  0
  145.5907  134.0970  160.4648 H   0  0  0  0  0  0  0  0  0  0  0  0
  144.9426  132.7817  159.5077 H   0  0  0  0  0  0  0  0  0  0  0  0
  145.5147  132.5631  162.5173 H   0  0  0  0  0  0  0  0  0  0  0  0
  146.3011  130.9843  162.3914 H   0  0  0  0  0  0  0  0  0  0  0  0
  144.8422  131.3146  161.4613 H   0  0  0  0  0  0  0  0  0  0  0  0
  147.7668  133.5970  161.8483 H   0  0  0  0  0  0  0  0  0  0  0  0
  148.4304  131.9812  161.7237 H   0  0  0  0  0  0  0  0  0  0  0  0
  148.9796  132.3180  159.3423 H   0  0  0  0  0  0  0  0  0  0  0  0
  149.7603  133.5216  160.3078 H   0  0  0  0  0  0  0  0  0  0  0  0
  146.7871  131.4515  160.1210 H   0  0  0  0  0  0  0  0  0  0  0  0
  1  2  1  0  0  0  0
  1 30  1  0  0  0  0
  1 31  1  0  0  0  0
  1 32  1  0  0  0  0
  2  3  1  0  0  0  0
  2  4  1  0  0  0  0
  2 33  1  0  0  0  0
  3 34  1  0  0  0  0
  3 35  1  0  0  0  0
  3 36  1  0  0  0  0
  4  5  1  0  0  0  0
  4 37  1  0  0  0  0
  4 38  1  0  0  0  0
  5  6  1  0  0  0  0
  5 23  1  0  0  0  0
  6 11  1  0  0  0  0
  6  7  2  0  0  0  0
  7  8  1  0  0  0  0
  8  9  2  0  0  0  0
  8 39  1  0  0  0  0
  9 10  1  0  0  0  0
 10 14  1  0  0  0  0
 10 11  2  0  0  0  0
 11 12  1  0  0  0  0
 12 13  2  0  0  0  0
 13 14  1  0  0  0  0
 13 40  1  0  0  0  0
 14 15  1  0  0  0  0
 15 16  1  0  0  0  0
 15 41  1  0  0  0  0
 15 42  1  0  0  0  0
 16 21  1  0  0  0  0
 16 17  1  0  0  0  0
 16 18  1  0  0  0  0
 17 43  1  0  0  0  0
 18 19  1  0  0  0  0
 18 44  1  0  0  0  0
 18 45  1  0  0  0  0
 19 20  1  0  0  0  0
 19 46  1  0  0  0  0
 19 47  1  0  0  0  0
 20 21  1  0  0  0  0
 21 22  1  0  0  0  0
 21 48  1  0  0  0  0
 22 49  1  0  0  0  0
 22 50  1  0  0  0  0
 22 51  1  0  0  0  0
 23 29  1  0  0  0  0
 23 24  1  0  0  0  0
 23 52  1  0  0  0  0
 24 25  1  0  0  0  0
 24 53  1  0  0  0  0
 24 54  1  0  0  0  0
 25 26  1  0  0  0  0
 25 55  1  0  0  0  0
 25 56  1  0  0  0  0
 26 27  1  0  0  0  0
 26 28  1  0  0  0  0
 26 64  1  0  0  0  0
 27 57  1  0  0  0  0
 27 58  1  0  0  0  0
 27 59  1  0  0  0  0
 28 29  1  0  0  0  0
 28 60  1  0  0  0  0
 28 61  1  0  0  0  0
 29 62  1  0  0  0  0
 29 63  1  0  0  0  0
M  CHG  1  26   1
M  END
> <s_m_source_file>
AV-unprocessed.smi

> <i_m_source_file_index>
81

> <i_lp_mmshare_version>
43012

> <i_f3d_flags>
0

> <s_epik_input>
W0NIMl0xW0NIMl1OKFtDSDNdKVtDSDJdW0NIMl1bQ0hdMU4oW0NIMl1bQ0hdKFtDSDNdKVtDSDNdKWMobltjSF1uMiljKGMyMyluW2NIXW4zW0NIMl1bQ0BAXTQoW09IXSlbQ0gyXVtDSDJdT1tDQEhdNFtDSDNd

> <s_epik_cmdline>
J2VwaWtfcHl0aG9uJywgJy1waCcsICc3LjAnLCAnLXRuJywgJzgnLCAnLW1hJywgJzIwMCcsICctbWV0YWxfYmluZGluZycsICctaW1hZScsICc8aW5maWxlLm1hZT4nLCAnLW9tYWUnLCAnPG91dGZpbGUubWFlPic=

> <r_lp_tautomer_probability>
1

> <r_epik_Ionization_Penalty>
0.00272708

> <r_epik_Ionization_Penalty_Charging>
0.00158983

> <r_epik_Ionization_Penalty_Neutral>
0.00113725

> <r_epik_State_Penalty>
-0

> <r_epik_Charging_Adjusted_Penalty>
0.00158983

> <i_epik_Tot_Q>
1

> <i_epik_Tot_abs_Q>
1

> <r_epik_Metal_State_Penalty>
-0

> <b_epik_Metal_Only>
0

> <s_lp_Force_Field>
OPLS_2005

> <r_lp_Energy>
49.6566

> <b_lp_Chiralities_Consistent>
1

> <s_lp_Variant>
AV-unprocessed.smi:81-6

> <Gold.Version>
5.8.1

> <Gold.Id.Protein>
6NUR|6NUR_protein|mol2

> <Gold.PLP.Fitness>
38.6128

> <Gold.PLP.PLP>
-39.0071

> <Gold.PLP.part.hbond>
-2.0630

> <Gold.PLP.part.metal>
0.0000

> <Gold.PLP.part.buried>
-4.6358

> <Gold.PLP.part.nonpolar>
-32.4985

> <Gold.PLP.part.repulsive>
0.1762

> <Gold.PLP.ligand.clash>
0.0000

> <Gold.PLP.ligand.torsion>
3.3331

> <Gold.PLP.Chemscore.Hbond>
1.6473

> <Gold.PLP.Chemscore.CHOScore>
0.0000

> <Gold.PLP.Chemscore.Metal>
0.0000

> <Gold.Chemscore.Hbonds>
donor molecule, donor type, donor heavy atom, donor atom, acceptor molecule, acceptor atom, score
      P1  H  6896  6907       L1    12  1.00
      P1  H  7989  7998       L1    17  0.52

> <Gold.PLP.Chemscore.Internal.Correction>
1.3302

> <Gold.Rescore>
     Score         DG    S(hbond)    S(metal)    S(lipo)     H(rot)  DE(clash)    DE(int)     intcor
     10.82     -15.58       1.31        0.00      99.45       2.32       0.24       4.51       ----

> <Gold.Chemscore.Fitness>
10.8247

> <Gold.Chemscore.DG>
-15.5752

> <Gold.Chemscore.ZeroCoef>
-5.4800

> <Gold.Chemscore.Hbond>
1.3142

> <Gold.Chemscore.Metal>
0.0000

> <Gold.Chemscore.Lipo>
99.4485

> <Gold.Chemscore.Internal_Hbond>
0.0000

> <Gold.Chemscore.DEClash>
0.2365

> <Gold.Chemscore.DEInternal>
4.5141

> <Gold.Chemscore.Rot>
2.3163

> <Gold.Chemscore.Internal.Correction>
   9.000000E+99

> <Gold.Chemscore.Hbonds>
donor molecule, donor type, donor heavy atom, donor atom, acceptor molecule, acceptor atom, score
      P1  H  6896  6907       L1    12  0.96
      P1  H  7989  7998       L1    17  0.05

> <Gold.Chemscore.Hbond.Weighted>
-4.3895

> <Gold.Chemscore.Metal.Weighted>
-0.0000

> <Gold.Chemscore.Lipo.Weighted>
-11.6355

> <Gold.Chemscore.Internal_Hbond.Weighted>
0.0000

> <Gold.Chemscore.DEClash.Weighted>
0.2365

> <Gold.Chemscore.DEInternal.Weighted>
4.5141

> <Gold.Chemscore.Rot.Weighted>
5.9297

> <Gold.Chemscore.Internal.Correction.Weighted>
   9.000000E+99

> <Gold.Protein.RotatedTorsions>
[ 6907 6896 6895 6894 ] final  -29.88 input  -60.11 | X-H torsion
[ 7974 7965 7964 7962 ] final -147.26 input  175.53 | X-H torsion
[ 8008 7997 7996 7995 ] final   87.11 input   59.86 | X-H torsion
[ 10167 10162 10161 10158 ] final   31.61 input  -65.29 | X-H torsion
[ 10718 10713 10712 10709 ] final  139.54 input   66.30 | X-H torsion
[ 10763 10752 10751 10750 ] final  -67.34 input  -60.55 | X-H torsion
[ 11005 11000 10999 10996 ] final  165.34 input  -57.11 | X-H torsion

> <Gold.Protein.ActiveResidues>
 VAL166  LYS551  ARG553  GLY616  TRP617  ASP618  TYR619  PRO620  LYS621  CYS622 
 ASP623  PHE694  ASN695  SER759  ASP760  ASP761  ALA762  ILE779  LEU786  VAL792 
 PHE793  MET794  SER795  GLU796  ALA797  LYS798  CYS799  TRP800  GLU811  SER814 

> <Gold.Protein.RotatedAtoms>
  151.1131  135.0038  159.8502 H   0  0  0  0  0  0  0  0  0  0  0  0  # atno 6907 bound_to 6896
  152.5444  134.1812  159.8646 H   0  0  0  0  0  0  0  0  0  0  0  0  # atno 6908 bound_to 6896
  151.1864  133.4649  159.2627 H   0  0  0  0  0  0  0  0  0  0  0  0  # atno 6909 bound_to 6896
  144.8105  140.5350  143.5646 H   0  0  0  0  0  0  0  0  0  0  0  0  # atno 7974 bound_to 7965
  155.9713  140.3385  155.6578 H   0  0  0  0  0  0  0  0  0  0  0  0  # atno 8008 bound_to 7997
  155.6671  140.0722  157.2552 H   0  0  0  0  0  0  0  0  0  0  0  0  # atno 8009 bound_to 7997
  154.4167  140.1698  156.1826 H   0  0  0  0  0  0  0  0  0  0  0  0  # atno 8010 bound_to 7997
  140.4573  144.0959  150.6204 H   0  0  0  0  0  0  0  0  0  0  0  0  # atno 10167 bound_to 10162
  157.4132  131.1030  151.0432 H   0  0  0  0  0  0  0  0  0  0  0  0  # atno 10718 bound_to 10713
  154.3731  135.6091  153.5750 H   0  0  0  0  0  0  0  0  0  0  0  0  # atno 10763 bound_to 10752
  152.9789  135.5843  154.4499 H   0  0  0  0  0  0  0  0  0  0  0  0  # atno 10764 bound_to 10752
  154.4255  135.2846  155.1924 H   0  0  0  0  0  0  0  0  0  0  0  0  # atno 10765 bound_to 10752
  140.2551  134.7946  157.3538 H   0  0  0  0  0  0  0  0  0  0  0  0  # atno 11005 bound_to 11000
  145.5335  139.1475  143.3486 LP  0  0  0  0  0  0  0  0  0  0  0  0  # atno 17320 bound_to 7965
  146.2403  140.5476  142.8937 LP  0  0  0  0  0  0  0  0  0  0  0  0  # atno 17321 bound_to 7965
  140.4136  143.2645  151.9803 LP  0  0  0  0  0  0  0  0  0  0  0  0  # atno 17342 bound_to 10162
  139.4802  144.5894  151.7798 LP  0  0  0  0  0  0  0  0  0  0  0  0  # atno 17343 bound_to 10162
  157.1389  130.6134  149.5549 LP  0  0  0  0  0  0  0  0  0  0  0  0  # atno 17370 bound_to 10713
  155.9857  130.4888  150.7044 LP  0  0  0  0  0  0  0  0  0  0  0  0  # atno 17371 bound_to 10713
  140.1520  134.4838  155.7955 LP  0  0  0  0  0  0  0  0  0  0  0  0  # atno 17394 bound_to 11000
  141.2197  133.6866  156.7394 LP  0  0  0  0  0  0  0  0  0  0  0  0  # atno 17395 bound_to 11000

$$$$
