AV-unprocessed.smi:1762|AV-procd|sdf|7119|dock3
  -GOLD-   22720 8353D 1   1.00000     0.00000
 Structure written by MMmdl.
 52 53  0  0  0  0  0  0  0  0  3 V2000
  145.8608  132.1442  149.8836 C   0  0  0  0  0  0  0  0  0  0  0  0
  146.1924  133.3739  150.7364 C   0  0  2  0  0  0  0  0  0  0  0  0
  146.7556  132.9841  152.1157 C   0  0  0  0  0  0  0  0  0  0  0  0
  146.9882  134.1893  152.9572 N   0  3  2  0  0  0  0  0  0  0  0  0
  147.6281  133.9261  154.2904 C   0  0  2  0  0  0  0  0  0  0  0  0
  147.5783  135.1933  155.1790 C   0  0  0  0  0  0  0  0  0  0  0  0
  148.1894  136.2012  154.8071 O   0  0  0  0  0  0  0  0  0  0  0  0
  146.7984  134.9945  156.2756 N   0  5  0  0  0  0  0  0  0  0  0  0
  146.8385  135.8271  157.4764 C   0  0  0  0  0  0  0  0  0  0  0  0
  146.7293  134.9470  158.7434 C   0  0  0  0  0  0  0  0  0  0  0  0
  146.7226  135.7071  160.0681 C   0  0  0  0  0  0  0  0  0  0  0  0
  147.8023  135.5854  160.9727 C   0  0  0  0  0  0  0  0  0  0  0  0
  147.7495  136.2947  162.1876 C   0  0  0  0  0  0  0  0  0  0  0  0
  146.6209  137.0911  162.4595 C   0  0  0  0  0  0  0  0  0  0  0  0
  145.5911  137.1425  161.4996 C   0  0  0  0  0  0  0  0  0  0  0  0
  145.6310  136.4664  160.3314 N   0  0  0  0  0  0  0  0  0  0  0  0
  149.0809  133.3432  154.2193 C   0  0  0  0  0  0  0  0  0  0  0  0
  149.1236  131.9084  153.6570 C   0  0  0  0  0  0  0  0  0  0  0  0
  149.8672  133.4158  155.5453 C   0  0  0  0  0  0  0  0  0  0  0  0
  145.7114  134.9532  153.0653 C   0  0  0  0  0  0  0  0  0  0  0  0
  145.1392  135.3062  151.6811 C   0  0  1  0  0  0  0  0  0  0  0  0
  145.9318  136.4059  150.9520 C   0  0  0  0  0  0  0  0  0  0  0  0
  144.9946  134.1249  150.8971 O   0  0  0  0  0  0  0  0  0  0  0  0
  146.7481  131.5348  149.7095 H   0  0  0  0  0  0  0  0  0  0  0  0
  145.4660  132.4397  148.9111 H   0  0  0  0  0  0  0  0  0  0  0  0
  145.1133  131.5163  150.3694 H   0  0  0  0  0  0  0  0  0  0  0  0
  146.9297  133.9678  150.1958 H   0  0  0  0  0  0  0  0  0  0  0  0
  146.0731  132.3068  152.6320 H   0  0  0  0  0  0  0  0  0  0  0  0
  147.6791  132.4369  151.9396 H   0  0  0  0  0  0  0  0  0  0  0  0
  147.0178  133.1435  154.7491 H   0  0  0  0  0  0  0  0  0  0  0  0
  147.7523  136.4199  157.5242 H   0  0  0  0  0  0  0  0  0  0  0  0
  146.0196  136.5477  157.4963 H   0  0  0  0  0  0  0  0  0  0  0  0
  145.8118  134.3599  158.6855 H   0  0  0  0  0  0  0  0  0  0  0  0
  147.5413  134.2185  158.7567 H   0  0  0  0  0  0  0  0  0  0  0  0
  148.6560  134.9683  160.7337 H   0  0  0  0  0  0  0  0  0  0  0  0
  148.5604  136.2287  162.8978 H   0  0  0  0  0  0  0  0  0  0  0  0
  146.5457  137.6487  163.3812 H   0  0  0  0  0  0  0  0  0  0  0  0
  144.7099  137.7414  161.6754 H   0  0  0  0  0  0  0  0  0  0  0  0
  149.6327  133.9282  153.4848 H   0  0  0  0  0  0  0  0  0  0  0  0
  148.6813  131.1868  154.3444 H   0  0  0  0  0  0  0  0  0  0  0  0
  150.1502  131.5917  153.4716 H   0  0  0  0  0  0  0  0  0  0  0  0
  148.5844  131.8398  152.7116 H   0  0  0  0  0  0  0  0  0  0  0  0
  149.4684  132.7275  156.2902 H   0  0  0  0  0  0  0  0  0  0  0  0
  149.8522  134.4153  155.9786 H   0  0  0  0  0  0  0  0  0  0  0  0
  150.9119  133.1463  155.3884 H   0  0  0  0  0  0  0  0  0  0  0  0
  144.9869  134.3524  153.6173 H   0  0  0  0  0  0  0  0  0  0  0  0
  145.8351  135.8775  153.6289 H   0  0  0  0  0  0  0  0  0  0  0  0
  144.1301  135.6921  151.8291 H   0  0  0  0  0  0  0  0  0  0  0  0
  145.9052  137.3383  151.5166 H   0  0  0  0  0  0  0  0  0  0  0  0
  145.5064  136.6050  149.9684 H   0  0  0  0  0  0  0  0  0  0  0  0
  146.9805  136.1420  150.8175 H   0  0  0  0  0  0  0  0  0  0  0  0
  147.6380  134.7753  152.4528 H   0  0  0  0  0  0  0  0  0  0  0  0
  1  2  1  0  0  0  0
  1 24  1  0  0  0  0
  1 25  1  0  0  0  0
  1 26  1  0  0  0  0
  2 23  1  0  0  0  0
  2  3  1  0  0  0  0
  2 27  1  0  0  0  0
  3  4  1  0  0  0  0
  3 28  1  0  0  0  0
  3 29  1  0  0  0  0
  4  5  1  0  0  0  0
  4 20  1  0  0  0  0
  4 52  1  0  0  0  0
  5  6  1  0  0  0  0
  5 17  1  0  0  0  0
  5 30  1  0  0  0  0
  6  7  2  0  0  0  0
  6  8  1  0  0  0  0
  8  9  1  0  0  0  0
  9 10  1  0  0  0  0
  9 31  1  0  0  0  0
  9 32  1  0  0  0  0
 10 11  1  0  0  0  0
 10 33  1  0  0  0  0
 10 34  1  0  0  0  0
 11 16  1  0  0  0  0
 11 12  2  0  0  0  0
 12 13  1  0  0  0  0
 12 35  1  0  0  0  0
 13 14  2  0  0  0  0
 13 36  1  0  0  0  0
 14 15  1  0  0  0  0
 14 37  1  0  0  0  0
 15 16  2  0  0  0  0
 15 38  1  0  0  0  0
 17 18  1  0  0  0  0
 17 19  1  0  0  0  0
 17 39  1  0  0  0  0
 18 40  1  0  0  0  0
 18 41  1  0  0  0  0
 18 42  1  0  0  0  0
 19 43  1  0  0  0  0
 19 44  1  0  0  0  0
 19 45  1  0  0  0  0
 20 21  1  0  0  0  0
 20 46  1  0  0  0  0
 20 47  1  0  0  0  0
 21 22  1  0  0  0  0
 21 23  1  0  0  0  0
 21 48  1  0  0  0  0
 22 49  1  0  0  0  0
 22 50  1  0  0  0  0
 22 51  1  0  0  0  0
M  CHG  1   4   1
M  CHG  1   8  -1
M  END
> <s_m_source_file>
AV-unprocessed.smi

> <i_m_source_file_index>
1762

> <i_lp_mmshare_version>
43012

> <i_f3d_flags>
0

> <s_epik_input>
W0NIM11bQ0BASF0xW0NIMl1OKFtDSDJdW0NASF0oTzEpW0NIM10pW0NAQEhdKFtDSF0oW0NIM10pW0NIM10pQyg9TylbTkhdW0NIMl1bQ0gyXWMyW2NIXVtjSF1bY0hdW2NIXW4y

> <s_epik_cmdline>
J2VwaWtfcHl0aG9uJywgJy1waCcsICc3LjAnLCAnLXRuJywgJzgnLCAnLW1hJywgJzIwMCcsICctbWV0YWxfYmluZGluZycsICctaW1hZScsICc8aW5maWxlLm1hZT4nLCAnLW9tYWUnLCAnPG91dGZpbGUubWFlPic=

> <r_epik_Ionization_Penalty>
7.82966

> <r_epik_Ionization_Penalty_Charging>
7.7461

> <r_epik_Ionization_Penalty_Neutral>
0.0835571

> <r_epik_State_Penalty>
8.52273

> <r_epik_Charging_Adjusted_Penalty>
16.2688

> <i_epik_Tot_Q>
0

> <i_epik_Tot_abs_Q>
2

> <r_epik_Metal_State_Penalty>
4.47451

> <b_epik_Metal_Only>
1

> <s_lp_Force_Field>
OPLS_2005

> <r_lp_Energy>
24.7252

> <b_lp_Chiralities_Consistent>
1

> <s_lp_Variant>
AV-unprocessed.smi:1762-21

> <Gold.Version>
5.8.1

> <Gold.Id.Protein>
6NUR|6NUR_protein|mol2

> <Gold.PLP.Fitness>
39.7104

> <Gold.PLP.PLP>
-34.6544

> <Gold.PLP.part.hbond>
-1.0000

> <Gold.PLP.part.metal>
0.0000

> <Gold.PLP.part.buried>
-3.4373

> <Gold.PLP.part.nonpolar>
-30.3493

> <Gold.PLP.part.repulsive>
1.0576

> <Gold.PLP.ligand.clash>
0.0000

> <Gold.PLP.ligand.torsion>
0.6722

> <Gold.PLP.Chemscore.Hbond>
2.0000

> <Gold.PLP.Chemscore.CHOScore>
0.0000

> <Gold.PLP.Chemscore.Metal>
0.0000

> <Gold.Chemscore.Hbonds>
donor molecule, donor type, donor heavy atom, donor atom, acceptor molecule, acceptor atom, score
      L1  H     4    52       P1  7948  2.00

> <Gold.PLP.Chemscore.Internal.Correction>
0.4004

> <Gold.Rescore>
     Score         DG    S(hbond)    S(metal)    S(lipo)     H(rot)  DE(clash)    DE(int)     intcor
     15.18     -16.16       0.97        0.00      98.49       1.60       0.01       0.97       ----

> <Gold.Chemscore.Fitness>
15.1758

> <Gold.Chemscore.DG>
-16.1581

> <Gold.Chemscore.ZeroCoef>
-5.4800

> <Gold.Chemscore.Hbond>
0.9741

> <Gold.Chemscore.Metal>
0.0000

> <Gold.Chemscore.Lipo>
98.4929

> <Gold.Chemscore.Internal_Hbond>
0.0000

> <Gold.Chemscore.DEClash>
0.0097

> <Gold.Chemscore.DEInternal>
0.9726

> <Gold.Chemscore.Rot>
1.6012

> <Gold.Chemscore.Internal.Correction>
   9.000000E+99

> <Gold.Chemscore.Hbonds>
donor molecule, donor type, donor heavy atom, donor atom, acceptor molecule, acceptor atom, score
      L1  H     4    52       P1  7948  0.84

> <Gold.Chemscore.Hbond.Weighted>
-3.2534

> <Gold.Chemscore.Metal.Weighted>
-0.0000

> <Gold.Chemscore.Lipo.Weighted>
-11.5237

> <Gold.Chemscore.Internal_Hbond.Weighted>
0.0000

> <Gold.Chemscore.DEClash.Weighted>
0.0097

> <Gold.Chemscore.DEInternal.Weighted>
0.9726

> <Gold.Chemscore.Rot.Weighted>
4.0990

> <Gold.Chemscore.Internal.Correction.Weighted>
   9.000000E+99

> <Gold.Protein.RotatedTorsions>
[ 6907 6896 6895 6894 ] final   74.56 input  -60.11 | X-H torsion
[ 7974 7965 7964 7962 ] final  110.08 input  175.53 | X-H torsion
[ 8008 7997 7996 7995 ] final -158.38 input   59.86 | X-H torsion
[ 10167 10162 10161 10158 ] final -162.94 input  -65.29 | X-H torsion
[ 10718 10713 10712 10709 ] final  138.67 input   66.30 | X-H torsion
[ 10763 10752 10751 10750 ] final   24.27 input  -60.55 | X-H torsion
[ 11005 11000 10999 10996 ] final  -96.73 input  -57.11 | X-H torsion

> <Gold.Protein.ActiveResidues>
 VAL166  LYS551  ARG553  GLY616  TRP617  ASP618  TYR619  PRO620  LYS621  CYS622 
 ASP623  PHE694  ASN695  SER759  ASP760  ASP761  ALA762  ILE779  LEU786  VAL792 
 PHE793  MET794  SER795  GLU796  ALA797  LYS798  CYS799  TRP800  GLU811  SER814 

> <Gold.Protein.RotatedAtoms>
  152.4982  134.4253  159.9493 H   0  0  0  0  0  0  0  0  0  0  0  0  # atno 6907 bound_to 6896
  151.4228  133.3687  159.2766 H   0  0  0  0  0  0  0  0  0  0  0  0  # atno 6908 bound_to 6896
  150.9210  134.8650  159.7548 H   0  0  0  0  0  0  0  0  0  0  0  0  # atno 6909 bound_to 6896
  145.2596  139.2707  143.4024 H   0  0  0  0  0  0  0  0  0  0  0  0  # atno 7974 bound_to 7965
  155.7466  140.0821  157.2221 H   0  0  0  0  0  0  0  0  0  0  0  0  # atno 8008 bound_to 7997
  154.4016  140.1568  156.2732 H   0  0  0  0  0  0  0  0  0  0  0  0  # atno 8009 bound_to 7997
  155.8970  140.3412  155.6001 H   0  0  0  0  0  0  0  0  0  0  0  0  # atno 8010 bound_to 7997
  139.6356  144.0356  152.2052 H   0  0  0  0  0  0  0  0  0  0  0  0  # atno 10167 bound_to 10162
  157.4228  131.1040  151.0335 H   0  0  0  0  0  0  0  0  0  0  0  0  # atno 10718 bound_to 10713
  153.0776  135.6609  154.0113 H   0  0  0  0  0  0  0  0  0  0  0  0  # atno 10763 bound_to 10752
  153.9743  135.2961  155.3426 H   0  0  0  0  0  0  0  0  0  0  0  0  # atno 10764 bound_to 10752
  154.7168  135.5182  153.8820 H   0  0  0  0  0  0  0  0  0  0  0  0  # atno 10765 bound_to 10752
  141.1402  133.8119  157.0611 H   0  0  0  0  0  0  0  0  0  0  0  0  # atno 11005 bound_to 11000
  146.3279  140.3009  142.8620 LP  0  0  0  0  0  0  0  0  0  0  0  0  # atno 17320 bound_to 7965
  144.9430  140.8098  143.5619 LP  0  0  0  0  0  0  0  0  0  0  0  0  # atno 17321 bound_to 7965
  140.0032  144.6278  150.7711 LP  0  0  0  0  0  0  0  0  0  0  0  0  # atno 17342 bound_to 10162
  140.7463  143.2889  151.3385 LP  0  0  0  0  0  0  0  0  0  0  0  0  # atno 17343 bound_to 10162
  157.1259  130.6081  149.5517 LP  0  0  0  0  0  0  0  0  0  0  0  0  # atno 17370 bound_to 10713
  155.9886  130.4930  150.7178 LP  0  0  0  0  0  0  0  0  0  0  0  0  # atno 17371 bound_to 10713
  140.0571  134.9775  157.1239 LP  0  0  0  0  0  0  0  0  0  0  0  0  # atno 17394 bound_to 11000
  140.3903  134.2191  155.7166 LP  0  0  0  0  0  0  0  0  0  0  0  0  # atno 17395 bound_to 11000

$$$$
