AV-unprocessed.smi:1775|AV-procd|sdf|7171|dock4
  -GOLD-   22720 8413D 1   1.00000     0.00000
 Structure written by MMmdl.
 38 40  0  0  0  0  0  0  0  0  1 V2000
  151.2064  141.5023  157.6565 O   0  0  0  0  0  0  0  0  0  0  0  0
  151.7238  140.3883  157.5806 C   0  0  0  0  0  0  0  0  0  0  0  0
  151.3622  139.4124  156.7276 N   0  0  0  0  0  0  0  0  0  0  0  0
  150.3820  139.4344  155.7219 C   0  0  0  0  0  0  0  0  0  0  0  0
  149.3071  140.2651  155.7067 C   0  0  0  0  0  0  0  0  0  0  0  0
  148.3340  140.2478  154.6276 C   0  0  0  0  0  0  0  0  0  0  0  0
  147.0931  141.1264  154.6633 C   0  0  0  0  0  0  0  0  0  0  0  0
  147.0779  141.9010  155.7489 F   0  0  0  0  0  0  0  0  0  0  0  0
  147.0338  141.9117  153.5877 F   0  0  0  0  0  0  0  0  0  0  0  0
  146.0001  140.3650  154.6807 F   0  0  0  0  0  0  0  0  0  0  0  0
  148.5468  139.3563  153.6418 C   0  0  0  0  0  0  0  0  0  0  0  0
  149.6619  138.5150  153.6383 N   0  0  0  0  0  0  0  0  0  0  0  0
  150.6011  138.4939  154.6105 C   0  0  0  0  0  0  0  0  0  0  0  0
  151.5578  137.7239  154.5331 O   0  0  0  0  0  0  0  0  0  0  0  0
  152.7285  139.9806  158.3713 N   0  0  0  0  0  0  0  0  0  0  0  0
  153.3746  140.7496  159.4333 C   0  0  0  0  0  0  0  0  0  0  0  0
  154.0919  139.8895  160.4632 C   0  0  0  0  0  0  0  0  0  0  0  0
  154.8639  140.5124  161.6018 C   0  0  0  0  0  0  0  0  0  0  0  0
  155.5985  139.7964  160.4904 C   0  0  0  0  0  0  0  0  0  0  0  0
  152.4571  141.7575  160.1102 C   0  0  0  0  0  0  0  0  0  0  0  0
  152.4265  143.2013  159.6708 C   0  0  0  0  0  0  0  0  0  0  0  0
  153.0057  142.8320  161.0186 C   0  0  0  0  0  0  0  0  0  0  0  0
  149.7595  137.8857  152.8545 H   0  0  0  0  0  0  0  0  0  0  0  0
  151.8252  138.5222  156.8420 H   0  0  0  0  0  0  0  0  0  0  0  0
  149.1533  140.9870  156.4923 H   0  0  0  0  0  0  0  0  0  0  0  0
  147.8901  139.2161  152.7955 H   0  0  0  0  0  0  0  0  0  0  0  0
  153.0787  139.0446  158.2283 H   0  0  0  0  0  0  0  0  0  0  0  0
  154.1444  141.3255  158.9173 H   0  0  0  0  0  0  0  0  0  0  0  0
  153.5609  138.9721  160.7116 H   0  0  0  0  0  0  0  0  0  0  0  0
  154.9421  141.5974  161.6333 H   0  0  0  0  0  0  0  0  0  0  0  0
  154.8119  140.0205  162.5709 H   0  0  0  0  0  0  0  0  0  0  0  0
  156.0366  138.8267  160.7178 H   0  0  0  0  0  0  0  0  0  0  0  0
  156.1573  140.4063  159.7832 H   0  0  0  0  0  0  0  0  0  0  0  0
  151.5005  141.3392  160.4184 H   0  0  0  0  0  0  0  0  0  0  0  0
  153.1222  143.5095  158.8928 H   0  0  0  0  0  0  0  0  0  0  0  0
  151.4590  143.6991  159.6555 H   0  0  0  0  0  0  0  0  0  0  0  0
  152.4245  143.0853  161.9030 H   0  0  0  0  0  0  0  0  0  0  0  0
  154.0855  142.9019  161.1344 H   0  0  0  0  0  0  0  0  0  0  0  0
  1  2  2  0  0  0  0
  2  3  1  0  0  0  0
  2 15  1  0  0  0  0
  3  4  1  0  0  0  0
  3 24  1  0  0  0  0
  4 13  1  0  0  0  0
  4  5  2  0  0  0  0
  5  6  1  0  0  0  0
  5 25  1  0  0  0  0
  6  7  1  0  0  0  0
  6 11  2  0  0  0  0
  7  8  1  0  0  0  0
  7  9  1  0  0  0  0
  7 10  1  0  0  0  0
 11 12  1  0  0  0  0
 11 26  1  0  0  0  0
 12 23  1  0  0  0  0
 12 13  1  0  0  0  0
 13 14  2  0  0  0  0
 15 16  1  0  0  0  0
 15 27  1  0  0  0  0
 16 17  1  0  0  0  0
 16 20  1  0  0  0  0
 16 28  1  0  0  0  0
 17 19  1  0  0  0  0
 17 18  1  0  0  0  0
 17 29  1  0  0  0  0
 18 19  1  0  0  0  0
 18 30  1  0  0  0  0
 18 31  1  0  0  0  0
 19 32  1  0  0  0  0
 19 33  1  0  0  0  0
 20 22  1  0  0  0  0
 20 21  1  0  0  0  0
 20 34  1  0  0  0  0
 21 22  1  0  0  0  0
 21 35  1  0  0  0  0
 21 36  1  0  0  0  0
 22 37  1  0  0  0  0
 22 38  1  0  0  0  0
M  END
> <s_m_source_file>
AV-unprocessed.smi

> <i_m_source_file_index>
1775

> <i_lp_mmshare_version>
43012

> <i_f3d_flags>
0

> <s_epik_input>
W0NIMl0xW0NIMl1bQ0hdMVtDSF0oW0NIXTJbQ0gyXVtDSDJdMilbTkhdQyg9TylbTkhdYzNbY0hdYyhDKEYpKEYpRilbY0hdW25IXWMzPU8=

> <s_epik_cmdline>
J2VwaWtfcHl0aG9uJywgJy1waCcsICc3LjAnLCAnLXRuJywgJzgnLCAnLW1hJywgJzIwMCcsICctbWV0YWxfYmluZGluZycsICctaW1hZScsICc8aW5maWxlLm1hZT4nLCAnLW9tYWUnLCAnPG91dGZpbGUubWFlPic=

> <r_lp_tautomer_probability>
1

> <r_epik_Ionization_Penalty>
0.00370881

> <r_epik_Ionization_Penalty_Charging>
0.00368697

> <r_epik_Ionization_Penalty_Neutral>
2.18468e-05

> <r_epik_State_Penalty>
-0

> <r_epik_Charging_Adjusted_Penalty>
0.00368697

> <i_epik_Tot_Q>
0

> <i_epik_Tot_abs_Q>
0

> <r_epik_Metal_State_Penalty>
0.370005

> <b_epik_Metal_Only>
0

> <s_lp_Force_Field>
OPLS_2005

> <r_lp_Energy>
35.723

> <b_lp_Chiralities_Consistent>
1

> <s_lp_Variant>
AV-unprocessed.smi:1775-1

> <Gold.Version>
5.8.1

> <Gold.Id.Protein>
6NUR|6NUR_protein|mol2

> <Gold.PLP.Fitness>
38.6082

> <Gold.PLP.PLP>
-36.1492

> <Gold.PLP.part.hbond>
-2.0000

> <Gold.PLP.part.metal>
0.0000

> <Gold.PLP.part.buried>
-2.5912

> <Gold.PLP.part.nonpolar>
-31.7324

> <Gold.PLP.part.repulsive>
0.4201

> <Gold.PLP.ligand.clash>
0.0000

> <Gold.PLP.ligand.torsion>
1.8051

> <Gold.PLP.Chemscore.Hbond>
0.9672

> <Gold.PLP.Chemscore.CHOScore>
0.2905

> <Gold.PLP.Chemscore.Metal>
0.0000

> <Gold.Chemscore.Hbonds>
donor molecule, donor type, donor heavy atom, donor atom, acceptor molecule, acceptor atom, score
      L1  H    12    23       P1  7948  0.92
      L1  C    11    26       P1  7957  0.28

> <Gold.PLP.Chemscore.Internal.Correction>
2.2961

> <Gold.Rescore>
     Score         DG    S(hbond)    S(metal)    S(lipo)     H(rot)  DE(clash)    DE(int)     intcor
      9.62     -15.13       0.99        0.00      86.98       1.51       0.02       5.49       ----

> <Gold.Chemscore.Fitness>
9.6162

> <Gold.Chemscore.DG>
-15.1251

> <Gold.Chemscore.ZeroCoef>
-5.4800

> <Gold.Chemscore.Hbond>
0.9949

> <Gold.Chemscore.Metal>
0.0000

> <Gold.Chemscore.Lipo>
86.9764

> <Gold.Chemscore.Internal_Hbond>
0.0000

> <Gold.Chemscore.DEClash>
0.0228

> <Gold.Chemscore.DEInternal>
5.4861

> <Gold.Chemscore.Rot>
1.5056

> <Gold.Chemscore.Internal.Correction>
   9.000000E+99

> <Gold.Chemscore.Hbonds>
donor molecule, donor type, donor heavy atom, donor atom, acceptor molecule, acceptor atom, score
      L1  H    12    23       P1  7948  0.41

> <Gold.Chemscore.Hbond.Weighted>
-3.3231

> <Gold.Chemscore.Metal.Weighted>
-0.0000

> <Gold.Chemscore.Lipo.Weighted>
-10.1762

> <Gold.Chemscore.Internal_Hbond.Weighted>
0.0000

> <Gold.Chemscore.DEClash.Weighted>
0.0228

> <Gold.Chemscore.DEInternal.Weighted>
5.4861

> <Gold.Chemscore.Rot.Weighted>
3.8542

> <Gold.Chemscore.Internal.Correction.Weighted>
   9.000000E+99

> <Gold.Protein.RotatedTorsions>
[ 6907 6896 6895 6894 ] final   43.42 input  -60.11 | X-H torsion
[ 7974 7965 7964 7962 ] final  106.54 input  175.53 | X-H torsion
[ 8008 7997 7996 7995 ] final   57.21 input   59.86 | X-H torsion
[ 10167 10162 10161 10158 ] final   27.66 input  -65.29 | X-H torsion
[ 10718 10713 10712 10709 ] final  173.76 input   66.30 | X-H torsion
[ 10763 10752 10751 10750 ] final   23.25 input  -60.55 | X-H torsion
[ 11005 11000 10999 10996 ] final  -27.17 input  -57.11 | X-H torsion

> <Gold.Protein.ActiveResidues>
 VAL166  LYS551  ARG553  GLY616  TRP617  ASP618  TYR619  PRO620  LYS621  CYS622 
 ASP623  PHE694  ASN695  SER759  ASP760  ASP761  ALA762  ILE779  LEU786  VAL792 
 PHE793  MET794  SER795  GLU796  ALA797  LYS798  CYS799  TRP800  GLU811  SER814 

> <Gold.Protein.RotatedAtoms>
  152.2201  134.8421  160.0486 H   0  0  0  0  0  0  0  0  0  0  0  0  # atno 6907 bound_to 6896
  151.9208  133.3580  159.3904 H   0  0  0  0  0  0  0  0  0  0  0  0  # atno 6908 bound_to 6896
  150.6997  134.4562  159.5403 H   0  0  0  0  0  0  0  0  0  0  0  0  # atno 6909 bound_to 6896
  145.3053  139.2557  143.3792 H   0  0  0  0  0  0  0  0  0  0  0  0  # atno 7974 bound_to 7965
  155.5301  140.3482  155.4424 H   0  0  0  0  0  0  0  0  0  0  0  0  # atno 8008 bound_to 7997
  156.0724  140.1366  156.9839 H   0  0  0  0  0  0  0  0  0  0  0  0  # atno 8009 bound_to 7997
  154.4535  140.0963  156.6664 H   0  0  0  0  0  0  0  0  0  0  0  0  # atno 8010 bound_to 7997
  140.4919  144.0453  150.6300 H   0  0  0  0  0  0  0  0  0  0  0  0  # atno 10167 bound_to 10162
  156.9596  131.0056  151.2930 H   0  0  0  0  0  0  0  0  0  0  0  0  # atno 10718 bound_to 10713
  153.0853  135.6631  153.9962 H   0  0  0  0  0  0  0  0  0  0  0  0  # atno 10763 bound_to 10752
  153.9573  135.2977  155.3437 H   0  0  0  0  0  0  0  0  0  0  0  0  # atno 10764 bound_to 10752
  154.7260  135.5144  153.8959 H   0  0  0  0  0  0  0  0  0  0  0  0  # atno 10765 bound_to 10752
  140.9095  133.7470  156.0651 H   0  0  0  0  0  0  0  0  0  0  0  0  # atno 11005 bound_to 11000
  146.3137  140.3576  142.8662 LP  0  0  0  0  0  0  0  0  0  0  0  0  # atno 17320 bound_to 7965
  144.9060  140.7700  143.5837 LP  0  0  0  0  0  0  0  0  0  0  0  0  # atno 17321 bound_to 7965
  140.3725  143.2847  152.0262 LP  0  0  0  0  0  0  0  0  0  0  0  0  # atno 17342 bound_to 10162
  139.4853  144.6219  151.7239 LP  0  0  0  0  0  0  0  0  0  0  0  0  # atno 17343 bound_to 10162
  157.5667  130.8282  149.8337 LP  0  0  0  0  0  0  0  0  0  0  0  0  # atno 17370 bound_to 10713
  156.0328  130.3760  150.1641 LP  0  0  0  0  0  0  0  0  0  0  0  0  # atno 17371 bound_to 10713
  140.8128  134.3379  157.5406 LP  0  0  0  0  0  0  0  0  0  0  0  0  # atno 17394 bound_to 11000
  139.8755  134.9264  156.3399 LP  0  0  0  0  0  0  0  0  0  0  0  0  # atno 17395 bound_to 11000

$$$$
