AV-unprocessed.smi:3212|AV-procd|sdf|12280|dock9
  -GOLD-   2272018113D 1   1.00000     0.00000
 Structure written by MMmdl.
 39 39  0  0  0  0  0  0  0  0  1 V2000
  146.5283  139.4763  150.7827 C   0  0  0  0  0  0  0  0  0  0  0  0
  146.4993  138.4574  151.9339 C   0  0  2  0  0  0  0  0  0  0  0  0
  145.1653  137.8326  152.0080 N   0  0  0  0  0  0  0  0  0  0  0  0
  145.1939  136.3891  152.2168 C   0  0  0  0  0  0  0  0  0  0  0  0
  144.9119  135.6746  150.8877 C   0  0  0  0  0  0  0  0  0  0  0  0
  145.0259  134.2356  151.0243 N   0  0  0  0  0  0  0  0  0  0  0  0
  144.0635  133.2746  150.7963 C   0  0  0  0  0  0  0  0  0  0  0  0
  144.6345  132.0602  151.0488 C   0  0  0  0  0  0  0  0  0  0  0  0
  145.9664  132.3860  151.4301 C   0  0  0  0  0  0  0  0  0  0  0  0
  146.1976  133.6888  151.4138 N   0  0  0  0  0  0  0  0  0  0  0  0
  146.9420  139.1081  153.2563 C   0  0  0  0  0  0  0  0  0  0  0  0
  147.8034  138.5692  153.9513 O   0  0  0  0  0  0  0  0  0  0  0  0
  146.3572  140.2804  153.5640 N   0  0  0  0  0  0  0  0  0  0  0  0
  146.6093  141.1515  154.7176 C   0  0  0  0  0  0  0  0  0  0  0  0
  145.7143  142.3913  154.5457 C   0  0  0  0  0  0  0  0  0  0  0  0
  148.0857  141.6008  154.7441 C   0  0  0  0  0  0  0  0  0  0  0  0
  146.2317  140.4383  156.0329 C   0  0  0  0  0  0  0  0  0  0  0  0
  147.5089  139.9459  150.6933 H   0  0  0  0  0  0  0  0  0  0  0  0
  145.7911  140.2680  150.9255 H   0  0  0  0  0  0  0  0  0  0  0  0
  146.3113  138.9940  149.8292 H   0  0  0  0  0  0  0  0  0  0  0  0
  147.2206  137.6769  151.6842 H   0  0  0  0  0  0  0  0  0  0  0  0
  144.6206  138.0384  151.1828 H   0  0  0  0  0  0  0  0  0  0  0  0
  146.1744  136.0947  152.5942 H   0  0  0  0  0  0  0  0  0  0  0  0
  144.4512  136.0868  152.9561 H   0  0  0  0  0  0  0  0  0  0  0  0
  143.9100  135.9135  150.5272 H   0  0  0  0  0  0  0  0  0  0  0  0
  145.6127  136.0040  150.1194 H   0  0  0  0  0  0  0  0  0  0  0  0
  143.0648  133.5318  150.4752 H   0  0  0  0  0  0  0  0  0  0  0  0
  144.1718  131.0875  150.9724 H   0  0  0  0  0  0  0  0  0  0  0  0
  146.7665  131.7188  151.7154 H   0  0  0  0  0  0  0  0  0  0  0  0
  145.6670  140.6196  152.9100 H   0  0  0  0  0  0  0  0  0  0  0  0
  145.8465  143.0936  155.3694 H   0  0  0  0  0  0  0  0  0  0  0  0
  144.6584  142.1195  154.5143 H   0  0  0  0  0  0  0  0  0  0  0  0
  145.9445  142.9238  153.6219 H   0  0  0  0  0  0  0  0  0  0  0  0
  148.3749  142.0687  153.8022 H   0  0  0  0  0  0  0  0  0  0  0  0
  148.7658  140.7674  154.9200 H   0  0  0  0  0  0  0  0  0  0  0  0
  148.2609  142.3275  155.5383 H   0  0  0  0  0  0  0  0  0  0  0  0
  146.3194  141.1142  156.8841 H   0  0  0  0  0  0  0  0  0  0  0  0
  146.8769  139.5840  156.2371 H   0  0  0  0  0  0  0  0  0  0  0  0
  145.2035  140.0761  156.0072 H   0  0  0  0  0  0  0  0  0  0  0  0
  1  2  1  0  0  0  0
  1 18  1  0  0  0  0
  1 19  1  0  0  0  0
  1 20  1  0  0  0  0
  2  3  1  0  0  0  0
  2 11  1  0  0  0  0
  2 21  1  0  0  0  0
  3  4  1  0  0  0  0
  3 22  1  0  0  0  0
  4  5  1  0  0  0  0
  4 23  1  0  0  0  0
  4 24  1  0  0  0  0
  5  6  1  0  0  0  0
  5 25  1  0  0  0  0
  5 26  1  0  0  0  0
  6 10  1  0  0  0  0
  6  7  1  0  0  0  0
  7  8  2  0  0  0  0
  7 27  1  0  0  0  0
  8  9  1  0  0  0  0
  8 28  1  0  0  0  0
  9 10  2  0  0  0  0
  9 29  1  0  0  0  0
 11 12  2  0  0  0  0
 11 13  1  0  0  0  0
 13 14  1  0  0  0  0
 13 30  1  0  0  0  0
 14 15  1  0  0  0  0
 14 16  1  0  0  0  0
 14 17  1  0  0  0  0
 15 31  1  0  0  0  0
 15 32  1  0  0  0  0
 15 33  1  0  0  0  0
 16 34  1  0  0  0  0
 16 35  1  0  0  0  0
 16 36  1  0  0  0  0
 17 37  1  0  0  0  0
 17 38  1  0  0  0  0
 17 39  1  0  0  0  0
M  END
> <s_m_source_file>
AV-unprocessed.smi

> <i_m_source_file_index>
3212

> <i_lp_mmshare_version>
43012

> <i_f3d_flags>
0

> <s_epik_input>
W0NIM11DKFtDSDNdKShbQ0gzXSlbTkhdQyg9TylbQ0BIXShbQ0gzXSlbTkhdW0NIMl1bQ0gyXW4xW2NIXVtjSF1bY0hdbjE=

> <s_epik_cmdline>
J2VwaWtfcHl0aG9uJywgJy1waCcsICc3LjAnLCAnLXRuJywgJzgnLCAnLW1hJywgJzIwMCcsICctbWV0YWxfYmluZGluZycsICctaW1hZScsICc8aW5maWxlLm1hZT4nLCAnLW9tYWUnLCAnPG91dGZpbGUubWFlPic=

> <r_lp_tautomer_probability>
1

> <r_epik_Ionization_Penalty>
0.745735

> <r_epik_Ionization_Penalty_Charging>
0

> <r_epik_Ionization_Penalty_Neutral>
0.745735

> <r_epik_State_Penalty>
0.771152

> <r_epik_Charging_Adjusted_Penalty>
0.771152

> <i_epik_Tot_Q>
0

> <i_epik_Tot_abs_Q>
0

> <r_epik_Metal_State_Penalty>
0.770403

> <b_epik_Metal_Only>
0

> <s_lp_Force_Field>
OPLS_2005

> <r_lp_Energy>
5.75151

> <b_lp_Chiralities_Consistent>
1

> <s_lp_Variant>
AV-unprocessed.smi:3212-3

> <Gold.Version>
5.8.1

> <Gold.Id.Protein>
6NUR|6NUR_protein|mol2

> <Gold.PLP.Fitness>
40.0487

> <Gold.PLP.PLP>
-30.5774

> <Gold.PLP.part.hbond>
-2.8409

> <Gold.PLP.part.metal>
0.0000

> <Gold.PLP.part.buried>
-2.2479

> <Gold.PLP.part.nonpolar>
-27.2343

> <Gold.PLP.part.repulsive>
0.3730

> <Gold.PLP.ligand.clash>
0.0000

> <Gold.PLP.ligand.torsion>
1.1834

> <Gold.PLP.Chemscore.Hbond>
1.9280

> <Gold.PLP.Chemscore.CHOScore>
2.0000

> <Gold.PLP.Chemscore.Metal>
0.0000

> <Gold.Chemscore.Hbonds>
donor molecule, donor type, donor heavy atom, donor atom, acceptor molecule, acceptor atom, score
      L1  H     3    22       P1 10171  1.00
      L1  H    13    30       P1 10175  0.85
      L1  C     7    27       P1 10186  1.00
      L1  C     9    29       P1 10747  0.39

> <Gold.PLP.Chemscore.Internal.Correction>
0.0542

> <Gold.Rescore>
     Score         DG    S(hbond)    S(metal)    S(lipo)     H(rot)  DE(clash)    DE(int)     intcor
     13.32     -15.49       1.98        0.00      72.50       1.99       1.19       0.98       ----

> <Gold.Chemscore.Fitness>
13.3249

> <Gold.Chemscore.DG>
-15.4928

> <Gold.Chemscore.ZeroCoef>
-5.4800

> <Gold.Chemscore.Hbond>
1.9819

> <Gold.Chemscore.Metal>
0.0000

> <Gold.Chemscore.Lipo>
72.5015

> <Gold.Chemscore.Internal_Hbond>
0.0000

> <Gold.Chemscore.DEClash>
1.1875

> <Gold.Chemscore.DEInternal>
0.9804

> <Gold.Chemscore.Rot>
1.9880

> <Gold.Chemscore.Internal.Correction>
   9.000000E+99

> <Gold.Chemscore.Hbonds>
donor molecule, donor type, donor heavy atom, donor atom, acceptor molecule, acceptor atom, score
      L1  H     3    22       P1 10171  1.00
      L1  H    13    30       P1 10175  0.54

> <Gold.Chemscore.Hbond.Weighted>
-6.6194

> <Gold.Chemscore.Metal.Weighted>
-0.0000

> <Gold.Chemscore.Lipo.Weighted>
-8.4827

> <Gold.Chemscore.Internal_Hbond.Weighted>
0.0000

> <Gold.Chemscore.DEClash.Weighted>
1.1875

> <Gold.Chemscore.DEInternal.Weighted>
0.9804

> <Gold.Chemscore.Rot.Weighted>
5.0893

> <Gold.Chemscore.Internal.Correction.Weighted>
   9.000000E+99

> <Gold.Protein.RotatedTorsions>
[ 6907 6896 6895 6894 ] final   44.08 input  -60.11 | X-H torsion
[ 7974 7965 7964 7962 ] final   62.83 input  175.53 | X-H torsion
[ 8008 7997 7996 7995 ] final  175.56 input   59.86 | X-H torsion
[ 10167 10162 10161 10158 ] final   63.26 input  -65.29 | X-H torsion
[ 10718 10713 10712 10709 ] final   25.35 input   66.30 | X-H torsion
[ 10763 10752 10751 10750 ] final -152.95 input  -60.55 | X-H torsion
[ 11005 11000 10999 10996 ] final -175.13 input  -57.11 | X-H torsion

> <Gold.Protein.ActiveResidues>
 VAL166  LYS551  ARG553  GLY616  TRP617  ASP618  TYR619  PRO620  LYS621  CYS622 
 ASP623  PHE694  ASN695  SER759  ASP760  ASP761  ALA762  ILE779  LEU786  VAL792 
 PHE793  MET794  SER795  GLU796  ALA797  LYS798  CYS799  TRP800  GLU811  SER814 

> <Gold.Protein.RotatedAtoms>
  152.2281  134.8348  160.0476 H   0  0  0  0  0  0  0  0  0  0  0  0  # atno 6907 bound_to 6896
  151.9107  133.3555  159.3871 H   0  0  0  0  0  0  0  0  0  0  0  0  # atno 6908 bound_to 6896
  150.7018  134.4660  159.5447 H   0  0  0  0  0  0  0  0  0  0  0  0  # atno 6909 bound_to 6896
  145.8688  139.3364  143.0775 H   0  0  0  0  0  0  0  0  0  0  0  0  # atno 7974 bound_to 7965
  156.0857  140.1406  156.9656 H   0  0  0  0  0  0  0  0  0  0  0  0  # atno 8008 bound_to 7997
  154.4611  140.0943  156.6944 H   0  0  0  0  0  0  0  0  0  0  0  0  # atno 8009 bound_to 7997
  155.5002  140.3450  155.4372 H   0  0  0  0  0  0  0  0  0  0  0  0  # atno 8010 bound_to 7997
  140.1349  144.4608  150.6843 H   0  0  0  0  0  0  0  0  0  0  0  0  # atno 10167 bound_to 10162
  157.1922  130.6851  149.6154 H   0  0  0  0  0  0  0  0  0  0  0  0  # atno 10718 bound_to 10713
  154.7960  135.3224  154.7664 H   0  0  0  0  0  0  0  0  0  0  0  0  # atno 10763 bound_to 10752
  153.8342  135.6876  153.4815 H   0  0  0  0  0  0  0  0  0  0  0  0  # atno 10764 bound_to 10752
  153.1653  135.4644  154.9770 H   0  0  0  0  0  0  0  0  0  0  0  0  # atno 10765 bound_to 10752
  140.4667  134.6203  157.4865 H   0  0  0  0  0  0  0  0  0  0  0  0  # atno 11005 bound_to 11000
  145.9161  140.9147  143.0429 LP  0  0  0  0  0  0  0  0  0  0  0  0  # atno 17320 bound_to 7965
  144.6726  140.1226  143.7449 LP  0  0  0  0  0  0  0  0  0  0  0  0  # atno 17321 bound_to 7965
  140.6795  143.2320  151.5422 LP  0  0  0  0  0  0  0  0  0  0  0  0  # atno 17342 bound_to 10162
  139.5501  144.2419  152.1514 LP  0  0  0  0  0  0  0  0  0  0  0  0  # atno 17343 bound_to 10162
  155.9710  130.4611  150.6096 LP  0  0  0  0  0  0  0  0  0  0  0  0  # atno 17370 bound_to 10713
  157.3849  131.0786  151.1444 LP  0  0  0  0  0  0  0  0  0  0  0  0  # atno 17371 bound_to 10713
  139.9911  134.6984  155.9689 LP  0  0  0  0  0  0  0  0  0  0  0  0  # atno 17394 bound_to 11000
  141.1596  133.6540  156.4274 LP  0  0  0  0  0  0  0  0  0  0  0  0  # atno 17395 bound_to 11000

$$$$
