AV-unprocessed.smi:626|AV-procd|sdf|3112|dock2
  -GOLD-   22720 0 33D 1   1.00000     0.00000
 Structure written by MMmdl.
 34 36  0  0  0  0  0  0  0  0  1 V2000
  150.2228  136.1352  156.9328 C   0  0  0  0  0  0  0  0  0  0  0  0
  151.1335  137.2263  156.6222 N   0  0  0  0  0  0  0  0  0  0  0  0
  151.6015  137.4920  155.3935 C   0  0  0  0  0  0  0  0  0  0  0  0
  151.3082  136.8258  154.4005 O   0  0  0  0  0  0  0  0  0  0  0  0
  152.5433  138.6912  155.2618 C   0  0  0  0  0  0  0  0  0  0  0  0
  151.9250  139.9169  155.8548 C   0  0  0  0  0  0  0  0  0  0  0  0
  150.8988  140.5252  155.2713 N   0  0  0  0  0  0  0  0  0  0  0  0
  150.6217  141.5930  156.1366 O   0  0  0  0  0  0  0  0  0  0  0  0
  151.5438  141.5208  157.1274 C   0  0  0  0  0  0  0  0  0  0  0  0
  151.4402  142.4832  158.2715 C   0  0  1  0  0  0  0  0  0  0  0  0
  152.5582  142.3381  159.3252 C   0  0  0  0  0  0  0  0  0  0  0  0
  153.0605  143.7859  159.4835 C   0  0  2  0  0  0  0  0  0  0  0  0
  151.9693  144.6501  160.1460 C   0  0  0  0  0  0  0  0  0  0  0  0
  150.9322  144.8188  159.0170 C   0  0  0  0  0  0  0  0  0  0  0  0
  151.5357  143.9755  157.8775 C   0  0  1  0  0  0  0  0  0  0  0  0
  153.0225  144.2824  158.0438 C   0  0  0  0  0  0  0  0  0  0  0  0
  152.3502  140.4656  157.0260 N   0  0  0  0  0  0  0  0  0  0  0  0
  150.0671  136.0758  158.0099 H   0  0  0  0  0  0  0  0  0  0  0  0
  150.6256  135.1796  156.5944 H   0  0  0  0  0  0  0  0  0  0  0  0
  149.2550  136.2942  156.4558 H   0  0  0  0  0  0  0  0  0  0  0  0
  151.4204  137.8211  157.3863 H   0  0  0  0  0  0  0  0  0  0  0  0
  153.4979  138.4885  155.7500 H   0  0  0  0  0  0  0  0  0  0  0  0
  152.7585  138.8631  154.2064 H   0  0  0  0  0  0  0  0  0  0  0  0
  150.4734  142.2999  158.7432 H   0  0  0  0  0  0  0  0  0  0  0  0
  152.1987  141.9085  160.2608 H   0  0  0  0  0  0  0  0  0  0  0  0
  153.3664  141.7038  158.9576 H   0  0  0  0  0  0  0  0  0  0  0  0
  154.0336  143.8590  159.9700 H   0  0  0  0  0  0  0  0  0  0  0  0
  151.5475  144.1712  161.0305 H   0  0  0  0  0  0  0  0  0  0  0  0
  152.3678  145.6195  160.4476 H   0  0  0  0  0  0  0  0  0  0  0  0
  149.9363  144.4833  159.3088 H   0  0  0  0  0  0  0  0  0  0  0  0
  150.8559  145.8661  158.7221 H   0  0  0  0  0  0  0  0  0  0  0  0
  151.1101  144.2098  156.9009 H   0  0  0  0  0  0  0  0  0  0  0  0
  153.2599  145.3433  157.9450 H   0  0  0  0  0  0  0  0  0  0  0  0
  153.6663  143.7114  157.3734 H   0  0  0  0  0  0  0  0  0  0  0  0
  1  2  1  0  0  0  0
  1 18  1  0  0  0  0
  1 19  1  0  0  0  0
  1 20  1  0  0  0  0
  2  3  1  0  0  0  0
  2 21  1  0  0  0  0
  3  4  2  0  0  0  0
  3  5  1  0  0  0  0
  5  6  1  0  0  0  0
  5 22  1  0  0  0  0
  5 23  1  0  0  0  0
  6 17  1  0  0  0  0
  6  7  2  0  0  0  0
  7  8  1  0  0  0  0
  8  9  1  0  0  0  0
  9 10  1  0  0  0  0
  9 17  2  0  0  0  0
 10 15  1  0  0  0  0
 10 11  1  0  0  0  0
 10 24  1  0  0  0  0
 11 12  1  0  0  0  0
 11 25  1  0  0  0  0
 11 26  1  0  0  0  0
 12 16  1  0  0  0  0
 12 13  1  0  0  0  0
 12 27  1  0  0  0  0
 13 14  1  0  0  0  0
 13 28  1  0  0  0  0
 13 29  1  0  0  0  0
 14 15  1  0  0  0  0
 14 30  1  0  0  0  0
 14 31  1  0  0  0  0
 15 16  1  0  0  0  0
 15 32  1  0  0  0  0
 16 33  1  0  0  0  0
 16 34  1  0  0  0  0
M  END
> <s_m_source_file>
AV-unprocessed.smi

> <i_m_source_file_index>
626

> <i_lp_mmshare_version>
43012

> <i_f3d_flags>
0

> <s_epik_input>
W0NIM11bTkhdQyg9TylbQ0gyXWMxbm9jKG4xKVtDQEhdKFtDSDJdW0NAQEhdMjMpW0NAQEhdKFtDSDJdMylbQ0gyXVtDSDJdMg==

> <s_epik_cmdline>
J2VwaWtfcHl0aG9uJywgJy1waCcsICc3LjAnLCAnLXRuJywgJzgnLCAnLW1hJywgJzIwMCcsICctbWV0YWxfYmluZGluZycsICctaW1hZScsICc8aW5maWxlLm1hZT4nLCAnLW9tYWUnLCAnPG91dGZpbGUubWFlPic=

> <r_lp_tautomer_probability>
1

> <r_epik_Ionization_Penalty>
1.02916e-07

> <r_epik_Ionization_Penalty_Charging>
0

> <r_epik_Ionization_Penalty_Neutral>
1.02916e-07

> <r_epik_State_Penalty>
-0

> <r_epik_Charging_Adjusted_Penalty>
0

> <i_epik_Tot_Q>
0

> <i_epik_Tot_abs_Q>
0

> <r_epik_Metal_State_Penalty>
-0

> <b_epik_Metal_Only>
0

> <s_lp_Force_Field>
OPLS_2005

> <r_lp_Energy>
48.5493

> <b_lp_Chiralities_Consistent>
1

> <s_lp_Variant>
AV-unprocessed.smi:626-4

> <Gold.Version>
5.8.1

> <Gold.Id.Protein>
6NUR|6NUR_protein|mol2

> <Gold.PLP.Fitness>
43.3633

> <Gold.PLP.PLP>
-36.0695

> <Gold.PLP.part.hbond>
-3.0000

> <Gold.PLP.part.metal>
0.0000

> <Gold.PLP.part.buried>
-4.0596

> <Gold.PLP.part.nonpolar>
-29.0697

> <Gold.PLP.part.repulsive>
1.0013

> <Gold.PLP.ligand.clash>
0.0000

> <Gold.PLP.ligand.torsion>
0.2554

> <Gold.PLP.Chemscore.Hbond>
2.5727

> <Gold.PLP.Chemscore.CHOScore>
0.0000

> <Gold.PLP.Chemscore.Metal>
0.0000

> <Gold.Chemscore.Hbonds>
donor molecule, donor type, donor heavy atom, donor atom, acceptor molecule, acceptor atom, score
      P1  H  7989  7998       L1     7  0.98
      P1  H  7997  8010       L1    17  0.56
      P1  H 10752 10763       L1     4  1.00

> <Gold.PLP.Chemscore.Internal.Correction>
0.0865

> <Gold.Rescore>
     Score         DG    S(hbond)    S(metal)    S(lipo)     H(rot)  DE(clash)    DE(int)     intcor
     17.20     -17.73       1.67        0.00      92.32       1.61       0.22       0.30       ----

> <Gold.Chemscore.Fitness>
17.2023

> <Gold.Chemscore.DG>
-17.7268

> <Gold.Chemscore.ZeroCoef>
-5.4800

> <Gold.Chemscore.Hbond>
1.6681

> <Gold.Chemscore.Metal>
0.0000

> <Gold.Chemscore.Lipo>
92.3238

> <Gold.Chemscore.Internal_Hbond>
0.0000

> <Gold.Chemscore.DEClash>
0.2233

> <Gold.Chemscore.DEInternal>
0.3011

> <Gold.Chemscore.Rot>
1.6119

> <Gold.Chemscore.Internal.Correction>
   9.000000E+99

> <Gold.Chemscore.Hbonds>
donor molecule, donor type, donor heavy atom, donor atom, acceptor molecule, acceptor atom, score
      P1  H  7989  7998       L1     7  0.27
      P1  H  7997  8010       L1    17  0.08
      P1  H 10752 10763       L1     4  0.24

> <Gold.Chemscore.Hbond.Weighted>
-5.5715

> <Gold.Chemscore.Metal.Weighted>
-0.0000

> <Gold.Chemscore.Lipo.Weighted>
-10.8019

> <Gold.Chemscore.Internal_Hbond.Weighted>
0.0000

> <Gold.Chemscore.DEClash.Weighted>
0.2233

> <Gold.Chemscore.DEInternal.Weighted>
0.3011

> <Gold.Chemscore.Rot.Weighted>
4.1266

> <Gold.Chemscore.Internal.Correction.Weighted>
   9.000000E+99

> <Gold.Protein.RotatedTorsions>
[ 6907 6896 6895 6894 ] final  -14.23 input  -60.11 | X-H torsion
[ 7974 7965 7964 7962 ] final -177.96 input  175.53 | X-H torsion
[ 8008 7997 7996 7995 ] final   54.29 input   59.86 | X-H torsion
[ 10167 10162 10161 10158 ] final -114.15 input  -65.29 | X-H torsion
[ 10718 10713 10712 10709 ] final   88.92 input   66.30 | X-H torsion
[ 10763 10752 10751 10750 ] final   40.31 input  -60.55 | X-H torsion
[ 11005 11000 10999 10996 ] final -128.95 input  -57.11 | X-H torsion

> <Gold.Protein.ActiveResidues>
 VAL166  LYS551  ARG553  GLY616  TRP617  ASP618  TYR619  PRO620  LYS621  CYS622 
 ASP623  PHE694  ASN695  SER759  ASP760  ASP761  ALA762  ILE779  LEU786  VAL792 
 PHE793  MET794  SER795  GLU796  ALA797  LYS798  CYS799  TRP800  GLU811  SER814 

> <Gold.Protein.RotatedAtoms>
  151.3426  135.0867  159.9375 H   0  0  0  0  0  0  0  0  0  0  0  0  # atno 6907 bound_to 6896
  152.5207  133.9432  159.7646 H   0  0  0  0  0  0  0  0  0  0  0  0  # atno 6908 bound_to 6896
  150.9791  133.6210  159.2755 H   0  0  0  0  0  0  0  0  0  0  0  0  # atno 6909 bound_to 6896
  144.7129  140.0940  143.6420 H   0  0  0  0  0  0  0  0  0  0  0  0  # atno 7974 bound_to 7965
  155.4822  140.3469  155.4341 H   0  0  0  0  0  0  0  0  0  0  0  0  # atno 8008 bound_to 7997
  156.1031  140.1441  156.9469 H   0  0  0  0  0  0  0  0  0  0  0  0  # atno 8009 bound_to 7997
  154.4707  140.0902  156.7114 H   0  0  0  0  0  0  0  0  0  0  0  0  # atno 8010 bound_to 7997
  140.1040  143.4587  152.1794 H   0  0  0  0  0  0  0  0  0  0  0  0  # atno 10167 bound_to 10162
  157.6952  131.0313  150.3347 H   0  0  0  0  0  0  0  0  0  0  0  0  # atno 10718 bound_to 10713
  152.9940  135.6195  154.2605 H   0  0  0  0  0  0  0  0  0  0  0  0  # atno 10763 bound_to 10752
  154.2341  135.2791  155.2880 H   0  0  0  0  0  0  0  0  0  0  0  0  # atno 10764 bound_to 10752
  154.5424  135.5757  153.6909 H   0  0  0  0  0  0  0  0  0  0  0  0  # atno 10765 bound_to 10752
  140.9473  134.1113  157.4095 H   0  0  0  0  0  0  0  0  0  0  0  0  # atno 11005 bound_to 11000
  145.9595  139.2791  143.1164 LP  0  0  0  0  0  0  0  0  0  0  0  0  # atno 17320 bound_to 7965
  145.9236  140.9098  143.0392 LP  0  0  0  0  0  0  0  0  0  0  0  0  # atno 17321 bound_to 7965
  139.5655  144.7432  151.4034 LP  0  0  0  0  0  0  0  0  0  0  0  0  # atno 17342 bound_to 10162
  140.6962  143.7743  150.7330 LP  0  0  0  0  0  0  0  0  0  0  0  0  # atno 17343 bound_to 10162
  156.3816  130.3881  149.7097 LP  0  0  0  0  0  0  0  0  0  0  0  0  # atno 17370 bound_to 10713
  156.4478  130.7892  151.2913 LP  0  0  0  0  0  0  0  0  0  0  0  0  # atno 17371 bound_to 10713
  139.8837  135.0055  156.6319 LP  0  0  0  0  0  0  0  0  0  0  0  0  # atno 17394 bound_to 11000
  140.7651  133.8785  155.8448 LP  0  0  0  0  0  0  0  0  0  0  0  0  # atno 17395 bound_to 11000

$$$$
