AV-unprocessed.smi:621|AV-procd|sdf|3089|dock3
  -GOLD-   22720 0 13D 1   1.00000     0.00000
 Structure written by MMmdl.
 36 37  0  0  0  0  0  0  0  0  1 V2000
  150.7617  140.7012  156.2674 O   0  0  0  0  0  0  0  0  0  0  0  0
  150.1182  141.7395  156.1114 C   0  0  0  0  0  0  0  0  0  0  0  0
  149.0493  141.8794  155.3073 N   0  0  0  0  0  0  0  0  0  0  0  0
  148.4323  140.8979  154.4866 C   0  0  0  0  0  0  0  0  0  0  0  0
  147.4797  141.3980  153.5699 C   0  0  0  0  0  0  0  0  0  0  0  0
  146.8093  140.5055  152.7113 C   0  0  0  0  0  0  0  0  0  0  0  0
  147.1091  139.1339  152.7912 C   0  0  0  0  0  0  0  0  0  0  0  0
  148.0704  138.7191  153.7310 C   0  0  0  0  0  0  0  0  0  0  0  0
  148.7143  139.5727  154.5548 N   0  0  0  0  0  0  0  0  0  0  0  0
  150.4033  142.8895  156.7402 N   0  0  0  0  0  0  0  0  0  0  0  0
  151.4947  143.0923  157.6905 C   0  0  0  0  0  0  0  0  0  0  0  0
  151.4510  141.9939  158.7768 C   0  0  0  0  0  0  0  0  0  0  0  0
  152.7303  141.9318  159.6279 C   0  0  0  0  0  0  0  0  0  0  0  0
  152.7570  142.8583  160.8560 C   0  0  0  0  0  0  0  0  0  0  0  0
  152.1854  144.2735  160.6617 C   0  0  0  0  0  0  0  0  0  0  0  0
  152.4511  144.9097  159.2877 C   0  0  0  0  0  0  0  0  0  0  0  0
  151.3914  144.5276  158.2399 C   0  0  0  0  0  0  0  0  0  0  0  0
  148.6235  142.7939  155.2840 H   0  0  0  0  0  0  0  0  0  0  0  0
  147.2613  142.4552  153.5221 H   0  0  0  0  0  0  0  0  0  0  0  0
  146.0782  140.8679  152.0039 H   0  0  0  0  0  0  0  0  0  0  0  0
  146.6156  138.4187  152.1499 H   0  0  0  0  0  0  0  0  0  0  0  0
  148.3295  137.6749  153.8245 H   0  0  0  0  0  0  0  0  0  0  0  0
  149.8184  143.6899  156.5496 H   0  0  0  0  0  0  0  0  0  0  0  0
  152.4400  143.0122  157.1503 H   0  0  0  0  0  0  0  0  0  0  0  0
  150.5680  142.0988  159.4088 H   0  0  0  0  0  0  0  0  0  0  0  0
  151.3469  141.0270  158.2824 H   0  0  0  0  0  0  0  0  0  0  0  0
  152.8698  140.9094  159.9804 H   0  0  0  0  0  0  0  0  0  0  0  0
  153.5961  142.1345  158.9966 H   0  0  0  0  0  0  0  0  0  0  0  0
  152.2163  142.3831  161.6755 H   0  0  0  0  0  0  0  0  0  0  0  0
  153.7903  142.9358  161.1959 H   0  0  0  0  0  0  0  0  0  0  0  0
  151.1116  144.2617  160.8524 H   0  0  0  0  0  0  0  0  0  0  0  0
  152.6059  144.9143  161.4377 H   0  0  0  0  0  0  0  0  0  0  0  0
  152.4162  145.9929  159.4095 H   0  0  0  0  0  0  0  0  0  0  0  0
  153.4578  144.6836  158.9341 H   0  0  0  0  0  0  0  0  0  0  0  0
  151.4807  145.2197  157.4014 H   0  0  0  0  0  0  0  0  0  0  0  0
  150.3961  144.6973  158.6536 H   0  0  0  0  0  0  0  0  0  0  0  0
  1  2  2  0  0  0  0
  2  3  1  0  0  0  0
  2 10  1  0  0  0  0
  3  4  1  0  0  0  0
  3 18  1  0  0  0  0
  4  9  1  0  0  0  0
  4  5  2  0  0  0  0
  5  6  1  0  0  0  0
  5 19  1  0  0  0  0
  6  7  2  0  0  0  0
  6 20  1  0  0  0  0
  7  8  1  0  0  0  0
  7 21  1  0  0  0  0
  8  9  2  0  0  0  0
  8 22  1  0  0  0  0
 10 11  1  0  0  0  0
 10 23  1  0  0  0  0
 11 17  1  0  0  0  0
 11 12  1  0  0  0  0
 11 24  1  0  0  0  0
 12 13  1  0  0  0  0
 12 25  1  0  0  0  0
 12 26  1  0  0  0  0
 13 14  1  0  0  0  0
 13 27  1  0  0  0  0
 13 28  1  0  0  0  0
 14 15  1  0  0  0  0
 14 29  1  0  0  0  0
 14 30  1  0  0  0  0
 15 16  1  0  0  0  0
 15 31  1  0  0  0  0
 15 32  1  0  0  0  0
 16 17  1  0  0  0  0
 16 33  1  0  0  0  0
 16 34  1  0  0  0  0
 17 35  1  0  0  0  0
 17 36  1  0  0  0  0
M  END
> <s_m_source_file>
AV-unprocessed.smi

> <i_m_source_file_index>
621

> <i_lp_mmshare_version>
43012

> <i_f3d_flags>
0

> <s_epik_input>
bjFbY0hdW2NIXVtjSF1bY0hdYzFbTkhdQyg9TylbTkhdW0NIXTJbQ0gyXVtDSDJdW0NIMl1bQ0gyXVtDSDJdW0NIMl0y

> <s_epik_cmdline>
J2VwaWtfcHl0aG9uJywgJy1waCcsICc3LjAnLCAnLXRuJywgJzgnLCAnLW1hJywgJzIwMCcsICctbWV0YWxfYmluZGluZycsICctaW1hZScsICc8aW5maWxlLm1hZT4nLCAnLW9tYWUnLCAnPG91dGZpbGUubWFlPic=

> <r_lp_tautomer_probability>
1

> <r_epik_Ionization_Penalty>
5.35129e-05

> <r_epik_Ionization_Penalty_Charging>
0

> <r_epik_Ionization_Penalty_Neutral>
5.35129e-05

> <r_epik_State_Penalty>
-0

> <r_epik_Charging_Adjusted_Penalty>
0

> <i_epik_Tot_Q>
0

> <i_epik_Tot_abs_Q>
0

> <r_epik_Metal_State_Penalty>
-0

> <b_epik_Metal_Only>
0

> <s_lp_Force_Field>
OPLS_2005

> <r_lp_Energy>
17.2973

> <b_lp_Chiralities_Consistent>
1

> <s_lp_Variant>
AV-unprocessed.smi:621-1

> <Gold.Version>
5.8.1

> <Gold.Id.Protein>
6NUR|6NUR_protein|mol2

> <Gold.PLP.Fitness>
47.3778

> <Gold.PLP.PLP>
-39.1897

> <Gold.PLP.part.hbond>
-2.0000

> <Gold.PLP.part.metal>
0.0000

> <Gold.PLP.part.buried>
-3.1579

> <Gold.PLP.part.nonpolar>
-33.6081

> <Gold.PLP.part.repulsive>
0.3412

> <Gold.PLP.ligand.clash>
0.0000

> <Gold.PLP.ligand.torsion>
0.0752

> <Gold.PLP.Chemscore.Hbond>
1.9280

> <Gold.PLP.Chemscore.CHOScore>
0.8470

> <Gold.PLP.Chemscore.Metal>
0.0000

> <Gold.Chemscore.Hbonds>
donor molecule, donor type, donor heavy atom, donor atom, acceptor molecule, acceptor atom, score
      L1  H     3    18       P1  8028  0.93
      L1  H    10    23       P1  8028  1.00
      L1  C     8    22       P1  7948  0.86

> <Gold.PLP.Chemscore.Internal.Correction>
0.0135

> <Gold.Rescore>
     Score         DG    S(hbond)    S(metal)    S(lipo)     H(rot)  DE(clash)    DE(int)     intcor
     19.39     -22.32       1.93        0.00     110.59       1.00       0.37       2.56       ----

> <Gold.Chemscore.Fitness>
19.3912

> <Gold.Chemscore.DG>
-22.3169

> <Gold.Chemscore.ZeroCoef>
-5.4800

> <Gold.Chemscore.Hbond>
1.9334

> <Gold.Chemscore.Metal>
0.0000

> <Gold.Chemscore.Lipo>
110.5930

> <Gold.Chemscore.Internal_Hbond>
0.0000

> <Gold.Chemscore.DEClash>
0.3687

> <Gold.Chemscore.DEInternal>
2.5569

> <Gold.Chemscore.Rot>
1.0000

> <Gold.Chemscore.Internal.Correction>
   9.000000E+99

> <Gold.Chemscore.Hbonds>
donor molecule, donor type, donor heavy atom, donor atom, acceptor molecule, acceptor atom, score
      L1  H     3    18       P1  8028  0.88
      L1  H    10    23       P1  8028  0.99

> <Gold.Chemscore.Hbond.Weighted>
-6.4575

> <Gold.Chemscore.Metal.Weighted>
-0.0000

> <Gold.Chemscore.Lipo.Weighted>
-12.9394

> <Gold.Chemscore.Internal_Hbond.Weighted>
0.0000

> <Gold.Chemscore.DEClash.Weighted>
0.3687

> <Gold.Chemscore.DEInternal.Weighted>
2.5569

> <Gold.Chemscore.Rot.Weighted>
2.5600

> <Gold.Chemscore.Internal.Correction.Weighted>
   9.000000E+99

> <Gold.Protein.RotatedTorsions>
[ 6907 6896 6895 6894 ] final  120.05 input  -60.11 | X-H torsion
[ 7974 7965 7964 7962 ] final -176.90 input  175.53 | X-H torsion
[ 8008 7997 7996 7995 ] final   64.73 input   59.86 | X-H torsion
[ 10167 10162 10161 10158 ] final  166.71 input  -65.29 | X-H torsion
[ 10718 10713 10712 10709 ] final -121.44 input   66.30 | X-H torsion
[ 10763 10752 10751 10750 ] final   22.93 input  -60.55 | X-H torsion
[ 11005 11000 10999 10996 ] final  149.13 input  -57.11 | X-H torsion

> <Gold.Protein.ActiveResidues>
 VAL166  LYS551  ARG553  GLY616  TRP617  ASP618  TYR619  PRO620  LYS621  CYS622 
 ASP623  PHE694  ASN695  SER759  ASP760  ASP761  ALA762  ILE779  LEU786  VAL792 
 PHE793  MET794  SER795  GLU796  ALA797  LYS798  CYS799  TRP800  GLU811  SER814 

> <Gold.Protein.RotatedAtoms>
  152.4426  133.7477  159.6676 H   0  0  0  0  0  0  0  0  0  0  0  0  # atno 6907 bound_to 6896
  150.8320  133.8065  159.3101 H   0  0  0  0  0  0  0  0  0  0  0  0  # atno 6908 bound_to 6896
  151.5716  135.1064  160.0048 H   0  0  0  0  0  0  0  0  0  0  0  0  # atno 6909 bound_to 6896
  144.7127  140.1100  143.6411 H   0  0  0  0  0  0  0  0  0  0  0  0  # atno 7974 bound_to 7965
  155.6507  140.3497  155.4747 H   0  0  0  0  0  0  0  0  0  0  0  0  # atno 8008 bound_to 7997
  155.9850  140.1182  157.0714 H   0  0  0  0  0  0  0  0  0  0  0  0  # atno 8009 bound_to 7997
  154.4202  140.1130  156.5474 H   0  0  0  0  0  0  0  0  0  0  0  0  # atno 8010 bound_to 7997
  139.4930  144.3998  151.9422 H   0  0  0  0  0  0  0  0  0  0  0  0  # atno 10167 bound_to 10162
  156.1337  130.6414  150.9662 H   0  0  0  0  0  0  0  0  0  0  0  0  # atno 10718 bound_to 10713
  153.0877  135.6637  153.9916 H   0  0  0  0  0  0  0  0  0  0  0  0  # atno 10763 bound_to 10752
  153.9521  135.2983  155.3439 H   0  0  0  0  0  0  0  0  0  0  0  0  # atno 10764 bound_to 10752
  154.7287  135.5132  153.9001 H   0  0  0  0  0  0  0  0  0  0  0  0  # atno 10765 bound_to 10752
  140.1018  134.8978  157.1807 H   0  0  0  0  0  0  0  0  0  0  0  0  # atno 11005 bound_to 11000
  145.9463  139.2703  143.1239 LP  0  0  0  0  0  0  0  0  0  0  0  0  # atno 17320 bound_to 7965
  145.9370  140.9007  143.0327 LP  0  0  0  0  0  0  0  0  0  0  0  0  # atno 17321 bound_to 7965
  140.3437  144.3172  150.5962 LP  0  0  0  0  0  0  0  0  0  0  0  0  # atno 17342 bound_to 10162
  140.5544  143.2201  151.7872 LP  0  0  0  0  0  0  0  0  0  0  0  0  # atno 17343 bound_to 10162
  157.6512  131.0896  150.8046 LP  0  0  0  0  0  0  0  0  0  0  0  0  # atno 17370 bound_to 10713
  156.8128  130.4958  149.5353 LP  0  0  0  0  0  0  0  0  0  0  0  0  # atno 17371 bound_to 10713
  140.3209  134.2917  155.7246 LP  0  0  0  0  0  0  0  0  0  0  0  0  # atno 17394 bound_to 11000
  141.2108  133.7709  156.9910 LP  0  0  0  0  0  0  0  0  0  0  0  0  # atno 17395 bound_to 11000

$$$$
