AV-unprocessed.smi:3245|AV-procd|sdf|12408|dock4
  -GOLD-   2272018283D 1   1.00000     0.00000
 Structure written by MMmdl.
 34 35  0  0  0  0  0  0  0  0  2 V2000
  150.3070  144.3522  159.0159 C   0  0  0  0  0  0  0  0  0  0  0  0
  151.0298  143.1437  158.3966 C   0  0  2  0  0  0  0  0  0  0  0  0
  152.5617  143.1854  158.6112 C   0  0  0  0  0  0  0  0  0  0  0  0
  152.9616  142.7323  159.9312 N   0  0  0  0  0  0  0  0  0  0  0  0
  153.8088  141.6953  160.2607 C   0  0  0  0  0  0  0  0  0  0  0  0
  153.8716  141.6397  161.6236 C   0  0  0  0  0  0  0  0  0  0  0  0
  153.0124  142.6927  162.0449 C   0  0  0  0  0  0  0  0  0  0  0  0
  152.4661  143.3424  161.0299 N   0  0  0  0  0  0  0  0  0  0  0  0
  150.7196  143.1331  156.9724 N   0  0  0  0  0  0  0  0  0  0  0  0
  150.3837  141.8008  156.4889 C   0  0  0  0  0  0  0  0  0  0  0  0
  149.6015  141.8947  155.1666 C   0  0  0  0  0  0  0  0  0  0  0  0
  149.2184  140.5726  154.6550 N   0  0  0  0  0  0  0  0  0  0  0  0
  147.9593  140.2052  154.3972 C   0  0  0  0  0  0  0  0  0  0  0  0
  146.9345  140.8756  154.5262 O   0  0  0  0  0  0  0  0  0  0  0  0
  147.9916  138.7769  153.9063 C   0  0  0  0  0  0  0  0  0  0  0  0
  149.4028  138.4685  153.9464 N   0  5  0  0  0  0  0  0  0  0  0  0
  150.0676  139.5588  154.3965 C   0  0  0  0  0  0  0  0  0  0  0  0
  151.2827  139.6587  154.5643 O   0  0  0  0  0  0  0  0  0  0  0  0
  150.4291  144.3785  160.0988 H   0  0  0  0  0  0  0  0  0  0  0  0
  149.2358  144.3151  158.8156 H   0  0  0  0  0  0  0  0  0  0  0  0
  150.6888  145.2921  158.6154 H   0  0  0  0  0  0  0  0  0  0  0  0
  150.6198  142.2423  158.8545 H   0  0  0  0  0  0  0  0  0  0  0  0
  153.0808  142.5669  157.8791 H   0  0  0  0  0  0  0  0  0  0  0  0
  152.9311  144.2030  158.4745 H   0  0  0  0  0  0  0  0  0  0  0  0
  154.2919  141.0919  159.5064 H   0  0  0  0  0  0  0  0  0  0  0  0
  154.4425  140.9505  162.2279 H   0  0  0  0  0  0  0  0  0  0  0  0
  152.7690  143.0009  163.0510 H   0  0  0  0  0  0  0  0  0  0  0  0
  149.9428  143.7521  156.7891 H   0  0  0  0  0  0  0  0  0  0  0  0
  151.2772  141.1927  156.3530 H   0  0  0  0  0  0  0  0  0  0  0  0
  149.7673  141.3018  157.2375 H   0  0  0  0  0  0  0  0  0  0  0  0
  148.6946  142.4785  155.3312 H   0  0  0  0  0  0  0  0  0  0  0  0
  150.1731  142.4557  154.4253 H   0  0  0  0  0  0  0  0  0  0  0  0
  147.3940  138.1451  154.5642 H   0  0  0  0  0  0  0  0  0  0  0  0
  147.5657  138.7190  152.9041 H   0  0  0  0  0  0  0  0  0  0  0  0
  1  2  1  0  0  0  0
  1 19  1  0  0  0  0
  1 20  1  0  0  0  0
  1 21  1  0  0  0  0
  2  3  1  0  0  0  0
  2  9  1  0  0  0  0
  2 22  1  0  0  0  0
  3  4  1  0  0  0  0
  3 23  1  0  0  0  0
  3 24  1  0  0  0  0
  4  8  1  0  0  0  0
  4  5  1  0  0  0  0
  5  6  2  0  0  0  0
  5 25  1  0  0  0  0
  6  7  1  0  0  0  0
  6 26  1  0  0  0  0
  7  8  2  0  0  0  0
  7 27  1  0  0  0  0
  9 10  1  0  0  0  0
  9 28  1  0  0  0  0
 10 11  1  0  0  0  0
 10 29  1  0  0  0  0
 10 30  1  0  0  0  0
 11 12  1  0  0  0  0
 11 31  1  0  0  0  0
 11 32  1  0  0  0  0
 12 17  1  0  0  0  0
 12 13  1  0  0  0  0
 13 14  2  0  0  0  0
 13 15  1  0  0  0  0
 15 16  1  0  0  0  0
 15 33  1  0  0  0  0
 15 34  1  0  0  0  0
 16 17  1  0  0  0  0
 17 18  2  0  0  0  0
M  CHG  1  16  -1
M  END
> <s_m_source_file>
AV-unprocessed.smi

> <i_m_source_file_index>
3245

> <i_lp_mmshare_version>
43012

> <i_f3d_flags>
0

> <s_epik_input>
bjFbY0hdW2NIXVtjSF1uMVtDSDJdW0NAQEhdKFtDSDNdKVtOSF1bQ0gyXVtDSDJdTjJDKD1PKVtDSDJdW05IXUMyPU8=

> <s_epik_cmdline>
J2VwaWtfcHl0aG9uJywgJy1waCcsICc3LjAnLCAnLXRuJywgJzgnLCAnLW1hJywgJzIwMCcsICctbWV0YWxfYmluZGluZycsICctaW1hZScsICc8aW5maWxlLm1hZT4nLCAnLW9tYWUnLCAnPG91dGZpbGUubWFlPic=

> <r_lp_tautomer_probability>
1

> <r_epik_Ionization_Penalty>
8.62027

> <r_epik_Ionization_Penalty_Charging>
6.28132

> <r_epik_Ionization_Penalty_Neutral>
2.33895

> <r_epik_State_Penalty>
8.57043

> <r_epik_Charging_Adjusted_Penalty>
14.8517

> <i_epik_Tot_Q>
-1

> <i_epik_Tot_abs_Q>
1

> <r_epik_Metal_State_Penalty>
4.56785

> <b_epik_Metal_Only>
1

> <s_lp_Force_Field>
OPLS_2005

> <r_lp_Energy>
21.0374

> <b_lp_Chiralities_Consistent>
1

> <s_lp_Variant>
AV-unprocessed.smi:3245-7

> <Gold.Version>
5.8.1

> <Gold.Id.Protein>
6NUR|6NUR_protein|mol2

> <Gold.PLP.Fitness>
43.6373

> <Gold.PLP.PLP>
-39.6544

> <Gold.PLP.part.hbond>
-2.0000

> <Gold.PLP.part.metal>
0.0000

> <Gold.PLP.part.buried>
-4.9954

> <Gold.PLP.part.nonpolar>
-34.3101

> <Gold.PLP.part.repulsive>
0.5278

> <Gold.PLP.ligand.clash>
0.0000

> <Gold.PLP.ligand.torsion>
0.9116

> <Gold.PLP.Chemscore.Hbond>
1.9000

> <Gold.PLP.Chemscore.CHOScore>
0.0000

> <Gold.PLP.Chemscore.Metal>
0.0000

> <Gold.Chemscore.Hbonds>
donor molecule, donor type, donor heavy atom, donor atom, acceptor molecule, acceptor atom, score
      L1  H     9    28       P1  8028  1.00
      P1  H  7989  7998       L1    18  1.00

> <Gold.PLP.Chemscore.Internal.Correction>
0.1061

> <Gold.Rescore>
     Score         DG    S(hbond)    S(metal)    S(lipo)     H(rot)  DE(clash)    DE(int)     intcor
     13.42     -14.99       1.95        0.00      81.97       2.58       0.49       1.08       ----

> <Gold.Chemscore.Fitness>
13.4181

> <Gold.Chemscore.DG>
-14.9854

> <Gold.Chemscore.ZeroCoef>
-5.4800

> <Gold.Chemscore.Hbond>
1.9528

> <Gold.Chemscore.Metal>
0.0000

> <Gold.Chemscore.Lipo>
81.9710

> <Gold.Chemscore.Internal_Hbond>
0.0000

> <Gold.Chemscore.DEClash>
0.4892

> <Gold.Chemscore.DEInternal>
1.0781

> <Gold.Chemscore.Rot>
2.5811

> <Gold.Chemscore.Internal.Correction>
   9.000000E+99

> <Gold.Chemscore.Hbonds>
donor molecule, donor type, donor heavy atom, donor atom, acceptor molecule, acceptor atom, score
      L1  H     9    28       P1  8028  0.96
      P1  H  7989  7998       L1    18  0.30

> <Gold.Chemscore.Hbond.Weighted>
-6.5223

> <Gold.Chemscore.Metal.Weighted>
-0.0000

> <Gold.Chemscore.Lipo.Weighted>
-9.5906

> <Gold.Chemscore.Internal_Hbond.Weighted>
0.0000

> <Gold.Chemscore.DEClash.Weighted>
0.4892

> <Gold.Chemscore.DEInternal.Weighted>
1.0781

> <Gold.Chemscore.Rot.Weighted>
6.6076

> <Gold.Chemscore.Internal.Correction.Weighted>
   9.000000E+99

> <Gold.Protein.RotatedTorsions>
[ 6907 6896 6895 6894 ] final  -92.48 input  -60.11 | X-H torsion
[ 7974 7965 7964 7962 ] final  -91.95 input  175.53 | X-H torsion
[ 8008 7997 7996 7995 ] final   -7.24 input   59.86 | X-H torsion
[ 10167 10162 10161 10158 ] final  -89.50 input  -65.29 | X-H torsion
[ 10718 10713 10712 10709 ] final -137.51 input   66.30 | X-H torsion
[ 10763 10752 10751 10750 ] final   60.23 input  -60.55 | X-H torsion
[ 11005 11000 10999 10996 ] final  -75.57 input  -57.11 | X-H torsion

> <Gold.Protein.ActiveResidues>
 VAL166  LYS551  ARG553  GLY616  TRP617  ASP618  TYR619  PRO620  LYS621  CYS622 
 ASP623  PHE694  ASN695  SER759  ASP760  ASP761  ALA762  ILE779  LEU786  VAL792 
 PHE793  MET794  SER795  GLU796  ALA797  LYS798  CYS799  TRP800  GLU811  SER814 

> <Gold.Protein.RotatedAtoms>
  150.6907  134.2116  159.4361 H   0  0  0  0  0  0  0  0  0  0  0  0  # atno 6907 bound_to 6896
  152.0077  134.9891  160.0576 H   0  0  0  0  0  0  0  0  0  0  0  0  # atno 6908 bound_to 6896
  152.1518  133.4492  159.4854 H   0  0  0  0  0  0  0  0  0  0  0  0  # atno 6909 bound_to 6896
  145.4063  140.9541  143.2259 H   0  0  0  0  0  0  0  0  0  0  0  0  # atno 7974 bound_to 7965
  154.5858  140.2412  155.7989 H   0  0  0  0  0  0  0  0  0  0  0  0  # atno 8008 bound_to 7997
  156.2212  140.2997  155.9912 H   0  0  0  0  0  0  0  0  0  0  0  0  # atno 8009 bound_to 7997
  155.2461  140.0409  157.2971 H   0  0  0  0  0  0  0  0  0  0  0  0  # atno 8010 bound_to 7997
  140.3642  143.2826  151.9578 H   0  0  0  0  0  0  0  0  0  0  0  0  # atno 10167 bound_to 10162
  156.2889  130.7364  151.1383 H   0  0  0  0  0  0  0  0  0  0  0  0  # atno 10718 bound_to 10713
  152.9915  135.5543  154.5841 H   0  0  0  0  0  0  0  0  0  0  0  0  # atno 10763 bound_to 10752
  154.5216  135.2808  155.1260 H   0  0  0  0  0  0  0  0  0  0  0  0  # atno 10764 bound_to 10752
  154.2611  135.6381  153.5327 H   0  0  0  0  0  0  0  0  0  0  0  0  # atno 10765 bound_to 10752
  141.1646  133.6951  156.7537 H   0  0  0  0  0  0  0  0  0  0  0  0  # atno 11005 bound_to 11000
  144.8339  139.5582  143.6931 LP  0  0  0  0  0  0  0  0  0  0  0  0  # atno 17320 bound_to 7965
  146.2727  139.6675  142.9285 LP  0  0  0  0  0  0  0  0  0  0  0  0  # atno 17321 bound_to 7965
  139.4810  144.5965  151.7680 LP  0  0  0  0  0  0  0  0  0  0  0  0  # atno 17342 bound_to 10162
  140.5097  144.1043  150.5992 LP  0  0  0  0  0  0  0  0  0  0  0  0  # atno 17343 bound_to 10162
  157.7337  131.0589  150.5565 LP  0  0  0  0  0  0  0  0  0  0  0  0  # atno 17370 bound_to 10713
  156.5679  130.4272  149.6033 LP  0  0  0  0  0  0  0  0  0  0  0  0  # atno 17371 bound_to 10713
  140.2585  134.8485  157.3735 LP  0  0  0  0  0  0  0  0  0  0  0  0  # atno 17394 bound_to 11000
  140.1634  134.4699  155.7879 LP  0  0  0  0  0  0  0  0  0  0  0  0  # atno 17395 bound_to 11000

$$$$
