AV-unprocessed.smi:428|AV-procd|sdf|2544|dock9
  -GOLD-   2262022503D 1   1.00000     0.00000
 Structure written by MMmdl.
 40 41  0  0  0  0  0  0  0  0  1 V2000
  145.6397  131.1791  150.9750 C   0  0  0  0  0  0  0  0  0  0  0  0
  144.7570  132.0973  150.1223 C   0  0  0  0  0  0  0  0  0  0  0  0
  143.4932  132.5565  150.8713 C   0  0  0  0  0  0  0  0  0  0  0  0
  143.7607  133.6755  151.8831 C   0  0  0  0  0  0  0  0  0  0  0  0
  144.8908  134.1452  152.0184 O   0  0  0  0  0  0  0  0  0  0  0  0
  142.6989  134.1017  152.5843 N   0  0  0  0  0  0  0  0  0  0  0  0
  142.7248  135.1526  153.5979 C   0  0  0  0  0  0  0  0  0  0  0  0
  141.5267  136.0953  153.5957 C   0  0  0  0  0  0  0  0  0  0  0  0
  140.2245  135.5584  153.5967 C   0  0  0  0  0  0  0  0  0  0  0  0
  139.1197  136.4305  153.5817 C   0  0  0  0  0  0  0  0  0  0  0  0
  139.3442  137.8270  153.5659 C   0  0  0  0  0  0  0  0  0  0  0  0
  138.2507  138.7192  153.5469 N   0  0  0  0  0  0  0  0  0  0  0  0
  137.0870  138.3927  154.3688 C   0  0  0  0  0  0  0  0  0  0  0  0
  135.9057  139.3107  154.0119 C   0  0  0  0  0  0  0  0  0  0  0  0
  136.3023  140.6723  154.1392 O   0  0  0  0  0  0  0  0  0  0  0  0
  137.3663  140.9986  153.2512 C   0  0  0  0  0  0  0  0  0  0  0  0
  138.5994  140.1372  153.5746 C   0  0  0  0  0  0  0  0  0  0  0  0
  140.5975  138.3437  153.5698 N   0  0  0  0  0  0  0  0  0  0  0  0
  141.6531  137.5026  153.5805 C   0  0  0  0  0  0  0  0  0  0  0  0
  146.5257  130.8681  150.4210 H   0  0  0  0  0  0  0  0  0  0  0  0
  145.1002  130.2796  151.2728 H   0  0  0  0  0  0  0  0  0  0  0  0
  145.9745  131.6851  151.8807 H   0  0  0  0  0  0  0  0  0  0  0  0
  145.3406  132.9656  149.8129 H   0  0  0  0  0  0  0  0  0  0  0  0
  144.4778  131.5700  149.2090 H   0  0  0  0  0  0  0  0  0  0  0  0
  142.7462  132.9092  150.1594 H   0  0  0  0  0  0  0  0  0  0  0  0
  143.0512  131.7056  151.3919 H   0  0  0  0  0  0  0  0  0  0  0  0
  141.8070  133.6629  152.4059 H   0  0  0  0  0  0  0  0  0  0  0  0
  142.7728  134.6704  154.5744 H   0  0  0  0  0  0  0  0  0  0  0  0
  143.6407  135.7386  153.5031 H   0  0  0  0  0  0  0  0  0  0  0  0
  140.0713  134.4891  153.6091 H   0  0  0  0  0  0  0  0  0  0  0  0
  138.1199  136.0224  153.5961 H   0  0  0  0  0  0  0  0  0  0  0  0
  136.7973  137.3525  154.2147 H   0  0  0  0  0  0  0  0  0  0  0  0
  137.3439  138.5089  155.4226 H   0  0  0  0  0  0  0  0  0  0  0  0
  135.5538  139.1161  152.9974 H   0  0  0  0  0  0  0  0  0  0  0  0
  135.0668  139.1205  154.6812 H   0  0  0  0  0  0  0  0  0  0  0  0
  137.0496  140.8507  152.2175 H   0  0  0  0  0  0  0  0  0  0  0  0
  137.6086  142.0555  153.3616 H   0  0  0  0  0  0  0  0  0  0  0  0
  138.9773  140.3862  154.5671 H   0  0  0  0  0  0  0  0  0  0  0  0
  139.3923  140.3711  152.8655 H   0  0  0  0  0  0  0  0  0  0  0  0
  142.6210  137.9809  153.5730 H   0  0  0  0  0  0  0  0  0  0  0  0
  1  2  1  0  0  0  0
  1 20  1  0  0  0  0
  1 21  1  0  0  0  0
  1 22  1  0  0  0  0
  2  3  1  0  0  0  0
  2 23  1  0  0  0  0
  2 24  1  0  0  0  0
  3  4  1  0  0  0  0
  3 25  1  0  0  0  0
  3 26  1  0  0  0  0
  4  5  2  0  0  0  0
  4  6  1  0  0  0  0
  6  7  1  0  0  0  0
  6 27  1  0  0  0  0
  7  8  1  0  0  0  0
  7 28  1  0  0  0  0
  7 29  1  0  0  0  0
  8 19  1  0  0  0  0
  8  9  2  0  0  0  0
  9 10  1  0  0  0  0
  9 30  1  0  0  0  0
 10 11  2  0  0  0  0
 10 31  1  0  0  0  0
 11 12  1  0  0  0  0
 11 18  1  0  0  0  0
 12 17  1  0  0  0  0
 12 13  1  0  0  0  0
 13 14  1  0  0  0  0
 13 32  1  0  0  0  0
 13 33  1  0  0  0  0
 14 15  1  0  0  0  0
 14 34  1  0  0  0  0
 14 35  1  0  0  0  0
 15 16  1  0  0  0  0
 16 17  1  0  0  0  0
 16 36  1  0  0  0  0
 16 37  1  0  0  0  0
 17 38  1  0  0  0  0
 17 39  1  0  0  0  0
 18 19  2  0  0  0  0
 19 40  1  0  0  0  0
M  END
> <s_m_source_file>
AV-unprocessed.smi

> <i_m_source_file_index>
428

> <i_lp_mmshare_version>
43012

> <i_f3d_flags>
0

> <s_epik_input>
W0NIM11bQ0gyXVtDSDJdQyg9TylbTkhdW0NIMl1jMVtjSF1bY0hdYyhuW2NIXTEpTjJbQ0gyXVtDSDJdT1tDSDJdW0NIMl0y

> <s_epik_cmdline>
J2VwaWtfcHl0aG9uJywgJy1waCcsICc3LjAnLCAnLXRuJywgJzgnLCAnLW1hJywgJzIwMCcsICctbWV0YWxfYmluZGluZycsICctaW1hZScsICc8aW5maWxlLm1hZT4nLCAnLW9tYWUnLCAnPG91dGZpbGUubWFlPic=

> <r_lp_tautomer_probability>
1

> <r_epik_Ionization_Penalty>
0.00505548

> <r_epik_Ionization_Penalty_Charging>
0

> <r_epik_Ionization_Penalty_Neutral>
0.00505548

> <r_epik_State_Penalty>
0.00367784

> <r_epik_Charging_Adjusted_Penalty>
0.00367784

> <i_epik_Tot_Q>
0

> <i_epik_Tot_abs_Q>
0

> <r_epik_Metal_State_Penalty>
-0

> <b_epik_Metal_Only>
0

> <s_lp_Force_Field>
OPLS_2005

> <r_lp_Energy>
16.3878

> <b_lp_Chiralities_Consistent>
1

> <s_lp_Variant>
AV-unprocessed.smi:428-1

> <Gold.Version>
5.8.1

> <Gold.Id.Protein>
6NUR|6NUR_protein|mol2

> <Gold.PLP.Fitness>
37.8760

> <Gold.PLP.PLP>
-35.7285

> <Gold.PLP.part.hbond>
0.0000

> <Gold.PLP.part.metal>
0.0000

> <Gold.PLP.part.buried>
-6.8396

> <Gold.PLP.part.nonpolar>
-29.7394

> <Gold.PLP.part.repulsive>
0.4245

> <Gold.PLP.ligand.clash>
0.0000

> <Gold.PLP.ligand.torsion>
0.5932

> <Gold.PLP.Chemscore.Hbond>
0.0000

> <Gold.PLP.Chemscore.CHOScore>
1.0000

> <Gold.PLP.Chemscore.Metal>
0.0000

> <Gold.Chemscore.Hbonds>
donor molecule, donor type, donor heavy atom, donor atom, acceptor molecule, acceptor atom, score
      L1  C    19    40       P1 10175  0.15

> <Gold.PLP.Chemscore.Internal.Correction>
0.3339

> <Gold.Rescore>
     Score         DG    S(hbond)    S(metal)    S(lipo)     H(rot)  DE(clash)    DE(int)     intcor
     10.66     -11.24       0.00        0.00      86.29       1.69       0.04       0.55       ----

> <Gold.Chemscore.Fitness>
10.6586

> <Gold.Chemscore.DG>
-11.2425

> <Gold.Chemscore.ZeroCoef>
-5.4800

> <Gold.Chemscore.Hbond>
0.0000

> <Gold.Chemscore.Metal>
0.0000

> <Gold.Chemscore.Lipo>
86.2870

> <Gold.Chemscore.Internal_Hbond>
0.0000

> <Gold.Chemscore.DEClash>
0.0352

> <Gold.Chemscore.DEInternal>
0.5487

> <Gold.Chemscore.Rot>
1.6926

> <Gold.Chemscore.Internal.Correction>
   9.000000E+99

> <Gold.Chemscore.Hbond.Weighted>
-0.0000

> <Gold.Chemscore.Metal.Weighted>
-0.0000

> <Gold.Chemscore.Lipo.Weighted>
-10.0956

> <Gold.Chemscore.Internal_Hbond.Weighted>
0.0000

> <Gold.Chemscore.DEClash.Weighted>
0.0352

> <Gold.Chemscore.DEInternal.Weighted>
0.5487

> <Gold.Chemscore.Rot.Weighted>
4.3330

> <Gold.Chemscore.Internal.Correction.Weighted>
   9.000000E+99

> <Gold.Protein.RotatedTorsions>
[ 6907 6896 6895 6894 ] final -124.03 input  -60.11 | X-H torsion
[ 7974 7965 7964 7962 ] final -118.53 input  175.53 | X-H torsion
[ 8008 7997 7996 7995 ] final  -93.73 input   59.86 | X-H torsion
[ 10167 10162 10161 10158 ] final  -13.26 input  -65.29 | X-H torsion
[ 10718 10713 10712 10709 ] final -148.09 input   66.30 | X-H torsion
[ 10763 10752 10751 10750 ] final   96.18 input  -60.55 | X-H torsion
[ 11005 11000 10999 10996 ] final -137.64 input  -57.11 | X-H torsion

> <Gold.Protein.ActiveResidues>
 VAL166  LYS551  ARG553  GLY616  TRP617  ASP618  TYR619  PRO620  LYS621  CYS622 
 ASP623  PHE694  ASN695  SER759  ASP760  ASP761  ALA762  ILE779  LEU786  VAL792 
 PHE793  MET794  SER795  GLU796  ALA797  LYS798  CYS799  TRP800  GLU811  SER814 

> <Gold.Protein.RotatedAtoms>
  150.8728  133.7480  159.2955 H   0  0  0  0  0  0  0  0  0  0  0  0  # atno 6907 bound_to 6896
  151.5087  135.1063  159.9857 H   0  0  0  0  0  0  0  0  0  0  0  0  # atno 6908 bound_to 6896
  152.4707  133.7978  159.6992 H   0  0  0  0  0  0  0  0  0  0  0  0  # atno 6909 bound_to 6896
  145.0727  140.8371  143.4086 H   0  0  0  0  0  0  0  0  0  0  0  0  # atno 7974 bound_to 7965
  154.7394  140.0496  157.0797 H   0  0  0  0  0  0  0  0  0  0  0  0  # atno 8008 bound_to 7997
  155.0198  140.3145  155.4778 H   0  0  0  0  0  0  0  0  0  0  0  0  # atno 8009 bound_to 7997
  156.2861  140.2169  156.5316 H   0  0  0  0  0  0  0  0  0  0  0  0  # atno 8010 bound_to 7997
  140.7178  143.5445  150.9371 H   0  0  0  0  0  0  0  0  0  0  0  0  # atno 10167 bound_to 10162
  156.4159  130.8004  151.2225 H   0  0  0  0  0  0  0  0  0  0  0  0  # atno 10718 bound_to 10713
  153.2619  135.4228  155.0902 H   0  0  0  0  0  0  0  0  0  0  0  0  # atno 10763 bound_to 10752
  154.8423  135.3451  154.6366 H   0  0  0  0  0  0  0  0  0  0  0  0  # atno 10764 bound_to 10752
  153.6786  135.7040  153.5182 H   0  0  0  0  0  0  0  0  0  0  0  0  # atno 10765 bound_to 10752
  140.8692  134.2072  157.4661 H   0  0  0  0  0  0  0  0  0  0  0  0  # atno 11005 bound_to 11000
  145.1273  139.2655  143.5558 LP  0  0  0  0  0  0  0  0  0  0  0  0  # atno 17320 bound_to 7965
  146.3529  140.0913  142.8612 LP  0  0  0  0  0  0  0  0  0  0  0  0  # atno 17321 bound_to 7965
  139.9168  143.6654  152.3104 LP  0  0  0  0  0  0  0  0  0  0  0  0  # atno 17342 bound_to 10162
  139.7056  144.7628  151.1198 LP  0  0  0  0  0  0  0  0  0  0  0  0  # atno 17343 bound_to 10162
  157.7508  131.0243  150.3871 LP  0  0  0  0  0  0  0  0  0  0  0  0  # atno 17370 bound_to 10713
  156.4179  130.3947  149.6846 LP  0  0  0  0  0  0  0  0  0  0  0  0  # atno 17371 bound_to 10713
  139.8711  134.9766  156.4927 LP  0  0  0  0  0  0  0  0  0  0  0  0  # atno 17394 bound_to 11000
  140.8593  133.8072  155.9249 LP  0  0  0  0  0  0  0  0  0  0  0  0  # atno 17395 bound_to 11000

$$$$
