AV-unprocessed.smi:2385|AV-procd|sdf|9466|dock9
  -GOLD-   2272013 93D 1   1.00000     0.00000
 Structure written by MMmdl.
 50 52  0  0  0  0  0  0  0  0  2 V2000
  154.0542  142.0018  160.8249 C   0  0  0  0  0  0  0  0  0  0  0  0
  153.0516  142.1254  159.6966 C   0  0  0  0  0  0  0  0  0  0  0  0
  152.8189  143.3579  159.0572 C   0  0  0  0  0  0  0  0  0  0  0  0
  151.8752  143.4133  158.0132 C   0  0  0  0  0  0  0  0  0  0  0  0
  151.1874  142.2384  157.6341 C   0  0  0  0  0  0  0  0  0  0  0  0
  150.2595  142.4010  156.5708 N   0  0  0  0  0  0  0  0  0  0  0  0
  149.5418  141.4529  155.9427 C   0  0  0  0  0  0  0  0  0  0  0  0
  149.5577  140.2512  156.2102 O   0  0  0  0  0  0  0  0  0  0  0  0
  148.7881  141.9803  154.9664 N   0  0  0  0  0  0  0  0  0  0  0  0
  147.8792  141.2287  154.1006 C   0  0  2  0  0  0  0  0  0  0  0  0
  147.0745  142.1525  153.1656 C   0  0  0  0  0  0  0  0  0  0  0  0
  146.0296  142.9808  153.9333 C   0  0  0  0  0  0  0  0  0  0  0  0
  145.1121  142.1083  154.7124 N   0  3  2  0  0  0  0  0  0  0  0  0
  144.0104  142.8783  155.3493 C   0  0  0  0  0  0  0  0  0  0  0  0
  144.4107  144.3262  155.7025 C   0  0  1  0  0  0  0  0  0  0  0  0
  144.1728  145.3684  154.6124 C   0  0  0  0  0  0  0  0  0  0  0  0
  143.7242  146.6248  155.3669 C   0  0  0  0  0  0  0  0  0  0  0  0
  143.8237  146.2954  156.7445 O   0  0  0  0  0  0  0  0  0  0  0  0
  143.6019  144.9022  156.8633 C   0  0  0  0  0  0  0  0  0  0  0  0
  145.8629  141.2499  155.6673 C   0  0  0  0  0  0  0  0  0  0  0  0
  146.9095  140.3830  154.9428 C   0  0  0  0  0  0  0  0  0  0  0  0
  151.4193  141.0554  158.2559 N   0  0  0  0  0  0  0  0  0  0  0  0
  152.3234  141.0032  159.2564 C   0  0  0  0  0  0  0  0  0  0  0  0
  154.5465  142.9539  161.0246 H   0  0  0  0  0  0  0  0  0  0  0  0
  154.8201  141.2686  160.5705 H   0  0  0  0  0  0  0  0  0  0  0  0
  153.5559  141.6764  161.7385 H   0  0  0  0  0  0  0  0  0  0  0  0
  153.3522  144.2481  159.3575 H   0  0  0  0  0  0  0  0  0  0  0  0
  151.6850  144.3516  157.5123 H   0  0  0  0  0  0  0  0  0  0  0  0
  150.1321  143.3492  156.2499 H   0  0  0  0  0  0  0  0  0  0  0  0
  148.8331  142.9786  154.8232 H   0  0  0  0  0  0  0  0  0  0  0  0
  148.4816  140.5501  153.4935 H   0  0  0  0  0  0  0  0  0  0  0  0
  147.7394  142.8134  152.6084 H   0  0  0  0  0  0  0  0  0  0  0  0
  146.5645  141.5443  152.4173 H   0  0  0  0  0  0  0  0  0  0  0  0
  146.5213  143.6874  154.6039 H   0  0  0  0  0  0  0  0  0  0  0  0
  145.4576  143.5713  153.2167 H   0  0  0  0  0  0  0  0  0  0  0  0
  143.1084  142.8475  154.7360 H   0  0  0  0  0  0  0  0  0  0  0  0
  143.7443  142.3871  156.2864 H   0  0  0  0  0  0  0  0  0  0  0  0
  145.4622  144.3547  155.9938 H   0  0  0  0  0  0  0  0  0  0  0  0
  145.0792  145.5514  154.0346 H   0  0  0  0  0  0  0  0  0  0  0  0
  143.3898  145.0573  153.9196 H   0  0  0  0  0  0  0  0  0  0  0  0
  144.3387  147.4944  155.1326 H   0  0  0  0  0  0  0  0  0  0  0  0
  142.6879  146.8667  155.1276 H   0  0  0  0  0  0  0  0  0  0  0  0
  142.5372  144.6895  156.7525 H   0  0  0  0  0  0  0  0  0  0  0  0
  143.9298  144.5267  157.8330 H   0  0  0  0  0  0  0  0  0  0  0  0
  146.3457  141.8759  156.4193 H   0  0  0  0  0  0  0  0  0  0  0  0
  145.1824  140.5910  156.2019 H   0  0  0  0  0  0  0  0  0  0  0  0
  146.3941  139.6757  154.2912 H   0  0  0  0  0  0  0  0  0  0  0  0
  147.4620  139.7803  155.6648 H   0  0  0  0  0  0  0  0  0  0  0  0
  152.4696  140.0375  159.7177 H   0  0  0  0  0  0  0  0  0  0  0  0
  144.6773  141.4936  154.0391 H   0  0  0  0  0  0  0  0  0  0  0  0
  1  2  1  0  0  0  0
  1 24  1  0  0  0  0
  1 25  1  0  0  0  0
  1 26  1  0  0  0  0
  2 23  1  0  0  0  0
  2  3  2  0  0  0  0
  3  4  1  0  0  0  0
  3 27  1  0  0  0  0
  4  5  2  0  0  0  0
  4 28  1  0  0  0  0
  5  6  1  0  0  0  0
  5 22  1  0  0  0  0
  6  7  1  0  0  0  0
  6 29  1  0  0  0  0
  7  8  2  0  0  0  0
  7  9  1  0  0  0  0
  9 10  1  0  0  0  0
  9 30  1  0  0  0  0
 10 21  1  0  0  0  0
 10 11  1  0  0  0  0
 10 31  1  0  0  0  0
 11 12  1  0  0  0  0
 11 32  1  0  0  0  0
 11 33  1  0  0  0  0
 12 13  1  0  0  0  0
 12 34  1  0  0  0  0
 12 35  1  0  0  0  0
 13 14  1  0  0  0  0
 13 20  1  0  0  0  0
 13 50  1  0  0  0  0
 14 15  1  0  0  0  0
 14 36  1  0  0  0  0
 14 37  1  0  0  0  0
 15 19  1  0  0  0  0
 15 16  1  0  0  0  0
 15 38  1  0  0  0  0
 16 17  1  0  0  0  0
 16 39  1  0  0  0  0
 16 40  1  0  0  0  0
 17 18  1  0  0  0  0
 17 41  1  0  0  0  0
 17 42  1  0  0  0  0
 18 19  1  0  0  0  0
 19 43  1  0  0  0  0
 19 44  1  0  0  0  0
 20 21  1  0  0  0  0
 20 45  1  0  0  0  0
 20 46  1  0  0  0  0
 21 47  1  0  0  0  0
 21 48  1  0  0  0  0
 22 23  2  0  0  0  0
 23 49  1  0  0  0  0
M  CHG  1  13   1
M  END
> <s_m_source_file>
AV-unprocessed.smi

> <i_m_source_file_index>
2385

> <i_lp_mmshare_version>
43012

> <i_f3d_flags>
0

> <s_epik_input>
W0NIM11jMVtjSF1bY0hdYyhuW2NIXTEpW05IXUMoPU8pW05IXVtDSF0yW0NIMl1bQ0gyXU4oW0NIMl1bQ0gyXTIpW0NIMl1bQ0BASF0zW0NIMl1bQ0gyXU9bQ0gyXTM=

> <s_epik_cmdline>
J2VwaWtfcHl0aG9uJywgJy1waCcsICc3LjAnLCAnLXRuJywgJzgnLCAnLW1hJywgJzIwMCcsICctbWV0YWxfYmluZGluZycsICctaW1hZScsICc8aW5maWxlLm1hZT4nLCAnLW9tYWUnLCAnPG91dGZpbGUubWFlPic=

> <r_epik_Ionization_Penalty>
0.00752367

> <r_epik_Ionization_Penalty_Charging>
0.00747775

> <r_epik_Ionization_Penalty_Neutral>
4.59207e-05

> <r_epik_State_Penalty>
0.00558817

> <r_epik_Charging_Adjusted_Penalty>
0.0130659

> <i_epik_Tot_Q>
1

> <i_epik_Tot_abs_Q>
1

> <r_epik_Metal_State_Penalty>
-0

> <b_epik_Metal_Only>
0

> <s_lp_Force_Field>
OPLS_2005

> <r_lp_Energy>
36.5339

> <b_lp_Chiralities_Consistent>
1

> <s_lp_Variant>
AV-unprocessed.smi:2385-4

> <Gold.Version>
5.8.1

> <Gold.Id.Protein>
6NUR|6NUR_protein|mol2

> <Gold.PLP.Fitness>
51.9393

> <Gold.PLP.PLP>
-41.5679

> <Gold.PLP.part.hbond>
-3.0000

> <Gold.PLP.part.metal>
0.0000

> <Gold.PLP.part.buried>
-7.8669

> <Gold.PLP.part.nonpolar>
-32.0403

> <Gold.PLP.part.repulsive>
0.2685

> <Gold.PLP.ligand.clash>
0.0103

> <Gold.PLP.ligand.torsion>
0.8198

> <Gold.PLP.Chemscore.Hbond>
4.0000

> <Gold.PLP.Chemscore.CHOScore>
0.0000

> <Gold.PLP.Chemscore.Metal>
0.0000

> <Gold.Chemscore.Hbonds>
donor molecule, donor type, donor heavy atom, donor atom, acceptor molecule, acceptor atom, score
      L1  H     6    29       P1  8028  0.96
      L1  H     9    30       P1  8028  0.94
      L1  H    13    50       P1 10175  1.72

> <Gold.PLP.Chemscore.Internal.Correction>
0.0213

> <Gold.Rescore>
     Score         DG    S(hbond)    S(metal)    S(lipo)     H(rot)  DE(clash)    DE(int)     intcor
     18.38     -22.76       2.63        0.00     103.42       1.41       1.30       3.08       ----

> <Gold.Chemscore.Fitness>
18.3823

> <Gold.Chemscore.DG>
-22.7595

> <Gold.Chemscore.ZeroCoef>
-5.4800

> <Gold.Chemscore.Hbond>
2.6281

> <Gold.Chemscore.Metal>
0.0000

> <Gold.Chemscore.Lipo>
103.4173

> <Gold.Chemscore.Internal_Hbond>
0.0000

> <Gold.Chemscore.DEClash>
1.3015

> <Gold.Chemscore.DEInternal>
3.0757

> <Gold.Chemscore.Rot>
1.4056

> <Gold.Chemscore.Internal.Correction>
   9.000000E+99

> <Gold.Chemscore.Hbonds>
donor molecule, donor type, donor heavy atom, donor atom, acceptor molecule, acceptor atom, score
      L1  H     6    29       P1  8028  0.91
      L1  H     9    30       P1  8028  0.91
      L1  H    13    50       P1 10175  0.25

> <Gold.Chemscore.Hbond.Weighted>
-8.7779

> <Gold.Chemscore.Metal.Weighted>
-0.0000

> <Gold.Chemscore.Lipo.Weighted>
-12.0998

> <Gold.Chemscore.Internal_Hbond.Weighted>
0.0000

> <Gold.Chemscore.DEClash.Weighted>
1.3015

> <Gold.Chemscore.DEInternal.Weighted>
3.0757

> <Gold.Chemscore.Rot.Weighted>
3.5982

> <Gold.Chemscore.Internal.Correction.Weighted>
   9.000000E+99

> <Gold.Protein.RotatedTorsions>
[ 6907 6896 6895 6894 ] final  -28.16 input  -60.11 | X-H torsion
[ 7974 7965 7964 7962 ] final   23.37 input  175.53 | X-H torsion
[ 8008 7997 7996 7995 ] final  -78.80 input   59.86 | X-H torsion
[ 10167 10162 10161 10158 ] final  -76.30 input  -65.29 | X-H torsion
[ 10718 10713 10712 10709 ] final -154.73 input   66.30 | X-H torsion
[ 10763 10752 10751 10750 ] final   21.08 input  -60.55 | X-H torsion
[ 11005 11000 10999 10996 ] final  141.06 input  -57.11 | X-H torsion

> <Gold.Protein.ActiveResidues>
 VAL166  LYS551  ARG553  GLY616  TRP617  ASP618  TYR619  PRO620  LYS621  CYS622 
 ASP623  PHE694  ASN695  SER759  ASP760  ASP761  ALA762  ILE779  LEU786  VAL792 
 PHE793  MET794  SER795  GLU796  ALA797  LYS798  CYS799  TRP800  GLU811  SER814 

> <Gold.Protein.RotatedAtoms>
  151.1368  135.0159  159.8607 H   0  0  0  0  0  0  0  0  0  0  0  0  # atno 6907 bound_to 6896
  152.5452  134.1546  159.8542 H   0  0  0  0  0  0  0  0  0  0  0  0  # atno 6908 bound_to 6896
  151.1618  133.4795  159.2627 H   0  0  0  0  0  0  0  0  0  0  0  0  # atno 6909 bound_to 6896
  146.1987  139.7754  142.8777 H   0  0  0  0  0  0  0  0  0  0  0  0  # atno 7974 bound_to 7965
  154.5724  140.0688  156.8984 H   0  0  0  0  0  0  0  0  0  0  0  0  # atno 8008 bound_to 7997
  155.2611  140.3358  155.4255 H   0  0  0  0  0  0  0  0  0  0  0  0  # atno 8009 bound_to 7997
  156.2128  140.1766  156.7642 H   0  0  0  0  0  0  0  0  0  0  0  0  # atno 8010 bound_to 7997
  140.4869  143.2389  151.7969 H   0  0  0  0  0  0  0  0  0  0  0  0  # atno 10167 bound_to 10162
  156.5032  130.8401  151.2617 H   0  0  0  0  0  0  0  0  0  0  0  0  # atno 10718 bound_to 10713
  153.1025  135.6676  153.9647 H   0  0  0  0  0  0  0  0  0  0  0  0  # atno 10763 bound_to 10752
  153.9214  135.3014  155.3449 H   0  0  0  0  0  0  0  0  0  0  0  0  # atno 10764 bound_to 10752
  154.7446  135.5064  153.9256 H   0  0  0  0  0  0  0  0  0  0  0  0  # atno 10765 bound_to 10752
  140.0373  134.9322  157.0777 H   0  0  0  0  0  0  0  0  0  0  0  0  # atno 11005 bound_to 11000
  145.3556  141.0316  143.3314 LP  0  0  0  0  0  0  0  0  0  0  0  0  # atno 17320 bound_to 7965
  144.8636  139.5140  143.6800 LP  0  0  0  0  0  0  0  0  0  0  0  0  # atno 17321 bound_to 7965
  139.4843  144.4700  151.9437 LP  0  0  0  0  0  0  0  0  0  0  0  0  # atno 17342 bound_to 10162
  140.3786  144.2765  150.5911 LP  0  0  0  0  0  0  0  0  0  0  0  0  # atno 17343 bound_to 10162
  157.7460  130.9974  150.2816 LP  0  0  0  0  0  0  0  0  0  0  0  0  # atno 17370 bound_to 10713
  156.3312  130.3800  149.7489 LP  0  0  0  0  0  0  0  0  0  0  0  0  # atno 17371 bound_to 10713
  140.4126  134.1965  155.7163 LP  0  0  0  0  0  0  0  0  0  0  0  0  # atno 17394 bound_to 11000
  141.1864  133.8302  157.1069 LP  0  0  0  0  0  0  0  0  0  0  0  0  # atno 17395 bound_to 11000

$$$$
