AV-unprocessed.smi:240|AV-procd|sdf|1826|dock10
  -GOLD-   2262020423D 1   1.00000     0.00000
 Structure written by MMmdl.
 55 59  0  0  0  0  0  0  0  0  1 V2000
  148.0591  142.5487  157.3327 O   0  0  0  0  0  0  0  0  0  0  0  0
  149.1375  142.3183  158.2157 C   0  0  2  0  0  0  0  0  0  0  0  0
  149.5754  143.6522  158.8497 C   0  0  0  0  0  0  0  0  0  0  0  0
  151.1042  143.6574  158.8003 C   0  0  0  0  0  0  0  0  0  0  0  0
  151.4316  142.8642  157.5378 C   0  0  0  0  0  0  0  0  0  0  0  0
  150.4076  141.7214  157.5541 C   0  0  2  0  0  0  0  0  0  0  0  0
  150.2722  140.8971  156.2334 C   0  0  2  0  0  0  0  0  0  0  0  0
  149.7735  141.7185  155.0150 C   0  0  0  0  0  0  0  0  0  0  0  0
  149.7024  140.8947  153.8569 O   0  0  0  0  0  0  0  0  0  0  0  0
  148.7889  139.8196  154.0245 C   0  0  0  0  0  0  0  0  0  0  0  0
  149.2893  138.9197  155.1608 C   0  0  0  0  0  0  0  0  0  0  0  0
  149.4441  139.6921  156.3876 N   0  0  0  0  0  0  0  0  0  0  0  0
  149.7152  138.8779  157.4325 C   0  0  0  0  0  0  0  0  0  0  0  0
  150.9410  138.9966  157.9986 N   0  0  0  0  0  0  0  0  0  0  0  0
  151.2743  138.2245  159.0370 C   0  0  0  0  0  0  0  0  0  0  0  0
  150.5435  137.2935  159.6538 N   0  0  0  0  0  0  0  0  0  0  0  0
  149.3066  137.1775  159.0902 C   0  0  0  0  0  0  0  0  0  0  0  0
  148.8103  137.9292  157.9883 C   0  0  0  0  0  0  0  0  0  0  0  0
  147.5046  137.5473  157.7051 N   0  0  0  0  0  0  0  0  0  0  0  0
  147.2465  136.6185  158.5845 C   0  0  0  0  0  0  0  0  0  0  0  0
  148.2764  136.3260  159.4500 N   0  0  0  0  0  0  0  0  0  0  0  0
  148.2639  135.3422  160.5222 C   0  0  0  0  0  0  0  0  0  0  0  0
  147.3732  135.7422  161.7222 C   0  0  1  0  0  0  0  0  0  0  0  0
  147.9285  136.8831  162.3533 O   0  0  0  0  0  0  0  0  0  0  0  0
  145.9429  136.0696  161.3135 C   0  0  0  0  0  0  0  0  0  0  0  0
  145.1486  135.7206  162.5646 C   0  0  0  0  0  0  0  0  0  0  0  0
  145.7832  134.5398  163.0255 O   0  0  0  0  0  0  0  0  0  0  0  0
  147.1842  134.6402  162.7850 C   0  0  0  0  0  0  0  0  0  0  0  0
  147.4902  141.7939  157.3536 H   0  0  0  0  0  0  0  0  0  0  0  0
  148.7850  141.6370  158.9912 H   0  0  0  0  0  0  0  0  0  0  0  0
  149.2049  144.4944  158.2626 H   0  0  0  0  0  0  0  0  0  0  0  0
  149.1945  143.7742  159.8641 H   0  0  0  0  0  0  0  0  0  0  0  0
  151.5200  144.6651  158.7830 H   0  0  0  0  0  0  0  0  0  0  0  0
  151.5056  143.1443  159.6753 H   0  0  0  0  0  0  0  0  0  0  0  0
  151.2915  143.5135  156.6748 H   0  0  0  0  0  0  0  0  0  0  0  0
  152.4608  142.5043  157.5252 H   0  0  0  0  0  0  0  0  0  0  0  0
  150.8087  141.0321  158.2987 H   0  0  0  0  0  0  0  0  0  0  0  0
  151.2751  140.5624  155.9680 H   0  0  0  0  0  0  0  0  0  0  0  0
  148.8003  142.1750  155.1898 H   0  0  0  0  0  0  0  0  0  0  0  0
  150.4645  142.5280  154.7860 H   0  0  0  0  0  0  0  0  0  0  0  0
  147.7876  140.1993  154.2348 H   0  0  0  0  0  0  0  0  0  0  0  0
  148.7296  139.2538  153.0949 H   0  0  0  0  0  0  0  0  0  0  0  0
  148.5855  138.1011  155.3185 H   0  0  0  0  0  0  0  0  0  0  0  0
  150.2465  138.4734  154.8864 H   0  0  0  0  0  0  0  0  0  0  0  0
  152.2690  138.3738  159.4301 H   0  0  0  0  0  0  0  0  0  0  0  0
  146.2897  136.1188  158.6247 H   0  0  0  0  0  0  0  0  0  0  0  0
  147.9325  134.3886  160.1090 H   0  0  0  0  0  0  0  0  0  0  0  0
  149.2922  135.1902  160.8529 H   0  0  0  0  0  0  0  0  0  0  0  0
  148.3247  136.6130  163.1675 H   0  0  0  0  0  0  0  0  0  0  0  0
  145.8031  137.1019  160.9892 H   0  0  0  0  0  0  0  0  0  0  0  0
  145.6237  135.4198  160.4972 H   0  0  0  0  0  0  0  0  0  0  0  0
  145.2394  136.5044  163.3181 H   0  0  0  0  0  0  0  0  0  0  0  0
  144.0901  135.5562  162.3622 H   0  0  0  0  0  0  0  0  0  0  0  0
  147.5314  133.6679  162.4369 H   0  0  0  0  0  0  0  0  0  0  0  0
  147.7137  134.8629  163.7125 H   0  0  0  0  0  0  0  0  0  0  0  0
  1  2  1  0  0  0  0
  1 29  1  0  0  0  0
  2  6  1  0  0  0  0
  2  3  1  0  0  0  0
  2 30  1  0  0  0  0
  3  4  1  0  0  0  0
  3 31  1  0  0  0  0
  3 32  1  0  0  0  0
  4  5  1  0  0  0  0
  4 33  1  0  0  0  0
  4 34  1  0  0  0  0
  5  6  1  0  0  0  0
  5 35  1  0  0  0  0
  5 36  1  0  0  0  0
  6  7  1  0  0  0  0
  6 37  1  0  0  0  0
  7 12  1  0  0  0  0
  7  8  1  0  0  0  0
  7 38  1  0  0  0  0
  8  9  1  0  0  0  0
  8 39  1  0  0  0  0
  8 40  1  0  0  0  0
  9 10  1  0  0  0  0
 10 11  1  0  0  0  0
 10 41  1  0  0  0  0
 10 42  1  0  0  0  0
 11 12  1  0  0  0  0
 11 43  1  0  0  0  0
 11 44  1  0  0  0  0
 12 13  1  0  0  0  0
 13 18  1  0  0  0  0
 13 14  2  0  0  0  0
 14 15  1  0  0  0  0
 15 16  2  0  0  0  0
 15 45  1  0  0  0  0
 16 17  1  0  0  0  0
 17 21  1  0  0  0  0
 17 18  2  0  0  0  0
 18 19  1  0  0  0  0
 19 20  2  0  0  0  0
 20 21  1  0  0  0  0
 20 46  1  0  0  0  0
 21 22  1  0  0  0  0
 22 23  1  0  0  0  0
 22 47  1  0  0  0  0
 22 48  1  0  0  0  0
 23 28  1  0  0  0  0
 23 24  1  0  0  0  0
 23 25  1  0  0  0  0
 24 49  1  0  0  0  0
 25 26  1  0  0  0  0
 25 50  1  0  0  0  0
 25 51  1  0  0  0  0
 26 27  1  0  0  0  0
 26 52  1  0  0  0  0
 26 53  1  0  0  0  0
 27 28  1  0  0  0  0
 28 54  1  0  0  0  0
 28 55  1  0  0  0  0
M  END
> <s_m_source_file>
AV-unprocessed.smi

> <i_m_source_file_index>
240

> <i_lp_mmshare_version>
43012

> <i_f3d_flags>
0

> <s_epik_input>
W09IXVtDQEBIXTFbQ0gyXVtDSDJdW0NIMl1bQ0BIXTFbQ0BASF0yW0NIMl1PW0NIMl1bQ0gyXU4yYyhuW2NIXW4zKWMoYzM0KW5bY0hdbjRbQ0gyXVtDQEBdNShbT0hdKVtDSDJdW0NIMl1PW0NIMl01

> <s_epik_cmdline>
J2VwaWtfcHl0aG9uJywgJy1waCcsICc3LjAnLCAnLXRuJywgJzgnLCAnLW1hJywgJzIwMCcsICctbWV0YWxfYmluZGluZycsICctaW1hZScsICc8aW5maWxlLm1hZT4nLCAnLW9tYWUnLCAnPG91dGZpbGUubWFlPic=

> <r_lp_tautomer_probability>
1

> <r_epik_Ionization_Penalty>
0.000130618

> <r_epik_Ionization_Penalty_Charging>
0

> <r_epik_Ionization_Penalty_Neutral>
0.000130618

> <r_epik_State_Penalty>
-0

> <r_epik_Charging_Adjusted_Penalty>
0

> <i_epik_Tot_Q>
0

> <i_epik_Tot_abs_Q>
0

> <r_epik_Metal_State_Penalty>
-0

> <b_epik_Metal_Only>
0

> <s_lp_Force_Field>
OPLS_2005

> <r_lp_Energy>
64.3211

> <b_lp_Chiralities_Consistent>
1

> <s_lp_Variant>
AV-unprocessed.smi:240-3

> <Gold.Version>
5.8.1

> <Gold.Id.Protein>
6NUR|6NUR_protein|mol2

> <Gold.PLP.Fitness>
46.2512

> <Gold.PLP.PLP>
-39.4739

> <Gold.PLP.part.hbond>
-5.4399

> <Gold.PLP.part.metal>
0.0000

> <Gold.PLP.part.buried>
-5.6379

> <Gold.PLP.part.nonpolar>
-29.5033

> <Gold.PLP.part.repulsive>
1.6833

> <Gold.PLP.ligand.clash>
0.0000

> <Gold.PLP.ligand.torsion>
0.5118

> <Gold.PLP.Chemscore.Hbond>
2.5201

> <Gold.PLP.Chemscore.CHOScore>
0.0000

> <Gold.PLP.Chemscore.Metal>
0.0000

> <Gold.Chemscore.Hbonds>
donor molecule, donor type, donor heavy atom, donor atom, acceptor molecule, acceptor atom, score
      P1  H  6896  6907       L1    16  0.34
      P1  H  6931  6943       L1    24  0.95
      P1  H  7989  7998       L1     9  0.38
      P1  H  8011  8017       L1     9  0.66

> <Gold.PLP.Chemscore.Internal.Correction>
0.2406

> <Gold.Rescore>
     Score         DG    S(hbond)    S(metal)    S(lipo)     H(rot)  DE(clash)    DE(int)     intcor
     12.14     -15.63       2.01        0.00      95.03       3.00       0.58       2.91       ----

> <Gold.Chemscore.Fitness>
12.1360

> <Gold.Chemscore.DG>
-15.6252

> <Gold.Chemscore.ZeroCoef>
-5.4800

> <Gold.Chemscore.Hbond>
2.0111

> <Gold.Chemscore.Metal>
0.0000

> <Gold.Chemscore.Lipo>
95.0268

> <Gold.Chemscore.Internal_Hbond>
0.0000

> <Gold.Chemscore.DEClash>
0.5793

> <Gold.Chemscore.DEInternal>
2.9099

> <Gold.Chemscore.Rot>
3.0039

> <Gold.Chemscore.Internal.Correction>
   9.000000E+99

> <Gold.Chemscore.Hbonds>
donor molecule, donor type, donor heavy atom, donor atom, acceptor molecule, acceptor atom, score
      P1  H  6896  6907       L1    16  0.11
      P1  H  6931  6943       L1    24  0.21
      P1  H  7989  7998       L1     9  0.06
      P1  H  8011  8017       L1     9  0.16

> <Gold.Chemscore.Hbond.Weighted>
-6.7169

> <Gold.Chemscore.Metal.Weighted>
-0.0000

> <Gold.Chemscore.Lipo.Weighted>
-11.1181

> <Gold.Chemscore.Internal_Hbond.Weighted>
0.0000

> <Gold.Chemscore.DEClash.Weighted>
0.5793

> <Gold.Chemscore.DEInternal.Weighted>
2.9099

> <Gold.Chemscore.Rot.Weighted>
7.6899

> <Gold.Chemscore.Internal.Correction.Weighted>
   9.000000E+99

> <Gold.Protein.RotatedTorsions>
[ 6907 6896 6895 6894 ] final  -27.84 input  -60.11 | X-H torsion
[ 7974 7965 7964 7962 ] final -162.08 input  175.53 | X-H torsion
[ 8008 7997 7996 7995 ] final  -34.42 input   59.86 | X-H torsion
[ 10167 10162 10161 10158 ] final  -74.76 input  -65.29 | X-H torsion
[ 10718 10713 10712 10709 ] final    4.79 input   66.30 | X-H torsion
[ 10763 10752 10751 10750 ] final  133.93 input  -60.55 | X-H torsion
[ 11005 11000 10999 10996 ] final  -76.98 input  -57.11 | X-H torsion

> <Gold.Protein.ActiveResidues>
 VAL166  LYS551  ARG553  GLY616  TRP617  ASP618  TYR619  PRO620  LYS621  CYS622 
 ASP623  PHE694  ASN695  SER759  ASP760  ASP761  ALA762  ILE779  LEU786  VAL792 
 PHE793  MET794  SER795  GLU796  ALA797  LYS798  CYS799  TRP800  GLU811  SER814 

> <Gold.Protein.RotatedAtoms>
  151.1413  135.0181  159.8626 H   0  0  0  0  0  0  0  0  0  0  0  0  # atno 6907 bound_to 6896
  152.5452  134.1495  159.8523 H   0  0  0  0  0  0  0  0  0  0  0  0  # atno 6908 bound_to 6896
  151.1571  133.4823  159.2627 H   0  0  0  0  0  0  0  0  0  0  0  0  # atno 6909 bound_to 6896
  144.7369  140.3304  143.6154 H   0  0  0  0  0  0  0  0  0  0  0  0  # atno 7974 bound_to 7965
  154.4121  140.1684  156.2046 H   0  0  0  0  0  0  0  0  0  0  0  0  # atno 8008 bound_to 7997
  155.9495  140.3402  155.6372 H   0  0  0  0  0  0  0  0  0  0  0  0  # atno 8009 bound_to 7997
  155.6888  140.0731  157.2447 H   0  0  0  0  0  0  0  0  0  0  0  0  # atno 8010 bound_to 7997
  140.5000  143.2363  151.7768 H   0  0  0  0  0  0  0  0  0  0  0  0  # atno 10167 bound_to 10162
  156.8978  130.5711  149.5648 H   0  0  0  0  0  0  0  0  0  0  0  0  # atno 10718 bound_to 10713
  153.8152  135.3123  155.3405 H   0  0  0  0  0  0  0  0  0  0  0  0  # atno 10763 bound_to 10752
  154.8035  135.4712  154.0337 H   0  0  0  0  0  0  0  0  0  0  0  0  # atno 10764 bound_to 10752
  153.1728  135.6880  153.8673 H   0  0  0  0  0  0  0  0  0  0  0  0  # atno 10765 bound_to 10752
  141.1657  133.7004  156.7751 H   0  0  0  0  0  0  0  0  0  0  0  0  # atno 11005 bound_to 11000
  145.7477  139.1784  143.2339 LP  0  0  0  0  0  0  0  0  0  0  0  0  # atno 17320 bound_to 7965
  146.1085  140.7457  142.9515 LP  0  0  0  0  0  0  0  0  0  0  0  0  # atno 17321 bound_to 7965
  139.4870  144.4535  151.9626 LP  0  0  0  0  0  0  0  0  0  0  0  0  # atno 17342 bound_to 10162
  140.3624  144.2957  150.5931 LP  0  0  0  0  0  0  0  0  0  0  0  0  # atno 17343 bound_to 10162
  156.0597  130.5652  150.9166 LP  0  0  0  0  0  0  0  0  0  0  0  0  # atno 17370 bound_to 10713
  157.6044  131.0939  150.8904 LP  0  0  0  0  0  0  0  0  0  0  0  0  # atno 17371 bound_to 10713
  140.2436  134.8595  157.3598 LP  0  0  0  0  0  0  0  0  0  0  0  0  # atno 17394 bound_to 11000
  140.1772  134.4535  155.7794 LP  0  0  0  0  0  0  0  0  0  0  0  0  # atno 17395 bound_to 11000

$$$$
