AV-unprocessed.smi:1605|AV-procd|sdf|6451|dock9
  -GOLD-   22720 7103D 1   1.00000     0.00000
 Structure written by MMmdl.
 51 53  0  0  0  0  0  0  0  0  2 V2000
  145.2541  131.5929  152.0164 C   0  0  0  0  0  0  0  0  0  0  0  0
  146.6085  132.0066  151.9181 O   0  0  0  0  0  0  0  0  0  0  0  0
  147.1414  132.5564  153.1155 C   0  0  2  0  0  0  0  0  0  0  0  0
  146.7095  134.0227  153.2995 C   0  0  0  0  0  0  0  0  0  0  0  0
  147.4106  134.6560  154.5124 C   0  0  0  0  0  0  0  0  0  0  0  0
  148.8903  134.5630  154.3903 N   0  3  1  0  0  0  0  0  0  0  0  0
  149.6093  135.2662  155.4829 C   0  0  0  0  0  0  0  0  0  0  0  0
  150.1430  136.6477  155.0430 C   0  0  2  0  0  0  0  0  0  0  0  0
  151.2200  136.4559  154.1483 O   0  0  0  0  0  0  0  0  0  0  0  0
  150.6481  137.5136  156.2132 C   0  0  0  0  0  0  0  0  0  0  0  0
  150.5772  138.9336  155.9205 N   0  0  0  0  0  0  0  0  0  0  0  0
  150.0703  139.5050  154.8111 C   0  0  0  0  0  0  0  0  0  0  0  0
  150.0931  140.8327  154.7458 N   0  0  0  0  0  0  0  0  0  0  0  0
  150.6921  141.1619  155.9496 C   0  0  0  0  0  0  0  0  0  0  0  0
  151.0117  142.4221  156.5003 C   0  0  0  0  0  0  0  0  0  0  0  0
  151.6272  142.5239  157.7683 C   0  0  0  0  0  0  0  0  0  0  0  0
  151.9569  143.8997  158.3202 C   0  0  0  0  0  0  0  0  0  0  0  0
  151.9293  141.3522  158.5078 C   0  0  0  0  0  0  0  0  0  0  0  0
  152.5880  141.4378  159.8732 C   0  0  0  0  0  0  0  0  0  0  0  0
  151.6177  140.0849  157.9719 C   0  0  0  0  0  0  0  0  0  0  0  0
  151.0078  139.9965  156.7079 C   0  0  0  0  0  0  0  0  0  0  0  0
  149.3360  133.1540  154.2376 C   0  0  0  0  0  0  0  0  0  0  0  0
  148.6726  132.4902  153.0195 C   0  0  0  0  0  0  0  0  0  0  0  0
  144.9417  131.1502  151.0708 H   0  0  0  0  0  0  0  0  0  0  0  0
  144.5869  132.4290  152.2244 H   0  0  0  0  0  0  0  0  0  0  0  0
  145.1263  130.8398  152.7947 H   0  0  0  0  0  0  0  0  0  0  0  0
  146.8215  131.9617  153.9735 H   0  0  0  0  0  0  0  0  0  0  0  0
  146.9479  134.5933  152.4007 H   0  0  0  0  0  0  0  0  0  0  0  0
  145.6304  134.0928  153.4339 H   0  0  0  0  0  0  0  0  0  0  0  0
  147.0992  135.6965  154.5957 H   0  0  0  0  0  0  0  0  0  0  0  0
  147.0887  134.1589  155.4290 H   0  0  0  0  0  0  0  0  0  0  0  0
  148.9356  135.3532  156.3357 H   0  0  0  0  0  0  0  0  0  0  0  0
  150.4519  134.6647  155.8279 H   0  0  0  0  0  0  0  0  0  0  0  0
  149.3696  137.2057  154.5156 H   0  0  0  0  0  0  0  0  0  0  0  0
  150.9873  136.8225  153.3083 H   0  0  0  0  0  0  0  0  0  0  0  0
  150.0722  137.3130  157.1175 H   0  0  0  0  0  0  0  0  0  0  0  0
  151.6858  137.2683  156.4448 H   0  0  0  0  0  0  0  0  0  0  0  0
  149.6559  138.9126  154.0083 H   0  0  0  0  0  0  0  0  0  0  0  0
  150.7801  143.3146  155.9377 H   0  0  0  0  0  0  0  0  0  0  0  0
  153.0201  143.9764  158.5492 H   0  0  0  0  0  0  0  0  0  0  0  0
  151.3904  144.0916  159.2318 H   0  0  0  0  0  0  0  0  0  0  0  0
  151.7141  144.6844  157.6032 H   0  0  0  0  0  0  0  0  0  0  0  0
  152.7067  140.4510  160.3207 H   0  0  0  0  0  0  0  0  0  0  0  0
  151.9861  142.0418  160.5525 H   0  0  0  0  0  0  0  0  0  0  0  0
  153.5767  141.8898  159.7916 H   0  0  0  0  0  0  0  0  0  0  0  0
  151.8442  139.1856  158.5250 H   0  0  0  0  0  0  0  0  0  0  0  0
  150.4191  133.1218  154.1136 H   0  0  0  0  0  0  0  0  0  0  0  0
  149.1029  132.5963  155.1462 H   0  0  0  0  0  0  0  0  0  0  0  0
  148.9958  131.4516  152.9422 H   0  0  0  0  0  0  0  0  0  0  0  0
  149.0070  132.9866  152.1072 H   0  0  0  0  0  0  0  0  0  0  0  0
  149.1484  135.0342  153.5344 H   0  0  0  0  0  0  0  0  0  0  0  0
  1  2  1  0  0  0  0
  1 24  1  0  0  0  0
  1 25  1  0  0  0  0
  1 26  1  0  0  0  0
  2  3  1  0  0  0  0
  3 23  1  0  0  0  0
  3  4  1  0  0  0  0
  3 27  1  0  0  0  0
  4  5  1  0  0  0  0
  4 28  1  0  0  0  0
  4 29  1  0  0  0  0
  5  6  1  0  0  0  0
  5 30  1  0  0  0  0
  5 31  1  0  0  0  0
  6  7  1  0  0  0  0
  6 22  1  0  0  0  0
  6 51  1  0  0  0  0
  7  8  1  0  0  0  0
  7 32  1  0  0  0  0
  7 33  1  0  0  0  0
  8  9  1  0  0  0  0
  8 10  1  0  0  0  0
  8 34  1  0  0  0  0
  9 35  1  0  0  0  0
 10 11  1  0  0  0  0
 10 36  1  0  0  0  0
 10 37  1  0  0  0  0
 11 21  1  0  0  0  0
 11 12  1  0  0  0  0
 12 13  2  0  0  0  0
 12 38  1  0  0  0  0
 13 14  1  0  0  0  0
 14 21  2  0  0  0  0
 14 15  1  0  0  0  0
 15 16  2  0  0  0  0
 15 39  1  0  0  0  0
 16 17  1  0  0  0  0
 16 18  1  0  0  0  0
 17 40  1  0  0  0  0
 17 41  1  0  0  0  0
 17 42  1  0  0  0  0
 18 19  1  0  0  0  0
 18 20  2  0  0  0  0
 19 43  1  0  0  0  0
 19 44  1  0  0  0  0
 19 45  1  0  0  0  0
 20 21  1  0  0  0  0
 20 46  1  0  0  0  0
 22 23  1  0  0  0  0
 22 47  1  0  0  0  0
 22 48  1  0  0  0  0
 23 49  1  0  0  0  0
 23 50  1  0  0  0  0
M  CHG  1   6   1
M  END
> <s_m_source_file>
AV-unprocessed.smi

> <i_m_source_file_index>
1605

> <i_lp_mmshare_version>
43012

> <i_f3d_flags>
0

> <s_epik_input>
W0NIM11PW0NIXTFbQ0gyXVtDSDJdTihbQ0gyXVtDSDJdMSlbQ0gyXVtDQEhdKFtPSF0pW0NIMl1uKFtjSF1uMiljKGMyMylbY0hdYyhbQ0gzXSljKFtjSF0zKVtDSDNd

> <s_epik_cmdline>
J2VwaWtfcHl0aG9uJywgJy1waCcsICc3LjAnLCAnLXRuJywgJzgnLCAnLW1hJywgJzIwMCcsICctbWV0YWxfYmluZGluZycsICctaW1hZScsICc8aW5maWxlLm1hZT4nLCAnLW9tYWUnLCAnPG91dGZpbGUubWFlPic=

> <r_epik_Ionization_Penalty>
0.110943

> <r_epik_Ionization_Penalty_Charging>
0.0229283

> <r_epik_Ionization_Penalty_Neutral>
0.0880146

> <r_epik_State_Penalty>
0.0947554

> <r_epik_Charging_Adjusted_Penalty>
0.117684

> <i_epik_Tot_Q>
1

> <i_epik_Tot_abs_Q>
1

> <r_epik_Metal_State_Penalty>
0.0192456

> <b_epik_Metal_Only>
0

> <s_lp_Force_Field>
OPLS_2005

> <r_lp_Energy>
22.9289

> <b_lp_Chiralities_Consistent>
1

> <s_lp_Variant>
AV-unprocessed.smi:1605-1

> <Gold.Version>
5.8.1

> <Gold.Id.Protein>
6NUR|6NUR_protein|mol2

> <Gold.PLP.Fitness>
51.5271

> <Gold.PLP.PLP>
-41.0806

> <Gold.PLP.part.hbond>
-4.4550

> <Gold.PLP.part.metal>
0.0000

> <Gold.PLP.part.buried>
-5.6635

> <Gold.PLP.part.nonpolar>
-32.1533

> <Gold.PLP.part.repulsive>
0.3123

> <Gold.PLP.ligand.clash>
0.0000

> <Gold.PLP.ligand.torsion>
1.1705

> <Gold.PLP.Chemscore.Hbond>
4.2224

> <Gold.PLP.Chemscore.CHOScore>
0.0000

> <Gold.PLP.Chemscore.Metal>
0.0000

> <Gold.Chemscore.Hbonds>
donor molecule, donor type, donor heavy atom, donor atom, acceptor molecule, acceptor atom, score
      L1  H     6    51       P1  7948  2.00
      L1  H     9    35       P1  7949  0.56
      P1  H  7989  7998       L1    13  0.56
      P1  H 10752 10764       L1     9  1.00

> <Gold.PLP.Chemscore.Internal.Correction>
0.1202

> <Gold.Rescore>
     Score         DG    S(hbond)    S(metal)    S(lipo)     H(rot)  DE(clash)    DE(int)     intcor
     17.36     -18.87       1.96        0.00     107.04       2.22       0.09       1.41       ----

> <Gold.Chemscore.Fitness>
17.3639

> <Gold.Chemscore.DG>
-18.8686

> <Gold.Chemscore.ZeroCoef>
-5.4800

> <Gold.Chemscore.Hbond>
1.9583

> <Gold.Chemscore.Metal>
0.0000

> <Gold.Chemscore.Lipo>
107.0355

> <Gold.Chemscore.Internal_Hbond>
0.0000

> <Gold.Chemscore.DEClash>
0.0905

> <Gold.Chemscore.DEInternal>
1.4141

> <Gold.Chemscore.Rot>
2.2169

> <Gold.Chemscore.Internal.Correction>
   9.000000E+99

> <Gold.Chemscore.Hbonds>
donor molecule, donor type, donor heavy atom, donor atom, acceptor molecule, acceptor atom, score
      L1  H     6    51       P1  7948  0.24
      L1  H     9    35       P1  7949  0.14
      P1  H  7989  7998       L1    13  0.02
      P1  H 10752 10764       L1     9  0.68

> <Gold.Chemscore.Hbond.Weighted>
-6.5407

> <Gold.Chemscore.Metal.Weighted>
-0.0000

> <Gold.Chemscore.Lipo.Weighted>
-12.5232

> <Gold.Chemscore.Internal_Hbond.Weighted>
0.0000

> <Gold.Chemscore.DEClash.Weighted>
0.0905

> <Gold.Chemscore.DEInternal.Weighted>
1.4141

> <Gold.Chemscore.Rot.Weighted>
5.6753

> <Gold.Chemscore.Internal.Correction.Weighted>
   9.000000E+99

> <Gold.Protein.RotatedTorsions>
[ 6907 6896 6895 6894 ] final  169.72 input  -60.11 | X-H torsion
[ 7974 7965 7964 7962 ] final   86.71 input  175.53 | X-H torsion
[ 8008 7997 7996 7995 ] final   55.62 input   59.86 | X-H torsion
[ 10167 10162 10161 10158 ] final   71.30 input  -65.29 | X-H torsion
[ 10718 10713 10712 10709 ] final  -34.61 input   66.30 | X-H torsion
[ 10763 10752 10751 10750 ] final  -94.66 input  -60.55 | X-H torsion
[ 11005 11000 10999 10996 ] final  -24.00 input  -57.11 | X-H torsion

> <Gold.Protein.ActiveResidues>
 VAL166  LYS551  ARG553  GLY616  TRP617  ASP618  TYR619  PRO620  LYS621  CYS622 
 ASP623  PHE694  ASN695  SER759  ASP760  ASP761  ALA762  ILE779  LEU786  VAL792 
 PHE793  MET794  SER795  GLU796  ALA797  LYS798  CYS799  TRP800  GLU811  SER814 

> <Gold.Protein.RotatedAtoms>
  151.8274  133.3403  159.3602 H   0  0  0  0  0  0  0  0  0  0  0  0  # atno 6907 bound_to 6896
  150.7275  134.5515  159.5806 H   0  0  0  0  0  0  0  0  0  0  0  0  # atno 6908 bound_to 6896
  152.2961  134.7666  160.0419 H   0  0  0  0  0  0  0  0  0  0  0  0  # atno 6909 bound_to 6896
  145.5687  139.2311  143.2419 H   0  0  0  0  0  0  0  0  0  0  0  0  # atno 7974 bound_to 7965
  155.5041  140.3475  155.4376 H   0  0  0  0  0  0  0  0  0  0  0  0  # atno 8008 bound_to 7997
  156.0894  140.1407  156.9639 H   0  0  0  0  0  0  0  0  0  0  0  0  # atno 8009 bound_to 7997
  154.4626  140.0929  156.6911 H   0  0  0  0  0  0  0  0  0  0  0  0  # atno 8010 bound_to 7997
  140.0476  144.5339  150.7387 H   0  0  0  0  0  0  0  0  0  0  0  0  # atno 10167 bound_to 10162
  156.3485  130.4304  149.7724 H   0  0  0  0  0  0  0  0  0  0  0  0  # atno 10718 bound_to 10713
  154.7076  135.5149  153.8618 H   0  0  0  0  0  0  0  0  0  0  0  0  # atno 10763 bound_to 10752
  153.0754  135.6614  154.0166 H   0  0  0  0  0  0  0  0  0  0  0  0  # atno 10764 bound_to 10752
  154.0014  135.3010  155.3382 H   0  0  0  0  0  0  0  0  0  0  0  0  # atno 10765 bound_to 10752
  140.8805  133.7657  156.0296 H   0  0  0  0  0  0  0  0  0  0  0  0  # atno 11005 bound_to 11000
  146.1800  140.6512  142.9193 LP  0  0  0  0  0  0  0  0  0  0  0  0  # atno 17320 bound_to 7965
  144.7448  140.5039  143.6843 LP  0  0  0  0  0  0  0  0  0  0  0  0  # atno 17321 bound_to 7965
  140.7232  143.2609  151.4210 LP  0  0  0  0  0  0  0  0  0  0  0  0  # atno 17342 bound_to 10162
  139.5974  144.1368  152.2159 LP  0  0  0  0  0  0  0  0  0  0  0  0  # atno 17343 bound_to 10162
  156.4934  130.8095  151.3104 LP  0  0  0  0  0  0  0  0  0  0  0  0  # atno 17370 bound_to 10713
  157.7458  130.9968  150.2793 LP  0  0  0  0  0  0  0  0  0  0  0  0  # atno 17371 bound_to 10713
  140.8467  134.3002  157.5292 LP  0  0  0  0  0  0  0  0  0  0  0  0  # atno 17394 bound_to 11000
  139.8719  134.9446  156.3885 LP  0  0  0  0  0  0  0  0  0  0  0  0  # atno 17395 bound_to 11000

$$$$
