AV-unprocessed.smi:1311|AV-procd|sdf|5447|dock10
  -GOLD-   22720 5 13D 1   1.00000     0.00000
 Structure written by MMmdl.
 46 47  0  0  0  0  0  0  0  0  2 V2000
  142.5293  137.7700  153.0038 C   0  0  0  0  0  0  0  0  0  0  0  0
  143.2852  136.4572  152.7438 C   0  0  0  0  0  0  0  0  0  0  0  0
  142.7246  135.2171  153.4962 C   0  0  1  0  0  0  0  0  0  0  0  0
  141.1679  135.2537  153.4906 C   0  0  0  0  0  0  0  0  0  0  0  0
  140.5757  135.9437  154.6317 N   0  0  0  0  0  0  0  0  0  0  0  0
  139.6204  136.8848  154.5538 C   0  0  0  0  0  0  0  0  0  0  0  0
  139.1394  137.2664  153.4877 O   0  0  0  0  0  0  0  0  0  0  0  0
  139.1566  137.5178  155.8691 C   0  0  0  0  0  0  0  0  0  0  0  0
  137.7309  137.1353  156.1825 C   0  0  0  0  0  0  0  0  0  0  0  0
  137.2325  136.4759  157.3434 C   0  0  0  0  0  0  0  0  0  0  0  0
  137.9890  135.9911  158.5467 C   0  0  0  0  0  0  0  0  0  0  0  0
  135.9231  136.3007  157.2866 N   0  0  0  0  0  0  0  0  0  0  0  0
  135.5145  136.8483  156.0669 O   0  0  0  0  0  0  0  0  0  0  0  0
  136.6077  137.3357  155.4276 C   0  0  0  0  0  0  0  0  0  0  0  0
  136.3780  137.9721  154.0982 C   0  0  0  0  0  0  0  0  0  0  0  0
  143.2375  133.9324  152.9135 N   0  3  0  0  0  0  0  0  0  0  0  0
  142.5936  133.4652  151.6649 C   0  0  0  0  0  0  0  0  0  0  0  0
  143.5516  132.4332  151.0837 C   0  0  0  0  0  0  0  0  0  0  0  0
  144.9199  133.0214  151.4003 C   0  0  0  0  0  0  0  0  0  0  0  0
  144.7015  133.8679  152.6616 C   0  0  0  0  0  0  0  0  0  0  0  0
  143.0799  138.6149  152.5899 H   0  0  0  0  0  0  0  0  0  0  0  0
  142.4056  137.9505  154.0722 H   0  0  0  0  0  0  0  0  0  0  0  0
  141.5434  137.7799  152.5404 H   0  0  0  0  0  0  0  0  0  0  0  0
  143.3179  136.2619  151.6711 H   0  0  0  0  0  0  0  0  0  0  0  0
  144.3126  136.6521  153.0483 H   0  0  0  0  0  0  0  0  0  0  0  0
  143.0839  135.2811  154.5245 H   0  0  0  0  0  0  0  0  0  0  0  0
  140.7839  135.7377  152.5936 H   0  0  0  0  0  0  0  0  0  0  0  0
  140.7752  134.2365  153.4687 H   0  0  0  0  0  0  0  0  0  0  0  0
  140.9042  135.6800  155.5495 H   0  0  0  0  0  0  0  0  0  0  0  0
  139.8374  137.2004  156.6595 H   0  0  0  0  0  0  0  0  0  0  0  0
  139.2624  138.6012  155.7994 H   0  0  0  0  0  0  0  0  0  0  0  0
  138.9468  136.5017  158.6460 H   0  0  0  0  0  0  0  0  0  0  0  0
  138.1885  134.9216  158.4767 H   0  0  0  0  0  0  0  0  0  0  0  0
  137.4285  136.1666  159.4654 H   0  0  0  0  0  0  0  0  0  0  0  0
  137.1677  137.7029  153.3967 H   0  0  0  0  0  0  0  0  0  0  0  0
  136.3619  139.0580  154.1895 H   0  0  0  0  0  0  0  0  0  0  0  0
  135.4270  137.6543  153.6703 H   0  0  0  0  0  0  0  0  0  0  0  0
  141.6062  133.0388  151.8451 H   0  0  0  0  0  0  0  0  0  0  0  0
  142.4905  134.2994  150.9684 H   0  0  0  0  0  0  0  0  0  0  0  0
  143.4281  131.4800  151.5998 H   0  0  0  0  0  0  0  0  0  0  0  0
  143.3978  132.2629  150.0177 H   0  0  0  0  0  0  0  0  0  0  0  0
  145.6792  132.2509  151.5390 H   0  0  0  0  0  0  0  0  0  0  0  0
  145.2453  133.6618  150.5793 H   0  0  0  0  0  0  0  0  0  0  0  0
  145.1247  134.8608  152.5041 H   0  0  0  0  0  0  0  0  0  0  0  0
  145.2009  133.4218  153.5220 H   0  0  0  0  0  0  0  0  0  0  0  0
  143.0402  133.2110  153.5924 H   0  0  0  0  0  0  0  0  0  0  0  0
  1  2  1  0  0  0  0
  1 21  1  0  0  0  0
  1 22  1  0  0  0  0
  1 23  1  0  0  0  0
  2  3  1  0  0  0  0
  2 24  1  0  0  0  0
  2 25  1  0  0  0  0
  3  4  1  0  0  0  0
  3 16  1  0  0  0  0
  3 26  1  0  0  0  0
  4  5  1  0  0  0  0
  4 27  1  0  0  0  0
  4 28  1  0  0  0  0
  5  6  1  0  0  0  0
  5 29  1  0  0  0  0
  6  7  2  0  0  0  0
  6  8  1  0  0  0  0
  8  9  1  0  0  0  0
  8 30  1  0  0  0  0
  8 31  1  0  0  0  0
  9 14  2  0  0  0  0
  9 10  1  0  0  0  0
 10 11  1  0  0  0  0
 10 12  2  0  0  0  0
 11 32  1  0  0  0  0
 11 33  1  0  0  0  0
 11 34  1  0  0  0  0
 12 13  1  0  0  0  0
 13 14  1  0  0  0  0
 14 15  1  0  0  0  0
 15 35  1  0  0  0  0
 15 36  1  0  0  0  0
 15 37  1  0  0  0  0
 16 20  1  0  0  0  0
 16 17  1  0  0  0  0
 16 46  1  0  0  0  0
 17 18  1  0  0  0  0
 17 38  1  0  0  0  0
 17 39  1  0  0  0  0
 18 19  1  0  0  0  0
 18 40  1  0  0  0  0
 18 41  1  0  0  0  0
 19 20  1  0  0  0  0
 19 42  1  0  0  0  0
 19 43  1  0  0  0  0
 20 44  1  0  0  0  0
 20 45  1  0  0  0  0
M  CHG  1  16   1
M  END
> <s_m_source_file>
AV-unprocessed.smi

> <i_m_source_file_index>
1311

> <i_lp_mmshare_version>
43012

> <i_f3d_flags>
0

> <s_epik_input>
W0NIMl0xW0NIMl1bQ0gyXVtDSDJdTjFbQ0BIXShbQ0gyXVtDSDNdKVtDSDJdW05IXUMoPU8pW0NIMl1jMmMoW0NIM10pbm9jMltDSDNd

> <s_epik_cmdline>
J2VwaWtfcHl0aG9uJywgJy1waCcsICc3LjAnLCAnLXRuJywgJzgnLCAnLW1hJywgJzIwMCcsICctbWV0YWxfYmluZGluZycsICctaW1hZScsICc8aW5maWxlLm1hZT4nLCAnLW9tYWUnLCAnPG91dGZpbGUubWFlPic=

> <r_epik_Ionization_Penalty>
0.00366311

> <r_epik_Ionization_Penalty_Charging>
0.00366302

> <r_epik_Ionization_Penalty_Neutral>
9.25085e-08

> <r_epik_State_Penalty>
0.00260703

> <r_epik_Charging_Adjusted_Penalty>
0.00627005

> <i_epik_Tot_Q>
1

> <i_epik_Tot_abs_Q>
1

> <r_epik_Metal_State_Penalty>
-0

> <b_epik_Metal_Only>
0

> <s_lp_Force_Field>
OPLS_2005

> <r_lp_Energy>
34.8572

> <b_lp_Chiralities_Consistent>
1

> <s_lp_Variant>
AV-unprocessed.smi:1311-2

> <Gold.Version>
5.8.1

> <Gold.Id.Protein>
6NUR|6NUR_protein|mol2

> <Gold.PLP.Fitness>
36.6316

> <Gold.PLP.PLP>
-30.6333

> <Gold.PLP.part.hbond>
-2.0000

> <Gold.PLP.part.metal>
0.0000

> <Gold.PLP.part.buried>
-2.5351

> <Gold.PLP.part.nonpolar>
-25.9014

> <Gold.PLP.part.repulsive>
0.3794

> <Gold.PLP.ligand.clash>
0.0000

> <Gold.PLP.ligand.torsion>
0.9092

> <Gold.PLP.Chemscore.Hbond>
2.5600

> <Gold.PLP.Chemscore.CHOScore>
0.0000

> <Gold.PLP.Chemscore.Metal>
0.0000

> <Gold.Chemscore.Hbonds>
donor molecule, donor type, donor heavy atom, donor atom, acceptor molecule, acceptor atom, score
      L1  H     5    29       P1 11000  0.58
      L1  H    16    46       P1 10957  2.00

> <Gold.PLP.Chemscore.Internal.Correction>
0.1368

> <Gold.Rescore>
     Score         DG    S(hbond)    S(metal)    S(lipo)     H(rot)  DE(clash)    DE(int)     intcor
     12.02     -14.23       1.38        0.00      74.65       1.80       1.20       1.01       ----

> <Gold.Chemscore.Fitness>
12.0226

> <Gold.Chemscore.DG>
-14.2259

> <Gold.Chemscore.ZeroCoef>
-5.4800

> <Gold.Chemscore.Hbond>
1.3836

> <Gold.Chemscore.Metal>
0.0000

> <Gold.Chemscore.Lipo>
74.6465

> <Gold.Chemscore.Internal_Hbond>
0.0000

> <Gold.Chemscore.DEClash>
1.1977

> <Gold.Chemscore.DEInternal>
1.0056

> <Gold.Chemscore.Rot>
1.8004

> <Gold.Chemscore.Internal.Correction>
   9.000000E+99

> <Gold.Chemscore.Hbonds>
donor molecule, donor type, donor heavy atom, donor atom, acceptor molecule, acceptor atom, score
      L1  H     5    29       P1 11000  0.14
      L1  H    16    46       P1 10957  0.98

> <Gold.Chemscore.Hbond.Weighted>
-4.6212

> <Gold.Chemscore.Metal.Weighted>
-0.0000

> <Gold.Chemscore.Lipo.Weighted>
-8.7336

> <Gold.Chemscore.Internal_Hbond.Weighted>
0.0000

> <Gold.Chemscore.DEClash.Weighted>
1.1977

> <Gold.Chemscore.DEInternal.Weighted>
1.0056

> <Gold.Chemscore.Rot.Weighted>
4.6090

> <Gold.Chemscore.Internal.Correction.Weighted>
   9.000000E+99

> <Gold.Protein.RotatedTorsions>
[ 6907 6896 6895 6894 ] final  -67.55 input  -60.11 | X-H torsion
[ 7974 7965 7964 7962 ] final  -59.61 input  175.53 | X-H torsion
[ 8008 7997 7996 7995 ] final   83.21 input   59.86 | X-H torsion
[ 10167 10162 10161 10158 ] final  172.74 input  -65.29 | X-H torsion
[ 10718 10713 10712 10709 ] final   21.94 input   66.30 | X-H torsion
[ 10763 10752 10751 10750 ] final -116.49 input  -60.55 | X-H torsion
[ 11005 11000 10999 10996 ] final -143.11 input  -57.11 | X-H torsion

> <Gold.Protein.ActiveResidues>
 VAL166  LYS551  ARG553  GLY616  TRP617  ASP618  TYR619  PRO620  LYS621  CYS622 
 ASP623  PHE694  ASN695  SER759  ASP760  ASP761  ALA762  ILE779  LEU786  VAL792 
 PHE793  MET794  SER795  GLU796  ALA797  LYS798  CYS799  TRP800  GLU811  SER814 

> <Gold.Protein.RotatedAtoms>
  150.7403  134.5864  159.5964 H   0  0  0  0  0  0  0  0  0  0  0  0  # atno 6907 bound_to 6896
  152.3264  134.7312  160.0310 H   0  0  0  0  0  0  0  0  0  0  0  0  # atno 6908 bound_to 6896
  151.7811  133.3314  159.3508 H   0  0  0  0  0  0  0  0  0  0  0  0  # atno 6909 bound_to 6896
  145.8255  140.8513  143.0111 H   0  0  0  0  0  0  0  0  0  0  0  0  # atno 7974 bound_to 7965
  155.9208  140.3421  155.6172 H   0  0  0  0  0  0  0  0  0  0  0  0  # atno 8008 bound_to 7997
  155.7275  140.0791  157.2322 H   0  0  0  0  0  0  0  0  0  0  0  0  # atno 8009 bound_to 7997
  154.4069  140.1594  156.2459 H   0  0  0  0  0  0  0  0  0  0  0  0  # atno 8010 bound_to 7997
  139.5086  144.3340  152.0083 H   0  0  0  0  0  0  0  0  0  0  0  0  # atno 10167 bound_to 10162
  157.1454  130.6651  149.5994 H   0  0  0  0  0  0  0  0  0  0  0  0  # atno 10718 bound_to 10713
  154.8521  135.4343  154.1830 H   0  0  0  0  0  0  0  0  0  0  0  0  # atno 10763 bound_to 10752
  153.2916  135.6962  153.7293 H   0  0  0  0  0  0  0  0  0  0  0  0  # atno 10764 bound_to 10752
  153.6458  135.3460  155.3060 H   0  0  0  0  0  0  0  0  0  0  0  0  # atno 10765 bound_to 10752
  140.8158  134.2690  157.4921 H   0  0  0  0  0  0  0  0  0  0  0  0  # atno 11005 bound_to 11000
  144.6744  140.0595  143.7476 LP  0  0  0  0  0  0  0  0  0  0  0  0  # atno 17320 bound_to 7965
  145.9629  139.2813  143.1145 LP  0  0  0  0  0  0  0  0  0  0  0  0  # atno 17321 bound_to 7965
  140.2779  144.3892  150.6129 LP  0  0  0  0  0  0  0  0  0  0  0  0  # atno 17342 bound_to 10162
  140.6040  143.2167  151.7017 LP  0  0  0  0  0  0  0  0  0  0  0  0  # atno 17343 bound_to 10162
  155.9780  130.4763  150.6631 LP  0  0  0  0  0  0  0  0  0  0  0  0  # atno 17370 bound_to 10713
  157.4269  131.0844  151.1076 LP  0  0  0  0  0  0  0  0  0  0  0  0  # atno 17371 bound_to 10713
  139.8711  134.9508  156.4067 LP  0  0  0  0  0  0  0  0  0  0  0  0  # atno 17394 bound_to 11000
  140.9150  133.7685  155.9837 LP  0  0  0  0  0  0  0  0  0  0  0  0  # atno 17395 bound_to 11000

$$$$
