AV-unprocessed.smi:1885|AV-procd|sdf|7651|dock10
  -GOLD-   22720 9383D 1   1.00000     0.00000
 Structure written by MMmdl.
 43 45  0  0  0  0  0  0  0  0  1 V2000
  143.8578  146.2728  155.1094 C   0  0  0  0  0  0  0  0  0  0  0  0
  144.1112  145.0886  155.8510 O   0  0  0  0  0  0  0  0  0  0  0  0
  144.9309  144.1343  155.2874 C   0  0  0  0  0  0  0  0  0  0  0  0
  145.4994  144.2367  153.9925 C   0  0  0  0  0  0  0  0  0  0  0  0
  146.3221  143.2091  153.4913 C   0  0  0  0  0  0  0  0  0  0  0  0
  146.5843  142.0641  154.2703 C   0  0  0  0  0  0  0  0  0  0  0  0
  147.4582  140.9515  153.7268 C   0  0  0  0  0  0  0  0  0  0  0  0
  148.6003  140.7483  154.5420 O   0  0  0  0  0  0  0  0  0  0  0  0
  149.2768  139.5336  154.2628 C   0  0  0  0  0  0  0  0  0  0  0  0
  150.5688  139.4471  155.0981 C   0  0  1  0  0  0  0  0  0  0  0  0
  151.2477  140.6836  155.0407 O   0  0  0  0  0  0  0  0  0  0  0  0
  150.3799  139.0179  156.5698 C   0  0  0  0  0  0  0  0  0  0  0  0
  151.4691  139.4468  157.4306 N   0  0  0  0  0  0  0  0  0  0  0  0
  152.5928  138.7617  157.7174 C   0  0  0  0  0  0  0  0  0  0  0  0
  153.4610  139.3348  158.5460 N   0  0  0  0  0  0  0  0  0  0  0  0
  152.8334  140.5378  158.8212 C   0  0  0  0  0  0  0  0  0  0  0  0
  153.2338  141.6128  159.6466 C   0  0  0  0  0  0  0  0  0  0  0  0
  152.4214  142.7587  159.7738 C   0  0  0  0  0  0  0  0  0  0  0  0
  152.8200  143.7794  160.5695 F   0  0  0  0  0  0  0  0  0  0  0  0
  151.1983  142.8478  159.0770 C   0  0  0  0  0  0  0  0  0  0  0  0
  150.4251  143.9523  159.2032 F   0  0  0  0  0  0  0  0  0  0  0  0
  150.7764  141.7875  158.2526 C   0  0  0  0  0  0  0  0  0  0  0  0
  151.5885  140.6441  158.1306 C   0  0  0  0  0  0  0  0  0  0  0  0
  146.0313  141.9622  155.5622 C   0  0  0  0  0  0  0  0  0  0  0  0
  145.2100  142.9903  156.0628 C   0  0  0  0  0  0  0  0  0  0  0  0
  143.1840  146.9148  155.6766 H   0  0  0  0  0  0  0  0  0  0  0  0
  143.3767  146.0502  154.1557 H   0  0  0  0  0  0  0  0  0  0  0  0
  144.7752  146.8348  154.9298 H   0  0  0  0  0  0  0  0  0  0  0  0
  145.3171  145.0930  153.3612 H   0  0  0  0  0  0  0  0  0  0  0  0
  146.7424  143.3012  152.5005 H   0  0  0  0  0  0  0  0  0  0  0  0
  146.8727  140.0322  153.6712 H   0  0  0  0  0  0  0  0  0  0  0  0
  147.7670  141.2039  152.7116 H   0  0  0  0  0  0  0  0  0  0  0  0
  148.6294  138.6969  154.5308 H   0  0  0  0  0  0  0  0  0  0  0  0
  149.4873  139.4417  153.1959 H   0  0  0  0  0  0  0  0  0  0  0  0
  151.2235  138.7227  154.6122 H   0  0  0  0  0  0  0  0  0  0  0  0
  151.6359  140.8499  155.8864 H   0  0  0  0  0  0  0  0  0  0  0  0
  149.4463  139.4191  156.9657 H   0  0  0  0  0  0  0  0  0  0  0  0
  150.3005  137.9322  156.6343 H   0  0  0  0  0  0  0  0  0  0  0  0
  152.7785  137.7819  157.3018 H   0  0  0  0  0  0  0  0  0  0  0  0
  154.1692  141.5569  160.1833 H   0  0  0  0  0  0  0  0  0  0  0  0
  149.8350  141.8517  157.7278 H   0  0  0  0  0  0  0  0  0  0  0  0
  146.2300  141.0919  156.1704 H   0  0  0  0  0  0  0  0  0  0  0  0
  144.7863  142.8981  157.0522 H   0  0  0  0  0  0  0  0  0  0  0  0
  1  2  1  0  0  0  0
  1 26  1  0  0  0  0
  1 27  1  0  0  0  0
  1 28  1  0  0  0  0
  2  3  1  0  0  0  0
  3 25  1  0  0  0  0
  3  4  2  0  0  0  0
  4  5  1  0  0  0  0
  4 29  1  0  0  0  0
  5  6  2  0  0  0  0
  5 30  1  0  0  0  0
  6  7  1  0  0  0  0
  6 24  1  0  0  0  0
  7  8  1  0  0  0  0
  7 31  1  0  0  0  0
  7 32  1  0  0  0  0
  8  9  1  0  0  0  0
  9 10  1  0  0  0  0
  9 33  1  0  0  0  0
  9 34  1  0  0  0  0
 10 11  1  0  0  0  0
 10 12  1  0  0  0  0
 10 35  1  0  0  0  0
 11 36  1  0  0  0  0
 12 13  1  0  0  0  0
 12 37  1  0  0  0  0
 12 38  1  0  0  0  0
 13 23  1  0  0  0  0
 13 14  1  0  0  0  0
 14 15  2  0  0  0  0
 14 39  1  0  0  0  0
 15 16  1  0  0  0  0
 16 23  2  0  0  0  0
 16 17  1  0  0  0  0
 17 18  2  0  0  0  0
 17 40  1  0  0  0  0
 18 19  1  0  0  0  0
 18 20  1  0  0  0  0
 20 21  1  0  0  0  0
 20 22  2  0  0  0  0
 22 23  1  0  0  0  0
 22 41  1  0  0  0  0
 24 25  2  0  0  0  0
 24 42  1  0  0  0  0
 25 43  1  0  0  0  0
M  END
> <s_m_source_file>
AV-unprocessed.smi

> <i_m_source_file_index>
1885

> <i_lp_mmshare_version>
43012

> <i_f3d_flags>
0

> <s_epik_input>
W0NIM11PYzFbY0hdW2NIXWMoW2NIXVtjSF0xKVtDSDJdT1tDSDJdW0NASF0oW09IXSlbQ0gyXW4oW2NIXW4yKWMoYzIzKVtjSF1jKEYpYyhGKVtjSF0z

> <s_epik_cmdline>
J2VwaWtfcHl0aG9uJywgJy1waCcsICc3LjAnLCAnLXRuJywgJzgnLCAnLW1hJywgJzIwMCcsICctbWV0YWxfYmluZGluZycsICctaW1hZScsICc8aW5maWxlLm1hZT4nLCAnLW9tYWUnLCAnPG91dGZpbGUubWFlPic=

> <r_lp_tautomer_probability>
1

> <r_epik_Ionization_Penalty>
0.0160256

> <r_epik_Ionization_Penalty_Charging>
0

> <r_epik_Ionization_Penalty_Neutral>
0.0160256

> <r_epik_State_Penalty>
0.0126263

> <r_epik_Charging_Adjusted_Penalty>
0.0126263

> <i_epik_Tot_Q>
0

> <i_epik_Tot_abs_Q>
0

> <r_epik_Metal_State_Penalty>
1.27616e-05

> <b_epik_Metal_Only>
0

> <s_lp_Force_Field>
OPLS_2005

> <r_lp_Energy>
16.1037

> <b_lp_Chiralities_Consistent>
1

> <s_lp_Variant>
AV-unprocessed.smi:1885-2

> <Gold.Version>
5.8.1

> <Gold.Id.Protein>
6NUR|6NUR_protein|mol2

> <Gold.PLP.Fitness>
49.7197

> <Gold.PLP.PLP>
-45.9657

> <Gold.PLP.part.hbond>
-1.5733

> <Gold.PLP.part.metal>
0.0000

> <Gold.PLP.part.buried>
-5.4884

> <Gold.PLP.part.nonpolar>
-38.5262

> <Gold.PLP.part.repulsive>
0.1820

> <Gold.PLP.ligand.clash>
0.0000

> <Gold.PLP.ligand.torsion>
0.8560

> <Gold.PLP.Chemscore.Hbond>
1.7500

> <Gold.PLP.Chemscore.CHOScore>
0.0000

> <Gold.PLP.Chemscore.Metal>
0.0000

> <Gold.Chemscore.Hbonds>
donor molecule, donor type, donor heavy atom, donor atom, acceptor molecule, acceptor atom, score
      P1  H  7989  7998       L1    11  0.85
      P1  H  7997  8008       L1    15  0.91

> <Gold.PLP.Chemscore.Internal.Correction>
0.2161

> <Gold.Rescore>
     Score         DG    S(hbond)    S(metal)    S(lipo)     H(rot)  DE(clash)    DE(int)     intcor
     13.72     -14.63       1.22        0.00     107.50       2.93       0.06       0.85       ----

> <Gold.Chemscore.Fitness>
13.7166

> <Gold.Chemscore.DG>
-14.6284

> <Gold.Chemscore.ZeroCoef>
-5.4800

> <Gold.Chemscore.Hbond>
1.2218

> <Gold.Chemscore.Metal>
0.0000

> <Gold.Chemscore.Lipo>
107.4983

> <Gold.Chemscore.Internal_Hbond>
0.0000

> <Gold.Chemscore.DEClash>
0.0644

> <Gold.Chemscore.DEInternal>
0.8474

> <Gold.Chemscore.Rot>
2.9335

> <Gold.Chemscore.Internal.Correction>
   9.000000E+99

> <Gold.Chemscore.Hbonds>
donor molecule, donor type, donor heavy atom, donor atom, acceptor molecule, acceptor atom, score
      P1  H  7989  7998       L1    11  0.46
      P1  H  7997  8008       L1    15  0.07

> <Gold.Chemscore.Hbond.Weighted>
-4.0808

> <Gold.Chemscore.Metal.Weighted>
-0.0000

> <Gold.Chemscore.Lipo.Weighted>
-12.5773

> <Gold.Chemscore.Internal_Hbond.Weighted>
0.0000

> <Gold.Chemscore.DEClash.Weighted>
0.0644

> <Gold.Chemscore.DEInternal.Weighted>
0.8474

> <Gold.Chemscore.Rot.Weighted>
7.5097

> <Gold.Chemscore.Internal.Correction.Weighted>
   9.000000E+99

> <Gold.Protein.RotatedTorsions>
[ 6907 6896 6895 6894 ] final  -12.06 input  -60.11 | X-H torsion
[ 7974 7965 7964 7962 ] final   90.11 input  175.53 | X-H torsion
[ 8008 7997 7996 7995 ] final -108.52 input   59.86 | X-H torsion
[ 10167 10162 10161 10158 ] final  133.01 input  -65.29 | X-H torsion
[ 10718 10713 10712 10709 ] final -109.19 input   66.30 | X-H torsion
[ 10763 10752 10751 10750 ] final   46.75 input  -60.55 | X-H torsion
[ 11005 11000 10999 10996 ] final -144.50 input  -57.11 | X-H torsion

> <Gold.Protein.ActiveResidues>
 VAL166  LYS551  ARG553  GLY616  TRP617  ASP618  TYR619  PRO620  LYS621  CYS622 
 ASP623  PHE694  ASN695  SER759  ASP760  ASP761  ALA762  ILE779  LEU786  VAL792 
 PHE793  MET794  SER795  GLU796  ALA797  LYS798  CYS799  TRP800  GLU811  SER814 

> <Gold.Protein.RotatedAtoms>
  151.3764  135.0932  159.9481 H   0  0  0  0  0  0  0  0  0  0  0  0  # atno 6907 bound_to 6896
  152.5121  133.9115  159.7500 H   0  0  0  0  0  0  0  0  0  0  0  0  # atno 6908 bound_to 6896
  150.9539  133.6464  159.2796 H   0  0  0  0  0  0  0  0  0  0  0  0  # atno 6909 bound_to 6896
  145.5234  139.2280  143.2659 H   0  0  0  0  0  0  0  0  0  0  0  0  # atno 7974 bound_to 7965
  154.9455  140.0402  157.2118 H   0  0  0  0  0  0  0  0  0  0  0  0  # atno 8008 bound_to 7997
  154.8028  140.2855  155.5887 H   0  0  0  0  0  0  0  0  0  0  0  0  # atno 8009 bound_to 7997
  156.2963  140.2552  156.2900 H   0  0  0  0  0  0  0  0  0  0  0  0  # atno 8010 bound_to 7997
  139.5315  144.6635  151.4934 H   0  0  0  0  0  0  0  0  0  0  0  0  # atno 10167 bound_to 10162
  156.0524  130.5751  150.8065 H   0  0  0  0  0  0  0  0  0  0  0  0  # atno 10718 bound_to 10713
  152.9807  135.5998  154.3651 H   0  0  0  0  0  0  0  0  0  0  0  0  # atno 10763 bound_to 10752
  154.3329  135.2768  155.2464 H   0  0  0  0  0  0  0  0  0  0  0  0  # atno 10764 bound_to 10752
  154.4580  135.5973  153.6291 H   0  0  0  0  0  0  0  0  0  0  0  0  # atno 10765 bound_to 10752
  140.8018  134.2848  157.4975 H   0  0  0  0  0  0  0  0  0  0  0  0  # atno 11005 bound_to 11000
  146.2091  140.6047  142.9067 LP  0  0  0  0  0  0  0  0  0  0  0  0  # atno 17320 bound_to 7965
  144.7664  140.5539  143.6700 LP  0  0  0  0  0  0  0  0  0  0  0  0  # atno 17321 bound_to 7965
  140.6496  143.8724  150.6772 LP  0  0  0  0  0  0  0  0  0  0  0  0  # atno 17342 bound_to 10162
  140.2085  143.3902  152.1737 LP  0  0  0  0  0  0  0  0  0  0  0  0  # atno 17343 bound_to 10162
  157.5462  131.0942  150.9759 LP  0  0  0  0  0  0  0  0  0  0  0  0  # atno 17370 bound_to 10713
  157.0029  130.5607  149.5313 LP  0  0  0  0  0  0  0  0  0  0  0  0  # atno 17371 bound_to 10713
  139.8721  134.9434  156.3851 LP  0  0  0  0  0  0  0  0  0  0  0  0  # atno 17394 bound_to 11000
  140.9287  133.7594  155.9997 LP  0  0  0  0  0  0  0  0  0  0  0  0  # atno 17395 bound_to 11000

$$$$
