AV-unprocessed.smi:1661|AV-procd|sdf|6654|dock8
  -GOLD-   22720 7363D 1   1.00000     0.00000
 Structure written by MMmdl.
 38 39  0  0  0  0  0  0  0  0  2 V2000
  145.5997  131.4195  152.1374 C   0  0  0  0  0  0  0  0  0  0  0  0
  146.8283  132.1885  151.6209 C   0  0  2  0  0  0  0  0  0  0  0  0
  147.6984  132.7553  152.7573 C   0  0  0  0  0  0  0  0  0  0  0  0
  147.0487  133.9741  153.4370 C   0  0  0  0  0  0  0  0  0  0  0  0
  146.7260  135.0366  152.4494 N   0  3  2  0  0  0  0  0  0  0  0  0
  146.2185  136.2699  153.1025 C   0  0  0  0  0  0  0  0  0  0  0  0
  145.7605  137.3325  152.0840 C   0  0  0  0  0  0  0  0  0  0  0  0
  144.4726  137.9099  152.4515 N   0  0  0  0  0  0  0  0  0  0  0  0
  143.4447  137.2228  152.9702 C   0  0  0  0  0  0  0  0  0  0  0  0
  143.4802  136.0097  153.1779 O   0  0  0  0  0  0  0  0  0  0  0  0
  142.3968  138.0268  153.2222 N   0  0  0  0  0  0  0  0  0  0  0  0
  141.1301  137.6780  153.7614 C   0  0  0  0  0  0  0  0  0  0  0  0
  140.9634  136.7969  154.7601 N   0  0  0  0  0  0  0  0  0  0  0  0
  139.6245  136.6379  155.0942 N   0  0  0  0  0  0  0  0  0  0  0  0
  138.8357  137.4042  154.3356 C   0  0  0  0  0  0  0  0  0  0  0  0
  139.6511  138.3953  153.1386 S   0  0  0  0  0  0  0  0  0  0  0  0
  145.8313  134.5294  151.3749 C   0  0  0  0  0  0  0  0  0  0  0  0
  146.4558  133.3235  150.6501 C   0  0  0  0  0  0  0  0  0  0  0  0
  144.9222  132.0567  152.7050 H   0  0  0  0  0  0  0  0  0  0  0  0
  145.8994  130.5969  152.7872 H   0  0  0  0  0  0  0  0  0  0  0  0
  145.0324  130.9912  151.3107 H   0  0  0  0  0  0  0  0  0  0  0  0
  147.4338  131.4680  151.0695 H   0  0  0  0  0  0  0  0  0  0  0  0
  147.9064  131.9808  153.4965 H   0  0  0  0  0  0  0  0  0  0  0  0
  148.6665  133.0524  152.3515 H   0  0  0  0  0  0  0  0  0  0  0  0
  146.1430  133.6797  153.9688 H   0  0  0  0  0  0  0  0  0  0  0  0
  147.7372  134.3667  154.1862 H   0  0  0  0  0  0  0  0  0  0  0  0
  145.4109  136.0187  153.7917 H   0  0  0  0  0  0  0  0  0  0  0  0
  147.0167  136.6988  153.7098 H   0  0  0  0  0  0  0  0  0  0  0  0
  146.5079  138.1226  151.9918 H   0  0  0  0  0  0  0  0  0  0  0  0
  145.6440  136.8982  151.0920 H   0  0  0  0  0  0  0  0  0  0  0  0
  144.3615  138.9043  152.3145 H   0  0  0  0  0  0  0  0  0  0  0  0
  142.5169  139.0042  153.0012 H   0  0  0  0  0  0  0  0  0  0  0  0
  137.7658  137.3855  154.4814 H   0  0  0  0  0  0  0  0  0  0  0  0
  144.8636  134.2600  151.7999 H   0  0  0  0  0  0  0  0  0  0  0  0
  145.6401  135.3110  150.6409 H   0  0  0  0  0  0  0  0  0  0  0  0
  147.3535  133.6529  150.1250 H   0  0  0  0  0  0  0  0  0  0  0  0
  145.7754  132.9548  149.8817 H   0  0  0  0  0  0  0  0  0  0  0  0
  147.6016  135.2860  152.0117 H   0  0  0  0  0  0  0  0  0  0  0  0
  1  2  1  0  0  0  0
  1 19  1  0  0  0  0
  1 20  1  0  0  0  0
  1 21  1  0  0  0  0
  2 18  1  0  0  0  0
  2  3  1  0  0  0  0
  2 22  1  0  0  0  0
  3  4  1  0  0  0  0
  3 23  1  0  0  0  0
  3 24  1  0  0  0  0
  4  5  1  0  0  0  0
  4 25  1  0  0  0  0
  4 26  1  0  0  0  0
  5  6  1  0  0  0  0
  5 17  1  0  0  0  0
  5 38  1  0  0  0  0
  6  7  1  0  0  0  0
  6 27  1  0  0  0  0
  6 28  1  0  0  0  0
  7  8  1  0  0  0  0
  7 29  1  0  0  0  0
  7 30  1  0  0  0  0
  8  9  1  0  0  0  0
  8 31  1  0  0  0  0
  9 10  2  0  0  0  0
  9 11  1  0  0  0  0
 11 12  1  0  0  0  0
 11 32  1  0  0  0  0
 12 16  1  0  0  0  0
 12 13  2  0  0  0  0
 13 14  1  0  0  0  0
 14 15  2  0  0  0  0
 15 16  1  0  0  0  0
 15 33  1  0  0  0  0
 17 18  1  0  0  0  0
 17 34  1  0  0  0  0
 17 35  1  0  0  0  0
 18 36  1  0  0  0  0
 18 37  1  0  0  0  0
M  CHG  1   5   1
M  END
> <s_m_source_file>
AV-unprocessed.smi

> <i_m_source_file_index>
1661

> <i_lp_mmshare_version>
43012

> <i_f3d_flags>
0

> <s_epik_input>
W0NIM11bQ0hdMVtDSDJdW0NIMl1OKFtDSDJdW0NIMl0xKVtDSDJdW0NIMl1bTkhdQyg9TylbTkhdYzJubltjSF1zMg==

> <s_epik_cmdline>
J2VwaWtfcHl0aG9uJywgJy1waCcsICc3LjAnLCAnLXRuJywgJzgnLCAnLW1hJywgJzIwMCcsICctbWV0YWxfYmluZGluZycsICctaW1hZScsICc8aW5maWxlLm1hZT4nLCAnLW9tYWUnLCAnPG91dGZpbGUubWFlPic=

> <r_lp_tautomer_probability>
1

> <r_epik_Ionization_Penalty>
0.0053917

> <r_epik_Ionization_Penalty_Charging>
0.00168873

> <r_epik_Ionization_Penalty_Neutral>
0.00370297

> <r_epik_State_Penalty>
-0

> <r_epik_Charging_Adjusted_Penalty>
0.00168873

> <i_epik_Tot_Q>
1

> <i_epik_Tot_abs_Q>
1

> <r_epik_Metal_State_Penalty>
0.36997

> <b_epik_Metal_Only>
0

> <s_lp_Force_Field>
OPLS_2005

> <r_lp_Energy>
16.5964

> <b_lp_Chiralities_Consistent>
1

> <s_lp_Variant>
AV-unprocessed.smi:1661-2

> <Gold.Version>
5.8.1

> <Gold.Id.Protein>
6NUR|6NUR_protein|mol2

> <Gold.PLP.Fitness>
43.1321

> <Gold.PLP.PLP>
-30.2460

> <Gold.PLP.part.hbond>
-5.2859

> <Gold.PLP.part.metal>
0.0000

> <Gold.PLP.part.buried>
-0.2839

> <Gold.PLP.part.nonpolar>
-24.5475

> <Gold.PLP.part.repulsive>
0.2574

> <Gold.PLP.ligand.clash>
0.0000

> <Gold.PLP.ligand.torsion>
0.8299

> <Gold.PLP.Chemscore.Hbond>
4.8420

> <Gold.PLP.Chemscore.CHOScore>
0.0000

> <Gold.PLP.Chemscore.Metal>
0.0000

> <Gold.Chemscore.Hbonds>
donor molecule, donor type, donor heavy atom, donor atom, acceptor molecule, acceptor atom, score
      L1  H     5    38       P1  7948  2.00
      L1  H     8    31       P1 10175  1.00
      L1  H    11    32       P1 10175  1.00
      P1  H 11000 11005       L1    14  0.69

> <Gold.PLP.Chemscore.Internal.Correction>
0.0199

> <Gold.Rescore>
     Score         DG    S(hbond)    S(metal)    S(lipo)     H(rot)  DE(clash)    DE(int)     intcor
     15.09     -17.67       2.95        0.00      57.26       1.70       0.22       2.35       ----

> <Gold.Chemscore.Fitness>
15.0907

> <Gold.Chemscore.DG>
-17.6653

> <Gold.Chemscore.ZeroCoef>
-5.4800

> <Gold.Chemscore.Hbond>
2.9491

> <Gold.Chemscore.Metal>
0.0000

> <Gold.Chemscore.Lipo>
57.2580

> <Gold.Chemscore.Internal_Hbond>
0.0000

> <Gold.Chemscore.DEClash>
0.2196

> <Gold.Chemscore.DEInternal>
2.3550

> <Gold.Chemscore.Rot>
1.7046

> <Gold.Chemscore.Internal.Correction>
   9.000000E+99

> <Gold.Chemscore.Hbonds>
donor molecule, donor type, donor heavy atom, donor atom, acceptor molecule, acceptor atom, score
      L1  H     5    38       P1  7948  0.95
      L1  H     8    31       P1 10175  0.99
      L1  H    11    32       P1 10175  0.95
      P1  H 11000 11005       L1    14  0.11

> <Gold.Chemscore.Hbond.Weighted>
-9.8500

> <Gold.Chemscore.Metal.Weighted>
-0.0000

> <Gold.Chemscore.Lipo.Weighted>
-6.6992

> <Gold.Chemscore.Internal_Hbond.Weighted>
0.0000

> <Gold.Chemscore.DEClash.Weighted>
0.2196

> <Gold.Chemscore.DEInternal.Weighted>
2.3550

> <Gold.Chemscore.Rot.Weighted>
4.3638

> <Gold.Chemscore.Internal.Correction.Weighted>
   9.000000E+99

> <Gold.Protein.RotatedTorsions>
[ 6907 6896 6895 6894 ] final  -78.95 input  -60.11 | X-H torsion
[ 7974 7965 7964 7962 ] final  -36.49 input  175.53 | X-H torsion
[ 8008 7997 7996 7995 ] final   39.09 input   59.86 | X-H torsion
[ 10167 10162 10161 10158 ] final   53.76 input  -65.29 | X-H torsion
[ 10718 10713 10712 10709 ] final  -42.16 input   66.30 | X-H torsion
[ 10763 10752 10751 10750 ] final    3.93 input  -60.55 | X-H torsion
[ 11005 11000 10999 10996 ] final   90.08 input  -57.11 | X-H torsion

> <Gold.Protein.ActiveResidues>
 VAL166  LYS551  ARG553  GLY616  TRP617  ASP618  TYR619  PRO620  LYS621  CYS622 
 ASP623  PHE694  ASN695  SER759  ASP760  ASP761  ALA762  ILE779  LEU786  VAL792 
 PHE793  MET794  SER795  GLU796  ALA797  LYS798  CYS799  TRP800  GLU811  SER814 

> <Gold.Protein.RotatedAtoms>
  150.6961  134.4195  159.5198 H   0  0  0  0  0  0  0  0  0  0  0  0  # atno 6907 bound_to 6896
  152.1940  134.8644  160.0524 H   0  0  0  0  0  0  0  0  0  0  0  0  # atno 6908 bound_to 6896
  151.9589  133.3654  159.4064 H   0  0  0  0  0  0  0  0  0  0  0  0  # atno 6909 bound_to 6896
  146.0657  140.6285  142.8976 H   0  0  0  0  0  0  0  0  0  0  0  0  # atno 7974 bound_to 7965
  155.2309  140.3338  155.4303 H   0  0  0  0  0  0  0  0  0  0  0  0  # atno 8008 bound_to 7997
  156.2295  140.1844  156.7324 H   0  0  0  0  0  0  0  0  0  0  0  0  # atno 8009 bound_to 7997
  154.5955  140.0631  156.9282 H   0  0  0  0  0  0  0  0  0  0  0  0  # atno 8010 bound_to 7997
  140.2374  144.3621  150.6392 H   0  0  0  0  0  0  0  0  0  0  0  0  # atno 10167 bound_to 10162
  156.2625  130.4198  149.8526 H   0  0  0  0  0  0  0  0  0  0  0  0  # atno 10718 bound_to 10713
  153.2773  135.6937  153.7420 H   0  0  0  0  0  0  0  0  0  0  0  0  # atno 10763 bound_to 10752
  153.6421  135.3391  155.3075 H   0  0  0  0  0  0  0  0  0  0  0  0  # atno 10764 bound_to 10752
  154.8484  135.4434  154.1815 H   0  0  0  0  0  0  0  0  0  0  0  0  # atno 10765 bound_to 10752
  139.8863  134.8592  156.3234 H   0  0  0  0  0  0  0  0  0  0  0  0  # atno 11005 bound_to 11000
  144.7201  140.4343  143.7015 LP  0  0  0  0  0  0  0  0  0  0  0  0  # atno 17320 bound_to 7965
  145.6482  139.1560  143.2877 LP  0  0  0  0  0  0  0  0  0  0  0  0  # atno 17321 bound_to 7965
  140.6140  143.2171  151.6829 LP  0  0  0  0  0  0  0  0  0  0  0  0  # atno 17342 bound_to 10162
  139.5089  144.3595  152.0576 LP  0  0  0  0  0  0  0  0  0  0  0  0  # atno 17343 bound_to 10162
  156.6036  130.8557  151.3438 LP  0  0  0  0  0  0  0  0  0  0  0  0  # atno 17370 bound_to 10713
  157.7256  130.9618  150.1620 LP  0  0  0  0  0  0  0  0  0  0  0  0  # atno 17371 bound_to 10713
  140.9771  133.7290  156.0618 LP  0  0  0  0  0  0  0  0  0  0  0  0  # atno 17394 bound_to 11000
  140.7797  134.3740  157.5490 LP  0  0  0  0  0  0  0  0  0  0  0  0  # atno 17395 bound_to 11000

$$$$
