AV-unprocessed.smi:1983|AV-procd|sdf|8031|dock10
  -GOLD-   2272010223D 1   1.00000     0.00000
 Structure written by MMmdl.
 49 50  0  0  0  0  0  0  0  0  1 V2000
  149.3894  133.4570  154.8583 C   0  0  0  0  0  0  0  0  0  0  0  0
  149.2874  134.7732  155.6437 C   0  0  1  0  0  0  0  0  0  0  0  0
  150.5540  135.0558  156.4769 C   0  0  0  0  0  0  0  0  0  0  0  0
  150.8434  133.9634  157.3232 O   0  0  0  0  0  0  0  0  0  0  0  0
  149.0368  135.8676  154.7096 N   0  0  0  0  0  0  0  0  0  0  0  0
  148.7841  137.1380  155.0555 C   0  0  0  0  0  0  0  0  0  0  0  0
  148.7330  137.5400  156.2182 O   0  0  0  0  0  0  0  0  0  0  0  0
  148.6052  137.9213  153.9825 N   0  0  0  0  0  0  0  0  0  0  0  0
  148.3583  139.3573  154.0385 C   0  0  0  0  0  0  0  0  0  0  0  0
  149.2267  140.0625  155.0654 C   0  0  0  0  0  0  0  0  0  0  0  0
  150.6215  139.8669  155.0927 C   0  0  0  0  0  0  0  0  0  0  0  0
  151.3839  140.5326  156.0713 C   0  0  0  0  0  0  0  0  0  0  0  0
  150.7284  141.3747  157.0002 C   0  0  0  0  0  0  0  0  0  0  0  0
  151.4760  142.0456  157.9904 N   0  0  0  0  0  0  0  0  0  0  0  0
  152.3462  141.2492  158.8503 C   0  0  0  0  0  0  0  0  0  0  0  0
  153.3164  142.1627  159.6197 C   0  0  2  0  0  0  0  0  0  0  0  0
  154.1633  141.3788  160.6274 C   0  0  0  0  0  0  0  0  0  0  0  0
  152.5753  143.1497  160.3364 O   0  0  0  0  0  0  0  0  0  0  0  0
  151.7286  143.9691  159.5264 C   0  0  1  0  0  0  0  0  0  0  0  0
  152.5299  144.9605  158.6640 C   0  0  0  0  0  0  0  0  0  0  0  0
  150.7576  143.0923  158.7107 C   0  0  0  0  0  0  0  0  0  0  0  0
  149.3848  141.5565  156.9726 N   0  0  0  0  0  0  0  0  0  0  0  0
  148.6591  140.9195  156.0296 C   0  0  0  0  0  0  0  0  0  0  0  0
  149.5301  132.6076  155.5271 H   0  0  0  0  0  0  0  0  0  0  0  0
  150.2283  133.4740  154.1619 H   0  0  0  0  0  0  0  0  0  0  0  0
  148.4818  133.2718  154.2830 H   0  0  0  0  0  0  0  0  0  0  0  0
  148.4308  134.6992  156.3167 H   0  0  0  0  0  0  0  0  0  0  0  0
  151.4109  135.2585  155.8337 H   0  0  0  0  0  0  0  0  0  0  0  0
  150.4140  135.9324  157.1103 H   0  0  0  0  0  0  0  0  0  0  0  0
  150.9564  133.1920  156.7890 H   0  0  0  0  0  0  0  0  0  0  0  0
  149.0605  135.6384  153.7268 H   0  0  0  0  0  0  0  0  0  0  0  0
  148.6613  137.5006  153.0667 H   0  0  0  0  0  0  0  0  0  0  0  0
  148.5701  139.7799  153.0561 H   0  0  0  0  0  0  0  0  0  0  0  0
  147.3023  139.5505  154.2353 H   0  0  0  0  0  0  0  0  0  0  0  0
  151.1011  139.2139  154.3784 H   0  0  0  0  0  0  0  0  0  0  0  0
  152.4523  140.3800  156.1100 H   0  0  0  0  0  0  0  0  0  0  0  0
  151.7342  140.6755  159.5476 H   0  0  0  0  0  0  0  0  0  0  0  0
  152.9158  140.5361  158.2527 H   0  0  0  0  0  0  0  0  0  0  0  0
  153.9942  142.6496  158.9179 H   0  0  0  0  0  0  0  0  0  0  0  0
  154.7633  140.6184  160.1272 H   0  0  0  0  0  0  0  0  0  0  0  0
  153.5366  140.8792  161.3666 H   0  0  0  0  0  0  0  0  0  0  0  0
  154.8447  142.0413  161.1618 H   0  0  0  0  0  0  0  0  0  0  0  0
  151.1332  144.5653  160.2182 H   0  0  0  0  0  0  0  0  0  0  0  0
  151.8622  145.6584  158.1583 H   0  0  0  0  0  0  0  0  0  0  0  0
  153.1164  144.4602  157.8938 H   0  0  0  0  0  0  0  0  0  0  0  0
  153.2135  145.5457  159.2793 H   0  0  0  0  0  0  0  0  0  0  0  0
  150.1739  143.7214  158.0395 H   0  0  0  0  0  0  0  0  0  0  0  0
  150.0464  142.6124  159.3844 H   0  0  0  0  0  0  0  0  0  0  0  0
  147.5936  141.0948  156.0526 H   0  0  0  0  0  0  0  0  0  0  0  0
  1  2  1  0  0  0  0
  1 24  1  0  0  0  0
  1 25  1  0  0  0  0
  1 26  1  0  0  0  0
  2  3  1  0  0  0  0
  2  5  1  0  0  0  0
  2 27  1  0  0  0  0
  3  4  1  0  0  0  0
  3 28  1  0  0  0  0
  3 29  1  0  0  0  0
  4 30  1  0  0  0  0
  5  6  1  0  0  0  0
  5 31  1  0  0  0  0
  6  7  2  0  0  0  0
  6  8  1  0  0  0  0
  8  9  1  0  0  0  0
  8 32  1  0  0  0  0
  9 10  1  0  0  0  0
  9 33  1  0  0  0  0
  9 34  1  0  0  0  0
 10 23  1  0  0  0  0
 10 11  2  0  0  0  0
 11 12  1  0  0  0  0
 11 35  1  0  0  0  0
 12 13  2  0  0  0  0
 12 36  1  0  0  0  0
 13 14  1  0  0  0  0
 13 22  1  0  0  0  0
 14 21  1  0  0  0  0
 14 15  1  0  0  0  0
 15 16  1  0  0  0  0
 15 37  1  0  0  0  0
 15 38  1  0  0  0  0
 16 17  1  0  0  0  0
 16 18  1  0  0  0  0
 16 39  1  0  0  0  0
 17 40  1  0  0  0  0
 17 41  1  0  0  0  0
 17 42  1  0  0  0  0
 18 19  1  0  0  0  0
 19 20  1  0  0  0  0
 19 21  1  0  0  0  0
 19 43  1  0  0  0  0
 20 44  1  0  0  0  0
 20 45  1  0  0  0  0
 20 46  1  0  0  0  0
 21 47  1  0  0  0  0
 21 48  1  0  0  0  0
 22 23  2  0  0  0  0
 23 49  1  0  0  0  0
M  END
> <s_m_source_file>
AV-unprocessed.smi

> <i_m_source_file_index>
1983

> <i_lp_mmshare_version>
43012

> <i_f3d_flags>
0

> <s_epik_input>
W09IXVtDSDJdW0NAQEhdKFtDSDNdKVtOSF1DKD1PKVtOSF1bQ0gyXWMxW2NIXVtjSF1jKG5bY0hdMSlOMltDSDJdW0NAQEhdKFtDSDNdKU9bQ0BASF0oW0NIM10pW0NIMl0y

> <s_epik_cmdline>
J2VwaWtfcHl0aG9uJywgJy1waCcsICc3LjAnLCAnLXRuJywgJzgnLCAnLW1hJywgJzIwMCcsICctbWV0YWxfYmluZGluZycsICctaW1hZScsICc8aW5maWxlLm1hZT4nLCAnLW9tYWUnLCAnPG91dGZpbGUubWFlPic=

> <r_lp_tautomer_probability>
1

> <r_epik_Ionization_Penalty>
0.00801967

> <r_epik_Ionization_Penalty_Charging>
0

> <r_epik_Ionization_Penalty_Neutral>
0.00801967

> <r_epik_State_Penalty>
0.00598289

> <r_epik_Charging_Adjusted_Penalty>
0.00598289

> <i_epik_Tot_Q>
0

> <i_epik_Tot_abs_Q>
0

> <r_epik_Metal_State_Penalty>
0.00590297

> <b_epik_Metal_Only>
0

> <s_lp_Force_Field>
OPLS_2005

> <r_lp_Energy>
16.1949

> <b_lp_Chiralities_Consistent>
1

> <s_lp_Variant>
AV-unprocessed.smi:1983-4

> <Gold.Version>
5.8.1

> <Gold.Id.Protein>
6NUR|6NUR_protein|mol2

> <Gold.PLP.Fitness>
48.3870

> <Gold.PLP.PLP>
-41.2558

> <Gold.PLP.part.hbond>
-3.0000

> <Gold.PLP.part.metal>
0.0000

> <Gold.PLP.part.buried>
-4.6087

> <Gold.PLP.part.nonpolar>
-33.7539

> <Gold.PLP.part.repulsive>
0.1835

> <Gold.PLP.ligand.clash>
0.0000

> <Gold.PLP.ligand.torsion>
0.3995

> <Gold.PLP.Chemscore.Hbond>
2.5280

> <Gold.PLP.Chemscore.CHOScore>
0.0000

> <Gold.PLP.Chemscore.Metal>
0.0000

> <Gold.Chemscore.Hbonds>
donor molecule, donor type, donor heavy atom, donor atom, acceptor molecule, acceptor atom, score
      L1  H     5    31       P1  7948  0.99
      L1  H     8    32       P1  7948  1.00
      P1  H  6896  6908       L1     4  0.58

> <Gold.PLP.Chemscore.Internal.Correction>
0.3463

> <Gold.Rescore>
     Score         DG    S(hbond)    S(metal)    S(lipo)     H(rot)  DE(clash)    DE(int)     intcor
     18.56     -20.23       2.75        0.00     104.72       2.61       0.17       1.51       ----

> <Gold.Chemscore.Fitness>
18.5583

> <Gold.Chemscore.DG>
-20.2314

> <Gold.Chemscore.ZeroCoef>
-5.4800

> <Gold.Chemscore.Hbond>
2.7485

> <Gold.Chemscore.Metal>
0.0000

> <Gold.Chemscore.Lipo>
104.7210

> <Gold.Chemscore.Internal_Hbond>
0.0000

> <Gold.Chemscore.DEClash>
0.1655

> <Gold.Chemscore.DEInternal>
1.5076

> <Gold.Chemscore.Rot>
2.6097

> <Gold.Chemscore.Internal.Correction>
   9.000000E+99

> <Gold.Chemscore.Hbonds>
donor molecule, donor type, donor heavy atom, donor atom, acceptor molecule, acceptor atom, score
      L1  H     5    31       P1  7948  0.74
      L1  H     8    32       P1  7948  0.99
      P1  H  6896  6908       L1     4  0.49

> <Gold.Chemscore.Hbond.Weighted>
-9.1799

> <Gold.Chemscore.Metal.Weighted>
-0.0000

> <Gold.Chemscore.Lipo.Weighted>
-12.2524

> <Gold.Chemscore.Internal_Hbond.Weighted>
0.0000

> <Gold.Chemscore.DEClash.Weighted>
0.1655

> <Gold.Chemscore.DEInternal.Weighted>
1.5076

> <Gold.Chemscore.Rot.Weighted>
6.6809

> <Gold.Chemscore.Internal.Correction.Weighted>
   9.000000E+99

> <Gold.Protein.RotatedTorsions>
[ 6907 6896 6895 6894 ] final  103.86 input  -60.11 | X-H torsion
[ 7974 7965 7964 7962 ] final   36.42 input  175.53 | X-H torsion
[ 8008 7997 7996 7995 ] final  -57.86 input   59.86 | X-H torsion
[ 10167 10162 10161 10158 ] final  134.93 input  -65.29 | X-H torsion
[ 10718 10713 10712 10709 ] final  -41.43 input   66.30 | X-H torsion
[ 10763 10752 10751 10750 ] final -112.83 input  -60.55 | X-H torsion
[ 11005 11000 10999 10996 ] final  129.31 input  -57.11 | X-H torsion

> <Gold.Protein.ActiveResidues>
 VAL166  LYS551  ARG553  GLY616  TRP617  ASP618  TYR619  PRO620  LYS621  CYS622 
 ASP623  PHE694  ASN695  SER759  ASP760  ASP761  ALA762  ILE779  LEU786  VAL792 
 PHE793  MET794  SER795  GLU796  ALA797  LYS798  CYS799  TRP800  GLU811  SER814 

> <Gold.Protein.RotatedAtoms>
  152.5282  133.9762  159.7785 H   0  0  0  0  0  0  0  0  0  0  0  0  # atno 6907 bound_to 6896
  151.0025  133.6035  159.2700 H   0  0  0  0  0  0  0  0  0  0  0  0  # atno 6908 bound_to 6896
  151.3138  135.0807  159.9335 H   0  0  0  0  0  0  0  0  0  0  0  0  # atno 6909 bound_to 6896
  146.1212  139.6019  142.9288 H   0  0  0  0  0  0  0  0  0  0  0  0  # atno 7974 bound_to 7965
  154.4285  140.1097  156.5865 H   0  0  0  0  0  0  0  0  0  0  0  0  # atno 8008 bound_to 7997
  155.6057  140.3494  155.4588 H   0  0  0  0  0  0  0  0  0  0  0  0  # atno 8009 bound_to 7997
  156.0138  140.1225  157.0416 H   0  0  0  0  0  0  0  0  0  0  0  0  # atno 8010 bound_to 7997
  139.5237  144.6543  151.5210 H   0  0  0  0  0  0  0  0  0  0  0  0  # atno 10167 bound_to 10162
  156.2704  130.4206  149.8444 H   0  0  0  0  0  0  0  0  0  0  0  0  # atno 10718 bound_to 10713
  154.8368  135.4476  154.1255 H   0  0  0  0  0  0  0  0  0  0  0  0  # atno 10763 bound_to 10752
  153.2479  135.6923  153.7717 H   0  0  0  0  0  0  0  0  0  0  0  0  # atno 10764 bound_to 10752
  153.7040  135.3367  155.3207 H   0  0  0  0  0  0  0  0  0  0  0  0  # atno 10765 bound_to 10752
  139.9608  134.9602  156.9129 H   0  0  0  0  0  0  0  0  0  0  0  0  # atno 11005 bound_to 11000
  145.5462  141.0417  143.2303 LP  0  0  0  0  0  0  0  0  0  0  0  0  # atno 17320 bound_to 7965
  144.7599  139.6982  143.7238 LP  0  0  0  0  0  0  0  0  0  0  0  0  # atno 17321 bound_to 7965
  140.6361  143.8981  150.6649 LP  0  0  0  0  0  0  0  0  0  0  0  0  # atno 17342 bound_to 10162
  140.2301  143.3742  152.1573 LP  0  0  0  0  0  0  0  0  0  0  0  0  # atno 17343 bound_to 10162
  156.5927  130.8513  151.3412 LP  0  0  0  0  0  0  0  0  0  0  0  0  # atno 17370 bound_to 10713
  157.7282  130.9653  150.1731 LP  0  0  0  0  0  0  0  0  0  0  0  0  # atno 17371 bound_to 10713
  140.5504  134.0632  155.7367 LP  0  0  0  0  0  0  0  0  0  0  0  0  # atno 17394 bound_to 11000
  141.1285  133.9342  157.2585 LP  0  0  0  0  0  0  0  0  0  0  0  0  # atno 17395 bound_to 11000

$$$$
