AV-unprocessed.smi:1757|AV-procd|sdf|7077|dock4
  -GOLD-   22720 8293D 1   1.00000     0.00000
 Structure written by MMmdl.
 39 40  0  0  0  0  0  0  0  0  3 V2000
  143.5678  135.5034  152.0735 C   0  0  0  0  0  0  0  0  0  0  0  0
  144.4569  134.3562  151.7916 N   0  3  2  0  0  0  0  0  0  0  0  0
  143.7473  133.2463  151.1080 C   0  0  0  0  0  0  0  0  0  0  0  0
  144.7237  132.1250  150.7147 C   0  0  0  0  0  0  0  0  0  0  0  0
  145.4997  131.6091  151.9380 C   0  0  1  0  0  0  0  0  0  0  0  0
  146.4966  130.6273  151.5186 N   0  0  0  0  0  0  0  0  0  0  0  0
  146.5680  129.3531  151.9306 C   0  0  0  0  0  0  0  0  0  0  0  0
  145.7772  128.8550  152.7315 O   0  0  0  0  0  0  0  0  0  0  0  0
  147.6171  128.7289  151.3654 N   0  0  0  0  0  0  0  0  0  0  0  0
  148.0347  127.3936  151.4966 C   0  0  0  0  0  0  0  0  0  0  0  0
  147.9267  126.4478  150.5228 C   0  0  0  0  0  0  0  0  0  0  0  0
  148.3932  125.0797  150.7119 C   0  0  0  0  0  0  0  0  0  0  0  0
  148.2778  123.9840  149.6681 C   0  0  0  0  0  0  0  0  0  0  0  0
  146.9999  123.7914  149.3428 F   0  0  0  0  0  0  0  0  0  0  0  0
  148.9369  124.3292  148.5626 F   0  0  0  0  0  0  0  0  0  0  0  0
  148.7770  122.8309  150.1133 F   0  0  0  0  0  0  0  0  0  0  0  0
  148.9504  124.8816  151.9595 C   0  0  0  0  0  0  0  0  0  0  0  0
  149.1072  125.7632  152.9712 N   0  5  0  0  0  0  0  0  0  0  0  0
  148.6628  127.0385  152.7865 C   0  0  0  0  0  0  0  0  0  0  0  0
  148.7736  127.8935  153.6661 O   0  0  0  0  0  0  0  0  0  0  0  0
  146.1887  132.7844  152.6518 C   0  0  0  0  0  0  0  0  0  0  0  0
  145.1805  133.8919  153.0014 C   0  0  0  0  0  0  0  0  0  0  0  0
  142.7757  135.2230  152.7692 H   0  0  0  0  0  0  0  0  0  0  0  0
  143.1048  135.8665  151.1554 H   0  0  0  0  0  0  0  0  0  0  0  0
  144.1309  136.3290  152.5104 H   0  0  0  0  0  0  0  0  0  0  0  0
  142.9674  132.8531  151.7622 H   0  0  0  0  0  0  0  0  0  0  0  0
  143.2506  133.6254  150.2141 H   0  0  0  0  0  0  0  0  0  0  0  0
  144.1756  131.3057  150.2473 H   0  0  0  0  0  0  0  0  0  0  0  0
  145.4200  132.4998  149.9631 H   0  0  0  0  0  0  0  0  0  0  0  0
  144.7851  131.1594  152.6297 H   0  0  0  0  0  0  0  0  0  0  0  0
  147.1954  130.9438  150.8621 H   0  0  0  0  0  0  0  0  0  0  0  0
  148.2223  129.2955  150.7894 H   0  0  0  0  0  0  0  0  0  0  0  0
  147.5053  126.6931  149.5621 H   0  0  0  0  0  0  0  0  0  0  0  0
  149.3261  123.8583  152.1752 H   0  0  0  0  0  0  0  0  0  0  0  0
  146.6810  132.4337  153.5598 H   0  0  0  0  0  0  0  0  0  0  0  0
  146.9727  133.1978  152.0154 H   0  0  0  0  0  0  0  0  0  0  0  0
  145.7071  134.7316  153.4569 H   0  0  0  0  0  0  0  0  0  0  0  0
  144.4638  133.5287  153.7398 H   0  0  0  0  0  0  0  0  0  0  0  0
  145.1585  134.6901  151.1464 H   0  0  0  0  0  0  0  0  0  0  0  0
  1  2  1  0  0  0  0
  1 23  1  0  0  0  0
  1 24  1  0  0  0  0
  1 25  1  0  0  0  0
  2 22  1  0  0  0  0
  2  3  1  0  0  0  0
  2 39  1  0  0  0  0
  3  4  1  0  0  0  0
  3 26  1  0  0  0  0
  3 27  1  0  0  0  0
  4  5  1  0  0  0  0
  4 28  1  0  0  0  0
  4 29  1  0  0  0  0
  5  6  1  0  0  0  0
  5 21  1  0  0  0  0
  5 30  1  0  0  0  0
  6  7  1  0  0  0  0
  6 31  1  0  0  0  0
  7  8  2  0  0  0  0
  7  9  1  0  0  0  0
  9 10  1  0  0  0  0
  9 32  1  0  0  0  0
 10 19  1  0  0  0  0
 10 11  2  0  0  0  0
 11 12  1  0  0  0  0
 11 33  1  0  0  0  0
 12 13  1  0  0  0  0
 12 17  2  0  0  0  0
 13 14  1  0  0  0  0
 13 15  1  0  0  0  0
 13 16  1  0  0  0  0
 17 18  1  0  0  0  0
 17 34  1  0  0  0  0
 18 19  1  0  0  0  0
 19 20  2  0  0  0  0
 21 22  1  0  0  0  0
 21 35  1  0  0  0  0
 21 36  1  0  0  0  0
 22 37  1  0  0  0  0
 22 38  1  0  0  0  0
M  CHG  1   2   1
M  CHG  1  18  -1
M  END
> <s_m_source_file>
AV-unprocessed.smi

> <i_m_source_file_index>
1757

> <i_lp_mmshare_version>
43012

> <i_f3d_flags>
0

> <s_epik_input>
W0NIM11OMVtDSDJdW0NIMl1bQ0hdKFtDSDJdW0NIMl0xKVtOSF1DKD1PKVtOSF1jMltjSF1jKEMoRikoRilGKVtjSF1bbkhdYzI9Tw==

> <s_epik_cmdline>
J2VwaWtfcHl0aG9uJywgJy1waCcsICc3LjAnLCAnLXRuJywgJzgnLCAnLW1hJywgJzIwMCcsICctbWV0YWxfYmluZGluZycsICctaW1hZScsICc8aW5maWxlLm1hZT4nLCAnLW9tYWUnLCAnPG91dGZpbGUubWFlPic=

> <r_lp_tautomer_probability>
1

> <r_epik_Ionization_Penalty>
3.04759

> <r_epik_Ionization_Penalty_Charging>
0.155898

> <r_epik_Ionization_Penalty_Neutral>
2.89169

> <r_epik_State_Penalty>
2.88714

> <r_epik_Charging_Adjusted_Penalty>
3.04304

> <i_epik_Tot_Q>
0

> <i_epik_Tot_abs_Q>
2

> <r_epik_Metal_State_Penalty>
0.445786

> <b_epik_Metal_Only>
1

> <s_lp_Force_Field>
OPLS_2005

> <r_lp_Energy>
29.3736

> <b_lp_Chiralities_Consistent>
1

> <s_lp_Variant>
AV-unprocessed.smi:1757-3

> <Gold.Version>
5.8.1

> <Gold.Id.Protein>
6NUR|6NUR_protein|mol2

> <Gold.PLP.Fitness>
43.2780

> <Gold.PLP.PLP>
-38.9603

> <Gold.PLP.part.hbond>
-2.0000

> <Gold.PLP.part.metal>
0.0000

> <Gold.PLP.part.buried>
-7.9724

> <Gold.PLP.part.nonpolar>
-29.5860

> <Gold.PLP.part.repulsive>
0.4244

> <Gold.PLP.ligand.clash>
0.0000

> <Gold.PLP.ligand.torsion>
0.6848

> <Gold.PLP.Chemscore.Hbond>
1.8940

> <Gold.PLP.Chemscore.CHOScore>
0.0000

> <Gold.PLP.Chemscore.Metal>
0.0000

> <Gold.Chemscore.Hbonds>
donor molecule, donor type, donor heavy atom, donor atom, acceptor molecule, acceptor atom, score
      L1  H     6    31       P1 10747  0.96
      L1  H     9    32       P1 10747  0.95

> <Gold.PLP.Chemscore.Internal.Correction>
0.0053

> <Gold.Rescore>
     Score         DG    S(hbond)    S(metal)    S(lipo)     H(rot)  DE(clash)    DE(int)     intcor
     15.01     -15.83       1.34        0.00      72.11       1.00       0.14       0.68       ----

> <Gold.Chemscore.Fitness>
15.0149

> <Gold.Chemscore.DG>
-15.8318

> <Gold.Chemscore.ZeroCoef>
-5.4800

> <Gold.Chemscore.Hbond>
1.3397

> <Gold.Chemscore.Metal>
0.0000

> <Gold.Chemscore.Lipo>
72.1125

> <Gold.Chemscore.Internal_Hbond>
0.0000

> <Gold.Chemscore.DEClash>
0.1398

> <Gold.Chemscore.DEInternal>
0.6771

> <Gold.Chemscore.Rot>
1.0000

> <Gold.Chemscore.Internal.Correction>
   9.000000E+99

> <Gold.Chemscore.Hbonds>
donor molecule, donor type, donor heavy atom, donor atom, acceptor molecule, acceptor atom, score
      L1  H     6    31       P1 10747  0.92
      L1  H     9    32       P1 10747  0.21

> <Gold.Chemscore.Hbond.Weighted>
-4.4746

> <Gold.Chemscore.Metal.Weighted>
-0.0000

> <Gold.Chemscore.Lipo.Weighted>
-8.4372

> <Gold.Chemscore.Internal_Hbond.Weighted>
0.0000

> <Gold.Chemscore.DEClash.Weighted>
0.1398

> <Gold.Chemscore.DEInternal.Weighted>
0.6771

> <Gold.Chemscore.Rot.Weighted>
2.5600

> <Gold.Chemscore.Internal.Correction.Weighted>
   9.000000E+99

> <Gold.Protein.RotatedTorsions>
[ 6907 6896 6895 6894 ] final   34.99 input  -60.11 | X-H torsion
[ 7974 7965 7964 7962 ] final -156.95 input  175.53 | X-H torsion
[ 8008 7997 7996 7995 ] final  156.96 input   59.86 | X-H torsion
[ 10167 10162 10161 10158 ] final -135.42 input  -65.29 | X-H torsion
[ 10718 10713 10712 10709 ] final   13.33 input   66.30 | X-H torsion
[ 10763 10752 10751 10750 ] final -174.15 input  -60.55 | X-H torsion
[ 11005 11000 10999 10996 ] final   16.33 input  -57.11 | X-H torsion

> <Gold.Protein.ActiveResidues>
 VAL166  LYS551  ARG553  GLY616  TRP617  ASP618  TYR619  PRO620  LYS621  CYS622 
 ASP623  PHE694  ASN695  SER759  ASP760  ASP761  ALA762  ILE779  LEU786  VAL792 
 PHE793  MET794  SER795  GLU796  ALA797  LYS798  CYS799  TRP800  GLU811  SER814 

> <Gold.Protein.RotatedAtoms>
  152.1099  134.9281  160.0566 H   0  0  0  0  0  0  0  0  0  0  0  0  # atno 6907 bound_to 6896
  152.0463  133.3994  159.4366 H   0  0  0  0  0  0  0  0  0  0  0  0  # atno 6908 bound_to 6896
  150.6843  134.3279  159.4858 H   0  0  0  0  0  0  0  0  0  0  0  0  # atno 6909 bound_to 6896
  144.7570  140.4038  143.6005 H   0  0  0  0  0  0  0  0  0  0  0  0  # atno 7974 bound_to 7965
  156.2392  140.1898  156.7036 H   0  0  0  0  0  0  0  0  0  0  0  0  # atno 8008 bound_to 7997
  154.6164  140.0614  156.9586 H   0  0  0  0  0  0  0  0  0  0  0  0  # atno 8009 bound_to 7997
  155.1933  140.3286  155.4357 H   0  0  0  0  0  0  0  0  0  0  0  0  # atno 8010 bound_to 7997
  139.8781  143.6873  152.2631 H   0  0  0  0  0  0  0  0  0  0  0  0  # atno 10167 bound_to 10162
  157.0231  130.6163  149.5724 H   0  0  0  0  0  0  0  0  0  0  0  0  # atno 10718 bound_to 10713
  154.5996  135.2853  155.0549 H   0  0  0  0  0  0  0  0  0  0  0  0  # atno 10763 bound_to 10752
  154.1819  135.6455  153.5040 H   0  0  0  0  0  0  0  0  0  0  0  0  # atno 10764 bound_to 10752
  153.0152  135.5425  154.6711 H   0  0  0  0  0  0  0  0  0  0  0  0  # atno 10765 bound_to 10752
  140.4483  134.1250  155.7699 H   0  0  0  0  0  0  0  0  0  0  0  0  # atno 11005 bound_to 11000
  145.6746  139.1606  143.2735 LP  0  0  0  0  0  0  0  0  0  0  0  0  # atno 17320 bound_to 7965
  146.1591  140.6814  142.9286 LP  0  0  0  0  0  0  0  0  0  0  0  0  # atno 17321 bound_to 7965
  139.7221  144.7600  151.0938 LP  0  0  0  0  0  0  0  0  0  0  0  0  # atno 17342 bound_to 10162
  140.7749  143.5194  150.9555 LP  0  0  0  0  0  0  0  0  0  0  0  0  # atno 17343 bound_to 10162
  156.0095  130.5185  150.7942 LP  0  0  0  0  0  0  0  0  0  0  0  0  # atno 17370 bound_to 10713
  157.5234  131.0933  151.0049 LP  0  0  0  0  0  0  0  0  0  0  0  0  # atno 17371 bound_to 10713
  141.1675  133.8674  157.1671 LP  0  0  0  0  0  0  0  0  0  0  0  0  # atno 17394 bound_to 11000
  140.0023  135.0022  157.0217 LP  0  0  0  0  0  0  0  0  0  0  0  0  # atno 17395 bound_to 11000

$$$$
