AV-unprocessed.smi:1695|AV-procd|sdf|6796|dock4
  -GOLD-   22720 7563D 1   1.00000     0.00000
 Structure written by MMmdl.
 52 54  0  0  0  0  0  0  0  0  3 V2000
  152.9732  142.8292  160.4557 C   0  0  0  0  0  0  0  0  0  0  0  0
  152.1528  142.2827  159.2993 C   0  0  0  0  0  0  0  0  0  0  0  0
  151.9826  140.8840  159.1948 C   0  0  0  0  0  0  0  0  0  0  0  0
  151.2277  140.4148  158.1264 C   0  0  0  0  0  0  0  0  0  0  0  0
  150.8775  139.1147  157.7573 N   0  3  0  0  0  0  0  0  0  0  0  0
  150.1156  139.1521  156.6299 C   0  0  0  0  0  0  0  0  0  0  0  0
  149.9838  140.4570  156.2641 N   0  0  0  0  0  0  0  0  0  0  0  0
  149.2526  141.0497  155.1319 C   0  0  0  0  0  0  0  0  0  0  0  0
  148.8420  140.0392  154.0364 C   0  0  1  0  0  0  0  0  0  0  0  0
  149.9891  139.3431  153.5896 O   0  0  0  0  0  0  0  0  0  0  0  0
  147.7924  139.0110  154.5143 C   0  0  0  0  0  0  0  0  0  0  0  0
  147.3546  138.0899  153.4337 N   0  3  1  0  0  0  0  0  0  0  0  0
  146.5830  136.9323  153.9552 C   0  0  0  0  0  0  0  0  0  0  0  0
  146.2728  135.9225  152.8372 C   0  0  0  0  0  0  0  0  0  0  0  0
  145.5143  136.5914  151.6749 C   0  0  2  0  0  0  0  0  0  0  0  0
  145.2631  135.5978  150.5327 C   0  0  0  0  0  0  0  0  0  0  0  0
  144.8029  136.0944  149.3816 N   0  0  0  0  0  0  0  0  0  0  0  0
  145.4811  134.3976  150.6866 O   0  0  0  0  0  0  0  0  0  0  0  0
  146.3216  137.8072  151.1818 C   0  0  0  0  0  0  0  0  0  0  0  0
  146.6236  138.7769  152.3357 C   0  0  0  0  0  0  0  0  0  0  0  0
  150.6524  141.2825  157.1775 C   0  0  0  0  0  0  0  0  0  0  0  0
  150.8084  142.6640  157.2685 C   0  0  0  0  0  0  0  0  0  0  0  0
  151.5724  143.1614  158.3484 C   0  0  0  0  0  0  0  0  0  0  0  0
  151.7600  144.6640  158.4719 C   0  0  0  0  0  0  0  0  0  0  0  0
  153.3280  142.0296  161.1067 H   0  0  0  0  0  0  0  0  0  0  0  0
  152.3753  143.5104  161.0617 H   0  0  0  0  0  0  0  0  0  0  0  0
  153.8452  143.3683  160.0849 H   0  0  0  0  0  0  0  0  0  0  0  0
  152.4195  140.2093  159.9166 H   0  0  0  0  0  0  0  0  0  0  0  0
  149.6927  138.2992  156.1186 H   0  0  0  0  0  0  0  0  0  0  0  0
  148.3584  141.5178  155.5453 H   0  0  0  0  0  0  0  0  0  0  0  0
  149.8461  141.8632  154.7128 H   0  0  0  0  0  0  0  0  0  0  0  0
  148.4582  140.6132  153.1939 H   0  0  0  0  0  0  0  0  0  0  0  0
  150.1056  139.5023  152.6654 H   0  0  0  0  0  0  0  0  0  0  0  0
  148.2181  138.4349  155.3374 H   0  0  0  0  0  0  0  0  0  0  0  0
  146.9179  139.5198  154.9232 H   0  0  0  0  0  0  0  0  0  0  0  0
  147.1538  136.4299  154.7373 H   0  0  0  0  0  0  0  0  0  0  0  0
  145.6580  137.2853  154.4140 H   0  0  0  0  0  0  0  0  0  0  0  0
  147.2072  135.4864  152.4796 H   0  0  0  0  0  0  0  0  0  0  0  0
  145.6846  135.0983  153.2433 H   0  0  0  0  0  0  0  0  0  0  0  0
  144.5513  136.9441  152.0487 H   0  0  0  0  0  0  0  0  0  0  0  0
  144.6207  135.4817  148.6000 H   0  0  0  0  0  0  0  0  0  0  0  0
  144.6370  137.0872  149.2970 H   0  0  0  0  0  0  0  0  0  0  0  0
  147.2610  137.4828  150.7305 H   0  0  0  0  0  0  0  0  0  0  0  0
  145.7693  138.3314  150.4005 H   0  0  0  0  0  0  0  0  0  0  0  0
  145.6940  139.1974  152.7228 H   0  0  0  0  0  0  0  0  0  0  0  0
  147.2079  139.6115  151.9498 H   0  0  0  0  0  0  0  0  0  0  0  0
  150.3692  143.3343  156.5447 H   0  0  0  0  0  0  0  0  0  0  0  0
  151.2749  145.1960  157.6530 H   0  0  0  0  0  0  0  0  0  0  0  0
  152.8193  144.9215  158.4546 H   0  0  0  0  0  0  0  0  0  0  0  0
  151.3301  145.0272  159.4058 H   0  0  0  0  0  0  0  0  0  0  0  0
  148.1961  137.7023  153.0316 H   0  0  0  0  0  0  0  0  0  0  0  0
  151.1320  138.2638  158.2429 H   0  0  0  0  0  0  0  0  0  0  0  0
  1  2  1  0  0  0  0
  1 25  1  0  0  0  0
  1 26  1  0  0  0  0
  1 27  1  0  0  0  0
  2 23  1  0  0  0  0
  2  3  2  0  0  0  0
  3  4  1  0  0  0  0
  3 28  1  0  0  0  0
  4 21  2  0  0  0  0
  4  5  1  0  0  0  0
  5  6  2  0  0  0  0
  5 52  1  0  0  0  0
  6  7  1  0  0  0  0
  6 29  1  0  0  0  0
  7  8  1  0  0  0  0
  7 21  1  0  0  0  0
  8  9  1  0  0  0  0
  8 30  1  0  0  0  0
  8 31  1  0  0  0  0
  9 10  1  0  0  0  0
  9 11  1  0  0  0  0
  9 32  1  0  0  0  0
 10 33  1  0  0  0  0
 11 12  1  0  0  0  0
 11 34  1  0  0  0  0
 11 35  1  0  0  0  0
 12 20  1  0  0  0  0
 12 13  1  0  0  0  0
 12 51  1  0  0  0  0
 13 14  1  0  0  0  0
 13 36  1  0  0  0  0
 13 37  1  0  0  0  0
 14 15  1  0  0  0  0
 14 38  1  0  0  0  0
 14 39  1  0  0  0  0
 15 16  1  0  0  0  0
 15 19  1  0  0  0  0
 15 40  1  0  0  0  0
 16 17  1  0  0  0  0
 16 18  2  0  0  0  0
 17 41  1  0  0  0  0
 17 42  1  0  0  0  0
 19 20  1  0  0  0  0
 19 43  1  0  0  0  0
 19 44  1  0  0  0  0
 20 45  1  0  0  0  0
 20 46  1  0  0  0  0
 21 22  1  0  0  0  0
 22 23  2  0  0  0  0
 22 47  1  0  0  0  0
 23 24  1  0  0  0  0
 24 48  1  0  0  0  0
 24 49  1  0  0  0  0
 24 50  1  0  0  0  0
M  CHG  1   5   1
M  CHG  1  12   1
M  END
> <s_m_source_file>
AV-unprocessed.smi

> <i_m_source_file_index>
1695

> <i_lp_mmshare_version>
43012

> <i_f3d_flags>
0

> <s_epik_input>
W0NIM11jKFtjSF0xKWMoW0NIM10pW2NIXWMoYzEyKW4oW2NIXW4yKVtDSDJdW0NASF0oW09IXSlbQ0gyXU4zW0NIMl1bQ0gyXVtDSF0oQyg9TylbTkgyXSlbQ0gyXVtDSDJdMw==

> <s_epik_cmdline>
J2VwaWtfcHl0aG9uJywgJy1waCcsICc3LjAnLCAnLXRuJywgJzgnLCAnLW1hJywgJzIwMCcsICctbWV0YWxfYmluZGluZycsICctaW1hZScsICc8aW5maWxlLm1hZT4nLCAnLW9tYWUnLCAnPG91dGZpbGUubWFlPic=

> <r_epik_Ionization_Penalty>
1.20173

> <r_epik_Ionization_Penalty_Charging>
1.20172

> <r_epik_Ionization_Penalty_Neutral>
1.7852e-06

> <r_epik_State_Penalty>
1.28089

> <r_epik_Charging_Adjusted_Penalty>
2.48261

> <i_epik_Tot_Q>
2

> <i_epik_Tot_abs_Q>
2

> <r_epik_Metal_State_Penalty>
1.35652

> <b_epik_Metal_Only>
0

> <s_lp_Force_Field>
OPLS_2005

> <r_lp_Energy>
30.0744

> <b_lp_Chiralities_Consistent>
1

> <s_lp_Variant>
AV-unprocessed.smi:1695-8

> <Gold.Version>
5.8.1

> <Gold.Id.Protein>
6NUR|6NUR_protein|mol2

> <Gold.PLP.Fitness>
56.3413

> <Gold.PLP.PLP>
-44.6513

> <Gold.PLP.part.hbond>
-4.3736

> <Gold.PLP.part.metal>
0.0000

> <Gold.PLP.part.buried>
0.6185

> <Gold.PLP.part.nonpolar>
-42.3136

> <Gold.PLP.part.repulsive>
0.3843

> <Gold.PLP.ligand.clash>
0.0000

> <Gold.PLP.ligand.torsion>
0.4555

> <Gold.PLP.Chemscore.Hbond>
4.1840

> <Gold.PLP.Chemscore.CHOScore>
0.0000

> <Gold.PLP.Chemscore.Metal>
0.0000

> <Gold.Chemscore.Hbonds>
donor molecule, donor type, donor heavy atom, donor atom, acceptor molecule, acceptor atom, score
      L1  H    10    33       P1  7957  1.00
      L1  H    12    51       P1  7948  1.82
      L1  H    17    41       P1  7921  0.35
      L1  H    17    42       P1 10171  1.00

> <Gold.PLP.Chemscore.Internal.Correction>
0.0490

> <Gold.Rescore>
     Score         DG    S(hbond)    S(metal)    S(lipo)     H(rot)  DE(clash)    DE(int)     intcor
     18.35     -20.34       2.67        0.00     114.57       2.91       0.61       1.38       ----

> <Gold.Chemscore.Fitness>
18.3468

> <Gold.Chemscore.DG>
-20.3391

> <Gold.Chemscore.ZeroCoef>
-5.4800

> <Gold.Chemscore.Hbond>
2.6678

> <Gold.Chemscore.Metal>
0.0000

> <Gold.Chemscore.Lipo>
114.5742

> <Gold.Chemscore.Internal_Hbond>
0.0000

> <Gold.Chemscore.DEClash>
0.6124

> <Gold.Chemscore.DEInternal>
1.3798

> <Gold.Chemscore.Rot>
2.9127

> <Gold.Chemscore.Internal.Correction>
   9.000000E+99

> <Gold.Chemscore.Hbonds>
donor molecule, donor type, donor heavy atom, donor atom, acceptor molecule, acceptor atom, score
      L1  H    10    33       P1  7957  0.91
      L1  H    12    51       P1  7948  0.85
      L1  H    17    41       P1  7921  0.36
      L1  H    17    42       P1 10171  0.97

> <Gold.Chemscore.Hbond.Weighted>
-8.9104

> <Gold.Chemscore.Metal.Weighted>
-0.0000

> <Gold.Chemscore.Lipo.Weighted>
-13.4052

> <Gold.Chemscore.Internal_Hbond.Weighted>
0.0000

> <Gold.Chemscore.DEClash.Weighted>
0.6124

> <Gold.Chemscore.DEInternal.Weighted>
1.3798

> <Gold.Chemscore.Rot.Weighted>
7.4565

> <Gold.Chemscore.Internal.Correction.Weighted>
   9.000000E+99

> <Gold.Protein.RotatedTorsions>
[ 6907 6896 6895 6894 ] final   97.68 input  -60.11 | X-H torsion
[ 7974 7965 7964 7962 ] final   96.54 input  175.53 | X-H torsion
[ 8008 7997 7996 7995 ] final  -25.42 input   59.86 | X-H torsion
[ 10167 10162 10161 10158 ] final   40.28 input  -65.29 | X-H torsion
[ 10718 10713 10712 10709 ] final  -87.87 input   66.30 | X-H torsion
[ 10763 10752 10751 10750 ] final  161.65 input  -60.55 | X-H torsion
[ 11005 11000 10999 10996 ] final   86.01 input  -57.11 | X-H torsion

> <Gold.Protein.ActiveResidues>
 VAL166  LYS551  ARG553  GLY616  TRP617  ASP618  TYR619  PRO620  LYS621  CYS622 
 ASP623  PHE694  ASN695  SER759  ASP760  ASP761  ALA762  ILE779  LEU786  VAL792 
 PHE793  MET794  SER795  GLU796  ALA797  LYS798  CYS799  TRP800  GLU811  SER814 

> <Gold.Protein.RotatedAtoms>
  152.5420  134.0696  159.8187 H   0  0  0  0  0  0  0  0  0  0  0  0  # atno 6907 bound_to 6896
  151.0812  133.5381  159.2628 H   0  0  0  0  0  0  0  0  0  0  0  0  # atno 6908 bound_to 6896
  151.2207  135.0526  159.9002 H   0  0  0  0  0  0  0  0  0  0  0  0  # atno 6909 bound_to 6896
  145.4375  139.2304  143.3110 H   0  0  0  0  0  0  0  0  0  0  0  0  # atno 7974 bound_to 7965
  154.4477  140.1927  156.0616 H   0  0  0  0  0  0  0  0  0  0  0  0  # atno 8008 bound_to 7997
  156.0578  140.3300  155.7399 H   0  0  0  0  0  0  0  0  0  0  0  0  # atno 8009 bound_to 7997
  155.5458  140.0590  157.2851 H   0  0  0  0  0  0  0  0  0  0  0  0  # atno 8010 bound_to 7997
  140.3757  144.2046  150.6131 H   0  0  0  0  0  0  0  0  0  0  0  0  # atno 10167 bound_to 10162
  155.9984  130.4815  150.4933 H   0  0  0  0  0  0  0  0  0  0  0  0  # atno 10718 bound_to 10713
  154.2663  135.2767  155.2757 H   0  0  0  0  0  0  0  0  0  0  0  0  # atno 10763 bound_to 10752
  154.5340  135.5721  153.6786 H   0  0  0  0  0  0  0  0  0  0  0  0  # atno 10764 bound_to 10752
  152.9953  135.6235  154.2815 H   0  0  0  0  0  0  0  0  0  0  0  0  # atno 10765 bound_to 10752
  139.8956  134.8326  156.2661 H   0  0  0  0  0  0  0  0  0  0  0  0  # atno 11005 bound_to 11000
  146.2574  140.5119  142.8868 LP  0  0  0  0  0  0  0  0  0  0  0  0  # atno 17320 bound_to 7965
  144.8143  140.6440  143.6394 LP  0  0  0  0  0  0  0  0  0  0  0  0  # atno 17321 bound_to 7965
  140.4988  143.2324  151.8710 LP  0  0  0  0  0  0  0  0  0  0  0  0  # atno 17342 bound_to 10162
  139.4799  144.5083  151.8967 LP  0  0  0  0  0  0  0  0  0  0  0  0  # atno 17343 bound_to 10162
  157.2926  131.0629  151.2124 LP  0  0  0  0  0  0  0  0  0  0  0  0  # atno 17370 bound_to 10713
  157.3131  130.6900  149.6227 LP  0  0  0  0  0  0  0  0  0  0  0  0  # atno 17371 bound_to 10713
  141.0131  133.7084  156.1144 LP  0  0  0  0  0  0  0  0  0  0  0  0  # atno 17394 bound_to 11000
  140.7340  134.4224  157.5563 LP  0  0  0  0  0  0  0  0  0  0  0  0  # atno 17395 bound_to 11000

$$$$
