AV-unprocessed.smi:2273|AV-procd|sdf|9166|dock3
  -GOLD-   2272012373D 1   1.00000     0.00000
 Structure written by MMmdl.
 53 54  0  0  0  0  0  0  0  0  1 V2000
  153.1085  138.3806  159.0259 C   0  0  0  0  0  0  0  0  0  0  0  0
  152.5513  139.1492  157.8202 C   0  0  0  0  0  0  0  0  0  0  0  0
  152.3754  138.3372  156.5073 C   0  0  0  0  0  0  0  0  0  0  0  0
  151.9200  139.2763  155.3580 C   0  0  0  0  0  0  0  0  0  0  0  0
  150.7766  140.2386  155.7153 C   0  0  0  0  0  0  0  0  0  0  0  0
  151.4043  137.1311  156.6909 C   0  0  2  0  0  0  0  0  0  0  0  0
  150.7362  136.6840  155.3700 C   0  0  0  0  0  0  0  0  0  0  0  0
  149.8318  135.4599  155.6013 C   0  0  2  0  0  0  0  0  0  0  0  0
  149.1343  135.0708  154.3736 N   0  0  0  0  0  0  0  0  0  0  0  0
  148.2942  134.0361  154.1890 C   0  0  0  0  0  0  0  0  0  0  0  0
  148.0269  133.2551  155.1010 O   0  0  0  0  0  0  0  0  0  0  0  0
  147.8061  133.9360  152.9359 N   0  0  0  0  0  0  0  0  0  0  0  0
  146.9238  132.9588  152.4512 C   0  0  0  0  0  0  0  0  0  0  0  0
  145.8763  133.3503  151.6792 C   0  0  0  0  0  0  0  0  0  0  0  0
  145.6627  134.8072  151.2993 C   0  0  0  0  0  0  0  0  0  0  0  0
  144.9497  132.3506  151.1902 C   0  0  0  0  0  0  0  0  0  0  0  0
  145.1344  131.0649  151.5179 C   0  0  0  0  0  0  0  0  0  0  0  0
  146.1958  130.6592  152.3395 N   0  0  0  0  0  0  0  0  0  0  0  0
  146.3010  129.2326  152.6573 C   0  0  0  0  0  0  0  0  0  0  0  0
  147.0910  131.5442  152.8650 C   0  0  0  0  0  0  0  0  0  0  0  0
  147.9630  131.1669  153.6511 O   0  0  0  0  0  0  0  0  0  0  0  0
  148.8128  135.7970  156.6971 C   0  0  0  0  0  0  0  0  0  0  0  0
  149.5267  136.3409  157.9438 C   0  0  0  0  0  0  0  0  0  0  0  0
  150.3413  137.4543  157.5892 O   0  0  0  0  0  0  0  0  0  0  0  0
  153.3267  139.0645  159.8466 H   0  0  0  0  0  0  0  0  0  0  0  0
  154.0352  137.8642  158.7747 H   0  0  0  0  0  0  0  0  0  0  0  0
  152.3927  137.6505  159.4031 H   0  0  0  0  0  0  0  0  0  0  0  0
  151.5996  139.6027  158.1000 H   0  0  0  0  0  0  0  0  0  0  0  0
  153.2351  139.9780  157.6430 H   0  0  0  0  0  0  0  0  0  0  0  0
  153.3502  137.9428  156.2172 H   0  0  0  0  0  0  0  0  0  0  0  0
  152.7556  139.9034  155.0466 H   0  0  0  0  0  0  0  0  0  0  0  0
  151.6405  138.6867  154.4838 H   0  0  0  0  0  0  0  0  0  0  0  0
  150.6234  140.9617  154.9141 H   0  0  0  0  0  0  0  0  0  0  0  0
  150.9990  140.7971  156.6252 H   0  0  0  0  0  0  0  0  0  0  0  0
  149.8308  139.7165  155.8570 H   0  0  0  0  0  0  0  0  0  0  0  0
  151.9654  136.3015  157.1252 H   0  0  0  0  0  0  0  0  0  0  0  0
  150.1424  137.5071  154.9693 H   0  0  0  0  0  0  0  0  0  0  0  0
  151.4774  136.4570  154.6089 H   0  0  0  0  0  0  0  0  0  0  0  0
  150.4390  134.6228  155.9515 H   0  0  0  0  0  0  0  0  0  0  0  0
  149.3041  135.6581  153.5696 H   0  0  0  0  0  0  0  0  0  0  0  0
  148.1911  134.5607  152.2430 H   0  0  0  0  0  0  0  0  0  0  0  0
  144.7967  134.9229  150.6472 H   0  0  0  0  0  0  0  0  0  0  0  0
  146.5337  135.1979  150.7720 H   0  0  0  0  0  0  0  0  0  0  0  0
  145.4960  135.4133  152.1902 H   0  0  0  0  0  0  0  0  0  0  0  0
  144.1197  132.6324  150.5589 H   0  0  0  0  0  0  0  0  0  0  0  0
  144.4790  130.2749  151.1811 H   0  0  0  0  0  0  0  0  0  0  0  0
  147.2883  128.8508  152.3927 H   0  0  0  0  0  0  0  0  0  0  0  0
  145.5681  128.6270  152.1234 H   0  0  0  0  0  0  0  0  0  0  0  0
  146.1471  129.0672  153.7244 H   0  0  0  0  0  0  0  0  0  0  0  0
  148.1098  136.5472  156.3317 H   0  0  0  0  0  0  0  0  0  0  0  0
  148.2243  134.9161  156.9560 H   0  0  0  0  0  0  0  0  0  0  0  0
  148.7935  136.6631  158.6830 H   0  0  0  0  0  0  0  0  0  0  0  0
  150.1338  135.5666  158.4153 H   0  0  0  0  0  0  0  0  0  0  0  0
  1  2  1  0  0  0  0
  1 25  1  0  0  0  0
  1 26  1  0  0  0  0
  1 27  1  0  0  0  0
  2  3  1  0  0  0  0
  2 28  1  0  0  0  0
  2 29  1  0  0  0  0
  3  4  1  0  0  0  0
  3  6  1  0  0  0  0
  3 30  1  0  0  0  0
  4  5  1  0  0  0  0
  4 31  1  0  0  0  0
  4 32  1  0  0  0  0
  5 33  1  0  0  0  0
  5 34  1  0  0  0  0
  5 35  1  0  0  0  0
  6 24  1  0  0  0  0
  6  7  1  0  0  0  0
  6 36  1  0  0  0  0
  7  8  1  0  0  0  0
  7 37  1  0  0  0  0
  7 38  1  0  0  0  0
  8  9  1  0  0  0  0
  8 22  1  0  0  0  0
  8 39  1  0  0  0  0
  9 10  1  0  0  0  0
  9 40  1  0  0  0  0
 10 11  2  0  0  0  0
 10 12  1  0  0  0  0
 12 13  1  0  0  0  0
 12 41  1  0  0  0  0
 13 20  1  0  0  0  0
 13 14  2  0  0  0  0
 14 15  1  0  0  0  0
 14 16  1  0  0  0  0
 15 42  1  0  0  0  0
 15 43  1  0  0  0  0
 15 44  1  0  0  0  0
 16 17  2  0  0  0  0
 16 45  1  0  0  0  0
 17 18  1  0  0  0  0
 17 46  1  0  0  0  0
 18 19  1  0  0  0  0
 18 20  1  0  0  0  0
 19 47  1  0  0  0  0
 19 48  1  0  0  0  0
 19 49  1  0  0  0  0
 20 21  2  0  0  0  0
 22 23  1  0  0  0  0
 22 50  1  0  0  0  0
 22 51  1  0  0  0  0
 23 24  1  0  0  0  0
 23 52  1  0  0  0  0
 23 53  1  0  0  0  0
M  END
> <s_m_source_file>
AV-unprocessed.smi

> <i_m_source_file_index>
2273

> <i_lp_mmshare_version>
43012

> <i_f3d_flags>
0

> <s_epik_input>
W0NIM11bQ0gyXVtDSF0oW0NIMl1bQ0gzXSlbQ0BASF0xW0NIMl1bQ0BIXShbQ0gyXVtDSDJdTzEpW05IXUMoPU8pW05IXWMyYyhbQ0gzXSlbY0hdW2NIXW4oW0NIM10pYzI9Tw==

> <s_epik_cmdline>
J2VwaWtfcHl0aG9uJywgJy1waCcsICc3LjAnLCAnLXRuJywgJzgnLCAnLW1hJywgJzIwMCcsICctbWV0YWxfYmluZGluZycsICctaW1hZScsICc8aW5maWxlLm1hZT4nLCAnLW9tYWUnLCAnPG91dGZpbGUubWFlPic=

> <r_lp_tautomer_probability>
1

> <r_epik_Ionization_Penalty>
2.66245e-05

> <r_epik_Ionization_Penalty_Charging>
6.91055e-06

> <r_epik_Ionization_Penalty_Neutral>
1.97139e-05

> <r_epik_State_Penalty>
-0

> <r_epik_Charging_Adjusted_Penalty>
6.91055e-06

> <i_epik_Tot_Q>
0

> <i_epik_Tot_abs_Q>
0

> <r_epik_Metal_State_Penalty>
-0

> <b_epik_Metal_Only>
0

> <s_lp_Force_Field>
OPLS_2005

> <r_lp_Energy>
42.9176

> <b_lp_Chiralities_Consistent>
1

> <s_lp_Variant>
AV-unprocessed.smi:2273-3

> <Gold.Version>
5.8.1

> <Gold.Id.Protein>
6NUR|6NUR_protein|mol2

> <Gold.PLP.Fitness>
39.7176

> <Gold.PLP.PLP>
-35.5319

> <Gold.PLP.part.hbond>
-2.0000

> <Gold.PLP.part.metal>
0.0000

> <Gold.PLP.part.buried>
-6.0091

> <Gold.PLP.part.nonpolar>
-28.4004

> <Gold.PLP.part.repulsive>
0.1138

> <Gold.PLP.ligand.clash>
0.0000

> <Gold.PLP.ligand.torsion>
1.0934

> <Gold.PLP.Chemscore.Hbond>
1.8928

> <Gold.PLP.Chemscore.CHOScore>
0.0000

> <Gold.PLP.Chemscore.Metal>
0.0000

> <Gold.Chemscore.Hbonds>
donor molecule, donor type, donor heavy atom, donor atom, acceptor molecule, acceptor atom, score
      L1  H     9    40       P1  7948  1.00
      L1  H    12    41       P1  7948  0.84

> <Gold.PLP.Chemscore.Internal.Correction>
0.6941

> <Gold.Rescore>
     Score         DG    S(hbond)    S(metal)    S(lipo)     H(rot)  DE(clash)    DE(int)     intcor
     13.12     -16.41       1.58        0.00      79.38       1.42       0.10       3.20       ----

> <Gold.Chemscore.Fitness>
13.1155

> <Gold.Chemscore.DG>
-16.4148

> <Gold.Chemscore.ZeroCoef>
-5.4800

> <Gold.Chemscore.Hbond>
1.5844

> <Gold.Chemscore.Metal>
0.0000

> <Gold.Chemscore.Lipo>
79.3790

> <Gold.Chemscore.Internal_Hbond>
0.0000

> <Gold.Chemscore.DEClash>
0.0964

> <Gold.Chemscore.DEInternal>
3.2029

> <Gold.Chemscore.Rot>
1.4236

> <Gold.Chemscore.Internal.Correction>
   9.000000E+99

> <Gold.Chemscore.Hbonds>
donor molecule, donor type, donor heavy atom, donor atom, acceptor molecule, acceptor atom, score
      L1  H     9    40       P1  7948  0.48
      L1  H    12    41       P1  7948  0.14

> <Gold.Chemscore.Hbond.Weighted>
-5.2920

> <Gold.Chemscore.Metal.Weighted>
-0.0000

> <Gold.Chemscore.Lipo.Weighted>
-9.2873

> <Gold.Chemscore.Internal_Hbond.Weighted>
0.0000

> <Gold.Chemscore.DEClash.Weighted>
0.0964

> <Gold.Chemscore.DEInternal.Weighted>
3.2029

> <Gold.Chemscore.Rot.Weighted>
3.6445

> <Gold.Chemscore.Internal.Correction.Weighted>
   9.000000E+99

> <Gold.Protein.RotatedTorsions>
[ 6907 6896 6895 6894 ] final    1.85 input  -60.11 | X-H torsion
[ 7974 7965 7964 7962 ] final  -65.04 input  175.53 | X-H torsion
[ 8008 7997 7996 7995 ] final   35.21 input   59.86 | X-H torsion
[ 10167 10162 10161 10158 ] final   24.85 input  -65.29 | X-H torsion
[ 10718 10713 10712 10709 ] final   70.53 input   66.30 | X-H torsion
[ 10763 10752 10751 10750 ] final  -22.98 input  -60.55 | X-H torsion
[ 11005 11000 10999 10996 ] final  -22.87 input  -57.11 | X-H torsion

> <Gold.Protein.ActiveResidues>
 VAL166  LYS551  ARG553  GLY616  TRP617  ASP618  TYR619  PRO620  LYS621  CYS622 
 ASP623  PHE694  ASN695  SER759  ASP760  ASP761  ALA762  ILE779  LEU786  VAL792 
 PHE793  MET794  SER795  GLU796  ALA797  LYS798  CYS799  TRP800  GLU811  SER814 

> <Gold.Protein.RotatedAtoms>
  151.5993  135.1048  160.0056 H   0  0  0  0  0  0  0  0  0  0  0  0  # atno 6907 bound_to 6896
  152.4266  133.7201  159.6539 H   0  0  0  0  0  0  0  0  0  0  0  0  # atno 6908 bound_to 6896
  150.8155  133.8273  159.3184 H   0  0  0  0  0  0  0  0  0  0  0  0  # atno 6909 bound_to 6896
  145.7592  140.8870  143.0439 H   0  0  0  0  0  0  0  0  0  0  0  0  # atno 7974 bound_to 7965
  155.1674  140.3288  155.4399 H   0  0  0  0  0  0  0  0  0  0  0  0  # atno 8008 bound_to 7997
  156.2522  140.1949  156.6729 H   0  0  0  0  0  0  0  0  0  0  0  0  # atno 8009 bound_to 7997
  154.6362  140.0576  156.9777 H   0  0  0  0  0  0  0  0  0  0  0  0  # atno 8010 bound_to 7997
  140.5154  144.0091  150.6392 H   0  0  0  0  0  0  0  0  0  0  0  0  # atno 10167 bound_to 10162
  157.6405  130.9482  150.0664 H   0  0  0  0  0  0  0  0  0  0  0  0  # atno 10718 bound_to 10713
  153.6605  135.6976  153.5179 H   0  0  0  0  0  0  0  0  0  0  0  0  # atno 10763 bound_to 10752
  153.2635  135.4237  155.0917 H   0  0  0  0  0  0  0  0  0  0  0  0  # atno 10764 bound_to 10752
  154.8453  135.3561  154.6150 H   0  0  0  0  0  0  0  0  0  0  0  0  # atno 10765 bound_to 10752
  140.8698  133.7729  156.0173 H   0  0  0  0  0  0  0  0  0  0  0  0  # atno 11005 bound_to 11000
  144.6834  139.9699  143.7482 LP  0  0  0  0  0  0  0  0  0  0  0  0  # atno 17320 bound_to 7965
  146.0281  139.3310  143.0772 LP  0  0  0  0  0  0  0  0  0  0  0  0  # atno 17321 bound_to 7965
  140.3425  143.3011  152.0573 LP  0  0  0  0  0  0  0  0  0  0  0  0  # atno 17342 bound_to 10162
  139.4908  144.6432  151.6833 LP  0  0  0  0  0  0  0  0  0  0  0  0  # atno 17343 bound_to 10162
  156.1681  130.3645  149.9203 LP  0  0  0  0  0  0  0  0  0  0  0  0  # atno 17370 bound_to 10713
  156.7185  130.8998  151.3616 LP  0  0  0  0  0  0  0  0  0  0  0  0  # atno 17371 bound_to 10713
  140.8587  134.2867  157.5244 LP  0  0  0  0  0  0  0  0  0  0  0  0  # atno 17394 bound_to 11000
  139.8711  134.9506  156.4061 LP  0  0  0  0  0  0  0  0  0  0  0  0  # atno 17395 bound_to 11000

$$$$
