AV-unprocessed.smi:3036|AV-procd|sdf|11583|dock6
  -GOLD-   2272016553D 1   1.00000     0.00000
 Structure written by MMmdl.
 42 43  0  0  0  0  0  0  0  0  2 V2000
  146.0510  133.0772  153.8381 C   0  0  0  0  0  0  0  0  0  0  0  0
  147.4192  133.4559  153.2555 C   0  0  1  0  0  0  0  0  0  0  0  0
  147.3999  133.4054  151.7159 C   0  0  0  0  0  0  0  0  0  0  0  0
  146.0817  133.0995  151.1911 N   0  0  0  0  0  0  0  0  0  0  0  0
  145.6721  131.9806  150.4970 C   0  0  0  0  0  0  0  0  0  0  0  0
  144.3506  132.1497  150.1988 C   0  0  0  0  0  0  0  0  0  0  0  0
  144.0350  133.4161  150.7658 C   0  0  0  0  0  0  0  0  0  0  0  0
  145.0735  133.9806  151.3608 N   0  0  0  0  0  0  0  0  0  0  0  0
  147.8087  134.8017  153.7357 N   0  3  0  0  0  0  0  0  0  0  0  0
  148.4137  134.8253  155.0857 C   0  0  0  0  0  0  0  0  0  0  0  0
  149.6860  135.6957  155.1424 C   0  0  0  0  0  0  0  0  0  0  0  0
  149.4419  137.2146  155.0605 C   0  0  0  0  0  0  0  0  0  0  0  0
  148.3221  137.6529  155.3240 O   0  0  0  0  0  0  0  0  0  0  0  0
  150.4642  138.0262  154.6980 N   0  0  0  0  0  0  0  0  0  0  0  0
  150.3456  139.4862  154.6335 C   0  0  0  0  0  0  0  0  0  0  0  0
  151.2885  140.0991  155.6843 C   0  0  0  0  0  0  0  0  0  0  0  0
  152.6241  139.6638  155.4422 O   0  0  0  0  0  0  0  0  0  0  0  0
  152.7651  138.2458  155.4737 C   0  0  0  0  0  0  0  0  0  0  0  0
  151.8424  137.6097  154.4186 C   0  0  0  0  0  0  0  0  0  0  0  0
  145.7532  132.0771  153.5216 H   0  0  0  0  0  0  0  0  0  0  0  0
  145.2747  133.7721  153.5155 H   0  0  0  0  0  0  0  0  0  0  0  0
  146.0723  133.0831  154.9286 H   0  0  0  0  0  0  0  0  0  0  0  0
  148.1416  132.7192  153.6120 H   0  0  0  0  0  0  0  0  0  0  0  0
  147.7063  134.3684  151.3055 H   0  0  0  0  0  0  0  0  0  0  0  0
  148.1151  132.6688  151.3454 H   0  0  0  0  0  0  0  0  0  0  0  0
  146.3481  131.1689  150.2715 H   0  0  0  0  0  0  0  0  0  0  0  0
  143.7063  131.4711  149.6593 H   0  0  0  0  0  0  0  0  0  0  0  0
  143.0898  133.9388  150.7620 H   0  0  0  0  0  0  0  0  0  0  0  0
  148.4736  135.1928  153.0823 H   0  0  0  0  0  0  0  0  0  0  0  0
  147.6809  135.2251  155.7877 H   0  0  0  0  0  0  0  0  0  0  0  0
  148.6310  133.8051  155.4067 H   0  0  0  0  0  0  0  0  0  0  0  0
  150.2324  135.4679  156.0586 H   0  0  0  0  0  0  0  0  0  0  0  0
  150.3303  135.4144  154.3085 H   0  0  0  0  0  0  0  0  0  0  0  0
  150.6223  139.8273  153.6349 H   0  0  0  0  0  0  0  0  0  0  0  0
  149.3280  139.8408  154.8026 H   0  0  0  0  0  0  0  0  0  0  0  0
  151.2574  141.1876  155.6312 H   0  0  0  0  0  0  0  0  0  0  0  0
  150.9819  139.8188  156.6933 H   0  0  0  0  0  0  0  0  0  0  0  0
  153.8049  137.9909  155.2696 H   0  0  0  0  0  0  0  0  0  0  0  0
  152.5334  137.8697  156.4714 H   0  0  0  0  0  0  0  0  0  0  0  0
  151.9860  136.5306  154.4110 H   0  0  0  0  0  0  0  0  0  0  0  0
  152.1235  137.9524  153.4219 H   0  0  0  0  0  0  0  0  0  0  0  0
  146.9850  135.3861  153.7441 H   0  0  0  0  0  0  0  0  0  0  0  0
  1  2  1  0  0  0  0
  1 20  1  0  0  0  0
  1 21  1  0  0  0  0
  1 22  1  0  0  0  0
  2  3  1  0  0  0  0
  2  9  1  0  0  0  0
  2 23  1  0  0  0  0
  3  4  1  0  0  0  0
  3 24  1  0  0  0  0
  3 25  1  0  0  0  0
  4  8  1  0  0  0  0
  4  5  1  0  0  0  0
  5  6  2  0  0  0  0
  5 26  1  0  0  0  0
  6  7  1  0  0  0  0
  6 27  1  0  0  0  0
  7  8  2  0  0  0  0
  7 28  1  0  0  0  0
  9 10  1  0  0  0  0
  9 29  1  0  0  0  0
  9 42  1  0  0  0  0
 10 11  1  0  0  0  0
 10 30  1  0  0  0  0
 10 31  1  0  0  0  0
 11 12  1  0  0  0  0
 11 32  1  0  0  0  0
 11 33  1  0  0  0  0
 12 13  2  0  0  0  0
 12 14  1  0  0  0  0
 14 19  1  0  0  0  0
 14 15  1  0  0  0  0
 15 16  1  0  0  0  0
 15 34  1  0  0  0  0
 15 35  1  0  0  0  0
 16 17  1  0  0  0  0
 16 36  1  0  0  0  0
 16 37  1  0  0  0  0
 17 18  1  0  0  0  0
 18 19  1  0  0  0  0
 18 38  1  0  0  0  0
 18 39  1  0  0  0  0
 19 40  1  0  0  0  0
 19 41  1  0  0  0  0
M  CHG  1   9   1
M  END
> <s_m_source_file>
AV-unprocessed.smi

> <i_m_source_file_index>
3036

> <i_lp_mmshare_version>
43012

> <i_f3d_flags>
0

> <s_epik_input>
bjFbY0hdW2NIXVtjSF1uMVtDSDJdW0NAQEhdKFtDSDNdKVtOSF1bQ0gyXVtDSDJdQyg9TylOMltDSDJdW0NIMl1PW0NIMl1bQ0gyXTI=

> <s_epik_cmdline>
J2VwaWtfcHl0aG9uJywgJy1waCcsICc3LjAnLCAnLXRuJywgJzgnLCAnLW1hJywgJzIwMCcsICctbWV0YWxfYmluZGluZycsICctaW1hZScsICc8aW5maWxlLm1hZT4nLCAnLW9tYWUnLCAnPG91dGZpbGUubWFlPic=

> <r_lp_tautomer_probability>
1

> <r_epik_Ionization_Penalty>
0.00797109

> <r_epik_Ionization_Penalty_Charging>
0.0079672

> <r_epik_Ionization_Penalty_Neutral>
3.88864e-06

> <r_epik_State_Penalty>
0.00597998

> <r_epik_Charging_Adjusted_Penalty>
0.0139472

> <i_epik_Tot_Q>
1

> <i_epik_Tot_abs_Q>
1

> <r_epik_Metal_State_Penalty>
0.00598029

> <b_epik_Metal_Only>
0

> <s_lp_Force_Field>
OPLS_2005

> <r_lp_Energy>
23.754

> <b_lp_Chiralities_Consistent>
1

> <s_lp_Variant>
AV-unprocessed.smi:3036-2

> <Gold.Version>
5.8.1

> <Gold.Id.Protein>
6NUR|6NUR_protein|mol2

> <Gold.PLP.Fitness>
45.4736

> <Gold.PLP.PLP>
-33.7434

> <Gold.PLP.part.hbond>
-2.4510

> <Gold.PLP.part.metal>
0.0000

> <Gold.PLP.part.buried>
-2.3391

> <Gold.PLP.part.nonpolar>
-29.7679

> <Gold.PLP.part.repulsive>
0.1801

> <Gold.PLP.ligand.clash>
0.0000

> <Gold.PLP.ligand.torsion>
1.6764

> <Gold.PLP.Chemscore.Hbond>
3.0000

> <Gold.PLP.Chemscore.CHOScore>
1.9948

> <Gold.PLP.Chemscore.Metal>
0.0000

> <Gold.Chemscore.Hbonds>
donor molecule, donor type, donor heavy atom, donor atom, acceptor molecule, acceptor atom, score
      L1  H     9    29       P1  7948  2.00
      P1  H  7997  8010       L1    17  0.99
      L1  C     5    26       P1 10747  0.74
      L1  C     7    28       P1 10186  1.00

> <Gold.PLP.Chemscore.Internal.Correction>
0.0986

> <Gold.Rescore>
     Score         DG    S(hbond)    S(metal)    S(lipo)     H(rot)  DE(clash)    DE(int)     intcor
     11.04     -14.16       1.41        0.00      79.16       2.07       0.07       3.05       ----

> <Gold.Chemscore.Fitness>
11.0411

> <Gold.Chemscore.DG>
-14.1615

> <Gold.Chemscore.ZeroCoef>
-5.4800

> <Gold.Chemscore.Hbond>
1.4115

> <Gold.Chemscore.Metal>
0.0000

> <Gold.Chemscore.Lipo>
79.1563

> <Gold.Chemscore.Internal_Hbond>
0.0000

> <Gold.Chemscore.DEClash>
0.0741

> <Gold.Chemscore.DEInternal>
3.0463

> <Gold.Chemscore.Rot>
2.0680

> <Gold.Chemscore.Internal.Correction>
   9.000000E+99

> <Gold.Chemscore.Hbonds>
donor molecule, donor type, donor heavy atom, donor atom, acceptor molecule, acceptor atom, score
      L1  H     9    29       P1  7948  0.87
      P1  H  7997  8010       L1    17  0.23

> <Gold.Chemscore.Hbond.Weighted>
-4.7143

> <Gold.Chemscore.Metal.Weighted>
-0.0000

> <Gold.Chemscore.Lipo.Weighted>
-9.2613

> <Gold.Chemscore.Internal_Hbond.Weighted>
0.0000

> <Gold.Chemscore.DEClash.Weighted>
0.0741

> <Gold.Chemscore.DEInternal.Weighted>
3.0463

> <Gold.Chemscore.Rot.Weighted>
5.2941

> <Gold.Chemscore.Internal.Correction.Weighted>
   9.000000E+99

> <Gold.Protein.RotatedTorsions>
[ 6907 6896 6895 6894 ] final -175.37 input  -60.11 | X-H torsion
[ 7974 7965 7964 7962 ] final -176.06 input  175.53 | X-H torsion
[ 8008 7997 7996 7995 ] final  114.45 input   59.86 | X-H torsion
[ 10167 10162 10161 10158 ] final  -84.63 input  -65.29 | X-H torsion
[ 10718 10713 10712 10709 ] final  -65.27 input   66.30 | X-H torsion
[ 10763 10752 10751 10750 ] final   92.95 input  -60.55 | X-H torsion
[ 11005 11000 10999 10996 ] final -113.55 input  -57.11 | X-H torsion

> <Gold.Protein.ActiveResidues>
 VAL166  LYS551  ARG553  GLY616  TRP617  ASP618  TYR619  PRO620  LYS621  CYS622 
 ASP623  PHE694  ASN695  SER759  ASP760  ASP761  ALA762  ILE779  LEU786  VAL792 
 PHE793  MET794  SER795  GLU796  ALA797  LYS798  CYS799  TRP800  GLU811  SER814 

> <Gold.Protein.RotatedAtoms>
  151.5874  133.3370  159.3020 H   0  0  0  0  0  0  0  0  0  0  0  0  # atno 6907 bound_to 6896
  150.8279  134.7522  159.6840 H   0  0  0  0  0  0  0  0  0  0  0  0  # atno 6908 bound_to 6896
  152.4366  134.5680  159.9964 H   0  0  0  0  0  0  0  0  0  0  0  0  # atno 6909 bound_to 6896
  144.7127  140.1227  143.6404 H   0  0  0  0  0  0  0  0  0  0  0  0  # atno 7974 bound_to 7965
  156.2322  140.2959  156.0218 H   0  0  0  0  0  0  0  0  0  0  0  0  # atno 8008 bound_to 7997
  155.2193  140.0415  157.2963 H   0  0  0  0  0  0  0  0  0  0  0  0  # atno 8009 bound_to 7997
  154.6015  140.2428  155.7793 H   0  0  0  0  0  0  0  0  0  0  0  0  # atno 8010 bound_to 7997
  140.4114  143.2621  151.9012 H   0  0  0  0  0  0  0  0  0  0  0  0  # atno 10167 bound_to 10162
  156.0679  130.4245  150.1540 H   0  0  0  0  0  0  0  0  0  0  0  0  # atno 10718 bound_to 10713
  153.2249  135.4343  155.0530 H   0  0  0  0  0  0  0  0  0  0  0  0  # atno 10763 bound_to 10752
  154.8268  135.3365  154.6873 H   0  0  0  0  0  0  0  0  0  0  0  0  # atno 10764 bound_to 10752
  153.7303  135.7011  153.5047 H   0  0  0  0  0  0  0  0  0  0  0  0  # atno 10765 bound_to 10752
  141.0607  133.9539  157.2671 H   0  0  0  0  0  0  0  0  0  0  0  0  # atno 11005 bound_to 11000
  145.9357  139.2635  143.1299 LP  0  0  0  0  0  0  0  0  0  0  0  0  # atno 17320 bound_to 7965
  145.9477  140.8932  143.0275 LP  0  0  0  0  0  0  0  0  0  0  0  0  # atno 17321 bound_to 7965
  139.4782  144.5533  151.8353 LP  0  0  0  0  0  0  0  0  0  0  0  0  # atno 17342 bound_to 10162
  140.4633  144.1690  150.5909 LP  0  0  0  0  0  0  0  0  0  0  0  0  # atno 17343 bound_to 10162
  156.9597  130.9801  151.3481 LP  0  0  0  0  0  0  0  0  0  0  0  0  # atno 17370 bound_to 10713
  157.5732  130.8325  149.8420 LP  0  0  0  0  0  0  0  0  0  0  0  0  # atno 17371 bound_to 10713
  139.9430  135.0188  156.8767 LP  0  0  0  0  0  0  0  0  0  0  0  0  # atno 17394 bound_to 11000
  140.5874  134.0294  155.7486 LP  0  0  0  0  0  0  0  0  0  0  0  0  # atno 17395 bound_to 11000

$$$$
