AV-unprocessed.smi:99|AV-procd|sdf|872|dock5
  -GOLD-   2262017333D 1   1.00000     0.00000
 Structure written by MMmdl.
 53 56  0  0  0  0  0  0  0  0  1 V2000
  151.8626  137.2299  154.0827 O   0  0  0  0  0  0  0  0  0  0  0  0
  150.7100  137.3271  154.5092 C   0  0  0  0  0  0  0  0  0  0  0  0
  150.0408  136.3101  155.0866 O   0  0  0  0  0  0  0  0  0  0  0  0
  150.6399  135.0284  155.1770 C   0  0  0  0  0  0  0  0  0  0  0  0
  149.8487  134.1681  156.1820 C   0  0  1  0  0  0  0  0  0  0  0  0
  150.0267  134.7185  157.4806 O   0  0  0  0  0  0  0  0  0  0  0  0
  149.0591  135.6947  157.7182 C   0  0  2  0  0  0  0  0  0  0  0  0
  148.6237  135.5708  159.1631 N   0  0  0  0  0  0  0  0  0  0  0  0
  148.2211  134.3440  159.6727 C   0  0  0  0  0  0  0  0  0  0  0  0
  147.8314  134.1685  160.9574 C   0  0  0  0  0  0  0  0  0  0  0  0
  147.8188  135.2939  161.8865 C   0  0  0  0  0  0  0  0  0  0  0  0
  147.4859  135.2339  163.0681 O   0  0  0  0  0  0  0  0  0  0  0  0
  148.2272  136.5101  161.3305 N   0  0  0  0  0  0  0  0  0  0  0  0
  148.6282  136.7038  160.0071 C   0  0  0  0  0  0  0  0  0  0  0  0
  148.9558  137.8262  159.6244 O   0  0  0  0  0  0  0  0  0  0  0  0
  147.9066  135.4850  156.7091 C   0  0  2  0  0  0  0  0  0  0  0  0
  146.6257  135.3385  157.2962 O   0  0  0  0  0  0  0  0  0  0  0  0
  148.3257  134.2040  155.9949 C   0  0  1  0  0  0  0  0  0  0  0  0
  147.9861  134.2281  154.6127 O   0  0  0  0  0  0  0  0  0  0  0  0
  147.9319  133.0903  153.8889 C   0  0  0  0  0  0  0  0  0  0  0  0
  148.6257  132.0985  154.1209 O   0  0  0  0  0  0  0  0  0  0  0  0
  146.9363  133.1574  152.7809 C   0  0  0  0  0  0  0  0  0  0  0  0
  146.4245  131.9568  152.2358 C   0  0  0  0  0  0  0  0  0  0  0  0
  145.4819  131.9884  151.1898 C   0  0  0  0  0  0  0  0  0  0  0  0
  145.0400  133.2211  150.6757 C   0  0  0  0  0  0  0  0  0  0  0  0
  145.5422  134.4225  151.2086 C   0  0  0  0  0  0  0  0  0  0  0  0
  146.4845  134.3932  152.2551 C   0  0  0  0  0  0  0  0  0  0  0  0
  149.9097  138.5837  154.4399 C   0  0  0  0  0  0  0  0  0  0  0  0
  148.6091  138.6088  154.9957 C   0  0  0  0  0  0  0  0  0  0  0  0
  147.8307  139.7815  154.9467 C   0  0  0  0  0  0  0  0  0  0  0  0
  148.3428  140.9436  154.3408 C   0  0  0  0  0  0  0  0  0  0  0  0
  149.6349  140.9316  153.7841 C   0  0  0  0  0  0  0  0  0  0  0  0
  150.4154  139.7599  153.8327 C   0  0  0  0  0  0  0  0  0  0  0  0
  148.2286  137.3174  161.9370 H   0  0  0  0  0  0  0  0  0  0  0  0
  150.6758  134.5541  154.1954 H   0  0  0  0  0  0  0  0  0  0  0  0
  151.6684  135.1551  155.5172 H   0  0  0  0  0  0  0  0  0  0  0  0
  150.2122  133.1402  156.1504 H   0  0  0  0  0  0  0  0  0  0  0  0
  149.5384  136.6673  157.5993 H   0  0  0  0  0  0  0  0  0  0  0  0
  148.2088  133.4845  159.0176 H   0  0  0  0  0  0  0  0  0  0  0  0
  147.5260  133.1904  161.2994 H   0  0  0  0  0  0  0  0  0  0  0  0
  147.9028  136.3314  156.0206 H   0  0  0  0  0  0  0  0  0  0  0  0
  145.9820  135.7083  156.7111 H   0  0  0  0  0  0  0  0  0  0  0  0
  147.9016  133.3343  156.5002 H   0  0  0  0  0  0  0  0  0  0  0  0
  146.7485  130.9980  152.6142 H   0  0  0  0  0  0  0  0  0  0  0  0
  145.0980  131.0650  150.7819 H   0  0  0  0  0  0  0  0  0  0  0  0
  144.3170  133.2451  149.8737 H   0  0  0  0  0  0  0  0  0  0  0  0
  145.2036  135.3692  150.8140 H   0  0  0  0  0  0  0  0  0  0  0  0
  146.8492  135.3340  152.6408 H   0  0  0  0  0  0  0  0  0  0  0  0
  148.1946  137.7291  155.4666 H   0  0  0  0  0  0  0  0  0  0  0  0
  146.8395  139.7893  155.3758 H   0  0  0  0  0  0  0  0  0  0  0  0
  147.7456  141.8429  154.3038 H   0  0  0  0  0  0  0  0  0  0  0  0
  150.0294  141.8231  153.3189 H   0  0  0  0  0  0  0  0  0  0  0  0
  151.4035  139.7856  153.3969 H   0  0  0  0  0  0  0  0  0  0  0  0
  1  2  2  0  0  0  0
  2  3  1  0  0  0  0
  2 28  1  0  0  0  0
  3  4  1  0  0  0  0
  4  5  1  0  0  0  0
  4 35  1  0  0  0  0
  4 36  1  0  0  0  0
  5 18  1  0  0  0  0
  5  6  1  0  0  0  0
  5 37  1  0  0  0  0
  6  7  1  0  0  0  0
  7  8  1  0  0  0  0
  7 16  1  0  0  0  0
  7 38  1  0  0  0  0
  8 14  1  0  0  0  0
  8  9  1  0  0  0  0
  9 10  2  0  0  0  0
  9 39  1  0  0  0  0
 10 11  1  0  0  0  0
 10 40  1  0  0  0  0
 11 12  2  0  0  0  0
 11 13  1  0  0  0  0
 13 34  1  0  0  0  0
 13 14  1  0  0  0  0
 14 15  2  0  0  0  0
 16 17  1  0  0  0  0
 16 18  1  0  0  0  0
 16 41  1  0  0  0  0
 17 42  1  0  0  0  0
 18 19  1  0  0  0  0
 18 43  1  0  0  0  0
 19 20  1  0  0  0  0
 20 21  2  0  0  0  0
 20 22  1  0  0  0  0
 22 27  1  0  0  0  0
 22 23  2  0  0  0  0
 23 24  1  0  0  0  0
 23 44  1  0  0  0  0
 24 25  2  0  0  0  0
 24 45  1  0  0  0  0
 25 26  1  0  0  0  0
 25 46  1  0  0  0  0
 26 27  2  0  0  0  0
 26 47  1  0  0  0  0
 27 48  1  0  0  0  0
 28 33  1  0  0  0  0
 28 29  2  0  0  0  0
 29 30  1  0  0  0  0
 29 49  1  0  0  0  0
 30 31  2  0  0  0  0
 30 50  1  0  0  0  0
 31 32  1  0  0  0  0
 31 51  1  0  0  0  0
 32 33  2  0  0  0  0
 32 52  1  0  0  0  0
 33 53  1  0  0  0  0
M  END
> <s_m_source_file>
AV-unprocessed.smi

> <i_m_source_file_index>
99

> <i_lp_mmshare_version>
43012

> <i_f3d_flags>
0

> <s_epik_input>
W2NIXTFbY0hdW2NIXVtjSF1bY0hdYzFDKD1PKU9bQ0gyXVtDQEBIXTJPW0NAQEhdKG4zW2NIXVtjSF1jKD1PKVtuSF1jMz1PKVtDQEBIXShbT0hdKVtDQEhdMk9DKD1PKWM0W2NIXVtjSF1bY0hdW2NIXVtjSF00

> <s_epik_cmdline>
J2VwaWtfcHl0aG9uJywgJy1waCcsICc3LjAnLCAnLXRuJywgJzgnLCAnLW1hJywgJzIwMCcsICctbWV0YWxfYmluZGluZycsICctaW1hZScsICc8aW5maWxlLm1hZT4nLCAnLW9tYWUnLCAnPG91dGZpbGUubWFlPic=

> <r_lp_tautomer_probability>
1

> <r_epik_Ionization_Penalty>
0.00454555

> <r_epik_Ionization_Penalty_Charging>
0.0045191

> <r_epik_Ionization_Penalty_Neutral>
2.64449e-05

> <r_epik_State_Penalty>
-0

> <r_epik_Charging_Adjusted_Penalty>
0.0045191

> <i_epik_Tot_Q>
0

> <i_epik_Tot_abs_Q>
0

> <r_epik_Metal_State_Penalty>
1.27877

> <b_epik_Metal_Only>
0

> <s_epik_Chemistry_Notes>
This compound has an ester and may undergo hydrolysis at high or low pH. This compound contains an acetal/aminal-like group ( X-CH(R)-Y where X, Y are N, S, or O) that may be acid/base labile, releasing an aldehyde.

> <s_lp_Force_Field>
OPLS_2005

> <r_lp_Energy>
42.9918

> <b_lp_Chiralities_Consistent>
1

> <s_lp_Variant>
AV-unprocessed.smi:99-8

> <Gold.Version>
5.8.1

> <Gold.Id.Protein>
6NUR|6NUR_protein|mol2

> <Gold.PLP.Fitness>
51.7451

> <Gold.PLP.PLP>
-45.3415

> <Gold.PLP.part.hbond>
-5.0000

> <Gold.PLP.part.metal>
0.0000

> <Gold.PLP.part.buried>
-7.7417

> <Gold.PLP.part.nonpolar>
-33.9716

> <Gold.PLP.part.repulsive>
0.5084

> <Gold.PLP.ligand.clash>
0.0000

> <Gold.PLP.ligand.torsion>
1.0128

> <Gold.PLP.Chemscore.Hbond>
2.5983

> <Gold.PLP.Chemscore.CHOScore>
0.0000

> <Gold.PLP.Chemscore.Metal>
0.0000

> <Gold.Chemscore.Hbonds>
donor molecule, donor type, donor heavy atom, donor atom, acceptor molecule, acceptor atom, score
      P1  H  6896  6909       L1     6  0.69
      P1  H  6931  6943       L1    15  0.01
      P1  H 10752 10763       L1     1  1.00

> <Gold.PLP.Chemscore.Internal.Correction>
0.6344

> <Gold.Rescore>
     Score         DG    S(hbond)    S(metal)    S(lipo)     H(rot)  DE(clash)    DE(int)     intcor
     11.47     -15.94       2.54        0.00      86.64       3.19       0.58       3.88       ----

> <Gold.Chemscore.Fitness>
11.4677

> <Gold.Chemscore.DG>
-15.9352

> <Gold.Chemscore.ZeroCoef>
-5.4800

> <Gold.Chemscore.Hbond>
2.5404

> <Gold.Chemscore.Metal>
0.0000

> <Gold.Chemscore.Lipo>
86.6442

> <Gold.Chemscore.Internal_Hbond>
0.0000

> <Gold.Chemscore.DEClash>
0.5846

> <Gold.Chemscore.DEInternal>
3.8829

> <Gold.Chemscore.Rot>
3.1903

> <Gold.Chemscore.Internal.Correction>
   9.000000E+99

> <Gold.Chemscore.Hbonds>
donor molecule, donor type, donor heavy atom, donor atom, acceptor molecule, acceptor atom, score
      P1  H  6896  6909       L1     6  0.47
      P1  H 10752 10763       L1     1  0.97

> <Gold.Chemscore.Hbond.Weighted>
-8.4850

> <Gold.Chemscore.Metal.Weighted>
-0.0000

> <Gold.Chemscore.Lipo.Weighted>
-10.1374

> <Gold.Chemscore.Internal_Hbond.Weighted>
0.0000

> <Gold.Chemscore.DEClash.Weighted>
0.5846

> <Gold.Chemscore.DEInternal.Weighted>
3.8829

> <Gold.Chemscore.Rot.Weighted>
8.1671

> <Gold.Chemscore.Internal.Correction.Weighted>
   9.000000E+99

> <Gold.Protein.RotatedTorsions>
[ 6907 6896 6895 6894 ] final   12.91 input  -60.11 | X-H torsion
[ 7974 7965 7964 7962 ] final  105.83 input  175.53 | X-H torsion
[ 8008 7997 7996 7995 ] final  -62.54 input   59.86 | X-H torsion
[ 10167 10162 10161 10158 ] final   83.56 input  -65.29 | X-H torsion
[ 10718 10713 10712 10709 ] final  -56.12 input   66.30 | X-H torsion
[ 10763 10752 10751 10750 ] final   34.34 input  -60.55 | X-H torsion
[ 11005 11000 10999 10996 ] final  -52.68 input  -57.11 | X-H torsion

> <Gold.Protein.ActiveResidues>
 VAL166  LYS551  ARG553  GLY616  TRP617  ASP618  TYR619  PRO620  LYS621  CYS622 
 ASP623  PHE694  ASN695  SER759  ASP760  ASP761  ALA762  ILE779  LEU786  VAL792 
 PHE793  MET794  SER795  GLU796  ALA797  LYS798  CYS799  TRP800  GLU811  SER814 

> <Gold.Protein.RotatedAtoms>
  151.7779  135.0769  160.0369 H   0  0  0  0  0  0  0  0  0  0  0  0  # atno 6907 bound_to 6896
  152.3243  133.5884  159.5774 H   0  0  0  0  0  0  0  0  0  0  0  0  # atno 6908 bound_to 6896
  150.7387  133.9879  159.3639 H   0  0  0  0  0  0  0  0  0  0  0  0  # atno 6909 bound_to 6896
  145.3146  139.2530  143.3744 H   0  0  0  0  0  0  0  0  0  0  0  0  # atno 7974 bound_to 7965
  154.4505  140.0994  156.6603 H   0  0  0  0  0  0  0  0  0  0  0  0  # atno 8008 bound_to 7997
  155.5300  140.3481  155.4406 H   0  0  0  0  0  0  0  0  0  0  0  0  # atno 8009 bound_to 7997
  156.0671  140.1340  156.9862 H   0  0  0  0  0  0  0  0  0  0  0  0  # atno 8010 bound_to 7997
  139.9171  144.6235  150.8477 H   0  0  0  0  0  0  0  0  0  0  0  0  # atno 10167 bound_to 10162
  156.1313  130.4159  150.0263 H   0  0  0  0  0  0  0  0  0  0  0  0  # atno 10718 bound_to 10713
  153.0168  135.6363  154.1654 H   0  0  0  0  0  0  0  0  0  0  0  0  # atno 10763 bound_to 10752
  154.1392  135.2835  155.3167 H   0  0  0  0  0  0  0  0  0  0  0  0  # atno 10764 bound_to 10752
  154.6137  135.5548  153.7562 H   0  0  0  0  0  0  0  0  0  0  0  0  # atno 10765 bound_to 10752
  141.0937  133.6628  156.4061 H   0  0  0  0  0  0  0  0  0  0  0  0  # atno 11005 bound_to 11000
  146.3105  140.3690  142.8672 LP  0  0  0  0  0  0  0  0  0  0  0  0  # atno 17320 bound_to 7965
  144.8988  140.7616  143.5880 LP  0  0  0  0  0  0  0  0  0  0  0  0  # atno 17321 bound_to 7965
  140.7671  143.3323  151.2383 LP  0  0  0  0  0  0  0  0  0  0  0  0  # atno 17342 bound_to 10162
  139.6893  143.9720  152.2850 LP  0  0  0  0  0  0  0  0  0  0  0  0  # atno 17343 bound_to 10162
  156.8174  130.9346  151.3642 LP  0  0  0  0  0  0  0  0  0  0  0  0  # atno 17370 bound_to 10713
  157.6491  130.8869  149.9597 LP  0  0  0  0  0  0  0  0  0  0  0  0  # atno 17371 bound_to 10713
  140.5191  134.6321  157.5312 LP  0  0  0  0  0  0  0  0  0  0  0  0  # atno 17394 bound_to 11000
  139.9768  134.7201  155.9934 LP  0  0  0  0  0  0  0  0  0  0  0  0  # atno 17395 bound_to 11000

$$$$
