AV-unprocessed.smi:2856|AV-procd|sdf|10995|dock3
  -GOLD-   2272015453D 1   1.00000     0.00000
 Structure written by MMmdl.
 37 38  0  0  0  0  0  0  0  0  1 V2000
  152.4735  141.8697  158.6797 C   0  0  0  0  0  0  0  0  0  0  0  0
  151.8607  140.1714  158.8412 S   0  0  0  0  0  0  0  0  0  0  0  0
  151.6645  139.7018  157.0919 C   0  0  2  0  0  0  0  0  0  0  0  0
  150.7398  140.6979  156.3652 C   0  0  0  0  0  0  0  0  0  0  0  0
  150.5847  140.3420  154.8781 C   0  0  0  0  0  0  0  0  0  0  0  0
  150.0837  138.9012  154.6986 C   0  0  0  0  0  0  0  0  0  0  0  0
  151.0009  137.8991  155.4205 C   0  0  0  0  0  0  0  0  0  0  0  0
  151.1782  138.2416  156.9158 C   0  0  2  0  0  0  0  0  0  0  0  0
  149.9352  138.0107  157.6530 N   0  0  0  0  0  0  0  0  0  0  0  0
  149.8192  137.2838  158.7730 C   0  0  0  0  0  0  0  0  0  0  0  0
  150.7644  136.7052  159.3098 O   0  0  0  0  0  0  0  0  0  0  0  0
  148.5514  137.2751  159.2179 N   0  0  0  0  0  0  0  0  0  0  0  0
  148.0440  136.6209  160.3692 C   0  0  0  0  0  0  0  0  0  0  0  0
  148.0203  135.2032  160.4508 C   0  0  0  0  0  0  0  0  0  0  0  0
  147.4725  134.9748  161.6821 C   0  0  0  0  0  0  0  0  0  0  0  0
  147.1463  133.7290  162.4321 C   0  0  0  0  0  0  0  0  0  0  0  0
  147.1851  136.1533  162.2988 O   0  0  0  0  0  0  0  0  0  0  0  0
  147.5548  137.2052  161.4524 N   0  0  0  0  0  0  0  0  0  0  0  0
  152.5668  142.3267  159.6647 H   0  0  0  0  0  0  0  0  0  0  0  0
  151.7850  142.4701  158.0853 H   0  0  0  0  0  0  0  0  0  0  0  0
  153.4539  141.8853  158.2044 H   0  0  0  0  0  0  0  0  0  0  0  0
  152.6530  139.7864  156.6382 H   0  0  0  0  0  0  0  0  0  0  0  0
  149.7584  140.7120  156.8411 H   0  0  0  0  0  0  0  0  0  0  0  0
  151.1384  141.7088  156.4572 H   0  0  0  0  0  0  0  0  0  0  0  0
  149.8950  141.0378  154.3994 H   0  0  0  0  0  0  0  0  0  0  0  0
  151.5438  140.4604  154.3726 H   0  0  0  0  0  0  0  0  0  0  0  0
  149.0669  138.8157  155.0840 H   0  0  0  0  0  0  0  0  0  0  0  0
  150.0312  138.6566  153.6372 H   0  0  0  0  0  0  0  0  0  0  0  0
  150.6123  136.8867  155.3037 H   0  0  0  0  0  0  0  0  0  0  0  0
  151.9786  137.9022  154.9371 H   0  0  0  0  0  0  0  0  0  0  0  0
  151.9438  137.5775  157.3182 H   0  0  0  0  0  0  0  0  0  0  0  0
  149.1055  138.4527  157.2855 H   0  0  0  0  0  0  0  0  0  0  0  0
  147.8768  137.7941  158.6757 H   0  0  0  0  0  0  0  0  0  0  0  0
  148.3490  134.4717  159.7276 H   0  0  0  0  0  0  0  0  0  0  0  0
  147.6360  132.8648  161.9831 H   0  0  0  0  0  0  0  0  0  0  0  0
  146.0714  133.5483  162.4296 H   0  0  0  0  0  0  0  0  0  0  0  0
  147.4752  133.8025  163.4688 H   0  0  0  0  0  0  0  0  0  0  0  0
  1  2  1  0  0  0  0
  1 19  1  0  0  0  0
  1 20  1  0  0  0  0
  1 21  1  0  0  0  0
  2  3  1  0  0  0  0
  3  8  1  0  0  0  0
  3  4  1  0  0  0  0
  3 22  1  0  0  0  0
  4  5  1  0  0  0  0
  4 23  1  0  0  0  0
  4 24  1  0  0  0  0
  5  6  1  0  0  0  0
  5 25  1  0  0  0  0
  5 26  1  0  0  0  0
  6  7  1  0  0  0  0
  6 27  1  0  0  0  0
  6 28  1  0  0  0  0
  7  8  1  0  0  0  0
  7 29  1  0  0  0  0
  7 30  1  0  0  0  0
  8  9  1  0  0  0  0
  8 31  1  0  0  0  0
  9 10  1  0  0  0  0
  9 32  1  0  0  0  0
 10 11  2  0  0  0  0
 10 12  1  0  0  0  0
 12 13  1  0  0  0  0
 12 33  1  0  0  0  0
 13 18  2  0  0  0  0
 13 14  1  0  0  0  0
 14 15  2  0  0  0  0
 14 34  1  0  0  0  0
 15 16  1  0  0  0  0
 15 17  1  0  0  0  0
 16 35  1  0  0  0  0
 16 36  1  0  0  0  0
 16 37  1  0  0  0  0
 17 18  1  0  0  0  0
M  END
> <s_m_source_file>
AV-unprocessed.smi

> <i_m_source_file_index>
2856

> <i_lp_mmshare_version>
43012

> <i_f3d_flags>
0

> <s_epik_input>
W0NIM11TW0NAQEhdMVtDSDJdW0NIMl1bQ0gyXVtDSDJdW0NASF0xW05IXUMoPU8pW05IXWMyW2NIXWMoW0NIM10pb24y

> <s_epik_cmdline>
J2VwaWtfcHl0aG9uJywgJy1waCcsICc3LjAnLCAnLXRuJywgJzgnLCAnLW1hJywgJzIwMCcsICctbWV0YWxfYmluZGluZycsICctaW1hZScsICc8aW5maWxlLm1hZT4nLCAnLW9tYWUnLCAnPG91dGZpbGUubWFlPic=

> <r_lp_tautomer_probability>
1

> <r_epik_Ionization_Penalty>
2.20874e-05

> <r_epik_Ionization_Penalty_Charging>
0

> <r_epik_Ionization_Penalty_Neutral>
2.20874e-05

> <r_epik_State_Penalty>
-0

> <r_epik_Charging_Adjusted_Penalty>
0

> <i_epik_Tot_Q>
0

> <i_epik_Tot_abs_Q>
0

> <r_epik_Metal_State_Penalty>
-0

> <b_epik_Metal_Only>
0

> <s_lp_Force_Field>
OPLS_2005

> <r_lp_Energy>
4.88366

> <b_lp_Chiralities_Consistent>
1

> <s_lp_Variant>
AV-unprocessed.smi:2856-3

> <Gold.Version>
5.8.1

> <Gold.Id.Protein>
6NUR|6NUR_protein|mol2

> <Gold.PLP.Fitness>
35.9797

> <Gold.PLP.PLP>
-28.9568

> <Gold.PLP.part.hbond>
-3.0000

> <Gold.PLP.part.metal>
0.0000

> <Gold.PLP.part.buried>
-2.2062

> <Gold.PLP.part.nonpolar>
-23.8356

> <Gold.PLP.part.repulsive>
0.2479

> <Gold.PLP.ligand.clash>
0.0000

> <Gold.PLP.ligand.torsion>
0.7332

> <Gold.PLP.Chemscore.Hbond>
2.8240

> <Gold.PLP.Chemscore.CHOScore>
0.0000

> <Gold.PLP.Chemscore.Metal>
0.0000

> <Gold.Chemscore.Hbonds>
donor molecule, donor type, donor heavy atom, donor atom, acceptor molecule, acceptor atom, score
      P1  H  6896  6909       L1    11  1.00
      P1  H  6931  6943       L1    18  0.90
      P1  H  6934  6947       L1    18  0.85

> <Gold.PLP.Chemscore.Internal.Correction>
0.0173

> <Gold.Rescore>
     Score         DG    S(hbond)    S(metal)    S(lipo)     H(rot)  DE(clash)    DE(int)     intcor
     16.35     -18.74       2.27        0.00      75.14       1.21       1.68       0.71       ----

> <Gold.Chemscore.Fitness>
16.3534

> <Gold.Chemscore.DG>
-18.7395

> <Gold.Chemscore.ZeroCoef>
-5.4800

> <Gold.Chemscore.Hbond>
2.2660

> <Gold.Chemscore.Metal>
0.0000

> <Gold.Chemscore.Lipo>
75.1383

> <Gold.Chemscore.Internal_Hbond>
0.0000

> <Gold.Chemscore.DEClash>
1.6790

> <Gold.Chemscore.DEInternal>
0.7070

> <Gold.Chemscore.Rot>
1.2109

> <Gold.Chemscore.Internal.Correction>
   9.000000E+99

> <Gold.Chemscore.Hbonds>
donor molecule, donor type, donor heavy atom, donor atom, acceptor molecule, acceptor atom, score
      P1  H  6896  6909       L1    11  0.99
      P1  H  6931  6943       L1    18  0.19
      P1  H  6934  6947       L1    18  0.46

> <Gold.Chemscore.Hbond.Weighted>
-7.5683

> <Gold.Chemscore.Metal.Weighted>
-0.0000

> <Gold.Chemscore.Lipo.Weighted>
-8.7912

> <Gold.Chemscore.Internal_Hbond.Weighted>
0.0000

> <Gold.Chemscore.DEClash.Weighted>
1.6790

> <Gold.Chemscore.DEInternal.Weighted>
0.7070

> <Gold.Chemscore.Rot.Weighted>
3.1000

> <Gold.Chemscore.Internal.Correction.Weighted>
   9.000000E+99

> <Gold.Protein.RotatedTorsions>
[ 6907 6896 6895 6894 ] final   83.81 input  -60.11 | X-H torsion
[ 7974 7965 7964 7962 ] final   51.11 input  175.53 | X-H torsion
[ 8008 7997 7996 7995 ] final  -79.93 input   59.86 | X-H torsion
[ 10167 10162 10161 10158 ] final    2.09 input  -65.29 | X-H torsion
[ 10718 10713 10712 10709 ] final  -19.02 input   66.30 | X-H torsion
[ 10763 10752 10751 10750 ] final   47.25 input  -60.55 | X-H torsion
[ 11005 11000 10999 10996 ] final   51.79 input  -57.11 | X-H torsion

> <Gold.Protein.ActiveResidues>
 VAL166  LYS551  ARG553  GLY616  TRP617  ASP618  TYR619  PRO620  LYS621  CYS622 
 ASP623  PHE694  ASN695  SER759  ASP760  ASP761  ALA762  ILE779  LEU786  VAL792 
 PHE793  MET794  SER795  GLU796  ALA797  LYS798  CYS799  TRP800  GLU811  SER814 

> <Gold.Protein.RotatedAtoms>
  152.5337  134.2838  159.9017 H   0  0  0  0  0  0  0  0  0  0  0  0  # atno 6907 bound_to 6896
  151.2792  133.4211  159.2633 H   0  0  0  0  0  0  0  0  0  0  0  0  # atno 6908 bound_to 6896
  151.0299  134.9547  159.8162 H   0  0  0  0  0  0  0  0  0  0  0  0  # atno 6909 bound_to 6896
  145.9946  139.4374  143.0053 H   0  0  0  0  0  0  0  0  0  0  0  0  # atno 7974 bound_to 7965
  154.5833  140.0671  156.9135 H   0  0  0  0  0  0  0  0  0  0  0  0  # atno 8008 bound_to 7997
  155.2425  140.3345  155.4272 H   0  0  0  0  0  0  0  0  0  0  0  0  # atno 8009 bound_to 7997
  156.2204  140.1796  156.7474 H   0  0  0  0  0  0  0  0  0  0  0  0  # atno 8010 bound_to 7997
  140.6652  143.7199  150.7813 H   0  0  0  0  0  0  0  0  0  0  0  0  # atno 10167 bound_to 10162
  156.5515  130.4703  149.6449 H   0  0  0  0  0  0  0  0  0  0  0  0  # atno 10718 bound_to 10713
  152.9802  135.5982  154.3732 H   0  0  0  0  0  0  0  0  0  0  0  0  # atno 10763 bound_to 10752
  154.3403  135.2768  155.2428 H   0  0  0  0  0  0  0  0  0  0  0  0  # atno 10764 bound_to 10752
  154.4512  135.5989  153.6248 H   0  0  0  0  0  0  0  0  0  0  0  0  # atno 10765 bound_to 10752
  140.0903  134.5219  155.8859 H   0  0  0  0  0  0  0  0  0  0  0  0  # atno 11005 bound_to 11000
  145.7580  140.9947  143.1215 LP  0  0  0  0  0  0  0  0  0  0  0  0  # atno 17320 bound_to 7965
  144.6899  139.9295  143.7471 LP  0  0  0  0  0  0  0  0  0  0  0  0  # atno 17321 bound_to 7965
  140.0874  143.4910  152.2497 LP  0  0  0  0  0  0  0  0  0  0  0  0  # atno 17342 bound_to 10162
  139.5898  144.7545  151.3428 LP  0  0  0  0  0  0  0  0  0  0  0  0  # atno 17343 bound_to 10162
  156.2880  130.7108  151.1950 LP  0  0  0  0  0  0  0  0  0  0  0  0  # atno 17370 bound_to 10713
  157.7386  131.0538  150.5282 LP  0  0  0  0  0  0  0  0  0  0  0  0  # atno 17371 bound_to 10713
  141.2075  133.6665  156.6313 LP  0  0  0  0  0  0  0  0  0  0  0  0  # atno 17394 bound_to 11000
  140.3362  134.7887  157.4363 LP  0  0  0  0  0  0  0  0  0  0  0  0  # atno 17395 bound_to 11000

$$$$
