AV-unprocessed.smi:652|AV-procd|sdf|3203|dock3
  -GOLD-   22720 0133D 1   1.00000     0.00000
 Structure written by MMmdl.
 48 49  0  0  0  0  0  0  0  0  2 V2000
  149.9896  132.5675  154.0059 C   0  0  0  0  0  0  0  0  0  0  0  0
  148.6888  133.3381  153.7305 C   0  0  0  0  0  0  0  0  0  0  0  0
  148.1322  133.0291  152.3343 C   0  0  0  0  0  0  0  0  0  0  0  0
  148.9106  134.7758  153.8577 N   0  0  0  0  0  0  0  0  0  0  0  0
  149.2194  135.4198  154.9943 C   0  0  0  0  0  0  0  0  0  0  0  0
  149.3529  134.8517  156.0786 O   0  0  0  0  0  0  0  0  0  0  0  0
  149.3978  136.9368  154.8836 C   0  0  0  0  0  0  0  0  0  0  0  0
  148.3547  137.7206  155.7054 C   0  0  0  0  0  0  0  0  0  0  0  0
  148.4138  139.1738  155.5506 N   0  0  0  0  0  0  0  0  0  0  0  0
  148.1802  139.5599  154.1633 C   0  0  0  0  0  0  0  0  0  0  0  0
  148.2246  141.0857  153.9752 C   0  0  0  0  0  0  0  0  0  0  0  0
  149.4774  141.5881  154.4289 O   0  0  0  0  0  0  0  0  0  0  0  0
  149.7462  141.2636  155.7907 C   0  0  2  0  0  0  0  0  0  0  0  0
  151.0891  141.8904  156.1979 C   0  0  0  0  0  0  0  0  0  0  0  0
  150.9209  143.1750  156.8623 N   0  0  0  0  0  0  0  0  0  0  0  0
  151.4716  143.3973  158.1309 C   0  0  0  0  0  0  0  0  0  0  0  0
  151.3562  144.6136  158.8429 C   0  0  0  0  0  0  0  0  0  0  0  0
  151.9600  144.7042  160.1087 C   0  0  0  0  0  0  0  0  0  0  0  0
  152.6436  143.5724  160.5870 C   0  0  0  0  0  0  0  0  0  0  0  0
  152.7422  142.4180  159.8909 N   0  0  0  0  0  0  0  0  0  0  0  0
  152.1535  142.3627  158.6828 N   0  3  0  0  0  0  0  0  0  0  0  0
  149.6893  139.7336  155.9904 C   0  0  0  0  0  0  0  0  0  0  0  0
  149.8321  131.4920  153.9209 H   0  0  0  0  0  0  0  0  0  0  0  0
  150.3622  132.7647  155.0115 H   0  0  0  0  0  0  0  0  0  0  0  0
  150.7731  132.8454  153.2999 H   0  0  0  0  0  0  0  0  0  0  0  0
  147.9399  133.0274  154.4614 H   0  0  0  0  0  0  0  0  0  0  0  0
  147.9261  131.9641  152.2224 H   0  0  0  0  0  0  0  0  0  0  0  0
  148.8362  133.3155  151.5522 H   0  0  0  0  0  0  0  0  0  0  0  0
  147.1992  133.5645  152.1557 H   0  0  0  0  0  0  0  0  0  0  0  0
  148.8217  135.3242  153.0145 H   0  0  0  0  0  0  0  0  0  0  0  0
  150.4004  137.2053  155.2200 H   0  0  0  0  0  0  0  0  0  0  0  0
  149.3365  137.2000  153.8279 H   0  0  0  0  0  0  0  0  0  0  0  0
  147.3517  137.3680  155.4590 H   0  0  0  0  0  0  0  0  0  0  0  0
  148.5072  137.4761  156.7579 H   0  0  0  0  0  0  0  0  0  0  0  0
  148.9281  139.0954  153.5185 H   0  0  0  0  0  0  0  0  0  0  0  0
  147.2100  139.1865  153.8336 H   0  0  0  0  0  0  0  0  0  0  0  0
  148.0982  141.3424  152.9235 H   0  0  0  0  0  0  0  0  0  0  0  0
  147.4122  141.5658  154.5227 H   0  0  0  0  0  0  0  0  0  0  0  0
  148.9688  141.7219  156.4047 H   0  0  0  0  0  0  0  0  0  0  0  0
  151.6213  141.2098  156.8639 H   0  0  0  0  0  0  0  0  0  0  0  0
  151.7105  142.0256  155.3118 H   0  0  0  0  0  0  0  0  0  0  0  0
  150.2477  143.8274  156.4861 H   0  0  0  0  0  0  0  0  0  0  0  0
  150.8218  145.4621  158.4426 H   0  0  0  0  0  0  0  0  0  0  0  0
  151.9021  145.6102  160.6937 H   0  0  0  0  0  0  0  0  0  0  0  0
  153.1252  143.5923  161.5536 H   0  0  0  0  0  0  0  0  0  0  0  0
  149.8527  139.5147  157.0451 H   0  0  0  0  0  0  0  0  0  0  0  0
  150.5030  139.2569  155.4420 H   0  0  0  0  0  0  0  0  0  0  0  0
  152.2243  141.4951  158.1507 H   0  0  0  0  0  0  0  0  0  0  0  0
  1  2  1  0  0  0  0
  1 23  1  0  0  0  0
  1 24  1  0  0  0  0
  1 25  1  0  0  0  0
  2  3  1  0  0  0  0
  2  4  1  0  0  0  0
  2 26  1  0  0  0  0
  3 27  1  0  0  0  0
  3 28  1  0  0  0  0
  3 29  1  0  0  0  0
  4  5  1  0  0  0  0
  4 30  1  0  0  0  0
  5  6  2  0  0  0  0
  5  7  1  0  0  0  0
  7  8  1  0  0  0  0
  7 31  1  0  0  0  0
  7 32  1  0  0  0  0
  8  9  1  0  0  0  0
  8 33  1  0  0  0  0
  8 34  1  0  0  0  0
  9 22  1  0  0  0  0
  9 10  1  0  0  0  0
 10 11  1  0  0  0  0
 10 35  1  0  0  0  0
 10 36  1  0  0  0  0
 11 12  1  0  0  0  0
 11 37  1  0  0  0  0
 11 38  1  0  0  0  0
 12 13  1  0  0  0  0
 13 14  1  0  0  0  0
 13 22  1  0  0  0  0
 13 39  1  0  0  0  0
 14 15  1  0  0  0  0
 14 40  1  0  0  0  0
 14 41  1  0  0  0  0
 15 16  1  0  0  0  0
 15 42  1  0  0  0  0
 16 21  1  0  0  0  0
 16 17  2  0  0  0  0
 17 18  1  0  0  0  0
 17 43  1  0  0  0  0
 18 19  2  0  0  0  0
 18 44  1  0  0  0  0
 19 20  1  0  0  0  0
 19 45  1  0  0  0  0
 20 21  2  0  0  0  0
 21 48  1  0  0  0  0
 22 46  1  0  0  0  0
 22 47  1  0  0  0  0
M  CHG  1  21   1
M  END
> <s_m_source_file>
AV-unprocessed.smi

> <i_m_source_file_index>
652

> <i_lp_mmshare_version>
43012

> <i_f3d_flags>
0

> <s_epik_input>
W0NIM11bQ0hdKFtDSDNdKVtOSF1DKD1PKVtDSDJdW0NIMl1OMVtDSDJdW0NIMl1PW0NASF0oW0NIMl0xKVtDSDJdW05IXWMyW2NIXVtjSF1bY0hdbm4y

> <s_epik_cmdline>
J2VwaWtfcHl0aG9uJywgJy1waCcsICc3LjAnLCAnLXRuJywgJzgnLCAnLW1hJywgJzIwMCcsICctbWV0YWxfYmluZGluZycsICctaW1hZScsICc8aW5maWxlLm1hZT4nLCAnLW9tYWUnLCAnPG91dGZpbGUubWFlPic=

> <r_epik_Ionization_Penalty>
2.70989

> <r_epik_Ionization_Penalty_Charging>
2.3023

> <r_epik_Ionization_Penalty_Neutral>
0.407592

> <r_epik_State_Penalty>
2.65305

> <r_epik_Charging_Adjusted_Penalty>
4.95534

> <i_epik_Tot_Q>
1

> <i_epik_Tot_abs_Q>
1

> <r_epik_Metal_State_Penalty>
2.66064

> <b_epik_Metal_Only>
0

> <s_lp_Force_Field>
OPLS_2005

> <r_lp_Energy>
34.9838

> <b_lp_Chiralities_Consistent>
1

> <s_lp_Variant>
AV-unprocessed.smi:652-12

> <Gold.Version>
5.8.1

> <Gold.Id.Protein>
6NUR|6NUR_protein|mol2

> <Gold.PLP.Fitness>
48.1536

> <Gold.PLP.PLP>
-39.8808

> <Gold.PLP.part.hbond>
-4.0000

> <Gold.PLP.part.metal>
0.0000

> <Gold.PLP.part.buried>
-4.8818

> <Gold.PLP.part.nonpolar>
-29.4253

> <Gold.PLP.part.repulsive>
0.3436

> <Gold.PLP.ligand.clash>
0.2112

> <Gold.PLP.ligand.torsion>
0.6051

> <Gold.PLP.Chemscore.Hbond>
3.2057

> <Gold.PLP.Chemscore.CHOScore>
0.0000

> <Gold.PLP.Chemscore.Metal>
0.0000

> <Gold.Chemscore.Hbonds>
donor molecule, donor type, donor heavy atom, donor atom, acceptor molecule, acceptor atom, score
      L1  H     4    30       P1  7948  0.78
      L1  H    15    42       P1  8028  2.00
      P1  H  8011  8017       L1    12  0.09

> <Gold.PLP.Chemscore.Internal.Correction>
0.0770

> <Gold.Rescore>
     Score         DG    S(hbond)    S(metal)    S(lipo)     H(rot)  DE(clash)    DE(int)     intcor
     15.92     -16.67       1.95        0.00      89.83       2.28       0.01       0.73       ----

> <Gold.Chemscore.Fitness>
15.9234

> <Gold.Chemscore.DG>
-16.6652

> <Gold.Chemscore.ZeroCoef>
-5.4800

> <Gold.Chemscore.Hbond>
1.9472

> <Gold.Chemscore.Metal>
0.0000

> <Gold.Chemscore.Lipo>
89.8315

> <Gold.Chemscore.Internal_Hbond>
0.0000

> <Gold.Chemscore.DEClash>
0.0135

> <Gold.Chemscore.DEInternal>
0.7283

> <Gold.Chemscore.Rot>
2.2768

> <Gold.Chemscore.Internal.Correction>
   9.000000E+99

> <Gold.Chemscore.Hbonds>
donor molecule, donor type, donor heavy atom, donor atom, acceptor molecule, acceptor atom, score
      L1  H     4    30       P1  7948  0.46
      L1  H    15    42       P1  8028  1.00

> <Gold.Chemscore.Hbond.Weighted>
-6.5036

> <Gold.Chemscore.Metal.Weighted>
-0.0000

> <Gold.Chemscore.Lipo.Weighted>
-10.5103

> <Gold.Chemscore.Internal_Hbond.Weighted>
0.0000

> <Gold.Chemscore.DEClash.Weighted>
0.0135

> <Gold.Chemscore.DEInternal.Weighted>
0.7283

> <Gold.Chemscore.Rot.Weighted>
5.8286

> <Gold.Chemscore.Internal.Correction.Weighted>
   9.000000E+99

> <Gold.Protein.RotatedTorsions>
[ 6907 6896 6895 6894 ] final  170.70 input  -60.11 | X-H torsion
[ 7974 7965 7964 7962 ] final   20.55 input  175.53 | X-H torsion
[ 8008 7997 7996 7995 ] final   86.09 input   59.86 | X-H torsion
[ 10167 10162 10161 10158 ] final   78.87 input  -65.29 | X-H torsion
[ 10718 10713 10712 10709 ] final  104.63 input   66.30 | X-H torsion
[ 10763 10752 10751 10750 ] final -166.99 input  -60.55 | X-H torsion
[ 11005 11000 10999 10996 ] final  -42.62 input  -57.11 | X-H torsion

> <Gold.Protein.ActiveResidues>
 VAL166  LYS551  ARG553  GLY616  TRP617  ASP618  TYR619  PRO620  LYS621  CYS622 
 ASP623  PHE694  ASN695  SER759  ASP760  ASP761  ALA762  ILE779  LEU786  VAL792 
 PHE793  MET794  SER795  GLU796  ALA797  LYS798  CYS799  TRP800  GLU811  SER814 

> <Gold.Protein.RotatedAtoms>
  151.8120  133.3383  159.3557 H   0  0  0  0  0  0  0  0  0  0  0  0  # atno 6907 bound_to 6896
  150.7323  134.5655  159.5873 H   0  0  0  0  0  0  0  0  0  0  0  0  # atno 6908 bound_to 6896
  152.3068  134.7546  160.0397 H   0  0  0  0  0  0  0  0  0  0  0  0  # atno 6909 bound_to 6896
  146.2107  139.8153  142.8691 H   0  0  0  0  0  0  0  0  0  0  0  0  # atno 7974 bound_to 7965
  155.9583  140.3395  155.6468 H   0  0  0  0  0  0  0  0  0  0  0  0  # atno 8008 bound_to 7997
  155.6831  140.0740  157.2495 H   0  0  0  0  0  0  0  0  0  0  0  0  # atno 8009 bound_to 7997
  154.4137  140.1671  156.1991 H   0  0  0  0  0  0  0  0  0  0  0  0  # atno 8010 bound_to 7997
  139.9663  144.5926  150.8026 H   0  0  0  0  0  0  0  0  0  0  0  0  # atno 10167 bound_to 10162
  157.6734  131.0808  150.5735 H   0  0  0  0  0  0  0  0  0  0  0  0  # atno 10718 bound_to 10713
  154.6777  135.2949  154.9655 H   0  0  0  0  0  0  0  0  0  0  0  0  # atno 10763 bound_to 10752
  154.0661  135.6624  153.4822 H   0  0  0  0  0  0  0  0  0  0  0  0  # atno 10764 bound_to 10752
  153.0527  135.5164  154.7805 H   0  0  0  0  0  0  0  0  0  0  0  0  # atno 10765 bound_to 10752
  141.0328  133.6812  156.2620 H   0  0  0  0  0  0  0  0  0  0  0  0  # atno 11005 bound_to 11000
  145.3152  141.0230  143.3531 LP  0  0  0  0  0  0  0  0  0  0  0  0  # atno 17320 bound_to 7965
  144.8906  139.4779  143.6679 LP  0  0  0  0  0  0  0  0  0  0  0  0  # atno 17321 bound_to 7965
  140.7537  143.3013  151.3074 LP  0  0  0  0  0  0  0  0  0  0  0  0  # atno 17342 bound_to 10162
  139.6515  144.0353  152.2630 LP  0  0  0  0  0  0  0  0  0  0  0  0  # atno 17343 bound_to 10162
  156.6036  130.4361  149.5887 LP  0  0  0  0  0  0  0  0  0  0  0  0  # atno 17370 bound_to 10713
  156.2486  130.6894  151.1624 LP  0  0  0  0  0  0  0  0  0  0  0  0  # atno 17371 bound_to 10713
  140.6376  134.5199  157.5566 LP  0  0  0  0  0  0  0  0  0  0  0  0  # atno 17394 bound_to 11000
  139.9220  134.8131  156.1183 LP  0  0  0  0  0  0  0  0  0  0  0  0  # atno 17395 bound_to 11000

$$$$
