AV-unprocessed.smi:3160|AV-procd|sdf|12051|dock5
  -GOLD-   2272017483D 1   1.00000     0.00000
 Structure written by MMmdl.
 40 41  0  0  0  0  0  0  0  0  2 V2000
  153.5266  138.4346  155.1407 C   0  0  0  0  0  0  0  0  0  0  0  0
  152.0910  138.8495  154.9949 C   0  0  0  0  0  0  0  0  0  0  0  0
  151.1117  138.3155  154.1105 C   0  0  0  0  0  0  0  0  0  0  0  0
  149.9335  138.9050  154.2319 N   0  0  0  0  0  0  0  0  0  0  0  0
  150.1158  139.8351  155.1935 N   0  0  0  0  0  0  0  0  0  0  0  0
  149.0029  140.6846  155.5983 C   0  0  2  0  0  0  0  0  0  0  0  0
  148.5889  141.5909  154.4244 C   0  0  0  0  0  0  0  0  0  0  0  0
  149.3241  141.4777  156.8925 C   0  0  2  0  0  0  0  0  0  0  0  0
  148.0684  142.0129  157.6048 C   0  0  0  0  0  0  0  0  0  0  0  0
  150.2197  142.6173  156.5884 N   0  3  0  0  0  0  0  0  0  0  0  0
  150.8352  143.2732  157.7626 C   0  0  0  0  0  0  0  0  0  0  0  0
  151.7451  144.4467  157.3903 C   0  0  0  0  0  0  0  0  0  0  0  0
  152.6737  144.6173  158.5983 C   0  0  0  0  0  0  0  0  0  0  0  0
  152.6810  143.2657  159.3312 C   0  0  0  0  0  0  0  0  0  0  0  0
  151.7723  142.3342  158.5216 C   0  0  0  0  0  0  0  0  0  0  0  0
  151.4106  139.8206  155.6726 C   0  0  0  0  0  0  0  0  0  0  0  0
  153.8851  137.9010  154.2601 H   0  0  0  0  0  0  0  0  0  0  0  0
  153.6693  137.7751  155.9969 H   0  0  0  0  0  0  0  0  0  0  0  0
  154.1822  139.2940  155.2828 H   0  0  0  0  0  0  0  0  0  0  0  0
  151.2223  137.5203  153.3882 H   0  0  0  0  0  0  0  0  0  0  0  0
  148.1573  140.0279  155.8133 H   0  0  0  0  0  0  0  0  0  0  0  0
  147.6786  142.1466  154.6485 H   0  0  0  0  0  0  0  0  0  0  0  0
  148.3924  141.0020  153.5277 H   0  0  0  0  0  0  0  0  0  0  0  0
  149.3687  142.3132  154.1818 H   0  0  0  0  0  0  0  0  0  0  0  0
  149.8214  140.8038  157.5919 H   0  0  0  0  0  0  0  0  0  0  0  0
  147.4215  141.2062  157.9499 H   0  0  0  0  0  0  0  0  0  0  0  0
  147.4806  142.6521  156.9451 H   0  0  0  0  0  0  0  0  0  0  0  0
  148.3381  142.6010  158.4828 H   0  0  0  0  0  0  0  0  0  0  0  0
  150.9583  142.2758  155.9900 H   0  0  0  0  0  0  0  0  0  0  0  0
  150.0566  143.6156  158.4464 H   0  0  0  0  0  0  0  0  0  0  0  0
  152.3386  144.1944  156.5101 H   0  0  0  0  0  0  0  0  0  0  0  0
  151.1901  145.3572  157.1626 H   0  0  0  0  0  0  0  0  0  0  0  0
  153.6754  144.9187  158.2892 H   0  0  0  0  0  0  0  0  0  0  0  0
  152.2910  145.3936  159.2617 H   0  0  0  0  0  0  0  0  0  0  0  0
  153.6875  142.8566  159.4256 H   0  0  0  0  0  0  0  0  0  0  0  0
  152.2856  143.3923  160.3400 H   0  0  0  0  0  0  0  0  0  0  0  0
  151.2352  141.6238  159.1511 H   0  0  0  0  0  0  0  0  0  0  0  0
  152.3790  141.7612  157.8184 H   0  0  0  0  0  0  0  0  0  0  0  0
  151.7385  140.4951  156.4497 H   0  0  0  0  0  0  0  0  0  0  0  0
  149.6948  143.3134  156.0786 H   0  0  0  0  0  0  0  0  0  0  0  0
  1  2  1  0  0  0  0
  1 17  1  0  0  0  0
  1 18  1  0  0  0  0
  1 19  1  0  0  0  0
  2 16  2  0  0  0  0
  2  3  1  0  0  0  0
  3  4  2  0  0  0  0
  3 20  1  0  0  0  0
  4  5  1  0  0  0  0
  5  6  1  0  0  0  0
  5 16  1  0  0  0  0
  6  7  1  0  0  0  0
  6  8  1  0  0  0  0
  6 21  1  0  0  0  0
  7 22  1  0  0  0  0
  7 23  1  0  0  0  0
  7 24  1  0  0  0  0
  8  9  1  0  0  0  0
  8 10  1  0  0  0  0
  8 25  1  0  0  0  0
  9 26  1  0  0  0  0
  9 27  1  0  0  0  0
  9 28  1  0  0  0  0
 10 11  1  0  0  0  0
 10 29  1  0  0  0  0
 10 40  1  0  0  0  0
 11 15  1  0  0  0  0
 11 12  1  0  0  0  0
 11 30  1  0  0  0  0
 12 13  1  0  0  0  0
 12 31  1  0  0  0  0
 12 32  1  0  0  0  0
 13 14  1  0  0  0  0
 13 33  1  0  0  0  0
 13 34  1  0  0  0  0
 14 15  1  0  0  0  0
 14 35  1  0  0  0  0
 14 36  1  0  0  0  0
 15 37  1  0  0  0  0
 15 38  1  0  0  0  0
 16 39  1  0  0  0  0
M  CHG  1  10   1
M  END
> <s_m_source_file>
AV-unprocessed.smi

> <i_m_source_file_index>
3160

> <i_lp_mmshare_version>
43012

> <i_f3d_flags>
0

> <s_epik_input>
W0NIM11jMVtjSF1ubihbY0hdMSlbQ0BIXShbQ0gzXSlbQ0BIXShbQ0gzXSlbTkhdW0NIXTJbQ0gyXVtDSDJdW0NIMl1bQ0gyXTI=

> <s_epik_cmdline>
J2VwaWtfcHl0aG9uJywgJy1waCcsICc3LjAnLCAnLXRuJywgJzgnLCAnLW1hJywgJzIwMCcsICctbWV0YWxfYmluZGluZycsICctaW1hZScsICc8aW5maWxlLm1hZT4nLCAnLW9tYWUnLCAnPG91dGZpbGUubWFlPic=

> <r_lp_tautomer_probability>
1

> <r_epik_Ionization_Penalty>
0.00117636

> <r_epik_Ionization_Penalty_Charging>
0.00115264

> <r_epik_Ionization_Penalty_Neutral>
2.37123e-05

> <r_epik_State_Penalty>
-0

> <r_epik_Charging_Adjusted_Penalty>
0.00115264

> <i_epik_Tot_Q>
1

> <i_epik_Tot_abs_Q>
1

> <r_epik_Metal_State_Penalty>
-0

> <b_epik_Metal_Only>
0

> <s_lp_Force_Field>
OPLS_2005

> <r_lp_Energy>
32.1139

> <b_lp_Chiralities_Consistent>
1

> <s_lp_Variant>
AV-unprocessed.smi:3160-1

> <Gold.Version>
5.8.1

> <Gold.Id.Protein>
6NUR|6NUR_protein|mol2

> <Gold.PLP.Fitness>
46.7656

> <Gold.PLP.PLP>
-38.2322

> <Gold.PLP.part.hbond>
-1.0000

> <Gold.PLP.part.metal>
0.0000

> <Gold.PLP.part.buried>
-2.9738

> <Gold.PLP.part.nonpolar>
-34.1156

> <Gold.PLP.part.repulsive>
0.2679

> <Gold.PLP.ligand.clash>
0.0000

> <Gold.PLP.ligand.torsion>
0.4442

> <Gold.PLP.Chemscore.Hbond>
2.0000

> <Gold.PLP.Chemscore.CHOScore>
1.1119

> <Gold.PLP.Chemscore.Metal>
0.0000

> <Gold.Chemscore.Hbonds>
donor molecule, donor type, donor heavy atom, donor atom, acceptor molecule, acceptor atom, score
      L1  H    10    40       P1  8028  2.00
      L1  C     3    20       P1  7949  1.00

> <Gold.PLP.Chemscore.Internal.Correction>
0.0861

> <Gold.Rescore>
     Score         DG    S(hbond)    S(metal)    S(lipo)     H(rot)  DE(clash)    DE(int)     intcor
     17.83     -18.17       1.00        0.00     109.96       1.37       0.01       0.33       ----

> <Gold.Chemscore.Fitness>
17.8267

> <Gold.Chemscore.DG>
-18.1739

> <Gold.Chemscore.ZeroCoef>
-5.4800

> <Gold.Chemscore.Hbond>
0.9994

> <Gold.Chemscore.Metal>
0.0000

> <Gold.Chemscore.Lipo>
109.9600

> <Gold.Chemscore.Internal_Hbond>
0.0000

> <Gold.Chemscore.DEClash>
0.0127

> <Gold.Chemscore.DEInternal>
0.3346

> <Gold.Chemscore.Rot>
1.3709

> <Gold.Chemscore.Internal.Correction>
   9.000000E+99

> <Gold.Chemscore.Hbonds>
donor molecule, donor type, donor heavy atom, donor atom, acceptor molecule, acceptor atom, score
      L1  H    10    40       P1  8028  1.00

> <Gold.Chemscore.Hbond.Weighted>
-3.3381

> <Gold.Chemscore.Metal.Weighted>
-0.0000

> <Gold.Chemscore.Lipo.Weighted>
-12.8653

> <Gold.Chemscore.Internal_Hbond.Weighted>
0.0000

> <Gold.Chemscore.DEClash.Weighted>
0.0127

> <Gold.Chemscore.DEInternal.Weighted>
0.3346

> <Gold.Chemscore.Rot.Weighted>
3.5095

> <Gold.Chemscore.Internal.Correction.Weighted>
   9.000000E+99

> <Gold.Protein.RotatedTorsions>
[ 6907 6896 6895 6894 ] final  100.43 input  -60.11 | X-H torsion
[ 7974 7965 7964 7962 ] final   40.09 input  175.53 | X-H torsion
[ 8008 7997 7996 7995 ] final  -26.35 input   59.86 | X-H torsion
[ 10167 10162 10161 10158 ] final  127.72 input  -65.29 | X-H torsion
[ 10718 10713 10712 10709 ] final -161.77 input   66.30 | X-H torsion
[ 10763 10752 10751 10750 ] final  142.50 input  -60.55 | X-H torsion
[ 11005 11000 10999 10996 ] final -177.59 input  -57.11 | X-H torsion

> <Gold.Protein.ActiveResidues>
 VAL166  LYS551  ARG553  GLY616  TRP617  ASP618  TYR619  PRO620  LYS621  CYS622 
 ASP623  PHE694  ASN695  SER759  ASP760  ASP761  ALA762  ILE779  LEU786  VAL792 
 PHE793  MET794  SER795  GLU796  ALA797  LYS798  CYS799  TRP800  GLU811  SER814 

> <Gold.Protein.RotatedAtoms>
  152.5372  134.0278  159.8010 H   0  0  0  0  0  0  0  0  0  0  0  0  # atno 6907 bound_to 6896
  151.0454  133.5662  159.2654 H   0  0  0  0  0  0  0  0  0  0  0  0  # atno 6908 bound_to 6896
  151.2616  135.0663  159.9154 H   0  0  0  0  0  0  0  0  0  0  0  0  # atno 6909 bound_to 6896
  146.0933  139.5574  142.9462 H   0  0  0  0  0  0  0  0  0  0  0  0  # atno 7974 bound_to 7965
  154.4430  140.1902  156.0761 H   0  0  0  0  0  0  0  0  0  0  0  0  # atno 8008 bound_to 7997
  156.0474  140.3312  155.7286 H   0  0  0  0  0  0  0  0  0  0  0  0  # atno 8009 bound_to 7997
  155.5608  140.0603  157.2820 H   0  0  0  0  0  0  0  0  0  0  0  0  # atno 8010 bound_to 7997
  139.5564  144.6851  151.4170 H   0  0  0  0  0  0  0  0  0  0  0  0  # atno 10167 bound_to 10162
  156.6009  130.8810  151.2913 H   0  0  0  0  0  0  0  0  0  0  0  0  # atno 10718 bound_to 10713
  153.9568  135.2964  155.3436 H   0  0  0  0  0  0  0  0  0  0  0  0  # atno 10763 bound_to 10752
  154.7396  135.5030  153.9104 H   0  0  0  0  0  0  0  0  0  0  0  0  # atno 10764 bound_to 10752
  153.0966  135.6723  153.9861 H   0  0  0  0  0  0  0  0  0  0  0  0  # atno 10765 bound_to 10752
  140.4392  134.6447  157.4749 H   0  0  0  0  0  0  0  0  0  0  0  0  # atno 11005 bound_to 11000
  145.5998  141.0357  143.2025 LP  0  0  0  0  0  0  0  0  0  0  0  0  # atno 17320 bound_to 7965
  144.7376  139.7541  143.7323 LP  0  0  0  0  0  0  0  0  0  0  0  0  # atno 17321 bound_to 7965
  140.6837  143.8023  150.7157 LP  0  0  0  0  0  0  0  0  0  0  0  0  # atno 17342 bound_to 10162
  140.1484  143.4379  152.2148 LP  0  0  0  0  0  0  0  0  0  0  0  0  # atno 17343 bound_to 10162
  157.7280  130.9650  150.1721 LP  0  0  0  0  0  0  0  0  0  0  0  0  # atno 17370 bound_to 10713
  156.2470  130.3696  149.8274 LP  0  0  0  0  0  0  0  0  0  0  0  0  # atno 17371 bound_to 10713
  140.0081  134.6732  155.9423 LP  0  0  0  0  0  0  0  0  0  0  0  0  # atno 17394 bound_to 11000
  141.1713  133.6537  156.4661 LP  0  0  0  0  0  0  0  0  0  0  0  0  # atno 17395 bound_to 11000

$$$$
