AV-unprocessed.smi:1720|AV-procd|sdf|6932|dock5
  -GOLD-   22720 8143D 1   1.00000     0.00000
 Structure written by MMmdl.
 32 33  0  0  0  0  0  0  0  0  1 V2000
  147.8997  140.3286  153.8319 C   0  0  0  0  0  0  0  0  0  0  0  0
  148.5301  138.9842  154.2239 C   0  0  1  0  0  0  0  0  0  0  0  0
  147.9517  137.9327  153.3887 N   0  0  0  0  0  0  0  0  0  0  0  0
  146.6510  137.6152  153.3130 C   0  0  0  0  0  0  0  0  0  0  0  0
  145.7694  138.1803  153.9603 O   0  0  0  0  0  0  0  0  0  0  0  0
  146.4472  136.6062  152.4504 N   0  0  0  0  0  0  0  0  0  0  0  0
  145.2111  135.9998  152.1115 C   0  0  0  0  0  0  0  0  0  0  0  0
  144.0841  135.9225  152.9741 C   0  0  0  0  0  0  0  0  0  0  0  0
  143.0696  135.3012  152.3900 N   0  0  0  0  0  0  0  0  0  0  0  0
  143.5389  134.9794  151.1632 N   0  0  0  0  0  0  0  0  0  0  0  0
  144.8381  135.3839  150.9497 C   0  0  0  0  0  0  0  0  0  0  0  0
  150.0661  139.0055  154.0801 C   0  0  2  0  0  0  0  0  0  0  0  0
  150.7805  137.7441  154.5728 C   0  0  0  0  0  0  0  0  0  0  0  0
  152.1609  138.2745  154.8821 C   0  0  0  0  0  0  0  0  0  0  0  0
  151.8372  139.6401  155.4789 C   0  0  0  0  0  0  0  0  0  0  0  0
  150.6262  140.0625  154.8574 O   0  0  0  0  0  0  0  0  0  0  0  0
  142.9666  134.4898  150.4900 H   0  0  0  0  0  0  0  0  0  0  0  0
  148.2683  141.1359  154.4656 H   0  0  0  0  0  0  0  0  0  0  0  0
  146.8149  140.2996  153.9391 H   0  0  0  0  0  0  0  0  0  0  0  0
  148.1261  140.5885  152.7971 H   0  0  0  0  0  0  0  0  0  0  0  0
  148.2860  138.8027  155.2723 H   0  0  0  0  0  0  0  0  0  0  0  0
  148.5981  137.4073  152.8184 H   0  0  0  0  0  0  0  0  0  0  0  0
  147.2625  136.2290  151.9902 H   0  0  0  0  0  0  0  0  0  0  0  0
  143.9703  136.2897  153.9836 H   0  0  0  0  0  0  0  0  0  0  0  0
  145.3556  135.1995  150.0200 H   0  0  0  0  0  0  0  0  0  0  0  0
  150.3426  139.1818  153.0391 H   0  0  0  0  0  0  0  0  0  0  0  0
  150.3147  137.3678  155.4848 H   0  0  0  0  0  0  0  0  0  0  0  0
  150.7865  136.9412  153.8351 H   0  0  0  0  0  0  0  0  0  0  0  0
  152.7272  137.6354  155.5602 H   0  0  0  0  0  0  0  0  0  0  0  0
  152.7327  138.3908  153.9604 H   0  0  0  0  0  0  0  0  0  0  0  0
  151.6618  139.5547  156.5519 H   0  0  0  0  0  0  0  0  0  0  0  0
  152.6388  140.3625  155.3240 H   0  0  0  0  0  0  0  0  0  0  0  0
  1  2  1  0  0  0  0
  1 18  1  0  0  0  0
  1 19  1  0  0  0  0
  1 20  1  0  0  0  0
  2  3  1  0  0  0  0
  2 12  1  0  0  0  0
  2 21  1  0  0  0  0
  3  4  1  0  0  0  0
  3 22  1  0  0  0  0
  4  5  2  0  0  0  0
  4  6  1  0  0  0  0
  6  7  1  0  0  0  0
  6 23  1  0  0  0  0
  7 11  2  0  0  0  0
  7  8  1  0  0  0  0
  8  9  2  0  0  0  0
  8 24  1  0  0  0  0
  9 10  1  0  0  0  0
 10 17  1  0  0  0  0
 10 11  1  0  0  0  0
 11 25  1  0  0  0  0
 12 16  1  0  0  0  0
 12 13  1  0  0  0  0
 12 26  1  0  0  0  0
 13 14  1  0  0  0  0
 13 27  1  0  0  0  0
 13 28  1  0  0  0  0
 14 15  1  0  0  0  0
 14 29  1  0  0  0  0
 14 30  1  0  0  0  0
 15 16  1  0  0  0  0
 15 31  1  0  0  0  0
 15 32  1  0  0  0  0
M  END
> <s_m_source_file>
AV-unprocessed.smi

> <i_m_source_file_index>
1720

> <i_lp_mmshare_version>
43012

> <i_f3d_flags>
0

> <s_epik_input>
TzFbQ0gyXVtDSDJdW0NIMl1bQ0BIXTFbQ0BIXShbQ0gzXSlbTkhdQyg9TylbTkhdYzJbY0hdbltuSF1bY0hdMg==

> <s_epik_cmdline>
J2VwaWtfcHl0aG9uJywgJy1waCcsICc3LjAnLCAnLXRuJywgJzgnLCAnLW1hJywgJzIwMCcsICctbWV0YWxfYmluZGluZycsICctaW1hZScsICc8aW5maWxlLm1hZT4nLCAnLW9tYWUnLCAnPG91dGZpbGUubWFlPic=

> <r_lp_tautomer_probability>
1

> <r_epik_Ionization_Penalty>
4.95841e-05

> <r_epik_Ionization_Penalty_Charging>
0

> <r_epik_Ionization_Penalty_Neutral>
4.95841e-05

> <r_epik_State_Penalty>
-0

> <r_epik_Charging_Adjusted_Penalty>
0

> <i_epik_Tot_Q>
0

> <i_epik_Tot_abs_Q>
0

> <r_epik_Metal_State_Penalty>
-0

> <b_epik_Metal_Only>
0

> <s_lp_Force_Field>
OPLS_2005

> <r_lp_Energy>
20.0519

> <b_lp_Chiralities_Consistent>
1

> <s_lp_Variant>
AV-unprocessed.smi:1720-2

> <Gold.Version>
5.8.1

> <Gold.Id.Protein>
6NUR|6NUR_protein|mol2

> <Gold.PLP.Fitness>
37.3817

> <Gold.PLP.PLP>
-25.3297

> <Gold.PLP.part.hbond>
-3.8828

> <Gold.PLP.part.metal>
0.0000

> <Gold.PLP.part.buried>
-2.2533

> <Gold.PLP.part.nonpolar>
-21.1088

> <Gold.PLP.part.repulsive>
0.4864

> <Gold.PLP.ligand.clash>
0.0000

> <Gold.PLP.ligand.torsion>
0.1896

> <Gold.PLP.Chemscore.Hbond>
3.1408

> <Gold.PLP.Chemscore.CHOScore>
1.0000

> <Gold.PLP.Chemscore.Metal>
0.0000

> <Gold.Chemscore.Hbonds>
donor molecule, donor type, donor heavy atom, donor atom, acceptor molecule, acceptor atom, score
      L1  H     3    22       P1  7948  1.00
      L1  H     6    23       P1  7948  0.98
      L1  H    10    17       P1 10186  0.59
      P1  H  7989  7998       L1    16  0.41
      L1  C    11    25       P1  7921  0.99

> <Gold.PLP.Chemscore.Internal.Correction>
0.0089

> <Gold.Rescore>
     Score         DG    S(hbond)    S(metal)    S(lipo)     H(rot)  DE(clash)    DE(int)     intcor
     15.41     -16.73       2.44        0.00      55.25       1.31       0.02       1.31       ----

> <Gold.Chemscore.Fitness>
15.4059

> <Gold.Chemscore.DG>
-16.7302

> <Gold.Chemscore.ZeroCoef>
-5.4800

> <Gold.Chemscore.Hbond>
2.4353

> <Gold.Chemscore.Metal>
0.0000

> <Gold.Chemscore.Lipo>
55.2519

> <Gold.Chemscore.Internal_Hbond>
0.0000

> <Gold.Chemscore.DEClash>
0.0191

> <Gold.Chemscore.DEInternal>
1.3052

> <Gold.Chemscore.Rot>
1.3079

> <Gold.Chemscore.Internal.Correction>
   9.000000E+99

> <Gold.Chemscore.Hbonds>
donor molecule, donor type, donor heavy atom, donor atom, acceptor molecule, acceptor atom, score
      L1  H     3    22       P1  7948  0.92
      L1  H     6    23       P1  7948  0.93
      L1  H    10    17       P1 10186  0.32

> <Gold.Chemscore.Hbond.Weighted>
-8.1340

> <Gold.Chemscore.Metal.Weighted>
-0.0000

> <Gold.Chemscore.Lipo.Weighted>
-6.4645

> <Gold.Chemscore.Internal_Hbond.Weighted>
0.0000

> <Gold.Chemscore.DEClash.Weighted>
0.0191

> <Gold.Chemscore.DEInternal.Weighted>
1.3052

> <Gold.Chemscore.Rot.Weighted>
3.3483

> <Gold.Chemscore.Internal.Correction.Weighted>
   9.000000E+99

> <Gold.Protein.RotatedTorsions>
[ 6907 6896 6895 6894 ] final   87.74 input  -60.11 | X-H torsion
[ 7974 7965 7964 7962 ] final  -68.21 input  175.53 | X-H torsion
[ 8008 7997 7996 7995 ] final -113.80 input   59.86 | X-H torsion
[ 10167 10162 10161 10158 ] final  -90.29 input  -65.29 | X-H torsion
[ 10718 10713 10712 10709 ] final  -57.42 input   66.30 | X-H torsion
[ 10763 10752 10751 10750 ] final -117.11 input  -60.55 | X-H torsion
[ 11005 11000 10999 10996 ] final  -15.41 input  -57.11 | X-H torsion

> <Gold.Protein.ActiveResidues>
 VAL166  LYS551  ARG553  GLY616  TRP617  ASP618  TYR619  PRO620  LYS621  CYS622 
 ASP623  PHE694  ASN695  SER759  ASP760  ASP761  ALA762  ILE779  LEU786  VAL792 
 PHE793  MET794  SER795  GLU796  ALA797  LYS798  CYS799  TRP800  GLU811  SER814 

> <Gold.Protein.RotatedAtoms>
  152.5415  134.2230  159.8794 H   0  0  0  0  0  0  0  0  0  0  0  0  # atno 6907 bound_to 6896
  151.2206  133.4498  159.2608 H   0  0  0  0  0  0  0  0  0  0  0  0  # atno 6908 bound_to 6896
  151.0809  134.9871  159.8411 H   0  0  0  0  0  0  0  0  0  0  0  0  # atno 6909 bound_to 6896
  145.7194  140.9045  143.0638 H   0  0  0  0  0  0  0  0  0  0  0  0  # atno 7974 bound_to 7965
  155.0264  140.0393  157.2457 H   0  0  0  0  0  0  0  0  0  0  0  0  # atno 8008 bound_to 7997
  154.7334  140.2735  155.6413 H   0  0  0  0  0  0  0  0  0  0  0  0  # atno 8009 bound_to 7997
  156.2847  140.2680  156.2040 H   0  0  0  0  0  0  0  0  0  0  0  0  # atno 8010 bound_to 7997
  140.3563  143.2865  151.9667 H   0  0  0  0  0  0  0  0  0  0  0  0  # atno 10167 bound_to 10162
  156.1212  130.4166  150.0438 H   0  0  0  0  0  0  0  0  0  0  0  0  # atno 10718 bound_to 10713
  154.8543  135.4321  154.1928 H   0  0  0  0  0  0  0  0  0  0  0  0  # atno 10763 bound_to 10752
  153.2992  135.6967  153.7225 H   0  0  0  0  0  0  0  0  0  0  0  0  # atno 10764 bound_to 10752
  153.6362  135.3476  155.3031 H   0  0  0  0  0  0  0  0  0  0  0  0  # atno 10765 bound_to 10752
  140.7964  133.8248  155.9428 H   0  0  0  0  0  0  0  0  0  0  0  0  # atno 11005 bound_to 11000
  144.6921  139.9181  143.7466 LP  0  0  0  0  0  0  0  0  0  0  0  0  # atno 17320 bound_to 7965
  146.0640  139.3632  143.0564 LP  0  0  0  0  0  0  0  0  0  0  0  0  # atno 17321 bound_to 7965
  139.4819  144.6032  151.7569 LP  0  0  0  0  0  0  0  0  0  0  0  0  # atno 17342 bound_to 10162
  140.5170  144.0938  150.6011 LP  0  0  0  0  0  0  0  0  0  0  0  0  # atno 17343 bound_to 10162
  156.8376  130.9414  151.3634 LP  0  0  0  0  0  0  0  0  0  0  0  0  # atno 17370 bound_to 10713
  157.6395  130.8794  149.9422 LP  0  0  0  0  0  0  0  0  0  0  0  0  # atno 17371 bound_to 10713
  140.9339  134.1987  157.4845 LP  0  0  0  0  0  0  0  0  0  0  0  0  # atno 17394 bound_to 11000
  139.8726  134.9844  156.5238 LP  0  0  0  0  0  0  0  0  0  0  0  0  # atno 17395 bound_to 11000

$$$$
