AV-unprocessed.smi:829|AV-procd|sdf|3869|dock2
  -GOLD-   22720 1323D 1   1.00000     0.00000
 Structure written by MMmdl.
 50 52  0  0  0  0  0  0  0  0  3 V2000
  144.8338  139.3020  155.0968 O   0  0  0  0  0  0  0  0  0  0  0  0
  145.9742  138.8639  155.2424 C   0  0  0  0  0  0  0  0  0  0  0  0
  146.3042  137.5618  155.3057 N   0  0  0  0  0  0  0  0  0  0  0  0
  145.4527  136.4266  155.2093 C   0  0  0  0  0  0  0  0  0  0  0  0
  146.0609  135.1513  155.2142 C   0  0  0  0  0  0  0  0  0  0  0  0
  145.2585  133.9967  155.1097 C   0  0  0  0  0  0  0  0  0  0  0  0
  143.9186  134.1171  154.9954 N   0  3  0  0  0  0  0  0  0  0  0  0
  143.2930  135.3133  154.9710 C   0  0  0  0  0  0  0  0  0  0  0  0
  144.0428  136.5029  155.0722 C   0  0  0  0  0  0  0  0  0  0  0  0
  147.0530  139.6493  155.3808 N   0  0  0  0  0  0  0  0  0  0  0  0
  147.0402  141.1124  155.3492 C   0  0  2  0  0  0  0  0  0  0  0  0
  148.0941  141.6422  154.3609 C   0  0  0  0  0  0  0  0  0  0  0  0
  149.5303  141.4686  154.8901 C   0  0  0  0  0  0  0  0  0  0  0  0
  149.6929  142.0965  156.2269 N   0  3  2  0  0  0  0  0  0  0  0  0
  151.0992  142.0798  156.7076 C   0  0  0  0  0  0  0  0  0  0  0  0
  151.2908  142.9481  157.9663 C   0  0  0  0  0  0  0  0  0  0  0  0
  151.6448  144.4018  157.6434 C   0  0  0  0  0  0  0  0  0  0  0  0
  152.2186  144.9655  158.9458 C   0  0  0  0  0  0  0  0  0  0  0  0
  152.7949  143.7646  159.7095 C   0  0  0  0  0  0  0  0  0  0  0  0
  152.4366  142.5188  158.8899 C   0  0  0  0  0  0  0  0  0  0  0  0
  148.7345  141.5315  157.2121 C   0  0  0  0  0  0  0  0  0  0  0  0
  147.2824  141.7253  156.7438 C   0  0  0  0  0  0  0  0  0  0  0  0
  147.2728  137.3594  155.5047 H   0  0  0  0  0  0  0  0  0  0  0  0
  147.1332  135.0531  155.3041 H   0  0  0  0  0  0  0  0  0  0  0  0
  145.6458  132.9882  155.1130 H   0  0  0  0  0  0  0  0  0  0  0  0
  142.2183  135.2846  154.8665 H   0  0  0  0  0  0  0  0  0  0  0  0
  143.5214  137.4468  155.0309 H   0  0  0  0  0  0  0  0  0  0  0  0
  147.9520  139.2045  155.4949 H   0  0  0  0  0  0  0  0  0  0  0  0
  146.0572  141.4272  154.9935 H   0  0  0  0  0  0  0  0  0  0  0  0
  147.9881  141.1504  153.3931 H   0  0  0  0  0  0  0  0  0  0  0  0
  147.9104  142.7024  154.1815 H   0  0  0  0  0  0  0  0  0  0  0  0
  149.7902  140.4105  154.9490 H   0  0  0  0  0  0  0  0  0  0  0  0
  150.2240  141.9264  154.1835 H   0  0  0  0  0  0  0  0  0  0  0  0
  151.4408  141.0571  156.8760 H   0  0  0  0  0  0  0  0  0  0  0  0
  151.7521  142.4813  155.9309 H   0  0  0  0  0  0  0  0  0  0  0  0
  150.3635  142.9521  158.5419 H   0  0  0  0  0  0  0  0  0  0  0  0
  152.4095  144.4350  156.8658 H   0  0  0  0  0  0  0  0  0  0  0  0
  150.7869  144.9730  157.2870 H   0  0  0  0  0  0  0  0  0  0  0  0
  152.9697  145.7334  158.7576 H   0  0  0  0  0  0  0  0  0  0  0  0
  151.4227  145.4248  159.5334 H   0  0  0  0  0  0  0  0  0  0  0  0
  153.8744  143.8497  159.8388 H   0  0  0  0  0  0  0  0  0  0  0  0
  152.3519  143.7090  160.7046 H   0  0  0  0  0  0  0  0  0  0  0  0
  152.1659  141.6754  159.5258 H   0  0  0  0  0  0  0  0  0  0  0  0
  153.3019  142.2217  158.2955 H   0  0  0  0  0  0  0  0  0  0  0  0
  148.9445  140.4712  157.3613 H   0  0  0  0  0  0  0  0  0  0  0  0
  148.8619  142.0121  158.1810 H   0  0  0  0  0  0  0  0  0  0  0  0
  147.0625  142.7930  156.7066 H   0  0  0  0  0  0  0  0  0  0  0  0
  146.5937  141.3048  157.4773 H   0  0  0  0  0  0  0  0  0  0  0  0
  149.4506  143.0698  156.1065 H   0  0  0  0  0  0  0  0  0  0  0  0
  143.3555  133.2693  154.9198 H   0  0  0  0  0  0  0  0  0  0  0  0
  1  2  2  0  0  0  0
  2  3  1  0  0  0  0
  2 10  1  0  0  0  0
  3  4  1  0  0  0  0
  3 23  1  0  0  0  0
  4  9  1  0  0  0  0
  4  5  2  0  0  0  0
  5  6  1  0  0  0  0
  5 24  1  0  0  0  0
  6  7  2  0  0  0  0
  6 25  1  0  0  0  0
  7  8  1  0  0  0  0
  7 50  1  0  0  0  0
  8  9  2  0  0  0  0
  8 26  1  0  0  0  0
  9 27  1  0  0  0  0
 10 11  1  0  0  0  0
 10 28  1  0  0  0  0
 11 22  1  0  0  0  0
 11 12  1  0  0  0  0
 11 29  1  0  0  0  0
 12 13  1  0  0  0  0
 12 30  1  0  0  0  0
 12 31  1  0  0  0  0
 13 14  1  0  0  0  0
 13 32  1  0  0  0  0
 13 33  1  0  0  0  0
 14 15  1  0  0  0  0
 14 21  1  0  0  0  0
 14 49  1  0  0  0  0
 15 16  1  0  0  0  0
 15 34  1  0  0  0  0
 15 35  1  0  0  0  0
 16 20  1  0  0  0  0
 16 17  1  0  0  0  0
 16 36  1  0  0  0  0
 17 18  1  0  0  0  0
 17 37  1  0  0  0  0
 17 38  1  0  0  0  0
 18 19  1  0  0  0  0
 18 39  1  0  0  0  0
 18 40  1  0  0  0  0
 19 20  1  0  0  0  0
 19 41  1  0  0  0  0
 19 42  1  0  0  0  0
 20 43  1  0  0  0  0
 20 44  1  0  0  0  0
 21 22  1  0  0  0  0
 21 45  1  0  0  0  0
 21 46  1  0  0  0  0
 22 47  1  0  0  0  0
 22 48  1  0  0  0  0
M  CHG  1   7   1
M  CHG  1  14   1
M  END
> <s_m_source_file>
AV-unprocessed.smi

> <i_m_source_file_index>
829

> <i_lp_mmshare_version>
43012

> <i_f3d_flags>
0

> <s_epik_input>
W2NIXTFbY0hdbltjSF1bY0hdYzFbTkhdQyg9TylbTkhdW0NIXTJbQ0gyXVtDSDJdTihbQ0gyXVtDSDJdMilbQ0gyXVtDSF0zW0NIMl1bQ0gyXVtDSDJdW0NIMl0z

> <s_epik_cmdline>
J2VwaWtfcHl0aG9uJywgJy1waCcsICc3LjAnLCAnLXRuJywgJzgnLCAnLW1hJywgJzIwMCcsICctbWV0YWxfYmluZGluZycsICctaW1hZScsICc8aW5maWxlLm1hZT4nLCAnLW9tYWUnLCAnPG91dGZpbGUubWFlPic=

> <r_epik_Ionization_Penalty>
1.10644

> <r_epik_Ionization_Penalty_Charging>
1.10642

> <r_epik_Ionization_Penalty_Neutral>
1.84455e-05

> <r_epik_State_Penalty>
1.14949

> <r_epik_Charging_Adjusted_Penalty>
2.25592

> <i_epik_Tot_Q>
2

> <i_epik_Tot_abs_Q>
2

> <r_epik_Metal_State_Penalty>
1.23448

> <b_epik_Metal_Only>
0

> <s_lp_Force_Field>
OPLS_2005

> <r_lp_Energy>
50.4415

> <b_lp_Chiralities_Consistent>
1

> <s_lp_Variant>
AV-unprocessed.smi:829-4

> <Gold.Version>
5.8.1

> <Gold.Id.Protein>
6NUR|6NUR_protein|mol2

> <Gold.PLP.Fitness>
45.4803

> <Gold.PLP.PLP>
-34.3873

> <Gold.PLP.part.hbond>
-2.0000

> <Gold.PLP.part.metal>
0.0000

> <Gold.PLP.part.buried>
-4.9705

> <Gold.PLP.part.nonpolar>
-28.4839

> <Gold.PLP.part.repulsive>
0.6224

> <Gold.PLP.ligand.clash>
0.0000

> <Gold.PLP.ligand.torsion>
0.4779

> <Gold.PLP.Chemscore.Hbond>
4.0000

> <Gold.PLP.Chemscore.CHOScore>
0.0000

> <Gold.PLP.Chemscore.Metal>
0.0000

> <Gold.Chemscore.Hbonds>
donor molecule, donor type, donor heavy atom, donor atom, acceptor molecule, acceptor atom, score
      L1  H     7    50       P1 10957  2.00
      L1  H    14    49       P1  8028  2.00

> <Gold.PLP.Chemscore.Internal.Correction>
0.0488

> <Gold.Rescore>
     Score         DG    S(hbond)    S(metal)    S(lipo)     H(rot)  DE(clash)    DE(int)     intcor
     18.56     -20.63       2.00        0.00     102.41       1.37       0.12       1.94       ----

> <Gold.Chemscore.Fitness>
18.5596

> <Gold.Chemscore.DG>
-20.6264

> <Gold.Chemscore.ZeroCoef>
-5.4800

> <Gold.Chemscore.Hbond>
1.9982

> <Gold.Chemscore.Metal>
0.0000

> <Gold.Chemscore.Lipo>
102.4050

> <Gold.Chemscore.Internal_Hbond>
0.0000

> <Gold.Chemscore.DEClash>
0.1228

> <Gold.Chemscore.DEInternal>
1.9440

> <Gold.Chemscore.Rot>
1.3707

> <Gold.Chemscore.Internal.Correction>
   9.000000E+99

> <Gold.Chemscore.Hbonds>
donor molecule, donor type, donor heavy atom, donor atom, acceptor molecule, acceptor atom, score
      L1  H     7    50       P1 10957  1.00
      L1  H    14    49       P1  8028  1.00

> <Gold.Chemscore.Hbond.Weighted>
-6.6739

> <Gold.Chemscore.Metal.Weighted>
-0.0000

> <Gold.Chemscore.Lipo.Weighted>
-11.9814

> <Gold.Chemscore.Internal_Hbond.Weighted>
0.0000

> <Gold.Chemscore.DEClash.Weighted>
0.1228

> <Gold.Chemscore.DEInternal.Weighted>
1.9440

> <Gold.Chemscore.Rot.Weighted>
3.5089

> <Gold.Chemscore.Internal.Correction.Weighted>
   9.000000E+99

> <Gold.Protein.RotatedTorsions>
[ 6907 6896 6895 6894 ] final   57.26 input  -60.11 | X-H torsion
[ 7974 7965 7964 7962 ] final    7.67 input  175.53 | X-H torsion
[ 8008 7997 7996 7995 ] final -116.92 input   59.86 | X-H torsion
[ 10167 10162 10161 10158 ] final  -73.17 input  -65.29 | X-H torsion
[ 10718 10713 10712 10709 ] final -130.16 input   66.30 | X-H torsion
[ 10763 10752 10751 10750 ] final -110.43 input  -60.55 | X-H torsion
[ 11005 11000 10999 10996 ] final  -90.90 input  -57.11 | X-H torsion

> <Gold.Protein.ActiveResidues>
 VAL166  LYS551  ARG553  GLY616  TRP617  ASP618  TYR619  PRO620  LYS621  CYS622 
 ASP623  PHE694  ASN695  SER759  ASP760  ASP761  ALA762  ILE779  LEU786  VAL792 
 PHE793  MET794  SER795  GLU796  ALA797  LYS798  CYS799  TRP800  GLU811  SER814 

> <Gold.Protein.RotatedAtoms>
  152.3714  134.6727  160.0174 H   0  0  0  0  0  0  0  0  0  0  0  0  # atno 6907 bound_to 6896
  151.7019  133.3306  159.3277 H   0  0  0  0  0  0  0  0  0  0  0  0  # atno 6908 bound_to 6896
  150.7677  134.6543  159.6350 H   0  0  0  0  0  0  0  0  0  0  0  0  # atno 6909 bound_to 6896
  146.2424  140.0049  142.8412 H   0  0  0  0  0  0  0  0  0  0  0  0  # atno 7974 bound_to 7965
  155.0754  140.0394  157.2622 H   0  0  0  0  0  0  0  0  0  0  0  0  # atno 8008 bound_to 7997
  154.6949  140.2661  155.6751 H   0  0  0  0  0  0  0  0  0  0  0  0  # atno 8009 bound_to 7997
  156.2741  140.2752  156.1540 H   0  0  0  0  0  0  0  0  0  0  0  0  # atno 8010 bound_to 7997
  140.5132  143.2342  151.7558 H   0  0  0  0  0  0  0  0  0  0  0  0  # atno 10167 bound_to 10162
  156.2117  130.6922  151.0657 H   0  0  0  0  0  0  0  0  0  0  0  0  # atno 10718 bound_to 10713
  154.8247  135.4564  154.0884 H   0  0  0  0  0  0  0  0  0  0  0  0  # atno 10763 bound_to 10752
  153.2208  135.6894  153.8009 H   0  0  0  0  0  0  0  0  0  0  0  0  # atno 10764 bound_to 10752
  153.7427  135.3310  155.3283 H   0  0  0  0  0  0  0  0  0  0  0  0  # atno 10765 bound_to 10752
  141.1556  133.7721  156.9804 H   0  0  0  0  0  0  0  0  0  0  0  0  # atno 11005 bound_to 11000
  145.1381  140.9556  143.4505 LP  0  0  0  0  0  0  0  0  0  0  0  0  # atno 17320 bound_to 7965
  145.0322  139.3331  143.6019 LP  0  0  0  0  0  0  0  0  0  0  0  0  # atno 17321 bound_to 7965
  139.4902  144.4361  151.9817 LP  0  0  0  0  0  0  0  0  0  0  0  0  # atno 17342 bound_to 10162
  140.3454  144.3153  150.5959 LP  0  0  0  0  0  0  0  0  0  0  0  0  # atno 17343 bound_to 10162
  157.7042  131.0763  150.6723 LP  0  0  0  0  0  0  0  0  0  0  0  0  # atno 17370 bound_to 10713
  156.6782  130.4559  149.5636 LP  0  0  0  0  0  0  0  0  0  0  0  0  # atno 17371 bound_to 10713
  140.1070  134.9500  157.2009 LP  0  0  0  0  0  0  0  0  0  0  0  0  # atno 17394 bound_to 11000
  140.3243  134.2881  155.7240 LP  0  0  0  0  0  0  0  0  0  0  0  0  # atno 17395 bound_to 11000

$$$$
