AV-unprocessed.smi:1675|AV-procd|sdf|6718|dock7
  -GOLD-   22720 7463D 1   1.00000     0.00000
 Structure written by MMmdl.
 40 42  0  0  0  0  0  0  0  0  1 V2000
  146.6393  139.1792  151.1154 N   0  0  0  0  0  0  0  0  0  0  0  0
  146.4994  138.4246  152.2082 C   0  0  0  0  0  0  0  0  0  0  0  0
  145.4707  137.7948  152.4457 O   0  0  0  0  0  0  0  0  0  0  0  0
  147.6850  138.3665  153.1734 C   0  0  0  0  0  0  0  0  0  0  0  0
  147.9452  139.6674  153.7623 N   0  0  0  0  0  0  0  0  0  0  0  0
  148.9729  140.0272  154.6116 C   0  0  0  0  0  0  0  0  0  0  0  0
  148.7831  141.3529  154.8827 C   0  0  0  0  0  0  0  0  0  0  0  0
  149.5496  142.2228  155.6991 N   0  0  0  0  0  0  0  0  0  0  0  0
  150.6783  141.9323  156.3700 C   0  0  0  0  0  0  0  0  0  0  0  0
  151.2156  140.8242  156.3724 O   0  0  0  0  0  0  0  0  0  0  0  0
  151.2805  143.0902  157.1767 C   0  0  0  0  0  0  0  0  0  0  0  0
  151.3213  142.8508  158.7042 C   0  0  1  0  0  0  0  0  0  0  0  0
  151.9721  141.5092  159.1213 C   0  0  0  0  0  0  0  0  0  0  0  0
  153.0731  141.9459  160.1047 C   0  0  2  0  0  0  0  0  0  0  0  0
  152.4288  142.4753  161.3994 C   0  0  0  0  0  0  0  0  0  0  0  0
  151.8459  143.8310  160.9578 C   0  0  0  0  0  0  0  0  0  0  0  0
  152.1964  143.8788  159.4580 C   0  0  1  0  0  0  0  0  0  0  0  0
  153.5759  143.2268  159.4518 C   0  0  0  0  0  0  0  0  0  0  0  0
  147.6234  141.7331  154.1583 C   0  0  0  0  0  0  0  0  0  0  0  0
  147.1206  140.7089  153.4853 N   0  0  0  0  0  0  0  0  0  0  0  0
  145.8831  139.2419  150.4494 H   0  0  0  0  0  0  0  0  0  0  0  0
  147.5010  139.6806  150.9557 H   0  0  0  0  0  0  0  0  0  0  0  0
  147.5071  137.6373  153.9660 H   0  0  0  0  0  0  0  0  0  0  0  0
  148.5758  138.0418  152.6344 H   0  0  0  0  0  0  0  0  0  0  0  0
  149.7241  139.3202  154.9317 H   0  0  0  0  0  0  0  0  0  0  0  0
  149.1969  143.1645  155.7922 H   0  0  0  0  0  0  0  0  0  0  0  0
  152.2844  143.2950  156.8032 H   0  0  0  0  0  0  0  0  0  0  0  0
  150.6875  143.9811  156.9671 H   0  0  0  0  0  0  0  0  0  0  0  0
  150.3008  142.9053  159.0875 H   0  0  0  0  0  0  0  0  0  0  0  0
  151.2554  140.8249  159.5766 H   0  0  0  0  0  0  0  0  0  0  0  0
  152.4165  140.9988  158.2656 H   0  0  0  0  0  0  0  0  0  0  0  0
  153.8352  141.1848  160.2745 H   0  0  0  0  0  0  0  0  0  0  0  0
  151.6647  141.7994  161.7852 H   0  0  0  0  0  0  0  0  0  0  0  0
  153.1773  142.6161  162.1801 H   0  0  0  0  0  0  0  0  0  0  0  0
  150.7732  143.9042  161.1407 H   0  0  0  0  0  0  0  0  0  0  0  0
  152.3305  144.6480  161.4937 H   0  0  0  0  0  0  0  0  0  0  0  0
  152.1594  144.8850  159.0393 H   0  0  0  0  0  0  0  0  0  0  0  0
  154.3101  143.7613  160.0573 H   0  0  0  0  0  0  0  0  0  0  0  0
  153.9840  143.0722  158.4520 H   0  0  0  0  0  0  0  0  0  0  0  0
  147.1381  142.6962  154.1007 H   0  0  0  0  0  0  0  0  0  0  0  0
  1  2  1  0  0  0  0
  1 21  1  0  0  0  0
  1 22  1  0  0  0  0
  2  3  2  0  0  0  0
  2  4  1  0  0  0  0
  4  5  1  0  0  0  0
  4 23  1  0  0  0  0
  4 24  1  0  0  0  0
  5 20  1  0  0  0  0
  5  6  1  0  0  0  0
  6  7  2  0  0  0  0
  6 25  1  0  0  0  0
  7  8  1  0  0  0  0
  7 19  1  0  0  0  0
  8  9  1  0  0  0  0
  8 26  1  0  0  0  0
  9 10  2  0  0  0  0
  9 11  1  0  0  0  0
 11 12  1  0  0  0  0
 11 27  1  0  0  0  0
 11 28  1  0  0  0  0
 12 17  1  0  0  0  0
 12 13  1  0  0  0  0
 12 29  1  0  0  0  0
 13 14  1  0  0  0  0
 13 30  1  0  0  0  0
 13 31  1  0  0  0  0
 14 18  1  0  0  0  0
 14 15  1  0  0  0  0
 14 32  1  0  0  0  0
 15 16  1  0  0  0  0
 15 33  1  0  0  0  0
 15 34  1  0  0  0  0
 16 17  1  0  0  0  0
 16 35  1  0  0  0  0
 16 36  1  0  0  0  0
 17 18  1  0  0  0  0
 17 37  1  0  0  0  0
 18 38  1  0  0  0  0
 18 39  1  0  0  0  0
 19 20  2  0  0  0  0
 19 40  1  0  0  0  0
M  END
> <s_m_source_file>
AV-unprocessed.smi

> <i_m_source_file_index>
1675

> <i_lp_mmshare_version>
43012

> <i_f3d_flags>
0

> <s_epik_input>
W05IMl1DKD1PKVtDSDJdbjFbY0hdYyhbY0hdbjEpW05IXUMoPU8pW0NIMl1bQ0BIXShbQ0gyXVtDQEBIXTIzKVtDQEBIXShbQ0gyXTMpW0NIMl1bQ0gyXTI=

> <s_epik_cmdline>
J2VwaWtfcHl0aG9uJywgJy1waCcsICc3LjAnLCAnLXRuJywgJzgnLCAnLW1hJywgJzIwMCcsICctbWV0YWxfYmluZGluZycsICctaW1hZScsICc8aW5maWxlLm1hZT4nLCAnLW9tYWUnLCAnPG91dGZpbGUubWFlPic=

> <r_lp_tautomer_probability>
1

> <r_epik_Ionization_Penalty>
2.17494e-05

> <r_epik_Ionization_Penalty_Charging>
0

> <r_epik_Ionization_Penalty_Neutral>
2.17494e-05

> <r_epik_State_Penalty>
-0

> <r_epik_Charging_Adjusted_Penalty>
0

> <i_epik_Tot_Q>
0

> <i_epik_Tot_abs_Q>
0

> <r_epik_Metal_State_Penalty>
-0

> <b_epik_Metal_Only>
0

> <s_lp_Force_Field>
OPLS_2005

> <r_lp_Energy>
53.1529

> <b_lp_Chiralities_Consistent>
1

> <s_lp_Variant>
AV-unprocessed.smi:1675-4

> <Gold.Version>
5.8.1

> <Gold.Id.Protein>
6NUR|6NUR_protein|mol2

> <Gold.PLP.Fitness>
50.8007

> <Gold.PLP.PLP>
-43.4832

> <Gold.PLP.part.hbond>
-2.7890

> <Gold.PLP.part.metal>
0.0000

> <Gold.PLP.part.buried>
-2.8158

> <Gold.PLP.part.nonpolar>
-38.9344

> <Gold.PLP.part.repulsive>
0.6875

> <Gold.PLP.ligand.clash>
0.0000

> <Gold.PLP.ligand.torsion>
0.1049

> <Gold.PLP.Chemscore.Hbond>
2.4950

> <Gold.PLP.Chemscore.CHOScore>
0.0000

> <Gold.PLP.Chemscore.Metal>
0.0000

> <Gold.Chemscore.Hbonds>
donor molecule, donor type, donor heavy atom, donor atom, acceptor molecule, acceptor atom, score
      L1  H     1    21       P1 10171  0.63
      L1  H     1    22       P1  7957  0.86
      L1  H     8    26       P1  8028  1.00

> <Gold.PLP.Chemscore.Internal.Correction>
0.0423

> <Gold.Rescore>
     Score         DG    S(hbond)    S(metal)    S(lipo)     H(rot)  DE(clash)    DE(int)     intcor
     16.20     -20.81       2.29        0.00     112.73       2.15       0.97       3.65       ----

> <Gold.Chemscore.Fitness>
16.1979

> <Gold.Chemscore.DG>
-20.8132

> <Gold.Chemscore.ZeroCoef>
-5.4800

> <Gold.Chemscore.Hbond>
2.2888

> <Gold.Chemscore.Metal>
0.0000

> <Gold.Chemscore.Lipo>
112.7277

> <Gold.Chemscore.Internal_Hbond>
0.0000

> <Gold.Chemscore.DEClash>
0.9703

> <Gold.Chemscore.DEInternal>
3.6451

> <Gold.Chemscore.Rot>
2.1486

> <Gold.Chemscore.Internal.Correction>
   9.000000E+99

> <Gold.Chemscore.Hbonds>
donor molecule, donor type, donor heavy atom, donor atom, acceptor molecule, acceptor atom, score
      L1  H     1    21       P1 10171  0.61
      L1  H     1    22       P1  7957  0.68
      L1  H     8    26       P1  8028  0.98

> <Gold.Chemscore.Hbond.Weighted>
-7.6445

> <Gold.Chemscore.Metal.Weighted>
-0.0000

> <Gold.Chemscore.Lipo.Weighted>
-13.1891

> <Gold.Chemscore.Internal_Hbond.Weighted>
0.0000

> <Gold.Chemscore.DEClash.Weighted>
0.9703

> <Gold.Chemscore.DEInternal.Weighted>
3.6451

> <Gold.Chemscore.Rot.Weighted>
5.5004

> <Gold.Chemscore.Internal.Correction.Weighted>
   9.000000E+99

> <Gold.Protein.RotatedTorsions>
[ 6907 6896 6895 6894 ] final  -91.11 input  -60.11 | X-H torsion
[ 7974 7965 7964 7962 ] final  139.15 input  175.53 | X-H torsion
[ 8008 7997 7996 7995 ] final -155.30 input   59.86 | X-H torsion
[ 10167 10162 10161 10158 ] final -132.83 input  -65.29 | X-H torsion
[ 10718 10713 10712 10709 ] final   93.01 input   66.30 | X-H torsion
[ 10763 10752 10751 10750 ] final  115.84 input  -60.55 | X-H torsion
[ 11005 11000 10999 10996 ] final -102.80 input  -57.11 | X-H torsion

> <Gold.Protein.ActiveResidues>
 VAL166  LYS551  ARG553  GLY616  TRP617  ASP618  TYR619  PRO620  LYS621  CYS622 
 ASP623  PHE694  ASN695  SER759  ASP760  ASP761  ALA762  ILE779  LEU786  VAL792 
 PHE793  MET794  SER795  GLU796  ALA797  LYS798  CYS799  TRP800  GLU811  SER814 

> <Gold.Protein.RotatedAtoms>
  150.6889  134.2328  159.4440 H   0  0  0  0  0  0  0  0  0  0  0  0  # atno 6907 bound_to 6896
  152.0277  134.9783  160.0581 H   0  0  0  0  0  0  0  0  0  0  0  0  # atno 6908 bound_to 6896
  152.1335  133.4387  159.4769 H   0  0  0  0  0  0  0  0  0  0  0  0  # atno 6909 bound_to 6896
  144.9306  139.5052  143.5619 H   0  0  0  0  0  0  0  0  0  0  0  0  # atno 7974 bound_to 7965
  155.6997  140.0765  157.2415 H   0  0  0  0  0  0  0  0  0  0  0  0  # atno 8008 bound_to 7997
  154.4075  140.1649  156.2230 H   0  0  0  0  0  0  0  0  0  0  0  0  # atno 8009 bound_to 7997
  155.9379  140.3386  155.6305 H   0  0  0  0  0  0  0  0  0  0  0  0  # atno 8010 bound_to 7997
  139.9045  143.6567  152.2588 H   0  0  0  0  0  0  0  0  0  0  0  0  # atno 10167 bound_to 10162
  157.6956  131.0463  150.3969 H   0  0  0  0  0  0  0  0  0  0  0  0  # atno 10718 bound_to 10713
  153.5282  135.3583  155.2663 H   0  0  0  0  0  0  0  0  0  0  0  0  # atno 10763 bound_to 10752
  154.8729  135.4062  154.3182 H   0  0  0  0  0  0  0  0  0  0  0  0  # atno 10764 bound_to 10752
  153.3865  135.7070  153.6594 H   0  0  0  0  0  0  0  0  0  0  0  0  # atno 10765 bound_to 10752
  141.1173  133.8588  157.1406 H   0  0  0  0  0  0  0  0  0  0  0  0  # atno 11005 bound_to 11000
  146.3245  139.8253  142.8919 LP  0  0  0  0  0  0  0  0  0  0  0  0  # atno 17320 bound_to 7965
  145.3148  141.0229  143.3534 LP  0  0  0  0  0  0  0  0  0  0  0  0  # atno 17321 bound_to 7965
  139.6996  144.7637  151.1297 LP  0  0  0  0  0  0  0  0  0  0  0  0  # atno 17342 bound_to 10162
  140.7699  143.5476  150.9241 LP  0  0  0  0  0  0  0  0  0  0  0  0  # atno 17343 bound_to 10162
  156.4366  130.3983  149.6725 LP  0  0  0  0  0  0  0  0  0  0  0  0  # atno 17370 bound_to 10713
  156.3923  130.7633  151.2635 LP  0  0  0  0  0  0  0  0  0  0  0  0  # atno 17371 bound_to 10713
  140.0105  134.9990  157.0385 LP  0  0  0  0  0  0  0  0  0  0  0  0  # atno 17394 bound_to 11000
  140.4608  134.1486  155.7191 LP  0  0  0  0  0  0  0  0  0  0  0  0  # atno 17395 bound_to 11000

$$$$
