AV-unprocessed.smi:578|AV-procd|sdf|2982|dock1
  -GOLD-   2262023493D 1   1.00000     0.00000
 Structure written by MMmdl.
 33 34  0  0  0  0  0  0  0  0  3 V2000
  150.9697  145.0090  159.7460 C   0  0  0  0  0  0  0  0  0  0  0  0
  151.8464  143.8957  159.1631 C   0  0  2  0  0  0  0  0  0  0  0  0
  151.0634  142.9892  158.1941 C   0  0  0  0  0  0  0  0  0  0  0  0
  151.9092  141.8926  157.7417 N   0  0  0  0  0  0  0  0  0  0  0  0
  151.3025  141.0899  156.7660 C   0  0  0  0  0  0  0  0  0  0  0  0
  150.3650  141.6682  155.8838 C   0  0  0  0  0  0  0  0  0  0  0  0
  149.7533  140.8628  154.9031 C   0  0  0  0  0  0  0  0  0  0  0  0
  150.0689  139.5530  154.8185 N   0  3  0  0  0  0  0  0  0  0  0  0
  150.9592  138.9477  155.6375 C   0  0  0  0  0  0  0  0  0  0  0  0
  151.2335  137.4844  155.4535 C   0  0  0  0  0  0  0  0  0  0  0  0
  152.1994  136.9724  156.0611 O   0  0  0  0  0  0  0  0  0  0  0  0
  150.4839  136.8281  154.6965 O   0  5  0  0  0  0  0  0  0  0  0  0
  151.6010  139.7126  156.6388 C   0  0  0  0  0  0  0  0  0  0  0  0
  152.4746  141.1330  158.8493 C   0  0  0  0  0  0  0  0  0  0  0  0
  153.2307  142.0758  159.8048 C   0  0  2  0  0  0  0  0  0  0  0  0
  153.7615  141.3402  161.0397 C   0  0  0  0  0  0  0  0  0  0  0  0
  152.3443  143.1047  160.2405 O   0  0  0  0  0  0  0  0  0  0  0  0
  150.5729  145.6494  158.9578 H   0  0  0  0  0  0  0  0  0  0  0  0
  151.5419  145.6381  160.4283 H   0  0  0  0  0  0  0  0  0  0  0  0
  150.1255  144.5982  160.3006 H   0  0  0  0  0  0  0  0  0  0  0  0
  152.6870  144.3545  158.6393 H   0  0  0  0  0  0  0  0  0  0  0  0
  150.1773  142.5918  158.6912 H   0  0  0  0  0  0  0  0  0  0  0  0
  150.7201  143.5670  157.3346 H   0  0  0  0  0  0  0  0  0  0  0  0
  150.1164  142.7171  155.9569 H   0  0  0  0  0  0  0  0  0  0  0  0
  149.0269  141.2223  154.1893 H   0  0  0  0  0  0  0  0  0  0  0  0
  152.3149  139.2479  157.3038 H   0  0  0  0  0  0  0  0  0  0  0  0
  151.6789  140.6178  159.3893 H   0  0  0  0  0  0  0  0  0  0  0  0
  153.1507  140.3689  158.4631 H   0  0  0  0  0  0  0  0  0  0  0  0
  154.0747  142.5297  159.2821 H   0  0  0  0  0  0  0  0  0  0  0  0
  154.4549  140.5477  160.7565 H   0  0  0  0  0  0  0  0  0  0  0  0
  152.9497  140.8870  161.6095 H   0  0  0  0  0  0  0  0  0  0  0  0
  154.2920  142.0243  161.7023 H   0  0  0  0  0  0  0  0  0  0  0  0
  149.6177  138.9818  154.1031 H   0  0  0  0  0  0  0  0  0  0  0  0
  1  2  1  0  0  0  0
  1 18  1  0  0  0  0
  1 19  1  0  0  0  0
  1 20  1  0  0  0  0
  2 17  1  0  0  0  0
  2  3  1  0  0  0  0
  2 21  1  0  0  0  0
  3  4  1  0  0  0  0
  3 22  1  0  0  0  0
  3 23  1  0  0  0  0
  4  5  1  0  0  0  0
  4 14  1  0  0  0  0
  5 13  1  0  0  0  0
  5  6  2  0  0  0  0
  6  7  1  0  0  0  0
  6 24  1  0  0  0  0
  7  8  2  0  0  0  0
  7 25  1  0  0  0  0
  8  9  1  0  0  0  0
  8 33  1  0  0  0  0
  9 10  1  0  0  0  0
  9 13  2  0  0  0  0
 10 11  2  0  0  0  0
 10 12  1  0  0  0  0
 13 26  1  0  0  0  0
 14 15  1  0  0  0  0
 14 27  1  0  0  0  0
 14 28  1  0  0  0  0
 15 16  1  0  0  0  0
 15 17  1  0  0  0  0
 15 29  1  0  0  0  0
 16 30  1  0  0  0  0
 16 31  1  0  0  0  0
 16 32  1  0  0  0  0
M  CHG  1   8   1
M  CHG  1  12  -1
M  END
> <s_m_source_file>
AV-unprocessed.smi

> <i_m_source_file_index>
578

> <i_lp_mmshare_version>
43012

> <i_f3d_flags>
0

> <s_epik_input>
W0NIM11bQ0BASF0xW0NIMl1OKFtDSDJdW0NASF0oTzEpW0NIM10pYzJbY0hdW2NIXW5jKFtjSF0yKUMoPU8pW09IXQ==

> <s_epik_cmdline>
J2VwaWtfcHl0aG9uJywgJy1waCcsICc3LjAnLCAnLXRuJywgJzgnLCAnLW1hJywgJzIwMCcsICctbWV0YWxfYmluZGluZycsICctaW1hZScsICc8aW5maWxlLm1hZT4nLCAnLW9tYWUnLCAnPG91dGZpbGUubWFlPic=

> <r_epik_Ionization_Penalty>
0.0203651

> <r_epik_Ionization_Penalty_Charging>
0.0203651

> <r_epik_Ionization_Penalty_Neutral>
3.18831e-12

> <r_epik_State_Penalty>
0.0163096

> <r_epik_Charging_Adjusted_Penalty>
0.0366747

> <i_epik_Tot_Q>
0

> <i_epik_Tot_abs_Q>
2

> <r_epik_Metal_State_Penalty>
1.99323

> <b_epik_Metal_Only>
0

> <s_lp_Force_Field>
OPLS_2005

> <r_lp_Energy>
16.452

> <b_lp_Chiralities_Consistent>
1

> <s_lp_Variant>
AV-unprocessed.smi:578-2

> <Gold.Version>
5.8.1

> <Gold.Id.Protein>
6NUR|6NUR_protein|mol2

> <Gold.PLP.Fitness>
37.8929

> <Gold.PLP.PLP>
-33.2200

> <Gold.PLP.part.hbond>
-1.0000

> <Gold.PLP.part.metal>
0.0000

> <Gold.PLP.part.buried>
-4.1379

> <Gold.PLP.part.nonpolar>
-28.8712

> <Gold.PLP.part.repulsive>
0.3223

> <Gold.PLP.ligand.clash>
0.0000

> <Gold.PLP.ligand.torsion>
0.7128

> <Gold.PLP.Chemscore.Hbond>
2.0000

> <Gold.PLP.Chemscore.CHOScore>
0.0000

> <Gold.PLP.Chemscore.Metal>
0.0000

> <Gold.Chemscore.Hbonds>
donor molecule, donor type, donor heavy atom, donor atom, acceptor molecule, acceptor atom, score
      P1  H 10752 10763       L1    11  1.98

> <Gold.PLP.Chemscore.Internal.Correction>
0.0986

> <Gold.Rescore>
     Score         DG    S(hbond)    S(metal)    S(lipo)     H(rot)  DE(clash)    DE(int)     intcor
     16.19     -17.04       0.98        0.00      92.60       1.00       0.13       0.73       ----

> <Gold.Chemscore.Fitness>
16.1870

> <Gold.Chemscore.DG>
-17.0393

> <Gold.Chemscore.ZeroCoef>
-5.4800

> <Gold.Chemscore.Hbond>
0.9834

> <Gold.Chemscore.Metal>
0.0000

> <Gold.Chemscore.Lipo>
92.6044

> <Gold.Chemscore.Internal_Hbond>
0.0000

> <Gold.Chemscore.DEClash>
0.1252

> <Gold.Chemscore.DEInternal>
0.7271

> <Gold.Chemscore.Rot>
1.0000

> <Gold.Chemscore.Internal.Correction>
   9.000000E+99

> <Gold.Chemscore.Hbonds>
donor molecule, donor type, donor heavy atom, donor atom, acceptor molecule, acceptor atom, score
      P1  H 10752 10763       L1    11  0.72

> <Gold.Chemscore.Hbond.Weighted>
-3.2846

> <Gold.Chemscore.Metal.Weighted>
-0.0000

> <Gold.Chemscore.Lipo.Weighted>
-10.8347

> <Gold.Chemscore.Internal_Hbond.Weighted>
0.0000

> <Gold.Chemscore.DEClash.Weighted>
0.1252

> <Gold.Chemscore.DEInternal.Weighted>
0.7271

> <Gold.Chemscore.Rot.Weighted>
2.5600

> <Gold.Chemscore.Internal.Correction.Weighted>
   9.000000E+99

> <Gold.Protein.RotatedTorsions>
[ 6907 6896 6895 6894 ] final   57.00 input  -60.11 | X-H torsion
[ 7974 7965 7964 7962 ] final  -28.93 input  175.53 | X-H torsion
[ 8008 7997 7996 7995 ] final   80.11 input   59.86 | X-H torsion
[ 10167 10162 10161 10158 ] final   41.95 input  -65.29 | X-H torsion
[ 10718 10713 10712 10709 ] final -143.40 input   66.30 | X-H torsion
[ 10763 10752 10751 10750 ] final   84.53 input  -60.55 | X-H torsion
[ 11005 11000 10999 10996 ] final -118.43 input  -57.11 | X-H torsion

> <Gold.Protein.ActiveResidues>
 VAL166  LYS551  ARG553  GLY616  TRP617  ASP618  TYR619  PRO620  LYS621  CYS622 
 ASP623  PHE694  ASN695  SER759  ASP760  ASP761  ALA762  ILE779  LEU786  VAL792 
 PHE793  MET794  SER795  GLU796  ALA797  LYS798  CYS799  TRP800  GLU811  SER814 

> <Gold.Protein.RotatedAtoms>
  152.3690  134.6762  160.0182 H   0  0  0  0  0  0  0  0  0  0  0  0  # atno 6907 bound_to 6896
  151.7061  133.3306  159.3287 H   0  0  0  0  0  0  0  0  0  0  0  0  # atno 6908 bound_to 6896
  150.7659  134.6508  159.6331 H   0  0  0  0  0  0  0  0  0  0  0  0  # atno 6909 bound_to 6896
  146.1253  140.5346  142.8717 H   0  0  0  0  0  0  0  0  0  0  0  0  # atno 7974 bound_to 7965
  155.8789  140.3445  155.5874 H   0  0  0  0  0  0  0  0  0  0  0  0  # atno 8008 bound_to 7997
  155.7742  140.0849  157.2111 H   0  0  0  0  0  0  0  0  0  0  0  0  # atno 8009 bound_to 7997
  154.4023  140.1512  156.2965 H   0  0  0  0  0  0  0  0  0  0  0  0  # atno 8010 bound_to 7997
  140.3592  144.2250  150.6139 H   0  0  0  0  0  0  0  0  0  0  0  0  # atno 10167 bound_to 10162
  156.3575  130.7720  151.1883 H   0  0  0  0  0  0  0  0  0  0  0  0  # atno 10718 bound_to 10713
  153.1390  135.4651  154.9467 H   0  0  0  0  0  0  0  0  0  0  0  0  # atno 10763 bound_to 10752
  154.7731  135.3165  154.8151 H   0  0  0  0  0  0  0  0  0  0  0  0  # atno 10764 bound_to 10752
  153.8678  135.6906  153.4831 H   0  0  0  0  0  0  0  0  0  0  0  0  # atno 10765 bound_to 10752
  141.0286  134.0015  157.3177 H   0  0  0  0  0  0  0  0  0  0  0  0  # atno 11005 bound_to 11000
  144.7636  140.5479  143.6718 LP  0  0  0  0  0  0  0  0  0  0  0  0  # atno 17320 bound_to 7965
  145.5379  139.1475  143.3463 LP  0  0  0  0  0  0  0  0  0  0  0  0  # atno 17321 bound_to 7965
  140.5144  143.2282  151.8486 LP  0  0  0  0  0  0  0  0  0  0  0  0  # atno 17342 bound_to 10162
  139.4816  144.4912  151.9183 LP  0  0  0  0  0  0  0  0  0  0  0  0  # atno 17343 bound_to 10162
  157.7469  131.0410  150.4624 LP  0  0  0  0  0  0  0  0  0  0  0  0  # atno 17370 bound_to 10713
  156.4829  130.4078  149.6451 LP  0  0  0  0  0  0  0  0  0  0  0  0  # atno 17371 bound_to 10713
  139.9193  135.0199  156.8001 LP  0  0  0  0  0  0  0  0  0  0  0  0  # atno 17394 bound_to 11000
  140.6447  133.9786  155.7725 LP  0  0  0  0  0  0  0  0  0  0  0  0  # atno 17395 bound_to 11000

$$$$
