AV-unprocessed.smi:1976|AV-procd|sdf|7988|dock7
  -GOLD-   2272010173D 1   1.00000     0.00000
 Structure written by MMmdl.
 45 47  0  0  0  0  0  0  0  0  2 V2000
  149.3194  140.0320  156.4353 O   0  0  0  0  0  0  0  0  0  0  0  0
  149.3791  140.9911  155.6646 C   0  0  0  0  0  0  0  0  0  0  0  0
  150.4691  142.0616  155.8189 C   0  0  0  0  0  0  0  0  0  0  0  0
  151.3533  141.8354  156.9749 N   0  0  0  0  0  0  0  0  0  0  0  0
  151.4564  142.8775  157.9172 C   0  0  0  0  0  0  0  0  0  0  0  0
  152.2378  142.8017  159.0115 C   0  0  0  0  0  0  0  0  0  0  0  0
  152.2843  143.9209  160.0402 C   0  0  0  0  0  0  0  0  0  0  0  0
  152.6618  145.0711  159.4816 F   0  0  0  0  0  0  0  0  0  0  0  0
  151.0759  144.0954  160.5734 F   0  0  0  0  0  0  0  0  0  0  0  0
  153.1356  143.6348  161.0259 F   0  0  0  0  0  0  0  0  0  0  0  0
  152.9606  141.5598  159.2033 C   0  0  0  0  0  0  0  0  0  0  0  0
  152.8643  140.5486  158.3179 C   0  0  0  0  0  0  0  0  0  0  0  0
  152.0263  140.6546  157.1214 C   0  0  0  0  0  0  0  0  0  0  0  0
  151.9309  139.7391  156.3032 O   0  0  0  0  0  0  0  0  0  0  0  0
  148.5159  141.1758  154.6545 N   0  0  0  0  0  0  0  0  0  0  0  0
  147.4277  140.2693  154.3001 C   0  0  1  0  0  0  0  0  0  0  0  0
  146.5404  140.8082  153.1695 C   0  0  0  0  0  0  0  0  0  0  0  0
  146.1731  139.5777  152.3161 C   0  0  0  0  0  0  0  0  0  0  0  0
  146.7787  138.4000  152.9802 N   0  3  2  0  0  0  0  0  0  0  0  0
  145.7922  137.6611  153.8159 C   0  0  0  0  0  0  0  0  0  0  0  0
  146.4589  136.5884  154.6865 C   0  0  0  0  0  0  0  0  0  0  0  0
  147.5197  137.2248  155.5878 C   0  0  0  0  0  0  0  0  0  0  0  0
  148.5631  137.9346  154.7196 C   0  0  0  0  0  0  0  0  0  0  0  0
  147.9405  138.9421  153.7258 C   0  0  2  0  0  0  0  0  0  0  0  0
  151.0632  142.1051  154.9039 H   0  0  0  0  0  0  0  0  0  0  0  0
  149.9825  143.0355  155.8891 H   0  0  0  0  0  0  0  0  0  0  0  0
  150.8502  143.7442  157.6970 H   0  0  0  0  0  0  0  0  0  0  0  0
  153.5922  141.4384  160.0709 H   0  0  0  0  0  0  0  0  0  0  0  0
  153.4176  139.6377  158.4926 H   0  0  0  0  0  0  0  0  0  0  0  0
  148.6334  141.9967  154.0779 H   0  0  0  0  0  0  0  0  0  0  0  0
  146.7925  140.0761  155.1664 H   0  0  0  0  0  0  0  0  0  0  0  0
  145.6545  141.3035  153.5688 H   0  0  0  0  0  0  0  0  0  0  0  0
  147.0734  141.5360  152.5556 H   0  0  0  0  0  0  0  0  0  0  0  0
  145.0955  139.4729  152.1808 H   0  0  0  0  0  0  0  0  0  0  0  0
  146.6130  139.6768  151.3230 H   0  0  0  0  0  0  0  0  0  0  0  0
  145.2503  138.3586  154.4566 H   0  0  0  0  0  0  0  0  0  0  0  0
  145.0507  137.1985  153.1634 H   0  0  0  0  0  0  0  0  0  0  0  0
  145.7080  136.0837  155.2951 H   0  0  0  0  0  0  0  0  0  0  0  0
  146.9135  135.8237  154.0549 H   0  0  0  0  0  0  0  0  0  0  0  0
  147.0560  137.9325  156.2759 H   0  0  0  0  0  0  0  0  0  0  0  0
  147.9998  136.4618  156.2010 H   0  0  0  0  0  0  0  0  0  0  0  0
  149.3065  138.4247  155.3485 H   0  0  0  0  0  0  0  0  0  0  0  0
  149.1088  137.1794  154.1524 H   0  0  0  0  0  0  0  0  0  0  0  0
  148.7047  139.1765  152.9817 H   0  0  0  0  0  0  0  0  0  0  0  0
  147.1166  137.7573  152.2780 H   0  0  0  0  0  0  0  0  0  0  0  0
  1  2  2  0  0  0  0
  2  3  1  0  0  0  0
  2 15  1  0  0  0  0
  3  4  1  0  0  0  0
  3 25  1  0  0  0  0
  3 26  1  0  0  0  0
  4 13  1  0  0  0  0
  4  5  1  0  0  0  0
  5  6  2  0  0  0  0
  5 27  1  0  0  0  0
  6  7  1  0  0  0  0
  6 11  1  0  0  0  0
  7  8  1  0  0  0  0
  7  9  1  0  0  0  0
  7 10  1  0  0  0  0
 11 12  2  0  0  0  0
 11 28  1  0  0  0  0
 12 13  1  0  0  0  0
 12 29  1  0  0  0  0
 13 14  2  0  0  0  0
 15 16  1  0  0  0  0
 15 30  1  0  0  0  0
 16 24  1  0  0  0  0
 16 17  1  0  0  0  0
 16 31  1  0  0  0  0
 17 18  1  0  0  0  0
 17 32  1  0  0  0  0
 17 33  1  0  0  0  0
 18 19  1  0  0  0  0
 18 34  1  0  0  0  0
 18 35  1  0  0  0  0
 19 24  1  0  0  0  0
 19 20  1  0  0  0  0
 19 45  1  0  0  0  0
 20 21  1  0  0  0  0
 20 36  1  0  0  0  0
 20 37  1  0  0  0  0
 21 22  1  0  0  0  0
 21 38  1  0  0  0  0
 21 39  1  0  0  0  0
 22 23  1  0  0  0  0
 22 40  1  0  0  0  0
 22 41  1  0  0  0  0
 23 24  1  0  0  0  0
 23 42  1  0  0  0  0
 23 43  1  0  0  0  0
 24 44  1  0  0  0  0
M  CHG  1  19   1
M  END
> <s_m_source_file>
AV-unprocessed.smi

> <i_m_source_file_index>
1976

> <i_lp_mmshare_version>
43012

> <i_f3d_flags>
0

> <s_epik_input>
W0NIMl0xW0NIMl1bQ0gyXVtDSDJdW0NASF0oTjEyKVtDQEBIXShbQ0gyXVtDSDJdMilbTkhdQyg9TylbQ0gyXW4zW2NIXWMoQyhGKShGKUYpW2NIXVtjSF1jMz1P

> <s_epik_cmdline>
J2VwaWtfcHl0aG9uJywgJy1waCcsICc3LjAnLCAnLXRuJywgJzgnLCAnLW1hJywgJzIwMCcsICctbWV0YWxfYmluZGluZycsICctaW1hZScsICc8aW5maWxlLm1hZT4nLCAnLW9tYWUnLCAnPG91dGZpbGUubWFlPic=

> <r_lp_tautomer_probability>
1

> <r_epik_Ionization_Penalty>
0.00171506

> <r_epik_Ionization_Penalty_Charging>
0.00171498

> <r_epik_Ionization_Penalty_Neutral>
7.81737e-08

> <r_epik_State_Penalty>
0.00115937

> <r_epik_Charging_Adjusted_Penalty>
0.00287436

> <i_epik_Tot_Q>
1

> <i_epik_Tot_abs_Q>
1

> <r_epik_Metal_State_Penalty>
-0

> <b_epik_Metal_Only>
0

> <s_lp_Force_Field>
OPLS_2005

> <r_lp_Energy>
48.7142

> <b_lp_Chiralities_Consistent>
1

> <s_lp_Variant>
AV-unprocessed.smi:1976-6

> <Gold.Version>
5.8.1

> <Gold.Id.Protein>
6NUR|6NUR_protein|mol2

> <Gold.PLP.Fitness>
50.6425

> <Gold.PLP.PLP>
-41.8377

> <Gold.PLP.part.hbond>
-1.0000

> <Gold.PLP.part.metal>
0.0000

> <Gold.PLP.part.buried>
-2.0544

> <Gold.PLP.part.nonpolar>
-37.9324

> <Gold.PLP.part.repulsive>
0.2021

> <Gold.PLP.ligand.clash>
0.0000

> <Gold.PLP.ligand.torsion>
0.1193

> <Gold.PLP.Chemscore.Hbond>
2.0000

> <Gold.PLP.Chemscore.CHOScore>
1.0000

> <Gold.PLP.Chemscore.Metal>
0.0000

> <Gold.Chemscore.Hbonds>
donor molecule, donor type, donor heavy atom, donor atom, acceptor molecule, acceptor atom, score
      L1  H    19    45       P1  7948  0.11

> <Gold.PLP.Chemscore.Internal.Correction>
0.0433

> <Gold.Rescore>
     Score         DG    S(hbond)    S(metal)    S(lipo)     H(rot)  DE(clash)    DE(int)     intcor
      9.65     -15.64       0.97        0.00      93.71       1.58       1.34       4.66       ----

> <Gold.Chemscore.Fitness>
9.6523

> <Gold.Chemscore.DG>
-15.6444

> <Gold.Chemscore.ZeroCoef>
-5.4800

> <Gold.Chemscore.Hbond>
0.9738

> <Gold.Chemscore.Metal>
0.0000

> <Gold.Chemscore.Lipo>
93.7120

> <Gold.Chemscore.Internal_Hbond>
0.0000

> <Gold.Chemscore.DEClash>
1.3369

> <Gold.Chemscore.DEInternal>
4.6552

> <Gold.Chemscore.Rot>
1.5830

> <Gold.Chemscore.Internal.Correction>
   9.000000E+99

> <Gold.Chemscore.Hbonds>
donor molecule, donor type, donor heavy atom, donor atom, acceptor molecule, acceptor atom, score
      L1  H    19    45       P1  7948  0.08

> <Gold.Chemscore.Hbond.Weighted>
-3.2525

> <Gold.Chemscore.Metal.Weighted>
-0.0000

> <Gold.Chemscore.Lipo.Weighted>
-10.9643

> <Gold.Chemscore.Internal_Hbond.Weighted>
0.0000

> <Gold.Chemscore.DEClash.Weighted>
1.3369

> <Gold.Chemscore.DEInternal.Weighted>
4.6552

> <Gold.Chemscore.Rot.Weighted>
4.0524

> <Gold.Chemscore.Internal.Correction.Weighted>
   9.000000E+99

> <Gold.Protein.RotatedTorsions>
[ 6907 6896 6895 6894 ] final   83.52 input  -60.11 | X-H torsion
[ 7974 7965 7964 7962 ] final  134.70 input  175.53 | X-H torsion
[ 8008 7997 7996 7995 ] final  130.90 input   59.86 | X-H torsion
[ 10167 10162 10161 10158 ] final  -55.62 input  -65.29 | X-H torsion
[ 10718 10713 10712 10709 ] final  -72.70 input   66.30 | X-H torsion
[ 10763 10752 10751 10750 ] final  148.86 input  -60.55 | X-H torsion
[ 11005 11000 10999 10996 ] final  -78.48 input  -57.11 | X-H torsion

> <Gold.Protein.ActiveResidues>
 VAL166  LYS551  ARG553  GLY616  TRP617  ASP618  TYR619  PRO620  LYS621  CYS622 
 ASP623  PHE694  ASN695  SER759  ASP760  ASP761  ALA762  ILE779  LEU786  VAL792 
 PHE793  MET794  SER795  GLU796  ALA797  LYS798  CYS799  TRP800  GLU811  SER814 

> <Gold.Protein.RotatedAtoms>
  152.5329  134.2883  159.9033 H   0  0  0  0  0  0  0  0  0  0  0  0  # atno 6907 bound_to 6896
  151.2836  133.4191  159.2636 H   0  0  0  0  0  0  0  0  0  0  0  0  # atno 6908 bound_to 6896
  151.0262  134.9521  159.8143 H   0  0  0  0  0  0  0  0  0  0  0  0  # atno 6909 bound_to 6896
  144.9737  139.4577  143.5420 H   0  0  0  0  0  0  0  0  0  0  0  0  # atno 7974 bound_to 7965
  156.2962  140.2584  156.2838 H   0  0  0  0  0  0  0  0  0  0  0  0  # atno 8008 bound_to 7997
  154.9576  140.0393  157.2193 H   0  0  0  0  0  0  0  0  0  0  0  0  # atno 8009 bound_to 7997
  154.7977  140.2823  155.5949 H   0  0  0  0  0  0  0  0  0  0  0  0  # atno 8010 bound_to 7997
  140.6364  143.2484  151.5107 H   0  0  0  0  0  0  0  0  0  0  0  0  # atno 10167 bound_to 10162
  156.0309  130.4378  150.2632 H   0  0  0  0  0  0  0  0  0  0  0  0  # atno 10718 bound_to 10713
  154.0616  135.2873  155.3324 H   0  0  0  0  0  0  0  0  0  0  0  0  # atno 10763 bound_to 10752
  154.6804  135.5265  153.8259 H   0  0  0  0  0  0  0  0  0  0  0  0  # atno 10764 bound_to 10752
  153.0520  135.6580  154.0804 H   0  0  0  0  0  0  0  0  0  0  0  0  # atno 10765 bound_to 10752
  141.1665  133.7065  156.7979 H   0  0  0  0  0  0  0  0  0  0  0  0  # atno 11005 bound_to 11000
  146.3389  139.8966  142.8801 LP  0  0  0  0  0  0  0  0  0  0  0  0  # atno 17320 bound_to 7965
  145.2521  141.0047  143.3875 LP  0  0  0  0  0  0  0  0  0  0  0  0  # atno 17321 bound_to 7965
  139.5574  144.2241  152.1635 LP  0  0  0  0  0  0  0  0  0  0  0  0  # atno 17342 bound_to 10162
  140.1499  144.5125  150.6694 LP  0  0  0  0  0  0  0  0  0  0  0  0  # atno 17343 bound_to 10162
  157.0734  131.0123  151.3182 LP  0  0  0  0  0  0  0  0  0  0  0  0  # atno 17370 bound_to 10713
  157.4982  130.7863  149.7577 LP  0  0  0  0  0  0  0  0  0  0  0  0  # atno 17371 bound_to 10713
  140.2278  134.8709  157.3445 LP  0  0  0  0  0  0  0  0  0  0  0  0  # atno 17394 bound_to 11000
  140.1922  134.4358  155.7709 LP  0  0  0  0  0  0  0  0  0  0  0  0  # atno 17395 bound_to 11000

$$$$
