AV-unprocessed.smi:2299|AV-procd|sdf|9228|dock1
  -GOLD-   2272012443D 1   1.00000     0.00000
 Structure written by MMmdl.
 43 44  0  0  0  0  0  0  0  0  2 V2000
  146.5457  138.6962  151.6089 C   0  0  0  0  0  0  0  0  0  0  0  0
  146.8420  138.6189  153.1141 C   0  0  0  0  0  0  0  0  0  0  0  0
  145.7022  137.9363  153.8836 C   0  0  0  0  0  0  0  0  0  0  0  0
  147.1494  139.9761  153.6841 C   0  0  0  0  0  0  0  0  0  0  0  0
  146.3174  141.0253  153.6544 N   0  3  0  0  0  0  0  0  0  0  0  0
  146.8903  142.1115  154.2557 C   0  0  0  0  0  0  0  0  0  0  0  0
  148.1280  141.7086  154.6809 C   0  0  0  0  0  0  0  0  0  0  0  0
  148.2611  140.3905  154.3225 N   0  0  0  0  0  0  0  0  0  0  0  0
  149.4379  139.5458  154.5842 C   0  0  0  0  0  0  0  0  0  0  0  0
  150.4902  140.2323  155.4642 C   0  0  0  0  0  0  0  0  0  0  0  0
  151.6368  140.4215  155.0554 O   0  0  0  0  0  0  0  0  0  0  0  0
  150.0751  140.6028  156.6858 N   0  0  0  0  0  0  0  0  0  0  0  0
  150.8910  141.2879  157.6916 C   0  0  2  0  0  0  0  0  0  0  0  0
  151.2187  142.6958  157.1429 C   0  0  0  0  0  0  0  0  0  0  0  0
  151.5870  143.7176  158.2325 C   0  0  0  0  0  0  0  0  0  0  0  0
  152.8848  143.4127  158.9959 C   0  0  0  0  0  0  0  0  0  0  0  0
  152.8420  142.0943  159.7870 C   0  0  0  0  0  0  0  0  0  0  0  0
  153.0248  140.9322  158.9273 N   0  0  0  0  0  0  0  0  0  0  0  0
  152.2099  140.5198  157.9443 C   0  0  0  0  0  0  0  0  0  0  0  0
  152.5118  139.5461  157.2540 O   0  0  0  0  0  0  0  0  0  0  0  0
  147.3842  139.1373  151.0683 H   0  0  0  0  0  0  0  0  0  0  0  0
  145.6614  139.3008  151.4042 H   0  0  0  0  0  0  0  0  0  0  0  0
  146.3723  137.7038  151.1921 H   0  0  0  0  0  0  0  0  0  0  0  0
  147.7368  138.0103  153.2345 H   0  0  0  0  0  0  0  0  0  0  0  0
  145.9472  137.8384  154.9417 H   0  0  0  0  0  0  0  0  0  0  0  0
  145.5122  136.9348  153.4965 H   0  0  0  0  0  0  0  0  0  0  0  0
  144.7738  138.5032  153.8072 H   0  0  0  0  0  0  0  0  0  0  0  0
  146.3868  143.0641  154.3341 H   0  0  0  0  0  0  0  0  0  0  0  0
  148.9061  142.2494  155.2003 H   0  0  0  0  0  0  0  0  0  0  0  0
  149.0945  138.6374  155.0809 H   0  0  0  0  0  0  0  0  0  0  0  0
  149.8718  139.2413  153.6312 H   0  0  0  0  0  0  0  0  0  0  0  0
  149.1150  140.4158  156.9365 H   0  0  0  0  0  0  0  0  0  0  0  0
  150.3205  141.3687  158.6186 H   0  0  0  0  0  0  0  0  0  0  0  0
  152.0063  142.6483  156.3884 H   0  0  0  0  0  0  0  0  0  0  0  0
  150.3424  143.0874  156.6237 H   0  0  0  0  0  0  0  0  0  0  0  0
  151.6830  144.6995  157.7680 H   0  0  0  0  0  0  0  0  0  0  0  0
  150.7618  143.8052  158.9404 H   0  0  0  0  0  0  0  0  0  0  0  0
  153.7344  143.4144  158.3115 H   0  0  0  0  0  0  0  0  0  0  0  0
  153.0642  144.2292  159.6960 H   0  0  0  0  0  0  0  0  0  0  0  0
  153.6553  142.0863  160.5129 H   0  0  0  0  0  0  0  0  0  0  0  0
  151.9183  142.0061  160.3607 H   0  0  0  0  0  0  0  0  0  0  0  0
  153.8715  140.4012  159.0725 H   0  0  0  0  0  0  0  0  0  0  0  0
  145.3949  141.0135  153.2380 H   0  0  0  0  0  0  0  0  0  0  0  0
  1  2  1  0  0  0  0
  1 21  1  0  0  0  0
  1 22  1  0  0  0  0
  1 23  1  0  0  0  0
  2  3  1  0  0  0  0
  2  4  1  0  0  0  0
  2 24  1  0  0  0  0
  3 25  1  0  0  0  0
  3 26  1  0  0  0  0
  3 27  1  0  0  0  0
  4  8  1  0  0  0  0
  4  5  2  0  0  0  0
  5  6  1  0  0  0  0
  5 43  1  0  0  0  0
  6  7  2  0  0  0  0
  6 28  1  0  0  0  0
  7  8  1  0  0  0  0
  7 29  1  0  0  0  0
  8  9  1  0  0  0  0
  9 10  1  0  0  0  0
  9 30  1  0  0  0  0
  9 31  1  0  0  0  0
 10 11  2  0  0  0  0
 10 12  1  0  0  0  0
 12 13  1  0  0  0  0
 12 32  1  0  0  0  0
 13 19  1  0  0  0  0
 13 14  1  0  0  0  0
 13 33  1  0  0  0  0
 14 15  1  0  0  0  0
 14 34  1  0  0  0  0
 14 35  1  0  0  0  0
 15 16  1  0  0  0  0
 15 36  1  0  0  0  0
 15 37  1  0  0  0  0
 16 17  1  0  0  0  0
 16 38  1  0  0  0  0
 16 39  1  0  0  0  0
 17 18  1  0  0  0  0
 17 40  1  0  0  0  0
 17 41  1  0  0  0  0
 18 19  1  0  0  0  0
 18 42  1  0  0  0  0
 19 20  2  0  0  0  0
M  CHG  1   5   1
M  END
> <s_m_source_file>
AV-unprocessed.smi

> <i_m_source_file_index>
2299

> <i_lp_mmshare_version>
43012

> <i_f3d_flags>
0

> <s_epik_input>
W0NIM11bQ0hdKFtDSDNdKWMxbltjSF1bY0hdbjFbQ0gyXUMoPU8pW05IXVtDQEBIXTJbQ0gyXVtDSDJdW0NIMl1bQ0gyXVtOSF1DMj1P

> <s_epik_cmdline>
J2VwaWtfcHl0aG9uJywgJy1waCcsICc3LjAnLCAnLXRuJywgJzgnLCAnLW1hJywgJzIwMCcsICctbWV0YWxfYmluZGluZycsICctaW1hZScsICc8aW5maWxlLm1hZT4nLCAnLW9tYWUnLCAnPG91dGZpbGUubWFlPic=

> <r_lp_tautomer_probability>
1

> <r_epik_Ionization_Penalty>
0.292878

> <r_epik_Ionization_Penalty_Charging>
0

> <r_epik_Ionization_Penalty_Neutral>
0.292878

> <r_epik_State_Penalty>
0.286008

> <r_epik_Charging_Adjusted_Penalty>
0.286008

> <i_epik_Tot_Q>
1

> <i_epik_Tot_abs_Q>
1

> <r_epik_Metal_State_Penalty>
0.563502

> <b_epik_Metal_Only>
0

> <s_lp_Force_Field>
OPLS_2005

> <r_lp_Energy>
16.2332

> <b_lp_Chiralities_Consistent>
1

> <s_lp_Variant>
AV-unprocessed.smi:2299-1

> <Gold.Version>
5.8.1

> <Gold.Id.Protein>
6NUR|6NUR_protein|mol2

> <Gold.PLP.Fitness>
55.9764

> <Gold.PLP.PLP>
-42.1119

> <Gold.PLP.part.hbond>
-2.6766

> <Gold.PLP.part.metal>
0.0000

> <Gold.PLP.part.buried>
-0.9266

> <Gold.PLP.part.nonpolar>
-39.1749

> <Gold.PLP.part.repulsive>
0.2048

> <Gold.PLP.ligand.clash>
0.0000

> <Gold.PLP.ligand.torsion>
0.1290

> <Gold.PLP.Chemscore.Hbond>
3.8160

> <Gold.PLP.Chemscore.CHOScore>
0.8746

> <Gold.PLP.Chemscore.Metal>
0.0000

> <Gold.Chemscore.Hbonds>
donor molecule, donor type, donor heavy atom, donor atom, acceptor molecule, acceptor atom, score
      L1  H     5    43       P1 10175  2.00
      P1  H  7989  7998       L1    11  0.86
      P1  H  7997  8008       L1    20  0.99
      L1  C     7    29       P1  8028  0.89

> <Gold.PLP.Chemscore.Internal.Correction>
0.0507

> <Gold.Rescore>
     Score         DG    S(hbond)    S(metal)    S(lipo)     H(rot)  DE(clash)    DE(int)     intcor
     14.19     -19.04       2.48        0.00      83.37       1.75       0.05       4.81       ----

> <Gold.Chemscore.Fitness>
14.1875

> <Gold.Chemscore.DG>
-19.0436

> <Gold.Chemscore.ZeroCoef>
-5.4800

> <Gold.Chemscore.Hbond>
2.4825

> <Gold.Chemscore.Metal>
0.0000

> <Gold.Chemscore.Lipo>
83.3672

> <Gold.Chemscore.Internal_Hbond>
0.0000

> <Gold.Chemscore.DEClash>
0.0471

> <Gold.Chemscore.DEInternal>
4.8090

> <Gold.Chemscore.Rot>
1.7508

> <Gold.Chemscore.Internal.Correction>
   9.000000E+99

> <Gold.Chemscore.Hbonds>
donor molecule, donor type, donor heavy atom, donor atom, acceptor molecule, acceptor atom, score
      L1  H     5    43       P1 10175  0.44
      P1  H  7989  7998       L1    11  0.69
      P1  H  7997  8008       L1    20  0.28

> <Gold.Chemscore.Hbond.Weighted>
-8.2917

> <Gold.Chemscore.Metal.Weighted>
-0.0000

> <Gold.Chemscore.Lipo.Weighted>
-9.7540

> <Gold.Chemscore.Internal_Hbond.Weighted>
0.0000

> <Gold.Chemscore.DEClash.Weighted>
0.0471

> <Gold.Chemscore.DEInternal.Weighted>
4.8090

> <Gold.Chemscore.Rot.Weighted>
4.4821

> <Gold.Chemscore.Internal.Correction.Weighted>
   9.000000E+99

> <Gold.Protein.RotatedTorsions>
[ 6907 6896 6895 6894 ] final   84.73 input  -60.11 | X-H torsion
[ 7974 7965 7964 7962 ] final -119.00 input  175.53 | X-H torsion
[ 8008 7997 7996 7995 ] final  -59.18 input   59.86 | X-H torsion
[ 10167 10162 10161 10158 ] final   24.80 input  -65.29 | X-H torsion
[ 10718 10713 10712 10709 ] final    5.53 input   66.30 | X-H torsion
[ 10763 10752 10751 10750 ] final -170.51 input  -60.55 | X-H torsion
[ 11005 11000 10999 10996 ] final  -51.23 input  -57.11 | X-H torsion

> <Gold.Protein.ActiveResidues>
 VAL166  LYS551  ARG553  GLY616  TRP617  ASP618  TYR619  PRO620  LYS621  CYS622 
 ASP623  PHE694  ASN695  SER759  ASP760  ASP761  ALA762  ILE779  LEU786  VAL792 
 PHE793  MET794  SER795  GLU796  ALA797  LYS798  CYS799  TRP800  GLU811  SER814 

> <Gold.Protein.RotatedAtoms>
  152.5359  134.2696  159.8965 H   0  0  0  0  0  0  0  0  0  0  0  0  # atno 6907 bound_to 6896
  151.2653  133.4275  159.2626 H   0  0  0  0  0  0  0  0  0  0  0  0  # atno 6908 bound_to 6896
  151.0416  134.9626  159.8221 H   0  0  0  0  0  0  0  0  0  0  0  0  # atno 6909 bound_to 6896
  145.0675  140.8335  143.4115 H   0  0  0  0  0  0  0  0  0  0  0  0  # atno 7974 bound_to 7965
  154.4341  140.1067  156.6075 H   0  0  0  0  0  0  0  0  0  0  0  0  # atno 8008 bound_to 7997
  155.5845  140.3491  155.4531 H   0  0  0  0  0  0  0  0  0  0  0  0  # atno 8009 bound_to 7997
  156.0293  140.1257  157.0264 H   0  0  0  0  0  0  0  0  0  0  0  0  # atno 8010 bound_to 7997
  140.5159  144.0084  150.6393 H   0  0  0  0  0  0  0  0  0  0  0  0  # atno 10167 bound_to 10162
  156.9087  130.5748  149.5647 H   0  0  0  0  0  0  0  0  0  0  0  0  # atno 10718 bound_to 10713
  154.6407  135.2898  155.0106 H   0  0  0  0  0  0  0  0  0  0  0  0  # atno 10763 bound_to 10752
  154.1234  135.6544  153.4911 H   0  0  0  0  0  0  0  0  0  0  0  0  # atno 10764 bound_to 10752
  153.0325  135.5293  154.7273 H   0  0  0  0  0  0  0  0  0  0  0  0  # atno 10765 bound_to 10752
  141.0859  133.6642  156.3846 H   0  0  0  0  0  0  0  0  0  0  0  0  # atno 11005 bound_to 11000
  145.1333  139.2618  143.5528 LP  0  0  0  0  0  0  0  0  0  0  0  0  # atno 17320 bound_to 7965
  146.3527  140.0990  142.8609 LP  0  0  0  0  0  0  0  0  0  0  0  0  # atno 17321 bound_to 7965
  140.3419  143.3014  152.0579 LP  0  0  0  0  0  0  0  0  0  0  0  0  # atno 17342 bound_to 10162
  139.4909  144.6436  151.6825 LP  0  0  0  0  0  0  0  0  0  0  0  0  # atno 17343 bound_to 10162
  156.0546  130.5610  150.9064 LP  0  0  0  0  0  0  0  0  0  0  0  0  # atno 17370 bound_to 10713
  157.5981  131.0942  150.9007 LP  0  0  0  0  0  0  0  0  0  0  0  0  # atno 17371 bound_to 10713
  140.5363  134.6164  157.5366 LP  0  0  0  0  0  0  0  0  0  0  0  0  # atno 17394 bound_to 11000
  139.9678  134.7344  156.0103 LP  0  0  0  0  0  0  0  0  0  0  0  0  # atno 17395 bound_to 11000

$$$$
