AV-unprocessed.smi:2083|AV-procd|sdf|8504|dock5
  -GOLD-   2272011213D 1   1.00000     0.00000
 Structure written by MMmdl.
 44 45  0  0  0  0  0  0  0  0  3 V2000
  154.1939  136.7326  162.8231 C   0  0  0  0  0  0  0  0  0  0  0  0
  154.2849  137.5626  161.5883 C   0  0  0  0  0  0  0  0  0  0  0  0
  153.3906  137.8521  160.5971 C   0  0  0  0  0  0  0  0  0  0  0  0
  154.1293  138.7048  159.7319 C   0  0  0  0  0  0  0  0  0  0  0  0
  153.6840  139.2489  158.5888 N   0  5  0  0  0  0  0  0  0  0  0  0
  152.3635  139.2392  158.2972 C   0  0  0  0  0  0  0  0  0  0  0  0
  151.7090  138.2787  157.8857 O   0  0  0  0  0  0  0  0  0  0  0  0
  151.7623  140.4192  158.4959 N   0  0  0  0  0  0  0  0  0  0  0  0
  150.3478  140.6937  158.2735 C   0  0  0  0  0  0  0  0  0  0  0  0
  150.1339  141.7877  157.2005 C   0  0  2  0  0  0  0  0  0  0  0  0
  150.9995  141.4873  155.9518 C   0  0  0  0  0  0  0  0  0  0  0  0
  150.3748  143.1404  157.8030 N   0  3  2  0  0  0  0  0  0  0  0  0
  151.8243  143.3853  158.0509 C   0  0  0  0  0  0  0  0  0  0  0  0
  152.0907  144.8378  158.4712 C   0  0  0  0  0  0  0  0  0  0  0  0
  151.2852  145.1953  159.7232 C   0  0  0  0  0  0  0  0  0  0  0  0
  149.7929  144.9281  159.4784 C   0  0  2  0  0  0  0  0  0  0  0  0
  148.9549  145.2576  160.7222 C   0  0  0  0  0  0  0  0  0  0  0  0
  149.5692  143.4727  159.0157 C   0  0  0  0  0  0  0  0  0  0  0  0
  155.3675  138.9017  160.1520 N   0  0  0  0  0  0  0  0  0  0  0  0
  155.4735  138.1781  161.3458 O   0  0  0  0  0  0  0  0  0  0  0  0
  153.9280  135.7044  162.5776 H   0  0  0  0  0  0  0  0  0  0  0  0
  153.4335  137.1274  163.4967 H   0  0  0  0  0  0  0  0  0  0  0  0
  155.1437  136.7169  163.3582 H   0  0  0  0  0  0  0  0  0  0  0  0
  152.3701  137.5116  160.5064 H   0  0  0  0  0  0  0  0  0  0  0  0
  152.3341  141.1806  158.8317 H   0  0  0  0  0  0  0  0  0  0  0  0
  149.8734  139.7540  157.9930 H   0  0  0  0  0  0  0  0  0  0  0  0
  149.8859  141.0086  159.2111 H   0  0  0  0  0  0  0  0  0  0  0  0
  149.0940  141.7518  156.8705 H   0  0  0  0  0  0  0  0  0  0  0  0
  150.7972  140.4939  155.5513 H   0  0  0  0  0  0  0  0  0  0  0  0
  152.0641  141.5305  156.1836 H   0  0  0  0  0  0  0  0  0  0  0  0
  150.7960  142.1803  155.1353 H   0  0  0  0  0  0  0  0  0  0  0  0
  152.1787  142.7047  158.8269 H   0  0  0  0  0  0  0  0  0  0  0  0
  152.4142  143.1707  157.1612 H   0  0  0  0  0  0  0  0  0  0  0  0
  153.1548  144.9801  158.6620 H   0  0  0  0  0  0  0  0  0  0  0  0
  151.8286  145.5125  157.6552 H   0  0  0  0  0  0  0  0  0  0  0  0
  151.6379  144.6049  160.5701 H   0  0  0  0  0  0  0  0  0  0  0  0
  151.4468  146.2422  159.9825 H   0  0  0  0  0  0  0  0  0  0  0  0
  149.4610  145.5897  158.6765 H   0  0  0  0  0  0  0  0  0  0  0  0
  149.2303  144.6240  161.5661 H   0  0  0  0  0  0  0  0  0  0  0  0
  147.8916  145.1125  160.5301 H   0  0  0  0  0  0  0  0  0  0  0  0
  149.0946  146.2955  161.0258 H   0  0  0  0  0  0  0  0  0  0  0  0
  148.5050  143.3673  158.8075 H   0  0  0  0  0  0  0  0  0  0  0  0
  149.8148  142.7750  159.8181 H   0  0  0  0  0  0  0  0  0  0  0  0
  150.0840  143.8048  157.0999 H   0  0  0  0  0  0  0  0  0  0  0  0
  1  2  1  0  0  0  0
  1 21  1  0  0  0  0
  1 22  1  0  0  0  0
  1 23  1  0  0  0  0
  2 20  1  0  0  0  0
  2  3  2  0  0  0  0
  3  4  1  0  0  0  0
  3 24  1  0  0  0  0
  4  5  1  0  0  0  0
  4 19  2  0  0  0  0
  5  6  1  0  0  0  0
  6  7  2  0  0  0  0
  6  8  1  0  0  0  0
  8  9  1  0  0  0  0
  8 25  1  0  0  0  0
  9 10  1  0  0  0  0
  9 26  1  0  0  0  0
  9 27  1  0  0  0  0
 10 11  1  0  0  0  0
 10 12  1  0  0  0  0
 10 28  1  0  0  0  0
 11 29  1  0  0  0  0
 11 30  1  0  0  0  0
 11 31  1  0  0  0  0
 12 18  1  0  0  0  0
 12 13  1  0  0  0  0
 12 44  1  0  0  0  0
 13 14  1  0  0  0  0
 13 32  1  0  0  0  0
 13 33  1  0  0  0  0
 14 15  1  0  0  0  0
 14 34  1  0  0  0  0
 14 35  1  0  0  0  0
 15 16  1  0  0  0  0
 15 36  1  0  0  0  0
 15 37  1  0  0  0  0
 16 17  1  0  0  0  0
 16 18  1  0  0  0  0
 16 38  1  0  0  0  0
 17 39  1  0  0  0  0
 17 40  1  0  0  0  0
 17 41  1  0  0  0  0
 18 42  1  0  0  0  0
 18 43  1  0  0  0  0
 19 20  1  0  0  0  0
M  CHG  1   5  -1
M  CHG  1  12   1
M  END
> <s_m_source_file>
AV-unprocessed.smi

> <i_m_source_file_index>
2083

> <i_lp_mmshare_version>
43012

> <i_f3d_flags>
0

> <s_epik_input>
W0NIM11jMVtjSF1jKG5vMSlbTkhdQyg9TylbTkhdW0NIMl1bQ0BIXShbQ0gzXSlOMltDSDJdW0NIMl1bQ0gyXVtDQEBIXShbQ0gzXSlbQ0gyXTI=

> <s_epik_cmdline>
J2VwaWtfcHl0aG9uJywgJy1waCcsICc3LjAnLCAnLXRuJywgJzgnLCAnLW1hJywgJzIwMCcsICctbWV0YWxfYmluZGluZycsICctaW1hZScsICc8aW5maWxlLm1hZT4nLCAnLW9tYWUnLCAnPG91dGZpbGUubWFlPic=

> <r_epik_Ionization_Penalty>
6.22434

> <r_epik_Ionization_Penalty_Charging>
6.22425

> <r_epik_Ionization_Penalty_Neutral>
9.62407e-05

> <r_epik_State_Penalty>
6.22423

> <r_epik_Charging_Adjusted_Penalty>
12.4485

> <i_epik_Tot_Q>
0

> <i_epik_Tot_abs_Q>
2

> <r_epik_Metal_State_Penalty>
2.16764

> <b_epik_Metal_Only>
1

> <s_lp_Force_Field>
OPLS_2005

> <r_lp_Energy>
11.4066

> <b_lp_Chiralities_Consistent>
1

> <s_lp_Variant>
AV-unprocessed.smi:2083-15

> <Gold.Version>
5.8.1

> <Gold.Id.Protein>
6NUR|6NUR_protein|mol2

> <Gold.PLP.Fitness>
44.5521

> <Gold.PLP.PLP>
-34.3130

> <Gold.PLP.part.hbond>
-2.0000

> <Gold.PLP.part.metal>
0.0000

> <Gold.PLP.part.buried>
-3.7303

> <Gold.PLP.part.nonpolar>
-27.4031

> <Gold.PLP.part.repulsive>
0.1442

> <Gold.PLP.ligand.clash>
0.0019

> <Gold.PLP.ligand.torsion>
0.9325

> <Gold.PLP.Chemscore.Hbond>
4.0000

> <Gold.PLP.Chemscore.CHOScore>
0.0000

> <Gold.PLP.Chemscore.Metal>
0.0000

> <Gold.Chemscore.Hbonds>
donor molecule, donor type, donor heavy atom, donor atom, acceptor molecule, acceptor atom, score
      L1  H    12    44       P1  8028  1.82
      P1  H  7997  8010       L1     5  2.00

> <Gold.PLP.Chemscore.Internal.Correction>
0.1061

> <Gold.Rescore>
     Score         DG    S(hbond)    S(metal)    S(lipo)     H(rot)  DE(clash)    DE(int)     intcor
     17.58     -18.68       1.83        0.00      93.92       1.52       0.07       1.03       ----

> <Gold.Chemscore.Fitness>
17.5785

> <Gold.Chemscore.DG>
-18.6806

> <Gold.Chemscore.ZeroCoef>
-5.4800

> <Gold.Chemscore.Hbond>
1.8265

> <Gold.Chemscore.Metal>
0.0000

> <Gold.Chemscore.Lipo>
93.9206

> <Gold.Chemscore.Internal_Hbond>
0.0000

> <Gold.Chemscore.DEClash>
0.0689

> <Gold.Chemscore.DEInternal>
1.0332

> <Gold.Chemscore.Rot>
1.5190

> <Gold.Chemscore.Internal.Correction>
   9.000000E+99

> <Gold.Chemscore.Hbonds>
donor molecule, donor type, donor heavy atom, donor atom, acceptor molecule, acceptor atom, score
      L1  H    12    44       P1  8028  0.83
      P1  H  7997  8010       L1     5  0.78

> <Gold.Chemscore.Hbond.Weighted>
-6.1005

> <Gold.Chemscore.Metal.Weighted>
-0.0000

> <Gold.Chemscore.Lipo.Weighted>
-10.9887

> <Gold.Chemscore.Internal_Hbond.Weighted>
0.0000

> <Gold.Chemscore.DEClash.Weighted>
0.0689

> <Gold.Chemscore.DEInternal.Weighted>
1.0332

> <Gold.Chemscore.Rot.Weighted>
3.8886

> <Gold.Chemscore.Internal.Correction.Weighted>
   9.000000E+99

> <Gold.Protein.RotatedTorsions>
[ 6907 6896 6895 6894 ] final   38.35 input  -60.11 | X-H torsion
[ 7974 7965 7964 7962 ] final  124.94 input  175.53 | X-H torsion
[ 8008 7997 7996 7995 ] final   25.76 input   59.86 | X-H torsion
[ 10167 10162 10161 10158 ] final  -99.09 input  -65.29 | X-H torsion
[ 10718 10713 10712 10709 ] final   77.47 input   66.30 | X-H torsion
[ 10763 10752 10751 10750 ] final  -57.16 input  -60.55 | X-H torsion
[ 11005 11000 10999 10996 ] final   47.69 input  -57.11 | X-H torsion

> <Gold.Protein.ActiveResidues>
 VAL166  LYS551  ARG553  GLY616  TRP617  ASP618  TYR619  PRO620  LYS621  CYS622 
 ASP623  PHE694  ASN695  SER759  ASP760  ASP761  ALA762  ILE779  LEU786  VAL792 
 PHE793  MET794  SER795  GLU796  ALA797  LYS798  CYS799  TRP800  GLU811  SER814 

> <Gold.Protein.RotatedAtoms>
  152.1553  134.8955  160.0545 H   0  0  0  0  0  0  0  0  0  0  0  0  # atno 6907 bound_to 6896
  151.9972  133.3807  159.4175 H   0  0  0  0  0  0  0  0  0  0  0  0  # atno 6908 bound_to 6896
  150.6881  134.3796  159.5072 H   0  0  0  0  0  0  0  0  0  0  0  0  # atno 6909 bound_to 6896
  145.0786  139.3674  143.4920 H   0  0  0  0  0  0  0  0  0  0  0  0  # atno 7974 bound_to 7965
  155.0167  140.3143  155.4809 H   0  0  0  0  0  0  0  0  0  0  0  0  # atno 8008 bound_to 7997
  156.2899  140.2205  156.5225 H   0  0  0  0  0  0  0  0  0  0  0  0  # atno 8009 bound_to 7997
  154.7487  140.0468  157.0862 H   0  0  0  0  0  0  0  0  0  0  0  0  # atno 8010 bound_to 7997
  140.2662  143.3374  152.0579 H   0  0  0  0  0  0  0  0  0  0  0  0  # atno 10167 bound_to 10162
  157.6711  130.9823  150.1646 H   0  0  0  0  0  0  0  0  0  0  0  0  # atno 10718 bound_to 10713
  154.2181  135.6382  153.5136 H   0  0  0  0  0  0  0  0  0  0  0  0  # atno 10763 bound_to 10752
  152.9975  135.5490  154.6143 H   0  0  0  0  0  0  0  0  0  0  0  0  # atno 10764 bound_to 10752
  154.5596  135.2908  155.0905 H   0  0  0  0  0  0  0  0  0  0  0  0  # atno 10765 bound_to 10752
  140.1257  134.4771  155.8561 H   0  0  0  0  0  0  0  0  0  0  0  0  # atno 11005 bound_to 11000
  146.3530  140.0566  142.8632 LP  0  0  0  0  0  0  0  0  0  0  0  0  # atno 17320 bound_to 7965
  145.1205  140.9459  143.4603 LP  0  0  0  0  0  0  0  0  0  0  0  0  # atno 17321 bound_to 7965
  139.5002  144.6687  151.6295 LP  0  0  0  0  0  0  0  0  0  0  0  0  # atno 17342 bound_to 10162
  140.5927  143.9752  150.6334 LP  0  0  0  0  0  0  0  0  0  0  0  0  # atno 17343 bound_to 10162
  156.2414  130.3691  149.8332 LP  0  0  0  0  0  0  0  0  0  0  0  0  # atno 17370 bound_to 10713
  156.6131  130.8595  151.3459 LP  0  0  0  0  0  0  0  0  0  0  0  0  # atno 17371 bound_to 10713
  141.2160  133.6777  156.6973 LP  0  0  0  0  0  0  0  0  0  0  0  0  # atno 17394 bound_to 11000
  140.2907  134.8243  157.4014 LP  0  0  0  0  0  0  0  0  0  0  0  0  # atno 17395 bound_to 11000

$$$$
