AV-unprocessed.smi:2238|AV-procd|sdf|9054|dock2
  -GOLD-   2272012263D 1   1.00000     0.00000
 Structure written by MMmdl.
 38 39  0  0  0  0  0  0  0  0  1 V2000
  151.7019  145.3743  158.1381 C   0  0  0  0  0  0  0  0  0  0  0  0
  151.9194  143.8752  158.1623 C   0  0  0  0  0  0  0  0  0  0  0  0
  152.8172  143.3021  159.0842 C   0  0  0  0  0  0  0  0  0  0  0  0
  153.0132  141.9095  159.0997 C   0  0  0  0  0  0  0  0  0  0  0  0
  152.3151  141.0859  158.1952 C   0  0  0  0  0  0  0  0  0  0  0  0
  152.5763  139.3787  158.2339 Cl  0  0  0  0  0  0  0  0  0  0  0  0
  151.4132  141.6450  157.2631 C   0  0  0  0  0  0  0  0  0  0  0  0
  150.7683  140.7766  156.4079 O   0  0  0  0  0  0  0  0  0  0  0  0
  149.7224  141.2804  155.5862 C   0  0  0  0  0  0  0  0  0  0  0  0
  149.1037  140.1334  154.7685 C   0  0  2  0  0  0  0  0  0  0  0  0
  150.0604  139.7331  153.8081 O   0  0  0  0  0  0  0  0  0  0  0  0
  147.7748  140.5251  154.0823 C   0  0  0  0  0  0  0  0  0  0  0  0
  147.1106  139.3679  153.4603 N   0  0  0  0  0  0  0  0  0  0  0  0
  147.1141  139.3206  152.0519 C   0  0  0  0  0  0  0  0  0  0  0  0
  146.5597  138.3481  151.4002 N   0  0  0  0  0  0  0  0  0  0  0  0
  145.9352  137.3133  152.1031 C   0  0  0  0  0  0  0  0  0  0  0  0
  145.3058  136.2035  151.2865 C   0  0  0  0  0  0  0  0  0  0  0  0
  145.8942  137.3175  153.4557 C   0  0  0  0  0  0  0  0  0  0  0  0
  146.5097  138.4045  154.2175 C   0  0  0  0  0  0  0  0  0  0  0  0
  146.4850  138.4480  155.4475 O   0  0  0  0  0  0  0  0  0  0  0  0
  151.2219  143.0504  157.2562 C   0  0  0  0  0  0  0  0  0  0  0  0
  152.1190  145.8503  159.0260 H   0  0  0  0  0  0  0  0  0  0  0  0
  150.6366  145.6040  158.1005 H   0  0  0  0  0  0  0  0  0  0  0  0
  152.1790  145.8102  157.2602 H   0  0  0  0  0  0  0  0  0  0  0  0
  153.3579  143.9260  159.7810 H   0  0  0  0  0  0  0  0  0  0  0  0
  153.7020  141.4723  159.8078 H   0  0  0  0  0  0  0  0  0  0  0  0
  148.9573  141.7813  156.1823 H   0  0  0  0  0  0  0  0  0  0  0  0
  150.1385  142.0158  154.8956 H   0  0  0  0  0  0  0  0  0  0  0  0
  148.9451  139.2901  155.4423 H   0  0  0  0  0  0  0  0  0  0  0  0
  149.6201  139.5960  152.9828 H   0  0  0  0  0  0  0  0  0  0  0  0
  147.1040  140.9649  154.8232 H   0  0  0  0  0  0  0  0  0  0  0  0
  147.9346  141.3285  153.3604 H   0  0  0  0  0  0  0  0  0  0  0  0
  147.6098  140.1568  151.5558 H   0  0  0  0  0  0  0  0  0  0  0  0
  145.2165  135.2877  151.8717 H   0  0  0  0  0  0  0  0  0  0  0  0
  145.9095  135.9828  150.4056 H   0  0  0  0  0  0  0  0  0  0  0  0
  144.3098  136.4979  150.9554 H   0  0  0  0  0  0  0  0  0  0  0  0
  145.4042  136.5137  153.9854 H   0  0  0  0  0  0  0  0  0  0  0  0
  150.5424  143.5204  156.5618 H   0  0  0  0  0  0  0  0  0  0  0  0
  1  2  1  0  0  0  0
  1 22  1  0  0  0  0
  1 23  1  0  0  0  0
  1 24  1  0  0  0  0
  2 21  1  0  0  0  0
  2  3  2  0  0  0  0
  3  4  1  0  0  0  0
  3 25  1  0  0  0  0
  4  5  2  0  0  0  0
  4 26  1  0  0  0  0
  5  6  1  0  0  0  0
  5  7  1  0  0  0  0
  7  8  1  0  0  0  0
  7 21  2  0  0  0  0
  8  9  1  0  0  0  0
  9 10  1  0  0  0  0
  9 27  1  0  0  0  0
  9 28  1  0  0  0  0
 10 11  1  0  0  0  0
 10 12  1  0  0  0  0
 10 29  1  0  0  0  0
 11 30  1  0  0  0  0
 12 13  1  0  0  0  0
 12 31  1  0  0  0  0
 12 32  1  0  0  0  0
 13 19  1  0  0  0  0
 13 14  1  0  0  0  0
 14 15  2  0  0  0  0
 14 33  1  0  0  0  0
 15 16  1  0  0  0  0
 16 17  1  0  0  0  0
 16 18  2  0  0  0  0
 17 34  1  0  0  0  0
 17 35  1  0  0  0  0
 17 36  1  0  0  0  0
 18 19  1  0  0  0  0
 18 37  1  0  0  0  0
 19 20  2  0  0  0  0
 21 38  1  0  0  0  0
M  END
> <s_m_source_file>
AV-unprocessed.smi

> <i_m_source_file_index>
2238

> <i_lp_mmshare_version>
43012

> <i_f3d_flags>
0

> <s_epik_input>
W0NIM11jMVtjSF1bY0hdYyhDbCljKFtjSF0xKU9bQ0gyXVtDQEhdKFtPSF0pW0NIMl1uMltjSF1uYyhbQ0gzXSlbY0hdYzI9Tw==

> <s_epik_cmdline>
J2VwaWtfcHl0aG9uJywgJy1waCcsICc3LjAnLCAnLXRuJywgJzgnLCAnLW1hJywgJzIwMCcsICctbWV0YWxfYmluZGluZycsICctaW1hZScsICc8aW5maWxlLm1hZT4nLCAnLW9tYWUnLCAnPG91dGZpbGUubWFlPic=

> <r_lp_tautomer_probability>
1

> <r_epik_Ionization_Penalty>
1.78029e-05

> <r_epik_Ionization_Penalty_Charging>
3.78421e-08

> <r_epik_Ionization_Penalty_Neutral>
1.7765e-05

> <r_epik_State_Penalty>
-0

> <r_epik_Charging_Adjusted_Penalty>
3.78421e-08

> <i_epik_Tot_Q>
0

> <i_epik_Tot_abs_Q>
0

> <r_epik_Metal_State_Penalty>
-0

> <b_epik_Metal_Only>
0

> <s_lp_Force_Field>
OPLS_2005

> <r_lp_Energy>
23.6885

> <b_lp_Chiralities_Consistent>
1

> <s_lp_Variant>
AV-unprocessed.smi:2238-1

> <Gold.Version>
5.8.1

> <Gold.Id.Protein>
6NUR|6NUR_protein|mol2

> <Gold.PLP.Fitness>
49.1962

> <Gold.PLP.PLP>
-39.5850

> <Gold.PLP.part.hbond>
-3.0000

> <Gold.PLP.part.metal>
0.0000

> <Gold.PLP.part.buried>
0.9301

> <Gold.PLP.part.nonpolar>
-38.5855

> <Gold.PLP.part.repulsive>
0.4155

> <Gold.PLP.ligand.clash>
0.0000

> <Gold.PLP.ligand.torsion>
0.2870

> <Gold.PLP.Chemscore.Hbond>
2.8800

> <Gold.PLP.Chemscore.CHOScore>
0.4929

> <Gold.PLP.Chemscore.Metal>
0.0000

> <Gold.Chemscore.Hbonds>
donor molecule, donor type, donor heavy atom, donor atom, acceptor molecule, acceptor atom, score
      L1  H    11    30       P1  7957  0.90
      P1  H  7954  7966       L1    15  0.46
      P1  H  7989  7998       L1    11  0.90
      L1  C    14    33       P1  7957  0.74

> <Gold.PLP.Chemscore.Internal.Correction>
0.0664

> <Gold.Rescore>
     Score         DG    S(hbond)    S(metal)    S(lipo)     H(rot)  DE(clash)    DE(int)     intcor
     16.21     -18.35       1.86        0.00     110.91       2.47       1.56       0.58       ----

> <Gold.Chemscore.Fitness>
16.2098

> <Gold.Chemscore.DG>
-18.3540

> <Gold.Chemscore.ZeroCoef>
-5.4800

> <Gold.Chemscore.Hbond>
1.8639

> <Gold.Chemscore.Metal>
0.0000

> <Gold.Chemscore.Lipo>
110.9087

> <Gold.Chemscore.Internal_Hbond>
0.0000

> <Gold.Chemscore.DEClash>
1.5647

> <Gold.Chemscore.DEInternal>
0.5796

> <Gold.Chemscore.Rot>
2.4718

> <Gold.Chemscore.Internal.Correction>
   9.000000E+99

> <Gold.Chemscore.Hbonds>
donor molecule, donor type, donor heavy atom, donor atom, acceptor molecule, acceptor atom, score
      L1  H    11    30       P1  7957  0.88
      P1  H  7954  7966       L1    15  0.13
      P1  H  7989  7998       L1    11  0.51

> <Gold.Chemscore.Hbond.Weighted>
-6.2256

> <Gold.Chemscore.Metal.Weighted>
-0.0000

> <Gold.Chemscore.Lipo.Weighted>
-12.9763

> <Gold.Chemscore.Internal_Hbond.Weighted>
0.0000

> <Gold.Chemscore.DEClash.Weighted>
1.5647

> <Gold.Chemscore.DEInternal.Weighted>
0.5796

> <Gold.Chemscore.Rot.Weighted>
6.3279

> <Gold.Chemscore.Internal.Correction.Weighted>
   9.000000E+99

> <Gold.Protein.RotatedTorsions>
[ 6907 6896 6895 6894 ] final   63.58 input  -60.11 | X-H torsion
[ 7974 7965 7964 7962 ] final -145.75 input  175.53 | X-H torsion
[ 8008 7997 7996 7995 ] final  142.39 input   59.86 | X-H torsion
[ 10167 10162 10161 10158 ] final   -4.53 input  -65.29 | X-H torsion
[ 10718 10713 10712 10709 ] final  -90.91 input   66.30 | X-H torsion
[ 10763 10752 10751 10750 ] final -141.25 input  -60.55 | X-H torsion
[ 11005 11000 10999 10996 ] final   63.68 input  -57.11 | X-H torsion

> <Gold.Protein.ActiveResidues>
 VAL166  LYS551  ARG553  GLY616  TRP617  ASP618  TYR619  PRO620  LYS621  CYS622 
 ASP623  PHE694  ASN695  SER759  ASP760  ASP761  ALA762  ILE779  LEU786  VAL792 
 PHE793  MET794  SER795  GLU796  ALA797  LYS798  CYS799  TRP800  GLU811  SER814 

> <Gold.Protein.RotatedAtoms>
  152.4264  134.5860  159.9960 H   0  0  0  0  0  0  0  0  0  0  0  0  # atno 6907 bound_to 6896
  151.5995  133.3352  159.3052 H   0  0  0  0  0  0  0  0  0  0  0  0  # atno 6908 bound_to 6896
  150.8154  134.7369  159.6790 H   0  0  0  0  0  0  0  0  0  0  0  0  # atno 6909 bound_to 6896
  144.8206  140.5544  143.5581 H   0  0  0  0  0  0  0  0  0  0  0  0  # atno 7974 bound_to 7965
  156.2950  140.2290  156.4721 H   0  0  0  0  0  0  0  0  0  0  0  0  # atno 8008 bound_to 7997
  154.7926  140.0453  157.1234 H   0  0  0  0  0  0  0  0  0  0  0  0  # atno 8009 bound_to 7997
  154.9627  140.3056  155.5027 H   0  0  0  0  0  0  0  0  0  0  0  0  # atno 8010 bound_to 7997
  140.6931  143.6413  150.8433 H   0  0  0  0  0  0  0  0  0  0  0  0  # atno 10167 bound_to 10162
  155.9990  130.4928  150.5395 H   0  0  0  0  0  0  0  0  0  0  0  0  # atno 10718 bound_to 10713
  154.8551  135.3529  154.5838 H   0  0  0  0  0  0  0  0  0  0  0  0  # atno 10763 bound_to 10752
  153.6449  135.6996  153.5233 H   0  0  0  0  0  0  0  0  0  0  0  0  # atno 10764 bound_to 10752
  153.2941  135.4226  155.1152 H   0  0  0  0  0  0  0  0  0  0  0  0  # atno 10765 bound_to 10752
  140.0008  134.6445  155.9934 H   0  0  0  0  0  0  0  0  0  0  0  0  # atno 11005 bound_to 11000
  145.5114  139.1479  143.3603 LP  0  0  0  0  0  0  0  0  0  0  0  0  # atno 17320 bound_to 7965
  146.2511  140.5254  142.8893 LP  0  0  0  0  0  0  0  0  0  0  0  0  # atno 17321 bound_to 7965
  140.0128  143.5625  152.2832 LP  0  0  0  0  0  0  0  0  0  0  0  0  # atno 17342 bound_to 10162
  139.6355  144.7649  151.2448 LP  0  0  0  0  0  0  0  0  0  0  0  0  # atno 17343 bound_to 10162
  157.3333  131.0703  151.1844 LP  0  0  0  0  0  0  0  0  0  0  0  0  # atno 17370 bound_to 10713
  157.2717  130.6707  149.6023 LP  0  0  0  0  0  0  0  0  0  0  0  0  # atno 17371 bound_to 10713
  141.1640  133.6537  156.4417 LP  0  0  0  0  0  0  0  0  0  0  0  0  # atno 17394 bound_to 11000
  140.4731  134.6734  157.5138 LP  0  0  0  0  0  0  0  0  0  0  0  0  # atno 17395 bound_to 11000

$$$$
