AV-unprocessed.smi:3285|AV-procd|sdf|12583|dock8
  -GOLD-   2272018503D 1   1.00000     0.00000
 Structure written by MMmdl.
 45 46  0  0  0  0  0  0  0  0  2 V2000
  153.1674  138.7474  154.5540 C   0  0  0  0  0  0  0  0  0  0  0  0
  151.7545  138.2552  154.6803 C   0  0  0  0  0  0  0  0  0  0  0  0
  151.5358  136.9569  154.7986 N   0  0  0  0  0  0  0  0  0  0  0  0
  150.1490  136.8077  154.8893 O   0  0  0  0  0  0  0  0  0  0  0  0
  149.5792  138.0371  154.8206 C   0  0  0  0  0  0  0  0  0  0  0  0
  148.0902  138.0812  154.8945 C   0  0  0  0  0  0  0  0  0  0  0  0
  150.5405  139.0022  154.6888 C   0  0  0  0  0  0  0  0  0  0  0  0
  150.3627  140.4925  154.5723 C   0  0  0  0  0  0  0  0  0  0  0  0
  149.7495  141.0844  155.8478 C   0  0  0  0  0  0  0  0  0  0  0  0
  150.4762  142.2970  156.2725 N   0  3  0  0  0  0  0  0  0  0  0  0
  150.7906  142.3577  157.7161 C   0  0  1  0  0  0  0  0  0  0  0  0
  151.9569  141.4142  158.0436 C   0  0  0  0  0  0  0  0  0  0  0  0
  152.3176  141.4873  159.5331 C   0  0  0  0  0  0  0  0  0  0  0  0
  152.6690  142.9231  159.9735 C   0  0  2  0  0  0  0  0  0  0  0  0
  153.0323  142.9333  161.4693 C   0  0  0  0  0  0  0  0  0  0  0  0
  151.5173  143.9035  159.6225 C   0  0  1  0  0  0  0  0  0  0  0  0
  151.8497  145.3651  159.9732 C   0  0  0  0  0  0  0  0  0  0  0  0
  151.1418  143.7971  158.1286 C   0  0  0  0  0  0  0  0  0  0  0  0
  153.2062  139.8278  154.4177 H   0  0  0  0  0  0  0  0  0  0  0  0
  153.6659  138.2904  153.6987 H   0  0  0  0  0  0  0  0  0  0  0  0
  153.7471  138.5057  155.4452 H   0  0  0  0  0  0  0  0  0  0  0  0
  147.7213  139.1042  154.8226 H   0  0  0  0  0  0  0  0  0  0  0  0
  147.7380  137.6611  155.8366 H   0  0  0  0  0  0  0  0  0  0  0  0
  147.6470  137.5056  154.0816 H   0  0  0  0  0  0  0  0  0  0  0  0
  151.3191  140.9776  154.3736 H   0  0  0  0  0  0  0  0  0  0  0  0
  149.7304  140.7386  153.7186 H   0  0  0  0  0  0  0  0  0  0  0  0
  148.7009  141.3339  155.6793 H   0  0  0  0  0  0  0  0  0  0  0  0
  149.7845  140.3486  156.6529 H   0  0  0  0  0  0  0  0  0  0  0  0
  151.3452  142.3374  155.7597 H   0  0  0  0  0  0  0  0  0  0  0  0
  149.9202  142.0363  158.2914 H   0  0  0  0  0  0  0  0  0  0  0  0
  151.6949  140.3887  157.7803 H   0  0  0  0  0  0  0  0  0  0  0  0
  152.8302  141.6755  157.4441 H   0  0  0  0  0  0  0  0  0  0  0  0
  151.4817  141.1140  160.1267 H   0  0  0  0  0  0  0  0  0  0  0  0
  153.1568  140.8202  159.7335 H   0  0  0  0  0  0  0  0  0  0  0  0
  153.5570  143.2306  159.4192 H   0  0  0  0  0  0  0  0  0  0  0  0
  152.1679  142.6949  162.0898 H   0  0  0  0  0  0  0  0  0  0  0  0
  153.4179  143.9013  161.7875 H   0  0  0  0  0  0  0  0  0  0  0  0
  153.8080  142.1986  161.6873 H   0  0  0  0  0  0  0  0  0  0  0  0
  150.6397  143.6181  160.2049 H   0  0  0  0  0  0  0  0  0  0  0  0
  152.7642  145.6945  159.4788 H   0  0  0  0  0  0  0  0  0  0  0  0
  151.9794  145.5053  161.0457 H   0  0  0  0  0  0  0  0  0  0  0  0
  151.0470  146.0345  159.6630 H   0  0  0  0  0  0  0  0  0  0  0  0
  151.9710  144.1604  157.5192 H   0  0  0  0  0  0  0  0  0  0  0  0
  150.2952  144.4519  157.9157 H   0  0  0  0  0  0  0  0  0  0  0  0
  149.9241  143.1075  156.0305 H   0  0  0  0  0  0  0  0  0  0  0  0
  1  2  1  0  0  0  0
  1 19  1  0  0  0  0
  1 20  1  0  0  0  0
  1 21  1  0  0  0  0
  2  7  1  0  0  0  0
  2  3  2  0  0  0  0
  3  4  1  0  0  0  0
  4  5  1  0  0  0  0
  5  6  1  0  0  0  0
  5  7  2  0  0  0  0
  6 22  1  0  0  0  0
  6 23  1  0  0  0  0
  6 24  1  0  0  0  0
  7  8  1  0  0  0  0
  8  9  1  0  0  0  0
  8 25  1  0  0  0  0
  8 26  1  0  0  0  0
  9 10  1  0  0  0  0
  9 27  1  0  0  0  0
  9 28  1  0  0  0  0
 10 11  1  0  0  0  0
 10 29  1  0  0  0  0
 10 45  1  0  0  0  0
 11 18  1  0  0  0  0
 11 12  1  0  0  0  0
 11 30  1  0  0  0  0
 12 13  1  0  0  0  0
 12 31  1  0  0  0  0
 12 32  1  0  0  0  0
 13 14  1  0  0  0  0
 13 33  1  0  0  0  0
 13 34  1  0  0  0  0
 14 15  1  0  0  0  0
 14 16  1  0  0  0  0
 14 35  1  0  0  0  0
 15 36  1  0  0  0  0
 15 37  1  0  0  0  0
 15 38  1  0  0  0  0
 16 17  1  0  0  0  0
 16 18  1  0  0  0  0
 16 39  1  0  0  0  0
 17 40  1  0  0  0  0
 17 41  1  0  0  0  0
 17 42  1  0  0  0  0
 18 43  1  0  0  0  0
 18 44  1  0  0  0  0
M  CHG  1  10   1
M  END
> <s_m_source_file>
AV-unprocessed.smi

> <i_m_source_file_index>
3285

> <i_lp_mmshare_version>
43012

> <i_f3d_flags>
0

> <s_epik_input>
W0NIM11jMW5vYyhbQ0gzXSljMVtDSDJdW0NIMl1bTkhdW0NAQEhdMltDSDJdW0NIMl1bQ0BASF0oW0NIM10pW0NAQEhdKFtDSDNdKVtDSDJdMg==

> <s_epik_cmdline>
J2VwaWtfcHl0aG9uJywgJy1waCcsICc3LjAnLCAnLXRuJywgJzgnLCAnLW1hJywgJzIwMCcsICctbWV0YWxfYmluZGluZycsICctaW1hZScsICc8aW5maWxlLm1hZT4nLCAnLW9tYWUnLCAnPG91dGZpbGUubWFlPic=

> <r_lp_tautomer_probability>
1

> <r_epik_Ionization_Penalty>
0.000204615

> <r_epik_Ionization_Penalty_Charging>
0.000204615

> <r_epik_Ionization_Penalty_Neutral>
9.28663e-11

> <r_epik_State_Penalty>
-0

> <r_epik_Charging_Adjusted_Penalty>
0.000204615

> <i_epik_Tot_Q>
1

> <i_epik_Tot_abs_Q>
1

> <r_epik_Metal_State_Penalty>
-0

> <b_epik_Metal_Only>
0

> <s_lp_Force_Field>
OPLS_2005

> <r_lp_Energy>
11.6607

> <b_lp_Chiralities_Consistent>
1

> <s_lp_Variant>
AV-unprocessed.smi:3285-4

> <Gold.Version>
5.8.1

> <Gold.Id.Protein>
6NUR|6NUR_protein|mol2

> <Gold.PLP.Fitness>
48.0024

> <Gold.PLP.PLP>
-40.5908

> <Gold.PLP.part.hbond>
-2.0000

> <Gold.PLP.part.metal>
0.0000

> <Gold.PLP.part.buried>
-3.4481

> <Gold.PLP.part.nonpolar>
-35.8003

> <Gold.PLP.part.repulsive>
0.3979

> <Gold.PLP.ligand.clash>
0.0000

> <Gold.PLP.ligand.torsion>
0.7986

> <Gold.PLP.Chemscore.Hbond>
3.0000

> <Gold.PLP.Chemscore.CHOScore>
0.0000

> <Gold.PLP.Chemscore.Metal>
0.0000

> <Gold.Chemscore.Hbonds>
donor molecule, donor type, donor heavy atom, donor atom, acceptor molecule, acceptor atom, score
      L1  H    10    45       P1  8028  2.00
      P1  H 10752 10765       L1     3  1.00

> <Gold.PLP.Chemscore.Internal.Correction>
0.0087

> <Gold.Rescore>
     Score         DG    S(hbond)    S(metal)    S(lipo)     H(rot)  DE(clash)    DE(int)     intcor
     21.39     -23.32       1.96        0.00     125.97       1.35       1.14       0.79       ----

> <Gold.Chemscore.Fitness>
21.3858

> <Gold.Chemscore.DG>
-23.3170

> <Gold.Chemscore.ZeroCoef>
-5.4800

> <Gold.Chemscore.Hbond>
1.9599

> <Gold.Chemscore.Metal>
0.0000

> <Gold.Chemscore.Lipo>
125.9663

> <Gold.Chemscore.Internal_Hbond>
0.0000

> <Gold.Chemscore.DEClash>
1.1392

> <Gold.Chemscore.DEInternal>
0.7921

> <Gold.Chemscore.Rot>
1.3465

> <Gold.Chemscore.Internal.Correction>
   9.000000E+99

> <Gold.Chemscore.Hbonds>
donor molecule, donor type, donor heavy atom, donor atom, acceptor molecule, acceptor atom, score
      L1  H    10    45       P1  8028  0.99
      P1  H 10752 10765       L1     3  0.96

> <Gold.Chemscore.Hbond.Weighted>
-6.5460

> <Gold.Chemscore.Metal.Weighted>
-0.0000

> <Gold.Chemscore.Lipo.Weighted>
-14.7381

> <Gold.Chemscore.Internal_Hbond.Weighted>
0.0000

> <Gold.Chemscore.DEClash.Weighted>
1.1392

> <Gold.Chemscore.DEInternal.Weighted>
0.7921

> <Gold.Chemscore.Rot.Weighted>
3.4470

> <Gold.Chemscore.Internal.Correction.Weighted>
   9.000000E+99

> <Gold.Protein.RotatedTorsions>
[ 6907 6896 6895 6894 ] final  135.18 input  -60.11 | X-H torsion
[ 7974 7965 7964 7962 ] final   29.72 input  175.53 | X-H torsion
[ 8008 7997 7996 7995 ] final  177.11 input   59.86 | X-H torsion
[ 10167 10162 10161 10158 ] final  -70.83 input  -65.29 | X-H torsion
[ 10718 10713 10712 10709 ] final -112.82 input   66.30 | X-H torsion
[ 10763 10752 10751 10750 ] final -174.53 input  -60.55 | X-H torsion
[ 11005 11000 10999 10996 ] final   65.31 input  -57.11 | X-H torsion

> <Gold.Protein.ActiveResidues>
 VAL166  LYS551  ARG553  GLY616  TRP617  ASP618  TYR619  PRO620  LYS621  CYS622 
 ASP623  PHE694  ASN695  SER759  ASP760  ASP761  ALA762  ILE779  LEU786  VAL792 
 PHE793  MET794  SER795  GLU796  ALA797  LYS798  CYS799  TRP800  GLU811  SER814 

> <Gold.Protein.RotatedAtoms>
  152.3033  133.5677  159.5632 H   0  0  0  0  0  0  0  0  0  0  0  0  # atno 6907 bound_to 6896
  150.7288  134.0260  159.3726 H   0  0  0  0  0  0  0  0  0  0  0  0  # atno 6908 bound_to 6896
  151.8158  135.0667  160.0469 H   0  0  0  0  0  0  0  0  0  0  0  0  # atno 6909 bound_to 6896
  146.1654  139.6883  142.9004 H   0  0  0  0  0  0  0  0  0  0  0  0  # atno 7974 bound_to 7965
  156.0692  140.1367  156.9848 H   0  0  0  0  0  0  0  0  0  0  0  0  # atno 8008 bound_to 7997
  154.4523  140.0975  156.6705 H   0  0  0  0  0  0  0  0  0  0  0  0  # atno 8009 bound_to 7997
  155.5254  140.3457  155.4417 H   0  0  0  0  0  0  0  0  0  0  0  0  # atno 8010 bound_to 7997
  140.5321  143.2321  151.7242 H   0  0  0  0  0  0  0  0  0  0  0  0  # atno 10167 bound_to 10162
  156.0729  130.5940  150.8560 H   0  0  0  0  0  0  0  0  0  0  0  0  # atno 10718 bound_to 10713
  154.5951  135.2849  155.0594 H   0  0  0  0  0  0  0  0  0  0  0  0  # atno 10763 bound_to 10752
  154.1880  135.6445  153.5056 H   0  0  0  0  0  0  0  0  0  0  0  0  # atno 10764 bound_to 10752
  153.0136  135.5439  154.6651 H   0  0  0  0  0  0  0  0  0  0  0  0  # atno 10765 bound_to 10752
  139.9902  134.6603  156.0104 H   0  0  0  0  0  0  0  0  0  0  0  0  # atno 11005 bound_to 11000
  145.4480  141.0426  143.2820 LP  0  0  0  0  0  0  0  0  0  0  0  0  # atno 17320 bound_to 7965
  144.8086  139.6005  143.7040 LP  0  0  0  0  0  0  0  0  0  0  0  0  # atno 17321 bound_to 7965
  139.4958  144.4098  152.0093 LP  0  0  0  0  0  0  0  0  0  0  0  0  # atno 17342 bound_to 10162
  140.3201  144.3438  150.6012 LP  0  0  0  0  0  0  0  0  0  0  0  0  # atno 17343 bound_to 10162
  157.5809  131.0946  150.9272 LP  0  0  0  0  0  0  0  0  0  0  0  0  # atno 17370 bound_to 10713
  156.9468  130.5405  149.5281 LP  0  0  0  0  0  0  0  0  0  0  0  0  # atno 17371 bound_to 10713
  141.1559  133.6543  156.4161 LP  0  0  0  0  0  0  0  0  0  0  0  0  # atno 17394 bound_to 11000
  140.4923  134.6564  157.5215 LP  0  0  0  0  0  0  0  0  0  0  0  0  # atno 17395 bound_to 11000

$$$$
