AV-unprocessed.smi:2519|AV-procd|sdf|9906|dock1
  -GOLD-   2272013543D 1   1.00000     0.00000
 Structure written by MMmdl.
 43 44  0  0  0  0  0  0  0  0  1 V2000
  150.7933  143.6838  157.9597 C   0  0  0  0  0  0  0  0  0  0  0  0
  151.0271  142.4648  157.2017 N   0  0  0  0  0  0  0  0  0  0  0  0
  150.0677  141.7580  156.5816 C   0  0  0  0  0  0  0  0  0  0  0  0
  148.8784  142.0785  156.6037 O   0  0  0  0  0  0  0  0  0  0  0  0
  150.5237  140.5158  155.8609 C   0  0  0  0  0  0  0  0  0  0  0  0
  151.8994  140.2013  155.7928 C   0  0  0  0  0  0  0  0  0  0  0  0
  152.2929  139.0318  155.1184 C   0  0  0  0  0  0  0  0  0  0  0  0
  151.3049  138.2171  154.5355 C   0  0  0  0  0  0  0  0  0  0  0  0
  149.9488  138.5928  154.6421 C   0  0  0  0  0  0  0  0  0  0  0  0
  149.0272  137.7145  154.0150 N   0  0  0  0  0  0  0  0  0  0  0  0
  147.6892  137.6576  154.1704 C   0  0  0  0  0  0  0  0  0  0  0  0
  147.0464  138.3410  154.9657 O   0  0  0  0  0  0  0  0  0  0  0  0
  147.0774  136.7649  153.3704 N   0  0  0  0  0  0  0  0  0  0  0  0
  145.6490  136.4443  153.2752 C   0  0  1  0  0  0  0  0  0  0  0  0
  144.9848  137.3212  152.1964 C   0  0  0  0  0  0  0  0  0  0  0  0
  145.4238  136.9257  150.7761 C   0  0  0  0  0  0  0  0  0  0  0  0
  145.1749  135.4333  150.5066 C   0  0  0  0  0  0  0  0  0  0  0  0
  145.8663  134.5396  151.5575 C   0  0  2  0  0  0  0  0  0  0  0  0
  145.6336  133.0390  151.2863 C   0  0  0  0  0  0  0  0  0  0  0  0
  146.1282  132.6887  150.0986 F   0  0  0  0  0  0  0  0  0  0  0  0
  146.2230  132.3068  152.2316 F   0  0  0  0  0  0  0  0  0  0  0  0
  144.3282  132.7696  151.3060 F   0  0  0  0  0  0  0  0  0  0  0  0
  145.4120  134.9458  152.9773 C   0  0  0  0  0  0  0  0  0  0  0  0
  149.5824  139.7209  155.2972 N   0  0  0  0  0  0  0  0  0  0  0  0
  151.7350  144.0555  158.3634 H   0  0  0  0  0  0  0  0  0  0  0  0
  150.1138  143.4989  158.7926 H   0  0  0  0  0  0  0  0  0  0  0  0
  150.3641  144.4596  157.3243 H   0  0  0  0  0  0  0  0  0  0  0  0
  151.9785  142.1306  157.1370 H   0  0  0  0  0  0  0  0  0  0  0  0
  152.6455  140.8385  156.2453 H   0  0  0  0  0  0  0  0  0  0  0  0
  153.3368  138.7642  155.0478 H   0  0  0  0  0  0  0  0  0  0  0  0
  151.5902  137.3165  154.0112 H   0  0  0  0  0  0  0  0  0  0  0  0
  149.4244  137.0794  153.3386 H   0  0  0  0  0  0  0  0  0  0  0  0
  147.6803  136.2353  152.7573 H   0  0  0  0  0  0  0  0  0  0  0  0
  145.1798  136.6920  154.2288 H   0  0  0  0  0  0  0  0  0  0  0  0
  143.9011  137.2211  152.2728 H   0  0  0  0  0  0  0  0  0  0  0  0
  145.2039  138.3745  152.3766 H   0  0  0  0  0  0  0  0  0  0  0  0
  144.8862  137.5274  150.0429 H   0  0  0  0  0  0  0  0  0  0  0  0
  146.4822  137.1506  150.6392 H   0  0  0  0  0  0  0  0  0  0  0  0
  144.1017  135.2398  150.5058 H   0  0  0  0  0  0  0  0  0  0  0  0
  145.5331  135.1835  149.5076 H   0  0  0  0  0  0  0  0  0  0  0  0
  146.9410  134.7148  151.4861 H   0  0  0  0  0  0  0  0  0  0  0  0
  145.9135  134.3273  153.7216 H   0  0  0  0  0  0  0  0  0  0  0  0
  144.3480  134.7321  153.0859 H   0  0  0  0  0  0  0  0  0  0  0  0
  1  2  1  0  0  0  0
  1 25  1  0  0  0  0
  1 26  1  0  0  0  0
  1 27  1  0  0  0  0
  2  3  1  0  0  0  0
  2 28  1  0  0  0  0
  3  4  2  0  0  0  0
  3  5  1  0  0  0  0
  5 24  1  0  0  0  0
  5  6  2  0  0  0  0
  6  7  1  0  0  0  0
  6 29  1  0  0  0  0
  7  8  2  0  0  0  0
  7 30  1  0  0  0  0
  8  9  1  0  0  0  0
  8 31  1  0  0  0  0
  9 10  1  0  0  0  0
  9 24  2  0  0  0  0
 10 11  1  0  0  0  0
 10 32  1  0  0  0  0
 11 12  2  0  0  0  0
 11 13  1  0  0  0  0
 13 14  1  0  0  0  0
 13 33  1  0  0  0  0
 14 23  1  0  0  0  0
 14 15  1  0  0  0  0
 14 34  1  0  0  0  0
 15 16  1  0  0  0  0
 15 35  1  0  0  0  0
 15 36  1  0  0  0  0
 16 17  1  0  0  0  0
 16 37  1  0  0  0  0
 16 38  1  0  0  0  0
 17 18  1  0  0  0  0
 17 39  1  0  0  0  0
 17 40  1  0  0  0  0
 18 19  1  0  0  0  0
 18 23  1  0  0  0  0
 18 41  1  0  0  0  0
 19 20  1  0  0  0  0
 19 21  1  0  0  0  0
 19 22  1  0  0  0  0
 23 42  1  0  0  0  0
 23 43  1  0  0  0  0
M  END
> <s_m_source_file>
AV-unprocessed.smi

> <i_m_source_file_index>
2519

> <i_lp_mmshare_version>
43012

> <i_f3d_flags>
0

> <s_epik_input>
W0NIM11bTkhdQyg9TyljMVtjSF1bY0hdW2NIXWMobjEpW05IXUMoPU8pW05IXVtDQEBIXTJbQ0gyXVtDSDJdW0NIMl1bQ0BASF0oQyhGKShGKUYpW0NIMl0y

> <s_epik_cmdline>
J2VwaWtfcHl0aG9uJywgJy1waCcsICc3LjAnLCAnLXRuJywgJzgnLCAnLW1hJywgJzIwMCcsICctbWV0YWxfYmluZGluZycsICctaW1hZScsICc8aW5maWxlLm1hZT4nLCAnLW9tYWUnLCAnPG91dGZpbGUubWFlPic=

> <r_lp_tautomer_probability>
1

> <r_epik_Ionization_Penalty>
3.74915e-05

> <r_epik_Ionization_Penalty_Charging>
0

> <r_epik_Ionization_Penalty_Neutral>
3.74915e-05

> <r_epik_State_Penalty>
-0

> <r_epik_Charging_Adjusted_Penalty>
0

> <i_epik_Tot_Q>
0

> <i_epik_Tot_abs_Q>
0

> <r_epik_Metal_State_Penalty>
-0

> <b_epik_Metal_Only>
0

> <s_lp_Force_Field>
OPLS_2005

> <r_lp_Energy>
26.6361

> <b_lp_Chiralities_Consistent>
1

> <s_lp_Variant>
AV-unprocessed.smi:2519-4

> <Gold.Version>
5.8.1

> <Gold.Id.Protein>
6NUR|6NUR_protein|mol2

> <Gold.PLP.Fitness>
41.3624

> <Gold.PLP.PLP>
-36.6362

> <Gold.PLP.part.hbond>
-1.9827

> <Gold.PLP.part.metal>
0.0000

> <Gold.PLP.part.buried>
-0.9898

> <Gold.PLP.part.nonpolar>
-34.3939

> <Gold.PLP.part.repulsive>
0.2365

> <Gold.PLP.ligand.clash>
0.0000

> <Gold.PLP.ligand.torsion>
0.4357

> <Gold.PLP.Chemscore.Hbond>
1.8560

> <Gold.PLP.Chemscore.CHOScore>
0.0000

> <Gold.PLP.Chemscore.Metal>
0.0000

> <Gold.Chemscore.Hbonds>
donor molecule, donor type, donor heavy atom, donor atom, acceptor molecule, acceptor atom, score
      L1  H    10    32       P1  7948  0.82
      L1  H    13    33       P1  7948  0.96

> <Gold.PLP.Chemscore.Internal.Correction>
0.0296

> <Gold.Rescore>
     Score         DG    S(hbond)    S(metal)    S(lipo)     H(rot)  DE(clash)    DE(int)     intcor
     14.03     -17.28       1.83        0.00      70.37       1.00       1.42       1.82       ----

> <Gold.Chemscore.Fitness>
14.0327

> <Gold.Chemscore.DG>
-17.2760

> <Gold.Chemscore.ZeroCoef>
-5.4800

> <Gold.Chemscore.Hbond>
1.8330

> <Gold.Chemscore.Metal>
0.0000

> <Gold.Chemscore.Lipo>
70.3727

> <Gold.Chemscore.Internal_Hbond>
0.0000

> <Gold.Chemscore.DEClash>
1.4206

> <Gold.Chemscore.DEInternal>
1.8227

> <Gold.Chemscore.Rot>
1.0000

> <Gold.Chemscore.Internal.Correction>
   9.000000E+99

> <Gold.Chemscore.Hbonds>
donor molecule, donor type, donor heavy atom, donor atom, acceptor molecule, acceptor atom, score
      L1  H    10    32       P1  7948  0.74
      L1  H    13    33       P1  7948  0.88

> <Gold.Chemscore.Hbond.Weighted>
-6.1224

> <Gold.Chemscore.Metal.Weighted>
-0.0000

> <Gold.Chemscore.Lipo.Weighted>
-8.2336

> <Gold.Chemscore.Internal_Hbond.Weighted>
0.0000

> <Gold.Chemscore.DEClash.Weighted>
1.4206

> <Gold.Chemscore.DEInternal.Weighted>
1.8227

> <Gold.Chemscore.Rot.Weighted>
2.5600

> <Gold.Chemscore.Internal.Correction.Weighted>
   9.000000E+99

> <Gold.Protein.RotatedTorsions>
[ 6907 6896 6895 6894 ] final  179.56 input  -60.11 | X-H torsion
[ 7974 7965 7964 7962 ] final  102.56 input  175.53 | X-H torsion
[ 8008 7997 7996 7995 ] final   53.33 input   59.86 | X-H torsion
[ 10167 10162 10161 10158 ] final -147.98 input  -65.29 | X-H torsion
[ 10718 10713 10712 10709 ] final  -25.63 input   66.30 | X-H torsion
[ 10763 10752 10751 10750 ] final  -37.78 input  -60.55 | X-H torsion
[ 11005 11000 10999 10996 ] final -170.39 input  -57.11 | X-H torsion

> <Gold.Protein.ActiveResidues>
 VAL166  LYS551  ARG553  GLY616  TRP617  ASP618  TYR619  PRO620  LYS621  CYS622 
 ASP623  PHE694  ASN695  SER759  ASP760  ASP761  ALA762  ILE779  LEU786  VAL792 
 PHE793  MET794  SER795  GLU796  ALA797  LYS798  CYS799  TRP800  GLU811  SER814 

> <Gold.Protein.RotatedAtoms>
  151.6696  133.3314  159.3193 H   0  0  0  0  0  0  0  0  0  0  0  0  # atno 6907 bound_to 6896
  150.7874  134.6874  159.6487 H   0  0  0  0  0  0  0  0  0  0  0  0  # atno 6908 bound_to 6896
  152.3946  134.6389  160.0146 H   0  0  0  0  0  0  0  0  0  0  0  0  # atno 6909 bound_to 6896
  145.3575  139.2425  143.3525 H   0  0  0  0  0  0  0  0  0  0  0  0  # atno 7974 bound_to 7965
  155.4665  140.3463  155.4320 H   0  0  0  0  0  0  0  0  0  0  0  0  # atno 8008 bound_to 7997
  156.1127  140.1465  156.9345 H   0  0  0  0  0  0  0  0  0  0  0  0  # atno 8009 bound_to 7997
  154.4768  140.0882  156.7259 H   0  0  0  0  0  0  0  0  0  0  0  0  # atno 8010 bound_to 7997
  139.7573  143.8429  152.2600 H   0  0  0  0  0  0  0  0  0  0  0  0  # atno 10167 bound_to 10162
  156.4619  130.4506  149.6923 H   0  0  0  0  0  0  0  0  0  0  0  0  # atno 10718 bound_to 10713
  153.9019  135.6801  153.4755 H   0  0  0  0  0  0  0  0  0  0  0  0  # atno 10763 bound_to 10752
  153.1125  135.4777  154.9056 H   0  0  0  0  0  0  0  0  0  0  0  0  # atno 10764 bound_to 10752
  154.7571  135.3200  154.8404 H   0  0  0  0  0  0  0  0  0  0  0  0  # atno 10765 bound_to 10752
  140.5201  134.5718  157.5045 H   0  0  0  0  0  0  0  0  0  0  0  0  # atno 11005 bound_to 11000
  146.2942  140.4202  142.8728 LP  0  0  0  0  0  0  0  0  0  0  0  0  # atno 17320 bound_to 7965
  144.8671  140.7221  143.6070 LP  0  0  0  0  0  0  0  0  0  0  0  0  # atno 17321 bound_to 7965
  139.8425  144.7203  150.9313 LP  0  0  0  0  0  0  0  0  0  0  0  0  # atno 17342 bound_to 10162
  140.7804  143.3971  151.1212 LP  0  0  0  0  0  0  0  0  0  0  0  0  # atno 17343 bound_to 10162
  156.3708  130.7529  151.2512 LP  0  0  0  0  0  0  0  0  0  0  0  0  # atno 17370 bound_to 10713
  157.7497  131.0324  150.4223 LP  0  0  0  0  0  0  0  0  0  0  0  0  # atno 17371 bound_to 10713
  139.9611  134.7451  156.0236 LP  0  0  0  0  0  0  0  0  0  0  0  0  # atno 17394 bound_to 11000
  141.1339  133.6580  156.3539 LP  0  0  0  0  0  0  0  0  0  0  0  0  # atno 17395 bound_to 11000

$$$$
