AV-unprocessed.smi:1701|AV-procd|sdf|6829|dock2
  -GOLD-   22720 8 03D 1   1.00000     0.00000
 Structure written by MMmdl.
 54 56  0  0  0  0  0  0  0  0  2 V2000
  149.8626  143.4526  158.3568 C   0  0  0  0  0  0  0  0  0  0  0  0
  149.3002  142.0342  158.1891 C   0  0  0  0  0  0  0  0  0  0  0  0
  150.0731  141.2167  157.2538 N   0  0  0  0  0  0  0  0  0  0  0  0
  151.5361  141.2432  157.3241 C   0  0  0  0  0  0  0  0  0  0  0  0
  152.0775  140.8940  158.7192 C   0  0  0  0  0  0  0  0  0  0  0  0
  149.4238  140.2944  156.3959 C   0  0  0  0  0  0  0  0  0  0  0  0
  148.2474  139.6079  156.7894 C   0  0  0  0  0  0  0  0  0  0  0  0
  147.6401  138.7043  155.8966 C   0  0  0  0  0  0  0  0  0  0  0  0
  148.2224  138.4995  154.6255 C   0  0  0  0  0  0  0  0  0  0  0  0
  147.6838  137.6379  153.6331 N   0  0  0  0  0  0  0  0  0  0  0  0
  146.4655  137.0633  153.6010 C   0  0  0  0  0  0  0  0  0  0  0  0
  145.6455  137.1144  154.5147 O   0  0  0  0  0  0  0  0  0  0  0  0
  146.2115  136.3671  152.4787 N   0  0  0  0  0  0  0  0  0  0  0  0
  144.9961  135.6302  152.1299 C   0  0  2  0  0  0  0  0  0  0  0  0
  143.6967  136.2847  152.6315 C   0  0  0  0  0  0  0  0  0  0  0  0
  142.8080  135.1216  153.1142 C   0  0  0  0  0  0  0  0  0  0  0  0
  143.5315  133.8713  152.7898 N   0  3  1  0  0  0  0  0  0  0  0  0
  143.0588  133.2653  151.5147 C   0  0  0  0  0  0  0  0  0  0  0  0
  143.9577  132.1098  151.0564 C   0  0  0  0  0  0  0  0  0  0  0  0
  145.3990  132.5967  150.8882 C   0  0  0  0  0  0  0  0  0  0  0  0
  145.9012  133.1741  152.2161 C   0  0  0  0  0  0  0  0  0  0  0  0
  144.9641  134.2536  152.8029 C   0  0  1  0  0  0  0  0  0  0  0  0
  149.3818  139.2351  154.3149 C   0  0  0  0  0  0  0  0  0  0  0  0
  149.9685  140.0982  155.1697 N   0  0  0  0  0  0  0  0  0  0  0  0
  149.2907  144.0054  159.1020 H   0  0  0  0  0  0  0  0  0  0  0  0
  149.8100  144.0144  157.4251 H   0  0  0  0  0  0  0  0  0  0  0  0
  150.9027  143.4375  158.6827 H   0  0  0  0  0  0  0  0  0  0  0  0
  149.2222  141.5363  159.1552 H   0  0  0  0  0  0  0  0  0  0  0  0
  148.2748  142.1019  157.8247 H   0  0  0  0  0  0  0  0  0  0  0  0
  151.9606  140.5725  156.5767 H   0  0  0  0  0  0  0  0  0  0  0  0
  151.8850  142.2394  157.0508 H   0  0  0  0  0  0  0  0  0  0  0  0
  153.1667  140.9347  158.7279 H   0  0  0  0  0  0  0  0  0  0  0  0
  151.7845  139.8888  159.0223 H   0  0  0  0  0  0  0  0  0  0  0  0
  151.7179  141.5889  159.4769 H   0  0  0  0  0  0  0  0  0  0  0  0
  147.7968  139.7484  157.7596 H   0  0  0  0  0  0  0  0  0  0  0  0
  146.7348  138.2006  156.1982 H   0  0  0  0  0  0  0  0  0  0  0  0
  148.3061  137.4105  152.8716 H   0  0  0  0  0  0  0  0  0  0  0  0
  146.9688  136.3054  151.8133 H   0  0  0  0  0  0  0  0  0  0  0  0
  144.9428  135.5008  151.0477 H   0  0  0  0  0  0  0  0  0  0  0  0
  143.8859  136.9734  153.4564 H   0  0  0  0  0  0  0  0  0  0  0  0
  143.2160  136.8540  151.8350 H   0  0  0  0  0  0  0  0  0  0  0  0
  142.6907  135.1777  154.1970 H   0  0  0  0  0  0  0  0  0  0  0  0
  141.8073  135.1522  152.6803 H   0  0  0  0  0  0  0  0  0  0  0  0
  142.0374  132.9078  151.6498 H   0  0  0  0  0  0  0  0  0  0  0  0
  143.0214  134.0256  150.7327 H   0  0  0  0  0  0  0  0  0  0  0  0
  143.9193  131.2960  151.7818 H   0  0  0  0  0  0  0  0  0  0  0  0
  143.5898  131.7046  150.1134 H   0  0  0  0  0  0  0  0  0  0  0  0
  146.0399  131.7733  150.5720 H   0  0  0  0  0  0  0  0  0  0  0  0
  145.4515  133.3515  150.1029 H   0  0  0  0  0  0  0  0  0  0  0  0
  145.9867  132.3586  152.9356 H   0  0  0  0  0  0  0  0  0  0  0  0
  146.9088  133.5732  152.0955 H   0  0  0  0  0  0  0  0  0  0  0  0
  145.2380  134.3890  153.8515 H   0  0  0  0  0  0  0  0  0  0  0  0
  149.8582  139.1272  153.3511 H   0  0  0  0  0  0  0  0  0  0  0  0
  143.3710  133.1922  153.5205 H   0  0  0  0  0  0  0  0  0  0  0  0
  1  2  1  0  0  0  0
  1 25  1  0  0  0  0
  1 26  1  0  0  0  0
  1 27  1  0  0  0  0
  2  3  1  0  0  0  0
  2 28  1  0  0  0  0
  2 29  1  0  0  0  0
  3  4  1  0  0  0  0
  3  6  1  0  0  0  0
  4  5  1  0  0  0  0
  4 30  1  0  0  0  0
  4 31  1  0  0  0  0
  5 32  1  0  0  0  0
  5 33  1  0  0  0  0
  5 34  1  0  0  0  0
  6 24  1  0  0  0  0
  6  7  2  0  0  0  0
  7  8  1  0  0  0  0
  7 35  1  0  0  0  0
  8  9  2  0  0  0  0
  8 36  1  0  0  0  0
  9 10  1  0  0  0  0
  9 23  1  0  0  0  0
 10 11  1  0  0  0  0
 10 37  1  0  0  0  0
 11 12  2  0  0  0  0
 11 13  1  0  0  0  0
 13 14  1  0  0  0  0
 13 38  1  0  0  0  0
 14 22  1  0  0  0  0
 14 15  1  0  0  0  0
 14 39  1  0  0  0  0
 15 16  1  0  0  0  0
 15 40  1  0  0  0  0
 15 41  1  0  0  0  0
 16 17  1  0  0  0  0
 16 42  1  0  0  0  0
 16 43  1  0  0  0  0
 17 22  1  0  0  0  0
 17 18  1  0  0  0  0
 17 54  1  0  0  0  0
 18 19  1  0  0  0  0
 18 44  1  0  0  0  0
 18 45  1  0  0  0  0
 19 20  1  0  0  0  0
 19 46  1  0  0  0  0
 19 47  1  0  0  0  0
 20 21  1  0  0  0  0
 20 48  1  0  0  0  0
 20 49  1  0  0  0  0
 21 22  1  0  0  0  0
 21 50  1  0  0  0  0
 21 51  1  0  0  0  0
 22 52  1  0  0  0  0
 23 24  2  0  0  0  0
 23 53  1  0  0  0  0
M  CHG  1  17   1
M  END
> <s_m_source_file>
AV-unprocessed.smi

> <i_m_source_file_index>
1701

> <i_lp_mmshare_version>
43012

> <i_f3d_flags>
0

> <s_epik_input>
W0NIM11bQ0gyXU4oW0NIMl1bQ0gzXSljMVtjSF1bY0hdYyhbY0hdbjEpW05IXUMoPU8pW05IXVtDQEhdKFtDSDJdW0NIMl0yKVtDQEBIXShOMjMpW0NIMl1bQ0gyXVtDSDJdW0NIMl0z

> <s_epik_cmdline>
J2VwaWtfcHl0aG9uJywgJy1waCcsICc3LjAnLCAnLXRuJywgJzgnLCAnLW1hJywgJzIwMCcsICctbWV0YWxfYmluZGluZycsICctaW1hZScsICc8aW5maWxlLm1hZT4nLCAnLW9tYWUnLCAnPG91dGZpbGUubWFlPic=

> <r_lp_tautomer_probability>
1

> <r_epik_Ionization_Penalty>
0.56662

> <r_epik_Ionization_Penalty_Charging>
0.000974069

> <r_epik_Ionization_Penalty_Neutral>
0.565646

> <r_epik_State_Penalty>
2.0247

> <r_epik_Charging_Adjusted_Penalty>
2.02568

> <i_epik_Tot_Q>
1

> <i_epik_Tot_abs_Q>
1

> <r_epik_Metal_State_Penalty>
1.51504

> <b_epik_Metal_Only>
0

> <s_lp_Force_Field>
OPLS_2005

> <r_lp_Energy>
57.8718

> <b_lp_Chiralities_Consistent>
1

> <s_lp_Variant>
AV-unprocessed.smi:1701-9

> <Gold.Version>
5.8.1

> <Gold.Id.Protein>
6NUR|6NUR_protein|mol2

> <Gold.PLP.Fitness>
43.6371

> <Gold.PLP.PLP>
-31.4347

> <Gold.PLP.part.hbond>
-3.0000

> <Gold.PLP.part.metal>
0.0000

> <Gold.PLP.part.buried>
-5.3199

> <Gold.PLP.part.nonpolar>
-23.7847

> <Gold.PLP.part.repulsive>
0.1408

> <Gold.PLP.ligand.clash>
0.0000

> <Gold.PLP.ligand.torsion>
1.1846

> <Gold.PLP.Chemscore.Hbond>
3.8160

> <Gold.PLP.Chemscore.CHOScore>
1.0000

> <Gold.PLP.Chemscore.Metal>
0.0000

> <Gold.Chemscore.Hbonds>
donor molecule, donor type, donor heavy atom, donor atom, acceptor molecule, acceptor atom, score
      L1  H    10    37       P1  7948  0.99
      L1  H    13    38       P1  7948  0.78
      L1  H    17    54       P1 10957  2.00
      L1  C    23    53       P1  7957  1.00

> <Gold.PLP.Chemscore.Internal.Correction>
0.1236

> <Gold.Rescore>
     Score         DG    S(hbond)    S(metal)    S(lipo)     H(rot)  DE(clash)    DE(int)     intcor
     17.04     -20.58       2.87        0.00      75.09       1.28       0.07       3.47       ----

> <Gold.Chemscore.Fitness>
17.0394

> <Gold.Chemscore.DG>
-20.5808

> <Gold.Chemscore.ZeroCoef>
-5.4800

> <Gold.Chemscore.Hbond>
2.8749

> <Gold.Chemscore.Metal>
0.0000

> <Gold.Chemscore.Lipo>
75.0872

> <Gold.Chemscore.Internal_Hbond>
0.0000

> <Gold.Chemscore.DEClash>
0.0704

> <Gold.Chemscore.DEInternal>
3.4710

> <Gold.Chemscore.Rot>
1.2838

> <Gold.Chemscore.Internal.Correction>
   9.000000E+99

> <Gold.Chemscore.Hbonds>
donor molecule, donor type, donor heavy atom, donor atom, acceptor molecule, acceptor atom, score
      L1  H    10    37       P1  7948  0.93
      L1  H    13    38       P1  7948  0.77
      L1  H    17    54       P1 10957  0.89

> <Gold.Chemscore.Hbond.Weighted>
-9.6021

> <Gold.Chemscore.Metal.Weighted>
-0.0000

> <Gold.Chemscore.Lipo.Weighted>
-8.7852

> <Gold.Chemscore.Internal_Hbond.Weighted>
0.0000

> <Gold.Chemscore.DEClash.Weighted>
0.0704

> <Gold.Chemscore.DEInternal.Weighted>
3.4710

> <Gold.Chemscore.Rot.Weighted>
3.2865

> <Gold.Chemscore.Internal.Correction.Weighted>
   9.000000E+99

> <Gold.Protein.RotatedTorsions>
[ 6907 6896 6895 6894 ] final -152.50 input  -60.11 | X-H torsion
[ 7974 7965 7964 7962 ] final -106.05 input  175.53 | X-H torsion
[ 8008 7997 7996 7995 ] final  149.21 input   59.86 | X-H torsion
[ 10167 10162 10161 10158 ] final -118.42 input  -65.29 | X-H torsion
[ 10718 10713 10712 10709 ] final   22.31 input   66.30 | X-H torsion
[ 10763 10752 10751 10750 ] final  -92.46 input  -60.55 | X-H torsion
[ 11005 11000 10999 10996 ] final   60.78 input  -57.11 | X-H torsion

> <Gold.Protein.ActiveResidues>
 VAL166  LYS551  ARG553  GLY616  TRP617  ASP618  TYR619  PRO620  LYS621  CYS622 
 ASP623  PHE694  ASN695  SER759  ASP760  ASP761  ALA762  ILE779  LEU786  VAL792 
 PHE793  MET794  SER795  GLU796  ALA797  LYS798  CYS799  TRP800  GLU811  SER814 

> <Gold.Protein.RotatedAtoms>
  151.2286  133.4462  159.2602 H   0  0  0  0  0  0  0  0  0  0  0  0  # atno 6907 bound_to 6896
  151.0816  134.9861  159.8369 H   0  0  0  0  0  0  0  0  0  0  0  0  # atno 6908 bound_to 6896
  152.5425  134.2226  159.8846 H   0  0  0  0  0  0  0  0  0  0  0  0  # atno 6909 bound_to 6896
  145.2227  140.9140  143.3250 H   0  0  0  0  0  0  0  0  0  0  0  0  # atno 7974 bound_to 7965
  156.2763  140.2108  156.5821 H   0  0  0  0  0  0  0  0  0  0  0  0  # atno 8008 bound_to 7997
  154.7050  140.0517  157.0518 H   0  0  0  0  0  0  0  0  0  0  0  0  # atno 8009 bound_to 7997
  155.0683  140.3174  155.4641 H   0  0  0  0  0  0  0  0  0  0  0  0  # atno 8010 bound_to 7997
  140.0577  143.4998  152.2048 H   0  0  0  0  0  0  0  0  0  0  0  0  # atno 10167 bound_to 10162
  157.1506  130.6673  149.6010 H   0  0  0  0  0  0  0  0  0  0  0  0  # atno 10718 bound_to 10713
  154.6863  135.5230  153.8330 H   0  0  0  0  0  0  0  0  0  0  0  0  # atno 10763 bound_to 10752
  153.0600  135.6564  154.0496 H   0  0  0  0  0  0  0  0  0  0  0  0  # atno 10764 bound_to 10752
  154.0376  135.2980  155.3339 H   0  0  0  0  0  0  0  0  0  0  0  0  # atno 10765 bound_to 10752
  140.0208  134.6156  155.9643 H   0  0  0  0  0  0  0  0  0  0  0  0  # atno 11005 bound_to 11000
  144.9750  139.3841  143.6290 LP  0  0  0  0  0  0  0  0  0  0  0  0  # atno 17320 bound_to 7965
  146.3372  139.8865  142.8816 LP  0  0  0  0  0  0  0  0  0  0  0  0  # atno 17321 bound_to 7965
  139.5913  144.7551  151.3394 LP  0  0  0  0  0  0  0  0  0  0  0  0  # atno 17342 bound_to 10162
  140.7187  143.7197  150.7705 LP  0  0  0  0  0  0  0  0  0  0  0  0  # atno 17343 bound_to 10162
  155.9771  130.4746  150.6573 LP  0  0  0  0  0  0  0  0  0  0  0  0  # atno 17370 bound_to 10713
  157.4224  131.0838  151.1118 LP  0  0  0  0  0  0  0  0  0  0  0  0  # atno 17371 bound_to 10713
  141.1772  133.6541  156.4876 LP  0  0  0  0  0  0  0  0  0  0  0  0  # atno 17394 bound_to 11000
  140.4391  134.7032  157.4982 LP  0  0  0  0  0  0  0  0  0  0  0  0  # atno 17395 bound_to 11000

$$$$
