AV-unprocessed.smi:1385|AV-procd|sdf|5629|dock10
  -GOLD-   22720 5243D 1   1.00000     0.00000
 Structure written by MMmdl.
 39 40  0  0  0  0  0  0  0  0  2 V2000
  139.7239  142.6751  157.2580 C   0  0  0  0  0  0  0  0  0  0  0  0
  140.3869  141.5063  156.6131 C   0  0  0  0  0  0  0  0  0  0  0  0
  140.3288  140.2699  157.1224 N   0  0  0  0  0  0  0  0  0  0  0  0
  141.0199  139.3489  156.3473 N   0  0  0  0  0  0  0  0  0  0  0  0
  141.5779  139.9200  155.2710 C   0  0  0  0  0  0  0  0  0  0  0  0
  142.3417  139.2096  154.3073 N   0  0  0  0  0  0  0  0  0  0  0  0
  142.5540  137.8841  154.2259 C   0  0  0  0  0  0  0  0  0  0  0  0
  142.1079  137.0415  155.0051 O   0  0  0  0  0  0  0  0  0  0  0  0
  143.3264  137.5783  153.1728 N   0  0  0  0  0  0  0  0  0  0  0  0
  143.7295  136.2270  152.7939 C   0  0  2  0  0  0  0  0  0  0  0  0
  144.2895  136.2005  151.3601 C   0  0  0  0  0  0  0  0  0  0  0  0
  144.6287  134.7652  150.9265 C   0  0  0  0  0  0  0  0  0  0  0  0
  143.4404  133.8771  151.0364 N   0  3  1  0  0  0  0  0  0  0  0  0
  143.6817  132.5117  150.5022 C   0  0  0  0  0  0  0  0  0  0  0  0
  143.7238  132.4648  148.9712 C   0  0  0  0  0  0  0  0  0  0  0  0
  142.6432  132.9090  148.3256 N   0  0  0  0  0  0  0  0  0  0  0  0
  144.7177  132.0497  148.3777 O   0  0  0  0  0  0  0  0  0  0  0  0
  142.9009  133.8573  152.4203 C   0  0  0  0  0  0  0  0  0  0  0  0
  142.5282  135.2730  152.8935 C   0  0  0  0  0  0  0  0  0  0  0  0
  141.3012  141.6465  155.1163 S   0  0  0  0  0  0  0  0  0  0  0  0
  139.6618  142.5310  158.3371 H   0  0  0  0  0  0  0  0  0  0  0  0
  138.7160  142.7964  156.8607 H   0  0  0  0  0  0  0  0  0  0  0  0
  140.2908  143.5850  157.0610 H   0  0  0  0  0  0  0  0  0  0  0  0
  142.7756  139.7790  153.5959 H   0  0  0  0  0  0  0  0  0  0  0  0
  143.6515  138.3337  152.5871 H   0  0  0  0  0  0  0  0  0  0  0  0
  144.5003  135.8784  153.4843 H   0  0  0  0  0  0  0  0  0  0  0  0
  143.5620  136.6264  150.6673 H   0  0  0  0  0  0  0  0  0  0  0  0
  145.1826  136.8227  151.2910 H   0  0  0  0  0  0  0  0  0  0  0  0
  144.9950  134.7805  149.8997 H   0  0  0  0  0  0  0  0  0  0  0  0
  145.4379  134.3700  151.5429 H   0  0  0  0  0  0  0  0  0  0  0  0
  144.6008  132.1013  150.9243 H   0  0  0  0  0  0  0  0  0  0  0  0
  142.8721  131.8485  150.8105 H   0  0  0  0  0  0  0  0  0  0  0  0
  142.6138  132.8992  147.3161 H   0  0  0  0  0  0  0  0  0  0  0  0
  141.8521  133.2533  148.8513 H   0  0  0  0  0  0  0  0  0  0  0  0
  142.0144  133.2232  152.4611 H   0  0  0  0  0  0  0  0  0  0  0  0
  143.6383  133.4166  153.0933 H   0  0  0  0  0  0  0  0  0  0  0  0
  142.1663  135.2333  153.9216 H   0  0  0  0  0  0  0  0  0  0  0  0
  141.7018  135.6506  152.2890 H   0  0  0  0  0  0  0  0  0  0  0  0
  142.7178  134.2789  150.4554 H   0  0  0  0  0  0  0  0  0  0  0  0
  1  2  1  0  0  0  0
  1 21  1  0  0  0  0
  1 22  1  0  0  0  0
  1 23  1  0  0  0  0
  2 20  1  0  0  0  0
  2  3  2  0  0  0  0
  3  4  1  0  0  0  0
  4  5  2  0  0  0  0
  5  6  1  0  0  0  0
  5 20  1  0  0  0  0
  6  7  1  0  0  0  0
  6 24  1  0  0  0  0
  7  8  2  0  0  0  0
  7  9  1  0  0  0  0
  9 10  1  0  0  0  0
  9 25  1  0  0  0  0
 10 19  1  0  0  0  0
 10 11  1  0  0  0  0
 10 26  1  0  0  0  0
 11 12  1  0  0  0  0
 11 27  1  0  0  0  0
 11 28  1  0  0  0  0
 12 13  1  0  0  0  0
 12 29  1  0  0  0  0
 12 30  1  0  0  0  0
 13 14  1  0  0  0  0
 13 18  1  0  0  0  0
 13 39  1  0  0  0  0
 14 15  1  0  0  0  0
 14 31  1  0  0  0  0
 14 32  1  0  0  0  0
 15 16  1  0  0  0  0
 15 17  2  0  0  0  0
 16 33  1  0  0  0  0
 16 34  1  0  0  0  0
 18 19  1  0  0  0  0
 18 35  1  0  0  0  0
 18 36  1  0  0  0  0
 19 37  1  0  0  0  0
 19 38  1  0  0  0  0
M  CHG  1  13   1
M  END
> <s_m_source_file>
AV-unprocessed.smi

> <i_m_source_file_index>
1385

> <i_lp_mmshare_version>
43012

> <i_f3d_flags>
0

> <s_epik_input>
W0NIM11jMW5uYyhzMSlbTkhdQyg9TylbTkhdW0NIXTJbQ0gyXVtDSDJdTihbQ0gyXVtDSDJdMilbQ0gyXUMoPU8pW05IMl0=

> <s_epik_cmdline>
J2VwaWtfcHl0aG9uJywgJy1waCcsICc3LjAnLCAnLXRuJywgJzgnLCAnLW1hJywgJzIwMCcsICctbWV0YWxfYmluZGluZycsICctaW1hZScsICc8aW5maWxlLm1hZT4nLCAnLW9tYWUnLCAnPG91dGZpbGUubWFlPic=

> <r_lp_tautomer_probability>
1

> <r_epik_Ionization_Penalty>
0.866317

> <r_epik_Ionization_Penalty_Charging>
0.862349

> <r_epik_Ionization_Penalty_Neutral>
0.00396799

> <r_epik_State_Penalty>
0.898939

> <r_epik_Charging_Adjusted_Penalty>
1.76129

> <i_epik_Tot_Q>
1

> <i_epik_Tot_abs_Q>
1

> <r_epik_Metal_State_Penalty>
1.25402

> <b_epik_Metal_Only>
0

> <s_lp_Force_Field>
OPLS_2005

> <r_lp_Energy>
10.5623

> <b_lp_Chiralities_Consistent>
1

> <s_lp_Variant>
AV-unprocessed.smi:1385-2

> <Gold.Version>
5.8.1

> <Gold.Id.Protein>
6NUR|6NUR_protein|mol2

> <Gold.PLP.Fitness>
43.6231

> <Gold.PLP.PLP>
-26.9613

> <Gold.PLP.part.hbond>
-6.8542

> <Gold.PLP.part.metal>
0.0000

> <Gold.PLP.part.buried>
-3.4340

> <Gold.PLP.part.nonpolar>
-18.6691

> <Gold.PLP.part.repulsive>
0.8835

> <Gold.PLP.ligand.clash>
0.0000

> <Gold.PLP.ligand.torsion>
0.3652

> <Gold.PLP.Chemscore.Hbond>
5.7912

> <Gold.PLP.Chemscore.CHOScore>
0.0000

> <Gold.PLP.Chemscore.Metal>
0.0000

> <Gold.Chemscore.Hbonds>
donor molecule, donor type, donor heavy atom, donor atom, acceptor molecule, acceptor atom, score
      L1  H     6    24       P1 10175  1.00
      L1  H     9    25       P1 10175  0.68
      L1  H    13    39       P1 10186  2.00
      L1  H    16    33       P1 10195  1.00
      L1  H    16    34       P1 10186  1.00

> <Gold.PLP.Chemscore.Internal.Correction>
0.0184

> <Gold.Rescore>
     Score         DG    S(hbond)    S(metal)    S(lipo)     H(rot)  DE(clash)    DE(int)     intcor
     14.86     -18.22       4.04        0.00      38.82       2.07       0.27       3.10       ----

> <Gold.Chemscore.Fitness>
14.8559

> <Gold.Chemscore.DG>
-18.2240

> <Gold.Chemscore.ZeroCoef>
-5.4800

> <Gold.Chemscore.Hbond>
4.0384

> <Gold.Chemscore.Metal>
0.0000

> <Gold.Chemscore.Lipo>
38.8211

> <Gold.Chemscore.Internal_Hbond>
0.0000

> <Gold.Chemscore.DEClash>
0.2701

> <Gold.Chemscore.DEInternal>
3.0980

> <Gold.Chemscore.Rot>
2.0650

> <Gold.Chemscore.Internal.Correction>
   9.000000E+99

> <Gold.Chemscore.Hbonds>
donor molecule, donor type, donor heavy atom, donor atom, acceptor molecule, acceptor atom, score
      L1  H     6    24       P1 10175  0.93
      L1  H     9    25       P1 10175  0.65
      L1  H    13    39       P1 10186  0.69
      L1  H    16    33       P1 10195  0.96
      L1  H    16    34       P1 10186  0.95

> <Gold.Chemscore.Hbond.Weighted>
-13.4883

> <Gold.Chemscore.Metal.Weighted>
-0.0000

> <Gold.Chemscore.Lipo.Weighted>
-4.5421

> <Gold.Chemscore.Internal_Hbond.Weighted>
0.0000

> <Gold.Chemscore.DEClash.Weighted>
0.2701

> <Gold.Chemscore.DEInternal.Weighted>
3.0980

> <Gold.Chemscore.Rot.Weighted>
5.2864

> <Gold.Chemscore.Internal.Correction.Weighted>
   9.000000E+99

> <Gold.Protein.RotatedTorsions>
[ 6907 6896 6895 6894 ] final -134.70 input  -60.11 | X-H torsion
[ 7974 7965 7964 7962 ] final   -7.36 input  175.53 | X-H torsion
[ 8008 7997 7996 7995 ] final   70.54 input   59.86 | X-H torsion
[ 10167 10162 10161 10158 ] final   57.62 input  -65.29 | X-H torsion
[ 10718 10713 10712 10709 ] final  -16.08 input   66.30 | X-H torsion
[ 10763 10752 10751 10750 ] final  175.82 input  -60.55 | X-H torsion
[ 11005 11000 10999 10996 ] final  104.96 input  -57.11 | X-H torsion

> <Gold.Protein.ActiveResidues>
 VAL166  LYS551  ARG553  GLY616  TRP617  ASP618  TYR619  PRO620  LYS621  CYS622 
 ASP623  PHE694  ASN695  SER759  ASP760  ASP761  ALA762  ILE779  LEU786  VAL792 
 PHE793  MET794  SER795  GLU796  ALA797  LYS798  CYS799  TRP800  GLU811  SER814 

> <Gold.Protein.RotatedAtoms>
  150.9890  133.6168  159.2710 H   0  0  0  0  0  0  0  0  0  0  0  0  # atno 6907 bound_to 6896
  151.3396  135.0859  159.9376 H   0  0  0  0  0  0  0  0  0  0  0  0  # atno 6908 bound_to 6896
  152.5240  133.9504  159.7723 H   0  0  0  0  0  0  0  0  0  0  0  0  # atno 6909 bound_to 6896
  146.2308  140.2308  142.8340 H   0  0  0  0  0  0  0  0  0  0  0  0  # atno 7974 bound_to 7965
  155.7403  140.3490  155.5101 H   0  0  0  0  0  0  0  0  0  0  0  0  # atno 8008 bound_to 7997
  155.9100  140.1049  157.1308 H   0  0  0  0  0  0  0  0  0  0  0  0  # atno 8009 bound_to 7997
  154.4055  140.1269  156.4532 H   0  0  0  0  0  0  0  0  0  0  0  0  # atno 8010 bound_to 7997
  140.1960  144.4036  150.6550 H   0  0  0  0  0  0  0  0  0  0  0  0  # atno 10167 bound_to 10162
  156.5926  130.4803  149.6273 H   0  0  0  0  0  0  0  0  0  0  0  0  # atno 10718 bound_to 10713
  154.4728  135.2772  155.1630 H   0  0  0  0  0  0  0  0  0  0  0  0  # atno 10763 bound_to 10752
  154.3372  135.6178  153.5582 H   0  0  0  0  0  0  0  0  0  0  0  0  # atno 10764 bound_to 10752
  152.9866  135.5779  154.5113 H   0  0  0  0  0  0  0  0  0  0  0  0  # atno 10765 bound_to 10752
  139.8797  134.9319  156.5441 H   0  0  0  0  0  0  0  0  0  0  0  0  # atno 11005 bound_to 11000
  144.9559  140.8226  143.5543 LP  0  0  0  0  0  0  0  0  0  0  0  0  # atno 17320 bound_to 7965
  145.2273  139.2131  143.5061 LP  0  0  0  0  0  0  0  0  0  0  0  0  # atno 17321 bound_to 7965
  140.6423  143.2206  151.6263 LP  0  0  0  0  0  0  0  0  0  0  0  0  # atno 17342 bound_to 10162
  139.5236  144.3128  152.0978 LP  0  0  0  0  0  0  0  0  0  0  0  0  # atno 17343 bound_to 10162
  156.2536  130.6922  151.1667 LP  0  0  0  0  0  0  0  0  0  0  0  0  # atno 17370 bound_to 10713
  157.7300  131.0620  150.5749 LP  0  0  0  0  0  0  0  0  0  0  0  0  # atno 17371 bound_to 10713
  140.8288  133.8295  155.8965 LP  0  0  0  0  0  0  0  0  0  0  0  0  # atno 17394 bound_to 11000
  140.9348  134.1976  157.4839 LP  0  0  0  0  0  0  0  0  0  0  0  0  # atno 17395 bound_to 11000

$$$$
