AV-unprocessed.smi:3094|AV-procd|sdf|11788|dock7
  -GOLD-   2272017163D 1   1.00000     0.00000
 Structure written by MMmdl.
 30 31  0  0  0  0  0  0  0  0  2 V2000
  149.4848  140.4249  156.9285 C   0  0  0  0  0  0  0  0  0  0  0  0
  150.2479  141.3203  155.9432 C   0  0  2  0  0  0  0  0  0  0  0  0
  151.5378  140.6319  155.4467 C   0  0  0  0  0  0  0  0  0  0  0  0
  151.2982  139.2880  154.9100 N   0  0  0  0  0  0  0  0  0  0  0  0
  151.9270  138.1253  155.2747 C   0  0  0  0  0  0  0  0  0  0  0  0
  151.3699  137.1259  154.5193 C   0  0  0  0  0  0  0  0  0  0  0  0
  150.4292  137.7211  153.7221 N   0  3  0  0  0  0  0  0  0  0  0  0
  150.3904  139.0366  153.9576 C   0  0  0  0  0  0  0  0  0  0  0  0
  150.5465  142.5938  156.5980 N   0  0  0  0  0  0  0  0  0  0  0  0
  151.2980  142.7558  157.6988 C   0  0  0  0  0  0  0  0  0  0  0  0
  151.8173  141.8160  158.3030 O   0  0  0  0  0  0  0  0  0  0  0  0
  151.4322  144.1772  158.1358 C   0  0  0  0  0  0  0  0  0  0  0  0
  152.8085  144.8080  158.0729 C   0  0  0  0  0  0  0  0  0  0  0  0
  152.2087  144.4461  159.4085 C   0  0  0  0  0  0  0  0  0  0  0  0
  149.2107  139.4765  156.4658 H   0  0  0  0  0  0  0  0  0  0  0  0
  148.5637  140.9041  157.2626 H   0  0  0  0  0  0  0  0  0  0  0  0
  150.0845  140.2023  157.8119 H   0  0  0  0  0  0  0  0  0  0  0  0
  149.5884  141.4922  155.0904 H   0  0  0  0  0  0  0  0  0  0  0  0
  152.0332  141.2331  154.6826 H   0  0  0  0  0  0  0  0  0  0  0  0
  152.2465  140.5220  156.2687 H   0  0  0  0  0  0  0  0  0  0  0  0
  152.6984  138.0954  156.0305 H   0  0  0  0  0  0  0  0  0  0  0  0
  151.5663  136.0639  154.4911 H   0  0  0  0  0  0  0  0  0  0  0  0
  149.7443  139.7521  153.4807 H   0  0  0  0  0  0  0  0  0  0  0  0
  150.1619  143.4231  156.1686 H   0  0  0  0  0  0  0  0  0  0  0  0
  150.5836  144.8305  157.9364 H   0  0  0  0  0  0  0  0  0  0  0  0
  153.6432  144.2048  157.7196 H   0  0  0  0  0  0  0  0  0  0  0  0
  152.8572  145.8611  157.8032 H   0  0  0  0  0  0  0  0  0  0  0  0
  151.8503  145.2541  160.0429 H   0  0  0  0  0  0  0  0  0  0  0  0
  152.6439  143.6020  159.9406 H   0  0  0  0  0  0  0  0  0  0  0  0
  149.8446  137.2375  153.0518 H   0  0  0  0  0  0  0  0  0  0  0  0
  1  2  1  0  0  0  0
  1 15  1  0  0  0  0
  1 16  1  0  0  0  0
  1 17  1  0  0  0  0
  2  3  1  0  0  0  0
  2  9  1  0  0  0  0
  2 18  1  0  0  0  0
  3  4  1  0  0  0  0
  3 19  1  0  0  0  0
  3 20  1  0  0  0  0
  4  8  1  0  0  0  0
  4  5  1  0  0  0  0
  5  6  2  0  0  0  0
  5 21  1  0  0  0  0
  6  7  1  0  0  0  0
  6 22  1  0  0  0  0
  7  8  2  0  0  0  0
  7 30  1  0  0  0  0
  8 23  1  0  0  0  0
  9 10  1  0  0  0  0
  9 24  1  0  0  0  0
 10 11  2  0  0  0  0
 10 12  1  0  0  0  0
 12 14  1  0  0  0  0
 12 13  1  0  0  0  0
 12 25  1  0  0  0  0
 13 14  1  0  0  0  0
 13 26  1  0  0  0  0
 13 27  1  0  0  0  0
 14 28  1  0  0  0  0
 14 29  1  0  0  0  0
M  CHG  1   7   1
M  END
> <s_m_source_file>
AV-unprocessed.smi

> <i_m_source_file_index>
3094

> <i_lp_mmshare_version>
43012

> <i_f3d_flags>
0

> <s_epik_input>
W0NIMl0xW0NIMl1bQ0hdMUMoPU8pW05IXVtDQEhdKFtDSDNdKVtDSDJdbjJbY0hdW2NIXW5bY0hdMg==

> <s_epik_cmdline>
J2VwaWtfcHl0aG9uJywgJy1waCcsICc3LjAnLCAnLXRuJywgJzgnLCAnLW1hJywgJzIwMCcsICctbWV0YWxfYmluZGluZycsICctaW1hZScsICc8aW5maWxlLm1hZT4nLCAnLW9tYWUnLCAnPG91dGZpbGUubWFlPic=

> <r_lp_tautomer_probability>
1

> <r_epik_Ionization_Penalty>
0.244425

> <r_epik_Ionization_Penalty_Charging>
0

> <r_epik_Ionization_Penalty_Neutral>
0.244425

> <r_epik_State_Penalty>
0.23553

> <r_epik_Charging_Adjusted_Penalty>
0.23553

> <i_epik_Tot_Q>
1

> <i_epik_Tot_abs_Q>
1

> <r_epik_Metal_State_Penalty>
0.528799

> <b_epik_Metal_Only>
0

> <s_lp_Force_Field>
OPLS_2005

> <r_lp_Energy>
8.8376

> <b_lp_Chiralities_Consistent>
1

> <s_lp_Variant>
AV-unprocessed.smi:3094-1

> <Gold.Version>
5.8.1

> <Gold.Id.Protein>
6NUR|6NUR_protein|mol2

> <Gold.PLP.Fitness>
45.5270

> <Gold.PLP.PLP>
-33.6931

> <Gold.PLP.part.hbond>
-2.9446

> <Gold.PLP.part.metal>
0.0000

> <Gold.PLP.part.buried>
-2.5522

> <Gold.PLP.part.nonpolar>
-28.8297

> <Gold.PLP.part.repulsive>
0.1318

> <Gold.PLP.ligand.clash>
0.0000

> <Gold.PLP.ligand.torsion>
0.1141

> <Gold.PLP.Chemscore.Hbond>
2.9920

> <Gold.PLP.Chemscore.CHOScore>
1.0000

> <Gold.PLP.Chemscore.Metal>
0.0000

> <Gold.Chemscore.Hbonds>
donor molecule, donor type, donor heavy atom, donor atom, acceptor molecule, acceptor atom, score
      L1  H     7    30       P1  7948  2.00
      L1  H     9    24       P1  8028  1.00
      L1  C     8    23       P1  7957  0.87

> <Gold.PLP.Chemscore.Internal.Correction>
0.0861

> <Gold.Rescore>
     Score         DG    S(hbond)    S(metal)    S(lipo)     H(rot)  DE(clash)    DE(int)     intcor
     14.16     -15.30       1.91        0.00      70.99       1.90       0.01       1.13       ----

> <Gold.Chemscore.Fitness>
14.1644

> <Gold.Chemscore.DG>
-15.2994

> <Gold.Chemscore.ZeroCoef>
-5.4800

> <Gold.Chemscore.Hbond>
1.9108

> <Gold.Chemscore.Metal>
0.0000

> <Gold.Chemscore.Lipo>
70.9939

> <Gold.Chemscore.Internal_Hbond>
0.0000

> <Gold.Chemscore.DEClash>
0.0096

> <Gold.Chemscore.DEInternal>
1.1255

> <Gold.Chemscore.Rot>
1.9019

> <Gold.Chemscore.Internal.Correction>
   9.000000E+99

> <Gold.Chemscore.Hbonds>
donor molecule, donor type, donor heavy atom, donor atom, acceptor molecule, acceptor atom, score
      L1  H     7    30       P1  7948  0.30
      L1  H     9    24       P1  8028  0.99

> <Gold.Chemscore.Hbond.Weighted>
-6.3821

> <Gold.Chemscore.Metal.Weighted>
-0.0000

> <Gold.Chemscore.Lipo.Weighted>
-8.3063

> <Gold.Chemscore.Internal_Hbond.Weighted>
0.0000

> <Gold.Chemscore.DEClash.Weighted>
0.0096

> <Gold.Chemscore.DEInternal.Weighted>
1.1255

> <Gold.Chemscore.Rot.Weighted>
4.8689

> <Gold.Chemscore.Internal.Correction.Weighted>
   9.000000E+99

> <Gold.Protein.RotatedTorsions>
[ 6907 6896 6895 6894 ] final  -71.08 input  -60.11 | X-H torsion
[ 7974 7965 7964 7962 ] final  138.15 input  175.53 | X-H torsion
[ 8008 7997 7996 7995 ] final   42.91 input   59.86 | X-H torsion
[ 10167 10162 10161 10158 ] final -145.95 input  -65.29 | X-H torsion
[ 10718 10713 10712 10709 ] final  -19.96 input   66.30 | X-H torsion
[ 10763 10752 10751 10750 ] final -149.58 input  -60.55 | X-H torsion
[ 11005 11000 10999 10996 ] final   12.68 input  -57.11 | X-H torsion

> <Gold.Protein.ActiveResidues>
 VAL166  LYS551  ARG553  GLY616  TRP617  ASP618  TYR619  PRO620  LYS621  CYS622 
 ASP623  PHE694  ASN695  SER759  ASP760  ASP761  ALA762  ILE779  LEU786  VAL792 
 PHE793  MET794  SER795  GLU796  ALA797  LYS798  CYS799  TRP800  GLU811  SER814 

> <Gold.Protein.RotatedAtoms>
  150.7228  134.5361  159.5723 H   0  0  0  0  0  0  0  0  0  0  0  0  # atno 6907 bound_to 6896
  152.2882  134.7748  160.0392 H   0  0  0  0  0  0  0  0  0  0  0  0  # atno 6908 bound_to 6896
  151.8371  133.3382  159.3668 H   0  0  0  0  0  0  0  0  0  0  0  0  # atno 6909 bound_to 6896
  144.9400  139.4943  143.5576 H   0  0  0  0  0  0  0  0  0  0  0  0  # atno 7974 bound_to 7965
  155.2940  140.3380  155.4251 H   0  0  0  0  0  0  0  0  0  0  0  0  # atno 8008 bound_to 7997
  156.2033  140.1741  156.7894 H   0  0  0  0  0  0  0  0  0  0  0  0  # atno 8009 bound_to 7997
  154.5587  140.0691  156.8769 H   0  0  0  0  0  0  0  0  0  0  0  0  # atno 8010 bound_to 7997
  139.7758  143.8171  152.2631 H   0  0  0  0  0  0  0  0  0  0  0  0  # atno 10167 bound_to 10162
  156.5385  130.4672  149.6511 H   0  0  0  0  0  0  0  0  0  0  0  0  # atno 10718 bound_to 10713
  154.8169  135.3305  154.7151 H   0  0  0  0  0  0  0  0  0  0  0  0  # atno 10763 bound_to 10752
  153.7790  135.6920  153.4896 H   0  0  0  0  0  0  0  0  0  0  0  0  # atno 10764 bound_to 10752
  153.1993  135.4522  155.0194 H   0  0  0  0  0  0  0  0  0  0  0  0  # atno 10765 bound_to 10752
  140.4892  134.0857  155.7767 H   0  0  0  0  0  0  0  0  0  0  0  0  # atno 11005 bound_to 11000
  146.3282  139.8412  142.8890 LP  0  0  0  0  0  0  0  0  0  0  0  0  # atno 17320 bound_to 7965
  145.3006  141.0193  143.3611 LP  0  0  0  0  0  0  0  0  0  0  0  0  # atno 17321 bound_to 7965
  139.8219  144.7292  150.9561 LP  0  0  0  0  0  0  0  0  0  0  0  0  # atno 17342 bound_to 10162
  140.7816  143.4150  151.0931 LP  0  0  0  0  0  0  0  0  0  0  0  0  # atno 17343 bound_to 10162
  156.2993  130.7168  151.2036 LP  0  0  0  0  0  0  0  0  0  0  0  0  # atno 17370 bound_to 10713
  157.7409  131.0510  150.5131 LP  0  0  0  0  0  0  0  0  0  0  0  0  # atno 17371 bound_to 10713
  141.1492  133.8999  157.2139 LP  0  0  0  0  0  0  0  0  0  0  0  0  # atno 17394 bound_to 11000
  139.9779  135.0108  156.9677 LP  0  0  0  0  0  0  0  0  0  0  0  0  # atno 17395 bound_to 11000

$$$$
