AV-unprocessed.smi:640|AV-procd|sdf|3150|dock2
  -GOLD-   22720 0 73D 1   1.00000     0.00000
 Structure written by MMmdl.
 38 40  0  0  0  0  0  0  0  0  3 V2000
  149.4364  139.9371  157.0543 O   0  0  0  0  0  0  0  0  0  0  0  0
  149.5221  141.0973  156.6501 C   0  0  0  0  0  0  0  0  0  0  0  0
  150.8940  141.7647  156.4826 C   0  0  0  0  0  0  0  0  0  0  0  0
  151.6323  141.8801  157.7513 N   0  0  0  0  0  0  0  0  0  0  0  0
  151.3579  143.0045  158.5550 C   0  0  0  0  0  0  0  0  0  0  0  0
  151.9700  143.2047  159.7387 C   0  0  0  0  0  0  0  0  0  0  0  0
  151.6712  144.3609  160.5550 N   0  3  0  0  0  0  0  0  0  0  0  0
  151.1593  145.3407  160.0227 O   0  0  0  0  0  0  0  0  0  0  0  0
  151.9370  144.3289  161.7529 O   0  5  0  0  0  0  0  0  0  0  0  0
  152.9392  142.2167  160.1721 C   0  0  0  0  0  0  0  0  0  0  0  0
  153.2027  141.1373  159.4099 C   0  0  0  0  0  0  0  0  0  0  0  0
  152.5307  140.9183  158.1250 C   0  0  0  0  0  0  0  0  0  0  0  0
  152.7615  139.9303  157.4274 O   0  0  0  0  0  0  0  0  0  0  0  0
  148.4564  141.8576  156.3552 N   0  0  0  0  0  0  0  0  0  0  0  0
  147.0612  141.4420  156.4535 C   0  0  0  0  0  0  0  0  0  0  0  0
  146.4161  141.3179  155.0853 C   0  0  0  0  0  0  0  0  0  0  0  0
  147.2482  141.2490  153.8264 C   0  0  0  0  0  0  0  0  0  0  0  0
  146.4135  142.4763  154.1172 C   0  0  0  0  0  0  0  0  0  0  0  0
  146.2456  142.3659  157.3422 C   0  0  0  0  0  0  0  0  0  0  0  0
  146.4315  142.3803  158.8408 C   0  0  0  0  0  0  0  0  0  0  0  0
  145.1559  141.8326  158.2423 C   0  0  0  0  0  0  0  0  0  0  0  0
  151.4869  141.2128  155.7505 H   0  0  0  0  0  0  0  0  0  0  0  0
  150.7382  142.7487  156.0382 H   0  0  0  0  0  0  0  0  0  0  0  0
  150.6164  143.6764  158.1473 H   0  0  0  0  0  0  0  0  0  0  0  0
  153.4599  142.3342  161.1111 H   0  0  0  0  0  0  0  0  0  0  0  0
  153.9275  140.4133  159.7525 H   0  0  0  0  0  0  0  0  0  0  0  0
  148.6249  142.8008  156.0363 H   0  0  0  0  0  0  0  0  0  0  0  0
  147.0306  140.4472  156.9030 H   0  0  0  0  0  0  0  0  0  0  0  0
  145.5163  140.7051  155.0857 H   0  0  0  0  0  0  0  0  0  0  0  0
  148.3279  141.3472  153.9203 H   0  0  0  0  0  0  0  0  0  0  0  0
  146.9078  140.5838  153.0355 H   0  0  0  0  0  0  0  0  0  0  0  0
  145.5173  142.6289  153.5196 H   0  0  0  0  0  0  0  0  0  0  0  0
  146.9382  143.3834  154.4113 H   0  0  0  0  0  0  0  0  0  0  0  0
  146.0419  143.3329  156.8855 H   0  0  0  0  0  0  0  0  0  0  0  0
  147.1280  141.6654  159.2742 H   0  0  0  0  0  0  0  0  0  0  0  0
  146.3803  143.3443  159.3426 H   0  0  0  0  0  0  0  0  0  0  0  0
  144.2533  142.4311  158.3468 H   0  0  0  0  0  0  0  0  0  0  0  0
  145.0090  140.7553  158.2854 H   0  0  0  0  0  0  0  0  0  0  0  0
  1  2  2  0  0  0  0
  2  3  1  0  0  0  0
  2 14  1  0  0  0  0
  3  4  1  0  0  0  0
  3 22  1  0  0  0  0
  3 23  1  0  0  0  0
  4 12  1  0  0  0  0
  4  5  1  0  0  0  0
  5  6  2  0  0  0  0
  5 24  1  0  0  0  0
  6  7  1  0  0  0  0
  6 10  1  0  0  0  0
  7  8  2  0  0  0  0
  7  9  1  0  0  0  0
 10 11  2  0  0  0  0
 10 25  1  0  0  0  0
 11 12  1  0  0  0  0
 11 26  1  0  0  0  0
 12 13  2  0  0  0  0
 14 15  1  0  0  0  0
 14 27  1  0  0  0  0
 15 16  1  0  0  0  0
 15 19  1  0  0  0  0
 15 28  1  0  0  0  0
 16 18  1  0  0  0  0
 16 17  1  0  0  0  0
 16 29  1  0  0  0  0
 17 18  1  0  0  0  0
 17 30  1  0  0  0  0
 17 31  1  0  0  0  0
 18 32  1  0  0  0  0
 18 33  1  0  0  0  0
 19 21  1  0  0  0  0
 19 20  1  0  0  0  0
 19 34  1  0  0  0  0
 20 21  1  0  0  0  0
 20 35  1  0  0  0  0
 20 36  1  0  0  0  0
 21 37  1  0  0  0  0
 21 38  1  0  0  0  0
M  CHG  1   7   1
M  CHG  1   9  -1
M  END
> <s_m_source_file>
AV-unprocessed.smi

> <i_m_source_file_index>
640

> <i_lp_mmshare_version>
43012

> <i_f3d_flags>
0

> <s_epik_input>
W0NIMl0xW0NIMl1bQ0hdMVtDSF0oW0NIXTJbQ0gyXVtDSDJdMilbTkhdQyg9TylbQ0gyXW4zW2NIXWMoW04rXSg9TylbTy1dKVtjSF1bY0hdYzM9Tw==

> <s_epik_cmdline>
J2VwaWtfcHl0aG9uJywgJy1waCcsICc3LjAnLCAnLXRuJywgJzgnLCAnLW1hJywgJzIwMCcsICctbWV0YWxfYmluZGluZycsICctaW1hZScsICc8aW5maWxlLm1hZT4nLCAnLW9tYWUnLCAnPG91dGZpbGUubWFlPic=

> <r_lp_tautomer_probability>
1

> <r_epik_Ionization_Penalty>
2.04963e-08

> <r_epik_Ionization_Penalty_Charging>
8.36809e-11

> <r_epik_Ionization_Penalty_Neutral>
2.04126e-08

> <r_epik_State_Penalty>
-0

> <r_epik_Charging_Adjusted_Penalty>
8.36809e-11

> <i_epik_Tot_Q>
0

> <i_epik_Tot_abs_Q>
2

> <r_epik_Metal_State_Penalty>
-0

> <b_epik_Metal_Only>
0

> <s_lp_Force_Field>
OPLS_2005

> <r_lp_Energy>
35.0527

> <b_lp_Chiralities_Consistent>
1

> <s_lp_Variant>
AV-unprocessed.smi:640-1

> <Gold.Version>
5.8.1

> <Gold.Id.Protein>
6NUR|6NUR_protein|mol2

> <Gold.PLP.Fitness>
44.0437

> <Gold.PLP.PLP>
-39.3383

> <Gold.PLP.part.hbond>
-2.0000

> <Gold.PLP.part.metal>
0.0000

> <Gold.PLP.part.buried>
-7.6307

> <Gold.PLP.part.nonpolar>
-30.2483

> <Gold.PLP.part.repulsive>
0.5034

> <Gold.PLP.ligand.clash>
0.0000

> <Gold.PLP.ligand.torsion>
1.7559

> <Gold.PLP.Chemscore.Hbond>
2.0000

> <Gold.PLP.Chemscore.CHOScore>
0.0000

> <Gold.PLP.Chemscore.Metal>
0.0000

> <Gold.Chemscore.Hbonds>
donor molecule, donor type, donor heavy atom, donor atom, acceptor molecule, acceptor atom, score
      L1  H    14    27       P1  8028  1.00
      P1  H  7997  8008       L1    13  1.00

> <Gold.PLP.Chemscore.Internal.Correction>
2.2172

> <Gold.Rescore>
     Score         DG    S(hbond)    S(metal)    S(lipo)     H(rot)  DE(clash)    DE(int)     intcor
     13.33     -15.21       1.90        0.00      71.32       1.94       0.27       1.61       ----

> <Gold.Chemscore.Fitness>
13.3311

> <Gold.Chemscore.DG>
-15.2072

> <Gold.Chemscore.ZeroCoef>
-5.4800

> <Gold.Chemscore.Hbond>
1.8993

> <Gold.Chemscore.Metal>
0.0000

> <Gold.Chemscore.Lipo>
71.3233

> <Gold.Chemscore.Internal_Hbond>
0.0000

> <Gold.Chemscore.DEClash>
0.2701

> <Gold.Chemscore.DEInternal>
1.6060

> <Gold.Chemscore.Rot>
1.9380

> <Gold.Chemscore.Internal.Correction>
   9.000000E+99

> <Gold.Chemscore.Hbonds>
donor molecule, donor type, donor heavy atom, donor atom, acceptor molecule, acceptor atom, score
      L1  H    14    27       P1  8028  0.98
      P1  H  7997  8008       L1    13  0.73

> <Gold.Chemscore.Hbond.Weighted>
-6.3437

> <Gold.Chemscore.Metal.Weighted>
-0.0000

> <Gold.Chemscore.Lipo.Weighted>
-8.3448

> <Gold.Chemscore.Internal_Hbond.Weighted>
0.0000

> <Gold.Chemscore.DEClash.Weighted>
0.2701

> <Gold.Chemscore.DEInternal.Weighted>
1.6060

> <Gold.Chemscore.Rot.Weighted>
4.9613

> <Gold.Chemscore.Internal.Correction.Weighted>
   9.000000E+99

> <Gold.Protein.RotatedTorsions>
[ 6907 6896 6895 6894 ] final -161.76 input  -60.11 | X-H torsion
[ 7974 7965 7964 7962 ] final  158.00 input  175.53 | X-H torsion
[ 8008 7997 7996 7995 ] final  -56.53 input   59.86 | X-H torsion
[ 10167 10162 10161 10158 ] final -104.96 input  -65.29 | X-H torsion
[ 10718 10713 10712 10709 ] final  -64.41 input   66.30 | X-H torsion
[ 10763 10752 10751 10750 ] final  -91.52 input  -60.55 | X-H torsion
[ 11005 11000 10999 10996 ] final  146.54 input  -57.11 | X-H torsion

> <Gold.Protein.ActiveResidues>
 VAL166  LYS551  ARG553  GLY616  TRP617  ASP618  TYR619  PRO620  LYS621  CYS622 
 ASP623  PHE694  ASN695  SER759  ASP760  ASP761  ALA762  ILE779  LEU786  VAL792 
 PHE793  MET794  SER795  GLU796  ALA797  LYS798  CYS799  TRP800  GLU811  SER814 

> <Gold.Protein.RotatedAtoms>
  151.3698  133.3859  159.2698 H   0  0  0  0  0  0  0  0  0  0  0  0  # atno 6907 bound_to 6896
  150.9660  134.9042  159.7770 H   0  0  0  0  0  0  0  0  0  0  0  0  # atno 6908 bound_to 6896
  152.5167  134.3658  159.9353 H   0  0  0  0  0  0  0  0  0  0  0  0  # atno 6909 bound_to 6896
  144.7871  139.7417  143.6236 H   0  0  0  0  0  0  0  0  0  0  0  0  # atno 7974 bound_to 7965
  154.4234  140.1127  156.5653 H   0  0  0  0  0  0  0  0  0  0  0  0  # atno 8008 bound_to 7997
  155.6269  140.3495  155.4651 H   0  0  0  0  0  0  0  0  0  0  0  0  # atno 8009 bound_to 7997
  155.9979  140.1193  157.0565 H   0  0  0  0  0  0  0  0  0  0  0  0  # atno 8010 bound_to 7997
  140.2037  143.3799  152.1108 H   0  0  0  0  0  0  0  0  0  0  0  0  # atno 10167 bound_to 10162
  156.0731  130.4233  150.1415 H   0  0  0  0  0  0  0  0  0  0  0  0  # atno 10718 bound_to 10713
  154.6769  135.5265  153.8211 H   0  0  0  0  0  0  0  0  0  0  0  0  # atno 10763 bound_to 10752
  153.0538  135.6542  154.0637 H   0  0  0  0  0  0  0  0  0  0  0  0  # atno 10764 bound_to 10752
  154.0530  135.2968  155.3317 H   0  0  0  0  0  0  0  0  0  0  0  0  # atno 10765 bound_to 10752
  140.0802  134.9102  157.1487 H   0  0  0  0  0  0  0  0  0  0  0  0  # atno 11005 bound_to 11000
  146.2107  139.5462  142.9683 LP  0  0  0  0  0  0  0  0  0  0  0  0  # atno 17320 bound_to 7965
  145.5893  141.0372  143.2079 LP  0  0  0  0  0  0  0  0  0  0  0  0  # atno 17321 bound_to 7965
  139.5207  144.7036  151.5420 LP  0  0  0  0  0  0  0  0  0  0  0  0  # atno 17342 bound_to 10162
  140.6372  143.8960  150.6658 LP  0  0  0  0  0  0  0  0  0  0  0  0  # atno 17343 bound_to 10162
  156.9462  130.9760  151.3507 LP  0  0  0  0  0  0  0  0  0  0  0  0  # atno 17370 bound_to 10713
  157.5812  130.8378  149.8526 LP  0  0  0  0  0  0  0  0  0  0  0  0  # atno 17371 bound_to 10713
  140.3500  134.2610  155.7200 LP  0  0  0  0  0  0  0  0  0  0  0  0  # atno 17394 bound_to 11000
  141.2044  133.7888  157.0290 LP  0  0  0  0  0  0  0  0  0  0  0  0  # atno 17395 bound_to 11000

$$$$
