AV-unprocessed.smi:1420|AV-procd|sdf|5788|dock6
  -GOLD-   22720 5433D 1   1.00000     0.00000
 Structure written by MMmdl.
 39 40  0  0  0  0  0  0  0  0  2 V2000
  146.4713  142.5617  154.2415 C   0  0  0  0  0  0  0  0  0  0  0  0
  146.7641  141.1419  154.7794 C   0  0  2  0  0  0  0  0  0  0  0  0
  148.2756  140.9961  155.1162 C   0  0  0  0  0  0  0  0  0  0  0  0
  148.6362  141.5802  156.4048 N   0  0  0  0  0  0  0  0  0  0  0  0
  149.8769  141.6172  156.9158 C   0  0  0  0  0  0  0  0  0  0  0  0
  150.8589  141.1455  156.3432 O   0  0  0  0  0  0  0  0  0  0  0  0
  150.0332  142.2807  158.2850 C   0  0  0  0  0  0  0  0  0  0  0  0
  151.2111  143.1291  158.3280 N   0  0  0  0  0  0  0  0  0  0  0  0
  151.4804  144.2592  157.5839 C   0  0  0  0  0  0  0  0  0  0  0  0
  152.7041  144.7213  157.9757 C   0  0  0  0  0  0  0  0  0  0  0  0
  153.1109  143.7955  158.9769 C   0  0  0  0  0  0  0  0  0  0  0  0
  152.2150  142.8443  159.1867 N   0  0  0  0  0  0  0  0  0  0  0  0
  146.2582  140.1086  153.8164 N   0  3  0  0  0  0  0  0  0  0  0  0
  147.0719  139.9258  152.5824 C   0  0  0  0  0  0  0  0  0  0  0  0
  146.4515  138.8637  151.6575 C   0  0  0  0  0  0  0  0  0  0  0  0
  146.3054  137.6371  152.3566 O   0  0  0  0  0  0  0  0  0  0  0  0
  145.4366  137.7755  153.4704 C   0  0  0  0  0  0  0  0  0  0  0  0
  146.0343  138.7859  154.4626 C   0  0  0  0  0  0  0  0  0  0  0  0
  146.8033  143.3348  154.9344 H   0  0  0  0  0  0  0  0  0  0  0  0
  145.4093  142.7423  154.0863 H   0  0  0  0  0  0  0  0  0  0  0  0
  146.9786  142.7334  153.2918 H   0  0  0  0  0  0  0  0  0  0  0  0
  146.2135  141.0104  155.7122 H   0  0  0  0  0  0  0  0  0  0  0  0
  148.5803  139.9492  155.1425 H   0  0  0  0  0  0  0  0  0  0  0  0
  148.8796  141.4809  154.3485 H   0  0  0  0  0  0  0  0  0  0  0  0
  147.8911  141.9984  156.9441 H   0  0  0  0  0  0  0  0  0  0  0  0
  149.1460  142.8724  158.5166 H   0  0  0  0  0  0  0  0  0  0  0  0
  150.1226  141.5195  159.0615 H   0  0  0  0  0  0  0  0  0  0  0  0
  150.7856  144.6360  156.8474 H   0  0  0  0  0  0  0  0  0  0  0  0
  153.2290  145.5887  157.6035 H   0  0  0  0  0  0  0  0  0  0  0  0
  154.0238  143.7868  159.5541 H   0  0  0  0  0  0  0  0  0  0  0  0
  147.1293  140.8531  152.0137 H   0  0  0  0  0  0  0  0  0  0  0  0
  148.0898  139.6402  152.8530 H   0  0  0  0  0  0  0  0  0  0  0  0
  145.4847  139.1967  151.2763 H   0  0  0  0  0  0  0  0  0  0  0  0
  147.0935  138.7006  150.7915 H   0  0  0  0  0  0  0  0  0  0  0  0
  144.4437  138.0883  153.1427 H   0  0  0  0  0  0  0  0  0  0  0  0
  145.3217  136.8031  153.9495 H   0  0  0  0  0  0  0  0  0  0  0  0
  146.9808  138.4042  154.8491 H   0  0  0  0  0  0  0  0  0  0  0  0
  145.3589  138.8706  155.3116 H   0  0  0  0  0  0  0  0  0  0  0  0
  145.3565  140.4369  153.5012 H   0  0  0  0  0  0  0  0  0  0  0  0
  1  2  1  0  0  0  0
  1 19  1  0  0  0  0
  1 20  1  0  0  0  0
  1 21  1  0  0  0  0
  2  3  1  0  0  0  0
  2 13  1  0  0  0  0
  2 22  1  0  0  0  0
  3  4  1  0  0  0  0
  3 23  1  0  0  0  0
  3 24  1  0  0  0  0
  4  5  1  0  0  0  0
  4 25  1  0  0  0  0
  5  6  2  0  0  0  0
  5  7  1  0  0  0  0
  7  8  1  0  0  0  0
  7 26  1  0  0  0  0
  7 27  1  0  0  0  0
  8 12  1  0  0  0  0
  8  9  1  0  0  0  0
  9 10  2  0  0  0  0
  9 28  1  0  0  0  0
 10 11  1  0  0  0  0
 10 29  1  0  0  0  0
 11 12  2  0  0  0  0
 11 30  1  0  0  0  0
 13 18  1  0  0  0  0
 13 14  1  0  0  0  0
 13 39  1  0  0  0  0
 14 15  1  0  0  0  0
 14 31  1  0  0  0  0
 14 32  1  0  0  0  0
 15 16  1  0  0  0  0
 15 33  1  0  0  0  0
 15 34  1  0  0  0  0
 16 17  1  0  0  0  0
 17 18  1  0  0  0  0
 17 35  1  0  0  0  0
 17 36  1  0  0  0  0
 18 37  1  0  0  0  0
 18 38  1  0  0  0  0
M  CHG  1  13   1
M  END
> <s_m_source_file>
AV-unprocessed.smi

> <i_m_source_file_index>
1420

> <i_lp_mmshare_version>
43012

> <i_f3d_flags>
0

> <s_epik_input>
W0NIMl0xW0NIMl1PW0NIMl1bQ0gyXU4xW0NASF0oW0NIM10pW0NIMl1bTkhdQyg9TylbQ0gyXW4yW2NIXVtjSF1bY0hdbjI=

> <s_epik_cmdline>
J2VwaWtfcHl0aG9uJywgJy1waCcsICc3LjAnLCAnLXRuJywgJzgnLCAnLW1hJywgJzIwMCcsICctbWV0YWxfYmluZGluZycsICctaW1hZScsICc8aW5maWxlLm1hZT4nLCAnLW9tYWUnLCAnPG91dGZpbGUubWFlPic=

> <r_lp_tautomer_probability>
1

> <r_epik_Ionization_Penalty>
0.748405

> <r_epik_Ionization_Penalty_Charging>
0.748396

> <r_epik_Ionization_Penalty_Neutral>
8.56978e-06

> <r_epik_State_Penalty>
0.775162

> <r_epik_Charging_Adjusted_Penalty>
1.52356

> <i_epik_Tot_Q>
1

> <i_epik_Tot_abs_Q>
1

> <r_epik_Metal_State_Penalty>
0.775167

> <b_epik_Metal_Only>
0

> <s_lp_Force_Field>
OPLS_2005

> <r_lp_Energy>
20.6517

> <b_lp_Chiralities_Consistent>
1

> <s_lp_Variant>
AV-unprocessed.smi:1420-3

> <Gold.Version>
5.8.1

> <Gold.Id.Protein>
6NUR|6NUR_protein|mol2

> <Gold.PLP.Fitness>
41.9133

> <Gold.PLP.PLP>
-34.2820

> <Gold.PLP.part.hbond>
-1.5006

> <Gold.PLP.part.metal>
0.0000

> <Gold.PLP.part.buried>
-3.1080

> <Gold.PLP.part.nonpolar>
-31.6483

> <Gold.PLP.part.repulsive>
0.7103

> <Gold.PLP.ligand.clash>
0.0000

> <Gold.PLP.ligand.torsion>
0.7281

> <Gold.PLP.Chemscore.Hbond>
2.0000

> <Gold.PLP.Chemscore.CHOScore>
1.0000

> <Gold.PLP.Chemscore.Metal>
0.0000

> <Gold.Chemscore.Hbonds>
donor molecule, donor type, donor heavy atom, donor atom, acceptor molecule, acceptor atom, score
      L1  H    13    39       P1 10175  2.00
      L1  C     9    28       P1  8028  1.00

> <Gold.PLP.Chemscore.Internal.Correction>
0.0875

> <Gold.Rescore>
     Score         DG    S(hbond)    S(metal)    S(lipo)     H(rot)  DE(clash)    DE(int)     intcor
     12.57     -14.24       0.97        0.00      89.73       1.94       1.19       0.48       ----

> <Gold.Chemscore.Fitness>
12.5663

> <Gold.Chemscore.DG>
-14.2366

> <Gold.Chemscore.ZeroCoef>
-5.4800

> <Gold.Chemscore.Hbond>
0.9683

> <Gold.Chemscore.Metal>
0.0000

> <Gold.Chemscore.Lipo>
89.7267

> <Gold.Chemscore.Internal_Hbond>
0.0000

> <Gold.Chemscore.DEClash>
1.1878

> <Gold.Chemscore.DEInternal>
0.4824

> <Gold.Chemscore.Rot>
1.9435

> <Gold.Chemscore.Internal.Correction>
   9.000000E+99

> <Gold.Chemscore.Hbonds>
donor molecule, donor type, donor heavy atom, donor atom, acceptor molecule, acceptor atom, score
      L1  H    13    39       P1 10175  0.97

> <Gold.Chemscore.Hbond.Weighted>
-3.2340

> <Gold.Chemscore.Metal.Weighted>
-0.0000

> <Gold.Chemscore.Lipo.Weighted>
-10.4980

> <Gold.Chemscore.Internal_Hbond.Weighted>
0.0000

> <Gold.Chemscore.DEClash.Weighted>
1.1878

> <Gold.Chemscore.DEInternal.Weighted>
0.4824

> <Gold.Chemscore.Rot.Weighted>
4.9754

> <Gold.Chemscore.Internal.Correction.Weighted>
   9.000000E+99

> <Gold.Protein.RotatedTorsions>
[ 6907 6896 6895 6894 ] final -100.34 input  -60.11 | X-H torsion
[ 7974 7965 7964 7962 ] final  -56.92 input  175.53 | X-H torsion
[ 8008 7997 7996 7995 ] final  127.31 input   59.86 | X-H torsion
[ 10167 10162 10161 10158 ] final   60.14 input  -65.29 | X-H torsion
[ 10718 10713 10712 10709 ] final  -42.14 input   66.30 | X-H torsion
[ 10763 10752 10751 10750 ] final  147.49 input  -60.55 | X-H torsion
[ 11005 11000 10999 10996 ] final   37.49 input  -57.11 | X-H torsion

> <Gold.Protein.ActiveResidues>
 VAL166  LYS551  ARG553  GLY616  TRP617  ASP618  TYR619  PRO620  LYS621  CYS622 
 ASP623  PHE694  ASN695  SER759  ASP760  ASP761  ALA762  ILE779  LEU786  VAL792 
 PHE793  MET794  SER795  GLU796  ALA797  LYS798  CYS799  TRP800  GLU811  SER814 

> <Gold.Protein.RotatedAtoms>
  150.7112  134.0903  159.3928 H   0  0  0  0  0  0  0  0  0  0  0  0  # atno 6907 bound_to 6896
  151.8888  135.0422  160.0505 H   0  0  0  0  0  0  0  0  0  0  0  0  # atno 6908 bound_to 6896
  152.2508  133.5178  159.5361 H   0  0  0  0  0  0  0  0  0  0  0  0  # atno 6909 bound_to 6896
  145.8571  140.8311  142.9956 H   0  0  0  0  0  0  0  0  0  0  0  0  # atno 7974 bound_to 7965
  156.2887  140.2672  156.2252 H   0  0  0  0  0  0  0  0  0  0  0  0  # atno 8008 bound_to 7997
  155.0127  140.0387  157.2424 H   0  0  0  0  0  0  0  0  0  0  0  0  # atno 8009 bound_to 7997
  154.7504  140.2742  155.6303 H   0  0  0  0  0  0  0  0  0  0  0  0  # atno 8010 bound_to 7997
  140.1688  144.4297  150.6672 H   0  0  0  0  0  0  0  0  0  0  0  0  # atno 10167 bound_to 10162
  156.2628  130.4198  149.8523 H   0  0  0  0  0  0  0  0  0  0  0  0  # atno 10718 bound_to 10713
  154.0391  135.2891  155.3357 H   0  0  0  0  0  0  0  0  0  0  0  0  # atno 10763 bound_to 10752
  154.6940  135.5215  153.8435 H   0  0  0  0  0  0  0  0  0  0  0  0  # atno 10764 bound_to 10752
  153.0607  135.6612  154.0597 H   0  0  0  0  0  0  0  0  0  0  0  0  # atno 10765 bound_to 10752
  140.2220  134.3629  155.8001 H   0  0  0  0  0  0  0  0  0  0  0  0  # atno 11005 bound_to 11000
  144.6727  140.1040  143.7459 LP  0  0  0  0  0  0  0  0  0  0  0  0  # atno 17320 bound_to 7965
  145.9291  139.2594  143.1336 LP  0  0  0  0  0  0  0  0  0  0  0  0  # atno 17321 bound_to 7965
  140.6595  143.2248  151.5888 LP  0  0  0  0  0  0  0  0  0  0  0  0  # atno 17342 bound_to 10162
  139.5347  144.2814  152.1226 LP  0  0  0  0  0  0  0  0  0  0  0  0  # atno 17343 bound_to 10162
  156.6033  130.8556  151.3437 LP  0  0  0  0  0  0  0  0  0  0  0  0  # atno 17370 bound_to 10713
  157.7256  130.9619  150.1623 LP  0  0  0  0  0  0  0  0  0  0  0  0  # atno 17371 bound_to 10713
  141.2222  133.7199  156.8592 LP  0  0  0  0  0  0  0  0  0  0  0  0  # atno 17394 bound_to 11000
  140.1839  134.9013  157.2981 LP  0  0  0  0  0  0  0  0  0  0  0  0  # atno 17395 bound_to 11000

$$$$
