AV-unprocessed.smi:992|AV-procd|sdf|4329|dock3
  -GOLD-   22720 2233D 1   1.00000     0.00000
 Structure written by MMmdl.
 32 33  0  0  0  0  0  0  0  0  1 V2000
  153.6286  141.8698  160.7506 C   0  0  0  0  0  0  0  0  0  0  0  0
  152.5182  142.5141  159.9142 C   0  0  2  0  0  0  0  0  0  0  0  0
  152.1608  141.6653  158.6809 C   0  0  0  0  0  0  0  0  0  0  0  0
  151.1781  142.3636  157.8641 N   0  0  0  0  0  0  0  0  0  0  0  0
  150.6778  141.5916  156.8061 C   0  0  0  0  0  0  0  0  0  0  0  0
  151.5058  140.6058  156.2287 C   0  0  0  0  0  0  0  0  0  0  0  0
  151.0007  139.8358  155.1633 C   0  0  0  0  0  0  0  0  0  0  0  0
  149.6874  140.0777  154.7147 C   0  0  0  0  0  0  0  0  0  0  0  0
  149.1448  139.3421  153.6620 N   0  0  0  0  0  0  0  0  0  0  0  0
  148.9357  141.0829  155.3569 C   0  0  0  0  0  0  0  0  0  0  0  0
  149.4136  141.8258  156.3782 N   0  0  0  0  0  0  0  0  0  0  0  0
  151.6401  143.6829  157.4518 C   0  0  0  0  0  0  0  0  0  0  0  0
  152.0470  144.5270  158.6766 C   0  0  1  0  0  0  0  0  0  0  0  0
  150.8491  145.0496  159.4892 C   0  0  0  0  0  0  0  0  0  0  0  0
  152.9721  143.8001  159.4902 O   0  0  0  0  0  0  0  0  0  0  0  0
  153.3297  140.8832  161.1056 H   0  0  0  0  0  0  0  0  0  0  0  0
  153.8633  142.4804  161.6228 H   0  0  0  0  0  0  0  0  0  0  0  0
  154.5437  141.7536  160.1691 H   0  0  0  0  0  0  0  0  0  0  0  0
  151.6390  142.6255  160.5493 H   0  0  0  0  0  0  0  0  0  0  0  0
  153.0570  141.4697  158.0899 H   0  0  0  0  0  0  0  0  0  0  0  0
  151.7616  140.6988  158.9919 H   0  0  0  0  0  0  0  0  0  0  0  0
  152.5097  140.4430  156.5928 H   0  0  0  0  0  0  0  0  0  0  0  0
  151.6134  139.0752  154.7016 H   0  0  0  0  0  0  0  0  0  0  0  0
  149.6759  138.6204  153.1958 H   0  0  0  0  0  0  0  0  0  0  0  0
  148.1797  139.4504  153.3848 H   0  0  0  0  0  0  0  0  0  0  0  0
  147.9245  141.2994  155.0442 H   0  0  0  0  0  0  0  0  0  0  0  0
  152.4994  143.5695  156.7892 H   0  0  0  0  0  0  0  0  0  0  0  0
  150.8629  144.1918  156.8799 H   0  0  0  0  0  0  0  0  0  0  0  0
  152.5852  145.4020  158.3116 H   0  0  0  0  0  0  0  0  0  0  0  0
  150.2237  145.7011  158.8785 H   0  0  0  0  0  0  0  0  0  0  0  0
  151.1866  145.6285  160.3489 H   0  0  0  0  0  0  0  0  0  0  0  0
  150.2137  144.2438  159.8558 H   0  0  0  0  0  0  0  0  0  0  0  0
  1  2  1  0  0  0  0
  1 16  1  0  0  0  0
  1 17  1  0  0  0  0
  1 18  1  0  0  0  0
  2 15  1  0  0  0  0
  2  3  1  0  0  0  0
  2 19  1  0  0  0  0
  3  4  1  0  0  0  0
  3 20  1  0  0  0  0
  3 21  1  0  0  0  0
  4  5  1  0  0  0  0
  4 12  1  0  0  0  0
  5 11  1  0  0  0  0
  5  6  2  0  0  0  0
  6  7  1  0  0  0  0
  6 22  1  0  0  0  0
  7  8  2  0  0  0  0
  7 23  1  0  0  0  0
  8  9  1  0  0  0  0
  8 10  1  0  0  0  0
  9 24  1  0  0  0  0
  9 25  1  0  0  0  0
 10 11  2  0  0  0  0
 10 26  1  0  0  0  0
 12 13  1  0  0  0  0
 12 27  1  0  0  0  0
 12 28  1  0  0  0  0
 13 14  1  0  0  0  0
 13 15  1  0  0  0  0
 13 29  1  0  0  0  0
 14 30  1  0  0  0  0
 14 31  1  0  0  0  0
 14 32  1  0  0  0  0
M  END
> <s_m_source_file>
AV-unprocessed.smi

> <i_m_source_file_index>
992

> <i_lp_mmshare_version>
43012

> <i_f3d_flags>
0

> <s_epik_input>
W0NIM11bQ0BASF0xW0NIMl1OKFtDSDJdW0NASF0oTzEpW0NIM10pYzJbY0hdW2NIXWMoW05IMl0pW2NIXW4y

> <s_epik_cmdline>
J2VwaWtfcHl0aG9uJywgJy1waCcsICc3LjAnLCAnLXRuJywgJzgnLCAnLW1hJywgJzIwMCcsICctbWV0YWxfYmluZGluZycsICctaW1hZScsICc8aW5maWxlLm1hZT4nLCAnLW9tYWUnLCAnPG91dGZpbGUubWFlPic=

> <r_lp_tautomer_probability>
1

> <r_epik_Ionization_Penalty>
0.0126232

> <r_epik_Ionization_Penalty_Charging>
0

> <r_epik_Ionization_Penalty_Neutral>
0.0126232

> <r_epik_State_Penalty>
0.00976577

> <r_epik_Charging_Adjusted_Penalty>
0.00976577

> <i_epik_Tot_Q>
0

> <i_epik_Tot_abs_Q>
0

> <r_epik_Metal_State_Penalty>
9.84661e-06

> <b_epik_Metal_Only>
0

> <s_lp_Force_Field>
OPLS_2005

> <r_lp_Energy>
23.4385

> <b_lp_Chiralities_Consistent>
1

> <s_lp_Variant>
AV-unprocessed.smi:992-1

> <Gold.Version>
5.8.1

> <Gold.Id.Protein>
6NUR|6NUR_protein|mol2

> <Gold.PLP.Fitness>
34.3588

> <Gold.PLP.PLP>
-35.5797

> <Gold.PLP.part.hbond>
-1.0000

> <Gold.PLP.part.metal>
0.0000

> <Gold.PLP.part.buried>
-4.6968

> <Gold.PLP.part.nonpolar>
-31.2146

> <Gold.PLP.part.repulsive>
1.0025

> <Gold.PLP.ligand.clash>
0.0000

> <Gold.PLP.ligand.torsion>
0.6586

> <Gold.PLP.Chemscore.Hbond>
0.0000

> <Gold.PLP.Chemscore.CHOScore>
0.0000

> <Gold.PLP.Chemscore.Metal>
0.0000

> <Gold.PLP.Chemscore.Internal.Correction>
0.0964

> <Gold.Rescore>
     Score         DG    S(hbond)    S(metal)    S(lipo)     H(rot)  DE(clash)    DE(int)     intcor
     15.04     -15.74       0.88        0.00      84.41       1.00       0.32       0.39       ----

> <Gold.Chemscore.Fitness>
15.0362

> <Gold.Chemscore.DG>
-15.7382

> <Gold.Chemscore.ZeroCoef>
-5.4800

> <Gold.Chemscore.Hbond>
0.8810

> <Gold.Chemscore.Metal>
0.0000

> <Gold.Chemscore.Lipo>
84.4066

> <Gold.Chemscore.Internal_Hbond>
0.0000

> <Gold.Chemscore.DEClash>
0.3154

> <Gold.Chemscore.DEInternal>
0.3866

> <Gold.Chemscore.Rot>
1.0000

> <Gold.Chemscore.Internal.Correction>
   9.000000E+99

> <Gold.Chemscore.Hbond.Weighted>
-2.9426

> <Gold.Chemscore.Metal.Weighted>
-0.0000

> <Gold.Chemscore.Lipo.Weighted>
-9.8756

> <Gold.Chemscore.Internal_Hbond.Weighted>
0.0000

> <Gold.Chemscore.DEClash.Weighted>
0.3154

> <Gold.Chemscore.DEInternal.Weighted>
0.3866

> <Gold.Chemscore.Rot.Weighted>
2.5600

> <Gold.Chemscore.Internal.Correction.Weighted>
   9.000000E+99

> <Gold.Protein.RotatedTorsions>
[ 6907 6896 6895 6894 ] final -172.29 input  -60.11 | X-H torsion
[ 7974 7965 7964 7962 ] final -107.93 input  175.53 | X-H torsion
[ 8008 7997 7996 7995 ] final   39.05 input   59.86 | X-H torsion
[ 10167 10162 10161 10158 ] final  -41.95 input  -65.29 | X-H torsion
[ 10718 10713 10712 10709 ] final   89.29 input   66.30 | X-H torsion
[ 10763 10752 10751 10750 ] final  -14.67 input  -60.55 | X-H torsion
[ 11005 11000 10999 10996 ] final   13.44 input  -57.11 | X-H torsion

> <Gold.Protein.ActiveResidues>
 VAL166  LYS551  ARG553  GLY616  TRP617  ASP618  TYR619  PRO620  LYS621  CYS622 
 ASP623  PHE694  ASN695  SER759  ASP760  ASP761  ALA762  ILE779  LEU786  VAL792 
 PHE793  MET794  SER795  GLU796  ALA797  LYS798  CYS799  TRP800  GLU811  SER814 

> <Gold.Protein.RotatedAtoms>
  151.5377  133.3438  159.2929 H   0  0  0  0  0  0  0  0  0  0  0  0  # atno 6907 bound_to 6896
  150.8555  134.7895  159.7053 H   0  0  0  0  0  0  0  0  0  0  0  0  # atno 6908 bound_to 6896
  152.4589  134.5236  159.9842 H   0  0  0  0  0  0  0  0  0  0  0  0  # atno 6909 bound_to 6896
  145.1992  140.9049  143.3379 H   0  0  0  0  0  0  0  0  0  0  0  0  # atno 7974 bound_to 7965
  155.2303  140.3338  155.4304 H   0  0  0  0  0  0  0  0  0  0  0  0  # atno 8008 bound_to 7997
  156.2298  140.1845  156.7318 H   0  0  0  0  0  0  0  0  0  0  0  0  # atno 8009 bound_to 7997
  154.5958  140.0631  156.9287 H   0  0  0  0  0  0  0  0  0  0  0  0  # atno 8010 bound_to 7997
  140.6985  143.3065  151.3140 H   0  0  0  0  0  0  0  0  0  0  0  0  # atno 10167 bound_to 10162
  157.6954  131.0327  150.3404 H   0  0  0  0  0  0  0  0  0  0  0  0  # atno 10718 bound_to 10713
  153.5317  135.7014  153.5680 H   0  0  0  0  0  0  0  0  0  0  0  0  # atno 10763 bound_to 10752
  153.3684  135.3951  155.1770 H   0  0  0  0  0  0  0  0  0  0  0  0  # atno 10764 bound_to 10752
  154.8684  135.3806  154.4815 H   0  0  0  0  0  0  0  0  0  0  0  0  # atno 10765 bound_to 10752
  140.4807  134.0938  155.7750 H   0  0  0  0  0  0  0  0  0  0  0  0  # atno 11005 bound_to 11000
  144.9965  139.3639  143.6189 LP  0  0  0  0  0  0  0  0  0  0  0  0  # atno 17320 bound_to 7965
  146.3421  139.9170  142.8772 LP  0  0  0  0  0  0  0  0  0  0  0  0  # atno 17321 bound_to 7965
  139.6472  144.0428  152.2600 LP  0  0  0  0  0  0  0  0  0  0  0  0  # atno 17342 bound_to 10162
  139.9953  144.6332  150.7778 LP  0  0  0  0  0  0  0  0  0  0  0  0  # atno 17343 bound_to 10162
  156.3865  130.3890  149.7062 LP  0  0  0  0  0  0  0  0  0  0  0  0  # atno 17370 bound_to 10713
  156.4426  130.7868  151.2889 LP  0  0  0  0  0  0  0  0  0  0  0  0  # atno 17371 bound_to 10713
  141.1532  133.8930  157.2043 LP  0  0  0  0  0  0  0  0  0  0  0  0  # atno 17394 bound_to 11000
  139.9828  135.0092  156.9791 LP  0  0  0  0  0  0  0  0  0  0  0  0  # atno 17395 bound_to 11000

$$$$
