AV-unprocessed.smi:667|AV-procd|sdf|3258|dock8
  -GOLD-   22720 0213D 1   1.00000     0.00000
 Structure written by MMmdl.
 48 49  0  0  0  0  0  0  0  0  1 V2000
  151.6420  139.0967  158.5165 C   0  0  0  0  0  0  0  0  0  0  0  0
  151.5243  140.4891  159.0683 C   0  0  0  0  0  0  0  0  0  0  0  0
  150.6219  141.3148  158.5652 N   0  0  0  0  0  0  0  0  0  0  0  0
  150.7691  142.4556  159.2686 N   0  0  0  0  0  0  0  0  0  0  0  0
  149.9175  143.5905  158.9699 C   0  0  0  0  0  0  0  0  0  0  0  0
  151.7650  142.3496  160.2199 C   0  0  0  0  0  0  0  0  0  0  0  0
  152.1186  143.4776  161.1345 C   0  0  0  0  0  0  0  0  0  0  0  0
  152.2809  141.0852  160.1199 C   0  0  0  0  0  0  0  0  0  0  0  0
  153.3878  140.4494  160.9265 C   0  0  0  0  0  0  0  0  0  0  0  0
  154.5524  140.0083  160.0328 C   0  0  0  0  0  0  0  0  0  0  0  0
  154.3582  139.1803  159.1436 O   0  0  0  0  0  0  0  0  0  0  0  0
  155.7603  140.5334  160.2951 N   0  0  0  0  0  0  0  0  0  0  0  0
  157.0027  140.1693  159.6253 C   0  0  0  0  0  0  0  0  0  0  0  0
  158.0184  141.3307  159.6309 C   0  0  1  0  0  0  0  0  0  0  0  0
  158.7919  141.4307  160.9439 C   0  0  0  0  0  0  0  0  0  0  0  0
  160.2285  141.0931  160.5614 C   0  0  0  0  0  0  0  0  0  0  0  0
  160.3269  141.5654  159.2304 O   0  0  0  0  0  0  0  0  0  0  0  0
  159.1290  141.1885  158.5652 C   0  0  2  0  0  0  0  0  0  0  0  0
  158.9395  142.0081  157.2672 C   0  0  0  0  0  0  0  0  0  0  0  0
  157.6439  141.6027  156.5476 C   0  0  0  0  0  0  0  0  0  0  0  0
  160.1409  141.9204  156.3080 C   0  0  0  0  0  0  0  0  0  0  0  0
  151.6215  138.3577  159.3174 H   0  0  0  0  0  0  0  0  0  0  0  0
  152.5791  138.9713  157.9743 H   0  0  0  0  0  0  0  0  0  0  0  0
  150.8271  138.8612  157.8313 H   0  0  0  0  0  0  0  0  0  0  0  0
  150.5307  144.4735  158.7895 H   0  0  0  0  0  0  0  0  0  0  0  0
  149.2551  143.7827  159.8142 H   0  0  0  0  0  0  0  0  0  0  0  0
  149.3133  143.3956  158.0828 H   0  0  0  0  0  0  0  0  0  0  0  0
  152.8658  143.1724  161.8670 H   0  0  0  0  0  0  0  0  0  0  0  0
  151.2411  143.8252  161.6801 H   0  0  0  0  0  0  0  0  0  0  0  0
  152.5246  144.3187  160.5721 H   0  0  0  0  0  0  0  0  0  0  0  0
  153.7793  141.1397  161.6742 H   0  0  0  0  0  0  0  0  0  0  0  0
  153.0200  139.5857  161.4817 H   0  0  0  0  0  0  0  0  0  0  0  0
  155.8264  141.2134  161.0388 H   0  0  0  0  0  0  0  0  0  0  0  0
  157.4340  139.2842  160.0960 H   0  0  0  0  0  0  0  0  0  0  0  0
  156.7634  139.8847  158.6001 H   0  0  0  0  0  0  0  0  0  0  0  0
  157.4721  142.2639  159.4979 H   0  0  0  0  0  0  0  0  0  0  0  0
  158.7444  142.4545  161.3175 H   0  0  0  0  0  0  0  0  0  0  0  0
  158.4105  140.7765  161.7287 H   0  0  0  0  0  0  0  0  0  0  0  0
  160.9618  141.5671  161.2141 H   0  0  0  0  0  0  0  0  0  0  0  0
  160.3945  140.0146  160.5806 H   0  0  0  0  0  0  0  0  0  0  0  0
  159.2299  140.1323  158.3074 H   0  0  0  0  0  0  0  0  0  0  0  0
  158.8249  143.0549  157.5483 H   0  0  0  0  0  0  0  0  0  0  0  0
  157.6798  140.5622  156.2236 H   0  0  0  0  0  0  0  0  0  0  0  0
  157.4736  142.2205  155.6655 H   0  0  0  0  0  0  0  0  0  0  0  0
  156.7771  141.7181  157.1990 H   0  0  0  0  0  0  0  0  0  0  0  0
  160.3193  140.8943  155.9849 H   0  0  0  0  0  0  0  0  0  0  0  0
  161.0585  142.2891  156.7644 H   0  0  0  0  0  0  0  0  0  0  0  0
  159.9674  142.5195  155.4138 H   0  0  0  0  0  0  0  0  0  0  0  0
  1  2  1  0  0  0  0
  1 22  1  0  0  0  0
  1 23  1  0  0  0  0
  1 24  1  0  0  0  0
  2  8  1  0  0  0  0
  2  3  2  0  0  0  0
  3  4  1  0  0  0  0
  4  5  1  0  0  0  0
  4  6  1  0  0  0  0
  5 25  1  0  0  0  0
  5 26  1  0  0  0  0
  5 27  1  0  0  0  0
  6  7  1  0  0  0  0
  6  8  2  0  0  0  0
  7 28  1  0  0  0  0
  7 29  1  0  0  0  0
  7 30  1  0  0  0  0
  8  9  1  0  0  0  0
  9 10  1  0  0  0  0
  9 31  1  0  0  0  0
  9 32  1  0  0  0  0
 10 11  2  0  0  0  0
 10 12  1  0  0  0  0
 12 13  1  0  0  0  0
 12 33  1  0  0  0  0
 13 14  1  0  0  0  0
 13 34  1  0  0  0  0
 13 35  1  0  0  0  0
 14 18  1  0  0  0  0
 14 15  1  0  0  0  0
 14 36  1  0  0  0  0
 15 16  1  0  0  0  0
 15 37  1  0  0  0  0
 15 38  1  0  0  0  0
 16 17  1  0  0  0  0
 16 39  1  0  0  0  0
 16 40  1  0  0  0  0
 17 18  1  0  0  0  0
 18 19  1  0  0  0  0
 18 41  1  0  0  0  0
 19 20  1  0  0  0  0
 19 21  1  0  0  0  0
 19 42  1  0  0  0  0
 20 43  1  0  0  0  0
 20 44  1  0  0  0  0
 20 45  1  0  0  0  0
 21 46  1  0  0  0  0
 21 47  1  0  0  0  0
 21 48  1  0  0  0  0
M  END
> <s_m_source_file>
AV-unprocessed.smi

> <i_m_source_file_index>
667

> <i_lp_mmshare_version>
43012

> <i_f3d_flags>
0

> <s_epik_input>
W0NIM11jMW5uKFtDSDNdKWMoW0NIM10pYzFbQ0gyXUMoPU8pW05IXVtDSDJdW0NAQEhdMltDSDJdW0NIMl1PW0NASF0yW0NIXShbQ0gzXSlbQ0gzXQ==

> <s_epik_cmdline>
J2VwaWtfcHl0aG9uJywgJy1waCcsICc3LjAnLCAnLXRuJywgJzgnLCAnLW1hJywgJzIwMCcsICctbWV0YWxfYmluZGluZycsICctaW1hZScsICc8aW5maWxlLm1hZT4nLCAnLW9tYWUnLCAnPG91dGZpbGUubWFlPic=

> <r_lp_tautomer_probability>
1

> <r_epik_Ionization_Penalty>
0.00315488

> <r_epik_Ionization_Penalty_Charging>
0

> <r_epik_Ionization_Penalty_Neutral>
0.00315488

> <r_epik_State_Penalty>
0.00222269

> <r_epik_Charging_Adjusted_Penalty>
0.00222269

> <i_epik_Tot_Q>
0

> <i_epik_Tot_abs_Q>
0

> <r_epik_Metal_State_Penalty>
-0

> <b_epik_Metal_Only>
0

> <s_lp_Force_Field>
OPLS_2005

> <r_lp_Energy>
15.0171

> <b_lp_Chiralities_Consistent>
1

> <s_lp_Variant>
AV-unprocessed.smi:667-4

> <Gold.Version>
5.8.1

> <Gold.Id.Protein>
6NUR|6NUR_protein|mol2

> <Gold.PLP.Fitness>
44.0147

> <Gold.PLP.PLP>
-41.7732

> <Gold.PLP.part.hbond>
-2.0000

> <Gold.PLP.part.metal>
0.0000

> <Gold.PLP.part.buried>
-3.6169

> <Gold.PLP.part.nonpolar>
-35.4233

> <Gold.PLP.part.repulsive>
0.1255

> <Gold.PLP.ligand.clash>
0.0000

> <Gold.PLP.ligand.torsion>
0.3943

> <Gold.PLP.Chemscore.Hbond>
1.0000

> <Gold.PLP.Chemscore.CHOScore>
0.0000

> <Gold.PLP.Chemscore.Metal>
0.0000

> <Gold.Chemscore.Hbonds>
donor molecule, donor type, donor heavy atom, donor atom, acceptor molecule, acceptor atom, score
      P1  H  7997  8008       L1    11  0.76

> <Gold.PLP.Chemscore.Internal.Correction>
0.0301

> <Gold.Rescore>
     Score         DG    S(hbond)    S(metal)    S(lipo)     H(rot)  DE(clash)    DE(int)     intcor
     14.56     -17.30       0.97        0.00     106.72       1.52       0.30       2.44       ----

> <Gold.Chemscore.Fitness>
14.5620

> <Gold.Chemscore.DG>
-17.3012

> <Gold.Chemscore.ZeroCoef>
-5.4800

> <Gold.Chemscore.Hbond>
0.9669

> <Gold.Chemscore.Metal>
0.0000

> <Gold.Chemscore.Lipo>
106.7206

> <Gold.Chemscore.Internal_Hbond>
0.0000

> <Gold.Chemscore.DEClash>
0.2969

> <Gold.Chemscore.DEInternal>
2.4422

> <Gold.Chemscore.Rot>
1.5213

> <Gold.Chemscore.Internal.Correction>
   9.000000E+99

> <Gold.Chemscore.Hbonds>
donor molecule, donor type, donor heavy atom, donor atom, acceptor molecule, acceptor atom, score
      P1  H  7997  8008       L1    11  0.46

> <Gold.Chemscore.Hbond.Weighted>
-3.2294

> <Gold.Chemscore.Metal.Weighted>
-0.0000

> <Gold.Chemscore.Lipo.Weighted>
-12.4863

> <Gold.Chemscore.Internal_Hbond.Weighted>
0.0000

> <Gold.Chemscore.DEClash.Weighted>
0.2969

> <Gold.Chemscore.DEInternal.Weighted>
2.4422

> <Gold.Chemscore.Rot.Weighted>
3.8945

> <Gold.Chemscore.Internal.Correction.Weighted>
   9.000000E+99

> <Gold.Protein.RotatedTorsions>
[ 6907 6896 6895 6894 ] final  171.23 input  -60.11 | X-H torsion
[ 7974 7965 7964 7962 ] final -174.38 input  175.53 | X-H torsion
[ 8008 7997 7996 7995 ] final -119.09 input   59.86 | X-H torsion
[ 10167 10162 10161 10158 ] final   -5.49 input  -65.29 | X-H torsion
[ 10718 10713 10712 10709 ] final  139.51 input   66.30 | X-H torsion
[ 10763 10752 10751 10750 ] final  -13.24 input  -60.55 | X-H torsion
[ 11005 11000 10999 10996 ] final -175.32 input  -57.11 | X-H torsion

> <Gold.Protein.ActiveResidues>
 VAL166  LYS551  ARG553  GLY616  TRP617  ASP618  TYR619  PRO620  LYS621  CYS622 
 ASP623  PHE694  ASN695  SER759  ASP760  ASP761  ALA762  ILE779  LEU786  VAL792 
 PHE793  MET794  SER795  GLU796  ALA797  LYS798  CYS799  TRP800  GLU811  SER814 

> <Gold.Protein.RotatedAtoms>
  151.8035  133.3373  159.3533 H   0  0  0  0  0  0  0  0  0  0  0  0  # atno 6907 bound_to 6896
  150.7350  134.5731  159.5910 H   0  0  0  0  0  0  0  0  0  0  0  0  # atno 6908 bound_to 6896
  152.3126  134.7480  160.0384 H   0  0  0  0  0  0  0  0  0  0  0  0  # atno 6909 bound_to 6896
  144.7132  140.1481  143.6386 H   0  0  0  0  0  0  0  0  0  0  0  0  # atno 7974 bound_to 7965
  155.1101  140.0397  157.2721 H   0  0  0  0  0  0  0  0  0  0  0  0  # atno 8008 bound_to 7997
  154.6692  140.2608  155.7000 H   0  0  0  0  0  0  0  0  0  0  0  0  # atno 8009 bound_to 7997
  156.2651  140.2801  156.1194 H   0  0  0  0  0  0  0  0  0  0  0  0  # atno 8010 bound_to 7997
  140.6965  143.6303  150.8529 H   0  0  0  0  0  0  0  0  0  0  0  0  # atno 10167 bound_to 10162
  157.4135  131.1031  151.0429 H   0  0  0  0  0  0  0  0  0  0  0  0  # atno 10718 bound_to 10713
  153.5103  135.7016  153.5784 H   0  0  0  0  0  0  0  0  0  0  0  0  # atno 10763 bound_to 10752
  153.3877  135.3904  155.1901 H   0  0  0  0  0  0  0  0  0  0  0  0  # atno 10764 bound_to 10752
  154.8704  135.3850  154.4582 H   0  0  0  0  0  0  0  0  0  0  0  0  # atno 10765 bound_to 10752
  140.4647  134.6222  157.4857 H   0  0  0  0  0  0  0  0  0  0  0  0  # atno 11005 bound_to 11000
  145.9141  139.2505  143.1420 LP  0  0  0  0  0  0  0  0  0  0  0  0  # atno 17320 bound_to 7965
  145.9686  140.8778  143.0174 LP  0  0  0  0  0  0  0  0  0  0  0  0  # atno 17321 bound_to 7965
  140.0021  143.5733  152.2871 LP  0  0  0  0  0  0  0  0  0  0  0  0  # atno 17342 bound_to 10162
  139.6426  144.7656  151.2308 LP  0  0  0  0  0  0  0  0  0  0  0  0  # atno 17343 bound_to 10162
  157.1384  130.6132  149.5548 LP  0  0  0  0  0  0  0  0  0  0  0  0  # atno 17370 bound_to 10713
  155.9858  130.4890  150.7049 LP  0  0  0  0  0  0  0  0  0  0  0  0  # atno 17371 bound_to 10713
  139.9923  134.6966  155.9668 LP  0  0  0  0  0  0  0  0  0  0  0  0  # atno 17394 bound_to 11000
  141.1605  133.6539  156.4303 LP  0  0  0  0  0  0  0  0  0  0  0  0  # atno 17395 bound_to 11000

$$$$
