AV-unprocessed.smi:1487|AV-procd|sdf|6019|dock6
  -GOLD-   22720 6123D 1   1.00000     0.00000
 Structure written by MMmdl.
 49 51  0  0  0  0  0  0  0  0  3 V2000
  152.7856  142.7983  160.9749 C   0  0  0  0  0  0  0  0  0  0  0  0
  152.3752  142.1571  159.6601 C   0  0  0  0  0  0  0  0  0  0  0  0
  151.5013  142.8677  158.8069 C   0  0  0  0  0  0  0  0  0  0  0  0
  151.1448  142.2554  157.6115 C   0  0  0  0  0  0  0  0  0  0  0  0
  150.3146  142.6881  156.5756 N   0  3  0  0  0  0  0  0  0  0  0  0
  150.2678  141.7369  155.6024 C   0  0  0  0  0  0  0  0  0  0  0  0
  151.0554  140.7013  156.0015 N   0  0  0  0  0  0  0  0  0  0  0  0
  151.3547  139.4339  155.3181 C   0  0  0  0  0  0  0  0  0  0  0  0
  150.0985  138.5782  155.0628 C   0  0  2  0  0  0  0  0  0  0  0  0
  150.4686  137.3709  154.4259 O   0  0  0  0  0  0  0  0  0  0  0  0
  149.0817  139.3130  154.1670 C   0  0  0  0  0  0  0  0  0  0  0  0
  148.0664  138.3957  153.5892 N   0  3  1  0  0  0  0  0  0  0  0  0
  147.3438  137.5971  154.6144 C   0  0  0  0  0  0  0  0  0  0  0  0
  146.4334  136.5492  153.9556 C   0  0  0  0  0  0  0  0  0  0  0  0
  145.4392  137.2124  152.9921 C   0  0  0  0  0  0  0  0  0  0  0  0
  146.1690  138.1073  151.9763 C   0  0  2  0  0  0  0  0  0  0  0  0
  146.8896  137.3186  151.0500 O   0  0  0  0  0  0  0  0  0  0  0  0
  147.1285  139.0939  152.6708 C   0  0  0  0  0  0  0  0  0  0  0  0
  151.6251  140.9813  157.2503 C   0  0  0  0  0  0  0  0  0  0  0  0
  152.4858  140.2670  158.0809 C   0  0  0  0  0  0  0  0  0  0  0  0
  152.8617  140.8735  159.3009 C   0  0  0  0  0  0  0  0  0  0  0  0
  153.8006  140.1176  160.2258 C   0  0  0  0  0  0  0  0  0  0  0  0
  152.2826  143.7536  161.1273 H   0  0  0  0  0  0  0  0  0  0  0  0
  153.8604  142.9803  160.9914 H   0  0  0  0  0  0  0  0  0  0  0  0
  152.5303  142.1516  161.8146 H   0  0  0  0  0  0  0  0  0  0  0  0
  151.1267  143.8455  159.0735 H   0  0  0  0  0  0  0  0  0  0  0  0
  149.7075  141.7956  154.6802 H   0  0  0  0  0  0  0  0  0  0  0  0
  151.8263  139.6886  154.3680 H   0  0  0  0  0  0  0  0  0  0  0  0
  152.1028  138.8830  155.8887 H   0  0  0  0  0  0  0  0  0  0  0  0
  149.6507  138.3288  156.0243 H   0  0  0  0  0  0  0  0  0  0  0  0
  150.2884  136.6531  155.0142 H   0  0  0  0  0  0  0  0  0  0  0  0
  148.5756  140.1019  154.7254 H   0  0  0  0  0  0  0  0  0  0  0  0
  149.6294  139.8145  153.3671 H   0  0  0  0  0  0  0  0  0  0  0  0
  148.0503  137.0881  155.2691 H   0  0  0  0  0  0  0  0  0  0  0  0
  146.7535  138.2622  155.2469 H   0  0  0  0  0  0  0  0  0  0  0  0
  147.0417  135.8210  153.4175 H   0  0  0  0  0  0  0  0  0  0  0  0
  145.8923  135.9919  154.7206 H   0  0  0  0  0  0  0  0  0  0  0  0
  144.8407  136.4573  152.4809 H   0  0  0  0  0  0  0  0  0  0  0  0
  144.7392  137.8210  153.5662 H   0  0  0  0  0  0  0  0  0  0  0  0
  145.4320  138.6717  151.4042 H   0  0  0  0  0  0  0  0  0  0  0  0
  147.3782  136.6639  151.5262 H   0  0  0  0  0  0  0  0  0  0  0  0
  146.5552  139.8270  153.2404 H   0  0  0  0  0  0  0  0  0  0  0  0
  147.6866  139.6504  151.9163 H   0  0  0  0  0  0  0  0  0  0  0  0
  152.8537  139.2874  157.8141 H   0  0  0  0  0  0  0  0  0  0  0  0
  154.1248  139.1753  159.7830 H   0  0  0  0  0  0  0  0  0  0  0  0
  153.3047  139.8895  161.1695 H   0  0  0  0  0  0  0  0  0  0  0  0
  154.6922  140.7089  160.4361 H   0  0  0  0  0  0  0  0  0  0  0  0
  148.5769  137.7425  153.0112 H   0  0  0  0  0  0  0  0  0  0  0  0
  149.8172  143.5688  156.5330 H   0  0  0  0  0  0  0  0  0  0  0  0
  1  2  1  0  0  0  0
  1 23  1  0  0  0  0
  1 24  1  0  0  0  0
  1 25  1  0  0  0  0
  2 21  1  0  0  0  0
  2  3  2  0  0  0  0
  3  4  1  0  0  0  0
  3 26  1  0  0  0  0
  4 19  2  0  0  0  0
  4  5  1  0  0  0  0
  5  6  2  0  0  0  0
  5 49  1  0  0  0  0
  6  7  1  0  0  0  0
  6 27  1  0  0  0  0
  7  8  1  0  0  0  0
  7 19  1  0  0  0  0
  8  9  1  0  0  0  0
  8 28  1  0  0  0  0
  8 29  1  0  0  0  0
  9 10  1  0  0  0  0
  9 11  1  0  0  0  0
  9 30  1  0  0  0  0
 10 31  1  0  0  0  0
 11 12  1  0  0  0  0
 11 32  1  0  0  0  0
 11 33  1  0  0  0  0
 12 18  1  0  0  0  0
 12 13  1  0  0  0  0
 12 48  1  0  0  0  0
 13 14  1  0  0  0  0
 13 34  1  0  0  0  0
 13 35  1  0  0  0  0
 14 15  1  0  0  0  0
 14 36  1  0  0  0  0
 14 37  1  0  0  0  0
 15 16  1  0  0  0  0
 15 38  1  0  0  0  0
 15 39  1  0  0  0  0
 16 17  1  0  0  0  0
 16 18  1  0  0  0  0
 16 40  1  0  0  0  0
 17 41  1  0  0  0  0
 18 42  1  0  0  0  0
 18 43  1  0  0  0  0
 19 20  1  0  0  0  0
 20 21  2  0  0  0  0
 20 44  1  0  0  0  0
 21 22  1  0  0  0  0
 22 45  1  0  0  0  0
 22 46  1  0  0  0  0
 22 47  1  0  0  0  0
M  CHG  1   5   1
M  CHG  1  12   1
M  END
> <s_m_source_file>
AV-unprocessed.smi

> <i_m_source_file_index>
1487

> <i_lp_mmshare_version>
43012

> <i_f3d_flags>
0

> <s_epik_input>
W0NIM11jKFtjSF0xKWMoW0NIM10pW2NIXWMoYzEyKW4oW2NIXW4yKVtDSDJdW0NASF0oW09IXSlbQ0gyXU4zW0NIMl1bQ0gyXVtDSDJdW0NAQEhdKFtPSF0pW0NIMl0z

> <s_epik_cmdline>
J2VwaWtfcHl0aG9uJywgJy1waCcsICc3LjAnLCAnLXRuJywgJzgnLCAnLW1hJywgJzIwMCcsICctbWV0YWxfYmluZGluZycsICctaW1hZScsICc8aW5maWxlLm1hZT4nLCAnLW9tYWUnLCAnPG91dGZpbGUubWFlPic=

> <r_epik_Ionization_Penalty>
1.1857

> <r_epik_Ionization_Penalty_Charging>
1.1857

> <r_epik_Ionization_Penalty_Neutral>
1.75578e-06

> <r_epik_State_Penalty>
1.26953

> <r_epik_Charging_Adjusted_Penalty>
2.45524

> <i_epik_Tot_Q>
2

> <i_epik_Tot_abs_Q>
2

> <r_epik_Metal_State_Penalty>
5.28243

> <b_epik_Metal_Only>
0

> <s_lp_Force_Field>
OPLS_2005

> <r_lp_Energy>
30.6325

> <b_lp_Chiralities_Consistent>
1

> <s_lp_Variant>
AV-unprocessed.smi:1487-13

> <Gold.Version>
5.8.1

> <Gold.Id.Protein>
6NUR|6NUR_protein|mol2

> <Gold.PLP.Fitness>
60.3881

> <Gold.PLP.PLP>
-43.5008

> <Gold.PLP.part.hbond>
-4.4033

> <Gold.PLP.part.metal>
0.0000

> <Gold.PLP.part.buried>
-2.3899

> <Gold.PLP.part.nonpolar>
-36.1163

> <Gold.PLP.part.repulsive>
0.0805

> <Gold.PLP.ligand.clash>
0.0000

> <Gold.PLP.ligand.torsion>
0.1491

> <Gold.PLP.Chemscore.Hbond>
5.7180

> <Gold.PLP.Chemscore.CHOScore>
0.0000

> <Gold.PLP.Chemscore.Metal>
0.0000

> <Gold.Chemscore.Hbonds>
donor molecule, donor type, donor heavy atom, donor atom, acceptor molecule, acceptor atom, score
      L1  H     5    49       P1  8028  2.00
      L1  H    12    48       P1  7948  2.00
      L1  H    17    41       P1  7948  0.78
      P1  H  7954  7966       L1    17  0.95

> <Gold.PLP.Chemscore.Internal.Correction>
0.0315

> <Gold.Rescore>
     Score         DG    S(hbond)    S(metal)    S(lipo)     H(rot)  DE(clash)    DE(int)     intcor
     21.33     -21.78       3.08        0.00     111.31       2.74       0.28       0.17       ----

> <Gold.Chemscore.Fitness>
21.3347

> <Gold.Chemscore.DG>
-21.7835

> <Gold.Chemscore.ZeroCoef>
-5.4800

> <Gold.Chemscore.Hbond>
3.0811

> <Gold.Chemscore.Metal>
0.0000

> <Gold.Chemscore.Lipo>
111.3084

> <Gold.Chemscore.Internal_Hbond>
0.0000

> <Gold.Chemscore.DEClash>
0.2825

> <Gold.Chemscore.DEInternal>
0.1663

> <Gold.Chemscore.Rot>
2.7384

> <Gold.Chemscore.Internal.Correction>
   9.000000E+99

> <Gold.Chemscore.Hbonds>
donor molecule, donor type, donor heavy atom, donor atom, acceptor molecule, acceptor atom, score
      L1  H     5    49       P1  8028  0.95
      L1  H    12    48       P1  7948  0.99
      L1  H    17    41       P1  7948  0.77
      P1  H  7954  7966       L1    17  0.22

> <Gold.Chemscore.Hbond.Weighted>
-10.2907

> <Gold.Chemscore.Metal.Weighted>
-0.0000

> <Gold.Chemscore.Lipo.Weighted>
-13.0231

> <Gold.Chemscore.Internal_Hbond.Weighted>
0.0000

> <Gold.Chemscore.DEClash.Weighted>
0.2825

> <Gold.Chemscore.DEInternal.Weighted>
0.1663

> <Gold.Chemscore.Rot.Weighted>
7.0103

> <Gold.Chemscore.Internal.Correction.Weighted>
   9.000000E+99

> <Gold.Protein.RotatedTorsions>
[ 6907 6896 6895 6894 ] final  -92.78 input  -60.11 | X-H torsion
[ 7974 7965 7964 7962 ] final  -76.92 input  175.53 | X-H torsion
[ 8008 7997 7996 7995 ] final -145.85 input   59.86 | X-H torsion
[ 10167 10162 10161 10158 ] final   93.32 input  -65.29 | X-H torsion
[ 10718 10713 10712 10709 ] final  125.45 input   66.30 | X-H torsion
[ 10763 10752 10751 10750 ] final -158.95 input  -60.55 | X-H torsion
[ 11005 11000 10999 10996 ] final   -9.49 input  -57.11 | X-H torsion

> <Gold.Protein.ActiveResidues>
 VAL166  LYS551  ARG553  GLY616  TRP617  ASP618  TYR619  PRO620  LYS621  CYS622 
 ASP623  PHE694  ASN695  SER759  ASP760  ASP761  ALA762  ILE779  LEU786  VAL792 
 PHE793  MET794  SER795  GLU796  ALA797  LYS798  CYS799  TRP800  GLU811  SER814 

> <Gold.Protein.RotatedAtoms>
  150.6911  134.2069  159.4343 H   0  0  0  0  0  0  0  0  0  0  0  0  # atno 6907 bound_to 6896
  152.0032  134.9914  160.0575 H   0  0  0  0  0  0  0  0  0  0  0  0  # atno 6908 bound_to 6896
  152.1559  133.4516  159.4873 H   0  0  0  0  0  0  0  0  0  0  0  0  # atno 6909 bound_to 6896
  145.6066  140.9396  143.1212 H   0  0  0  0  0  0  0  0  0  0  0  0  # atno 7974 bound_to 7965
  155.5498  140.0615  157.2852 H   0  0  0  0  0  0  0  0  0  0  0  0  # atno 8008 bound_to 7997
  154.4424  140.1904  156.0719 H   0  0  0  0  0  0  0  0  0  0  0  0  # atno 8009 bound_to 7997
  156.0524  140.3282  155.7370 H   0  0  0  0  0  0  0  0  0  0  0  0  # atno 8010 bound_to 7997
  139.8192  144.6739  150.9541 H   0  0  0  0  0  0  0  0  0  0  0  0  # atno 10167 bound_to 10162
  157.5502  131.1094  150.8715 H   0  0  0  0  0  0  0  0  0  0  0  0  # atno 10718 bound_to 10713
  154.7515  135.3093  154.8549 H   0  0  0  0  0  0  0  0  0  0  0  0  # atno 10763 bound_to 10752
  153.9335  135.6782  153.4749 H   0  0  0  0  0  0  0  0  0  0  0  0  # atno 10764 bound_to 10752
  153.1111  135.4866  154.8965 H   0  0  0  0  0  0  0  0  0  0  0  0  # atno 10765 bound_to 10752
  140.7347  133.8720  155.8920 H   0  0  0  0  0  0  0  0  0  0  0  0  # atno 11005 bound_to 11000
  144.7287  139.7792  143.7355 LP  0  0  0  0  0  0  0  0  0  0  0  0  # atno 17320 bound_to 7965
  146.1536  139.4627  143.0033 LP  0  0  0  0  0  0  0  0  0  0  0  0  # atno 17321 bound_to 7965
  140.7814  143.4109  151.0995 LP  0  0  0  0  0  0  0  0  0  0  0  0  # atno 17342 bound_to 10162
  139.7770  143.8410  152.3131 LP  0  0  0  0  0  0  0  0  0  0  0  0  # atno 17343 bound_to 10162
  156.9242  130.5326  149.5279 LP  0  0  0  0  0  0  0  0  0  0  0  0  # atno 17370 bound_to 10713
  156.0570  130.5630  150.9112 LP  0  0  0  0  0  0  0  0  0  0  0  0  # atno 17371 bound_to 10713
  140.9890  134.1304  157.4425 LP  0  0  0  0  0  0  0  0  0  0  0  0  # atno 17394 bound_to 11000
  139.8819  135.0034  156.6188 LP  0  0  0  0  0  0  0  0  0  0  0  0  # atno 17395 bound_to 11000

$$$$
