AV-unprocessed.smi:2107|AV-procd|sdf|8602|dock5
  -GOLD-   2272011343D 1   1.00000     0.00000
 Structure written by MMmdl.
 45 46  0  0  0  0  0  0  0  0  2 V2000
  153.6915  136.9008  163.7664 C   0  0  0  0  0  0  0  0  0  0  0  0
  154.2998  136.3994  162.4484 C   0  0  0  0  0  0  0  0  0  0  0  0
  154.7049  137.5028  161.5546 N   0  0  0  0  0  0  0  0  0  0  0  0
  155.6291  138.5156  162.1051 C   0  0  0  0  0  0  0  0  0  0  0  0
  156.9568  138.5987  161.3372 C   0  0  0  0  0  0  0  0  0  0  0  0
  154.2989  137.4750  159.8553 S   0  0  0  0  0  0  0  0  0  0  0  0
  155.5644  137.1953  159.1592 O   0  0  0  0  0  0  0  0  0  0  0  0
  153.2102  136.4937  159.7022 O   0  0  0  0  0  0  0  0  0  0  0  0
  153.8506  139.0324  159.6824 N   0  5  0  0  0  0  0  0  0  0  0  0
  152.4695  139.4171  159.4282 C   0  0  0  0  0  0  0  0  0  0  0  0
  152.3324  140.9361  159.2553 C   0  0  0  0  0  0  0  0  0  0  0  0
  152.8619  141.7683  160.2720 C   0  0  0  0  0  0  0  0  0  0  0  0
  152.7596  143.1659  160.1561 C   0  0  0  0  0  0  0  0  0  0  0  0
  152.1248  143.6934  159.0208 C   0  0  0  0  0  0  0  0  0  0  0  0
  151.6117  142.9249  158.0406 N   0  0  0  0  0  0  0  0  0  0  0  0
  151.6998  141.5734  158.1386 C   0  0  0  0  0  0  0  0  0  0  0  0
  151.1327  140.8557  157.0626 N   0  0  0  0  0  0  0  0  0  0  0  0
  150.4865  141.7001  156.0636 C   0  0  0  0  0  0  0  0  0  0  0  0
  149.8151  140.8334  154.9838 C   0  0  0  0  0  0  0  0  0  0  0  0
  150.7732  139.9449  154.4163 O   0  0  0  0  0  0  0  0  0  0  0  0
  151.3260  139.0643  155.3903 C   0  0  0  0  0  0  0  0  0  0  0  0
  152.0457  139.8823  156.4759 C   0  0  0  0  0  0  0  0  0  0  0  0
  153.3256  136.0654  164.3628 H   0  0  0  0  0  0  0  0  0  0  0  0
  152.8547  137.5754  163.5932 H   0  0  0  0  0  0  0  0  0  0  0  0
  154.4283  137.4315  164.3691 H   0  0  0  0  0  0  0  0  0  0  0  0
  155.1707  135.7791  162.6601 H   0  0  0  0  0  0  0  0  0  0  0  0
  153.5914  135.7501  161.9334 H   0  0  0  0  0  0  0  0  0  0  0  0
  155.1482  139.4934  162.0956 H   0  0  0  0  0  0  0  0  0  0  0  0
  155.8225  138.2817  163.1520 H   0  0  0  0  0  0  0  0  0  0  0  0
  157.5695  139.4151  161.7190 H   0  0  0  0  0  0  0  0  0  0  0  0
  156.7890  138.7829  160.2782 H   0  0  0  0  0  0  0  0  0  0  0  0
  157.5408  137.6835  161.4302 H   0  0  0  0  0  0  0  0  0  0  0  0
  152.0806  138.9450  158.5254 H   0  0  0  0  0  0  0  0  0  0  0  0
  151.8014  139.0924  160.2255 H   0  0  0  0  0  0  0  0  0  0  0  0
  153.3481  141.3580  161.1473 H   0  0  0  0  0  0  0  0  0  0  0  0
  153.1573  143.8156  160.9214 H   0  0  0  0  0  0  0  0  0  0  0  0
  152.0263  144.7612  158.8948 H   0  0  0  0  0  0  0  0  0  0  0  0
  149.7456  142.3378  156.5474 H   0  0  0  0  0  0  0  0  0  0  0  0
  151.2232  142.3556  155.5978 H   0  0  0  0  0  0  0  0  0  0  0  0
  148.9805  140.2663  155.3958 H   0  0  0  0  0  0  0  0  0  0  0  0
  149.4078  141.4668  154.1962 H   0  0  0  0  0  0  0  0  0  0  0  0
  150.5414  138.4433  155.8242 H   0  0  0  0  0  0  0  0  0  0  0  0
  152.0291  138.3905  154.9009 H   0  0  0  0  0  0  0  0  0  0  0  0
  152.9044  140.3957  156.0412 H   0  0  0  0  0  0  0  0  0  0  0  0
  152.4248  139.2192  157.2543 H   0  0  0  0  0  0  0  0  0  0  0  0
  1  2  1  0  0  0  0
  1 23  1  0  0  0  0
  1 24  1  0  0  0  0
  1 25  1  0  0  0  0
  2  3  1  0  0  0  0
  2 26  1  0  0  0  0
  2 27  1  0  0  0  0
  3  4  1  0  0  0  0
  3  6  1  0  0  0  0
  4  5  1  0  0  0  0
  4 28  1  0  0  0  0
  4 29  1  0  0  0  0
  5 30  1  0  0  0  0
  5 31  1  0  0  0  0
  5 32  1  0  0  0  0
  6  7  2  0  0  0  0
  6  8  2  0  0  0  0
  6  9  1  0  0  0  0
  9 10  1  0  0  0  0
 10 11  1  0  0  0  0
 10 33  1  0  0  0  0
 10 34  1  0  0  0  0
 11 16  1  0  0  0  0
 11 12  2  0  0  0  0
 12 13  1  0  0  0  0
 12 35  1  0  0  0  0
 13 14  2  0  0  0  0
 13 36  1  0  0  0  0
 14 15  1  0  0  0  0
 14 37  1  0  0  0  0
 15 16  2  0  0  0  0
 16 17  1  0  0  0  0
 17 22  1  0  0  0  0
 17 18  1  0  0  0  0
 18 19  1  0  0  0  0
 18 38  1  0  0  0  0
 18 39  1  0  0  0  0
 19 20  1  0  0  0  0
 19 40  1  0  0  0  0
 19 41  1  0  0  0  0
 20 21  1  0  0  0  0
 21 22  1  0  0  0  0
 21 42  1  0  0  0  0
 21 43  1  0  0  0  0
 22 44  1  0  0  0  0
 22 45  1  0  0  0  0
M  CHG  1   9  -1
M  END
> <s_m_source_file>
AV-unprocessed.smi

> <i_m_source_file_index>
2107

> <i_lp_mmshare_version>
43012

> <i_f3d_flags>
0

> <s_epik_input>
W0NIM11bQ0gyXU4oW0NIMl1bQ0gzXSlTKD1PKSg9TylbTkhdW0NIMl1jMVtjSF1bY0hdW2NIXW5jMU4yW0NIMl1bQ0gyXU9bQ0gyXVtDSDJdMg==

> <s_epik_cmdline>
J2VwaWtfcHl0aG9uJywgJy1waCcsICc3LjAnLCAnLXRuJywgJzgnLCAnLW1hJywgJzIwMCcsICctbWV0YWxfYmluZGluZycsICctaW1hZScsICc8aW5maWxlLm1hZT4nLCAnLW9tYWUnLCAnPG91dGZpbGUubWFlPic=

> <r_lp_tautomer_probability>
1

> <r_epik_Ionization_Penalty>
2.49252

> <r_epik_Ionization_Penalty_Charging>
2.41478

> <r_epik_Ionization_Penalty_Neutral>
0.0777344

> <r_epik_State_Penalty>
2.68884

> <r_epik_Charging_Adjusted_Penalty>
5.10362

> <i_epik_Tot_Q>
-1

> <i_epik_Tot_abs_Q>
1

> <r_epik_Metal_State_Penalty>
0.584574

> <b_epik_Metal_Only>
0

> <s_lp_Force_Field>
OPLS_2005

> <r_lp_Energy>
22.2252

> <b_lp_Chiralities_Consistent>
1

> <s_lp_Variant>
AV-unprocessed.smi:2107-3

> <Gold.Version>
5.8.1

> <Gold.Id.Protein>
6NUR|6NUR_protein|mol2

> <Gold.PLP.Fitness>
47.0750

> <Gold.PLP.PLP>
-41.3229

> <Gold.PLP.part.hbond>
-2.0000

> <Gold.PLP.part.metal>
0.0000

> <Gold.PLP.part.buried>
-5.0400

> <Gold.PLP.part.nonpolar>
-34.6523

> <Gold.PLP.part.repulsive>
0.1764

> <Gold.PLP.ligand.clash>
0.0000

> <Gold.PLP.ligand.torsion>
1.8340

> <Gold.PLP.Chemscore.Hbond>
2.0000

> <Gold.PLP.Chemscore.CHOScore>
0.0000

> <Gold.PLP.Chemscore.Metal>
0.0000

> <Gold.Chemscore.Hbonds>
donor molecule, donor type, donor heavy atom, donor atom, acceptor molecule, acceptor atom, score
      P1  H  6896  6909       L1     8  1.00
      P1  H  7989  7998       L1    20  1.00

> <Gold.PLP.Chemscore.Internal.Correction>
3.4201

> <Gold.Rescore>
     Score         DG    S(hbond)    S(metal)    S(lipo)     H(rot)  DE(clash)    DE(int)     intcor
     16.08     -19.11       1.95        0.00      97.28       1.66       0.07       2.95       ----

> <Gold.Chemscore.Fitness>
16.0841

> <Gold.Chemscore.DG>
-19.1092

> <Gold.Chemscore.ZeroCoef>
-5.4800

> <Gold.Chemscore.Hbond>
1.9483

> <Gold.Chemscore.Metal>
0.0000

> <Gold.Chemscore.Lipo>
97.2839

> <Gold.Chemscore.Internal_Hbond>
0.0000

> <Gold.Chemscore.DEClash>
0.0727

> <Gold.Chemscore.DEInternal>
2.9523

> <Gold.Chemscore.Rot>
1.6642

> <Gold.Chemscore.Internal.Correction>
   9.000000E+99

> <Gold.Chemscore.Hbonds>
donor molecule, donor type, donor heavy atom, donor atom, acceptor molecule, acceptor atom, score
      P1  H  6896  6909       L1     8  1.00
      P1  H  7989  7998       L1    20  0.43

> <Gold.Chemscore.Hbond.Weighted>
-6.5074

> <Gold.Chemscore.Metal.Weighted>
-0.0000

> <Gold.Chemscore.Lipo.Weighted>
-11.3822

> <Gold.Chemscore.Internal_Hbond.Weighted>
0.0000

> <Gold.Chemscore.DEClash.Weighted>
0.0727

> <Gold.Chemscore.DEInternal.Weighted>
2.9523

> <Gold.Chemscore.Rot.Weighted>
4.2604

> <Gold.Chemscore.Internal.Correction.Weighted>
   9.000000E+99

> <Gold.Protein.RotatedTorsions>
[ 6907 6896 6895 6894 ] final  161.47 input  -60.11 | X-H torsion
[ 7974 7965 7964 7962 ] final  -95.67 input  175.53 | X-H torsion
[ 8008 7997 7996 7995 ] final -114.34 input   59.86 | X-H torsion
[ 10167 10162 10161 10158 ] final   23.79 input  -65.29 | X-H torsion
[ 10718 10713 10712 10709 ] final   63.44 input   66.30 | X-H torsion
[ 10763 10752 10751 10750 ] final -175.19 input  -60.55 | X-H torsion
[ 11005 11000 10999 10996 ] final   24.20 input  -57.11 | X-H torsion

> <Gold.Protein.ActiveResidues>
 VAL166  LYS551  ARG553  GLY616  TRP617  ASP618  TYR619  PRO620  LYS621  CYS622 
 ASP623  PHE694  ASN695  SER759  ASP760  ASP761  ALA762  ILE779  LEU786  VAL792 
 PHE793  MET794  SER795  GLU796  ALA797  LYS798  CYS799  TRP800  GLU811  SER814 

> <Gold.Protein.RotatedAtoms>
  151.9550  133.3677  159.4013 H   0  0  0  0  0  0  0  0  0  0  0  0  # atno 6907 bound_to 6896
  150.6974  134.4300  159.5253 H   0  0  0  0  0  0  0  0  0  0  0  0  # atno 6908 bound_to 6896
  152.1979  134.8614  160.0561 H   0  0  0  0  0  0  0  0  0  0  0  0  # atno 6909 bound_to 6896
  145.3570  140.9486  143.2522 H   0  0  0  0  0  0  0  0  0  0  0  0  # atno 7974 bound_to 7965
  155.0348  140.0392  157.2488 H   0  0  0  0  0  0  0  0  0  0  0  0  # atno 8008 bound_to 7997
  154.7266  140.2722  155.6470 H   0  0  0  0  0  0  0  0  0  0  0  0  # atno 8009 bound_to 7997
  156.2830  140.2692  156.1953 H   0  0  0  0  0  0  0  0  0  0  0  0  # atno 8010 bound_to 7997
  140.5240  143.9954  150.6431 H   0  0  0  0  0  0  0  0  0  0  0  0  # atno 10167 bound_to 10162
  157.5971  130.9105  149.9716 H   0  0  0  0  0  0  0  0  0  0  0  0  # atno 10718 bound_to 10713
  154.5874  135.2842  155.0671 H   0  0  0  0  0  0  0  0  0  0  0  0  # atno 10763 bound_to 10752
  154.1984  135.6428  153.5084 H   0  0  0  0  0  0  0  0  0  0  0  0  # atno 10764 bound_to 10752
  153.0109  135.5463  154.6548 H   0  0  0  0  0  0  0  0  0  0  0  0  # atno 10765 bound_to 10752
  140.3613  134.2122  155.7672 H   0  0  0  0  0  0  0  0  0  0  0  0  # atno 11005 bound_to 11000
  144.8675  139.5087  143.6783 LP  0  0  0  0  0  0  0  0  0  0  0  0  # atno 17320 bound_to 7965
  146.2943  139.7232  142.9138 LP  0  0  0  0  0  0  0  0  0  0  0  0  # atno 17321 bound_to 7965
  140.3311  143.3077  152.0686 LP  0  0  0  0  0  0  0  0  0  0  0  0  # atno 17342 bound_to 10162
  139.4932  144.6508  151.6678 LP  0  0  0  0  0  0  0  0  0  0  0  0  # atno 17343 bound_to 10162
  156.1036  130.3654  150.0173 LP  0  0  0  0  0  0  0  0  0  0  0  0  # atno 17370 bound_to 10713
  156.8284  130.9384  151.3638 LP  0  0  0  0  0  0  0  0  0  0  0  0  # atno 17371 bound_to 10713
  141.1983  133.8038  157.0588 LP  0  0  0  0  0  0  0  0  0  0  0  0  # atno 17394 bound_to 11000
  140.0624  134.9747  157.1328 LP  0  0  0  0  0  0  0  0  0  0  0  0  # atno 17395 bound_to 11000

$$$$
