AV-unprocessed.smi:438|AV-procd|sdf|2568|dock3
  -GOLD-   2262022543D 1   1.00000     0.00000
 Structure written by MMmdl.
 48 49  0  0  0  0  0  0  0  0  1 V2000
  147.1372  133.0344  159.8250 C   0  0  0  0  0  0  0  0  0  0  0  0
  147.4305  134.4093  160.3983 C   0  0  0  0  0  0  0  0  0  0  0  0
  147.9721  135.3043  159.4937 N   0  0  0  0  0  0  0  0  0  0  0  0
  148.2185  136.6058  159.9019 C   0  0  0  0  0  0  0  0  0  0  0  0
  148.8318  137.5885  158.4984 S   0  0  0  0  0  0  0  0  0  0  0  0
  150.0880  136.4975  157.7632 C   0  0  0  0  0  0  0  0  0  0  0  0
  150.8852  137.1969  156.6628 C   0  0  0  0  0  0  0  0  0  0  0  0
  151.6417  136.5459  155.9429 O   0  0  0  0  0  0  0  0  0  0  0  0
  150.6861  138.5166  156.5259 N   0  0  0  0  0  0  0  0  0  0  0  0
  151.2535  139.3621  155.4762 C   0  0  1  0  0  0  0  0  0  0  0  0
  150.6143  139.0343  154.1083 C   0  0  0  0  0  0  0  0  0  0  0  0
  149.1435  139.4793  154.0326 C   0  0  0  0  0  0  0  0  0  0  0  0
  149.0021  140.9730  154.3581 C   0  0  0  0  0  0  0  0  0  0  0  0
  149.6176  141.3091  155.7256 C   0  0  0  0  0  0  0  0  0  0  0  0
  151.0922  140.8646  155.8173 C   0  0  1  0  0  0  0  0  0  0  0  0
  151.7075  141.2367  157.1773 C   0  0  0  0  0  0  0  0  0  0  0  0
  148.0185  137.0276  161.1158 N   0  0  0  0  0  0  0  0  0  0  0  0
  147.5188  136.1529  162.0915 C   0  0  0  0  0  0  0  0  0  0  0  0
  147.3605  136.5351  163.2500 O   0  0  0  0  0  0  0  0  0  0  0  0
  147.1804  134.7750  161.6787 C   0  0  0  0  0  0  0  0  0  0  0  0
  146.5776  133.8330  162.7167 C   0  0  0  0  0  0  0  0  0  0  0  0
  145.1429  133.4204  162.3564 C   0  0  0  0  0  0  0  0  0  0  0  0
  144.2778  134.5260  162.4946 O   0  0  0  0  0  0  0  0  0  0  0  0
  146.0860  132.7812  159.9657 H   0  0  0  0  0  0  0  0  0  0  0  0
  147.7453  132.2779  160.3216 H   0  0  0  0  0  0  0  0  0  0  0  0
  147.3532  132.9889  158.7568 H   0  0  0  0  0  0  0  0  0  0  0  0
  149.5749  135.6408  157.3254 H   0  0  0  0  0  0  0  0  0  0  0  0
  150.7516  136.0987  158.5313 H   0  0  0  0  0  0  0  0  0  0  0  0
  150.0448  138.9626  157.1661 H   0  0  0  0  0  0  0  0  0  0  0  0
  152.3223  139.1500  155.4123 H   0  0  0  0  0  0  0  0  0  0  0  0
  151.1783  139.5381  153.3224 H   0  0  0  0  0  0  0  0  0  0  0  0
  150.6914  137.9675  153.8951 H   0  0  0  0  0  0  0  0  0  0  0  0
  148.7456  139.2778  153.0379 H   0  0  0  0  0  0  0  0  0  0  0  0
  148.5411  138.8930  154.7268 H   0  0  0  0  0  0  0  0  0  0  0  0
  149.4929  141.5628  153.5830 H   0  0  0  0  0  0  0  0  0  0  0  0
  147.9504  141.2579  154.3431 H   0  0  0  0  0  0  0  0  0  0  0  0
  149.5403  142.3821  155.9038 H   0  0  0  0  0  0  0  0  0  0  0  0
  149.0396  140.8278  156.5134 H   0  0  0  0  0  0  0  0  0  0  0  0
  151.6437  141.4240  155.0600 H   0  0  0  0  0  0  0  0  0  0  0  0
  151.1764  140.7644  158.0043 H   0  0  0  0  0  0  0  0  0  0  0  0
  151.6726  142.3142  157.3390 H   0  0  0  0  0  0  0  0  0  0  0  0
  152.7520  140.9297  157.2331 H   0  0  0  0  0  0  0  0  0  0  0  0
  148.1306  134.9874  158.5478 H   0  0  0  0  0  0  0  0  0  0  0  0
  146.5971  134.3125  163.6967 H   0  0  0  0  0  0  0  0  0  0  0  0
  147.1957  132.9416  162.8211 H   0  0  0  0  0  0  0  0  0  0  0  0
  145.0891  133.0594  161.3292 H   0  0  0  0  0  0  0  0  0  0  0  0
  144.7983  132.6142  163.0050 H   0  0  0  0  0  0  0  0  0  0  0  0
  144.7050  135.2895  162.1371 H   0  0  0  0  0  0  0  0  0  0  0  0
  1 24  1  0  0  0  0
  1 25  1  0  0  0  0
  1 26  1  0  0  0  0
  1  2  1  0  0  0  0
  2 20  2  0  0  0  0
  2  3  1  0  0  0  0
  3  4  1  0  0  0  0
  3 43  1  0  0  0  0
  4  5  1  0  0  0  0
  4 17  2  0  0  0  0
  5  6  1  0  0  0  0
  6  7  1  0  0  0  0
  6 27  1  0  0  0  0
  6 28  1  0  0  0  0
  7  8  2  0  0  0  0
  7  9  1  0  0  0  0
  9 10  1  0  0  0  0
  9 29  1  0  0  0  0
 10 15  1  0  0  0  0
 10 11  1  0  0  0  0
 10 30  1  0  0  0  0
 11 12  1  0  0  0  0
 11 31  1  0  0  0  0
 11 32  1  0  0  0  0
 12 13  1  0  0  0  0
 12 33  1  0  0  0  0
 12 34  1  0  0  0  0
 13 14  1  0  0  0  0
 13 35  1  0  0  0  0
 13 36  1  0  0  0  0
 14 15  1  0  0  0  0
 14 37  1  0  0  0  0
 14 38  1  0  0  0  0
 15 16  1  0  0  0  0
 15 39  1  0  0  0  0
 16 40  1  0  0  0  0
 16 41  1  0  0  0  0
 16 42  1  0  0  0  0
 17 18  1  0  0  0  0
 18 19  2  0  0  0  0
 18 20  1  0  0  0  0
 20 21  1  0  0  0  0
 21 22  1  0  0  0  0
 21 44  1  0  0  0  0
 21 45  1  0  0  0  0
 22 23  1  0  0  0  0
 22 46  1  0  0  0  0
 22 47  1  0  0  0  0
 23 48  1  0  0  0  0
M  END
> <s_m_source_file>
AV-unprocessed.smi

> <i_m_source_file_index>
438

> <i_lp_mmshare_version>
43012

> <i_f3d_flags>
0

> <s_epik_input>
W09IXVtDSDJdW0NIMl1jMWMoW09IXSluYyhuYzFbQ0gzXSlTW0NIMl1DKD1PKVtOSF1bQ0BASF0yW0NIMl1bQ0gyXVtDSDJdW0NIMl1bQ0BIXTJbQ0gzXQ==

> <s_epik_cmdline>
J2VwaWtfcHl0aG9uJywgJy1waCcsICc3LjAnLCAnLXRuJywgJzgnLCAnLW1hJywgJzIwMCcsICctbWV0YWxfYmluZGluZycsICctaW1hZScsICc8aW5maWxlLm1hZT4nLCAnLW9tYWUnLCAnPG91dGZpbGUubWFlPic=

> <r_lp_tautomer_probability>
0.273662

> <r_epik_Ionization_Penalty>
0.0875285

> <r_epik_Ionization_Penalty_Charging>
0.0875254

> <r_epik_Ionization_Penalty_Neutral>
3.01536e-06

> <r_epik_State_Penalty>
0.985796

> <r_epik_Charging_Adjusted_Penalty>
1.07332

> <i_epik_Tot_Q>
0

> <i_epik_Tot_abs_Q>
0

> <r_epik_Metal_State_Penalty>
1.58101

> <b_epik_Metal_Only>
0

> <s_lp_Force_Field>
OPLS_2005

> <r_lp_Energy>
13.0189

> <b_lp_Chiralities_Consistent>
1

> <s_lp_Variant>
AV-unprocessed.smi:438-6

> <Gold.Version>
5.8.1

> <Gold.Id.Protein>
6NUR|6NUR_protein|mol2

> <Gold.PLP.Fitness>
43.3509

> <Gold.PLP.PLP>
-36.9571

> <Gold.PLP.part.hbond>
-3.0000

> <Gold.PLP.part.metal>
0.0000

> <Gold.PLP.part.buried>
-0.5505

> <Gold.PLP.part.nonpolar>
-33.3714

> <Gold.PLP.part.repulsive>
0.1297

> <Gold.PLP.ligand.clash>
0.0000

> <Gold.PLP.ligand.torsion>
0.4396

> <Gold.PLP.Chemscore.Hbond>
2.4137

> <Gold.PLP.Chemscore.CHOScore>
0.0000

> <Gold.PLP.Chemscore.Metal>
0.0000

> <Gold.Chemscore.Hbonds>
donor molecule, donor type, donor heavy atom, donor atom, acceptor molecule, acceptor atom, score
      P1  H  6931  6943       L1    17  1.00
      P1  H  6934  6947       L1    17  0.49
      P1  H 10752 10764       L1     8  0.76

> <Gold.PLP.Chemscore.Internal.Correction>
0.0320

> <Gold.Rescore>
     Score         DG    S(hbond)    S(metal)    S(lipo)     H(rot)  DE(clash)    DE(int)     intcor
     13.92     -15.37       2.06        0.00      88.36       2.86       0.96       0.48       ----

> <Gold.Chemscore.Fitness>
13.9239

> <Gold.Chemscore.DG>
-15.3660

> <Gold.Chemscore.ZeroCoef>
-5.4800

> <Gold.Chemscore.Hbond>
2.0601

> <Gold.Chemscore.Metal>
0.0000

> <Gold.Chemscore.Lipo>
88.3622

> <Gold.Chemscore.Internal_Hbond>
0.0000

> <Gold.Chemscore.DEClash>
0.9622

> <Gold.Chemscore.DEInternal>
0.4799

> <Gold.Chemscore.Rot>
2.8645

> <Gold.Chemscore.Internal.Correction>
   9.000000E+99

> <Gold.Chemscore.Hbonds>
donor molecule, donor type, donor heavy atom, donor atom, acceptor molecule, acceptor atom, score
      P1  H  6931  6943       L1    17  0.67
      P1  H  6934  6947       L1    17  0.27
      P1  H 10752 10764       L1     8  0.72

> <Gold.Chemscore.Hbond.Weighted>
-6.8807

> <Gold.Chemscore.Metal.Weighted>
-0.0000

> <Gold.Chemscore.Lipo.Weighted>
-10.3384

> <Gold.Chemscore.Internal_Hbond.Weighted>
0.0000

> <Gold.Chemscore.DEClash.Weighted>
0.9622

> <Gold.Chemscore.DEInternal.Weighted>
0.4799

> <Gold.Chemscore.Rot.Weighted>
7.3331

> <Gold.Chemscore.Internal.Correction.Weighted>
   9.000000E+99

> <Gold.Protein.RotatedTorsions>
[ 6907 6896 6895 6894 ] final   53.54 input  -60.11 | X-H torsion
[ 7974 7965 7964 7962 ] final -148.04 input  175.53 | X-H torsion
[ 8008 7997 7996 7995 ] final  -47.45 input   59.86 | X-H torsion
[ 10167 10162 10161 10158 ] final   61.26 input  -65.29 | X-H torsion
[ 10718 10713 10712 10709 ] final  -77.91 input   66.30 | X-H torsion
[ 10763 10752 10751 10750 ] final  -18.09 input  -60.55 | X-H torsion
[ 11005 11000 10999 10996 ] final   30.24 input  -57.11 | X-H torsion

> <Gold.Protein.ActiveResidues>
 VAL166  LYS551  ARG553  GLY616  TRP617  ASP618  TYR619  PRO620  LYS621  CYS622 
 ASP623  PHE694  ASN695  SER759  ASP760  ASP761  ALA762  ILE779  LEU786  VAL792 
 PHE793  MET794  SER795  GLU796  ALA797  LYS798  CYS799  TRP800  GLU811  SER814 

> <Gold.Protein.RotatedAtoms>
  152.3348  134.7213  160.0279 H   0  0  0  0  0  0  0  0  0  0  0  0  # atno 6907 bound_to 6896
  151.7618  133.3329  159.3428 H   0  0  0  0  0  0  0  0  0  0  0  0  # atno 6908 bound_to 6896
  150.7444  134.6031  159.6091 H   0  0  0  0  0  0  0  0  0  0  0  0  # atno 6909 bound_to 6896
  144.8055  140.5248  143.5678 H   0  0  0  0  0  0  0  0  0  0  0  0  # atno 7974 bound_to 7965
  154.4017  140.1346  156.4177 H   0  0  0  0  0  0  0  0  0  0  0  0  # atno 8008 bound_to 7997
  155.7672  140.3484  155.5208 H   0  0  0  0  0  0  0  0  0  0  0  0  # atno 8009 bound_to 7997
  155.8802  140.0986  157.1481 H   0  0  0  0  0  0  0  0  0  0  0  0  # atno 8010 bound_to 7997
  140.1566  144.4411  150.6731 H   0  0  0  0  0  0  0  0  0  0  0  0  # atno 10167 bound_to 10162
  156.0132  130.4504  150.3416 H   0  0  0  0  0  0  0  0  0  0  0  0  # atno 10718 bound_to 10713
  153.5839  135.7004  153.5452 H   0  0  0  0  0  0  0  0  0  0  0  0  # atno 10763 bound_to 10752
  153.3237  135.4067  155.1438 H   0  0  0  0  0  0  0  0  0  0  0  0  # atno 10764 bound_to 10752
  154.8612  135.3702  154.5367 H   0  0  0  0  0  0  0  0  0  0  0  0  # atno 10765 bound_to 10752
  140.2965  134.2805  155.7763 H   0  0  0  0  0  0  0  0  0  0  0  0  # atno 11005 bound_to 11000
  145.5450  139.1476  143.3426 LP  0  0  0  0  0  0  0  0  0  0  0  0  # atno 17320 bound_to 7965
  146.2345  140.5589  142.8961 LP  0  0  0  0  0  0  0  0  0  0  0  0  # atno 17321 bound_to 7965
  140.6669  143.2271  151.5721 LP  0  0  0  0  0  0  0  0  0  0  0  0  # atno 17342 bound_to 10162
  139.5400  144.2673  152.1332 LP  0  0  0  0  0  0  0  0  0  0  0  0  # atno 17343 bound_to 10162
  157.1511  131.0321  151.2884 LP  0  0  0  0  0  0  0  0  0  0  0  0  # atno 17370 bound_to 10713
  157.4391  130.7534  149.7054 LP  0  0  0  0  0  0  0  0  0  0  0  0  # atno 17371 bound_to 10713
  141.2136  133.7618  156.9703 LP  0  0  0  0  0  0  0  0  0  0  0  0  # atno 17394 bound_to 11000
  140.1148  134.9454  157.2118 LP  0  0  0  0  0  0  0  0  0  0  0  0  # atno 17395 bound_to 11000

$$$$
