AV-unprocessed.smi:3333|AV-procd|sdf|12834|dock10
  -GOLD-   2272019213D 1   1.00000     0.00000
 Structure written by MMmdl.
 41 43  0  0  0  0  0  0  0  0  1 V2000
  143.7036  144.1944  155.0248 C   0  0  0  0  0  0  0  0  0  0  0  0
  144.2230  143.4127  156.2360 C   0  0  0  0  0  0  0  0  0  0  0  0
  145.2846  142.4302  155.8712 C   0  0  0  0  0  0  0  0  0  0  0  0
  146.3605  142.7436  155.1441 N   0  0  0  0  0  0  0  0  0  0  0  0
  147.1890  141.6420  154.9050 C   0  0  0  0  0  0  0  0  0  0  0  0
  148.4489  141.8098  154.1053 C   0  0  0  0  0  0  0  0  0  0  0  0
  149.6779  141.4363  154.9398 C   0  0  0  0  0  0  0  0  0  0  0  0
  150.3967  140.4950  154.6019 O   0  0  0  0  0  0  0  0  0  0  0  0
  149.9024  142.1747  156.0379 N   0  0  0  0  0  0  0  0  0  0  0  0
  150.9983  141.9686  156.9792 C   0  0  0  0  0  0  0  0  0  0  0  0
  150.7995  142.7584  158.2915 C   0  0  1  0  0  0  0  0  0  0  0  0
  151.7778  142.3302  159.4080 C   0  0  0  0  0  0  0  0  0  0  0  0
  152.4292  143.6597  159.8301 C   0  0  2  0  0  0  0  0  0  0  0  0
  151.3898  144.5405  160.5489 C   0  0  0  0  0  0  0  0  0  0  0  0
  150.4721  144.9911  159.3966 C   0  0  0  0  0  0  0  0  0  0  0  0
  151.0838  144.2760  158.1770 C   0  0  1  0  0  0  0  0  0  0  0  0
  152.5740  144.3691  158.4903 C   0  0  0  0  0  0  0  0  0  0  0  0
  146.7190  140.4808  155.4680 C   0  0  0  0  0  0  0  0  0  0  0  0
  145.2086  140.7253  156.2999 S   0  0  0  0  0  0  0  0  0  0  0  0
  142.9250  144.8972  155.3212 H   0  0  0  0  0  0  0  0  0  0  0  0
  143.2805  143.5240  154.2762 H   0  0  0  0  0  0  0  0  0  0  0  0
  144.5042  144.7637  154.5515 H   0  0  0  0  0  0  0  0  0  0  0  0
  144.6202  144.1011  156.9829 H   0  0  0  0  0  0  0  0  0  0  0  0
  143.4012  142.8764  156.7111 H   0  0  0  0  0  0  0  0  0  0  0  0
  148.4107  141.2025  153.1996 H   0  0  0  0  0  0  0  0  0  0  0  0
  148.5577  142.8439  153.7769 H   0  0  0  0  0  0  0  0  0  0  0  0
  149.2630  142.9291  156.2410 H   0  0  0  0  0  0  0  0  0  0  0  0
  151.0993  140.9032  157.1933 H   0  0  0  0  0  0  0  0  0  0  0  0
  151.9238  142.2705  156.4886 H   0  0  0  0  0  0  0  0  0  0  0  0
  149.7753  142.6019  158.6330 H   0  0  0  0  0  0  0  0  0  0  0  0
  151.2697  141.8354  160.2366 H   0  0  0  0  0  0  0  0  0  0  0  0
  152.5355  141.6427  159.0291 H   0  0  0  0  0  0  0  0  0  0  0  0
  153.3574  143.5335  160.3880 H   0  0  0  0  0  0  0  0  0  0  0  0
  150.8491  143.9939  161.3224 H   0  0  0  0  0  0  0  0  0  0  0  0
  151.8665  145.4023  161.0176 H   0  0  0  0  0  0  0  0  0  0  0  0
  149.4287  144.7198  159.5617 H   0  0  0  0  0  0  0  0  0  0  0  0
  150.5186  146.0737  159.2718 H   0  0  0  0  0  0  0  0  0  0  0  0
  150.7857  144.7204  157.2273 H   0  0  0  0  0  0  0  0  0  0  0  0
  152.9341  145.3956  158.5814 H   0  0  0  0  0  0  0  0  0  0  0  0
  153.2056  143.8321  157.7811 H   0  0  0  0  0  0  0  0  0  0  0  0
  147.1635  139.4971  155.4322 H   0  0  0  0  0  0  0  0  0  0  0  0
  1  2  1  0  0  0  0
  1 20  1  0  0  0  0
  1 21  1  0  0  0  0
  1 22  1  0  0  0  0
  2  3  1  0  0  0  0
  2 23  1  0  0  0  0
  2 24  1  0  0  0  0
  3 19  1  0  0  0  0
  3  4  2  0  0  0  0
  4  5  1  0  0  0  0
  5  6  1  0  0  0  0
  5 18  2  0  0  0  0
  6  7  1  0  0  0  0
  6 25  1  0  0  0  0
  6 26  1  0  0  0  0
  7  8  2  0  0  0  0
  7  9  1  0  0  0  0
  9 10  1  0  0  0  0
  9 27  1  0  0  0  0
 10 11  1  0  0  0  0
 10 28  1  0  0  0  0
 10 29  1  0  0  0  0
 11 16  1  0  0  0  0
 11 12  1  0  0  0  0
 11 30  1  0  0  0  0
 12 13  1  0  0  0  0
 12 31  1  0  0  0  0
 12 32  1  0  0  0  0
 13 17  1  0  0  0  0
 13 14  1  0  0  0  0
 13 33  1  0  0  0  0
 14 15  1  0  0  0  0
 14 34  1  0  0  0  0
 14 35  1  0  0  0  0
 15 16  1  0  0  0  0
 15 36  1  0  0  0  0
 15 37  1  0  0  0  0
 16 17  1  0  0  0  0
 16 38  1  0  0  0  0
 17 39  1  0  0  0  0
 17 40  1  0  0  0  0
 18 19  1  0  0  0  0
 18 41  1  0  0  0  0
M  END
> <s_m_source_file>
AV-unprocessed.smi

> <i_m_source_file_index>
3333

> <i_lp_mmshare_version>
43012

> <i_f3d_flags>
0

> <s_epik_input>
W0NIM11bQ0gyXWMxbmMoW2NIXXMxKVtDSDJdQyg9TylbTkhdW0NIMl1bQ0BIXShbQ0gyXVtDQEBIXTIzKVtDQEBIXShbQ0gyXTMpW0NIMl1bQ0gyXTI=

> <s_epik_cmdline>
J2VwaWtfcHl0aG9uJywgJy1waCcsICc3LjAnLCAnLXRuJywgJzgnLCAnLW1hJywgJzIwMCcsICctbWV0YWxfYmluZGluZycsICctaW1hZScsICc8aW5maWxlLm1hZT4nLCAnLW9tYWUnLCAnPG91dGZpbGUubWFlPic=

> <r_lp_tautomer_probability>
1

> <r_epik_Ionization_Penalty>
6.68371e-05

> <r_epik_Ionization_Penalty_Charging>
0

> <r_epik_Ionization_Penalty_Neutral>
6.68371e-05

> <r_epik_State_Penalty>
-0

> <r_epik_Charging_Adjusted_Penalty>
0

> <i_epik_Tot_Q>
0

> <i_epik_Tot_abs_Q>
0

> <r_epik_Metal_State_Penalty>
-0

> <b_epik_Metal_Only>
0

> <s_lp_Force_Field>
OPLS_2005

> <r_lp_Energy>
43.9975

> <b_lp_Chiralities_Consistent>
1

> <s_lp_Variant>
AV-unprocessed.smi:3333-4

> <Gold.Version>
5.8.1

> <Gold.Id.Protein>
6NUR|6NUR_protein|mol2

> <Gold.PLP.Fitness>
48.7214

> <Gold.PLP.PLP>
-43.1771

> <Gold.PLP.part.hbond>
-2.0000

> <Gold.PLP.part.metal>
0.0000

> <Gold.PLP.part.buried>
-4.2189

> <Gold.PLP.part.nonpolar>
-37.5455

> <Gold.PLP.part.repulsive>
0.9928

> <Gold.PLP.ligand.clash>
0.0000

> <Gold.PLP.ligand.torsion>
0.2432

> <Gold.PLP.Chemscore.Hbond>
2.0000

> <Gold.PLP.Chemscore.CHOScore>
0.0000

> <Gold.PLP.Chemscore.Metal>
0.0000

> <Gold.Chemscore.Hbonds>
donor molecule, donor type, donor heavy atom, donor atom, acceptor molecule, acceptor atom, score
      L1  H     9    27       P1  8028  0.80
      P1  H  7989  7998       L1     8  0.99

> <Gold.PLP.Chemscore.Internal.Correction>
0.0308

> <Gold.Rescore>
     Score         DG    S(hbond)    S(metal)    S(lipo)     H(rot)  DE(clash)    DE(int)     intcor
     20.26     -20.65       1.65        0.00     113.78       1.42       0.10       0.29       ----

> <Gold.Chemscore.Fitness>
20.2615

> <Gold.Chemscore.DG>
-20.6508

> <Gold.Chemscore.ZeroCoef>
-5.4800

> <Gold.Chemscore.Hbond>
1.6471

> <Gold.Chemscore.Metal>
0.0000

> <Gold.Chemscore.Lipo>
113.7754

> <Gold.Chemscore.Internal_Hbond>
0.0000

> <Gold.Chemscore.DEClash>
0.1026

> <Gold.Chemscore.DEInternal>
0.2867

> <Gold.Chemscore.Rot>
1.4227

> <Gold.Chemscore.Internal.Correction>
   9.000000E+99

> <Gold.Chemscore.Hbonds>
donor molecule, donor type, donor heavy atom, donor atom, acceptor molecule, acceptor atom, score
      L1  H     9    27       P1  8028  0.79
      P1  H  7989  7998       L1     8  0.85

> <Gold.Chemscore.Hbond.Weighted>
-5.5012

> <Gold.Chemscore.Metal.Weighted>
-0.0000

> <Gold.Chemscore.Lipo.Weighted>
-13.3117

> <Gold.Chemscore.Internal_Hbond.Weighted>
0.0000

> <Gold.Chemscore.DEClash.Weighted>
0.1026

> <Gold.Chemscore.DEInternal.Weighted>
0.2867

> <Gold.Chemscore.Rot.Weighted>
3.6421

> <Gold.Chemscore.Internal.Correction.Weighted>
   9.000000E+99

> <Gold.Protein.RotatedTorsions>
[ 6907 6896 6895 6894 ] final  153.35 input  -60.11 | X-H torsion
[ 7974 7965 7964 7962 ] final   58.09 input  175.53 | X-H torsion
[ 8008 7997 7996 7995 ] final   -5.35 input   59.86 | X-H torsion
[ 10167 10162 10161 10158 ] final -104.71 input  -65.29 | X-H torsion
[ 10718 10713 10712 10709 ] final  -10.95 input   66.30 | X-H torsion
[ 10763 10752 10751 10750 ] final  132.34 input  -60.55 | X-H torsion
[ 11005 11000 10999 10996 ] final -150.36 input  -57.11 | X-H torsion

> <Gold.Protein.ActiveResidues>
 VAL166  LYS551  ARG553  GLY616  TRP617  ASP618  TYR619  PRO620  LYS621  CYS622 
 ASP623  PHE694  ASN695  SER759  ASP760  ASP761  ALA762  ILE779  LEU786  VAL792 
 PHE793  MET794  SER795  GLU796  ALA797  LYS798  CYS799  TRP800  GLU811  SER814 

> <Gold.Protein.RotatedAtoms>
  152.0739  133.4120  159.4471 H   0  0  0  0  0  0  0  0  0  0  0  0  # atno 6907 bound_to 6896
  150.6863  134.3060  159.4735 H   0  0  0  0  0  0  0  0  0  0  0  0  # atno 6908 bound_to 6896
  152.0895  134.9417  160.0623 H   0  0  0  0  0  0  0  0  0  0  0  0  # atno 6909 bound_to 6896
  145.9219  139.3736  143.0473 H   0  0  0  0  0  0  0  0  0  0  0  0  # atno 7974 bound_to 7965
  154.6048  140.2460  155.7745 H   0  0  0  0  0  0  0  0  0  0  0  0  # atno 8008 bound_to 7997
  156.2334  140.2959  156.0199 H   0  0  0  0  0  0  0  0  0  0  0  0  # atno 8009 bound_to 7997
  155.2150  140.0398  157.2930 H   0  0  0  0  0  0  0  0  0  0  0  0  # atno 8010 bound_to 7997
  140.2063  143.3780  152.1087 H   0  0  0  0  0  0  0  0  0  0  0  0  # atno 10167 bound_to 10162
  156.6660  130.4995  149.6015 H   0  0  0  0  0  0  0  0  0  0  0  0  # atno 10718 bound_to 10713
  153.7891  135.3157  155.3376 H   0  0  0  0  0  0  0  0  0  0  0  0  # atno 10763 bound_to 10752
  154.8132  135.4653  154.0576 H   0  0  0  0  0  0  0  0  0  0  0  0  # atno 10764 bound_to 10752
  153.1888  135.6905  153.8466 H   0  0  0  0  0  0  0  0  0  0  0  0  # atno 10765 bound_to 10752
  140.7411  134.3513  157.5147 H   0  0  0  0  0  0  0  0  0  0  0  0  # atno 11005 bound_to 11000
  145.8538  140.9514  143.0735 LP  0  0  0  0  0  0  0  0  0  0  0  0  # atno 17320 bound_to 7965
  144.6754  140.0442  143.7480 LP  0  0  0  0  0  0  0  0  0  0  0  0  # atno 17321 bound_to 7965
  139.5197  144.7023  151.5457 LP  0  0  0  0  0  0  0  0  0  0  0  0  # atno 17342 bound_to 10162
  140.6355  143.8993  150.6643 LP  0  0  0  0  0  0  0  0  0  0  0  0  # atno 17343 bound_to 10162
  156.1974  130.6598  151.1130 LP  0  0  0  0  0  0  0  0  0  0  0  0  # atno 17370 bound_to 10713
  157.7093  131.0741  150.6556 LP  0  0  0  0  0  0  0  0  0  0  0  0  # atno 17371 bound_to 10713
  139.8806  134.9081  156.2960 LP  0  0  0  0  0  0  0  0  0  0  0  0  # atno 17394 bound_to 11000
  140.9836  133.7252  156.0708 LP  0  0  0  0  0  0  0  0  0  0  0  0  # atno 17395 bound_to 11000

$$$$
