AV-unprocessed.smi:203|AV-procd|sdf|1588|dock6
  -GOLD-   2262019483D 1   1.00000     0.00000
 Structure written by MMmdl.
 57 61  0  0  0  0  0  0  0  0  1 V2000
  150.1085  136.9315  159.5671 O   0  0  0  0  0  0  0  0  0  0  0  0
  151.0015  137.7011  159.2208 C   0  0  0  0  0  0  0  0  0  0  0  0
  150.8765  138.6549  158.0453 C   0  0  0  0  0  0  0  0  0  0  0  0
  152.1282  139.5466  158.1643 C   0  0  1  0  0  0  0  0  0  0  0  0
  151.8181  141.0295  158.5442 C   0  0  1  0  0  0  0  0  0  0  0  0
  153.0082  141.7283  159.2543 C   0  0  0  0  0  0  0  0  0  0  0  0
  152.6836  143.1844  159.6123 C   0  0  0  0  0  0  0  0  0  0  0  0
  152.2530  143.9459  158.3545 C   0  0  0  0  0  0  0  0  0  0  0  0
  151.0670  143.2395  157.6850 C   0  0  0  0  0  0  0  0  0  0  0  0
  151.3765  141.8397  157.3941 N   0  0  0  0  0  0  0  0  0  0  0  0
  150.4128  141.2975  156.6169 C   0  0  0  0  0  0  0  0  0  0  0  0
  150.7910  140.8169  155.4071 N   0  0  0  0  0  0  0  0  0  0  0  0
  149.8851  140.2571  154.5994 C   0  0  0  0  0  0  0  0  0  0  0  0
  148.5773  140.0833  154.8039 N   0  0  0  0  0  0  0  0  0  0  0  0
  148.1949  140.5749  156.0176 C   0  0  0  0  0  0  0  0  0  0  0  0
  149.0400  141.1951  156.9794 C   0  0  0  0  0  0  0  0  0  0  0  0
  148.2978  141.5704  158.0928 N   0  0  0  0  0  0  0  0  0  0  0  0
  147.0814  141.1950  157.8045 C   0  0  0  0  0  0  0  0  0  0  0  0
  146.9303  140.5880  156.5785 N   0  0  0  0  0  0  0  0  0  0  0  0
  145.6952  140.0802  156.0088 C   0  0  0  0  0  0  0  0  0  0  0  0
  144.6264  141.1831  155.8503 C   0  0  1  0  0  0  0  0  0  0  0  0
  144.9040  141.9886  154.7221 O   0  0  0  0  0  0  0  0  0  0  0  0
  143.1806  140.6570  155.7365 C   0  0  2  0  0  0  0  0  0  0  0  0
  142.1189  141.7525  155.5945 C   0  0  0  0  0  0  0  0  0  0  0  0
  140.8759  141.1538  156.2392 C   0  0  0  0  0  0  0  0  0  0  0  0
  141.3608  139.8336  156.8397 C   0  0  0  0  0  0  0  0  0  0  0  0
  142.7706  139.9750  156.9127 O   0  0  0  0  0  0  0  0  0  0  0  0
  153.0413  138.8181  159.1764 C   0  0  0  0  0  0  0  0  0  0  0  0
  152.1945  137.8197  159.7994 N   0  0  0  0  0  0  0  0  0  0  0  0
  150.8925  138.0780  157.1197 H   0  0  0  0  0  0  0  0  0  0  0  0
  149.9407  139.2129  158.0758 H   0  0  0  0  0  0  0  0  0  0  0  0
  152.6146  139.5260  157.1886 H   0  0  0  0  0  0  0  0  0  0  0  0
  150.9916  141.0141  159.2555 H   0  0  0  0  0  0  0  0  0  0  0  0
  153.2833  141.1980  160.1652 H   0  0  0  0  0  0  0  0  0  0  0  0
  153.8918  141.7141  158.6162 H   0  0  0  0  0  0  0  0  0  0  0  0
  151.8856  143.2137  160.3555 H   0  0  0  0  0  0  0  0  0  0  0  0
  153.5522  143.6638  160.0645 H   0  0  0  0  0  0  0  0  0  0  0  0
  151.9831  144.9710  158.6090 H   0  0  0  0  0  0  0  0  0  0  0  0
  153.0880  144.0059  157.6553 H   0  0  0  0  0  0  0  0  0  0  0  0
  150.1937  143.2917  158.3370 H   0  0  0  0  0  0  0  0  0  0  0  0
  150.8068  143.7625  156.7634 H   0  0  0  0  0  0  0  0  0  0  0  0
  150.2619  139.8967  153.6537 H   0  0  0  0  0  0  0  0  0  0  0  0
  146.2544  141.3530  158.4817 H   0  0  0  0  0  0  0  0  0  0  0  0
  145.9230  139.6202  155.0464 H   0  0  0  0  0  0  0  0  0  0  0  0
  145.3295  139.2815  156.6541 H   0  0  0  0  0  0  0  0  0  0  0  0
  144.6774  141.8501  156.7119 H   0  0  0  0  0  0  0  0  0  0  0  0
  144.5050  141.5881  153.9645 H   0  0  0  0  0  0  0  0  0  0  0  0
  143.0905  139.9782  154.8855 H   0  0  0  0  0  0  0  0  0  0  0  0
  142.4089  142.6543  156.1341 H   0  0  0  0  0  0  0  0  0  0  0  0
  141.9576  142.0292  154.5523 H   0  0  0  0  0  0  0  0  0  0  0  0
  140.4964  141.8188  157.0158 H   0  0  0  0  0  0  0  0  0  0  0  0
  140.0750  140.9893  155.5176 H   0  0  0  0  0  0  0  0  0  0  0  0
  140.9276  139.6317  157.8197 H   0  0  0  0  0  0  0  0  0  0  0  0
  141.1176  138.9990  156.1803 H   0  0  0  0  0  0  0  0  0  0  0  0
  153.8637  138.3163  158.6649 H   0  0  0  0  0  0  0  0  0  0  0  0
  153.4758  139.4832  159.9228 H   0  0  0  0  0  0  0  0  0  0  0  0
  152.4906  137.2791  160.5993 H   0  0  0  0  0  0  0  0  0  0  0  0
  1  2  2  0  0  0  0
  2 29  1  0  0  0  0
  2  3  1  0  0  0  0
  3  4  1  0  0  0  0
  3 30  1  0  0  0  0
  3 31  1  0  0  0  0
  4  5  1  0  0  0  0
  4 28  1  0  0  0  0
  4 32  1  0  0  0  0
  5 10  1  0  0  0  0
  5  6  1  0  0  0  0
  5 33  1  0  0  0  0
  6  7  1  0  0  0  0
  6 34  1  0  0  0  0
  6 35  1  0  0  0  0
  7  8  1  0  0  0  0
  7 36  1  0  0  0  0
  7 37  1  0  0  0  0
  8  9  1  0  0  0  0
  8 38  1  0  0  0  0
  8 39  1  0  0  0  0
  9 10  1  0  0  0  0
  9 40  1  0  0  0  0
  9 41  1  0  0  0  0
 10 11  1  0  0  0  0
 11 16  1  0  0  0  0
 11 12  2  0  0  0  0
 12 13  1  0  0  0  0
 13 14  2  0  0  0  0
 13 42  1  0  0  0  0
 14 15  1  0  0  0  0
 15 19  1  0  0  0  0
 15 16  2  0  0  0  0
 16 17  1  0  0  0  0
 17 18  2  0  0  0  0
 18 19  1  0  0  0  0
 18 43  1  0  0  0  0
 19 20  1  0  0  0  0
 20 21  1  0  0  0  0
 20 44  1  0  0  0  0
 20 45  1  0  0  0  0
 21 22  1  0  0  0  0
 21 23  1  0  0  0  0
 21 46  1  0  0  0  0
 22 47  1  0  0  0  0
 23 27  1  0  0  0  0
 23 24  1  0  0  0  0
 23 48  1  0  0  0  0
 24 25  1  0  0  0  0
 24 49  1  0  0  0  0
 24 50  1  0  0  0  0
 25 26  1  0  0  0  0
 25 51  1  0  0  0  0
 25 52  1  0  0  0  0
 26 27  1  0  0  0  0
 26 53  1  0  0  0  0
 26 54  1  0  0  0  0
 28 29  1  0  0  0  0
 28 55  1  0  0  0  0
 28 56  1  0  0  0  0
 29 57  1  0  0  0  0
M  END
> <s_m_source_file>
AV-unprocessed.smi

> <i_m_source_file_index>
203

> <i_lp_mmshare_version>
43012

> <i_f3d_flags>
0

> <s_epik_input>
Tz1DMVtDSDJdW0NASF0oW0NIMl1bTkhdMSlbQ0BASF0yW0NIMl1bQ0gyXVtDSDJdW0NIMl1OMmMobltjSF1uMyljKGMzNCluW2NIXW40W0NIMl1bQ0BIXShbT0hdKVtDQEBIXTVbQ0gyXVtDSDJdW0NIMl1PNQ==

> <s_epik_cmdline>
J2VwaWtfcHl0aG9uJywgJy1waCcsICc3LjAnLCAnLXRuJywgJzgnLCAnLW1hJywgJzIwMCcsICctbWV0YWxfYmluZGluZycsICctaW1hZScsICc8aW5maWxlLm1hZT4nLCAnLW9tYWUnLCAnPG91dGZpbGUubWFlPic=

> <r_lp_tautomer_probability>
1

> <r_epik_Ionization_Penalty>
0.00175146

> <r_epik_Ionization_Penalty_Charging>
0

> <r_epik_Ionization_Penalty_Neutral>
0.00175146

> <r_epik_State_Penalty>
0.00109045

> <r_epik_Charging_Adjusted_Penalty>
0.00109045

> <i_epik_Tot_Q>
0

> <i_epik_Tot_abs_Q>
0

> <r_epik_Metal_State_Penalty>
-0

> <b_epik_Metal_Only>
0

> <s_lp_Force_Field>
OPLS_2005

> <r_lp_Energy>
57.1274

> <b_lp_Chiralities_Consistent>
1

> <s_lp_Variant>
AV-unprocessed.smi:203-7

> <Gold.Version>
5.8.1

> <Gold.Id.Protein>
6NUR|6NUR_protein|mol2

> <Gold.PLP.Fitness>
41.9958

> <Gold.PLP.PLP>
-34.4385

> <Gold.PLP.part.hbond>
-2.9798

> <Gold.PLP.part.metal>
0.0000

> <Gold.PLP.part.buried>
-3.9646

> <Gold.PLP.part.nonpolar>
-27.8014

> <Gold.PLP.part.repulsive>
0.3999

> <Gold.PLP.ligand.clash>
0.0000

> <Gold.PLP.ligand.torsion>
0.8458

> <Gold.PLP.Chemscore.Hbond>
2.0000

> <Gold.PLP.Chemscore.CHOScore>
0.9853

> <Gold.PLP.Chemscore.Metal>
0.0000

> <Gold.Chemscore.Hbonds>
donor molecule, donor type, donor heavy atom, donor atom, acceptor molecule, acceptor atom, score
      L1  H    22    47       P1 10175  0.85
      P1  H  6896  6908       L1     1  0.76
      L1  C    13    42       P1  7957  0.89

> <Gold.PLP.Chemscore.Internal.Correction>
0.2930

> <Gold.Rescore>
     Score         DG    S(hbond)    S(metal)    S(lipo)     H(rot)  DE(clash)    DE(int)     intcor
     12.45     -13.67       1.95        0.00      73.91       2.72       0.07       1.16       ----

> <Gold.Chemscore.Fitness>
12.4496

> <Gold.Chemscore.DG>
-13.6735

> <Gold.Chemscore.ZeroCoef>
-5.4800

> <Gold.Chemscore.Hbond>
1.9465

> <Gold.Chemscore.Metal>
0.0000

> <Gold.Chemscore.Lipo>
73.9140

> <Gold.Chemscore.Internal_Hbond>
0.0000

> <Gold.Chemscore.DEClash>
0.0650

> <Gold.Chemscore.DEInternal>
1.1588

> <Gold.Chemscore.Rot>
2.7171

> <Gold.Chemscore.Internal.Correction>
   9.000000E+99

> <Gold.Chemscore.Hbonds>
donor molecule, donor type, donor heavy atom, donor atom, acceptor molecule, acceptor atom, score
      L1  H    22    47       P1 10175  0.14
      P1  H  6896  6908       L1     1  0.34

> <Gold.Chemscore.Hbond.Weighted>
-6.5012

> <Gold.Chemscore.Metal.Weighted>
-0.0000

> <Gold.Chemscore.Lipo.Weighted>
-8.6479

> <Gold.Chemscore.Internal_Hbond.Weighted>
0.0000

> <Gold.Chemscore.DEClash.Weighted>
0.0650

> <Gold.Chemscore.DEInternal.Weighted>
1.1588

> <Gold.Chemscore.Rot.Weighted>
6.9557

> <Gold.Chemscore.Internal.Correction.Weighted>
   9.000000E+99

> <Gold.Protein.RotatedTorsions>
[ 6907 6896 6895 6894 ] final -148.92 input  -60.11 | X-H torsion
[ 7974 7965 7964 7962 ] final  164.03 input  175.53 | X-H torsion
[ 8008 7997 7996 7995 ] final   21.76 input   59.86 | X-H torsion
[ 10167 10162 10161 10158 ] final  -66.78 input  -65.29 | X-H torsion
[ 10718 10713 10712 10709 ] final   63.31 input   66.30 | X-H torsion
[ 10763 10752 10751 10750 ] final  -12.34 input  -60.55 | X-H torsion
[ 11005 11000 10999 10996 ] final   87.35 input  -57.11 | X-H torsion

> <Gold.Protein.ActiveResidues>
 VAL166  LYS551  ARG553  GLY616  TRP617  ASP618  TYR619  PRO620  LYS621  CYS622 
 ASP623  PHE694  ASN695  SER759  ASP760  ASP761  ALA762  ILE779  LEU786  VAL792 
 PHE793  MET794  SER795  GLU796  ALA797  LYS798  CYS799  TRP800  GLU811  SER814 

> <Gold.Protein.RotatedAtoms>
  151.1767  133.4750  159.2593 H   0  0  0  0  0  0  0  0  0  0  0  0  # atno 6907 bound_to 6896
  151.1301  135.0125  159.8588 H   0  0  0  0  0  0  0  0  0  0  0  0  # atno 6908 bound_to 6896
  152.5459  134.1670  159.8634 H   0  0  0  0  0  0  0  0  0  0  0  0  # atno 6909 bound_to 6896
  144.7563  139.8268  143.6349 H   0  0  0  0  0  0  0  0  0  0  0  0  # atno 7974 bound_to 7965
  154.9554  140.3071  155.5055 H   0  0  0  0  0  0  0  0  0  0  0  0  # atno 8008 bound_to 7997
  156.2983  140.2311  156.4574 H   0  0  0  0  0  0  0  0  0  0  0  0  # atno 8009 bound_to 7997
  154.8015  140.0434  157.1264 H   0  0  0  0  0  0  0  0  0  0  0  0  # atno 8010 bound_to 7997
  140.5632  143.2313  151.6687 H   0  0  0  0  0  0  0  0  0  0  0  0  # atno 10167 bound_to 10162
  157.5962  130.9098  149.9700 H   0  0  0  0  0  0  0  0  0  0  0  0  # atno 10718 bound_to 10713
  153.4970  135.7017  153.5853 H   0  0  0  0  0  0  0  0  0  0  0  0  # atno 10763 bound_to 10752
  153.4001  135.3874  155.1981 H   0  0  0  0  0  0  0  0  0  0  0  0  # atno 10764 bound_to 10752
  154.8713  135.3879  154.4436 H   0  0  0  0  0  0  0  0  0  0  0  0  # atno 10765 bound_to 10752
  139.8922  134.8416  156.2847 H   0  0  0  0  0  0  0  0  0  0  0  0  # atno 11005 bound_to 11000
  146.1576  139.4680  143.0009 LP  0  0  0  0  0  0  0  0  0  0  0  0  # atno 17320 bound_to 7965
  145.6769  141.0201  143.1627 LP  0  0  0  0  0  0  0  0  0  0  0  0  # atno 17321 bound_to 7965
  139.5080  144.3627  152.0547 LP  0  0  0  0  0  0  0  0  0  0  0  0  # atno 17342 bound_to 10162
  140.2755  144.3917  150.6136 LP  0  0  0  0  0  0  0  0  0  0  0  0  # atno 17343 bound_to 10162
  156.1026  130.3655  150.0191 LP  0  0  0  0  0  0  0  0  0  0  0  0  # atno 17370 bound_to 10713
  156.8304  130.9390  151.3637 LP  0  0  0  0  0  0  0  0  0  0  0  0  # atno 17371 bound_to 10713
  141.0015  133.7148  156.0968 LP  0  0  0  0  0  0  0  0  0  0  0  0  # atno 17394 bound_to 11000
  140.7491  134.4065  157.5544 LP  0  0  0  0  0  0  0  0  0  0  0  0  # atno 17395 bound_to 11000

$$$$
