AV-unprocessed.smi:107|AV-procd|sdf|1024|dock9
  -GOLD-   2262018 23D 1   1.00000     0.00000
 Structure written by MMmdl.
 30 31  0  0  0  0  0  0  0  0  2 V2000
  148.6375  136.0607  158.4367 C   0  0  0  0  0  0  0  0  0  0  0  0
  149.6629  136.5202  157.4151 C   0  0  0  0  0  0  0  0  0  0  0  0
  149.4536  137.5876  156.6131 C   0  0  0  0  0  0  0  0  0  0  0  0
  150.3903  138.0034  155.6825 N   0  0  0  0  0  0  0  0  0  0  0  0
  150.1307  139.1972  154.7868 C   0  0  1  0  0  0  0  0  0  0  0  0
  148.7007  139.7074  154.9817 C   0  0  0  0  0  0  0  0  0  0  0  0
  148.9074  140.8306  155.9761 C   0  0  2  0  0  0  0  0  0  0  0  0
  147.8667  141.7821  155.8862 O   0  0  0  0  0  0  0  0  0  0  0  0
  150.2587  141.3955  155.5314 C   0  0  1  0  0  0  0  0  0  0  0  0
  151.0070  142.1506  156.6409 C   0  0  0  0  0  0  0  0  0  0  0  0
  150.1605  143.1196  157.2209 O   0  0  0  0  0  0  0  0  0  0  0  0
  150.9975  140.2394  155.1358 O   0  0  0  0  0  0  0  0  0  0  0  0
  151.6041  137.2805  155.5407 C   0  0  0  0  0  0  0  0  0  0  0  0
  152.4038  137.6536  154.6820 O   0  0  0  0  0  0  0  0  0  0  0  0
  151.8274  136.2063  156.3502 N   0  5  0  0  0  0  0  0  0  0  0  0
  150.9271  135.7859  157.2845 C   0  0  0  0  0  0  0  0  0  0  0  0
  151.1433  134.8171  158.0119 O   0  0  0  0  0  0  0  0  0  0  0  0
  147.7477  136.6906  158.4171 H   0  0  0  0  0  0  0  0  0  0  0  0
  149.0579  136.1011  159.4420 H   0  0  0  0  0  0  0  0  0  0  0  0
  148.3296  135.0348  158.2327 H   0  0  0  0  0  0  0  0  0  0  0  0
  148.5219  138.1230  156.7056 H   0  0  0  0  0  0  0  0  0  0  0  0
  150.3494  138.8682  153.7699 H   0  0  0  0  0  0  0  0  0  0  0  0
  148.3442  140.0913  154.0245 H   0  0  0  0  0  0  0  0  0  0  0  0
  148.0196  138.9271  155.3239 H   0  0  0  0  0  0  0  0  0  0  0  0
  148.9669  140.4309  156.9896 H   0  0  0  0  0  0  0  0  0  0  0  0
  148.2529  142.6381  155.7784 H   0  0  0  0  0  0  0  0  0  0  0  0
  150.1129  142.0297  154.6544 H   0  0  0  0  0  0  0  0  0  0  0  0
  151.3018  141.4597  157.4311 H   0  0  0  0  0  0  0  0  0  0  0  0
  151.9169  142.6187  156.2656 H   0  0  0  0  0  0  0  0  0  0  0  0
  149.9442  143.7592  156.5593 H   0  0  0  0  0  0  0  0  0  0  0  0
  1  2  1  0  0  0  0
  1 18  1  0  0  0  0
  1 19  1  0  0  0  0
  1 20  1  0  0  0  0
  2 16  1  0  0  0  0
  2  3  2  0  0  0  0
  3  4  1  0  0  0  0
  3 21  1  0  0  0  0
  4  5  1  0  0  0  0
  4 13  1  0  0  0  0
  5 12  1  0  0  0  0
  5  6  1  0  0  0  0
  5 22  1  0  0  0  0
  6  7  1  0  0  0  0
  6 23  1  0  0  0  0
  6 24  1  0  0  0  0
  7  8  1  0  0  0  0
  7  9  1  0  0  0  0
  7 25  1  0  0  0  0
  8 26  1  0  0  0  0
  9 10  1  0  0  0  0
  9 12  1  0  0  0  0
  9 27  1  0  0  0  0
 10 11  1  0  0  0  0
 10 28  1  0  0  0  0
 10 29  1  0  0  0  0
 11 30  1  0  0  0  0
 13 14  2  0  0  0  0
 13 15  1  0  0  0  0
 15 16  1  0  0  0  0
 16 17  2  0  0  0  0
M  CHG  1  15  -1
M  END
> <s_m_source_file>
AV-unprocessed.smi

> <i_m_source_file_index>
107

> <i_lp_mmshare_version>
43012

> <i_f3d_flags>
0

> <s_epik_input>
Tz1jMVtuSF1jKD1PKW4oW2NIXWMxW0NIM10pW0NAQEhdMltDSDJdW0NAQEhdKFtPSF0pW0NASF0oTzIpW0NIMl1bT0hd

> <s_epik_cmdline>
J2VwaWtfcHl0aG9uJywgJy1waCcsICc3LjAnLCAnLXRuJywgJzgnLCAnLW1hJywgJzIwMCcsICctbWV0YWxfYmluZGluZycsICctaW1hZScsICc8aW5maWxlLm1hZT4nLCAnLW9tYWUnLCAnPG91dGZpbGUubWFlPic=

> <r_lp_tautomer_probability>
0.999537

> <r_epik_Ionization_Penalty>
3.66603

> <r_epik_Ionization_Penalty_Charging>
1.09773e-07

> <r_epik_Ionization_Penalty_Neutral>
3.66603

> <r_epik_State_Penalty>
3.66562

> <r_epik_Charging_Adjusted_Penalty>
3.66562

> <i_epik_Tot_Q>
-1

> <i_epik_Tot_abs_Q>
1

> <r_epik_Metal_State_Penalty>
0.234536

> <b_epik_Metal_Only>
1

> <s_epik_Chemistry_Notes>
This compound contains an acetal/aminal-like group ( X-CH(R)-Y where X, Y are N, S, or O) that may be acid/base labile, releasing an aldehyde.

> <s_lp_Force_Field>
OPLS_2005

> <r_lp_Energy>
34.1834

> <b_lp_Chiralities_Consistent>
1

> <s_lp_Variant>
AV-unprocessed.smi:107-12

> <Gold.Version>
5.8.1

> <Gold.Id.Protein>
6NUR|6NUR_protein|mol2

> <Gold.PLP.Fitness>
38.6255

> <Gold.PLP.PLP>
-22.5730

> <Gold.PLP.part.hbond>
-6.0000

> <Gold.PLP.part.metal>
0.0000

> <Gold.PLP.part.buried>
-5.0314

> <Gold.PLP.part.nonpolar>
-12.3866

> <Gold.PLP.part.repulsive>
0.2186

> <Gold.PLP.ligand.clash>
0.0000

> <Gold.PLP.ligand.torsion>
0.1690

> <Gold.PLP.Chemscore.Hbond>
5.4599

> <Gold.PLP.Chemscore.CHOScore>
0.0000

> <Gold.PLP.Chemscore.Metal>
0.0000

> <Gold.Chemscore.Hbonds>
donor molecule, donor type, donor heavy atom, donor atom, acceptor molecule, acceptor atom, score
      L1  H     8    26       P1  8028  0.67
      L1  H    11    30       P1  8028  1.00
      P1  H  6896  6909       L1    17  0.10
      P1  H  7989  7998       L1    12  0.90
      P1  H 10752 10763       L1    15  1.10

> <Gold.PLP.Chemscore.Internal.Correction>
0.0107

> <Gold.Rescore>
     Score         DG    S(hbond)    S(metal)    S(lipo)     H(rot)  DE(clash)    DE(int)     intcor
     11.50     -13.02       3.22        0.00      31.21       2.69       0.32       1.20       ----

> <Gold.Chemscore.Fitness>
11.5000

> <Gold.Chemscore.DG>
-13.0234

> <Gold.Chemscore.ZeroCoef>
-5.4800

> <Gold.Chemscore.Hbond>
3.2247

> <Gold.Chemscore.Metal>
0.0000

> <Gold.Chemscore.Lipo>
31.2133

> <Gold.Chemscore.Internal_Hbond>
0.0000

> <Gold.Chemscore.DEClash>
0.3212

> <Gold.Chemscore.DEInternal>
1.2021

> <Gold.Chemscore.Rot>
2.6871

> <Gold.Chemscore.Internal.Correction>
   9.000000E+99

> <Gold.Chemscore.Hbonds>
donor molecule, donor type, donor heavy atom, donor atom, acceptor molecule, acceptor atom, score
      L1  H     8    26       P1  8028  0.65
      L1  H    11    30       P1  8028  0.98
      P1  H  6896  6909       L1    17  0.11
      P1  H  7989  7998       L1    12  0.09
      P1  H 10752 10763       L1    15  0.03

> <Gold.Chemscore.Hbond.Weighted>
-10.7705

> <Gold.Chemscore.Metal.Weighted>
-0.0000

> <Gold.Chemscore.Lipo.Weighted>
-3.6520

> <Gold.Chemscore.Internal_Hbond.Weighted>
0.0000

> <Gold.Chemscore.DEClash.Weighted>
0.3212

> <Gold.Chemscore.DEInternal.Weighted>
1.2021

> <Gold.Chemscore.Rot.Weighted>
6.8791

> <Gold.Chemscore.Internal.Correction.Weighted>
   9.000000E+99

> <Gold.Protein.RotatedTorsions>
[ 6907 6896 6895 6894 ] final   18.70 input  -60.11 | X-H torsion
[ 7974 7965 7964 7962 ] final -117.84 input  175.53 | X-H torsion
[ 8008 7997 7996 7995 ] final   57.77 input   59.86 | X-H torsion
[ 10167 10162 10161 10158 ] final  176.31 input  -65.29 | X-H torsion
[ 10718 10713 10712 10709 ] final   56.48 input   66.30 | X-H torsion
[ 10763 10752 10751 10750 ] final   89.65 input  -60.55 | X-H torsion
[ 11005 11000 10999 10996 ] final  152.34 input  -57.11 | X-H torsion

> <Gold.Protein.ActiveResidues>
 VAL166  LYS551  ARG553  GLY616  TRP617  ASP618  TYR619  PRO620  LYS621  CYS622 
 ASP623  PHE694  ASN695  SER759  ASP760  ASP761  ALA762  ILE779  LEU786  VAL792 
 PHE793  MET794  SER795  GLU796  ALA797  LYS798  CYS799  TRP800  GLU811  SER814 

> <Gold.Protein.RotatedAtoms>
  151.8693  135.0495  160.0477 H   0  0  0  0  0  0  0  0  0  0  0  0  # atno 6907 bound_to 6896
  152.2601  133.5285  159.5385 H   0  0  0  0  0  0  0  0  0  0  0  0  # atno 6908 bound_to 6896
  150.7113  134.0758  159.3923 H   0  0  0  0  0  0  0  0  0  0  0  0  # atno 6909 bound_to 6896
  145.0807  140.8423  143.4041 H   0  0  0  0  0  0  0  0  0  0  0  0  # atno 7974 bound_to 7965
  155.5391  140.3484  155.4443 H   0  0  0  0  0  0  0  0  0  0  0  0  # atno 8008 bound_to 7997
  156.0664  140.1352  156.9907 H   0  0  0  0  0  0  0  0  0  0  0  0  # atno 8009 bound_to 7997
  154.4505  140.0975  156.6578 H   0  0  0  0  0  0  0  0  0  0  0  0  # atno 8010 bound_to 7997
  139.5209  144.2930  152.0447 H   0  0  0  0  0  0  0  0  0  0  0  0  # atno 10167 bound_to 10162
  157.5434  130.8713  149.8855 H   0  0  0  0  0  0  0  0  0  0  0  0  # atno 10718 bound_to 10713
  153.1893  135.4462  155.0129 H   0  0  0  0  0  0  0  0  0  0  0  0  # atno 10763 bound_to 10752
  154.8080  135.3282  154.7382 H   0  0  0  0  0  0  0  0  0  0  0  0  # atno 10764 bound_to 10752
  153.7838  135.6975  153.4939 H   0  0  0  0  0  0  0  0  0  0  0  0  # atno 10765 bound_to 10752
  140.1299  134.8809  157.2189 H   0  0  0  0  0  0  0  0  0  0  0  0  # atno 11005 bound_to 11000
  145.1182  139.2711  143.5602 LP  0  0  0  0  0  0  0  0  0  0  0  0  # atno 17320 bound_to 7965
  146.3531  140.0798  142.8618 LP  0  0  0  0  0  0  0  0  0  0  0  0  # atno 17321 bound_to 7965
  140.2380  144.4299  150.6271 LP  0  0  0  0  0  0  0  0  0  0  0  0  # atno 17342 bound_to 10162
  140.6310  143.2187  151.6496 LP  0  0  0  0  0  0  0  0  0  0  0  0  # atno 17343 bound_to 10162
  156.0515  130.3716  150.1190 LP  0  0  0  0  0  0  0  0  0  0  0  0  # atno 17370 bound_to 10713
  156.9368  130.9731  151.3523 LP  0  0  0  0  0  0  0  0  0  0  0  0  # atno 17371 bound_to 10713
  140.2856  134.3300  155.7330 LP  0  0  0  0  0  0  0  0  0  0  0  0  # atno 17394 bound_to 11000
  141.2168  133.7504  156.9428 LP  0  0  0  0  0  0  0  0  0  0  0  0  # atno 17395 bound_to 11000

$$$$
