AV-unprocessed.smi:1385|AV-procd|sdf|5635|dock10
  -GOLD-   22720 5253D 1   1.00000     0.00000
 Structure written by MMmdl.
 38 39  0  0  0  0  0  0  0  0  3 V2000
  137.1560  137.6815  155.0186 C   0  0  0  0  0  0  0  0  0  0  0  0
  138.6415  137.7236  154.9051 C   0  0  0  0  0  0  0  0  0  0  0  0
  139.4553  137.4136  155.9219 N   0  0  0  0  0  0  0  0  0  0  0  0
  140.7948  137.5273  155.5770 N   0  0  0  0  0  0  0  0  0  0  0  0
  140.9517  137.9186  154.3051 C   0  0  0  0  0  0  0  0  0  0  0  0
  142.2160  138.1188  153.6908 N   0  0  0  0  0  0  0  0  0  0  0  0
  143.1061  137.1919  153.2951 C   0  0  0  0  0  0  0  0  0  0  0  0
  142.9585  135.9735  153.3924 O   0  0  0  0  0  0  0  0  0  0  0  0
  144.2005  137.7637  152.7716 N   0  0  0  0  0  0  0  0  0  0  0  0
  145.3605  137.0452  152.2447 C   0  0  2  0  0  0  0  0  0  0  0  0
  146.0624  136.2138  153.3362 C   0  0  0  0  0  0  0  0  0  0  0  0
  146.7836  137.1034  154.3643 C   0  0  0  0  0  0  0  0  0  0  0  0
  147.7493  138.0206  153.7002 N   0  3  2  0  0  0  0  0  0  0  0  0
  148.5550  138.8153  154.6606 C   0  0  0  0  0  0  0  0  0  0  0  0
  149.9095  139.1837  154.0456 C   0  0  0  0  0  0  0  0  0  0  0  0
  150.4864  138.1445  153.4126 N   0  5  0  0  0  0  0  0  0  0  0  0
  150.3351  140.3318  154.1565 O   0  0  0  0  0  0  0  0  0  0  0  0
  147.0834  138.8765  152.6854 C   0  0  0  0  0  0  0  0  0  0  0  0
  146.3642  138.0289  151.6198 C   0  0  0  0  0  0  0  0  0  0  0  0
  139.4608  138.1797  153.4164 S   0  0  0  0  0  0  0  0  0  0  0  0
  136.8488  137.7657  156.0616 H   0  0  0  0  0  0  0  0  0  0  0  0
  136.7792  136.7409  154.6168 H   0  0  0  0  0  0  0  0  0  0  0  0
  136.7136  138.5053  154.4582 H   0  0  0  0  0  0  0  0  0  0  0  0
  142.4762  139.0828  153.5438 H   0  0  0  0  0  0  0  0  0  0  0  0
  144.2325  138.7718  152.7299 H   0  0  0  0  0  0  0  0  0  0  0  0
  145.0129  136.3727  151.4583 H   0  0  0  0  0  0  0  0  0  0  0  0
  145.3494  135.5612  153.8415 H   0  0  0  0  0  0  0  0  0  0  0  0
  146.7924  135.5532  152.8666 H   0  0  0  0  0  0  0  0  0  0  0  0
  146.0586  137.6856  154.9351 H   0  0  0  0  0  0  0  0  0  0  0  0
  147.3018  136.4643  155.0795 H   0  0  0  0  0  0  0  0  0  0  0  0
  148.0472  139.7542  154.8852 H   0  0  0  0  0  0  0  0  0  0  0  0
  148.6517  138.2815  155.6087 H   0  0  0  0  0  0  0  0  0  0  0  0
  149.9017  137.5399  152.8230 H   0  0  0  0  0  0  0  0  0  0  0  0
  146.3778  139.5457  153.1803 H   0  0  0  0  0  0  0  0  0  0  0  0
  147.8250  139.5079  152.1948 H   0  0  0  0  0  0  0  0  0  0  0  0
  147.1076  137.4675  151.0522 H   0  0  0  0  0  0  0  0  0  0  0  0
  145.8615  138.6771  150.9009 H   0  0  0  0  0  0  0  0  0  0  0  0
  148.4089  137.4419  153.1996 H   0  0  0  0  0  0  0  0  0  0  0  0
  1  2  1  0  0  0  0
  1 21  1  0  0  0  0
  1 22  1  0  0  0  0
  1 23  1  0  0  0  0
  2 20  1  0  0  0  0
  2  3  2  0  0  0  0
  3  4  1  0  0  0  0
  4  5  2  0  0  0  0
  5  6  1  0  0  0  0
  5 20  1  0  0  0  0
  6  7  1  0  0  0  0
  6 24  1  0  0  0  0
  7  8  2  0  0  0  0
  7  9  1  0  0  0  0
  9 10  1  0  0  0  0
  9 25  1  0  0  0  0
 10 19  1  0  0  0  0
 10 11  1  0  0  0  0
 10 26  1  0  0  0  0
 11 12  1  0  0  0  0
 11 27  1  0  0  0  0
 11 28  1  0  0  0  0
 12 13  1  0  0  0  0
 12 29  1  0  0  0  0
 12 30  1  0  0  0  0
 13 14  1  0  0  0  0
 13 18  1  0  0  0  0
 13 38  1  0  0  0  0
 14 15  1  0  0  0  0
 14 31  1  0  0  0  0
 14 32  1  0  0  0  0
 15 16  1  0  0  0  0
 15 17  2  0  0  0  0
 16 33  1  0  0  0  0
 18 19  1  0  0  0  0
 18 34  1  0  0  0  0
 18 35  1  0  0  0  0
 19 36  1  0  0  0  0
 19 37  1  0  0  0  0
M  CHG  1  13   1
M  CHG  1  16  -1
M  END
> <s_m_source_file>
AV-unprocessed.smi

> <i_m_source_file_index>
1385

> <i_lp_mmshare_version>
43012

> <i_f3d_flags>
0

> <s_epik_input>
W0NIM11jMW5uYyhzMSlbTkhdQyg9TylbTkhdW0NIXTJbQ0gyXVtDSDJdTihbQ0gyXVtDSDJdMilbQ0gyXUMoPU8pW05IMl0=

> <s_epik_cmdline>
J2VwaWtfcHl0aG9uJywgJy1waCcsICc3LjAnLCAnLXRuJywgJzgnLCAnLW1hJywgJzIwMCcsICctbWV0YWxfYmluZGluZycsICctaW1hZScsICc8aW5maWxlLm1hZT4nLCAnLW9tYWUnLCAnPG91dGZpbGUubWFlPic=

> <r_lp_tautomer_probability>
1

> <r_epik_Ionization_Penalty>
5.73549

> <r_epik_Ionization_Penalty_Charging>
5.73152

> <r_epik_Ionization_Penalty_Neutral>
0.00396448

> <r_epik_State_Penalty>
6.57436

> <r_epik_Charging_Adjusted_Penalty>
12.3059

> <i_epik_Tot_Q>
0

> <i_epik_Tot_abs_Q>
2

> <r_epik_Metal_State_Penalty>
2.87628

> <b_epik_Metal_Only>
1

> <s_lp_Force_Field>
OPLS_2005

> <r_lp_Energy>
6.46457

> <b_lp_Chiralities_Consistent>
1

> <s_lp_Variant>
AV-unprocessed.smi:1385-8

> <Gold.Version>
5.8.1

> <Gold.Id.Protein>
6NUR|6NUR_protein|mol2

> <Gold.PLP.Fitness>
47.4561

> <Gold.PLP.PLP>
-31.7609

> <Gold.PLP.part.hbond>
-7.5738

> <Gold.PLP.part.metal>
0.0000

> <Gold.PLP.part.buried>
0.4800

> <Gold.PLP.part.nonpolar>
-24.8252

> <Gold.PLP.part.repulsive>
0.3368

> <Gold.PLP.ligand.clash>
0.0000

> <Gold.PLP.ligand.torsion>
1.1502

> <Gold.PLP.Chemscore.Hbond>
5.9920

> <Gold.PLP.Chemscore.CHOScore>
0.0000

> <Gold.PLP.Chemscore.Metal>
0.0000

> <Gold.Chemscore.Hbonds>
donor molecule, donor type, donor heavy atom, donor atom, acceptor molecule, acceptor atom, score
      L1  H     6    24       P1 10175  0.89
      L1  H     9    25       P1 10175  1.00
      L1  H    13    38       P1  7948  2.00
      L1  H    16    33       P1  7948  0.95
      P1  H  7989  7998       L1    17  0.96

> <Gold.PLP.Chemscore.Internal.Correction>
0.0196

> <Gold.Rescore>
     Score         DG    S(hbond)    S(metal)    S(lipo)     H(rot)  DE(clash)    DE(int)     intcor
     19.17     -20.88       4.33        0.00      52.51       2.04       0.30       1.41       ----

> <Gold.Chemscore.Fitness>
19.1708

> <Gold.Chemscore.DG>
-20.8801

> <Gold.Chemscore.ZeroCoef>
-5.4800

> <Gold.Chemscore.Hbond>
4.3326

> <Gold.Chemscore.Metal>
0.0000

> <Gold.Chemscore.Lipo>
52.5101

> <Gold.Chemscore.Internal_Hbond>
0.0000

> <Gold.Chemscore.DEClash>
0.2961

> <Gold.Chemscore.DEInternal>
1.4132

> <Gold.Chemscore.Rot>
2.0369

> <Gold.Chemscore.Internal.Correction>
   9.000000E+99

> <Gold.Chemscore.Hbonds>
donor molecule, donor type, donor heavy atom, donor atom, acceptor molecule, acceptor atom, score
      L1  H     6    24       P1 10175  0.82
      L1  H     9    25       P1 10175  0.99
      L1  H    13    38       P1  7948  0.98
      L1  H    16    33       P1  7948  0.22
      P1  H  7989  7998       L1    17  0.87

> <Gold.Chemscore.Hbond.Weighted>
-14.4708

> <Gold.Chemscore.Metal.Weighted>
-0.0000

> <Gold.Chemscore.Lipo.Weighted>
-6.1437

> <Gold.Chemscore.Internal_Hbond.Weighted>
0.0000

> <Gold.Chemscore.DEClash.Weighted>
0.2961

> <Gold.Chemscore.DEInternal.Weighted>
1.4132

> <Gold.Chemscore.Rot.Weighted>
5.2144

> <Gold.Chemscore.Internal.Correction.Weighted>
   9.000000E+99

> <Gold.Protein.RotatedTorsions>
[ 6907 6896 6895 6894 ] final   71.90 input  -60.11 | X-H torsion
[ 7974 7965 7964 7962 ] final  -31.95 input  175.53 | X-H torsion
[ 8008 7997 7996 7995 ] final   96.62 input   59.86 | X-H torsion
[ 10167 10162 10161 10158 ] final -141.33 input  -65.29 | X-H torsion
[ 10718 10713 10712 10709 ] final -134.75 input   66.30 | X-H torsion
[ 10763 10752 10751 10750 ] final  -37.10 input  -60.55 | X-H torsion
[ 11005 11000 10999 10996 ] final  174.49 input  -57.11 | X-H torsion

> <Gold.Protein.ActiveResidues>
 VAL166  LYS551  ARG553  GLY616  TRP617  ASP618  TYR619  PRO620  LYS621  CYS622 
 ASP623  PHE694  ASN695  SER759  ASP760  ASP761  ALA762  ILE779  LEU786  VAL792 
 PHE793  MET794  SER795  GLU796  ALA797  LYS798  CYS799  TRP800  GLU811  SER814 

> <Gold.Protein.RotatedAtoms>
  152.4837  134.4652  159.9617 H   0  0  0  0  0  0  0  0  0  0  0  0  # atno 6907 bound_to 6896
  151.4653  133.3576  159.2823 H   0  0  0  0  0  0  0  0  0  0  0  0  # atno 6908 bound_to 6896
  150.8929  134.8360  159.7367 H   0  0  0  0  0  0  0  0  0  0  0  0  # atno 6909 bound_to 6896
  146.1028  140.5731  142.8813 H   0  0  0  0  0  0  0  0  0  0  0  0  # atno 7974 bound_to 7965
  156.0816  140.3270  155.7701 H   0  0  0  0  0  0  0  0  0  0  0  0  # atno 8008 bound_to 7997
  155.5144  140.0580  157.2935 H   0  0  0  0  0  0  0  0  0  0  0  0  # atno 8009 bound_to 7997
  154.4585  140.1955  156.0327 H   0  0  0  0  0  0  0  0  0  0  0  0  # atno 8010 bound_to 7997
  139.8195  143.7593  152.2666 H   0  0  0  0  0  0  0  0  0  0  0  0  # atno 10167 bound_to 10162
  156.2588  130.7197  151.1123 H   0  0  0  0  0  0  0  0  0  0  0  0  # atno 10718 bound_to 10713
  153.8908  135.6812  153.4761 H   0  0  0  0  0  0  0  0  0  0  0  0  # atno 10763 bound_to 10752
  153.1182  135.4752  154.9149 H   0  0  0  0  0  0  0  0  0  0  0  0  # atno 10764 bound_to 10752
  154.7623  135.3214  154.8306 H   0  0  0  0  0  0  0  0  0  0  0  0  # atno 10765 bound_to 10752
  140.3519  134.7187  157.4274 H   0  0  0  0  0  0  0  0  0  0  0  0  # atno 11005 bound_to 11000
  144.7446  140.5034  143.6844 LP  0  0  0  0  0  0  0  0  0  0  0  0  # atno 17320 bound_to 7965
  145.5821  139.1489  143.3230 LP  0  0  0  0  0  0  0  0  0  0  0  0  # atno 17321 bound_to 7965
  139.7767  144.7458  151.0146 LP  0  0  0  0  0  0  0  0  0  0  0  0  # atno 17342 bound_to 10162
  140.7814  143.4586  151.0310 LP  0  0  0  0  0  0  0  0  0  0  0  0  # atno 17343 bound_to 10162
  157.7242  131.0661  150.6003 LP  0  0  0  0  0  0  0  0  0  0  0  0  # atno 17370 bound_to 10713
  156.6089  130.4374  149.5867 LP  0  0  0  0  0  0  0  0  0  0  0  0  # atno 17371 bound_to 10713
  140.0696  134.5881  155.8657 LP  0  0  0  0  0  0  0  0  0  0  0  0  # atno 17394 bound_to 11000
  141.2009  133.6615  156.5924 LP  0  0  0  0  0  0  0  0  0  0  0  0  # atno 17395 bound_to 11000

$$$$
