AV-unprocessed.smi:699|AV-procd|sdf|3405|dock2
  -GOLD-   22720 0383D 1   1.00000     0.00000
 Structure written by MMmdl.
 35 36  0  0  0  0  0  0  0  0  2 V2000
  147.3099  134.4854  152.8337 N   0  0  0  0  0  0  0  0  0  0  0  0
  146.1733  133.9107  153.2354 C   0  0  0  0  0  0  0  0  0  0  0  0
  146.1685  132.8726  153.8950 O   0  0  0  0  0  0  0  0  0  0  0  0
  144.8562  134.6035  152.8228 C   0  0  2  0  0  0  0  0  0  0  0  0
  144.0325  133.7025  151.8909 C   0  0  0  0  0  0  0  0  0  0  0  0
  144.5163  134.0156  150.4725 C   0  0  0  0  0  0  0  0  0  0  0  0
  145.0088  135.4681  150.5070 C   0  0  0  0  0  0  0  0  0  0  0  0
  145.0254  135.9002  151.9858 C   0  0  2  0  0  0  0  0  0  0  0  0
  146.2252  136.6805  152.2953 N   0  0  0  0  0  0  0  0  0  0  0  0
  146.2301  137.8750  152.9033 C   0  0  0  0  0  0  0  0  0  0  0  0
  145.2062  138.4574  153.2593 O   0  0  0  0  0  0  0  0  0  0  0  0
  147.4839  138.3357  153.0568 N   0  0  0  0  0  0  0  0  0  0  0  0
  147.9235  139.5480  153.6565 C   0  0  0  0  0  0  0  0  0  0  0  0
  147.0938  140.6821  153.5106 C   0  0  0  0  0  0  0  0  0  0  0  0
  147.4891  141.9122  154.0745 C   0  0  0  0  0  0  0  0  0  0  0  0
  148.6597  142.0006  154.7413 N   0  3  0  0  0  0  0  0  0  0  0  0
  149.4922  140.9490  154.8963 C   0  0  0  0  0  0  0  0  0  0  0  0
  149.1505  139.6931  154.3540 C   0  0  0  0  0  0  0  0  0  0  0  0
  148.1962  134.0734  153.0876 H   0  0  0  0  0  0  0  0  0  0  0  0
  147.2809  135.3335  152.2863 H   0  0  0  0  0  0  0  0  0  0  0  0
  144.2865  134.8216  153.7280 H   0  0  0  0  0  0  0  0  0  0  0  0
  144.1196  132.6406  152.1268 H   0  0  0  0  0  0  0  0  0  0  0  0
  142.9770  133.9627  151.9815 H   0  0  0  0  0  0  0  0  0  0  0  0
  145.3422  133.3537  150.2090 H   0  0  0  0  0  0  0  0  0  0  0  0
  143.7305  133.8636  149.7317 H   0  0  0  0  0  0  0  0  0  0  0  0
  146.0003  135.5284  150.0555 H   0  0  0  0  0  0  0  0  0  0  0  0
  144.3539  136.1197  149.9270 H   0  0  0  0  0  0  0  0  0  0  0  0
  144.1484  136.5277  152.1562 H   0  0  0  0  0  0  0  0  0  0  0  0
  147.1106  136.2698  152.0367 H   0  0  0  0  0  0  0  0  0  0  0  0
  148.2120  137.7663  152.6507 H   0  0  0  0  0  0  0  0  0  0  0  0
  146.1577  140.6129  152.9753 H   0  0  0  0  0  0  0  0  0  0  0  0
  146.9093  142.8214  154.0107 H   0  0  0  0  0  0  0  0  0  0  0  0
  150.4047  141.1430  155.4412 H   0  0  0  0  0  0  0  0  0  0  0  0
  149.8423  138.8744  154.4760 H   0  0  0  0  0  0  0  0  0  0  0  0
  148.9284  142.9003  155.1410 H   0  0  0  0  0  0  0  0  0  0  0  0
  1  2  1  0  0  0  0
  1 19  1  0  0  0  0
  1 20  1  0  0  0  0
  2  3  2  0  0  0  0
  2  4  1  0  0  0  0
  4  8  1  0  0  0  0
  4  5  1  0  0  0  0
  4 21  1  0  0  0  0
  5  6  1  0  0  0  0
  5 22  1  0  0  0  0
  5 23  1  0  0  0  0
  6  7  1  0  0  0  0
  6 24  1  0  0  0  0
  6 25  1  0  0  0  0
  7  8  1  0  0  0  0
  7 26  1  0  0  0  0
  7 27  1  0  0  0  0
  8  9  1  0  0  0  0
  8 28  1  0  0  0  0
  9 10  1  0  0  0  0
  9 29  1  0  0  0  0
 10 11  2  0  0  0  0
 10 12  1  0  0  0  0
 12 13  1  0  0  0  0
 12 30  1  0  0  0  0
 13 18  1  0  0  0  0
 13 14  2  0  0  0  0
 14 15  1  0  0  0  0
 14 31  1  0  0  0  0
 15 16  2  0  0  0  0
 15 32  1  0  0  0  0
 16 17  1  0  0  0  0
 16 35  1  0  0  0  0
 17 18  2  0  0  0  0
 17 33  1  0  0  0  0
 18 34  1  0  0  0  0
M  CHG  1  16   1
M  END
> <s_m_source_file>
AV-unprocessed.smi

> <i_m_source_file_index>
699

> <i_lp_mmshare_version>
43012

> <i_f3d_flags>
0

> <s_epik_input>
W05IMl1DKD1PKVtDQEBIXTFbQ0gyXVtDSDJdW0NIMl1bQ0BIXTFbTkhdQyg9TylbTkhdYzJbY0hdW2NIXW5bY0hdW2NIXTI=

> <s_epik_cmdline>
J2VwaWtfcHl0aG9uJywgJy1waCcsICc3LjAnLCAnLXRuJywgJzgnLCAnLW1hJywgJzIwMCcsICctbWV0YWxfYmluZGluZycsICctaW1hZScsICc8aW5maWxlLm1hZT4nLCAnLW9tYWUnLCAnPG91dGZpbGUubWFlPic=

> <r_epik_Ionization_Penalty>
1.0332

> <r_epik_Ionization_Penalty_Charging>
1.03318

> <r_epik_Ionization_Penalty_Neutral>
1.91967e-05

> <r_epik_State_Penalty>
1.08452

> <r_epik_Charging_Adjusted_Penalty>
2.11769

> <i_epik_Tot_Q>
1

> <i_epik_Tot_abs_Q>
1

> <r_epik_Metal_State_Penalty>
1.18144

> <b_epik_Metal_Only>
0

> <s_lp_Force_Field>
OPLS_2005

> <r_lp_Energy>
24.8338

> <b_lp_Chiralities_Consistent>
1

> <s_lp_Variant>
AV-unprocessed.smi:699-7

> <Gold.Version>
5.8.1

> <Gold.Id.Protein>
6NUR|6NUR_protein|mol2

> <Gold.PLP.Fitness>
40.0275

> <Gold.PLP.PLP>
-27.5380

> <Gold.PLP.part.hbond>
-4.1013

> <Gold.PLP.part.metal>
0.0000

> <Gold.PLP.part.buried>
-3.8322

> <Gold.PLP.part.nonpolar>
-23.6562

> <Gold.PLP.part.repulsive>
3.5847

> <Gold.PLP.ligand.clash>
0.0000

> <Gold.PLP.ligand.torsion>
0.3167

> <Gold.PLP.Chemscore.Hbond>
4.3680

> <Gold.PLP.Chemscore.CHOScore>
0.0000

> <Gold.PLP.Chemscore.Metal>
0.0000

> <Gold.Chemscore.Hbonds>
donor molecule, donor type, donor heavy atom, donor atom, acceptor molecule, acceptor atom, score
      L1  H     1    20       P1  7948  0.37
      L1  H     9    29       P1  7948  1.00
      L1  H    12    30       P1  7948  1.00
      L1  H    16    35       P1  8028  2.00

> <Gold.PLP.Chemscore.Internal.Correction>
0.0189

> <Gold.Rescore>
     Score         DG    S(hbond)    S(metal)    S(lipo)     H(rot)  DE(clash)    DE(int)     intcor
     15.96     -20.13       3.48        0.00      58.84       1.50       0.88       3.29       ----

> <Gold.Chemscore.Fitness>
15.9605

> <Gold.Chemscore.DG>
-20.1276

> <Gold.Chemscore.ZeroCoef>
-5.4800

> <Gold.Chemscore.Hbond>
3.4771

> <Gold.Chemscore.Metal>
0.0000

> <Gold.Chemscore.Lipo>
58.8364

> <Gold.Chemscore.Internal_Hbond>
0.0000

> <Gold.Chemscore.DEClash>
0.8789

> <Gold.Chemscore.DEInternal>
3.2882

> <Gold.Chemscore.Rot>
1.5038

> <Gold.Chemscore.Internal.Correction>
   9.000000E+99

> <Gold.Chemscore.Hbonds>
donor molecule, donor type, donor heavy atom, donor atom, acceptor molecule, acceptor atom, score
      L1  H     1    20       P1  7948  0.38
      L1  H     9    29       P1  7948  0.99
      L1  H    12    30       P1  7948  0.99
      L1  H    16    35       P1  8028  1.00

> <Gold.Chemscore.Hbond.Weighted>
-11.6134

> <Gold.Chemscore.Metal.Weighted>
-0.0000

> <Gold.Chemscore.Lipo.Weighted>
-6.8839

> <Gold.Chemscore.Internal_Hbond.Weighted>
0.0000

> <Gold.Chemscore.DEClash.Weighted>
0.8789

> <Gold.Chemscore.DEInternal.Weighted>
3.2882

> <Gold.Chemscore.Rot.Weighted>
3.8496

> <Gold.Chemscore.Internal.Correction.Weighted>
   9.000000E+99

> <Gold.Protein.RotatedTorsions>
[ 6907 6896 6895 6894 ] final  -52.30 input  -60.11 | X-H torsion
[ 7974 7965 7964 7962 ] final -138.59 input  175.53 | X-H torsion
[ 8008 7997 7996 7995 ] final  -82.75 input   59.86 | X-H torsion
[ 10167 10162 10161 10158 ] final  -80.29 input  -65.29 | X-H torsion
[ 10718 10713 10712 10709 ] final -127.54 input   66.30 | X-H torsion
[ 10763 10752 10751 10750 ] final  163.12 input  -60.55 | X-H torsion
[ 11005 11000 10999 10996 ] final  117.03 input  -57.11 | X-H torsion

> <Gold.Protein.ActiveResidues>
 VAL166  LYS551  ARG553  GLY616  TRP617  ASP618  TYR619  PRO620  LYS621  CYS622 
 ASP623  PHE694  ASN695  SER759  ASP760  ASP761  ALA762  ILE779  LEU786  VAL792 
 PHE793  MET794  SER795  GLU796  ALA797  LYS798  CYS799  TRP800  GLU811  SER814 

> <Gold.Protein.RotatedAtoms>
  150.8530  134.7861  159.7023 H   0  0  0  0  0  0  0  0  0  0  0  0  # atno 6907 bound_to 6896
  152.4590  134.5224  159.9796 H   0  0  0  0  0  0  0  0  0  0  0  0  # atno 6908 bound_to 6896
  151.5341  133.3406  159.2959 H   0  0  0  0  0  0  0  0  0  0  0  0  # atno 6909 bound_to 6896
  144.8746  140.6417  143.5245 H   0  0  0  0  0  0  0  0  0  0  0  0  # atno 7974 bound_to 7965
  154.6119  140.0628  156.9504 H   0  0  0  0  0  0  0  0  0  0  0  0  # atno 8008 bound_to 7997
  155.1959  140.3311  155.4332 H   0  0  0  0  0  0  0  0  0  0  0  0  # atno 8009 bound_to 7997
  156.2381  140.1873  156.7046 H   0  0  0  0  0  0  0  0  0  0  0  0  # atno 8010 bound_to 7997
  140.4516  143.2481  151.8480 H   0  0  0  0  0  0  0  0  0  0  0  0  # atno 10167 bound_to 10162
  156.1866  130.6768  151.0372 H   0  0  0  0  0  0  0  0  0  0  0  0  # atno 10718 bound_to 10713
  154.2888  135.2761  155.2664 H   0  0  0  0  0  0  0  0  0  0  0  0  # atno 10763 bound_to 10752
  154.5152  135.5771  153.6640 H   0  0  0  0  0  0  0  0  0  0  0  0  # atno 10764 bound_to 10752
  152.9917  135.6191  154.3052 H   0  0  0  0  0  0  0  0  0  0  0  0  # atno 10765 bound_to 10752
  139.9061  134.9605  156.7289 H   0  0  0  0  0  0  0  0  0  0  0  0  # atno 11005 bound_to 11000
  145.4067  139.1587  143.4148 LP  0  0  0  0  0  0  0  0  0  0  0  0  # atno 17320 bound_to 7965
  146.2954  140.4168  142.8724 LP  0  0  0  0  0  0  0  0  0  0  0  0  # atno 17321 bound_to 7965
  139.4797  144.5113  151.8928 LP  0  0  0  0  0  0  0  0  0  0  0  0  # atno 17342 bound_to 10162
  140.4200  144.2256  150.5887 LP  0  0  0  0  0  0  0  0  0  0  0  0  # atno 17343 bound_to 10162
  157.6903  131.0812  150.7127 LP  0  0  0  0  0  0  0  0  0  0  0  0  # atno 17370 bound_to 10713
  156.7184  130.4673  149.5529 LP  0  0  0  0  0  0  0  0  0  0  0  0  # atno 17371 bound_to 10713
  140.6941  133.9364  155.7984 LP  0  0  0  0  0  0  0  0  0  0  0  0  # atno 17394 bound_to 11000
  141.0420  134.0608  157.3890 LP  0  0  0  0  0  0  0  0  0  0  0  0  # atno 17395 bound_to 11000

$$$$
