AV-unprocessed.smi:513|AV-procd|sdf|2774|dock5
  -GOLD-   2262023243D 1   1.00000     0.00000
 Structure written by MMmdl.
 42 44  0  0  0  0  0  0  0  0  3 V2000
  151.2087  135.2035  156.4532 C   0  0  0  0  0  0  0  0  0  0  0  0
  151.2790  136.1109  155.3676 O   0  0  0  0  0  0  0  0  0  0  0  0
  150.0507  136.7810  155.1422 C   0  0  0  0  0  0  0  0  0  0  0  0
  150.3337  138.1123  154.4371 C   0  0  0  0  0  0  0  0  0  0  0  0
  150.2223  139.2386  155.3614 N   0  0  0  0  0  0  0  0  0  0  0  0
  149.2598  140.2006  155.4067 C   0  0  0  0  0  0  0  0  0  0  0  0
  148.1765  140.2198  154.5257 N   0  0  0  0  0  0  0  0  0  0  0  0
  147.4853  141.4435  154.1278 C   0  0  0  0  0  0  0  0  0  0  0  0
  147.3210  141.5219  152.5989 C   0  0  0  0  0  0  0  0  0  0  0  0
  146.6190  140.3264  152.0869 N   0  3  0  0  0  0  0  0  0  0  0  0
  147.2419  139.0646  152.5379 C   0  0  0  0  0  0  0  0  0  0  0  0
  147.4056  139.0641  154.0691 C   0  0  0  0  0  0  0  0  0  0  0  0
  149.4673  141.1523  156.3179 N   0  0  0  0  0  0  0  0  0  0  0  0
  150.6512  140.7559  156.9201 C   0  0  0  0  0  0  0  0  0  0  0  0
  151.1343  139.6182  156.3526 C   0  0  0  0  0  0  0  0  0  0  0  0
  152.4135  138.9849  156.7453 C   0  0  0  0  0  0  0  0  0  0  0  0
  152.8265  137.9785  156.1735 O   0  0  0  0  0  0  0  0  0  0  0  0
  153.0306  139.6558  157.7687 N   0  5  0  0  0  0  0  0  0  0  0  0
  152.5716  140.8034  158.3786 C   0  0  0  0  0  0  0  0  0  0  0  0
  153.1936  141.3478  159.2919 O   0  0  0  0  0  0  0  0  0  0  0  0
  151.3928  141.3677  157.9671 N   0  0  0  0  0  0  0  0  0  0  0  0
  150.8854  142.5936  158.5899 C   0  0  0  0  0  0  0  0  0  0  0  0
  152.1729  134.7122  156.5833 H   0  0  0  0  0  0  0  0  0  0  0  0
  150.4591  134.4317  156.2742 H   0  0  0  0  0  0  0  0  0  0  0  0
  150.9655  135.7196  157.3829 H   0  0  0  0  0  0  0  0  0  0  0  0
  149.3889  136.1649  154.5314 H   0  0  0  0  0  0  0  0  0  0  0  0
  149.5499  136.9605  156.0950 H   0  0  0  0  0  0  0  0  0  0  0  0
  151.3222  138.0896  153.9917 H   0  0  0  0  0  0  0  0  0  0  0  0
  149.6603  138.2557  153.5944 H   0  0  0  0  0  0  0  0  0  0  0  0
  146.5118  141.4824  154.6184 H   0  0  0  0  0  0  0  0  0  0  0  0
  148.0449  142.3115  154.4787 H   0  0  0  0  0  0  0  0  0  0  0  0
  146.7627  142.4154  152.3188 H   0  0  0  0  0  0  0  0  0  0  0  0
  148.2991  141.5918  152.1205 H   0  0  0  0  0  0  0  0  0  0  0  0
  145.6697  140.3485  152.4307 H   0  0  0  0  0  0  0  0  0  0  0  0
  146.6250  138.2247  152.2187 H   0  0  0  0  0  0  0  0  0  0  0  0
  148.2107  138.9546  152.0493 H   0  0  0  0  0  0  0  0  0  0  0  0
  147.8635  138.1369  154.4121 H   0  0  0  0  0  0  0  0  0  0  0  0
  146.4232  139.0952  154.5422 H   0  0  0  0  0  0  0  0  0  0  0  0
  150.7689  142.4583  159.6662 H   0  0  0  0  0  0  0  0  0  0  0  0
  149.9159  142.8962  158.1956 H   0  0  0  0  0  0  0  0  0  0  0  0
  151.5790  143.4187  158.4230 H   0  0  0  0  0  0  0  0  0  0  0  0
  146.6025  140.3518  151.0774 H   0  0  0  0  0  0  0  0  0  0  0  0
  1  2  1  0  0  0  0
  1 23  1  0  0  0  0
  1 24  1  0  0  0  0
  1 25  1  0  0  0  0
  2  3  1  0  0  0  0
  3  4  1  0  0  0  0
  3 26  1  0  0  0  0
  3 27  1  0  0  0  0
  4  5  1  0  0  0  0
  4 28  1  0  0  0  0
  4 29  1  0  0  0  0
  5 15  1  0  0  0  0
  5  6  1  0  0  0  0
  6  7  1  0  0  0  0
  6 13  2  0  0  0  0
  7 12  1  0  0  0  0
  7  8  1  0  0  0  0
  8  9  1  0  0  0  0
  8 30  1  0  0  0  0
  8 31  1  0  0  0  0
  9 10  1  0  0  0  0
  9 32  1  0  0  0  0
  9 33  1  0  0  0  0
 10 11  1  0  0  0  0
 10 34  1  0  0  0  0
 10 42  1  0  0  0  0
 11 12  1  0  0  0  0
 11 35  1  0  0  0  0
 11 36  1  0  0  0  0
 12 37  1  0  0  0  0
 12 38  1  0  0  0  0
 13 14  1  0  0  0  0
 14 21  1  0  0  0  0
 14 15  2  0  0  0  0
 15 16  1  0  0  0  0
 16 17  2  0  0  0  0
 16 18  1  0  0  0  0
 18 19  1  0  0  0  0
 19 20  2  0  0  0  0
 19 21  1  0  0  0  0
 21 22  1  0  0  0  0
 22 39  1  0  0  0  0
 22 40  1  0  0  0  0
 22 41  1  0  0  0  0
M  CHG  1  10   1
M  CHG  1  18  -1
M  END
> <s_m_source_file>
AV-unprocessed.smi

> <i_m_source_file_index>
513

> <i_lp_mmshare_version>
43012

> <i_f3d_flags>
0

> <s_epik_input>
W0NIM11uMWMoPU8pW25IXWMoPU8pYyhjMTIpbihbQ0gyXVtDSDJdT1tDSDNdKWMobjIpTjNbQ0gyXVtDSDJdW05IXVtDSDJdW0NIMl0z

> <s_epik_cmdline>
J2VwaWtfcHl0aG9uJywgJy1waCcsICc3LjAnLCAnLXRuJywgJzgnLCAnLW1hJywgJzIwMCcsICctbWV0YWxfYmluZGluZycsICctaW1hZScsICc8aW5maWxlLm1hZT4nLCAnLW9tYWUnLCAnPG91dGZpbGUubWFlPic=

> <r_epik_Ionization_Penalty>
5.91573

> <r_epik_Ionization_Penalty_Charging>
0.0691516

> <r_epik_Ionization_Penalty_Neutral>
5.84657

> <r_epik_State_Penalty>
5.85298

> <r_epik_Charging_Adjusted_Penalty>
5.92213

> <i_epik_Tot_Q>
0

> <i_epik_Tot_abs_Q>
2

> <r_epik_Metal_State_Penalty>
1.81849

> <b_epik_Metal_Only>
1

> <s_lp_Force_Field>
OPLS_2005

> <r_lp_Energy>
49.8146

> <b_lp_Chiralities_Consistent>
1

> <s_lp_Variant>
AV-unprocessed.smi:513-3

> <Gold.Version>
5.8.1

> <Gold.Id.Protein>
6NUR|6NUR_protein|mol2

> <Gold.PLP.Fitness>
40.6905

> <Gold.PLP.PLP>
-27.2181

> <Gold.PLP.part.hbond>
-3.3102

> <Gold.PLP.part.metal>
0.0000

> <Gold.PLP.part.buried>
-3.6664

> <Gold.PLP.part.nonpolar>
-20.6751

> <Gold.PLP.part.repulsive>
0.2157

> <Gold.PLP.ligand.clash>
0.0000

> <Gold.PLP.ligand.torsion>
1.0404

> <Gold.PLP.Chemscore.Hbond>
5.0000

> <Gold.PLP.Chemscore.CHOScore>
0.0000

> <Gold.PLP.Chemscore.Metal>
0.0000

> <Gold.Chemscore.Hbonds>
donor molecule, donor type, donor heavy atom, donor atom, acceptor molecule, acceptor atom, score
      L1  H    10    34       P1 10175  2.00
      P1  H  7997  8009       L1    18  2.00
      P1  H 10752 10763       L1     2  1.00

> <Gold.PLP.Chemscore.Internal.Correction>
0.5532

> <Gold.Rescore>
     Score         DG    S(hbond)    S(metal)    S(lipo)     H(rot)  DE(clash)    DE(int)     intcor
      9.00     -13.50       1.75        0.00      52.51       1.55       1.57       2.93       ----

> <Gold.Chemscore.Fitness>
9.0028

> <Gold.Chemscore.DG>
-13.5007

> <Gold.Chemscore.ZeroCoef>
-5.4800

> <Gold.Chemscore.Hbond>
1.7521

> <Gold.Chemscore.Metal>
0.0000

> <Gold.Chemscore.Lipo>
52.5062

> <Gold.Chemscore.Internal_Hbond>
0.0000

> <Gold.Chemscore.DEClash>
1.5668

> <Gold.Chemscore.DEInternal>
2.9311

> <Gold.Chemscore.Rot>
1.5526

> <Gold.Chemscore.Internal.Correction>
   9.000000E+99

> <Gold.Chemscore.Hbonds>
donor molecule, donor type, donor heavy atom, donor atom, acceptor molecule, acceptor atom, score
      L1  H    10    34       P1 10175  0.58
      P1  H  7997  8009       L1    18  0.23
      P1  H 10752 10763       L1     2  0.47

> <Gold.Chemscore.Hbond.Weighted>
-5.8520

> <Gold.Chemscore.Metal.Weighted>
-0.0000

> <Gold.Chemscore.Lipo.Weighted>
-6.1432

> <Gold.Chemscore.Internal_Hbond.Weighted>
0.0000

> <Gold.Chemscore.DEClash.Weighted>
1.5668

> <Gold.Chemscore.DEInternal.Weighted>
2.9311

> <Gold.Chemscore.Rot.Weighted>
3.9745

> <Gold.Chemscore.Internal.Correction.Weighted>
   9.000000E+99

> <Gold.Protein.RotatedTorsions>
[ 6907 6896 6895 6894 ] final   96.46 input  -60.11 | X-H torsion
[ 7974 7965 7964 7962 ] final  -37.22 input  175.53 | X-H torsion
[ 8008 7997 7996 7995 ] final  148.26 input   59.86 | X-H torsion
[ 10167 10162 10161 10158 ] final -133.57 input  -65.29 | X-H torsion
[ 10718 10713 10712 10709 ] final  -51.71 input   66.30 | X-H torsion
[ 10763 10752 10751 10750 ] final   47.61 input  -60.55 | X-H torsion
[ 11005 11000 10999 10996 ] final  -75.64 input  -57.11 | X-H torsion

> <Gold.Protein.ActiveResidues>
 VAL166  LYS551  ARG553  GLY616  TRP617  ASP618  TYR619  PRO620  LYS621  CYS622 
 ASP623  PHE694  ASN695  SER759  ASP760  ASP761  ALA762  ILE779  LEU786  VAL792 
 PHE793  MET794  SER795  GLU796  ALA797  LYS798  CYS799  TRP800  GLU811  SER814 

> <Gold.Protein.RotatedAtoms>
  152.5434  134.0883  159.8265 H   0  0  0  0  0  0  0  0  0  0  0  0  # atno 6907 bound_to 6896
  151.0975  133.5261  159.2619 H   0  0  0  0  0  0  0  0  0  0  0  0  # atno 6908 bound_to 6896
  151.2028  135.0459  159.8933 H   0  0  0  0  0  0  0  0  0  0  0  0  # atno 6909 bound_to 6896
  146.0594  140.6370  142.9004 H   0  0  0  0  0  0  0  0  0  0  0  0  # atno 7974 bound_to 7965
  156.2797  140.2133  156.5670 H   0  0  0  0  0  0  0  0  0  0  0  0  # atno 8008 bound_to 7997
  154.7166  140.0507  157.0623 H   0  0  0  0  0  0  0  0  0  0  0  0  # atno 8009 bound_to 7997
  155.0534  140.3158  155.4687 H   0  0  0  0  0  0  0  0  0  0  0  0  # atno 8010 bound_to 7997
  139.8969  143.6655  152.2602 H   0  0  0  0  0  0  0  0  0  0  0  0  # atno 10167 bound_to 10162
  156.1685  130.4149  149.9683 H   0  0  0  0  0  0  0  0  0  0  0  0  # atno 10718 bound_to 10713
  152.9798  135.5970  154.3791 H   0  0  0  0  0  0  0  0  0  0  0  0  # atno 10763 bound_to 10752
  154.3458  135.2767  155.2400 H   0  0  0  0  0  0  0  0  0  0  0  0  # atno 10764 bound_to 10752
  154.4462  135.6001  153.6216 H   0  0  0  0  0  0  0  0  0  0  0  0  # atno 10765 bound_to 10752
  141.1647  133.6954  156.7547 H   0  0  0  0  0  0  0  0  0  0  0  0  # atno 11005 bound_to 11000
  144.7166  140.4231  143.7039 LP  0  0  0  0  0  0  0  0  0  0  0  0  # atno 17320 bound_to 7965
  145.6587  139.1577  143.2821 LP  0  0  0  0  0  0  0  0  0  0  0  0  # atno 17321 bound_to 7965
  139.7060  144.7628  151.1192 LP  0  0  0  0  0  0  0  0  0  0  0  0  # atno 17342 bound_to 10162
  140.7715  143.5394  150.9330 LP  0  0  0  0  0  0  0  0  0  0  0  0  # atno 17343 bound_to 10162
  156.7490  130.9108  151.3636 LP  0  0  0  0  0  0  0  0  0  0  0  0  # atno 17370 bound_to 10713
  157.6786  130.9118  150.0210 LP  0  0  0  0  0  0  0  0  0  0  0  0  # atno 17371 bound_to 10713
  140.2578  134.8490  157.3729 LP  0  0  0  0  0  0  0  0  0  0  0  0  # atno 17394 bound_to 11000
  140.1640  134.4692  155.7875 LP  0  0  0  0  0  0  0  0  0  0  0  0  # atno 17395 bound_to 11000

$$$$
