AV-unprocessed.smi:408|AV-procd|sdf|2503|dock3
  -GOLD-   2262022453D 1   1.00000     0.00000
 Structure written by MMmdl.
 41 42  0  0  0  0  0  0  0  0  1 V2000
  152.5877  142.7887  159.7834 C   0  0  0  0  0  0  0  0  0  0  0  0
  152.0222  143.9387  158.9332 C   0  0  0  0  0  0  0  0  0  0  0  0
  151.7010  145.1515  159.8200 C   0  0  0  0  0  0  0  0  0  0  0  0
  150.7824  143.5174  158.1181 C   0  0  0  0  0  0  0  0  0  0  0  0
  151.0333  142.3463  157.1492 C   0  0  0  0  0  0  0  0  0  0  0  0
  150.0411  142.3156  156.0807 N   0  0  0  0  0  0  0  0  0  0  0  0
  149.4689  141.2048  155.5904 C   0  0  0  0  0  0  0  0  0  0  0  0
  149.7264  140.0750  156.0088 O   0  0  0  0  0  0  0  0  0  0  0  0
  148.4692  141.4064  154.4453 C   0  0  0  0  0  0  0  0  0  0  0  0
  147.2229  142.0972  154.9219 C   0  0  0  0  0  0  0  0  0  0  0  0
  146.2034  142.5932  154.1458 C   0  0  0  0  0  0  0  0  0  0  0  0
  144.9434  143.3193  155.1076 S   0  0  0  0  0  0  0  0  0  0  0  0
  145.8710  142.9335  156.5488 C   0  0  0  0  0  0  0  0  0  0  0  0
  145.4038  143.2640  157.8501 N   0  0  0  0  0  0  0  0  0  0  0  0
  145.8523  142.8862  159.0654 C   0  0  0  0  0  0  0  0  0  0  0  0
  146.8299  142.1456  159.1579 O   0  0  0  0  0  0  0  0  0  0  0  0
  145.1544  143.3977  160.2856 C   0  0  0  0  0  0  0  0  0  0  0  0
  145.9523  144.2796  161.2277 C   0  0  0  0  0  0  0  0  0  0  0  0
  145.6139  142.8686  161.6295 C   0  0  0  0  0  0  0  0  0  0  0  0
  147.0071  142.2777  156.2916 N   0  0  0  0  0  0  0  0  0  0  0  0
  151.8377  142.3988  160.4720 H   0  0  0  0  0  0  0  0  0  0  0  0
  153.4395  143.1230  160.3765 H   0  0  0  0  0  0  0  0  0  0  0  0
  152.9350  141.9627  159.1634 H   0  0  0  0  0  0  0  0  0  0  0  0
  152.7981  144.2490  158.2319 H   0  0  0  0  0  0  0  0  0  0  0  0
  150.9214  144.9167  160.5455 H   0  0  0  0  0  0  0  0  0  0  0  0
  151.3564  145.9963  159.2229 H   0  0  0  0  0  0  0  0  0  0  0  0
  152.5816  145.4803  160.3727 H   0  0  0  0  0  0  0  0  0  0  0  0
  149.9651  143.2654  158.7954 H   0  0  0  0  0  0  0  0  0  0  0  0
  150.4388  144.3771  157.5411 H   0  0  0  0  0  0  0  0  0  0  0  0
  152.0376  142.4054  156.7261 H   0  0  0  0  0  0  0  0  0  0  0  0
  150.9735  141.3952  157.6773 H   0  0  0  0  0  0  0  0  0  0  0  0
  149.7769  143.2036  155.6790 H   0  0  0  0  0  0  0  0  0  0  0  0
  148.9358  141.9826  153.6448 H   0  0  0  0  0  0  0  0  0  0  0  0
  148.2296  140.4304  154.0220 H   0  0  0  0  0  0  0  0  0  0  0  0
  146.1187  142.5765  153.0695 H   0  0  0  0  0  0  0  0  0  0  0  0
  144.6346  143.9178  157.8671 H   0  0  0  0  0  0  0  0  0  0  0  0
  144.1096  143.6758  160.1614 H   0  0  0  0  0  0  0  0  0  0  0  0
  146.9941  144.4917  160.9933 H   0  0  0  0  0  0  0  0  0  0  0  0
  145.4170  145.0906  161.7170 H   0  0  0  0  0  0  0  0  0  0  0  0
  144.8460  142.7164  162.3853 H   0  0  0  0  0  0  0  0  0  0  0  0
  146.4251  142.1426  161.6445 H   0  0  0  0  0  0  0  0  0  0  0  0
  1  2  1  0  0  0  0
  1 21  1  0  0  0  0
  1 22  1  0  0  0  0
  1 23  1  0  0  0  0
  2  3  1  0  0  0  0
  2  4  1  0  0  0  0
  2 24  1  0  0  0  0
  3 25  1  0  0  0  0
  3 26  1  0  0  0  0
  3 27  1  0  0  0  0
  4  5  1  0  0  0  0
  4 28  1  0  0  0  0
  4 29  1  0  0  0  0
  5  6  1  0  0  0  0
  5 30  1  0  0  0  0
  5 31  1  0  0  0  0
  6  7  1  0  0  0  0
  6 32  1  0  0  0  0
  7  8  2  0  0  0  0
  7  9  1  0  0  0  0
  9 10  1  0  0  0  0
  9 33  1  0  0  0  0
  9 34  1  0  0  0  0
 10 20  1  0  0  0  0
 10 11  2  0  0  0  0
 11 12  1  0  0  0  0
 11 35  1  0  0  0  0
 12 13  1  0  0  0  0
 13 14  1  0  0  0  0
 13 20  2  0  0  0  0
 14 15  1  0  0  0  0
 14 36  1  0  0  0  0
 15 16  2  0  0  0  0
 15 17  1  0  0  0  0
 17 19  1  0  0  0  0
 17 18  1  0  0  0  0
 17 37  1  0  0  0  0
 18 19  1  0  0  0  0
 18 38  1  0  0  0  0
 18 39  1  0  0  0  0
 19 40  1  0  0  0  0
 19 41  1  0  0  0  0
M  END
> <s_m_source_file>
AV-unprocessed.smi

> <i_m_source_file_index>
408

> <i_lp_mmshare_version>
43012

> <i_f3d_flags>
0

> <s_epik_input>
W0NIM11bQ0hdKFtDSDNdKVtDSDJdW0NIMl1bTkhdQyg9TylbQ0gyXWMxW2NIXXNjKG4xKVtOSF1DKD1PKVtDSF0yW0NIMl1bQ0gyXTI=

> <s_epik_cmdline>
J2VwaWtfcHl0aG9uJywgJy1waCcsICc3LjAnLCAnLXRuJywgJzgnLCAnLW1hJywgJzIwMCcsICctbWV0YWxfYmluZGluZycsICctaW1hZScsICc8aW5maWxlLm1hZT4nLCAnLW9tYWUnLCAnPG91dGZpbGUubWFlPic=

> <r_lp_tautomer_probability>
1

> <r_epik_Ionization_Penalty>
0.000153743

> <r_epik_Ionization_Penalty_Charging>
0

> <r_epik_Ionization_Penalty_Neutral>
0.000153743

> <r_epik_State_Penalty>
-0

> <r_epik_Charging_Adjusted_Penalty>
0

> <i_epik_Tot_Q>
0

> <i_epik_Tot_abs_Q>
0

> <r_epik_Metal_State_Penalty>
0.0946566

> <b_epik_Metal_Only>
0

> <s_lp_Force_Field>
OPLS_2005

> <r_lp_Energy>
15.0159

> <b_lp_Chiralities_Consistent>
1

> <s_lp_Variant>
AV-unprocessed.smi:408-1

> <Gold.Version>
5.8.1

> <Gold.Id.Protein>
6NUR|6NUR_protein|mol2

> <Gold.PLP.Fitness>
47.2390

> <Gold.PLP.PLP>
-42.8398

> <Gold.PLP.part.hbond>
-2.0658

> <Gold.PLP.part.metal>
0.0000

> <Gold.PLP.part.buried>
-6.6105

> <Gold.PLP.part.nonpolar>
-35.7561

> <Gold.PLP.part.repulsive>
0.8397

> <Gold.PLP.ligand.clash>
0.0000

> <Gold.PLP.ligand.torsion>
0.4579

> <Gold.PLP.Chemscore.Hbond>
1.7360

> <Gold.PLP.Chemscore.CHOScore>
0.0000

> <Gold.PLP.Chemscore.Metal>
0.0000

> <Gold.Chemscore.Hbonds>
donor molecule, donor type, donor heavy atom, donor atom, acceptor molecule, acceptor atom, score
      L1  H     6    32       P1  8028  1.00
      P1  H  6934  6946       L1    16  0.80

> <Gold.PLP.Chemscore.Internal.Correction>
0.1070

> <Gold.Rescore>
     Score         DG    S(hbond)    S(metal)    S(lipo)     H(rot)  DE(clash)    DE(int)     intcor
     15.00     -16.95       1.77        0.00      91.18       1.99       0.00       1.95       ----

> <Gold.Chemscore.Fitness>
14.9975

> <Gold.Chemscore.DG>
-16.9507

> <Gold.Chemscore.ZeroCoef>
-5.4800

> <Gold.Chemscore.Hbond>
1.7655

> <Gold.Chemscore.Metal>
0.0000

> <Gold.Chemscore.Lipo>
91.1811

> <Gold.Chemscore.Internal_Hbond>
0.0000

> <Gold.Chemscore.DEClash>
0.0038

> <Gold.Chemscore.DEInternal>
1.9495

> <Gold.Chemscore.Rot>
1.9899

> <Gold.Chemscore.Internal.Correction>
   9.000000E+99

> <Gold.Chemscore.Hbonds>
donor molecule, donor type, donor heavy atom, donor atom, acceptor molecule, acceptor atom, score
      L1  H     6    32       P1  8028  0.98
      P1  H  6934  6946       L1    16  0.73

> <Gold.Chemscore.Hbond.Weighted>
-5.8967

> <Gold.Chemscore.Metal.Weighted>
-0.0000

> <Gold.Chemscore.Lipo.Weighted>
-10.6682

> <Gold.Chemscore.Internal_Hbond.Weighted>
0.0000

> <Gold.Chemscore.DEClash.Weighted>
0.0038

> <Gold.Chemscore.DEInternal.Weighted>
1.9495

> <Gold.Chemscore.Rot.Weighted>
5.0941

> <Gold.Chemscore.Internal.Correction.Weighted>
   9.000000E+99

> <Gold.Protein.RotatedTorsions>
[ 6907 6896 6895 6894 ] final   15.26 input  -60.11 | X-H torsion
[ 7974 7965 7964 7962 ] final  -67.25 input  175.53 | X-H torsion
[ 8008 7997 7996 7995 ] final  -27.19 input   59.86 | X-H torsion
[ 10167 10162 10161 10158 ] final   86.96 input  -65.29 | X-H torsion
[ 10718 10713 10712 10709 ] final -120.65 input   66.30 | X-H torsion
[ 10763 10752 10751 10750 ] final  126.91 input  -60.55 | X-H torsion
[ 11005 11000 10999 10996 ] final  -71.32 input  -57.11 | X-H torsion

> <Gold.Protein.ActiveResidues>
 VAL166  LYS551  ARG553  GLY616  TRP617  ASP618  TYR619  PRO620  LYS621  CYS622 
 ASP623  PHE694  ASN695  SER759  ASP760  ASP761  ALA762  ILE779  LEU786  VAL792 
 PHE793  MET794  SER795  GLU796  ALA797  LYS798  CYS799  TRP800  GLU811  SER814 

> <Gold.Protein.RotatedAtoms>
  151.8153  135.0668  160.0417 H   0  0  0  0  0  0  0  0  0  0  0  0  # atno 6907 bound_to 6896
  152.2991  133.5632  159.5615 H   0  0  0  0  0  0  0  0  0  0  0  0  # atno 6908 bound_to 6896
  150.7265  134.0234  159.3751 H   0  0  0  0  0  0  0  0  0  0  0  0  # atno 6909 bound_to 6896
  145.7315  140.8994  143.0577 H   0  0  0  0  0  0  0  0  0  0  0  0  # atno 7974 bound_to 7965
  154.4389  140.1879  156.0893 H   0  0  0  0  0  0  0  0  0  0  0  0  # atno 8008 bound_to 7997
  156.0378  140.3323  155.7184 H   0  0  0  0  0  0  0  0  0  0  0  0  # atno 8009 bound_to 7997
  155.5745  140.0616  157.2789 H   0  0  0  0  0  0  0  0  0  0  0  0  # atno 8010 bound_to 7997
  139.8823  144.6433  150.8830 H   0  0  0  0  0  0  0  0  0  0  0  0  # atno 10167 bound_to 10162
  156.1274  130.6370  150.9566 H   0  0  0  0  0  0  0  0  0  0  0  0  # atno 10718 bound_to 10713
  153.7009  135.3283  155.3224 H   0  0  0  0  0  0  0  0  0  0  0  0  # atno 10763 bound_to 10752
  154.8413  135.4454  154.1412 H   0  0  0  0  0  0  0  0  0  0  0  0  # atno 10764 bound_to 10752
  153.2479  135.6978  153.7790 H   0  0  0  0  0  0  0  0  0  0  0  0  # atno 10765 bound_to 10752
  141.1590  133.6814  156.6888 H   0  0  0  0  0  0  0  0  0  0  0  0  # atno 11005 bound_to 11000
  144.6892  139.9338  143.7472 LP  0  0  0  0  0  0  0  0  0  0  0  0  # atno 17320 bound_to 7965
  146.0533  139.3532  143.0626 LP  0  0  0  0  0  0  0  0  0  0  0  0  # atno 17321 bound_to 7965
  140.7742  143.3576  151.1891 LP  0  0  0  0  0  0  0  0  0  0  0  0  # atno 17342 bound_to 10162
  139.7185  143.9261  152.2976 LP  0  0  0  0  0  0  0  0  0  0  0  0  # atno 17343 bound_to 10162
  157.6455  131.0904  150.8162 LP  0  0  0  0  0  0  0  0  0  0  0  0  # atno 17370 bound_to 10713
  156.8251  130.4997  149.5338 LP  0  0  0  0  0  0  0  0  0  0  0  0  # atno 17371 bound_to 10713
  140.3046  134.8136  157.4126 LP  0  0  0  0  0  0  0  0  0  0  0  0  # atno 17394 bound_to 11000
  140.1232  134.5192  155.8166 LP  0  0  0  0  0  0  0  0  0  0  0  0  # atno 17395 bound_to 11000

$$$$
