AV-unprocessed.smi:1697|AV-procd|sdf|6803|dock2
  -GOLD-   22720 7573D 1   1.00000     0.00000
 Structure written by MMmdl.
 54 56  0  0  0  0  0  0  0  0  2 V2000
  151.2828  141.1720  156.5366 C   0  0  0  0  0  0  0  0  0  0  0  0
  150.6968  139.9000  155.9200 C   0  0  0  0  0  0  0  0  0  0  0  0
  150.0771  140.2364  154.6876 O   0  0  0  0  0  0  0  0  0  0  0  0
  148.7668  139.7116  154.5198 C   0  0  2  0  0  0  0  0  0  0  0  0
  148.7405  138.1879  154.7440 C   0  0  0  0  0  0  0  0  0  0  0  0
  147.3643  137.5979  154.3922 C   0  0  0  0  0  0  0  0  0  0  0  0
  146.9813  137.9270  152.9934 N   0  3  1  0  0  0  0  0  0  0  0  0
  145.7263  137.2649  152.5528 C   0  0  0  0  0  0  0  0  0  0  0  0
  145.9365  136.3816  151.3074 C   0  0  2  0  0  0  0  0  0  0  0  0
  146.3421  137.2038  150.2293 O   0  0  0  0  0  0  0  0  0  0  0  0
  144.6539  135.6236  150.9142 C   0  0  0  0  0  0  0  0  0  0  0  0
  144.8294  134.1834  150.9609 N   0  0  0  0  0  0  0  0  0  0  0  0
  144.1498  133.2545  150.2608 C   0  0  0  0  0  0  0  0  0  0  0  0
  144.4836  131.9819  150.4543 N   0  0  0  0  0  0  0  0  0  0  0  0
  145.4953  132.0982  151.3920 C   0  0  0  0  0  0  0  0  0  0  0  0
  146.2807  131.1083  152.0219 C   0  0  0  0  0  0  0  0  0  0  0  0
  147.2737  131.4615  152.9632 C   0  0  0  0  0  0  0  0  0  0  0  0
  148.0974  130.3645  153.6145 C   0  0  0  0  0  0  0  0  0  0  0  0
  147.4918  132.8244  153.2890 C   0  0  0  0  0  0  0  0  0  0  0  0
  148.5503  133.2268  154.3004 C   0  0  0  0  0  0  0  0  0  0  0  0
  146.7176  133.8264  152.6675 C   0  0  0  0  0  0  0  0  0  0  0  0
  145.7339  133.4620  151.7315 C   0  0  0  0  0  0  0  0  0  0  0  0
  146.9597  139.3948  152.7673 C   0  0  0  0  0  0  0  0  0  0  0  0
  148.3286  140.0202  153.0807 C   0  0  0  0  0  0  0  0  0  0  0  0
  151.7656  140.9561  157.4901 H   0  0  0  0  0  0  0  0  0  0  0  0
  150.5047  141.9144  156.7159 H   0  0  0  0  0  0  0  0  0  0  0  0
  152.0281  141.6192  155.8781 H   0  0  0  0  0  0  0  0  0  0  0  0
  151.4899  139.1677  155.7694 H   0  0  0  0  0  0  0  0  0  0  0  0
  149.9668  139.4621  156.6023 H   0  0  0  0  0  0  0  0  0  0  0  0
  148.0749  140.2031  155.2064 H   0  0  0  0  0  0  0  0  0  0  0  0
  149.5077  137.7125  154.1312 H   0  0  0  0  0  0  0  0  0  0  0  0
  148.9793  137.9477  155.7798 H   0  0  0  0  0  0  0  0  0  0  0  0
  147.3968  136.5185  154.5344 H   0  0  0  0  0  0  0  0  0  0  0  0
  146.6074  137.9821  155.0780 H   0  0  0  0  0  0  0  0  0  0  0  0
  145.3208  136.6773  153.3779 H   0  0  0  0  0  0  0  0  0  0  0  0
  144.9706  138.0164  152.3179 H   0  0  0  0  0  0  0  0  0  0  0  0
  146.7254  135.6528  151.4910 H   0  0  0  0  0  0  0  0  0  0  0  0
  145.6313  137.7861  150.0067 H   0  0  0  0  0  0  0  0  0  0  0  0
  143.8387  135.8867  151.5894 H   0  0  0  0  0  0  0  0  0  0  0  0
  144.3308  135.9057  149.9108 H   0  0  0  0  0  0  0  0  0  0  0  0
  143.3695  133.5277  149.5656 H   0  0  0  0  0  0  0  0  0  0  0  0
  146.1130  130.0703  151.7748 H   0  0  0  0  0  0  0  0  0  0  0  0
  147.9551  130.3706  154.6954 H   0  0  0  0  0  0  0  0  0  0  0  0
  149.1575  130.5060  153.4029 H   0  0  0  0  0  0  0  0  0  0  0  0
  147.8118  129.3791  153.2449 H   0  0  0  0  0  0  0  0  0  0  0  0
  148.5658  134.3065  154.4519 H   0  0  0  0  0  0  0  0  0  0  0  0
  149.5398  132.9218  153.9589 H   0  0  0  0  0  0  0  0  0  0  0  0
  148.3564  132.7570  155.2650 H   0  0  0  0  0  0  0  0  0  0  0  0
  146.8739  134.8680  152.9055 H   0  0  0  0  0  0  0  0  0  0  0  0
  146.7040  139.6042  151.7278 H   0  0  0  0  0  0  0  0  0  0  0  0
  146.1840  139.8506  153.3847 H   0  0  0  0  0  0  0  0  0  0  0  0
  148.2876  141.0993  152.9281 H   0  0  0  0  0  0  0  0  0  0  0  0
  149.0714  139.6375  152.3791 H   0  0  0  0  0  0  0  0  0  0  0  0
  147.7107  137.5642  152.3954 H   0  0  0  0  0  0  0  0  0  0  0  0
  1  2  1  0  0  0  0
  1 25  1  0  0  0  0
  1 26  1  0  0  0  0
  1 27  1  0  0  0  0
  2  3  1  0  0  0  0
  2 28  1  0  0  0  0
  2 29  1  0  0  0  0
  3  4  1  0  0  0  0
  4 24  1  0  0  0  0
  4  5  1  0  0  0  0
  4 30  1  0  0  0  0
  5  6  1  0  0  0  0
  5 31  1  0  0  0  0
  5 32  1  0  0  0  0
  6  7  1  0  0  0  0
  6 33  1  0  0  0  0
  6 34  1  0  0  0  0
  7  8  1  0  0  0  0
  7 23  1  0  0  0  0
  7 54  1  0  0  0  0
  8  9  1  0  0  0  0
  8 35  1  0  0  0  0
  8 36  1  0  0  0  0
  9 10  1  0  0  0  0
  9 11  1  0  0  0  0
  9 37  1  0  0  0  0
 10 38  1  0  0  0  0
 11 12  1  0  0  0  0
 11 39  1  0  0  0  0
 11 40  1  0  0  0  0
 12 22  1  0  0  0  0
 12 13  1  0  0  0  0
 13 14  2  0  0  0  0
 13 41  1  0  0  0  0
 14 15  1  0  0  0  0
 15 22  2  0  0  0  0
 15 16  1  0  0  0  0
 16 17  2  0  0  0  0
 16 42  1  0  0  0  0
 17 18  1  0  0  0  0
 17 19  1  0  0  0  0
 18 43  1  0  0  0  0
 18 44  1  0  0  0  0
 18 45  1  0  0  0  0
 19 20  1  0  0  0  0
 19 21  2  0  0  0  0
 20 46  1  0  0  0  0
 20 47  1  0  0  0  0
 20 48  1  0  0  0  0
 21 22  1  0  0  0  0
 21 49  1  0  0  0  0
 23 24  1  0  0  0  0
 23 50  1  0  0  0  0
 23 51  1  0  0  0  0
 24 52  1  0  0  0  0
 24 53  1  0  0  0  0
M  CHG  1   7   1
M  END
> <s_m_source_file>
AV-unprocessed.smi

> <i_m_source_file_index>
1697

> <i_lp_mmshare_version>
43012

> <i_f3d_flags>
0

> <s_epik_input>
W0NIM11bQ0gyXU9bQ0hdMVtDSDJdW0NIMl1OKFtDSDJdW0NIMl0xKVtDSDJdW0NASF0oW09IXSlbQ0gyXW4oW2NIXW4yKWMoYzIzKVtjSF1jKFtDSDNdKWMoW2NIXTMpW0NIM10=

> <s_epik_cmdline>
J2VwaWtfcHl0aG9uJywgJy1waCcsICc3LjAnLCAnLXRuJywgJzgnLCAnLW1hJywgJzIwMCcsICctbWV0YWxfYmluZGluZycsICctaW1hZScsICc8aW5maWxlLm1hZT4nLCAnLW9tYWUnLCAnPG91dGZpbGUubWFlPic=

> <r_epik_Ionization_Penalty>
0.112476

> <r_epik_Ionization_Penalty_Charging>
0.0244612

> <r_epik_Ionization_Penalty_Neutral>
0.0880147

> <r_epik_State_Penalty>
0.0961447

> <r_epik_Charging_Adjusted_Penalty>
0.120606

> <i_epik_Tot_Q>
1

> <i_epik_Tot_abs_Q>
1

> <r_epik_Metal_State_Penalty>
0.0206204

> <b_epik_Metal_Only>
0

> <s_lp_Force_Field>
OPLS_2005

> <r_lp_Energy>
22.6968

> <b_lp_Chiralities_Consistent>
1

> <s_lp_Variant>
AV-unprocessed.smi:1697-1

> <Gold.Version>
5.8.1

> <Gold.Id.Protein>
6NUR|6NUR_protein|mol2

> <Gold.PLP.Fitness>
52.9643

> <Gold.PLP.PLP>
-39.9081

> <Gold.PLP.part.hbond>
-4.1788

> <Gold.PLP.part.metal>
0.0000

> <Gold.PLP.part.buried>
2.5956

> <Gold.PLP.part.nonpolar>
-38.3481

> <Gold.PLP.part.repulsive>
0.2815

> <Gold.PLP.ligand.clash>
0.0595

> <Gold.PLP.ligand.torsion>
2.2036

> <Gold.PLP.Chemscore.Hbond>
4.6960

> <Gold.PLP.Chemscore.CHOScore>
1.0000

> <Gold.PLP.Chemscore.Metal>
0.0000

> <Gold.Chemscore.Hbonds>
donor molecule, donor type, donor heavy atom, donor atom, acceptor molecule, acceptor atom, score
      L1  H     7    54       P1  7948  2.00
      L1  H    10    38       P1 10171  1.00
      P1  H  7954  7966       L1    10  0.74
      P1  H  7989  7998       L1     3  0.94
      L1  C    13    41       P1 10186  1.00

> <Gold.PLP.Chemscore.Internal.Correction>
0.4348

> <Gold.Rescore>
     Score         DG    S(hbond)    S(metal)    S(lipo)     H(rot)  DE(clash)    DE(int)     intcor
     17.83     -23.29       3.45        0.00     103.37       2.27       2.25       3.21       ----

> <Gold.Chemscore.Fitness>
17.8350

> <Gold.Chemscore.DG>
-23.2946

> <Gold.Chemscore.ZeroCoef>
-5.4800

> <Gold.Chemscore.Hbond>
3.4532

> <Gold.Chemscore.Metal>
0.0000

> <Gold.Chemscore.Lipo>
103.3738

> <Gold.Chemscore.Internal_Hbond>
0.0000

> <Gold.Chemscore.DEClash>
2.2521

> <Gold.Chemscore.DEInternal>
3.2076

> <Gold.Chemscore.Rot>
2.2710

> <Gold.Chemscore.Internal.Correction>
   9.000000E+99

> <Gold.Chemscore.Hbonds>
donor molecule, donor type, donor heavy atom, donor atom, acceptor molecule, acceptor atom, score
      L1  H     7    54       P1  7948  0.97
      L1  H    10    38       P1 10171  0.99
      P1  H  7954  7966       L1    10  0.69
      P1  H  7989  7998       L1     3  0.43

> <Gold.Chemscore.Hbond.Weighted>
-11.5336

> <Gold.Chemscore.Metal.Weighted>
-0.0000

> <Gold.Chemscore.Lipo.Weighted>
-12.0947

> <Gold.Chemscore.Internal_Hbond.Weighted>
0.0000

> <Gold.Chemscore.DEClash.Weighted>
2.2521

> <Gold.Chemscore.DEInternal.Weighted>
3.2076

> <Gold.Chemscore.Rot.Weighted>
5.8137

> <Gold.Chemscore.Internal.Correction.Weighted>
   9.000000E+99

> <Gold.Protein.RotatedTorsions>
[ 6907 6896 6895 6894 ] final  -48.49 input  -60.11 | X-H torsion
[ 7974 7965 7964 7962 ] final  -46.68 input  175.53 | X-H torsion
[ 8008 7997 7996 7995 ] final  -77.55 input   59.86 | X-H torsion
[ 10167 10162 10161 10158 ] final  167.56 input  -65.29 | X-H torsion
[ 10718 10713 10712 10709 ] final   91.73 input   66.30 | X-H torsion
[ 10763 10752 10751 10750 ] final   64.12 input  -60.55 | X-H torsion
[ 11005 11000 10999 10996 ] final   91.09 input  -57.11 | X-H torsion

> <Gold.Protein.ActiveResidues>
 VAL166  LYS551  ARG553  GLY616  TRP617  ASP618  TYR619  PRO620  LYS621  CYS622 
 ASP623  PHE694  ASN695  SER759  ASP760  ASP761  ALA762  ILE779  LEU786  VAL792 
 PHE793  MET794  SER795  GLU796  ALA797  LYS798  CYS799  TRP800  GLU811  SER814 

> <Gold.Protein.RotatedAtoms>
  150.8900  134.8303  159.7286 H   0  0  0  0  0  0  0  0  0  0  0  0  # atno 6907 bound_to 6896
  152.4831  134.4663  159.9631 H   0  0  0  0  0  0  0  0  0  0  0  0  # atno 6908 bound_to 6896
  151.4726  133.3526  159.2861 H   0  0  0  0  0  0  0  0  0  0  0  0  # atno 6909 bound_to 6896
  145.9694  140.7399  142.9418 H   0  0  0  0  0  0  0  0  0  0  0  0  # atno 7974 bound_to 7965
  154.5607  140.0708  156.8814 H   0  0  0  0  0  0  0  0  0  0  0  0  # atno 8008 bound_to 7997
  155.2817  140.3372  155.4240 H   0  0  0  0  0  0  0  0  0  0  0  0  # atno 8009 bound_to 7997
  156.2040  140.1732  156.7826 H   0  0  0  0  0  0  0  0  0  0  0  0  # atno 8010 bound_to 7997
  139.4948  144.3909  151.9518 H   0  0  0  0  0  0  0  0  0  0  0  0  # atno 10167 bound_to 10162
  157.6960  131.0418  150.3773 H   0  0  0  0  0  0  0  0  0  0  0  0  # atno 10718 bound_to 10713
  153.0044  135.5404  154.6460 H   0  0  0  0  0  0  0  0  0  0  0  0  # atno 10763 bound_to 10752
  154.5704  135.2841  155.0835 H   0  0  0  0  0  0  0  0  0  0  0  0  # atno 10764 bound_to 10752
  154.2003  135.6485  153.5137 H   0  0  0  0  0  0  0  0  0  0  0  0  # atno 10765 bound_to 10752
  139.8844  134.8653  156.3378 H   0  0  0  0  0  0  0  0  0  0  0  0  # atno 11005 bound_to 11000
  144.6833  140.2723  143.7304 LP  0  0  0  0  0  0  0  0  0  0  0  0  # atno 17320 bound_to 7965
  145.7928  139.1933  143.2093 LP  0  0  0  0  0  0  0  0  0  0  0  0  # atno 17321 bound_to 7965
  140.3346  144.3275  150.5980 LP  0  0  0  0  0  0  0  0  0  0  0  0  # atno 17342 bound_to 10162
  140.5616  143.2191  151.7755 LP  0  0  0  0  0  0  0  0  0  0  0  0  # atno 17343 bound_to 10162
  156.4191  130.3949  149.6837 LP  0  0  0  0  0  0  0  0  0  0  0  0  # atno 17370 bound_to 10713
  156.4094  130.7714  151.2727 LP  0  0  0  0  0  0  0  0  0  0  0  0  # atno 17371 bound_to 10713
  140.9679  133.7346  156.0493 LP  0  0  0  0  0  0  0  0  0  0  0  0  # atno 17394 bound_to 11000
  140.7907  134.3620  157.5465 LP  0  0  0  0  0  0  0  0  0  0  0  0  # atno 17395 bound_to 11000

$$$$
