AV-unprocessed.smi:3342|AV-procd|sdf|12890|dock3
  -GOLD-   2272019293D 1   1.00000     0.00000
 Structure written by MMmdl.
 41 42  0  0  0  0  0  0  0  0  1 V2000
  150.3691  142.3059  159.2432 C   0  0  0  0  0  0  0  0  0  0  0  0
  151.1125  142.8295  158.0044 C   0  0  1  0  0  0  0  0  0  0  0  0
  152.4866  143.4166  158.3786 C   0  0  0  0  0  0  0  0  0  0  0  0
  153.1100  142.7039  159.4786 N   0  0  0  0  0  0  0  0  0  0  0  0
  153.6209  141.4125  159.4590 C   0  0  0  0  0  0  0  0  0  0  0  0
  154.1124  141.1655  160.7209 C   0  0  0  0  0  0  0  0  0  0  0  0
  153.9142  142.2831  161.5284 N   0  0  0  0  0  0  0  0  0  0  0  0
  153.3155  143.1524  160.7245 C   0  0  0  0  0  0  0  0  0  0  0  0
  151.2813  141.7542  157.0301 N   0  0  0  0  0  0  0  0  0  0  0  0
  150.2921  141.0587  156.4443 C   0  0  0  0  0  0  0  0  0  0  0  0
  149.1065  141.2502  156.7182 O   0  0  0  0  0  0  0  0  0  0  0  0
  150.7073  140.1421  155.5335 N   0  0  0  0  0  0  0  0  0  0  0  0
  152.0999  139.7439  155.2657 C   0  0  0  0  0  0  0  0  0  0  0  0
  152.3251  138.3285  155.8266 C   0  0  0  0  0  0  0  0  0  0  0  0
  151.3216  137.3223  155.2153 C   0  0  0  0  0  0  0  0  0  0  0  0
  151.4582  135.9411  155.8700 C   0  0  0  0  0  0  0  0  0  0  0  0
  150.6909  134.9602  155.3880 N   0  0  0  0  0  0  0  0  0  0  0  0
  152.2449  135.7587  156.7973 O   0  0  0  0  0  0  0  0  0  0  0  0
  149.8726  137.8521  155.3295 C   0  0  0  0  0  0  0  0  0  0  0  0
  149.7636  139.2926  154.7967 C   0  0  0  0  0  0  0  0  0  0  0  0
  150.2219  143.0997  159.9757 H   0  0  0  0  0  0  0  0  0  0  0  0
  150.9243  141.5032  159.7298 H   0  0  0  0  0  0  0  0  0  0  0  0
  149.3847  141.9177  158.9797 H   0  0  0  0  0  0  0  0  0  0  0  0
  150.5140  143.6270  157.5596 H   0  0  0  0  0  0  0  0  0  0  0  0
  153.1612  143.3712  157.5226 H   0  0  0  0  0  0  0  0  0  0  0  0
  152.3949  144.4696  158.6494 H   0  0  0  0  0  0  0  0  0  0  0  0
  153.5960  140.7949  158.5732 H   0  0  0  0  0  0  0  0  0  0  0  0
  154.5897  140.2767  161.1067 H   0  0  0  0  0  0  0  0  0  0  0  0
  153.0216  144.1400  161.0489 H   0  0  0  0  0  0  0  0  0  0  0  0
  152.2284  141.5374  156.7564 H   0  0  0  0  0  0  0  0  0  0  0  0
  152.2707  139.7472  154.1882 H   0  0  0  0  0  0  0  0  0  0  0  0
  152.8448  140.4273  155.6736 H   0  0  0  0  0  0  0  0  0  0  0  0
  153.3473  138.0097  155.6186 H   0  0  0  0  0  0  0  0  0  0  0  0
  152.2242  138.3549  156.9130 H   0  0  0  0  0  0  0  0  0  0  0  0
  151.5553  137.2253  154.1535 H   0  0  0  0  0  0  0  0  0  0  0  0
  150.7465  134.0337  155.7851 H   0  0  0  0  0  0  0  0  0  0  0  0
  150.0576  135.1498  154.6248 H   0  0  0  0  0  0  0  0  0  0  0  0
  149.1927  137.2039  154.7754 H   0  0  0  0  0  0  0  0  0  0  0  0
  149.5403  137.8310  156.3690 H   0  0  0  0  0  0  0  0  0  0  0  0
  148.7321  139.6388  154.8744 H   0  0  0  0  0  0  0  0  0  0  0  0
  150.0041  139.3200  153.7329 H   0  0  0  0  0  0  0  0  0  0  0  0
  1  2  1  0  0  0  0
  1 21  1  0  0  0  0
  1 22  1  0  0  0  0
  1 23  1  0  0  0  0
  2  3  1  0  0  0  0
  2  9  1  0  0  0  0
  2 24  1  0  0  0  0
  3  4  1  0  0  0  0
  3 25  1  0  0  0  0
  3 26  1  0  0  0  0
  4  8  1  0  0  0  0
  4  5  1  0  0  0  0
  5  6  2  0  0  0  0
  5 27  1  0  0  0  0
  6  7  1  0  0  0  0
  6 28  1  0  0  0  0
  7  8  2  0  0  0  0
  8 29  1  0  0  0  0
  9 10  1  0  0  0  0
  9 30  1  0  0  0  0
 10 11  2  0  0  0  0
 10 12  1  0  0  0  0
 12 20  1  0  0  0  0
 12 13  1  0  0  0  0
 13 14  1  0  0  0  0
 13 31  1  0  0  0  0
 13 32  1  0  0  0  0
 14 15  1  0  0  0  0
 14 33  1  0  0  0  0
 14 34  1  0  0  0  0
 15 16  1  0  0  0  0
 15 19  1  0  0  0  0
 15 35  1  0  0  0  0
 16 17  1  0  0  0  0
 16 18  2  0  0  0  0
 17 36  1  0  0  0  0
 17 37  1  0  0  0  0
 19 20  1  0  0  0  0
 19 38  1  0  0  0  0
 19 39  1  0  0  0  0
 20 40  1  0  0  0  0
 20 41  1  0  0  0  0
M  END
> <s_m_source_file>
AV-unprocessed.smi

> <i_m_source_file_index>
3342

> <i_lp_mmshare_version>
43012

> <i_f3d_flags>
0

> <s_epik_input>
W2NIXTFuW2NIXVtjSF1uMVtDSDJdW0NAQEhdKFtDSDNdKVtOSF1DKD1PKU4yW0NIMl1bQ0gyXVtDSF0oQyg9TylbTkgyXSlbQ0gyXVtDSDJdMg==

> <s_epik_cmdline>
J2VwaWtfcHl0aG9uJywgJy1waCcsICc3LjAnLCAnLXRuJywgJzgnLCAnLW1hJywgJzIwMCcsICctbWV0YWxfYmluZGluZycsICctaW1hZScsICc8aW5maWxlLm1hZT4nLCAnLW9tYWUnLCAnPG91dGZpbGUubWFlPic=

> <r_lp_tautomer_probability>
1

> <r_epik_Ionization_Penalty>
0.624431

> <r_epik_Ionization_Penalty_Charging>
0.624374

> <r_epik_Ionization_Penalty_Neutral>
5.67186e-05

> <r_epik_State_Penalty>
0.640677

> <r_epik_Charging_Adjusted_Penalty>
1.26505

> <i_epik_Tot_Q>
0

> <i_epik_Tot_abs_Q>
0

> <r_epik_Metal_State_Penalty>
0.307574

> <b_epik_Metal_Only>
0

> <s_lp_Force_Field>
OPLS_2005

> <r_lp_Energy>
30.3525

> <b_lp_Chiralities_Consistent>
1

> <s_lp_Variant>
AV-unprocessed.smi:3342-4

> <Gold.Version>
5.8.1

> <Gold.Id.Protein>
6NUR|6NUR_protein|mol2

> <Gold.PLP.Fitness>
40.2378

> <Gold.PLP.PLP>
-35.0104

> <Gold.PLP.part.hbond>
-2.0870

> <Gold.PLP.part.metal>
0.0000

> <Gold.PLP.part.buried>
2.9253

> <Gold.PLP.part.nonpolar>
-36.5419

> <Gold.PLP.part.repulsive>
0.8133

> <Gold.PLP.ligand.clash>
0.0000

> <Gold.PLP.ligand.torsion>
0.4206

> <Gold.PLP.Chemscore.Hbond>
1.9913

> <Gold.PLP.Chemscore.CHOScore>
0.0000

> <Gold.PLP.Chemscore.Metal>
0.0000

> <Gold.PLP.Chemscore.Internal.Correction>
0.0948

> <Gold.Rescore>
     Score         DG    S(hbond)    S(metal)    S(lipo)     H(rot)  DE(clash)    DE(int)     intcor
      9.61     -13.89       1.52        0.00      78.17       2.28       3.15       1.13       ----

> <Gold.Chemscore.Fitness>
9.6075

> <Gold.Chemscore.DG>
-13.8860

> <Gold.Chemscore.ZeroCoef>
-5.4800

> <Gold.Chemscore.Hbond>
1.5228

> <Gold.Chemscore.Metal>
0.0000

> <Gold.Chemscore.Lipo>
78.1683

> <Gold.Chemscore.Internal_Hbond>
0.0000

> <Gold.Chemscore.DEClash>
3.1491

> <Gold.Chemscore.DEInternal>
1.1294

> <Gold.Chemscore.Rot>
2.2757

> <Gold.Chemscore.Internal.Correction>
   9.000000E+99

> <Gold.Chemscore.Hbond.Weighted>
-5.0862

> <Gold.Chemscore.Metal.Weighted>
-0.0000

> <Gold.Chemscore.Lipo.Weighted>
-9.1457

> <Gold.Chemscore.Internal_Hbond.Weighted>
0.0000

> <Gold.Chemscore.DEClash.Weighted>
3.1491

> <Gold.Chemscore.DEInternal.Weighted>
1.1294

> <Gold.Chemscore.Rot.Weighted>
5.8259

> <Gold.Chemscore.Internal.Correction.Weighted>
   9.000000E+99

> <Gold.Protein.RotatedTorsions>
[ 6907 6896 6895 6894 ] final   42.32 input  -60.11 | X-H torsion
[ 7974 7965 7964 7962 ] final  -83.98 input  175.53 | X-H torsion
[ 8008 7997 7996 7995 ] final -164.60 input   59.86 | X-H torsion
[ 10167 10162 10161 10158 ] final   -3.63 input  -65.29 | X-H torsion
[ 10718 10713 10712 10709 ] final  117.47 input   66.30 | X-H torsion
[ 10763 10752 10751 10750 ] final   98.59 input  -60.55 | X-H torsion
[ 11005 11000 10999 10996 ] final  156.66 input  -57.11 | X-H torsion

> <Gold.Protein.ActiveResidues>
 VAL166  LYS551  ARG553  GLY616  TRP617  ASP618  TYR619  PRO620  LYS621  CYS622 
 ASP623  PHE694  ASN695  SER759  ASP760  ASP761  ALA762  ILE779  LEU786  VAL792 
 PHE793  MET794  SER795  GLU796  ALA797  LYS798  CYS799  TRP800  GLU811  SER814 

> <Gold.Protein.RotatedAtoms>
  152.2064  134.8541  160.0502 H   0  0  0  0  0  0  0  0  0  0  0  0  # atno 6907 bound_to 6896
  151.9376  133.3623  159.3961 H   0  0  0  0  0  0  0  0  0  0  0  0  # atno 6908 bound_to 6896
  150.6966  134.4397  159.5330 H   0  0  0  0  0  0  0  0  0  0  0  0  # atno 6909 bound_to 6896
  145.5127  140.9538  143.1698 H   0  0  0  0  0  0  0  0  0  0  0  0  # atno 7974 bound_to 7965
  155.8380  140.0944  157.1752 H   0  0  0  0  0  0  0  0  0  0  0  0  # atno 8008 bound_to 7997
  154.3981  140.1406  156.3755 H   0  0  0  0  0  0  0  0  0  0  0  0  # atno 8009 bound_to 7997
  155.8095  140.3450  155.5452 H   0  0  0  0  0  0  0  0  0  0  0  0  # atno 8010 bound_to 7997
  140.6897  143.6518  150.8343 H   0  0  0  0  0  0  0  0  0  0  0  0  # atno 10167 bound_to 10162
  157.6094  131.1037  150.7619 H   0  0  0  0  0  0  0  0  0  0  0  0  # atno 10718 bound_to 10713
  153.2909  135.4143  155.1166 H   0  0  0  0  0  0  0  0  0  0  0  0  # atno 10763 bound_to 10752
  154.8520  135.3518  154.5983 H   0  0  0  0  0  0  0  0  0  0  0  0  # atno 10764 bound_to 10752
  153.6405  135.7057  153.5301 H   0  0  0  0  0  0  0  0  0  0  0  0  # atno 10765 bound_to 10752
  140.1696  134.8552  157.2674 H   0  0  0  0  0  0  0  0  0  0  0  0  # atno 11005 bound_to 11000
  144.7718  139.6717  143.7191 LP  0  0  0  0  0  0  0  0  0  0  0  0  # atno 17320 bound_to 7965
  146.2156  139.5543  142.9652 LP  0  0  0  0  0  0  0  0  0  0  0  0  # atno 17321 bound_to 7965
  140.0229  143.5523  152.2793 LP  0  0  0  0  0  0  0  0  0  0  0  0  # atno 17342 bound_to 10162
  139.6288  144.7641  151.2580 LP  0  0  0  0  0  0  0  0  0  0  0  0  # atno 17343 bound_to 10162
  156.8000  130.4918  149.5371 LP  0  0  0  0  0  0  0  0  0  0  0  0  # atno 17370 bound_to 10713
  156.1192  130.6097  151.0167 LP  0  0  0  0  0  0  0  0  0  0  0  0  # atno 17371 bound_to 10713
  140.2393  134.3815  155.7487 LP  0  0  0  0  0  0  0  0  0  0  0  0  # atno 17394 bound_to 11000
  141.2216  133.7256  156.8764 LP  0  0  0  0  0  0  0  0  0  0  0  0  # atno 17395 bound_to 11000

$$$$
