AV-unprocessed.smi:1487|AV-procd|sdf|6020|dock1
  -GOLD-   22720 6123D 1   1.00000     0.00000
 Structure written by MMmdl.
 49 51  0  0  0  0  0  0  0  0  3 V2000
  152.8021  143.4516  160.5249 C   0  0  0  0  0  0  0  0  0  0  0  0
  152.2654  142.5673  159.4122 C   0  0  0  0  0  0  0  0  0  0  0  0
  151.2480  143.0784  158.5752 C   0  0  0  0  0  0  0  0  0  0  0  0
  150.7796  142.2463  157.5654 C   0  0  0  0  0  0  0  0  0  0  0  0
  149.8022  142.4538  156.5899 N   0  3  0  0  0  0  0  0  0  0  0  0
  149.6901  141.3404  155.8143 C   0  0  0  0  0  0  0  0  0  0  0  0
  150.5836  140.4243  156.2782 N   0  0  0  0  0  0  0  0  0  0  0  0
  150.8603  139.0605  155.8028 C   0  0  0  0  0  0  0  0  0  0  0  0
  149.8748  138.5911  154.7140 C   0  0  1  0  0  0  0  0  0  0  0  0
  150.5850  137.9375  153.6804 O   0  0  0  0  0  0  0  0  0  0  0  0
  148.8238  137.6148  155.2793 C   0  0  0  0  0  0  0  0  0  0  0  0
  147.7592  137.2879  154.2957 N   0  3  1  0  0  0  0  0  0  0  0  0
  146.7320  136.3734  154.8566 C   0  0  0  0  0  0  0  0  0  0  0  0
  145.7546  135.9079  153.7664 C   0  0  0  0  0  0  0  0  0  0  0  0
  145.0870  137.1063  153.0778 C   0  0  0  0  0  0  0  0  0  0  0  0
  146.1380  138.1054  152.5651 C   0  0  2  0  0  0  0  0  0  0  0  0
  146.8277  137.5691  151.4529 O   0  0  0  0  0  0  0  0  0  0  0  0
  147.1459  138.4898  153.6664 C   0  0  0  0  0  0  0  0  0  0  0  0
  151.2850  140.9456  157.3728 C   0  0  0  0  0  0  0  0  0  0  0  0
  152.2867  140.4264  158.1903 C   0  0  0  0  0  0  0  0  0  0  0  0
  152.7780  141.2581  159.2220 C   0  0  0  0  0  0  0  0  0  0  0  0
  153.8740  140.7202  160.1263 C   0  0  0  0  0  0  0  0  0  0  0  0
  152.3313  144.4352  160.5158 H   0  0  0  0  0  0  0  0  0  0  0  0
  153.8770  143.5970  160.4148 H   0  0  0  0  0  0  0  0  0  0  0  0
  152.6112  142.9991  161.4983 H   0  0  0  0  0  0  0  0  0  0  0  0
  150.8530  144.0742  158.7143 H   0  0  0  0  0  0  0  0  0  0  0  0
  149.0126  141.2085  154.9828 H   0  0  0  0  0  0  0  0  0  0  0  0
  151.8934  139.0022  155.4590 H   0  0  0  0  0  0  0  0  0  0  0  0
  150.7926  138.4020  156.6699 H   0  0  0  0  0  0  0  0  0  0  0  0
  149.3894  139.4688  154.2881 H   0  0  0  0  0  0  0  0  0  0  0  0
  149.9754  137.4180  153.1779 H   0  0  0  0  0  0  0  0  0  0  0  0
  149.3365  136.7015  155.5858 H   0  0  0  0  0  0  0  0  0  0  0  0
  148.3667  138.0212  156.1828 H   0  0  0  0  0  0  0  0  0  0  0  0
  147.2146  135.4985  155.2941 H   0  0  0  0  0  0  0  0  0  0  0  0
  146.1936  136.8760  155.6617 H   0  0  0  0  0  0  0  0  0  0  0  0
  146.2875  135.3068  153.0284 H   0  0  0  0  0  0  0  0  0  0  0  0
  144.9941  135.2582  154.2002 H   0  0  0  0  0  0  0  0  0  0  0  0
  144.4468  136.7687  152.2619 H   0  0  0  0  0  0  0  0  0  0  0  0
  144.4340  137.6088  153.7925 H   0  0  0  0  0  0  0  0  0  0  0  0
  145.6292  139.0044  152.2157 H   0  0  0  0  0  0  0  0  0  0  0  0
  147.3365  136.8258  151.7393 H   0  0  0  0  0  0  0  0  0  0  0  0
  146.6385  139.0714  154.4380 H   0  0  0  0  0  0  0  0  0  0  0  0
  147.9115  139.1398  153.2443 H   0  0  0  0  0  0  0  0  0  0  0  0
  152.6822  139.4319  158.0453 H   0  0  0  0  0  0  0  0  0  0  0  0
  154.1256  139.6885  159.8789 H   0  0  0  0  0  0  0  0  0  0  0  0
  153.5583  140.7437  161.1696 H   0  0  0  0  0  0  0  0  0  0  0  0
  154.7802  141.3180  160.0249 H   0  0  0  0  0  0  0  0  0  0  0  0
  148.2124  136.7710  153.5548 H   0  0  0  0  0  0  0  0  0  0  0  0
  149.2495  143.2920  156.4625 H   0  0  0  0  0  0  0  0  0  0  0  0
  1  2  1  0  0  0  0
  1 23  1  0  0  0  0
  1 24  1  0  0  0  0
  1 25  1  0  0  0  0
  2 21  1  0  0  0  0
  2  3  2  0  0  0  0
  3  4  1  0  0  0  0
  3 26  1  0  0  0  0
  4 19  2  0  0  0  0
  4  5  1  0  0  0  0
  5  6  2  0  0  0  0
  5 49  1  0  0  0  0
  6  7  1  0  0  0  0
  6 27  1  0  0  0  0
  7  8  1  0  0  0  0
  7 19  1  0  0  0  0
  8  9  1  0  0  0  0
  8 28  1  0  0  0  0
  8 29  1  0  0  0  0
  9 10  1  0  0  0  0
  9 11  1  0  0  0  0
  9 30  1  0  0  0  0
 10 31  1  0  0  0  0
 11 12  1  0  0  0  0
 11 32  1  0  0  0  0
 11 33  1  0  0  0  0
 12 18  1  0  0  0  0
 12 13  1  0  0  0  0
 12 48  1  0  0  0  0
 13 14  1  0  0  0  0
 13 34  1  0  0  0  0
 13 35  1  0  0  0  0
 14 15  1  0  0  0  0
 14 36  1  0  0  0  0
 14 37  1  0  0  0  0
 15 16  1  0  0  0  0
 15 38  1  0  0  0  0
 15 39  1  0  0  0  0
 16 17  1  0  0  0  0
 16 18  1  0  0  0  0
 16 40  1  0  0  0  0
 17 41  1  0  0  0  0
 18 42  1  0  0  0  0
 18 43  1  0  0  0  0
 19 20  1  0  0  0  0
 20 21  2  0  0  0  0
 20 44  1  0  0  0  0
 21 22  1  0  0  0  0
 22 45  1  0  0  0  0
 22 46  1  0  0  0  0
 22 47  1  0  0  0  0
M  CHG  1   5   1
M  CHG  1  12   1
M  END
> <s_m_source_file>
AV-unprocessed.smi

> <i_m_source_file_index>
1487

> <i_lp_mmshare_version>
43012

> <i_f3d_flags>
0

> <s_epik_input>
W0NIM11jKFtjSF0xKWMoW0NIM10pW2NIXWMoYzEyKW4oW2NIXW4yKVtDSDJdW0NASF0oW09IXSlbQ0gyXU4zW0NIMl1bQ0gyXVtDSDJdW0NAQEhdKFtPSF0pW0NIMl0z

> <s_epik_cmdline>
J2VwaWtfcHl0aG9uJywgJy1waCcsICc3LjAnLCAnLXRuJywgJzgnLCAnLW1hJywgJzIwMCcsICctbWV0YWxfYmluZGluZycsICctaW1hZScsICc8aW5maWxlLm1hZT4nLCAnLW9tYWUnLCAnPG91dGZpbGUubWFlPic=

> <r_epik_Ionization_Penalty>
1.1857

> <r_epik_Ionization_Penalty_Charging>
1.1857

> <r_epik_Ionization_Penalty_Neutral>
1.75578e-06

> <r_epik_State_Penalty>
1.26953

> <r_epik_Charging_Adjusted_Penalty>
2.45524

> <i_epik_Tot_Q>
2

> <i_epik_Tot_abs_Q>
2

> <r_epik_Metal_State_Penalty>
5.28243

> <b_epik_Metal_Only>
0

> <s_lp_Force_Field>
OPLS_2005

> <r_lp_Energy>
31.2796

> <b_lp_Chiralities_Consistent>
1

> <s_lp_Variant>
AV-unprocessed.smi:1487-14

> <Gold.Version>
5.8.1

> <Gold.Id.Protein>
6NUR|6NUR_protein|mol2

> <Gold.PLP.Fitness>
61.3608

> <Gold.PLP.PLP>
-42.7436

> <Gold.PLP.part.hbond>
-5.6241

> <Gold.PLP.part.metal>
0.0000

> <Gold.PLP.part.buried>
-5.9563

> <Gold.PLP.part.nonpolar>
-34.4292

> <Gold.PLP.part.repulsive>
0.0997

> <Gold.PLP.ligand.clash>
0.0000

> <Gold.PLP.ligand.torsion>
0.7138

> <Gold.PLP.Chemscore.Hbond>
6.6640

> <Gold.PLP.Chemscore.CHOScore>
0.0000

> <Gold.PLP.Chemscore.Metal>
0.0000

> <Gold.Chemscore.Hbonds>
donor molecule, donor type, donor heavy atom, donor atom, acceptor molecule, acceptor atom, score
      L1  H     5    49       P1  8028  2.00
      L1  H    10    31       P1  7948  1.00
      L1  H    12    48       P1  7948  2.00
      L1  H    17    41       P1  7948  0.83
      P1  H  7954  7966       L1    17  0.40

> <Gold.PLP.Chemscore.Internal.Correction>
0.0527

> <Gold.Rescore>
     Score         DG    S(hbond)    S(metal)    S(lipo)     H(rot)  DE(clash)    DE(int)     intcor
     22.19     -22.92       3.49        0.00     109.35       2.74       0.10       0.62       ----

> <Gold.Chemscore.Fitness>
22.1919

> <Gold.Chemscore.DG>
-22.9199

> <Gold.Chemscore.ZeroCoef>
-5.4800

> <Gold.Chemscore.Hbond>
3.4899

> <Gold.Chemscore.Metal>
0.0000

> <Gold.Chemscore.Lipo>
109.3490

> <Gold.Chemscore.Internal_Hbond>
0.0000

> <Gold.Chemscore.DEClash>
0.1046

> <Gold.Chemscore.DEInternal>
0.6234

> <Gold.Chemscore.Rot>
2.7384

> <Gold.Chemscore.Internal.Correction>
   9.000000E+99

> <Gold.Chemscore.Hbonds>
donor molecule, donor type, donor heavy atom, donor atom, acceptor molecule, acceptor atom, score
      L1  H     5    49       P1  8028  0.97
      L1  H    10    31       P1  7948  0.29
      L1  H    12    48       P1  7948  0.99
      L1  H    17    41       P1  7948  0.83
      P1  H  7954  7966       L1    17  0.01

> <Gold.Chemscore.Hbond.Weighted>
-11.6564

> <Gold.Chemscore.Metal.Weighted>
-0.0000

> <Gold.Chemscore.Lipo.Weighted>
-12.7938

> <Gold.Chemscore.Internal_Hbond.Weighted>
0.0000

> <Gold.Chemscore.DEClash.Weighted>
0.1046

> <Gold.Chemscore.DEInternal.Weighted>
0.6234

> <Gold.Chemscore.Rot.Weighted>
7.0103

> <Gold.Chemscore.Internal.Correction.Weighted>
   9.000000E+99

> <Gold.Protein.RotatedTorsions>
[ 6907 6896 6895 6894 ] final  121.85 input  -60.11 | X-H torsion
[ 7974 7965 7964 7962 ] final  130.34 input  175.53 | X-H torsion
[ 8008 7997 7996 7995 ] final  144.65 input   59.86 | X-H torsion
[ 10167 10162 10161 10158 ] final   54.53 input  -65.29 | X-H torsion
[ 10718 10713 10712 10709 ] final  -50.42 input   66.30 | X-H torsion
[ 10763 10752 10751 10750 ] final  172.87 input  -60.55 | X-H torsion
[ 11005 11000 10999 10996 ] final  119.42 input  -57.11 | X-H torsion

> <Gold.Protein.ActiveResidues>
 VAL166  LYS551  ARG553  GLY616  TRP617  ASP618  TYR619  PRO620  LYS621  CYS622 
 ASP623  PHE694  ASN695  SER759  ASP760  ASP761  ALA762  ILE779  LEU786  VAL792 
 PHE793  MET794  SER795  GLU796  ALA797  LYS798  CYS799  TRP800  GLU811  SER814 

> <Gold.Protein.RotatedAtoms>
  152.4289  133.7244  159.6551 H   0  0  0  0  0  0  0  0  0  0  0  0  # atno 6907 bound_to 6896
  150.8167  133.8313  159.3163 H   0  0  0  0  0  0  0  0  0  0  0  0  # atno 6908 bound_to 6896
  151.6008  135.1049  160.0111 H   0  0  0  0  0  0  0  0  0  0  0  0  # atno 6909 bound_to 6896
  145.0190  139.4149  143.5207 H   0  0  0  0  0  0  0  0  0  0  0  0  # atno 7974 bound_to 7965
  156.2903  140.2230  156.5087 H   0  0  0  0  0  0  0  0  0  0  0  0  # atno 8008 bound_to 7997
  154.7627  140.0472  157.1008 H   0  0  0  0  0  0  0  0  0  0  0  0  # atno 8009 bound_to 7997
  154.9971  140.3097  155.4886 H   0  0  0  0  0  0  0  0  0  0  0  0  # atno 8010 bound_to 7997
  140.2291  144.3706  150.6421 H   0  0  0  0  0  0  0  0  0  0  0  0  # atno 10167 bound_to 10162
  156.1802  130.4150  149.9518 H   0  0  0  0  0  0  0  0  0  0  0  0  # atno 10718 bound_to 10713
  154.4321  135.2760  155.1905 H   0  0  0  0  0  0  0  0  0  0  0  0  # atno 10763 bound_to 10752
  154.3806  135.6088  153.5792 H   0  0  0  0  0  0  0  0  0  0  0  0  # atno 10764 bound_to 10752
  152.9836  135.5879  154.4635 H   0  0  0  0  0  0  0  0  0  0  0  0  # atno 10765 bound_to 10752
  139.9146  134.9628  156.7653 H   0  0  0  0  0  0  0  0  0  0  0  0  # atno 11005 bound_to 11000
  146.3482  139.9677  142.8710 LP  0  0  0  0  0  0  0  0  0  0  0  0  # atno 17320 bound_to 7965
  145.1921  140.9816  143.4205 LP  0  0  0  0  0  0  0  0  0  0  0  0  # atno 17321 bound_to 7965
  140.6198  143.2175  151.6717 LP  0  0  0  0  0  0  0  0  0  0  0  0  # atno 17342 bound_to 10162
  139.5116  144.3503  152.0658 LP  0  0  0  0  0  0  0  0  0  0  0  0  # atno 17343 bound_to 10162
  156.7291  130.9036  151.3624 LP  0  0  0  0  0  0  0  0  0  0  0  0  # atno 17370 bound_to 10713
  157.6863  130.9189  150.0395 LP  0  0  0  0  0  0  0  0  0  0  0  0  # atno 17371 bound_to 10713
  140.6665  133.9598  155.7833 LP  0  0  0  0  0  0  0  0  0  0  0  0  # atno 17394 bound_to 11000
  141.0607  134.0350  157.3662 LP  0  0  0  0  0  0  0  0  0  0  0  0  # atno 17395 bound_to 11000

$$$$
