AV-unprocessed.smi:3058|AV-procd|sdf|11672|dock1
  -GOLD-   2272017 73D 1   1.00000     0.00000
 Structure written by MMmdl.
 38 40  0  0  0  0  0  0  0  0  1 V2000
  151.1122  141.1477  157.7337 O   0  0  0  0  0  0  0  0  0  0  0  0
  150.7161  142.1833  157.1983 C   0  0  0  0  0  0  0  0  0  0  0  0
  150.0567  142.1981  156.0287 N   0  0  0  0  0  0  0  0  0  0  0  0
  149.6258  141.0183  155.2822 C   0  0  0  0  0  0  0  0  0  0  0  0
  148.6380  141.3793  154.1551 C   0  0  0  0  0  0  0  0  0  0  0  0
  147.3464  142.0047  154.6548 C   0  0  0  0  0  0  0  0  0  0  0  0
  146.4680  142.6635  153.7692 C   0  0  0  0  0  0  0  0  0  0  0  0
  145.3010  143.2568  154.2870 C   0  0  0  0  0  0  0  0  0  0  0  0
  145.0592  143.1629  155.6718 C   0  0  0  0  0  0  0  0  0  0  0  0
  145.8899  142.5306  156.5286 N   0  0  0  0  0  0  0  0  0  0  0  0
  147.0086  141.9666  156.0244 C   0  0  0  0  0  0  0  0  0  0  0  0
  150.9273  143.5500  157.8711 C   0  0  1  0  0  0  0  0  0  0  0  0
  150.1524  143.6866  159.2051 C   0  0  0  0  0  0  0  0  0  0  0  0
  151.2502  144.0803  160.2125 C   0  0  2  0  0  0  0  0  0  0  0  0
  151.7459  145.5054  159.9006 C   0  0  0  0  0  0  0  0  0  0  0  0
  152.5628  145.3060  158.6089 C   0  0  0  0  0  0  0  0  0  0  0  0
  152.3868  143.8012  158.3284 C   0  0  1  0  0  0  0  0  0  0  0  0
  152.4251  143.2321  159.7470 C   0  0  0  0  0  0  0  0  0  0  0  0
  149.7763  143.0949  155.6592 H   0  0  0  0  0  0  0  0  0  0  0  0
  150.5075  140.5391  154.8568 H   0  0  0  0  0  0  0  0  0  0  0  0
  149.1754  140.2823  155.9502 H   0  0  0  0  0  0  0  0  0  0  0  0
  149.1174  142.0677  153.4579 H   0  0  0  0  0  0  0  0  0  0  0  0
  148.3956  140.4859  153.5786 H   0  0  0  0  0  0  0  0  0  0  0  0
  146.6893  142.7258  152.7140 H   0  0  0  0  0  0  0  0  0  0  0  0
  144.6101  143.7756  153.6390 H   0  0  0  0  0  0  0  0  0  0  0  0
  144.1749  143.6082  156.1032 H   0  0  0  0  0  0  0  0  0  0  0  0
  147.6584  141.4791  156.7363 H   0  0  0  0  0  0  0  0  0  0  0  0
  150.6175  144.3312  157.1746 H   0  0  0  0  0  0  0  0  0  0  0  0
  149.3648  144.4384  159.1451 H   0  0  0  0  0  0  0  0  0  0  0  0
  149.6822  142.7487  159.5070 H   0  0  0  0  0  0  0  0  0  0  0  0
  150.9608  143.9350  161.2536 H   0  0  0  0  0  0  0  0  0  0  0  0
  150.9227  146.2084  159.7681 H   0  0  0  0  0  0  0  0  0  0  0  0
  152.3824  145.8816  160.7024 H   0  0  0  0  0  0  0  0  0  0  0  0
  152.2081  145.9310  157.7885 H   0  0  0  0  0  0  0  0  0  0  0  0
  153.6129  145.5469  158.7796 H   0  0  0  0  0  0  0  0  0  0  0  0
  153.1427  143.3948  157.6551 H   0  0  0  0  0  0  0  0  0  0  0  0
  153.3534  143.4541  160.2763 H   0  0  0  0  0  0  0  0  0  0  0  0
  152.2348  142.1605  159.8086 H   0  0  0  0  0  0  0  0  0  0  0  0
  1  2  2  0  0  0  0
  2  3  1  0  0  0  0
  2 12  1  0  0  0  0
  3  4  1  0  0  0  0
  3 19  1  0  0  0  0
  4  5  1  0  0  0  0
  4 20  1  0  0  0  0
  4 21  1  0  0  0  0
  5  6  1  0  0  0  0
  5 22  1  0  0  0  0
  5 23  1  0  0  0  0
  6 11  1  0  0  0  0
  6  7  2  0  0  0  0
  7  8  1  0  0  0  0
  7 24  1  0  0  0  0
  8  9  2  0  0  0  0
  8 25  1  0  0  0  0
  9 10  1  0  0  0  0
  9 26  1  0  0  0  0
 10 11  2  0  0  0  0
 11 27  1  0  0  0  0
 12 17  1  0  0  0  0
 12 13  1  0  0  0  0
 12 28  1  0  0  0  0
 13 14  1  0  0  0  0
 13 29  1  0  0  0  0
 13 30  1  0  0  0  0
 14 18  1  0  0  0  0
 14 15  1  0  0  0  0
 14 31  1  0  0  0  0
 15 16  1  0  0  0  0
 15 32  1  0  0  0  0
 15 33  1  0  0  0  0
 16 17  1  0  0  0  0
 16 34  1  0  0  0  0
 16 35  1  0  0  0  0
 17 18  1  0  0  0  0
 17 36  1  0  0  0  0
 18 37  1  0  0  0  0
 18 38  1  0  0  0  0
M  END
> <s_m_source_file>
AV-unprocessed.smi

> <i_m_source_file_index>
3058

> <i_lp_mmshare_version>
43012

> <i_f3d_flags>
0

> <s_epik_input>
W0NIMl0xW0NIMl1bQ0BIXShbQ0gyXTIpW0NAQEhdKFtDSDJdW0NAQEhdMTIpQyg9TylbTkhdW0NIMl1bQ0gyXWMzW2NIXVtjSF1bY0hdbltjSF0z

> <s_epik_cmdline>
J2VwaWtfcHl0aG9uJywgJy1waCcsICc3LjAnLCAnLXRuJywgJzgnLCAnLW1hJywgJzIwMCcsICctbWV0YWxfYmluZGluZycsICctaW1hZScsICc8aW5maWxlLm1hZT4nLCAnLW9tYWUnLCAnPG91dGZpbGUubWFlPic=

> <r_epik_Ionization_Penalty>
0.0135821

> <r_epik_Ionization_Penalty_Charging>
0

> <r_epik_Ionization_Penalty_Neutral>
0.0135821

> <r_epik_State_Penalty>
0.0105782

> <r_epik_Charging_Adjusted_Penalty>
0.0105782

> <i_epik_Tot_Q>
0

> <i_epik_Tot_abs_Q>
0

> <r_epik_Metal_State_Penalty>
0.0103407

> <b_epik_Metal_Only>
0

> <s_lp_Force_Field>
OPLS_2005

> <r_lp_Energy>
47.0399

> <b_lp_Chiralities_Consistent>
1

> <s_lp_Variant>
AV-unprocessed.smi:3058-4

> <Gold.Version>
5.8.1

> <Gold.Id.Protein>
6NUR|6NUR_protein|mol2

> <Gold.PLP.Fitness>
46.0406

> <Gold.PLP.PLP>
-43.7140

> <Gold.PLP.part.hbond>
-1.0000

> <Gold.PLP.part.metal>
0.0000

> <Gold.PLP.part.buried>
-5.5993

> <Gold.PLP.part.nonpolar>
-36.2500

> <Gold.PLP.part.repulsive>
0.2498

> <Gold.PLP.ligand.clash>
0.0000

> <Gold.PLP.ligand.torsion>
0.3655

> <Gold.PLP.Chemscore.Hbond>
1.0000

> <Gold.PLP.Chemscore.CHOScore>
0.0000

> <Gold.PLP.Chemscore.Metal>
0.0000

> <Gold.Chemscore.Hbonds>
donor molecule, donor type, donor heavy atom, donor atom, acceptor molecule, acceptor atom, score
      L1  H     3    19       P1  8028  1.00

> <Gold.PLP.Chemscore.Internal.Correction>
0.0575

> <Gold.Rescore>
     Score         DG    S(hbond)    S(metal)    S(lipo)     H(rot)  DE(clash)    DE(int)     intcor
     17.72     -19.00       0.98        0.00     117.34       1.37       0.02       1.26       ----

> <Gold.Chemscore.Fitness>
17.7193

> <Gold.Chemscore.DG>
-18.9975

> <Gold.Chemscore.ZeroCoef>
-5.4800

> <Gold.Chemscore.Hbond>
0.9833

> <Gold.Chemscore.Metal>
0.0000

> <Gold.Chemscore.Lipo>
117.3351

> <Gold.Chemscore.Internal_Hbond>
0.0000

> <Gold.Chemscore.DEClash>
0.0157

> <Gold.Chemscore.DEInternal>
1.2625

> <Gold.Chemscore.Rot>
1.3653

> <Gold.Chemscore.Internal.Correction>
   9.000000E+99

> <Gold.Chemscore.Hbonds>
donor molecule, donor type, donor heavy atom, donor atom, acceptor molecule, acceptor atom, score
      L1  H     3    19       P1  8028  0.98

> <Gold.Chemscore.Hbond.Weighted>
-3.2844

> <Gold.Chemscore.Metal.Weighted>
-0.0000

> <Gold.Chemscore.Lipo.Weighted>
-13.7282

> <Gold.Chemscore.Internal_Hbond.Weighted>
0.0000

> <Gold.Chemscore.DEClash.Weighted>
0.0157

> <Gold.Chemscore.DEInternal.Weighted>
1.2625

> <Gold.Chemscore.Rot.Weighted>
3.4951

> <Gold.Chemscore.Internal.Correction.Weighted>
   9.000000E+99

> <Gold.Protein.RotatedTorsions>
[ 6907 6896 6895 6894 ] final  -78.09 input  -60.11 | X-H torsion
[ 7974 7965 7964 7962 ] final   48.29 input  175.53 | X-H torsion
[ 8008 7997 7996 7995 ] final   71.64 input   59.86 | X-H torsion
[ 10167 10162 10161 10158 ] final   -7.53 input  -65.29 | X-H torsion
[ 10718 10713 10712 10709 ] final   13.52 input   66.30 | X-H torsion
[ 10763 10752 10751 10750 ] final   91.03 input  -60.55 | X-H torsion
[ 11005 11000 10999 10996 ] final   89.13 input  -57.11 | X-H torsion

> <Gold.Protein.ActiveResidues>
 VAL166  LYS551  ARG553  GLY616  TRP617  ASP618  TYR619  PRO620  LYS621  CYS622 
 ASP623  PHE694  ASN695  SER759  ASP760  ASP761  ALA762  ILE779  LEU786  VAL792 
 PHE793  MET794  SER795  GLU796  ALA797  LYS798  CYS799  TRP800  GLU811  SER814 

> <Gold.Protein.RotatedAtoms>
  150.6981  134.4324  159.5254 H   0  0  0  0  0  0  0  0  0  0  0  0  # atno 6907 bound_to 6896
  152.2048  134.8552  160.0513 H   0  0  0  0  0  0  0  0  0  0  0  0  # atno 6908 bound_to 6896
  151.9459  133.3616  159.4019 H   0  0  0  0  0  0  0  0  0  0  0  0  # atno 6909 bound_to 6896
  146.0218  139.4660  142.9892 H   0  0  0  0  0  0  0  0  0  0  0  0  # atno 7974 bound_to 7965
  155.7569  140.3487  155.5178 H   0  0  0  0  0  0  0  0  0  0  0  0  # atno 8008 bound_to 7997
  155.8951  140.1024  157.1411 H   0  0  0  0  0  0  0  0  0  0  0  0  # atno 8009 bound_to 7997
  154.4037  140.1297  156.4352 H   0  0  0  0  0  0  0  0  0  0  0  0  # atno 8010 bound_to 7997
  140.7032  143.6070  150.8741 H   0  0  0  0  0  0  0  0  0  0  0  0  # atno 10167 bound_to 10162
  157.0258  130.6173  149.5728 H   0  0  0  0  0  0  0  0  0  0  0  0  # atno 10718 bound_to 10713
  153.2039  135.4412  155.0300 H   0  0  0  0  0  0  0  0  0  0  0  0  # atno 10763 bound_to 10752
  154.8163  135.3316  154.7170 H   0  0  0  0  0  0  0  0  0  0  0  0  # atno 10764 bound_to 10752
  153.7613  135.6991  153.4980 H   0  0  0  0  0  0  0  0  0  0  0  0  # atno 10765 bound_to 10752
  139.8882  134.8532  156.3098 H   0  0  0  0  0  0  0  0  0  0  0  0  # atno 11005 bound_to 11000
  145.7181  141.0084  143.1417 LP  0  0  0  0  0  0  0  0  0  0  0  0  # atno 17320 bound_to 7965
  144.6993  139.8838  143.7449 LP  0  0  0  0  0  0  0  0  0  0  0  0  # atno 17321 bound_to 7965
  139.9793  143.5969  152.2948 LP  0  0  0  0  0  0  0  0  0  0  0  0  # atno 17342 bound_to 10162
  139.6584  144.7662  151.2011 LP  0  0  0  0  0  0  0  0  0  0  0  0  # atno 17343 bound_to 10162
  156.0086  130.5176  150.7914 LP  0  0  0  0  0  0  0  0  0  0  0  0  # atno 17370 bound_to 10713
  157.5215  131.0932  151.0072 LP  0  0  0  0  0  0  0  0  0  0  0  0  # atno 17371 bound_to 10713
  140.9858  133.7239  156.0739 LP  0  0  0  0  0  0  0  0  0  0  0  0  # atno 17394 bound_to 11000
  140.7690  134.3854  157.5511 LP  0  0  0  0  0  0  0  0  0  0  0  0  # atno 17395 bound_to 11000

$$$$
