AV-unprocessed.smi:914|AV-procd|sdf|4153|dock7
  -GOLD-   22720 2 53D 1   1.00000     0.00000
 Structure written by MMmdl.
 32 33  0  0  0  0  0  0  0  0  2 V2000
  146.7302  139.5438  152.8817 O   0  0  0  0  0  0  0  0  0  0  0  0
  147.6676  139.9484  153.5683 C   0  0  0  0  0  0  0  0  0  0  0  0
  148.7743  139.1911  153.8237 N   0  5  0  0  0  0  0  0  0  0  0  0
  149.8297  139.6255  154.5798 C   0  0  0  0  0  0  0  0  0  0  0  0
  150.8146  138.9199  154.7981 O   0  0  0  0  0  0  0  0  0  0  0  0
  149.7864  140.8859  155.1063 N   0  0  0  0  0  0  0  0  0  0  0  0
  150.8698  141.4412  155.9300 C   0  0  0  0  0  0  0  0  0  0  0  0
  151.0863  140.6236  157.2130 C   0  0  0  0  0  0  0  0  0  0  0  0
  151.1997  141.4976  158.3232 O   0  0  0  0  0  0  0  0  0  0  0  0
  152.5439  141.7706  158.6772 C   0  0  0  0  0  0  0  0  0  0  0  0
  152.5777  143.0378  159.5394 C   0  0  1  0  0  0  0  0  0  0  0  0
  152.2787  144.3169  158.7627 C   0  0  0  0  0  0  0  0  0  0  0  0
  151.8449  145.2499  159.8709 C   0  0  0  0  0  0  0  0  0  0  0  0
  151.0923  144.3134  160.8155 C   0  0  0  0  0  0  0  0  0  0  0  0
  151.5500  142.9951  160.5235 O   0  0  0  0  0  0  0  0  0  0  0  0
  148.6658  141.7028  154.8808 C   0  0  0  0  0  0  0  0  0  0  0  0
  147.6165  141.2911  154.1431 C   0  0  0  0  0  0  0  0  0  0  0  0
  146.2509  142.3175  153.8852 Cl  0  0  0  0  0  0  0  0  0  0  0  0
  151.8048  141.5168  155.3728 H   0  0  0  0  0  0  0  0  0  0  0  0
  150.6190  142.4684  156.1984 H   0  0  0  0  0  0  0  0  0  0  0  0
  150.2405  139.9511  157.3634 H   0  0  0  0  0  0  0  0  0  0  0  0
  151.9804  140.0050  157.1231 H   0  0  0  0  0  0  0  0  0  0  0  0
  152.9401  140.9251  159.2420 H   0  0  0  0  0  0  0  0  0  0  0  0
  153.1674  141.8974  157.7907 H   0  0  0  0  0  0  0  0  0  0  0  0
  153.5431  143.1372  160.0388 H   0  0  0  0  0  0  0  0  0  0  0  0
  153.1390  144.6873  158.2044 H   0  0  0  0  0  0  0  0  0  0  0  0
  151.4565  144.1587  158.0631 H   0  0  0  0  0  0  0  0  0  0  0  0
  152.7213  145.6614  160.3732 H   0  0  0  0  0  0  0  0  0  0  0  0
  151.2338  146.0806  159.5174 H   0  0  0  0  0  0  0  0  0  0  0  0
  151.2672  144.5664  161.8613 H   0  0  0  0  0  0  0  0  0  0  0  0
  150.0182  144.3562  160.6323 H   0  0  0  0  0  0  0  0  0  0  0  0
  148.7114  142.6764  155.3464 H   0  0  0  0  0  0  0  0  0  0  0  0
  1  2  2  0  0  0  0
  2 17  1  0  0  0  0
  2  3  1  0  0  0  0
  3  4  1  0  0  0  0
  4  5  2  0  0  0  0
  4  6  1  0  0  0  0
  6  7  1  0  0  0  0
  6 16  1  0  0  0  0
  7  8  1  0  0  0  0
  7 19  1  0  0  0  0
  7 20  1  0  0  0  0
  8  9  1  0  0  0  0
  8 21  1  0  0  0  0
  8 22  1  0  0  0  0
  9 10  1  0  0  0  0
 10 11  1  0  0  0  0
 10 23  1  0  0  0  0
 10 24  1  0  0  0  0
 11 15  1  0  0  0  0
 11 12  1  0  0  0  0
 11 25  1  0  0  0  0
 12 13  1  0  0  0  0
 12 26  1  0  0  0  0
 12 27  1  0  0  0  0
 13 14  1  0  0  0  0
 13 28  1  0  0  0  0
 13 29  1  0  0  0  0
 14 15  1  0  0  0  0
 14 30  1  0  0  0  0
 14 31  1  0  0  0  0
 16 17  2  0  0  0  0
 16 32  1  0  0  0  0
 17 18  1  0  0  0  0
M  CHG  1   3  -1
M  END
> <s_m_source_file>
AV-unprocessed.smi

> <i_m_source_file_index>
914

> <i_lp_mmshare_version>
43012

> <i_f3d_flags>
0

> <s_epik_input>
Tz1jMVtuSF1jKD1PKW4oW2NIXWMxQ2wpW0NIMl1bQ0gyXU9bQ0gyXVtDQEBIXTJbQ0gyXVtDSDJdW0NIMl1PMg==

> <s_epik_cmdline>
J2VwaWtfcHl0aG9uJywgJy1waCcsICc3LjAnLCAnLXRuJywgJzgnLCAnLW1hJywgJzIwMCcsICctbWV0YWxfYmluZGluZycsICctaW1hZScsICc8aW5maWxlLm1hZT4nLCAnLW9tYWUnLCAnPG91dGZpbGUubWFlPic=

> <r_epik_Ionization_Penalty>
1.76812

> <r_epik_Ionization_Penalty_Charging>
1.60097e-08

> <r_epik_Ionization_Penalty_Neutral>
1.76812

> <r_epik_State_Penalty>
1.87929

> <r_epik_Charging_Adjusted_Penalty>
1.87929

> <i_epik_Tot_Q>
-1

> <i_epik_Tot_abs_Q>
1

> <r_epik_Metal_State_Penalty>
0.0133872

> <b_epik_Metal_Only>
0

> <s_lp_Force_Field>
OPLS_2005

> <r_lp_Energy>
30.6138

> <b_lp_Chiralities_Consistent>
1

> <s_lp_Variant>
AV-unprocessed.smi:914-4

> <Gold.Version>
5.8.1

> <Gold.Id.Protein>
6NUR|6NUR_protein|mol2

> <Gold.PLP.Fitness>
41.7147

> <Gold.PLP.PLP>
-40.2126

> <Gold.PLP.part.hbond>
-0.6943

> <Gold.PLP.part.metal>
0.0000

> <Gold.PLP.part.buried>
-4.3937

> <Gold.PLP.part.nonpolar>
-35.4259

> <Gold.PLP.part.repulsive>
1.8088

> <Gold.PLP.ligand.clash>
0.0000

> <Gold.PLP.ligand.torsion>
0.7583

> <Gold.PLP.Chemscore.Hbond>
0.0000

> <Gold.PLP.Chemscore.CHOScore>
1.0000

> <Gold.PLP.Chemscore.Metal>
0.0000

> <Gold.Chemscore.Hbonds>
donor molecule, donor type, donor heavy atom, donor atom, acceptor molecule, acceptor atom, score
      L1  C    16    32       P1  8028  1.00

> <Gold.PLP.Chemscore.Internal.Correction>
0.0188

> <Gold.Rescore>
     Score         DG    S(hbond)    S(metal)    S(lipo)     H(rot)  DE(clash)    DE(int)     intcor
      9.35     -11.01       0.00        0.00      92.47       2.07       0.04       1.61       ----

> <Gold.Chemscore.Fitness>
9.3514

> <Gold.Chemscore.DG>
-11.0056

> <Gold.Chemscore.ZeroCoef>
-5.4800

> <Gold.Chemscore.Hbond>
0.0000

> <Gold.Chemscore.Metal>
0.0000

> <Gold.Chemscore.Lipo>
92.4713

> <Gold.Chemscore.Internal_Hbond>
0.0000

> <Gold.Chemscore.DEClash>
0.0431

> <Gold.Chemscore.DEInternal>
1.6110

> <Gold.Chemscore.Rot>
2.0678

> <Gold.Chemscore.Internal.Correction>
   9.000000E+99

> <Gold.Chemscore.Hbond.Weighted>
-0.0000

> <Gold.Chemscore.Metal.Weighted>
-0.0000

> <Gold.Chemscore.Lipo.Weighted>
-10.8191

> <Gold.Chemscore.Internal_Hbond.Weighted>
0.0000

> <Gold.Chemscore.DEClash.Weighted>
0.0431

> <Gold.Chemscore.DEInternal.Weighted>
1.6110

> <Gold.Chemscore.Rot.Weighted>
5.2935

> <Gold.Chemscore.Internal.Correction.Weighted>
   9.000000E+99

> <Gold.Protein.RotatedTorsions>
[ 6907 6896 6895 6894 ] final  146.63 input  -60.11 | X-H torsion
[ 7974 7965 7964 7962 ] final  -75.37 input  175.53 | X-H torsion
[ 8008 7997 7996 7995 ] final   30.00 input   59.86 | X-H torsion
[ 10167 10162 10161 10158 ] final   80.66 input  -65.29 | X-H torsion
[ 10718 10713 10712 10709 ] final   17.67 input   66.30 | X-H torsion
[ 10763 10752 10751 10750 ] final   28.49 input  -60.55 | X-H torsion
[ 11005 11000 10999 10996 ] final  105.94 input  -57.11 | X-H torsion

> <Gold.Protein.ActiveResidues>
 VAL166  LYS551  ARG553  GLY616  TRP617  ASP618  TYR619  PRO620  LYS621  CYS622 
 ASP623  PHE694  ASN695  SER759  ASP760  ASP761  ALA762  ILE779  LEU786  VAL792 
 PHE793  MET794  SER795  GLU796  ALA797  LYS798  CYS799  TRP800  GLU811  SER814 

> <Gold.Protein.RotatedAtoms>
  152.1654  133.4608  159.4881 H   0  0  0  0  0  0  0  0  0  0  0  0  # atno 6907 bound_to 6896
  150.6912  134.2020  159.4335 H   0  0  0  0  0  0  0  0  0  0  0  0  # atno 6908 bound_to 6896
  151.9924  134.9971  160.0612 H   0  0  0  0  0  0  0  0  0  0  0  0  # atno 6909 bound_to 6896
  145.6269  140.9348  143.1108 H   0  0  0  0  0  0  0  0  0  0  0  0  # atno 7974 bound_to 7965
  155.0834  140.3212  155.4594 H   0  0  0  0  0  0  0  0  0  0  0  0  # atno 8008 bound_to 7997
  156.2761  140.2091  156.5908 H   0  0  0  0  0  0  0  0  0  0  0  0  # atno 8009 bound_to 7997
  154.6960  140.0511  157.0398 H   0  0  0  0  0  0  0  0  0  0  0  0  # atno 8010 bound_to 7997
  139.9475  144.6049  150.8193 H   0  0  0  0  0  0  0  0  0  0  0  0  # atno 10167 bound_to 10162
  157.0854  130.6405  149.5836 H   0  0  0  0  0  0  0  0  0  0  0  0  # atno 10718 bound_to 10713
  153.0489  135.6512  154.0745 H   0  0  0  0  0  0  0  0  0  0  0  0  # atno 10763 bound_to 10752
  154.0437  135.2901  155.3352 H   0  0  0  0  0  0  0  0  0  0  0  0  # atno 10764 bound_to 10752
  154.6765  135.5336  153.8272 H   0  0  0  0  0  0  0  0  0  0  0  0  # atno 10765 bound_to 10752
  139.8808  134.9353  156.5591 H   0  0  0  0  0  0  0  0  0  0  0  0  # atno 11005 bound_to 11000
  144.7209  139.8034  143.7382 LP  0  0  0  0  0  0  0  0  0  0  0  0  # atno 17320 bound_to 7965
  146.1387  139.4439  143.0122 LP  0  0  0  0  0  0  0  0  0  0  0  0  # atno 17321 bound_to 7965
  140.7593  143.3125  151.2810 LP  0  0  0  0  0  0  0  0  0  0  0  0  # atno 17342 bound_to 10162
  139.6655  144.0113  152.2720 LP  0  0  0  0  0  0  0  0  0  0  0  0  # atno 17343 bound_to 10162
  155.9912  130.4966  150.7289 LP  0  0  0  0  0  0  0  0  0  0  0  0  # atno 17370 bound_to 10713
  157.4765  131.0898  151.0584 LP  0  0  0  0  0  0  0  0  0  0  0  0  # atno 17371 bound_to 10713
  140.8183  133.8374  155.8872 LP  0  0  0  0  0  0  0  0  0  0  0  0  # atno 17394 bound_to 11000
  140.9442  134.1861  157.4775 LP  0  0  0  0  0  0  0  0  0  0  0  0  # atno 17395 bound_to 11000

$$$$
