AV-unprocessed.smi:3202|AV-procd|sdf|12241|dock2
  -GOLD-   2272018 73D 1   1.00000     0.00000
 Structure written by MMmdl.
 43 44  0  0  0  0  0  0  0  0  2 V2000
  145.6387  144.2805  161.7644 C   0  0  0  0  0  0  0  0  0  0  0  0
  146.8744  144.2688  160.9304 C   0  0  0  0  0  0  0  0  0  0  0  0
  147.9719  145.0828  160.9279 C   0  0  0  0  0  0  0  0  0  0  0  0
  148.8033  144.5518  159.8984 C   0  0  0  0  0  0  0  0  0  0  0  0
  150.1461  145.0591  159.4464 C   0  0  0  0  0  0  0  0  0  0  0  0
  151.0157  143.9771  158.7645 C   0  0  2  0  0  0  0  0  0  0  0  0
  152.3345  144.5367  158.2058 C   0  0  0  0  0  0  0  0  0  0  0  0
  150.2711  143.3235  157.6636 N   0  3  0  0  0  0  0  0  0  0  0  0
  151.0031  142.2754  156.9124 C   0  0  2  0  0  0  0  0  0  0  0  0
  150.1881  141.6697  155.7606 C   0  0  0  0  0  0  0  0  0  0  0  0
  150.7507  140.2571  155.5568 C   0  0  0  0  0  0  0  0  0  0  0  0
  151.7324  140.0128  156.7123 C   0  0  0  0  0  0  0  0  0  0  0  0
  151.4147  141.0701  157.7851 C   0  0  0  0  0  0  0  0  0  0  0  0
  152.6551  141.3824  158.6428 C   0  0  0  0  0  0  0  0  0  0  0  0
  150.2702  140.5660  158.6950 C   0  0  0  0  0  0  0  0  0  0  0  0
  148.2641  143.4932  159.3102 N   0  0  0  0  0  0  0  0  0  0  0  0
  147.0893  143.3316  159.9466 N   0  0  0  0  0  0  0  0  0  0  0  0
  146.4527  142.5853  159.7040 H   0  0  0  0  0  0  0  0  0  0  0  0
  145.6882  145.0609  162.5240 H   0  0  0  0  0  0  0  0  0  0  0  0
  145.5038  143.3253  162.2723 H   0  0  0  0  0  0  0  0  0  0  0  0
  144.7581  144.4653  161.1491 H   0  0  0  0  0  0  0  0  0  0  0  0
  148.1545  145.9338  161.5675 H   0  0  0  0  0  0  0  0  0  0  0  0
  149.9858  145.8946  158.7659 H   0  0  0  0  0  0  0  0  0  0  0  0
  150.6883  145.4778  160.2958 H   0  0  0  0  0  0  0  0  0  0  0  0
  151.2764  143.2189  159.5031 H   0  0  0  0  0  0  0  0  0  0  0  0
  152.9767  144.9205  158.9985 H   0  0  0  0  0  0  0  0  0  0  0  0
  152.1552  145.3471  157.4986 H   0  0  0  0  0  0  0  0  0  0  0  0
  152.8998  143.7619  157.6870 H   0  0  0  0  0  0  0  0  0  0  0  0
  149.4298  142.9201  158.0501 H   0  0  0  0  0  0  0  0  0  0  0  0
  151.9108  142.7071  156.4894 H   0  0  0  0  0  0  0  0  0  0  0  0
  149.1328  141.6058  156.0298 H   0  0  0  0  0  0  0  0  0  0  0  0
  150.2562  142.2685  154.8518 H   0  0  0  0  0  0  0  0  0  0  0  0
  149.9419  139.5257  155.5754 H   0  0  0  0  0  0  0  0  0  0  0  0
  151.2538  140.1606  154.5940 H   0  0  0  0  0  0  0  0  0  0  0  0
  151.6782  138.9920  157.0921 H   0  0  0  0  0  0  0  0  0  0  0  0
  152.7480  140.1564  156.3401 H   0  0  0  0  0  0  0  0  0  0  0  0
  152.9900  140.4983  159.1864 H   0  0  0  0  0  0  0  0  0  0  0  0
  152.4436  142.1603  159.3772 H   0  0  0  0  0  0  0  0  0  0  0  0
  153.4909  141.7268  158.0328 H   0  0  0  0  0  0  0  0  0  0  0  0
  150.5585  139.6505  159.2129 H   0  0  0  0  0  0  0  0  0  0  0  0
  149.3634  140.3452  158.1316 H   0  0  0  0  0  0  0  0  0  0  0  0
  150.0115  141.2971  159.4614 H   0  0  0  0  0  0  0  0  0  0  0  0
  150.0038  144.0353  156.9986 H   0  0  0  0  0  0  0  0  0  0  0  0
  1  2  1  0  0  0  0
  1 19  1  0  0  0  0
  1 20  1  0  0  0  0
  1 21  1  0  0  0  0
  2 17  1  0  0  0  0
  2  3  2  0  0  0  0
  3  4  1  0  0  0  0
  3 22  1  0  0  0  0
  4  5  1  0  0  0  0
  4 16  2  0  0  0  0
  5  6  1  0  0  0  0
  5 23  1  0  0  0  0
  5 24  1  0  0  0  0
  6  7  1  0  0  0  0
  6  8  1  0  0  0  0
  6 25  1  0  0  0  0
  7 26  1  0  0  0  0
  7 27  1  0  0  0  0
  7 28  1  0  0  0  0
  8  9  1  0  0  0  0
  8 29  1  0  0  0  0
  8 43  1  0  0  0  0
  9 13  1  0  0  0  0
  9 10  1  0  0  0  0
  9 30  1  0  0  0  0
 10 11  1  0  0  0  0
 10 31  1  0  0  0  0
 10 32  1  0  0  0  0
 11 12  1  0  0  0  0
 11 33  1  0  0  0  0
 11 34  1  0  0  0  0
 12 13  1  0  0  0  0
 12 35  1  0  0  0  0
 12 36  1  0  0  0  0
 13 14  1  0  0  0  0
 13 15  1  0  0  0  0
 14 37  1  0  0  0  0
 14 38  1  0  0  0  0
 14 39  1  0  0  0  0
 15 40  1  0  0  0  0
 15 41  1  0  0  0  0
 15 42  1  0  0  0  0
 16 17  1  0  0  0  0
 17 18  1  0  0  0  0
M  CHG  1   8   1
M  END
> <s_m_source_file>
AV-unprocessed.smi

> <i_m_source_file_index>
3202

> <i_lp_mmshare_version>
43012

> <i_f3d_flags>
0

> <s_epik_input>
W0NIM11jMVtjSF1jKG5bbkhdMSlbQ0gyXVtDQEhdKFtDSDNdKVtOSF1bQ0BASF0oQzIoW0NIM10pW0NIM10pW0NIMl1bQ0gyXVtDSDJdMg==

> <s_epik_cmdline>
J2VwaWtfcHl0aG9uJywgJy1waCcsICc3LjAnLCAnLXRuJywgJzgnLCAnLW1hJywgJzIwMCcsICctbWV0YWxfYmluZGluZycsICctaW1hZScsICc8aW5maWxlLm1hZT4nLCAnLW9tYWUnLCAnPG91dGZpbGUubWFlPic=

> <r_lp_tautomer_probability>
0.5

> <r_epik_Ionization_Penalty>
0.000341671

> <r_epik_Ionization_Penalty_Charging>
0.000281809

> <r_epik_Ionization_Penalty_Neutral>
5.9862e-05

> <r_epik_State_Penalty>
0.41068

> <r_epik_Charging_Adjusted_Penalty>
0.410962

> <i_epik_Tot_Q>
1

> <i_epik_Tot_abs_Q>
1

> <r_epik_Metal_State_Penalty>
0.410672

> <b_epik_Metal_Only>
0

> <s_lp_Force_Field>
OPLS_2005

> <r_lp_Energy>
28.8614

> <b_lp_Chiralities_Consistent>
1

> <s_lp_Variant>
AV-unprocessed.smi:3202-1

> <Gold.Version>
5.8.1

> <Gold.Id.Protein>
6NUR|6NUR_protein|mol2

> <Gold.PLP.Fitness>
41.6457

> <Gold.PLP.PLP>
-36.3566

> <Gold.PLP.part.hbond>
-1.6853

> <Gold.PLP.part.metal>
0.0000

> <Gold.PLP.part.buried>
-5.3079

> <Gold.PLP.part.nonpolar>
-31.0865

> <Gold.PLP.part.repulsive>
0.3577

> <Gold.PLP.ligand.clash>
0.0000

> <Gold.PLP.ligand.torsion>
0.3669

> <Gold.PLP.Chemscore.Hbond>
2.0000

> <Gold.PLP.Chemscore.CHOScore>
0.0000

> <Gold.PLP.Chemscore.Metal>
0.0000

> <Gold.Chemscore.Hbonds>
donor molecule, donor type, donor heavy atom, donor atom, acceptor molecule, acceptor atom, score
      L1  H     8    43       P1  8028  2.00

> <Gold.PLP.Chemscore.Internal.Correction>
0.0228

> <Gold.Rescore>
     Score         DG    S(hbond)    S(metal)    S(lipo)     H(rot)  DE(clash)    DE(int)     intcor
     14.52     -16.56       0.95        0.00      99.44       1.46       0.13       1.91       ----

> <Gold.Chemscore.Fitness>
14.5218

> <Gold.Chemscore.DG>
-16.5636

> <Gold.Chemscore.ZeroCoef>
-5.4800

> <Gold.Chemscore.Hbond>
0.9539

> <Gold.Chemscore.Metal>
0.0000

> <Gold.Chemscore.Lipo>
99.4380

> <Gold.Chemscore.Internal_Hbond>
0.0000

> <Gold.Chemscore.DEClash>
0.1291

> <Gold.Chemscore.DEInternal>
1.9127

> <Gold.Chemscore.Rot>
1.4596

> <Gold.Chemscore.Internal.Correction>
   9.000000E+99

> <Gold.Chemscore.Hbonds>
donor molecule, donor type, donor heavy atom, donor atom, acceptor molecule, acceptor atom, score
      L1  H     8    43       P1  8028  0.90

> <Gold.Chemscore.Hbond.Weighted>
-3.1859

> <Gold.Chemscore.Metal.Weighted>
-0.0000

> <Gold.Chemscore.Lipo.Weighted>
-11.6342

> <Gold.Chemscore.Internal_Hbond.Weighted>
0.0000

> <Gold.Chemscore.DEClash.Weighted>
0.1291

> <Gold.Chemscore.DEInternal.Weighted>
1.9127

> <Gold.Chemscore.Rot.Weighted>
3.7365

> <Gold.Chemscore.Internal.Correction.Weighted>
   9.000000E+99

> <Gold.Protein.RotatedTorsions>
[ 6907 6896 6895 6894 ] final  126.32 input  -60.11 | X-H torsion
[ 7974 7965 7964 7962 ] final  179.91 input  175.53 | X-H torsion
[ 8008 7997 7996 7995 ] final -151.14 input   59.86 | X-H torsion
[ 10167 10162 10161 10158 ] final   57.61 input  -65.29 | X-H torsion
[ 10718 10713 10712 10709 ] final  -97.46 input   66.30 | X-H torsion
[ 10763 10752 10751 10750 ] final -115.51 input  -60.55 | X-H torsion
[ 11005 11000 10999 10996 ] final -157.46 input  -57.11 | X-H torsion

> <Gold.Protein.ActiveResidues>
 VAL166  LYS551  ARG553  GLY616  TRP617  ASP618  TYR619  PRO620  LYS621  CYS622 
 ASP623  PHE694  ASN695  SER759  ASP760  ASP761  ALA762  ILE779  LEU786  VAL792 
 PHE793  MET794  SER795  GLU796  ALA797  LYS798  CYS799  TRP800  GLU811  SER814 

> <Gold.Protein.RotatedAtoms>
  152.3913  133.6683  159.6239 H   0  0  0  0  0  0  0  0  0  0  0  0  # atno 6907 bound_to 6896
  150.7821  133.8949  159.3333 H   0  0  0  0  0  0  0  0  0  0  0  0  # atno 6908 bound_to 6896
  151.6735  135.0974  160.0254 H   0  0  0  0  0  0  0  0  0  0  0  0  # atno 6909 bound_to 6896
  144.7141  140.0619  143.6432 H   0  0  0  0  0  0  0  0  0  0  0  0  # atno 7974 bound_to 7965
  155.6347  140.0695  157.2638 H   0  0  0  0  0  0  0  0  0  0  0  0  # atno 8008 bound_to 7997
  154.4197  140.1761  156.1558 H   0  0  0  0  0  0  0  0  0  0  0  0  # atno 8009 bound_to 7997
  155.9905  140.3345  155.6751 H   0  0  0  0  0  0  0  0  0  0  0  0  # atno 8010 bound_to 7997
  140.1961  144.4036  150.6549 H   0  0  0  0  0  0  0  0  0  0  0  0  # atno 10167 bound_to 10162
  156.0084  130.5195  150.6378 H   0  0  0  0  0  0  0  0  0  0  0  0  # atno 10718 bound_to 10713
  154.8484  135.4379  154.1675 H   0  0  0  0  0  0  0  0  0  0  0  0  # atno 10763 bound_to 10752
  153.2796  135.6952  153.7404 H   0  0  0  0  0  0  0  0  0  0  0  0  # atno 10764 bound_to 10752
  153.6613  135.3434  155.3103 H   0  0  0  0  0  0  0  0  0  0  0  0  # atno 10765 bound_to 10752
  140.6643  134.4315  157.5233 H   0  0  0  0  0  0  0  0  0  0  0  0  # atno 11005 bound_to 11000
  145.9856  139.2975  143.1015 LP  0  0  0  0  0  0  0  0  0  0  0  0  # atno 17320 bound_to 7965
  145.8961  140.9273  143.0527 LP  0  0  0  0  0  0  0  0  0  0  0  0  # atno 17321 bound_to 7965
  140.6422  143.2206  151.6264 LP  0  0  0  0  0  0  0  0  0  0  0  0  # atno 17342 bound_to 10162
  139.5236  144.3128  152.0978 LP  0  0  0  0  0  0  0  0  0  0  0  0  # atno 17343 bound_to 10162
  157.4164  131.0831  151.1173 LP  0  0  0  0  0  0  0  0  0  0  0  0  # atno 17370 bound_to 10713
  157.1788  130.6300  149.5665 LP  0  0  0  0  0  0  0  0  0  0  0  0  # atno 17371 bound_to 10713
  139.9002  134.8573  156.1928 LP  0  0  0  0  0  0  0  0  0  0  0  0  # atno 17394 bound_to 11000
  141.0441  133.6922  156.1651 LP  0  0  0  0  0  0  0  0  0  0  0  0  # atno 17395 bound_to 11000

$$$$
