AV-unprocessed.smi:2061|AV-procd|sdf|8378|dock9
  -GOLD-   2272011 53D 1   1.00000     0.00000
 Structure written by MMmdl.
 44 45  0  0  0  0  0  0  0  0  2 V2000
  145.2210  134.3937  162.6477 C   0  0  0  0  0  0  0  0  0  0  0  0
  146.1248  135.4135  162.0438 C   0  0  0  0  0  0  0  0  0  0  0  0
  147.4845  135.5322  161.9885 C   0  0  0  0  0  0  0  0  0  0  0  0
  147.6762  136.7371  161.2582 C   0  0  0  0  0  0  0  0  0  0  0  0
  148.8572  137.2956  160.9513 N   0  5  0  0  0  0  0  0  0  0  0  0
  149.4676  137.0022  159.7799 C   0  0  0  0  0  0  0  0  0  0  0  0
  149.2193  136.0428  159.0458 O   0  0  0  0  0  0  0  0  0  0  0  0
  150.4293  137.8728  159.4404 N   0  0  0  0  0  0  0  0  0  0  0  0
  151.2678  137.8012  158.2458 C   0  0  0  0  0  0  0  0  0  0  0  0
  151.0986  139.0229  157.2952 C   0  0  2  0  0  0  0  0  0  0  0  0
  152.0856  138.8721  156.1090 C   0  0  0  0  0  0  0  0  0  0  0  0
  151.2282  140.3285  157.9853 N   0  0  0  0  0  0  0  0  0  0  0  0
  152.4501  140.4170  158.7900 C   0  0  0  0  0  0  0  0  0  0  0  0
  152.5886  141.7618  159.5258 C   0  0  1  0  0  0  0  0  0  0  0  0
  153.9121  141.8645  160.2917 C   0  0  0  0  0  0  0  0  0  0  0  0
  152.5423  142.8279  158.5837 O   0  0  0  0  0  0  0  0  0  0  0  0
  151.3890  142.8322  157.7457 C   0  0  2  0  0  0  0  0  0  0  0  0
  150.1313  143.2944  158.5018 C   0  0  0  0  0  0  0  0  0  0  0  0
  151.2186  141.4639  157.0555 C   0  0  0  0  0  0  0  0  0  0  0  0
  146.5334  137.3080  160.9164 N   0  0  0  0  0  0  0  0  0  0  0  0
  145.5336  136.4627  161.4119 O   0  0  0  0  0  0  0  0  0  0  0  0
  145.1875  134.5035  163.7317 H   0  0  0  0  0  0  0  0  0  0  0  0
  145.5688  133.3860  162.4197 H   0  0  0  0  0  0  0  0  0  0  0  0
  144.2049  134.4938  162.2655 H   0  0  0  0  0  0  0  0  0  0  0  0
  148.2251  134.8636  162.4007 H   0  0  0  0  0  0  0  0  0  0  0  0
  150.5981  138.6439  160.0695 H   0  0  0  0  0  0  0  0  0  0  0  0
  152.2935  137.6889  158.5935 H   0  0  0  0  0  0  0  0  0  0  0  0
  151.0210  136.8815  157.7148 H   0  0  0  0  0  0  0  0  0  0  0  0
  150.0920  138.9666  156.8777 H   0  0  0  0  0  0  0  0  0  0  0  0
  152.0266  137.8907  155.6396 H   0  0  0  0  0  0  0  0  0  0  0  0
  153.1165  139.0176  156.4331 H   0  0  0  0  0  0  0  0  0  0  0  0
  151.8802  139.5785  155.3063 H   0  0  0  0  0  0  0  0  0  0  0  0
  152.4647  139.6396  159.5511 H   0  0  0  0  0  0  0  0  0  0  0  0
  153.3218  140.2540  158.1542 H   0  0  0  0  0  0  0  0  0  0  0  0
  151.7722  141.8713  160.2402 H   0  0  0  0  0  0  0  0  0  0  0  0
  153.9951  141.0765  161.0406 H   0  0  0  0  0  0  0  0  0  0  0  0
  153.9899  142.8220  160.8072 H   0  0  0  0  0  0  0  0  0  0  0  0
  154.7656  141.7783  159.6186 H   0  0  0  0  0  0  0  0  0  0  0  0
  151.5805  143.5740  156.9700 H   0  0  0  0  0  0  0  0  0  0  0  0
  149.2889  143.4069  157.8191 H   0  0  0  0  0  0  0  0  0  0  0  0
  150.2987  144.2591  158.9813 H   0  0  0  0  0  0  0  0  0  0  0  0
  149.8310  142.5844  159.2720 H   0  0  0  0  0  0  0  0  0  0  0  0
  152.0164  141.3358  156.3221 H   0  0  0  0  0  0  0  0  0  0  0  0
  150.2859  141.5038  156.4972 H   0  0  0  0  0  0  0  0  0  0  0  0
  1  2  1  0  0  0  0
  1 22  1  0  0  0  0
  1 23  1  0  0  0  0
  1 24  1  0  0  0  0
  2 21  1  0  0  0  0
  2  3  2  0  0  0  0
  3  4  1  0  0  0  0
  3 25  1  0  0  0  0
  4  5  1  0  0  0  0
  4 20  2  0  0  0  0
  5  6  1  0  0  0  0
  6  7  2  0  0  0  0
  6  8  1  0  0  0  0
  8  9  1  0  0  0  0
  8 26  1  0  0  0  0
  9 10  1  0  0  0  0
  9 27  1  0  0  0  0
  9 28  1  0  0  0  0
 10 11  1  0  0  0  0
 10 12  1  0  0  0  0
 10 29  1  0  0  0  0
 11 30  1  0  0  0  0
 11 31  1  0  0  0  0
 11 32  1  0  0  0  0
 12 19  1  0  0  0  0
 12 13  1  0  0  0  0
 13 14  1  0  0  0  0
 13 33  1  0  0  0  0
 13 34  1  0  0  0  0
 14 15  1  0  0  0  0
 14 16  1  0  0  0  0
 14 35  1  0  0  0  0
 15 36  1  0  0  0  0
 15 37  1  0  0  0  0
 15 38  1  0  0  0  0
 16 17  1  0  0  0  0
 17 18  1  0  0  0  0
 17 19  1  0  0  0  0
 17 39  1  0  0  0  0
 18 40  1  0  0  0  0
 18 41  1  0  0  0  0
 18 42  1  0  0  0  0
 19 43  1  0  0  0  0
 19 44  1  0  0  0  0
 20 21  1  0  0  0  0
M  CHG  1   5  -1
M  END
> <s_m_source_file>
AV-unprocessed.smi

> <i_m_source_file_index>
2061

> <i_lp_mmshare_version>
43012

> <i_f3d_flags>
0

> <s_epik_input>
W0NIM11jMVtjSF1jKG5vMSlbTkhdQyg9TylbTkhdW0NIMl1bQ0BIXShbQ0gzXSlOMltDSDJdW0NAQEhdKFtDSDNdKU9bQ0BASF0oW0NIM10pW0NIMl0y

> <s_epik_cmdline>
J2VwaWtfcHl0aG9uJywgJy1waCcsICc3LjAnLCAnLXRuJywgJzgnLCAnLW1hJywgJzIwMCcsICctbWV0YWxfYmluZGluZycsICctaW1hZScsICc8aW5maWxlLm1hZT4nLCAnLW9tYWUnLCAnPG91dGZpbGUubWFlPic=

> <r_epik_Ionization_Penalty>
6.88367

> <r_epik_Ionization_Penalty_Charging>
6.57198

> <r_epik_Ionization_Penalty_Neutral>
0.311681

> <r_epik_State_Penalty>
6.77619

> <r_epik_Charging_Adjusted_Penalty>
13.3482

> <i_epik_Tot_Q>
-1

> <i_epik_Tot_abs_Q>
1

> <r_epik_Metal_State_Penalty>
2.70524

> <b_epik_Metal_Only>
1

> <s_lp_Force_Field>
OPLS_2005

> <r_lp_Energy>
23.679

> <b_lp_Chiralities_Consistent>
1

> <s_lp_Variant>
AV-unprocessed.smi:2061-19

> <Gold.Version>
5.8.1

> <Gold.Id.Protein>
6NUR|6NUR_protein|mol2

> <Gold.PLP.Fitness>
42.7005

> <Gold.PLP.PLP>
-33.8653

> <Gold.PLP.part.hbond>
-2.9814

> <Gold.PLP.part.metal>
0.0000

> <Gold.PLP.part.buried>
-3.9112

> <Gold.PLP.part.nonpolar>
-27.4249

> <Gold.PLP.part.repulsive>
0.2213

> <Gold.PLP.ligand.clash>
0.0000

> <Gold.PLP.ligand.torsion>
0.9388

> <Gold.PLP.Chemscore.Hbond>
3.5593

> <Gold.PLP.Chemscore.CHOScore>
0.0000

> <Gold.PLP.Chemscore.Metal>
0.0000

> <Gold.Chemscore.Hbonds>
donor molecule, donor type, donor heavy atom, donor atom, acceptor molecule, acceptor atom, score
      P1  H  6896  6909       L1     7  0.70
      P1  H  6931  6943       L1     5  0.90
      P1  H  6934  6947       L1    20  0.80

> <Gold.PLP.Chemscore.Internal.Correction>
0.0352

> <Gold.Rescore>
     Score         DG    S(hbond)    S(metal)    S(lipo)     H(rot)  DE(clash)    DE(int)     intcor
     16.96     -17.98       1.98        0.00      83.42       1.52       0.11       0.91       ----

> <Gold.Chemscore.Fitness>
16.9596

> <Gold.Chemscore.DG>
-17.9779

> <Gold.Chemscore.ZeroCoef>
-5.4800

> <Gold.Chemscore.Hbond>
1.9838

> <Gold.Chemscore.Metal>
0.0000

> <Gold.Chemscore.Lipo>
83.4243

> <Gold.Chemscore.Internal_Hbond>
0.0000

> <Gold.Chemscore.DEClash>
0.1130

> <Gold.Chemscore.DEInternal>
0.9053

> <Gold.Chemscore.Rot>
1.5190

> <Gold.Chemscore.Internal.Correction>
   9.000000E+99

> <Gold.Chemscore.Hbonds>
donor molecule, donor type, donor heavy atom, donor atom, acceptor molecule, acceptor atom, score
      P1  H  6896  6909       L1     7  0.41
      P1  H  6931  6943       L1     5  0.24
      P1  H  6934  6947       L1    20  0.12

> <Gold.Chemscore.Hbond.Weighted>
-6.6259

> <Gold.Chemscore.Metal.Weighted>
-0.0000

> <Gold.Chemscore.Lipo.Weighted>
-9.7606

> <Gold.Chemscore.Internal_Hbond.Weighted>
0.0000

> <Gold.Chemscore.DEClash.Weighted>
0.1130

> <Gold.Chemscore.DEInternal.Weighted>
0.9053

> <Gold.Chemscore.Rot.Weighted>
3.8886

> <Gold.Chemscore.Internal.Correction.Weighted>
   9.000000E+99

> <Gold.Protein.RotatedTorsions>
[ 6907 6896 6895 6894 ] final   44.08 input  -60.11 | X-H torsion
[ 7974 7965 7964 7962 ] final -175.04 input  175.53 | X-H torsion
[ 8008 7997 7996 7995 ] final   98.85 input   59.86 | X-H torsion
[ 10167 10162 10161 10158 ] final  119.61 input  -65.29 | X-H torsion
[ 10718 10713 10712 10709 ] final -108.14 input   66.30 | X-H torsion
[ 10763 10752 10751 10750 ] final   66.90 input  -60.55 | X-H torsion
[ 11005 11000 10999 10996 ] final  148.73 input  -57.11 | X-H torsion

> <Gold.Protein.ActiveResidues>
 VAL166  LYS551  ARG553  GLY616  TRP617  ASP618  TYR619  PRO620  LYS621  CYS622 
 ASP623  PHE694  ASN695  SER759  ASP760  ASP761  ALA762  ILE779  LEU786  VAL792 
 PHE793  MET794  SER795  GLU796  ALA797  LYS798  CYS799  TRP800  GLU811  SER814 

> <Gold.Protein.RotatedAtoms>
  152.2282  134.8348  160.0476 H   0  0  0  0  0  0  0  0  0  0  0  0  # atno 6907 bound_to 6896
  151.9106  133.3555  159.3870 H   0  0  0  0  0  0  0  0  0  0  0  0  # atno 6908 bound_to 6896
  150.7018  134.4661  159.5447 H   0  0  0  0  0  0  0  0  0  0  0  0  # atno 6909 bound_to 6896
  144.7129  140.1381  143.6394 H   0  0  0  0  0  0  0  0  0  0  0  0  # atno 7974 bound_to 7965
  156.1046  140.3237  155.7988 H   0  0  0  0  0  0  0  0  0  0  0  0  # atno 8008 bound_to 7997
  155.4778  140.0551  157.2988 H   0  0  0  0  0  0  0  0  0  0  0  0  # atno 8009 bound_to 7997
  154.4719  140.2015  155.9988 H   0  0  0  0  0  0  0  0  0  0  0  0  # atno 8010 bound_to 7997
  139.6035  144.7063  151.3007 H   0  0  0  0  0  0  0  0  0  0  0  0  # atno 10167 bound_to 10162
  156.0471  130.5698  150.7920 H   0  0  0  0  0  0  0  0  0  0  0  0  # atno 10718 bound_to 10713
  153.0161  135.5304  154.6895 H   0  0  0  0  0  0  0  0  0  0  0  0  # atno 10763 bound_to 10752
  154.6034  135.2870  155.0513 H   0  0  0  0  0  0  0  0  0  0  0  0  # atno 10764 bound_to 10752
  154.1562  135.6555  153.5027 H   0  0  0  0  0  0  0  0  0  0  0  0  # atno 10765 bound_to 10752
  140.0984  134.8998  157.1759 H   0  0  0  0  0  0  0  0  0  0  0  0  # atno 11005 bound_to 11000
  145.9227  139.2556  143.1372 LP  0  0  0  0  0  0  0  0  0  0  0  0  # atno 17320 bound_to 7965
  145.9604  140.8840  143.0214 LP  0  0  0  0  0  0  0  0  0  0  0  0  # atno 17321 bound_to 7965
  140.7267  143.6982  150.7866 LP  0  0  0  0  0  0  0  0  0  0  0  0  # atno 17342 bound_to 10162
  140.0563  143.5199  152.2649 LP  0  0  0  0  0  0  0  0  0  0  0  0  # atno 17343 bound_to 10162
  157.5358  131.0938  150.9894 LP  0  0  0  0  0  0  0  0  0  0  0  0  # atno 17370 bound_to 10713
  157.0189  130.5666  149.5329 LP  0  0  0  0  0  0  0  0  0  0  0  0  # atno 17371 bound_to 10713
  140.3254  134.2869  155.7238 LP  0  0  0  0  0  0  0  0  0  0  0  0  # atno 17394 bound_to 11000
  141.2099  133.7736  156.9969 LP  0  0  0  0  0  0  0  0  0  0  0  0  # atno 17395 bound_to 11000

$$$$
