AV-unprocessed.smi:1690|AV-procd|sdf|6773|dock3
  -GOLD-   22720 7533D 1   1.00000     0.00000
 Structure written by MMmdl.
 37 38  0  0  0  0  0  0  0  0  1 V2000
  150.8772  144.6738  159.9667 C   0  0  0  0  0  0  0  0  0  0  0  0
  152.2782  144.2225  159.5291 C   0  0  0  0  0  0  0  0  0  0  0  0
  152.6648  144.7277  158.1313 C   0  0  0  0  0  0  0  0  0  0  0  0
  152.4609  142.7434  159.6608 C   0  0  0  0  0  0  0  0  0  0  0  0
  151.7886  141.8464  158.9334 N   0  0  0  0  0  0  0  0  0  0  0  0
  152.1511  140.5277  159.2278 C   0  0  0  0  0  0  0  0  0  0  0  0
  151.5084  139.3906  158.4864 C   0  0  0  0  0  0  0  0  0  0  0  0
  151.5212  139.6582  156.9795 C   0  0  0  0  0  0  0  0  0  0  0  0
  152.5888  139.6833  156.3672 O   0  0  0  0  0  0  0  0  0  0  0  0
  150.3277  139.8473  156.3943 N   0  0  0  0  0  0  0  0  0  0  0  0
  150.1133  140.1300  154.9783 C   0  0  0  0  0  0  0  0  0  0  0  0
  149.3271  141.4436  154.7999 C   0  0  0  0  0  0  0  0  0  0  0  0
  148.1683  141.1218  153.8540 C   0  0  0  0  0  0  0  0  0  0  0  0
  147.8841  139.6418  154.0905 C   0  0  0  0  0  0  0  0  0  0  0  0
  149.2673  139.0291  154.3105 C   0  0  0  0  0  0  0  0  0  0  0  0
  153.1051  140.4376  160.2111 C   0  0  0  0  0  0  0  0  0  0  0  0
  153.5928  142.0067  160.7899 S   0  0  0  0  0  0  0  0  0  0  0  0
  150.6699  144.3687  160.9929 H   0  0  0  0  0  0  0  0  0  0  0  0
  150.1045  144.2441  159.3285 H   0  0  0  0  0  0  0  0  0  0  0  0
  150.7811  145.7588  159.9189 H   0  0  0  0  0  0  0  0  0  0  0  0
  152.9802  144.6815  160.2265 H   0  0  0  0  0  0  0  0  0  0  0  0
  153.6942  144.4615  157.8893 H   0  0  0  0  0  0  0  0  0  0  0  0
  152.5805  145.8127  158.0683 H   0  0  0  0  0  0  0  0  0  0  0  0
  152.0205  144.2998  157.3626 H   0  0  0  0  0  0  0  0  0  0  0  0
  152.0317  138.4561  158.6930 H   0  0  0  0  0  0  0  0  0  0  0  0
  150.4778  139.2445  158.8124 H   0  0  0  0  0  0  0  0  0  0  0  0
  149.5053  139.8065  156.9793 H   0  0  0  0  0  0  0  0  0  0  0  0
  151.0751  140.2113  154.4682 H   0  0  0  0  0  0  0  0  0  0  0  0
  148.9235  141.7854  155.7548 H   0  0  0  0  0  0  0  0  0  0  0  0
  149.9540  142.2472  154.4122 H   0  0  0  0  0  0  0  0  0  0  0  0
  147.2959  141.7516  154.0301 H   0  0  0  0  0  0  0  0  0  0  0  0
  148.4844  141.2724  152.8209 H   0  0  0  0  0  0  0  0  0  0  0  0
  147.2809  139.5220  154.9914 H   0  0  0  0  0  0  0  0  0  0  0  0
  147.3458  139.1787  153.2631 H   0  0  0  0  0  0  0  0  0  0  0  0
  149.7056  138.7785  153.3434 H   0  0  0  0  0  0  0  0  0  0  0  0
  149.2200  138.1047  154.8879 H   0  0  0  0  0  0  0  0  0  0  0  0
  153.5543  139.5458  160.6226 H   0  0  0  0  0  0  0  0  0  0  0  0
  1  2  1  0  0  0  0
  1 18  1  0  0  0  0
  1 19  1  0  0  0  0
  1 20  1  0  0  0  0
  2  3  1  0  0  0  0
  2  4  1  0  0  0  0
  2 21  1  0  0  0  0
  3 22  1  0  0  0  0
  3 23  1  0  0  0  0
  3 24  1  0  0  0  0
  4 17  1  0  0  0  0
  4  5  2  0  0  0  0
  5  6  1  0  0  0  0
  6  7  1  0  0  0  0
  6 16  2  0  0  0  0
  7  8  1  0  0  0  0
  7 25  1  0  0  0  0
  7 26  1  0  0  0  0
  8  9  2  0  0  0  0
  8 10  1  0  0  0  0
 10 11  1  0  0  0  0
 10 27  1  0  0  0  0
 11 15  1  0  0  0  0
 11 12  1  0  0  0  0
 11 28  1  0  0  0  0
 12 13  1  0  0  0  0
 12 29  1  0  0  0  0
 12 30  1  0  0  0  0
 13 14  1  0  0  0  0
 13 31  1  0  0  0  0
 13 32  1  0  0  0  0
 14 15  1  0  0  0  0
 14 33  1  0  0  0  0
 14 34  1  0  0  0  0
 15 35  1  0  0  0  0
 15 36  1  0  0  0  0
 16 17  1  0  0  0  0
 16 37  1  0  0  0  0
M  END
> <s_m_source_file>
AV-unprocessed.smi

> <i_m_source_file_index>
1690

> <i_lp_mmshare_version>
43012

> <i_f3d_flags>
0

> <s_epik_input>
W0NIM11bQ0hdKFtDSDNdKWMxbmMoW2NIXXMxKVtDSDJdQyg9TylbTkhdW0NIXTJbQ0gyXVtDSDJdW0NIMl1bQ0gyXTI=

> <s_epik_cmdline>
J2VwaWtfcHl0aG9uJywgJy1waCcsICc3LjAnLCAnLXRuJywgJzgnLCAnLW1hJywgJzIwMCcsICctbWV0YWxfYmluZGluZycsICctaW1hZScsICc8aW5maWxlLm1hZT4nLCAnLW9tYWUnLCAnPG91dGZpbGUubWFlPic=

> <r_lp_tautomer_probability>
1

> <r_epik_Ionization_Penalty>
4.81312e-05

> <r_epik_Ionization_Penalty_Charging>
0

> <r_epik_Ionization_Penalty_Neutral>
4.81312e-05

> <r_epik_State_Penalty>
-0

> <r_epik_Charging_Adjusted_Penalty>
0

> <i_epik_Tot_Q>
0

> <i_epik_Tot_abs_Q>
0

> <r_epik_Metal_State_Penalty>
-0

> <b_epik_Metal_Only>
0

> <s_lp_Force_Field>
OPLS_2005

> <r_lp_Energy>
9.48899

> <b_lp_Chiralities_Consistent>
1

> <s_lp_Variant>
AV-unprocessed.smi:1690-1

> <Gold.Version>
5.8.1

> <Gold.Id.Protein>
6NUR|6NUR_protein|mol2

> <Gold.PLP.Fitness>
44.1813

> <Gold.PLP.PLP>
-41.5479

> <Gold.PLP.part.hbond>
-1.0000

> <Gold.PLP.part.metal>
0.0000

> <Gold.PLP.part.buried>
-4.0555

> <Gold.PLP.part.nonpolar>
-36.9945

> <Gold.PLP.part.repulsive>
0.0386

> <Gold.PLP.ligand.clash>
0.0000

> <Gold.PLP.ligand.torsion>
0.2220

> <Gold.PLP.Chemscore.Hbond>
1.0000

> <Gold.PLP.Chemscore.CHOScore>
0.0000

> <Gold.PLP.Chemscore.Metal>
0.0000

> <Gold.Chemscore.Hbonds>
donor molecule, donor type, donor heavy atom, donor atom, acceptor molecule, acceptor atom, score
      P1  H  7997  8008       L1     9  1.00

> <Gold.PLP.Chemscore.Internal.Correction>
0.0774

> <Gold.Rescore>
     Score         DG    S(hbond)    S(metal)    S(lipo)     H(rot)  DE(clash)    DE(int)     intcor
     18.98     -19.29       1.00        0.00     119.01       1.35       0.11       0.20       ----

> <Gold.Chemscore.Fitness>
18.9791

> <Gold.Chemscore.DG>
-19.2880

> <Gold.Chemscore.ZeroCoef>
-5.4800

> <Gold.Chemscore.Hbond>
0.9992

> <Gold.Chemscore.Metal>
0.0000

> <Gold.Chemscore.Lipo>
119.0067

> <Gold.Chemscore.Internal_Hbond>
0.0000

> <Gold.Chemscore.DEClash>
0.1081

> <Gold.Chemscore.DEInternal>
0.2008

> <Gold.Chemscore.Rot>
1.3489

> <Gold.Chemscore.Internal.Correction>
   9.000000E+99

> <Gold.Chemscore.Hbonds>
donor molecule, donor type, donor heavy atom, donor atom, acceptor molecule, acceptor atom, score
      P1  H  7997  8008       L1     9  1.00

> <Gold.Chemscore.Hbond.Weighted>
-3.3374

> <Gold.Chemscore.Metal.Weighted>
-0.0000

> <Gold.Chemscore.Lipo.Weighted>
-13.9238

> <Gold.Chemscore.Internal_Hbond.Weighted>
0.0000

> <Gold.Chemscore.DEClash.Weighted>
0.1081

> <Gold.Chemscore.DEInternal.Weighted>
0.2008

> <Gold.Chemscore.Rot.Weighted>
3.4532

> <Gold.Chemscore.Internal.Correction.Weighted>
   9.000000E+99

> <Gold.Protein.RotatedTorsions>
[ 6907 6896 6895 6894 ] final  125.38 input  -60.11 | X-H torsion
[ 7974 7965 7964 7962 ] final   17.70 input  175.53 | X-H torsion
[ 8008 7997 7996 7995 ] final  -36.98 input   59.86 | X-H torsion
[ 10167 10162 10161 10158 ] final    7.07 input  -65.29 | X-H torsion
[ 10718 10713 10712 10709 ] final  104.73 input   66.30 | X-H torsion
[ 10763 10752 10751 10750 ] final  104.96 input  -60.55 | X-H torsion
[ 11005 11000 10999 10996 ] final  -61.62 input  -57.11 | X-H torsion

> <Gold.Protein.ActiveResidues>
 VAL166  LYS551  ARG553  GLY616  TRP617  ASP618  TYR619  PRO620  LYS621  CYS622 
 ASP623  PHE694  ASN695  SER759  ASP760  ASP761  ALA762  ILE779  LEU786  VAL792 
 PHE793  MET794  SER795  GLU796  ALA797  LYS798  CYS799  TRP800  GLU811  SER814 

> <Gold.Protein.RotatedAtoms>
  152.3997  133.6799  159.6305 H   0  0  0  0  0  0  0  0  0  0  0  0  # atno 6907 bound_to 6896
  150.7890  133.8813  159.3295 H   0  0  0  0  0  0  0  0  0  0  0  0  # atno 6908 bound_to 6896
  151.6581  135.0994  160.0225 H   0  0  0  0  0  0  0  0  0  0  0  0  # atno 6909 bound_to 6896
  146.2210  139.8564  142.8613 H   0  0  0  0  0  0  0  0  0  0  0  0  # atno 7974 bound_to 7965
  154.4062  140.1616  156.2462 H   0  0  0  0  0  0  0  0  0  0  0  0  # atno 8008 bound_to 7997
  155.9158  140.3424  155.6112 H   0  0  0  0  0  0  0  0  0  0  0  0  # atno 8009 bound_to 7997
  155.7281  140.0777  157.2292 H   0  0  0  0  0  0  0  0  0  0  0  0  # atno 8010 bound_to 7997
  140.6392  143.7813  150.7404 H   0  0  0  0  0  0  0  0  0  0  0  0  # atno 10167 bound_to 10162
  157.6730  131.0811  150.5750 H   0  0  0  0  0  0  0  0  0  0  0  0  # atno 10718 bound_to 10713
  153.3729  135.3926  155.1802 H   0  0  0  0  0  0  0  0  0  0  0  0  # atno 10763 bound_to 10752
  154.8697  135.3707  154.4954 H   0  0  0  0  0  0  0  0  0  0  0  0  # atno 10764 bound_to 10752
  153.5424  135.7084  153.5691 H   0  0  0  0  0  0  0  0  0  0  0  0  # atno 10765 bound_to 10752
  141.1331  133.6632  156.5403 H   0  0  0  0  0  0  0  0  0  0  0  0  # atno 11005 bound_to 11000
  145.2749  141.0120  143.3751 LP  0  0  0  0  0  0  0  0  0  0  0  0  # atno 17320 bound_to 7965
  144.9195  139.4429  143.6548 LP  0  0  0  0  0  0  0  0  0  0  0  0  # atno 17321 bound_to 7965
  140.1441  143.4415  152.2174 LP  0  0  0  0  0  0  0  0  0  0  0  0  # atno 17342 bound_to 10162
  139.5602  144.7400  151.4177 LP  0  0  0  0  0  0  0  0  0  0  0  0  # atno 17343 bound_to 10162
  156.6051  130.4365  149.5881 LP  0  0  0  0  0  0  0  0  0  0  0  0  # atno 17370 bound_to 10713
  156.2475  130.6887  151.1614 LP  0  0  0  0  0  0  0  0  0  0  0  0  # atno 17371 bound_to 10713
  140.4145  134.7243  157.4855 LP  0  0  0  0  0  0  0  0  0  0  0  0  # atno 17394 bound_to 11000
  140.0404  134.6276  155.8988 LP  0  0  0  0  0  0  0  0  0  0  0  0  # atno 17395 bound_to 11000

$$$$
