AV-unprocessed.smi:102|AV-procd|sdf|945|dock2
  -GOLD-   2262017463D 1   1.00000     0.00000
 Structure written by MMmdl.
 44 45  0  0  0  0  0  0  0  0  1 V2000
  145.6432  136.8164  162.0872 C   0  0  0  0  0  0  0  0  0  0  0  0
  147.0244  136.5209  161.5172 C   0  0  0  0  0  0  0  0  0  0  0  0
  148.0246  136.5022  162.2347 O   0  0  0  0  0  0  0  0  0  0  0  0
  146.9987  136.2981  160.1950 O   0  0  0  0  0  0  0  0  0  0  0  0
  148.2063  136.0038  159.5098 C   0  0  0  0  0  0  0  0  0  0  0  0
  148.3105  136.8415  158.2292 C   0  0  2  0  0  0  0  0  0  0  0  0
  147.2285  136.5555  157.3536 O   0  0  0  0  0  0  0  0  0  0  0  0
  147.6033  136.8981  156.0602 C   0  0  1  0  0  0  0  0  0  0  0  0
  147.1450  138.3321  155.7985 N   0  0  0  0  0  0  0  0  0  0  0  0
  147.4985  139.4002  156.6188 C   0  0  0  0  0  0  0  0  0  0  0  0
  147.0301  140.6587  156.4497 C   0  0  0  0  0  0  0  0  0  0  0  0
  147.4287  141.6326  157.2856 F   0  0  0  0  0  0  0  0  0  0  0  0
  146.0791  140.9619  155.3869 C   0  0  0  0  0  0  0  0  0  0  0  0
  145.6093  142.0716  155.1441 O   0  0  0  0  0  0  0  0  0  0  0  0
  145.6979  139.8541  154.6271 N   0  0  0  0  0  0  0  0  0  0  0  0
  146.1651  138.5501  154.7997 C   0  0  0  0  0  0  0  0  0  0  0  0
  145.7188  137.6505  154.0890 O   0  0  0  0  0  0  0  0  0  0  0  0
  149.1210  136.6278  155.9473 C   0  0  1  0  0  0  0  0  0  0  0  0
  149.8094  137.5461  155.1011 O   0  0  0  0  0  0  0  0  0  0  0  0
  151.1173  137.3822  154.8437 C   0  0  0  0  0  0  0  0  0  0  0  0
  151.8241  138.7038  154.5755 C   0  0  0  0  0  0  0  0  0  0  0  0
  151.7195  136.3094  154.8051 O   0  0  0  0  0  0  0  0  0  0  0  0
  149.5936  136.6175  157.4084 C   0  0  1  0  0  0  0  0  0  0  0  0
  150.5349  137.6443  157.7056 O   0  0  0  0  0  0  0  0  0  0  0  0
  151.0616  137.7507  158.9382 C   0  0  0  0  0  0  0  0  0  0  0  0
  152.0723  138.8849  159.0395 C   0  0  0  0  0  0  0  0  0  0  0  0
  150.7997  137.0333  159.9035 O   0  0  0  0  0  0  0  0  0  0  0  0
  145.0155  140.0074  153.8989 H   0  0  0  0  0  0  0  0  0  0  0  0
  144.8668  136.3457  161.4832 H   0  0  0  0  0  0  0  0  0  0  0  0
  145.4654  137.8918  162.1041 H   0  0  0  0  0  0  0  0  0  0  0  0
  145.5643  136.4366  163.1060 H   0  0  0  0  0  0  0  0  0  0  0  0
  149.0586  136.2067  160.1596 H   0  0  0  0  0  0  0  0  0  0  0  0
  148.2335  134.9429  159.2568 H   0  0  0  0  0  0  0  0  0  0  0  0
  148.2272  137.8941  158.5023 H   0  0  0  0  0  0  0  0  0  0  0  0
  147.0728  136.2762  155.3382 H   0  0  0  0  0  0  0  0  0  0  0  0
  148.1730  139.2478  157.4442 H   0  0  0  0  0  0  0  0  0  0  0  0
  149.2435  135.6126  155.5662 H   0  0  0  0  0  0  0  0  0  0  0  0
  151.5911  139.4260  155.3585 H   0  0  0  0  0  0  0  0  0  0  0  0
  151.5046  139.1140  153.6174 H   0  0  0  0  0  0  0  0  0  0  0  0
  152.9047  138.5609  154.5482 H   0  0  0  0  0  0  0  0  0  0  0  0
  150.0115  135.6360  157.6364 H   0  0  0  0  0  0  0  0  0  0  0  0
  151.6325  139.8177  158.6855 H   0  0  0  0  0  0  0  0  0  0  0  0
  152.9508  138.6630  158.4332 H   0  0  0  0  0  0  0  0  0  0  0  0
  152.3906  139.0235  160.0732 H   0  0  0  0  0  0  0  0  0  0  0  0
  1  2  1  0  0  0  0
  1 29  1  0  0  0  0
  1 30  1  0  0  0  0
  1 31  1  0  0  0  0
  2  3  2  0  0  0  0
  2  4  1  0  0  0  0
  4  5  1  0  0  0  0
  5  6  1  0  0  0  0
  5 32  1  0  0  0  0
  5 33  1  0  0  0  0
  6 23  1  0  0  0  0
  6  7  1  0  0  0  0
  6 34  1  0  0  0  0
  7  8  1  0  0  0  0
  8  9  1  0  0  0  0
  8 18  1  0  0  0  0
  8 35  1  0  0  0  0
  9 16  1  0  0  0  0
  9 10  1  0  0  0  0
 10 11  2  0  0  0  0
 10 36  1  0  0  0  0
 11 12  1  0  0  0  0
 11 13  1  0  0  0  0
 13 14  2  0  0  0  0
 13 15  1  0  0  0  0
 15 28  1  0  0  0  0
 15 16  1  0  0  0  0
 16 17  2  0  0  0  0
 18 19  1  0  0  0  0
 18 23  1  0  0  0  0
 18 37  1  0  0  0  0
 19 20  1  0  0  0  0
 20 21  1  0  0  0  0
 20 22  2  0  0  0  0
 21 38  1  0  0  0  0
 21 39  1  0  0  0  0
 21 40  1  0  0  0  0
 23 24  1  0  0  0  0
 23 41  1  0  0  0  0
 24 25  1  0  0  0  0
 25 26  1  0  0  0  0
 25 27  2  0  0  0  0
 26 42  1  0  0  0  0
 26 43  1  0  0  0  0
 26 44  1  0  0  0  0
M  END
> <s_m_source_file>
AV-unprocessed.smi

> <i_m_source_file_index>
102

> <i_lp_mmshare_version>
43012

> <i_f3d_flags>
0

> <s_epik_input>
W0NIM11DKD1PKU9bQ0gyXVtDQEBIXTFPW0NASF0oW0NAQEhdKE9DKD1PKVtDSDNdKVtDQEhdMU9DKD1PKVtDSDNdKW4yW2NIXWMoRiljKD1PKVtuSF1jMj1P

> <s_epik_cmdline>
J2VwaWtfcHl0aG9uJywgJy1waCcsICc3LjAnLCAnLXRuJywgJzgnLCAnLW1hJywgJzIwMCcsICctbWV0YWxfYmluZGluZycsICctaW1hZScsICc8aW5maWxlLm1hZT4nLCAnLW9tYWUnLCAnPG91dGZpbGUubWFlPic=

> <r_lp_tautomer_probability>
0.999537

> <r_epik_Ionization_Penalty>
0.058267

> <r_epik_Ionization_Penalty_Charging>
0.058267

> <r_epik_Ionization_Penalty_Neutral>
6.57791e-16

> <r_epik_State_Penalty>
0.0503774

> <r_epik_Charging_Adjusted_Penalty>
0.108644

> <i_epik_Tot_Q>
0

> <i_epik_Tot_abs_Q>
0

> <r_epik_Metal_State_Penalty>
2.6644

> <b_epik_Metal_Only>
0

> <s_epik_Chemistry_Notes>
This compound has an ester and may undergo hydrolysis at high or low pH. This compound contains an acetal/aminal-like group ( X-CH(R)-Y where X, Y are N, S, or O) that may be acid/base labile, releasing an aldehyde.

> <s_lp_Force_Field>
OPLS_2005

> <r_lp_Energy>
14.9607

> <b_lp_Chiralities_Consistent>
1

> <s_lp_Variant>
AV-unprocessed.smi:102-1

> <Gold.Version>
5.8.1

> <Gold.Id.Protein>
6NUR|6NUR_protein|mol2

> <Gold.PLP.Fitness>
36.2581

> <Gold.PLP.PLP>
-25.4401

> <Gold.PLP.part.hbond>
-4.1058

> <Gold.PLP.part.metal>
0.0000

> <Gold.PLP.part.buried>
-6.6977

> <Gold.PLP.part.nonpolar>
-15.0149

> <Gold.PLP.part.repulsive>
0.5567

> <Gold.PLP.ligand.clash>
0.0000

> <Gold.PLP.ligand.torsion>
0.7719

> <Gold.PLP.Chemscore.Hbond>
3.9913

> <Gold.PLP.Chemscore.CHOScore>
0.0000

> <Gold.PLP.Chemscore.Metal>
0.0000

> <Gold.Chemscore.Hbonds>
donor molecule, donor type, donor heavy atom, donor atom, acceptor molecule, acceptor atom, score
      L1  H    15    28       P1 10175  1.00
      P1  H  6896  6907       L1    27  1.00
      P1  H  6931  6943       L1     3  0.99
      P1  H 10752 10764       L1    22  0.76

> <Gold.PLP.Chemscore.Internal.Correction>
0.3879

> <Gold.Rescore>
     Score         DG    S(hbond)    S(metal)    S(lipo)     H(rot)  DE(clash)    DE(int)     intcor
      9.97     -12.05       3.97        0.00      31.38       4.05       0.03       2.06       ----

> <Gold.Chemscore.Fitness>
9.9662

> <Gold.Chemscore.DG>
-12.0509

> <Gold.Chemscore.ZeroCoef>
-5.4800

> <Gold.Chemscore.Hbond>
3.9739

> <Gold.Chemscore.Metal>
0.0000

> <Gold.Chemscore.Lipo>
31.3770

> <Gold.Chemscore.Internal_Hbond>
0.0000

> <Gold.Chemscore.DEClash>
0.0270

> <Gold.Chemscore.DEInternal>
2.0577

> <Gold.Chemscore.Rot>
4.0520

> <Gold.Chemscore.Internal.Correction>
   9.000000E+99

> <Gold.Chemscore.Hbonds>
donor molecule, donor type, donor heavy atom, donor atom, acceptor molecule, acceptor atom, score
      L1  H    15    28       P1 10175  0.96
      P1  H  6896  6907       L1    27  0.97
      P1  H  6931  6943       L1     3  0.60
      P1  H 10752 10764       L1    22  0.77

> <Gold.Chemscore.Hbond.Weighted>
-13.2730

> <Gold.Chemscore.Metal.Weighted>
-0.0000

> <Gold.Chemscore.Lipo.Weighted>
-3.6711

> <Gold.Chemscore.Internal_Hbond.Weighted>
0.0000

> <Gold.Chemscore.DEClash.Weighted>
0.0270

> <Gold.Chemscore.DEInternal.Weighted>
2.0577

> <Gold.Chemscore.Rot.Weighted>
10.3732

> <Gold.Chemscore.Internal.Correction.Weighted>
   9.000000E+99

> <Gold.Protein.RotatedTorsions>
[ 6907 6896 6895 6894 ] final  -17.51 input  -60.11 | X-H torsion
[ 7974 7965 7964 7962 ] final  -47.44 input  175.53 | X-H torsion
[ 8008 7997 7996 7995 ] final   24.55 input   59.86 | X-H torsion
[ 10167 10162 10161 10158 ] final   35.19 input  -65.29 | X-H torsion
[ 10718 10713 10712 10709 ] final   37.77 input   66.30 | X-H torsion
[ 10763 10752 10751 10750 ] final  -54.44 input  -60.55 | X-H torsion
[ 11005 11000 10999 10996 ] final  155.63 input  -57.11 | X-H torsion

> <Gold.Protein.ActiveResidues>
 VAL166  LYS551  ARG553  GLY616  TRP617  ASP618  TYR619  PRO620  LYS621  CYS622 
 ASP623  PHE694  ASN695  SER759  ASP760  ASP761  ALA762  ILE779  LEU786  VAL792 
 PHE793  MET794  SER795  GLU796  ALA797  LYS798  CYS799  TRP800  GLU811  SER814 

> <Gold.Protein.RotatedAtoms>
  151.2923  135.0745  159.9208 H   0  0  0  0  0  0  0  0  0  0  0  0  # atno 6907 bound_to 6896
  152.5314  133.9919  159.7865 H   0  0  0  0  0  0  0  0  0  0  0  0  # atno 6908 bound_to 6896
  151.0191  133.5842  159.2704 H   0  0  0  0  0  0  0  0  0  0  0  0  # atno 6909 bound_to 6896
  145.9616  140.7474  142.9455 H   0  0  0  0  0  0  0  0  0  0  0  0  # atno 7974 bound_to 7965
  154.9980  140.3122  155.4879 H   0  0  0  0  0  0  0  0  0  0  0  0  # atno 8008 bound_to 7997
  156.2929  140.2237  156.5029 H   0  0  0  0  0  0  0  0  0  0  0  0  # atno 8009 bound_to 7997
  154.7644  140.0457  157.0988 H   0  0  0  0  0  0  0  0  0  0  0  0  # atno 8010 bound_to 7997
  140.4245  144.1412  150.6152 H   0  0  0  0  0  0  0  0  0  0  0  0  # atno 10167 bound_to 10162
  157.3509  130.7598  149.6978 H   0  0  0  0  0  0  0  0  0  0  0  0  # atno 10718 bound_to 10713
  154.1748  135.6453  153.5019 H   0  0  0  0  0  0  0  0  0  0  0  0  # atno 10763 bound_to 10752
  153.0074  135.5392  154.6575 H   0  0  0  0  0  0  0  0  0  0  0  0  # atno 10764 bound_to 10752
  154.5924  135.2935  155.0594 H   0  0  0  0  0  0  0  0  0  0  0  0  # atno 10765 bound_to 10752
  140.1599  134.8617  157.2561 H   0  0  0  0  0  0  0  0  0  0  0  0  # atno 11005 bound_to 11000
  144.6816  140.2600  143.7320 LP  0  0  0  0  0  0  0  0  0  0  0  0  # atno 17320 bound_to 7965
  145.8032  139.1973  143.2036 LP  0  0  0  0  0  0  0  0  0  0  0  0  # atno 17321 bound_to 7965
  140.4496  143.2492  151.9365 LP  0  0  0  0  0  0  0  0  0  0  0  0  # atno 17342 bound_to 10162
  139.4783  144.5575  151.8291 LP  0  0  0  0  0  0  0  0  0  0  0  0  # atno 17343 bound_to 10162
  155.9721  130.4141  150.4114 LP  0  0  0  0  0  0  0  0  0  0  0  0  # atno 17370 bound_to 10713
  157.2176  131.0475  151.2564 LP  0  0  0  0  0  0  0  0  0  0  0  0  # atno 17371 bound_to 10713
  140.2502  134.3691  155.7445 LP  0  0  0  0  0  0  0  0  0  0  0  0  # atno 17394 bound_to 11000
  141.2208  133.7313  156.8924 LP  0  0  0  0  0  0  0  0  0  0  0  0  # atno 17395 bound_to 11000

$$$$
