AV-unprocessed.smi:1339|AV-procd|sdf|5502|dock1
  -GOLD-   22720 5 83D 1   1.00000     0.00000
 Structure written by MMmdl.
 40 41  0  0  0  0  0  0  0  0  1 V2000
  152.4047  142.3209  159.3618 C   0  0  0  0  0  0  0  0  0  0  0  0
  151.9486  143.4644  158.4400 C   0  0  0  0  0  0  0  0  0  0  0  0
  151.8493  144.7788  159.2295 C   0  0  0  0  0  0  0  0  0  0  0  0
  150.6146  143.1515  157.7324 C   0  0  0  0  0  0  0  0  0  0  0  0
  150.6827  141.9563  156.7637 C   0  0  0  0  0  0  0  0  0  0  0  0
  149.6719  142.0671  155.7191 N   0  0  0  0  0  0  0  0  0  0  0  0
  149.4655  141.1637  154.7477 C   0  0  0  0  0  0  0  0  0  0  0  0
  150.1415  140.1436  154.6151 O   0  0  0  0  0  0  0  0  0  0  0  0
  148.3129  141.4486  153.7842 C   0  0  0  0  0  0  0  0  0  0  0  0
  147.1296  141.9745  154.5432 C   0  0  0  0  0  0  0  0  0  0  0  0
  146.5436  141.4121  155.6513 C   0  0  0  0  0  0  0  0  0  0  0  0
  145.1817  142.3420  156.2138 S   0  0  0  0  0  0  0  0  0  0  0  0
  145.4688  143.4897  154.9076 C   0  0  0  0  0  0  0  0  0  0  0  0
  144.6682  144.6512  154.6941 N   0  0  0  0  0  0  0  0  0  0  0  0
  143.8341  145.1985  155.7569 C   0  0  0  0  0  0  0  0  0  0  0  0
  143.1566  146.4018  155.1080 C   0  0  0  0  0  0  0  0  0  0  0  0
  143.7028  146.3746  153.7718 N   0  0  0  0  0  0  0  0  0  0  0  0
  144.5591  145.3729  153.5591 C   0  0  0  0  0  0  0  0  0  0  0  0
  145.1356  145.1747  152.4905 O   0  0  0  0  0  0  0  0  0  0  0  0
  146.5105  143.1601  154.1348 N   0  0  0  0  0  0  0  0  0  0  0  0
  151.6562  142.1057  160.1251 H   0  0  0  0  0  0  0  0  0  0  0  0
  153.3339  142.5767  159.8721 H   0  0  0  0  0  0  0  0  0  0  0  0
  152.5882  141.4019  158.8063 H   0  0  0  0  0  0  0  0  0  0  0  0
  152.7136  143.6043  157.6752 H   0  0  0  0  0  0  0  0  0  0  0  0
  151.0935  144.7142  160.0131 H   0  0  0  0  0  0  0  0  0  0  0  0
  151.5829  145.6119  158.5783 H   0  0  0  0  0  0  0  0  0  0  0  0
  152.7994  145.0266  159.7038 H   0  0  0  0  0  0  0  0  0  0  0  0
  149.8378  142.9814  158.4796 H   0  0  0  0  0  0  0  0  0  0  0  0
  150.2995  144.0302  157.1677 H   0  0  0  0  0  0  0  0  0  0  0  0
  151.6612  141.9212  156.2845 H   0  0  0  0  0  0  0  0  0  0  0  0
  150.5617  141.0108  157.2936 H   0  0  0  0  0  0  0  0  0  0  0  0
  149.0700  142.8771  155.7500 H   0  0  0  0  0  0  0  0  0  0  0  0
  148.6339  142.1642  153.0262 H   0  0  0  0  0  0  0  0  0  0  0  0
  148.0575  140.5312  153.2518 H   0  0  0  0  0  0  0  0  0  0  0  0
  146.8262  140.5054  156.1652 H   0  0  0  0  0  0  0  0  0  0  0  0
  143.1020  144.4617  156.0905 H   0  0  0  0  0  0  0  0  0  0  0  0
  144.4436  145.4976  156.6108 H   0  0  0  0  0  0  0  0  0  0  0  0
  142.0716  146.2967  155.0807 H   0  0  0  0  0  0  0  0  0  0  0  0
  143.4118  147.3363  155.6086 H   0  0  0  0  0  0  0  0  0  0  0  0
  143.4513  147.0559  153.0703 H   0  0  0  0  0  0  0  0  0  0  0  0
  1  2  1  0  0  0  0
  1 21  1  0  0  0  0
  1 22  1  0  0  0  0
  1 23  1  0  0  0  0
  2  3  1  0  0  0  0
  2  4  1  0  0  0  0
  2 24  1  0  0  0  0
  3 25  1  0  0  0  0
  3 26  1  0  0  0  0
  3 27  1  0  0  0  0
  4  5  1  0  0  0  0
  4 28  1  0  0  0  0
  4 29  1  0  0  0  0
  5  6  1  0  0  0  0
  5 30  1  0  0  0  0
  5 31  1  0  0  0  0
  6  7  1  0  0  0  0
  6 32  1  0  0  0  0
  7  8  2  0  0  0  0
  7  9  1  0  0  0  0
  9 10  1  0  0  0  0
  9 33  1  0  0  0  0
  9 34  1  0  0  0  0
 10 20  1  0  0  0  0
 10 11  2  0  0  0  0
 11 12  1  0  0  0  0
 11 35  1  0  0  0  0
 12 13  1  0  0  0  0
 13 14  1  0  0  0  0
 13 20  2  0  0  0  0
 14 18  1  0  0  0  0
 14 15  1  0  0  0  0
 15 16  1  0  0  0  0
 15 36  1  0  0  0  0
 15 37  1  0  0  0  0
 16 17  1  0  0  0  0
 16 38  1  0  0  0  0
 16 39  1  0  0  0  0
 17 18  1  0  0  0  0
 17 40  1  0  0  0  0
 18 19  2  0  0  0  0
M  END
> <s_m_source_file>
AV-unprocessed.smi

> <i_m_source_file_index>
1339

> <i_lp_mmshare_version>
43012

> <i_f3d_flags>
0

> <s_epik_input>
W0NIM11bQ0hdKFtDSDNdKVtDSDJdW0NIMl1bTkhdQyg9TylbQ0gyXWMxW2NIXXNjKG4xKU4yW0NIMl1bQ0gyXVtOSF1DMj1P

> <s_epik_cmdline>
J2VwaWtfcHl0aG9uJywgJy1waCcsICc3LjAnLCAnLXRuJywgJzgnLCAnLW1hJywgJzIwMCcsICctbWV0YWxfYmluZGluZycsICctaW1hZScsICc8aW5maWxlLm1hZT4nLCAnLW9tYWUnLCAnPG91dGZpbGUubWFlPic=

> <r_lp_tautomer_probability>
1

> <r_epik_Ionization_Penalty>
0.000122408

> <r_epik_Ionization_Penalty_Charging>
0

> <r_epik_Ionization_Penalty_Neutral>
0.000122408

> <r_epik_State_Penalty>
-0

> <r_epik_Charging_Adjusted_Penalty>
0

> <i_epik_Tot_Q>
0

> <i_epik_Tot_abs_Q>
0

> <r_epik_Metal_State_Penalty>
-0

> <b_epik_Metal_Only>
0

> <s_lp_Force_Field>
OPLS_2005

> <r_lp_Energy>
32.4973

> <b_lp_Chiralities_Consistent>
1

> <s_lp_Variant>
AV-unprocessed.smi:1339-1

> <Gold.Version>
5.8.1

> <Gold.Id.Protein>
6NUR|6NUR_protein|mol2

> <Gold.PLP.Fitness>
48.9244

> <Gold.PLP.PLP>
-44.1059

> <Gold.PLP.part.hbond>
-3.5019

> <Gold.PLP.part.metal>
0.0000

> <Gold.PLP.part.buried>
-5.4101

> <Gold.PLP.part.nonpolar>
-35.9953

> <Gold.PLP.part.repulsive>
0.7308

> <Gold.PLP.ligand.clash>
0.0000

> <Gold.PLP.ligand.torsion>
0.6602

> <Gold.PLP.Chemscore.Hbond>
2.0000

> <Gold.PLP.Chemscore.CHOScore>
0.0000

> <Gold.PLP.Chemscore.Metal>
0.0000

> <Gold.Chemscore.Hbonds>
donor molecule, donor type, donor heavy atom, donor atom, acceptor molecule, acceptor atom, score
      L1  H     6    32       P1  8028  0.98
      P1  H  7989  7998       L1     8  0.95

> <Gold.PLP.Chemscore.Internal.Correction>
0.1390

> <Gold.Rescore>
     Score         DG    S(hbond)    S(metal)    S(lipo)     H(rot)  DE(clash)    DE(int)     intcor
     12.76     -15.58       1.63        0.00      82.35       1.95       0.95       1.87       ----

> <Gold.Chemscore.Fitness>
12.7615

> <Gold.Chemscore.DG>
-15.5798

> <Gold.Chemscore.ZeroCoef>
-5.4800

> <Gold.Chemscore.Hbond>
1.6315

> <Gold.Chemscore.Metal>
0.0000

> <Gold.Chemscore.Lipo>
82.3542

> <Gold.Chemscore.Internal_Hbond>
0.0000

> <Gold.Chemscore.DEClash>
0.9462

> <Gold.Chemscore.DEInternal>
1.8721

> <Gold.Chemscore.Rot>
1.9472

> <Gold.Chemscore.Internal.Correction>
   9.000000E+99

> <Gold.Chemscore.Hbonds>
donor molecule, donor type, donor heavy atom, donor atom, acceptor molecule, acceptor atom, score
      L1  H     6    32       P1  8028  0.93
      P1  H  7989  7998       L1     8  0.20

> <Gold.Chemscore.Hbond.Weighted>
-5.4493

> <Gold.Chemscore.Metal.Weighted>
-0.0000

> <Gold.Chemscore.Lipo.Weighted>
-9.6354

> <Gold.Chemscore.Internal_Hbond.Weighted>
0.0000

> <Gold.Chemscore.DEClash.Weighted>
0.9462

> <Gold.Chemscore.DEInternal.Weighted>
1.8721

> <Gold.Chemscore.Rot.Weighted>
4.9849

> <Gold.Chemscore.Internal.Correction.Weighted>
   9.000000E+99

> <Gold.Protein.RotatedTorsions>
[ 6907 6896 6895 6894 ] final -137.62 input  -60.11 | X-H torsion
[ 7974 7965 7964 7962 ] final -127.62 input  175.53 | X-H torsion
[ 8008 7997 7996 7995 ] final    2.69 input   59.86 | X-H torsion
[ 10167 10162 10161 10158 ] final -135.06 input  -65.29 | X-H torsion
[ 10718 10713 10712 10709 ] final  -67.52 input   66.30 | X-H torsion
[ 10763 10752 10751 10750 ] final  -81.54 input  -60.55 | X-H torsion
[ 11005 11000 10999 10996 ] final  -91.93 input  -57.11 | X-H torsion

> <Gold.Protein.ActiveResidues>
 VAL166  LYS551  ARG553  GLY616  TRP617  ASP618  TYR619  PRO620  LYS621  CYS622 
 ASP623  PHE694  ASN695  SER759  ASP760  ASP761  ALA762  ILE779  LEU786  VAL792 
 PHE793  MET794  SER795  GLU796  ALA797  LYS798  CYS799  TRP800  GLU811  SER814 

> <Gold.Protein.RotatedAtoms>
  151.0247  133.5844  159.2667 H   0  0  0  0  0  0  0  0  0  0  0  0  # atno 6907 bound_to 6896
  151.2948  135.0751  159.9227 H   0  0  0  0  0  0  0  0  0  0  0  0  # atno 6908 bound_to 6896
  152.5331  133.9939  159.7918 H   0  0  0  0  0  0  0  0  0  0  0  0  # atno 6909 bound_to 6896
  144.9752  140.7586  143.4646 H   0  0  0  0  0  0  0  0  0  0  0  0  # atno 7974 bound_to 7965
  154.6947  140.2660  155.6778 H   0  0  0  0  0  0  0  0  0  0  0  0  # atno 8008 bound_to 7997
  156.2744  140.2784  156.1460 H   0  0  0  0  0  0  0  0  0  0  0  0  # atno 8009 bound_to 7997
  155.0848  140.0373  157.2640 H   0  0  0  0  0  0  0  0  0  0  0  0  # atno 8010 bound_to 7997
  139.8817  143.6831  152.2626 H   0  0  0  0  0  0  0  0  0  0  0  0  # atno 10167 bound_to 10162
  156.0553  130.4279  150.1866 H   0  0  0  0  0  0  0  0  0  0  0  0  # atno 10718 bound_to 10713
  154.5649  135.5622  153.7041 H   0  0  0  0  0  0  0  0  0  0  0  0  # atno 10763 bound_to 10752
  153.0029  135.6283  154.2194 H   0  0  0  0  0  0  0  0  0  0  0  0  # atno 10764 bound_to 10752
  154.2133  135.2873  155.2930 H   0  0  0  0  0  0  0  0  0  0  0  0  # atno 10765 bound_to 10752
  141.1533  133.7788  156.9949 H   0  0  0  0  0  0  0  0  0  0  0  0  # atno 11005 bound_to 11000
  145.2500  139.2036  143.4947 LP  0  0  0  0  0  0  0  0  0  0  0  0  # atno 17320 bound_to 7965
  146.3393  140.2411  142.8595 LP  0  0  0  0  0  0  0  0  0  0  0  0  # atno 17321 bound_to 7965
  139.7190  144.7606  151.0987 LP  0  0  0  0  0  0  0  0  0  0  0  0  # atno 17342 bound_to 10162
  140.7743  143.5232  150.9511 LP  0  0  0  0  0  0  0  0  0  0  0  0  # atno 17343 bound_to 10162
  156.9943  130.9903  151.3407 LP  0  0  0  0  0  0  0  0  0  0  0  0  # atno 17370 bound_to 10713
  157.5518  130.8187  149.8154 LP  0  0  0  0  0  0  0  0  0  0  0  0  # atno 17371 bound_to 10713
  140.0978  134.9553  157.1877 LP  0  0  0  0  0  0  0  0  0  0  0  0  # atno 17394 bound_to 11000
  140.3359  134.2758  155.7220 LP  0  0  0  0  0  0  0  0  0  0  0  0  # atno 17395 bound_to 11000

$$$$
