AV-unprocessed.smi:1424|AV-procd|sdf|5802|dock3
  -GOLD-   22720 5453D 1   1.00000     0.00000
 Structure written by MMmdl.
 46 48  0  0  0  0  0  0  0  0  2 V2000
  148.0502  137.6495  156.1394 O   0  0  0  0  0  0  0  0  0  0  0  0
  148.0455  137.1858  154.9992 C   0  0  0  0  0  0  0  0  0  0  0  0
  148.9216  137.5430  154.0499 N   0  0  0  0  0  0  0  0  0  0  0  0
  149.9856  138.5266  154.2229 C   0  0  0  0  0  0  0  0  0  0  0  0
  151.2797  137.8906  154.7674 C   0  0  1  0  0  0  0  0  0  0  0  0
  152.5348  138.7052  154.3999 C   0  0  0  0  0  0  0  0  0  0  0  0
  153.7211  138.1593  155.2000 C   0  0  0  0  0  0  0  0  0  0  0  0
  153.0290  137.6446  156.8151 S   0  0  0  0  0  0  0  0  0  0  0  0
  153.4193  136.2524  157.0837 O   0  0  0  0  0  0  0  0  0  0  0  0
  153.2639  138.7030  157.8088 O   0  0  0  0  0  0  0  0  0  0  0  0
  151.2717  137.6993  156.2944 C   0  0  0  0  0  0  0  0  0  0  0  0
  147.1623  136.2863  154.5346 N   0  0  0  0  0  0  0  0  0  0  0  0
  146.0690  135.6923  155.2273 C   0  0  0  0  0  0  0  0  0  0  0  0
  145.7942  136.0171  156.5809 C   0  0  0  0  0  0  0  0  0  0  0  0
  144.6955  135.4307  157.2365 C   0  0  0  0  0  0  0  0  0  0  0  0
  143.8885  134.5227  156.5305 C   0  0  0  0  0  0  0  0  0  0  0  0
  144.1874  134.2180  155.2509 N   0  3  0  0  0  0  0  0  0  0  0  0
  145.2392  134.7375  154.5693 C   0  0  0  0  0  0  0  0  0  0  0  0
  145.4320  134.3126  153.2346 N   0  0  0  0  0  0  0  0  0  0  0  0
  144.5210  134.7468  152.1816 C   0  0  0  0  0  0  0  0  0  0  0  0
  144.8273  133.8384  150.9940 C   0  0  0  0  0  0  0  0  0  0  0  0
  145.1689  132.5154  151.6725 C   0  0  0  0  0  0  0  0  0  0  0  0
  145.8565  132.9407  152.9741 C   0  0  0  0  0  0  0  0  0  0  0  0
  148.8446  137.1135  153.1396 H   0  0  0  0  0  0  0  0  0  0  0  0
  150.1806  139.0331  153.2760 H   0  0  0  0  0  0  0  0  0  0  0  0
  149.6276  139.2926  154.9114 H   0  0  0  0  0  0  0  0  0  0  0  0
  151.4012  136.9047  154.3160 H   0  0  0  0  0  0  0  0  0  0  0  0
  152.7334  138.6806  153.3282 H   0  0  0  0  0  0  0  0  0  0  0  0
  152.3782  139.7502  154.6711 H   0  0  0  0  0  0  0  0  0  0  0  0
  154.1405  137.2768  154.7160 H   0  0  0  0  0  0  0  0  0  0  0  0
  154.5155  138.8915  155.3437 H   0  0  0  0  0  0  0  0  0  0  0  0
  150.8041  138.5472  156.7957 H   0  0  0  0  0  0  0  0  0  0  0  0
  150.7617  136.7876  156.6051 H   0  0  0  0  0  0  0  0  0  0  0  0
  147.2185  136.0785  153.5484 H   0  0  0  0  0  0  0  0  0  0  0  0
  146.4157  136.7068  157.1320 H   0  0  0  0  0  0  0  0  0  0  0  0
  144.4761  135.6761  158.2654 H   0  0  0  0  0  0  0  0  0  0  0  0
  143.0243  134.0273  156.9490 H   0  0  0  0  0  0  0  0  0  0  0  0
  143.4848  134.6057  152.4924 H   0  0  0  0  0  0  0  0  0  0  0  0
  144.6675  135.7989  151.9350 H   0  0  0  0  0  0  0  0  0  0  0  0
  143.9952  133.7583  150.2941 H   0  0  0  0  0  0  0  0  0  0  0  0
  145.6955  134.2133  150.4498 H   0  0  0  0  0  0  0  0  0  0  0  0
  144.2497  131.9746  151.9022 H   0  0  0  0  0  0  0  0  0  0  0  0
  145.7930  131.8685  151.0552 H   0  0  0  0  0  0  0  0  0  0  0  0
  146.9390  132.9275  152.8436 H   0  0  0  0  0  0  0  0  0  0  0  0
  145.6031  132.2680  153.7945 H   0  0  0  0  0  0  0  0  0  0  0  0
  143.5881  133.5479  154.7688 H   0  0  0  0  0  0  0  0  0  0  0  0
  1  2  2  0  0  0  0
  2  3  1  0  0  0  0
  2 12  1  0  0  0  0
  3  4  1  0  0  0  0
  3 24  1  0  0  0  0
  4  5  1  0  0  0  0
  4 25  1  0  0  0  0
  4 26  1  0  0  0  0
  5 11  1  0  0  0  0
  5  6  1  0  0  0  0
  5 27  1  0  0  0  0
  6  7  1  0  0  0  0
  6 28  1  0  0  0  0
  6 29  1  0  0  0  0
  7  8  1  0  0  0  0
  7 30  1  0  0  0  0
  7 31  1  0  0  0  0
  8  9  2  0  0  0  0
  8 10  2  0  0  0  0
  8 11  1  0  0  0  0
 11 32  1  0  0  0  0
 11 33  1  0  0  0  0
 12 13  1  0  0  0  0
 12 34  1  0  0  0  0
 13 18  1  0  0  0  0
 13 14  2  0  0  0  0
 14 15  1  0  0  0  0
 14 35  1  0  0  0  0
 15 16  2  0  0  0  0
 15 36  1  0  0  0  0
 16 17  1  0  0  0  0
 16 37  1  0  0  0  0
 17 18  2  0  0  0  0
 17 46  1  0  0  0  0
 18 19  1  0  0  0  0
 19 23  1  0  0  0  0
 19 20  1  0  0  0  0
 20 21  1  0  0  0  0
 20 38  1  0  0  0  0
 20 39  1  0  0  0  0
 21 22  1  0  0  0  0
 21 40  1  0  0  0  0
 21 41  1  0  0  0  0
 22 23  1  0  0  0  0
 22 42  1  0  0  0  0
 22 43  1  0  0  0  0
 23 44  1  0  0  0  0
 23 45  1  0  0  0  0
M  CHG  1  17   1
M  END
> <s_m_source_file>
AV-unprocessed.smi

> <i_m_source_file_index>
1424

> <i_lp_mmshare_version>
43012

> <i_f3d_flags>
0

> <s_epik_input>
Tz1TMSg9TylbQ0gyXVtDSDJdW0NASF0oW0NIMl0xKVtDSDJdW05IXUMoPU8pW05IXWMyW2NIXVtjSF1bY0hdbmMyTjNbQ0gyXVtDSDJdW0NIMl1bQ0gyXTM=

> <s_epik_cmdline>
J2VwaWtfcHl0aG9uJywgJy1waCcsICc3LjAnLCAnLXRuJywgJzgnLCAnLW1hJywgJzIwMCcsICctbWV0YWxfYmluZGluZycsICctaW1hZScsICc8aW5maWxlLm1hZT4nLCAnLW9tYWUnLCAnPG91dGZpbGUubWFlPic=

> <r_lp_tautomer_probability>
0.999994

> <r_epik_Ionization_Penalty>
1.12573

> <r_epik_Ionization_Penalty_Charging>
1.12571

> <r_epik_Ionization_Penalty_Neutral>
1.92863e-05

> <r_epik_State_Penalty>
1.18495

> <r_epik_Charging_Adjusted_Penalty>
2.31065

> <i_epik_Tot_Q>
1

> <i_epik_Tot_abs_Q>
1

> <r_epik_Metal_State_Penalty>
1.26881

> <b_epik_Metal_Only>
0

> <s_lp_Force_Field>
OPLS_2005

> <r_lp_Energy>
39.7192

> <b_lp_Chiralities_Consistent>
1

> <s_lp_Variant>
AV-unprocessed.smi:1424-4

> <Gold.Version>
5.8.1

> <Gold.Id.Protein>
6NUR|6NUR_protein|mol2

> <Gold.PLP.Fitness>
36.2040

> <Gold.PLP.PLP>
-22.1435

> <Gold.PLP.part.hbond>
-4.3828

> <Gold.PLP.part.metal>
0.0000

> <Gold.PLP.part.buried>
-1.7065

> <Gold.PLP.part.nonpolar>
-16.5294

> <Gold.PLP.part.repulsive>
0.1070

> <Gold.PLP.ligand.clash>
0.0000

> <Gold.PLP.ligand.torsion>
0.6344

> <Gold.PLP.Chemscore.Hbond>
4.9749

> <Gold.PLP.Chemscore.CHOScore>
0.0000

> <Gold.PLP.Chemscore.Metal>
0.0000

> <Gold.Chemscore.Hbonds>
donor molecule, donor type, donor heavy atom, donor atom, acceptor molecule, acceptor atom, score
      L1  H     3    24       P1  7948  1.00
      L1  H    12    34       P1  7948  0.01
      L1  H    17    46       P1 10957  1.92
      P1  H  7997  8008       L1    10  0.99
      P1  H 10752 10764       L1     9  1.00

> <Gold.PLP.Chemscore.Internal.Correction>
0.4046

> <Gold.Rescore>
     Score         DG    S(hbond)    S(metal)    S(lipo)     H(rot)  DE(clash)    DE(int)     intcor
     18.37     -21.11       3.73        0.00      59.76       1.50       0.68       2.05       ----

> <Gold.Chemscore.Fitness>
18.3708

> <Gold.Chemscore.DG>
-21.1061

> <Gold.Chemscore.ZeroCoef>
-5.4800

> <Gold.Chemscore.Hbond>
3.7318

> <Gold.Chemscore.Metal>
0.0000

> <Gold.Chemscore.Lipo>
59.7632

> <Gold.Chemscore.Internal_Hbond>
0.0000

> <Gold.Chemscore.DEClash>
0.6836

> <Gold.Chemscore.DEInternal>
2.0518

> <Gold.Chemscore.Rot>
1.4962

> <Gold.Chemscore.Internal.Correction>
   9.000000E+99

> <Gold.Chemscore.Hbonds>
donor molecule, donor type, donor heavy atom, donor atom, acceptor molecule, acceptor atom, score
      L1  H     3    24       P1  7948  0.94
      L1  H    12    34       P1  7948  0.06
      L1  H    17    46       P1 10957  0.88
      P1  H  7997  8008       L1    10  0.60
      P1  H 10752 10764       L1     9  0.73

> <Gold.Chemscore.Hbond.Weighted>
-12.4641

> <Gold.Chemscore.Metal.Weighted>
-0.0000

> <Gold.Chemscore.Lipo.Weighted>
-6.9923

> <Gold.Chemscore.Internal_Hbond.Weighted>
0.0000

> <Gold.Chemscore.DEClash.Weighted>
0.6836

> <Gold.Chemscore.DEInternal.Weighted>
2.0518

> <Gold.Chemscore.Rot.Weighted>
3.8303

> <Gold.Chemscore.Internal.Correction.Weighted>
   9.000000E+99

> <Gold.Protein.RotatedTorsions>
[ 6907 6896 6895 6894 ] final  -56.28 input  -60.11 | X-H torsion
[ 7974 7965 7964 7962 ] final  -91.74 input  175.53 | X-H torsion
[ 8008 7997 7996 7995 ] final  -85.65 input   59.86 | X-H torsion
[ 10167 10162 10161 10158 ] final    0.49 input  -65.29 | X-H torsion
[ 10718 10713 10712 10709 ] final  -91.77 input   66.30 | X-H torsion
[ 10763 10752 10751 10750 ] final   17.19 input  -60.55 | X-H torsion
[ 11005 11000 10999 10996 ] final -110.06 input  -57.11 | X-H torsion

> <Gold.Protein.ActiveResidues>
 VAL166  LYS551  ARG553  GLY616  TRP617  ASP618  TYR619  PRO620  LYS621  CYS622 
 ASP623  PHE694  ASN695  SER759  ASP760  ASP761  ALA762  ILE779  LEU786  VAL792 
 PHE793  MET794  SER795  GLU796  ALA797  LYS798  CYS799  TRP800  GLU811  SER814 

> <Gold.Protein.RotatedAtoms>
  150.8180  134.7373  159.6747 H   0  0  0  0  0  0  0  0  0  0  0  0  # atno 6907 bound_to 6896
  152.4298  134.5796  159.9954 H   0  0  0  0  0  0  0  0  0  0  0  0  # atno 6908 bound_to 6896
  151.5988  133.3321  159.3079 H   0  0  0  0  0  0  0  0  0  0  0  0  # atno 6909 bound_to 6896
  145.4091  140.9543  143.2244 H   0  0  0  0  0  0  0  0  0  0  0  0  # atno 7974 bound_to 7965
  154.6431  140.0589  156.9869 H   0  0  0  0  0  0  0  0  0  0  0  0  # atno 8008 bound_to 7997
  155.1486  140.3272  155.4417 H   0  0  0  0  0  0  0  0  0  0  0  0  # atno 8009 bound_to 7997
  156.2540  140.1951  156.6599 H   0  0  0  0  0  0  0  0  0  0  0  0  # atno 8010 bound_to 7997
  140.6726  143.7005  150.7955 H   0  0  0  0  0  0  0  0  0  0  0  0  # atno 10167 bound_to 10162
  155.9996  130.4961  150.5525 H   0  0  0  0  0  0  0  0  0  0  0  0  # atno 10718 bound_to 10713
  153.1362  135.6750  153.9100 H   0  0  0  0  0  0  0  0  0  0  0  0  # atno 10763 bound_to 10752
  153.8571  135.3086  155.3437 H   0  0  0  0  0  0  0  0  0  0  0  0  # atno 10764 bound_to 10752
  154.7749  135.4919  153.9807 H   0  0  0  0  0  0  0  0  0  0  0  0  # atno 10765 bound_to 10752
  141.0813  133.9215  157.2283 H   0  0  0  0  0  0  0  0  0  0  0  0  # atno 11005 bound_to 11000
  144.8321  139.5610  143.6939 LP  0  0  0  0  0  0  0  0  0  0  0  0  # atno 17320 bound_to 7965
  146.2714  139.6644  142.9293 LP  0  0  0  0  0  0  0  0  0  0  0  0  # atno 17321 bound_to 7965
  140.0693  143.5077  152.2588 LP  0  0  0  0  0  0  0  0  0  0  0  0  # atno 17342 bound_to 10162
  139.6002  144.7580  151.3190 LP  0  0  0  0  0  0  0  0  0  0  0  0  # atno 17343 bound_to 10162
  157.3446  131.0723  151.1761 LP  0  0  0  0  0  0  0  0  0  0  0  0  # atno 17370 bound_to 10713
  157.2598  130.6653  149.5969 LP  0  0  0  0  0  0  0  0  0  0  0  0  # atno 17371 bound_to 10713
  139.9627  135.0150  156.9304 LP  0  0  0  0  0  0  0  0  0  0  0  0  # atno 17394 bound_to 11000
  140.5462  134.0671  155.7356 LP  0  0  0  0  0  0  0  0  0  0  0  0  # atno 17395 bound_to 11000

$$$$
