AV-unprocessed.smi:209|AV-procd|sdf|1610|dock4
  -GOLD-   2262019533D 1   1.00000     0.00000
 Structure written by MMmdl.
 48 52  0  0  0  0  0  0  0  0  1 V2000
  144.1718  135.7138  162.7154 O   0  0  0  0  0  0  0  0  0  0  0  0
  144.8951  136.2064  161.8520 C   0  0  0  0  0  0  0  0  0  0  0  0
  144.4875  136.7492  160.7059 N   0  0  0  0  0  0  0  0  0  0  0  0
  145.5853  137.1681  159.8508 C   0  0  0  0  0  0  0  0  0  0  0  0
  146.8424  136.5249  160.4873 C   0  0  1  0  0  0  0  0  0  0  0  0
  146.4094  136.3148  161.9591 C   0  0  2  0  0  0  0  0  0  0  0  0
  147.1279  135.1724  162.7078 C   0  0  0  0  0  0  0  0  0  0  0  0
  147.2948  133.9245  161.8365 C   0  0  0  0  0  0  0  0  0  0  0  0
  147.9888  134.2991  160.5239 C   0  0  0  0  0  0  0  0  0  0  0  0
  147.1875  135.2730  159.7877 N   0  0  0  0  0  0  0  0  0  0  0  0
  147.5642  135.3596  158.4859 C   0  0  0  0  0  0  0  0  0  0  0  0
  146.7190  134.9524  157.5013 N   0  0  0  0  0  0  0  0  0  0  0  0
  147.0814  135.0504  156.2191 C   0  0  0  0  0  0  0  0  0  0  0  0
  148.2224  135.5166  155.7079 N   0  0  0  0  0  0  0  0  0  0  0  0
  149.0769  135.9206  156.6912 C   0  0  0  0  0  0  0  0  0  0  0  0
  148.8291  135.8780  158.0918 C   0  0  0  0  0  0  0  0  0  0  0  0
  149.9303  136.3679  158.7827 N   0  0  0  0  0  0  0  0  0  0  0  0
  150.7779  136.6892  157.8434 C   0  0  0  0  0  0  0  0  0  0  0  0
  150.3509  136.4456  156.5568 N   0  0  0  0  0  0  0  0  0  0  0  0
  151.0815  136.7127  155.3262 C   0  0  0  0  0  0  0  0  0  0  0  0
  151.2401  138.2090  154.9877 C   0  0  0  0  0  0  0  0  0  0  0  0
  149.9995  138.6739  154.1986 C   0  0  0  0  0  0  0  0  0  0  0  0
  150.0830  140.0269  153.7974 O   0  0  0  0  0  0  0  0  0  0  0  0
  151.6680  139.0695  156.1867 C   0  0  0  0  0  0  0  0  0  0  0  0
  153.0217  139.1859  155.6963 O   0  0  0  0  0  0  0  0  0  0  0  0
  152.6108  138.6226  154.4309 C   0  0  0  0  0  0  0  0  0  0  0  0
  147.6917  137.2083  160.4473 H   0  0  0  0  0  0  0  0  0  0  0  0
  146.5881  137.2395  162.5096 H   0  0  0  0  0  0  0  0  0  0  0  0
  143.5216  136.7995  160.4157 H   0  0  0  0  0  0  0  0  0  0  0  0
  145.4059  136.8795  158.8148 H   0  0  0  0  0  0  0  0  0  0  0  0
  145.6533  138.2558  159.8850 H   0  0  0  0  0  0  0  0  0  0  0  0
  148.1143  135.5212  163.0159 H   0  0  0  0  0  0  0  0  0  0  0  0
  146.6002  134.9195  163.6281 H   0  0  0  0  0  0  0  0  0  0  0  0
  147.8814  133.1755  162.3690 H   0  0  0  0  0  0  0  0  0  0  0  0
  146.3230  133.4740  161.6302 H   0  0  0  0  0  0  0  0  0  0  0  0
  148.9741  134.7227  160.7239 H   0  0  0  0  0  0  0  0  0  0  0  0
  148.1482  133.3952  159.9356 H   0  0  0  0  0  0  0  0  0  0  0  0
  146.3530  134.7065  155.4998 H   0  0  0  0  0  0  0  0  0  0  0  0
  151.7429  137.1193  158.0684 H   0  0  0  0  0  0  0  0  0  0  0  0
  152.0596  136.2353  155.3999 H   0  0  0  0  0  0  0  0  0  0  0  0
  150.5648  136.1936  154.5175 H   0  0  0  0  0  0  0  0  0  0  0  0
  149.8634  138.0817  153.2937 H   0  0  0  0  0  0  0  0  0  0  0  0
  149.0949  138.5556  154.7956 H   0  0  0  0  0  0  0  0  0  0  0  0
  149.6098  140.1298  152.9858 H   0  0  0  0  0  0  0  0  0  0  0  0
  151.1779  140.0414  156.2540 H   0  0  0  0  0  0  0  0  0  0  0  0
  151.6166  138.5507  157.1446 H   0  0  0  0  0  0  0  0  0  0  0  0
  153.2450  137.7914  154.1254 H   0  0  0  0  0  0  0  0  0  0  0  0
  152.5690  139.3797  153.6467 H   0  0  0  0  0  0  0  0  0  0  0  0
  1  2  2  0  0  0  0
  2  6  1  0  0  0  0
  2  3  1  0  0  0  0
  3  4  1  0  0  0  0
  3 29  1  0  0  0  0
  4  5  1  0  0  0  0
  4 30  1  0  0  0  0
  4 31  1  0  0  0  0
  5 27  1  0  0  0  0
  5 10  1  0  0  0  0
  5  6  1  0  0  0  0
  6 28  1  0  0  0  0
  6  7  1  0  0  0  0
  7  8  1  0  0  0  0
  7 32  1  0  0  0  0
  7 33  1  0  0  0  0
  8  9  1  0  0  0  0
  8 34  1  0  0  0  0
  8 35  1  0  0  0  0
  9 10  1  0  0  0  0
  9 36  1  0  0  0  0
  9 37  1  0  0  0  0
 10 11  1  0  0  0  0
 11 16  1  0  0  0  0
 11 12  2  0  0  0  0
 12 13  1  0  0  0  0
 13 14  2  0  0  0  0
 13 38  1  0  0  0  0
 14 15  1  0  0  0  0
 15 19  1  0  0  0  0
 15 16  2  0  0  0  0
 16 17  1  0  0  0  0
 17 18  2  0  0  0  0
 18 19  1  0  0  0  0
 18 39  1  0  0  0  0
 19 20  1  0  0  0  0
 20 21  1  0  0  0  0
 20 40  1  0  0  0  0
 20 41  1  0  0  0  0
 21 26  1  0  0  0  0
 21 22  1  0  0  0  0
 21 24  1  0  0  0  0
 22 23  1  0  0  0  0
 22 42  1  0  0  0  0
 22 43  1  0  0  0  0
 23 44  1  0  0  0  0
 24 25  1  0  0  0  0
 24 45  1  0  0  0  0
 24 46  1  0  0  0  0
 25 26  1  0  0  0  0
 26 47  1  0  0  0  0
 26 48  1  0  0  0  0
M  END
> <s_m_source_file>
AV-unprocessed.smi

> <i_m_source_file_index>
209

> <i_lp_mmshare_version>
43012

> <i_f3d_flags>
0

> <s_epik_input>
W0NIMl0xW05IXUMoPU8pW0NAQEhdKFtDQEBIXTEyKVtDSDJdW0NIMl1bQ0gyXU4yYyhuW2NIXW4zKWMoYzM0KW5bY0hdbjRbQ0gyXUM1KFtDSDJdW09IXSlbQ0gyXU9bQ0gyXTU=

> <s_epik_cmdline>
J2VwaWtfcHl0aG9uJywgJy1waCcsICc3LjAnLCAnLXRuJywgJzgnLCAnLW1hJywgJzIwMCcsICctbWV0YWxfYmluZGluZycsICctaW1hZScsICc8aW5maWxlLm1hZT4nLCAnLW9tYWUnLCAnPG91dGZpbGUubWFlPic=

> <r_lp_tautomer_probability>
1

> <r_epik_Ionization_Penalty>
0.00113306

> <r_epik_Ionization_Penalty_Charging>
0

> <r_epik_Ionization_Penalty_Neutral>
0.00113306

> <r_epik_State_Penalty>
0.000624042

> <r_epik_Charging_Adjusted_Penalty>
0.000624042

> <i_epik_Tot_Q>
0

> <i_epik_Tot_abs_Q>
0

> <r_epik_Metal_State_Penalty>
-0

> <b_epik_Metal_Only>
0

> <s_lp_Force_Field>
OPLS_2005

> <r_lp_Energy>
50.5129

> <b_lp_Chiralities_Consistent>
1

> <s_lp_Variant>
AV-unprocessed.smi:209-4

> <Gold.Version>
5.8.1

> <Gold.Id.Protein>
6NUR|6NUR_protein|mol2

> <Gold.PLP.Fitness>
44.5024

> <Gold.PLP.PLP>
-34.2020

> <Gold.PLP.part.hbond>
-4.0000

> <Gold.PLP.part.metal>
0.0000

> <Gold.PLP.part.buried>
-7.0555

> <Gold.PLP.part.nonpolar>
-24.0118

> <Gold.PLP.part.repulsive>
0.1590

> <Gold.PLP.ligand.clash>
0.0000

> <Gold.PLP.ligand.torsion>
0.8747

> <Gold.PLP.Chemscore.Hbond>
3.7760

> <Gold.PLP.Chemscore.CHOScore>
0.0000

> <Gold.PLP.Chemscore.Metal>
0.0000

> <Gold.Chemscore.Hbonds>
donor molecule, donor type, donor heavy atom, donor atom, acceptor molecule, acceptor atom, score
      L1  H    23    44       P1  7957  0.96
      P1  H  6896  6907       L1    17  1.00
      P1  H  7989  7998       L1    23  0.83
      P1  H  7997  8009       L1    25  1.00

> <Gold.PLP.Chemscore.Internal.Correction>
0.7218

> <Gold.Rescore>
     Score         DG    S(hbond)    S(metal)    S(lipo)     H(rot)  DE(clash)    DE(int)     intcor
     15.62     -17.52       2.97        0.00      76.33       2.66       0.10       1.80       ----

> <Gold.Chemscore.Fitness>
15.6199

> <Gold.Chemscore.DG>
-17.5228

> <Gold.Chemscore.ZeroCoef>
-5.4800

> <Gold.Chemscore.Hbond>
2.9720

> <Gold.Chemscore.Metal>
0.0000

> <Gold.Chemscore.Lipo>
76.3340

> <Gold.Chemscore.Internal_Hbond>
0.0000

> <Gold.Chemscore.DEClash>
0.1018

> <Gold.Chemscore.DEInternal>
1.8011

> <Gold.Chemscore.Rot>
2.6620

> <Gold.Chemscore.Internal.Correction>
   9.000000E+99

> <Gold.Chemscore.Hbonds>
donor molecule, donor type, donor heavy atom, donor atom, acceptor molecule, acceptor atom, score
      L1  H    23    44       P1  7957  0.92
      P1  H  6896  6907       L1    17  0.14
      P1  H  7989  7998       L1    23  0.29
      P1  H  7997  8009       L1    25  1.00

> <Gold.Chemscore.Hbond.Weighted>
-9.9266

> <Gold.Chemscore.Metal.Weighted>
-0.0000

> <Gold.Chemscore.Lipo.Weighted>
-8.9311

> <Gold.Chemscore.Internal_Hbond.Weighted>
0.0000

> <Gold.Chemscore.DEClash.Weighted>
0.1018

> <Gold.Chemscore.DEInternal.Weighted>
1.8011

> <Gold.Chemscore.Rot.Weighted>
6.8148

> <Gold.Chemscore.Internal.Correction.Weighted>
   9.000000E+99

> <Gold.Protein.RotatedTorsions>
[ 6907 6896 6895 6894 ] final  -63.34 input  -60.11 | X-H torsion
[ 7974 7965 7964 7962 ] final  -24.25 input  175.53 | X-H torsion
[ 8008 7997 7996 7995 ] final -144.81 input   59.86 | X-H torsion
[ 10167 10162 10161 10158 ] final  -40.82 input  -65.29 | X-H torsion
[ 10718 10713 10712 10709 ] final  153.07 input   66.30 | X-H torsion
[ 10763 10752 10751 10750 ] final  -37.07 input  -60.55 | X-H torsion
[ 11005 11000 10999 10996 ] final  150.80 input  -57.11 | X-H torsion

> <Gold.Protein.ActiveResidues>
 VAL166  LYS551  ARG553  GLY616  TRP617  ASP618  TYR619  PRO620  LYS621  CYS622 
 ASP623  PHE694  ASN695  SER759  ASP760  ASP761  ALA762  ILE779  LEU786  VAL792 
 PHE793  MET794  SER795  GLU796  ALA797  LYS798  CYS799  TRP800  GLU811  SER814 

> <Gold.Protein.RotatedAtoms>
  150.7655  134.6448  159.6255 H   0  0  0  0  0  0  0  0  0  0  0  0  # atno 6907 bound_to 6896
  152.3685  134.6766  160.0193 H   0  0  0  0  0  0  0  0  0  0  0  0  # atno 6908 bound_to 6896
  151.7134  133.3276  159.3333 H   0  0  0  0  0  0  0  0  0  0  0  0  # atno 6909 bound_to 6896
  146.1566  140.4726  142.8589 H   0  0  0  0  0  0  0  0  0  0  0  0  # atno 7974 bound_to 7965
  155.5329  140.0601  157.2885 H   0  0  0  0  0  0  0  0  0  0  0  0  # atno 8008 bound_to 7997
  154.4478  140.1932  156.0557 H   0  0  0  0  0  0  0  0  0  0  0  0  # atno 8009 bound_to 7997
  156.0639  140.3269  155.7499 H   0  0  0  0  0  0  0  0  0  0  0  0  # atno 8010 bound_to 7997
  140.7022  143.3131  151.2978 H   0  0  0  0  0  0  0  0  0  0  0  0  # atno 10167 bound_to 10162
  157.2496  131.0776  151.1739 H   0  0  0  0  0  0  0  0  0  0  0  0  # atno 10718 bound_to 10713
  153.8902  135.6813  153.4761 H   0  0  0  0  0  0  0  0  0  0  0  0  # atno 10763 bound_to 10752
  153.1185  135.4750  154.9154 H   0  0  0  0  0  0  0  0  0  0  0  0  # atno 10764 bound_to 10752
  154.7626  135.3215  154.8301 H   0  0  0  0  0  0  0  0  0  0  0  0  # atno 10765 bound_to 10752
  140.1163  134.8892  157.2008 H   0  0  0  0  0  0  0  0  0  0  0  0  # atno 11005 bound_to 11000
  144.7971  140.6144  143.6502 LP  0  0  0  0  0  0  0  0  0  0  0  0  # atno 17320 bound_to 7965
  145.4693  139.1505  143.3823 LP  0  0  0  0  0  0  0  0  0  0  0  0  # atno 17321 bound_to 7965
  139.6560  144.0275  152.2660 LP  0  0  0  0  0  0  0  0  0  0  0  0  # atno 17342 bound_to 10162
  139.9827  144.6417  150.7886 LP  0  0  0  0  0  0  0  0  0  0  0  0  # atno 17343 bound_to 10162
  157.3292  130.6976  149.6314 LP  0  0  0  0  0  0  0  0  0  0  0  0  # atno 17370 bound_to 10713
  155.9667  130.4312  150.4912 LP  0  0  0  0  0  0  0  0  0  0  0  0  # atno 17371 bound_to 10713
  140.3024  134.3116  155.7286 LP  0  0  0  0  0  0  0  0  0  0  0  0  # atno 17394 bound_to 11000
  141.2142  133.7600  156.9660 LP  0  0  0  0  0  0  0  0  0  0  0  0  # atno 17395 bound_to 11000

$$$$
