AV-unprocessed.smi:2768|AV-procd|sdf|10654|dock3
  -GOLD-   2272015103D 1   1.00000     0.00000
 Structure written by MMmdl.
 34 35  0  0  0  0  0  0  0  0  2 V2000
  152.3511  140.0440  155.7132 O   0  0  0  0  0  0  0  0  0  0  0  0
  151.2878  140.4988  156.1512 C   0  0  0  0  0  0  0  0  0  0  0  0
  151.0219  141.7301  156.6764 N   0  5  0  0  0  0  0  0  0  0  0  0
  151.8895  142.4235  157.6328 C   0  0  2  0  0  0  0  0  0  0  0  0
  151.8555  141.7033  159.0040 C   0  0  0  0  0  0  0  0  0  0  0  0
  152.6705  142.4360  160.0996 C   0  0  0  0  0  0  0  0  0  0  0  0
  152.2269  143.9014  160.2913 C   0  0  0  0  0  0  0  0  0  0  0  0
  152.2587  144.6401  158.9341 C   0  0  0  0  0  0  0  0  0  0  0  0
  151.4645  143.9111  157.8159 C   0  0  2  0  0  0  0  0  0  0  0  0
  150.0808  144.0079  158.1027 O   0  0  0  0  0  0  0  0  0  0  0  0
  150.0474  139.5755  156.1268 C   0  0  0  0  0  0  0  0  0  0  0  0
  150.4392  138.3786  155.6848 F   0  0  0  0  0  0  0  0  0  0  0  0
  149.5368  139.4024  157.3520 F   0  0  0  0  0  0  0  0  0  0  0  0
  148.9691  140.1505  155.2092 C   0  0  0  0  0  0  0  0  0  0  0  0
  148.4371  139.3920  154.1404 C   0  0  0  0  0  0  0  0  0  0  0  0
  147.4480  139.9735  153.3246 C   0  0  0  0  0  0  0  0  0  0  0  0
  147.0252  141.2870  153.6012 C   0  0  0  0  0  0  0  0  0  0  0  0
  147.6155  141.9644  154.6860 C   0  0  0  0  0  0  0  0  0  0  0  0
  148.5633  141.4158  155.4748 N   0  0  0  0  0  0  0  0  0  0  0  0
  152.9281  142.4170  157.2975 H   0  0  0  0  0  0  0  0  0  0  0  0
  151.6256  144.4405  156.8759 H   0  0  0  0  0  0  0  0  0  0  0  0
  150.8230  141.6047  159.3426 H   0  0  0  0  0  0  0  0  0  0  0  0
  152.2344  140.6865  158.8941 H   0  0  0  0  0  0  0  0  0  0  0  0
  152.5677  141.9014  161.0443 H   0  0  0  0  0  0  0  0  0  0  0  0
  153.7349  142.4072  159.8576 H   0  0  0  0  0  0  0  0  0  0  0  0
  151.2168  143.9279  160.7019 H   0  0  0  0  0  0  0  0  0  0  0  0
  152.8719  144.4030  161.0128 H   0  0  0  0  0  0  0  0  0  0  0  0
  151.8744  145.6529  159.0606 H   0  0  0  0  0  0  0  0  0  0  0  0
  153.2988  144.7599  158.6239 H   0  0  0  0  0  0  0  0  0  0  0  0
  149.6188  143.9751  157.2777 H   0  0  0  0  0  0  0  0  0  0  0  0
  148.7807  138.3876  153.9426 H   0  0  0  0  0  0  0  0  0  0  0  0
  147.0212  139.4213  152.5006 H   0  0  0  0  0  0  0  0  0  0  0  0
  146.2690  141.7642  152.9959 H   0  0  0  0  0  0  0  0  0  0  0  0
  147.3170  142.9738  154.9272 H   0  0  0  0  0  0  0  0  0  0  0  0
  1  2  2  0  0  0  0
  2  3  1  0  0  0  0
  2 11  1  0  0  0  0
  3  4  1  0  0  0  0
  4 20  1  0  0  0  0
  4  9  1  0  0  0  0
  4  5  1  0  0  0  0
  5  6  1  0  0  0  0
  5 22  1  0  0  0  0
  5 23  1  0  0  0  0
  6  7  1  0  0  0  0
  6 24  1  0  0  0  0
  6 25  1  0  0  0  0
  7  8  1  0  0  0  0
  7 26  1  0  0  0  0
  7 27  1  0  0  0  0
  8  9  1  0  0  0  0
  8 28  1  0  0  0  0
  8 29  1  0  0  0  0
  9 21  1  0  0  0  0
  9 10  1  0  0  0  0
 10 30  1  0  0  0  0
 11 12  1  0  0  0  0
 11 13  1  0  0  0  0
 11 14  1  0  0  0  0
 14 19  1  0  0  0  0
 14 15  2  0  0  0  0
 15 16  1  0  0  0  0
 15 31  1  0  0  0  0
 16 17  2  0  0  0  0
 16 32  1  0  0  0  0
 17 18  1  0  0  0  0
 17 33  1  0  0  0  0
 18 19  2  0  0  0  0
 18 34  1  0  0  0  0
M  CHG  1   3  -1
M  END
> <s_m_source_file>
AV-unprocessed.smi

> <i_m_source_file_index>
2768

> <i_lp_mmshare_version>
43012

> <i_f3d_flags>
0

> <s_epik_input>
bjFbY0hdW2NIXVtjSF1bY0hdYzFDKEYpKEYpQyg9TylbTkhdW0NAQEhdMltDSDJdW0NIMl1bQ0gyXVtDSDJdW0NASF0yW09IXQ==

> <s_epik_cmdline>
J2VwaWtfcHl0aG9uJywgJy1waCcsICc3LjAnLCAnLXRuJywgJzgnLCAnLW1hJywgJzIwMCcsICctbWV0YWxfYmluZGluZycsICctaW1hZScsICc8aW5maWxlLm1hZT4nLCAnLW9tYWUnLCAnPG91dGZpbGUubWFlPic=

> <r_lp_tautomer_probability>
1

> <r_epik_Ionization_Penalty>
5.70553

> <r_epik_Ionization_Penalty_Charging>
5.70553

> <r_epik_Ionization_Penalty_Neutral>
5.5493e-06

> <r_epik_State_Penalty>
5.70549

> <r_epik_Charging_Adjusted_Penalty>
11.411

> <i_epik_Tot_Q>
-1

> <i_epik_Tot_abs_Q>
1

> <r_epik_Metal_State_Penalty>
1.6859

> <b_epik_Metal_Only>
1

> <s_lp_Force_Field>
OPLS_2005

> <r_lp_Energy>
28.0633

> <b_lp_Chiralities_Consistent>
1

> <s_lp_Variant>
AV-unprocessed.smi:2768-7

> <Gold.Version>
5.8.1

> <Gold.Id.Protein>
6NUR|6NUR_protein|mol2

> <Gold.PLP.Fitness>
42.7007

> <Gold.PLP.PLP>
-36.0756

> <Gold.PLP.part.hbond>
-3.2611

> <Gold.PLP.part.metal>
0.0000

> <Gold.PLP.part.buried>
-1.4749

> <Gold.PLP.part.nonpolar>
-31.2168

> <Gold.PLP.part.repulsive>
0.1769

> <Gold.PLP.ligand.clash>
0.9405

> <Gold.PLP.ligand.torsion>
0.6058

> <Gold.PLP.Chemscore.Hbond>
1.9913

> <Gold.PLP.Chemscore.CHOScore>
0.9220

> <Gold.PLP.Chemscore.Metal>
0.0000

> <Gold.Chemscore.Hbonds>
donor molecule, donor type, donor heavy atom, donor atom, acceptor molecule, acceptor atom, score
      L1  H    10    30       P1  8028  1.00
      P1  H  7997  8008       L1     1  0.94
      L1  C    18    34       P1  8028  0.90

> <Gold.PLP.Chemscore.Internal.Correction>
0.0376

> <Gold.Rescore>
     Score         DG    S(hbond)    S(metal)    S(lipo)     H(rot)  DE(clash)    DE(int)     intcor
     15.65     -18.95       1.87        0.00     104.40       1.95       1.30       2.00       ----

> <Gold.Chemscore.Fitness>
15.6491

> <Gold.Chemscore.DG>
-18.9483

> <Gold.Chemscore.ZeroCoef>
-5.4800

> <Gold.Chemscore.Hbond>
1.8701

> <Gold.Chemscore.Metal>
0.0000

> <Gold.Chemscore.Lipo>
104.4024

> <Gold.Chemscore.Internal_Hbond>
0.0000

> <Gold.Chemscore.DEClash>
1.3033

> <Gold.Chemscore.DEInternal>
1.9960

> <Gold.Chemscore.Rot>
1.9503

> <Gold.Chemscore.Internal.Correction>
   9.000000E+99

> <Gold.Chemscore.Hbonds>
donor molecule, donor type, donor heavy atom, donor atom, acceptor molecule, acceptor atom, score
      L1  H    10    30       P1  8028  0.53
      P1  H  7997  8008       L1     1  0.90

> <Gold.Chemscore.Hbond.Weighted>
-6.2460

> <Gold.Chemscore.Metal.Weighted>
-0.0000

> <Gold.Chemscore.Lipo.Weighted>
-12.2151

> <Gold.Chemscore.Internal_Hbond.Weighted>
0.0000

> <Gold.Chemscore.DEClash.Weighted>
1.3033

> <Gold.Chemscore.DEInternal.Weighted>
1.9960

> <Gold.Chemscore.Rot.Weighted>
4.9928

> <Gold.Chemscore.Internal.Correction.Weighted>
   9.000000E+99

> <Gold.Protein.RotatedTorsions>
[ 6907 6896 6895 6894 ] final   17.14 input  -60.11 | X-H torsion
[ 7974 7965 7964 7962 ] final  -27.81 input  175.53 | X-H torsion
[ 8008 7997 7996 7995 ] final  -29.17 input   59.86 | X-H torsion
[ 10167 10162 10161 10158 ] final   -3.44 input  -65.29 | X-H torsion
[ 10718 10713 10712 10709 ] final  178.88 input   66.30 | X-H torsion
[ 10763 10752 10751 10750 ] final -163.52 input  -60.55 | X-H torsion
[ 11005 11000 10999 10996 ] final  156.43 input  -57.11 | X-H torsion

> <Gold.Protein.ActiveResidues>
 VAL166  LYS551  ARG553  GLY616  TRP617  ASP618  TYR619  PRO620  LYS621  CYS622 
 ASP623  PHE694  ASN695  SER759  ASP760  ASP761  ALA762  ILE779  LEU786  VAL792 
 PHE793  MET794  SER795  GLU796  ALA797  LYS798  CYS799  TRP800  GLU811  SER814 

> <Gold.Protein.RotatedAtoms>
  151.8449  135.0577  160.0452 H   0  0  0  0  0  0  0  0  0  0  0  0  # atno 6907 bound_to 6896
  152.2781  133.5440  159.5489 H   0  0  0  0  0  0  0  0  0  0  0  0  # atno 6908 bound_to 6896
  150.7178  134.0519  159.3843 H   0  0  0  0  0  0  0  0  0  0  0  0  # atno 6909 bound_to 6896
  146.1332  140.5201  142.8684 H   0  0  0  0  0  0  0  0  0  0  0  0  # atno 7974 bound_to 7965
  154.4301  140.1825  156.1206 H   0  0  0  0  0  0  0  0  0  0  0  0  # atno 8008 bound_to 7997
  156.0146  140.3347  155.6950 H   0  0  0  0  0  0  0  0  0  0  0  0  # atno 8009 bound_to 7997
  155.6063  140.0645  157.2709 H   0  0  0  0  0  0  0  0  0  0  0  0  # atno 8010 bound_to 7997
  140.6890  143.6539  150.8325 H   0  0  0  0  0  0  0  0  0  0  0  0  # atno 10167 bound_to 10162
  156.8840  130.9825  151.3058 H   0  0  0  0  0  0  0  0  0  0  0  0  # atno 10718 bound_to 10713
  154.7114  135.3007  154.9190 H   0  0  0  0  0  0  0  0  0  0  0  0  # atno 10763 bound_to 10752
  154.0091  135.6697  153.4768 H   0  0  0  0  0  0  0  0  0  0  0  0  # atno 10764 bound_to 10752
  153.0758  135.5035  154.8315 H   0  0  0  0  0  0  0  0  0  0  0  0  # atno 10765 bound_to 10752
  140.1675  134.8567  157.2649 H   0  0  0  0  0  0  0  0  0  0  0  0  # atno 11005 bound_to 11000
  144.7712  140.5641  143.6669 LP  0  0  0  0  0  0  0  0  0  0  0  0  # atno 17320 bound_to 7965
  145.5215  139.1476  143.3550 LP  0  0  0  0  0  0  0  0  0  0  0  0  # atno 17321 bound_to 7965
  140.0250  143.5503  152.2784 LP  0  0  0  0  0  0  0  0  0  0  0  0  # atno 17342 bound_to 10162
  139.6275  144.7639  151.2607 LP  0  0  0  0  0  0  0  0  0  0  0  0  # atno 17343 bound_to 10162
  157.6123  130.8592  149.8972 LP  0  0  0  0  0  0  0  0  0  0  0  0  # atno 17370 bound_to 10713
  156.0662  130.3692  150.0873 LP  0  0  0  0  0  0  0  0  0  0  0  0  # atno 17371 bound_to 10713
  140.2417  134.3788  155.7478 LP  0  0  0  0  0  0  0  0  0  0  0  0  # atno 17394 bound_to 11000
  141.2215  133.7269  156.8799 LP  0  0  0  0  0  0  0  0  0  0  0  0  # atno 17395 bound_to 11000

$$$$
