AV-unprocessed.smi:523|AV-procd|sdf|2804|dock10
  -GOLD-   2262023283D 1   1.00000     0.00000
 Structure written by MMmdl.
 40 42  0  0  0  0  0  0  0  0  2 V2000
  147.6795  141.6797  154.3114 C   0  0  0  0  0  0  0  0  0  0  0  0
  149.0327  141.4249  153.9820 O   0  0  0  0  0  0  0  0  0  0  0  0
  149.9210  141.7404  155.0418 C   0  0  0  0  0  0  0  0  0  0  0  0
  149.6537  140.8081  156.2314 C   0  0  0  0  0  0  0  0  0  0  0  0
  150.7810  140.7735  157.1625 N   0  0  0  0  0  0  0  0  0  0  0  0
  151.8477  139.9260  157.1803 C   0  0  0  0  0  0  0  0  0  0  0  0
  151.9930  138.8784  156.2694 N   0  0  0  0  0  0  0  0  0  0  0  0
  152.2814  137.4811  156.5795 C   0  0  0  0  0  0  0  0  0  0  0  0
  151.3521  136.5436  155.7880 C   0  0  0  0  0  0  0  0  0  0  0  0
  151.5431  136.7681  154.3959 O   0  0  0  0  0  0  0  0  0  0  0  0
  151.2669  138.1169  154.0358 C   0  0  0  0  0  0  0  0  0  0  0  0
  152.1825  139.0630  154.8346 C   0  0  0  0  0  0  0  0  0  0  0  0
  152.7625  140.2050  158.1110 N   0  0  0  0  0  0  0  0  0  0  0  0
  152.2229  141.3029  158.7616 C   0  0  0  0  0  0  0  0  0  0  0  0
  151.0367  141.6689  158.2069 C   0  0  0  0  0  0  0  0  0  0  0  0
  150.2406  142.8307  158.6630 C   0  0  0  0  0  0  0  0  0  0  0  0
  149.1844  143.1340  158.1119 O   0  0  0  0  0  0  0  0  0  0  0  0
  150.8263  143.4760  159.7210 N   0  5  0  0  0  0  0  0  0  0  0  0
  152.0217  143.1355  160.3168 C   0  0  0  0  0  0  0  0  0  0  0  0
  152.4811  143.7746  161.2644 O   0  0  0  0  0  0  0  0  0  0  0  0
  152.7315  142.0595  159.8523 N   0  0  0  0  0  0  0  0  0  0  0  0
  154.0102  141.6793  160.4596 C   0  0  0  0  0  0  0  0  0  0  0  0
  147.0438  141.4323  153.4612 H   0  0  0  0  0  0  0  0  0  0  0  0
  147.5233  142.7314  154.5548 H   0  0  0  0  0  0  0  0  0  0  0  0
  147.3603  141.0720  155.1589 H   0  0  0  0  0  0  0  0  0  0  0  0
  150.9541  141.6371  154.7063 H   0  0  0  0  0  0  0  0  0  0  0  0
  149.7800  142.7775  155.3495 H   0  0  0  0  0  0  0  0  0  0  0  0
  148.7547  141.1127  156.7649 H   0  0  0  0  0  0  0  0  0  0  0  0
  149.4321  139.8130  155.8617 H   0  0  0  0  0  0  0  0  0  0  0  0
  153.3205  137.2709  156.3231 H   0  0  0  0  0  0  0  0  0  0  0  0
  152.2011  137.2994  157.6505 H   0  0  0  0  0  0  0  0  0  0  0  0
  151.5843  135.5029  156.0136 H   0  0  0  0  0  0  0  0  0  0  0  0
  150.3065  136.7052  156.0549 H   0  0  0  0  0  0  0  0  0  0  0  0
  151.4390  138.2398  152.9665 H   0  0  0  0  0  0  0  0  0  0  0  0
  150.2159  138.3455  154.2182 H   0  0  0  0  0  0  0  0  0  0  0  0
  151.9630  140.0969  154.5663 H   0  0  0  0  0  0  0  0  0  0  0  0
  153.2286  138.8873  154.5802 H   0  0  0  0  0  0  0  0  0  0  0  0
  153.8929  141.5073  161.5304 H   0  0  0  0  0  0  0  0  0  0  0  0
  154.7466  142.4714  160.3194 H   0  0  0  0  0  0  0  0  0  0  0  0
  154.4245  140.7676  160.0304 H   0  0  0  0  0  0  0  0  0  0  0  0
  1  2  1  0  0  0  0
  1 23  1  0  0  0  0
  1 24  1  0  0  0  0
  1 25  1  0  0  0  0
  2  3  1  0  0  0  0
  3  4  1  0  0  0  0
  3 26  1  0  0  0  0
  3 27  1  0  0  0  0
  4  5  1  0  0  0  0
  4 28  1  0  0  0  0
  4 29  1  0  0  0  0
  5 15  1  0  0  0  0
  5  6  1  0  0  0  0
  6  7  1  0  0  0  0
  6 13  2  0  0  0  0
  7 12  1  0  0  0  0
  7  8  1  0  0  0  0
  8  9  1  0  0  0  0
  8 30  1  0  0  0  0
  8 31  1  0  0  0  0
  9 10  1  0  0  0  0
  9 32  1  0  0  0  0
  9 33  1  0  0  0  0
 10 11  1  0  0  0  0
 11 12  1  0  0  0  0
 11 34  1  0  0  0  0
 11 35  1  0  0  0  0
 12 36  1  0  0  0  0
 12 37  1  0  0  0  0
 13 14  1  0  0  0  0
 14 21  1  0  0  0  0
 14 15  2  0  0  0  0
 15 16  1  0  0  0  0
 16 17  2  0  0  0  0
 16 18  1  0  0  0  0
 18 19  1  0  0  0  0
 19 20  2  0  0  0  0
 19 21  1  0  0  0  0
 21 22  1  0  0  0  0
 22 38  1  0  0  0  0
 22 39  1  0  0  0  0
 22 40  1  0  0  0  0
M  CHG  1  18  -1
M  END
> <s_m_source_file>
AV-unprocessed.smi

> <i_m_source_file_index>
523

> <i_lp_mmshare_version>
43012

> <i_f3d_flags>
0

> <s_epik_input>
W0NIM11uMWMoPU8pW25IXWMoPU8pYyhjMTIpbihbQ0gyXVtDSDJdT1tDSDNdKWMobjIpTjNbQ0gyXVtDSDJdT1tDSDJdW0NIMl0z

> <s_epik_cmdline>
J2VwaWtfcHl0aG9uJywgJy1waCcsICc3LjAnLCAnLXRuJywgJzgnLCAnLW1hJywgJzIwMCcsICctbWV0YWxfYmluZGluZycsICctaW1hZScsICc8aW5maWxlLm1hZT4nLCAnLW9tYWUnLCAnPG91dGZpbGUubWFlPic=

> <r_lp_tautomer_probability>
1

> <r_epik_Ionization_Penalty>
4.75788

> <r_epik_Ionization_Penalty_Charging>
0.0452179

> <r_epik_Ionization_Penalty_Neutral>
4.71266

> <r_epik_State_Penalty>
4.71244

> <r_epik_Charging_Adjusted_Penalty>
4.75766

> <i_epik_Tot_Q>
-1

> <i_epik_Tot_abs_Q>
1

> <r_epik_Metal_State_Penalty>
0.934872

> <b_epik_Metal_Only>
1

> <s_lp_Force_Field>
OPLS_2005

> <r_lp_Energy>
41.5278

> <b_lp_Chiralities_Consistent>
1

> <s_lp_Variant>
AV-unprocessed.smi:523-2

> <Gold.Version>
5.8.1

> <Gold.Id.Protein>
6NUR|6NUR_protein|mol2

> <Gold.PLP.Fitness>
42.8986

> <Gold.PLP.PLP>
-38.3680

> <Gold.PLP.part.hbond>
-3.5656

> <Gold.PLP.part.metal>
0.0000

> <Gold.PLP.part.buried>
-4.3224

> <Gold.PLP.part.nonpolar>
-31.0004

> <Gold.PLP.part.repulsive>
2.5520

> <Gold.PLP.ligand.clash>
0.0000

> <Gold.PLP.ligand.torsion>
1.5376

> <Gold.PLP.Chemscore.Hbond>
2.4097

> <Gold.PLP.Chemscore.CHOScore>
0.0000

> <Gold.PLP.Chemscore.Metal>
0.0000

> <Gold.Chemscore.Hbonds>
donor molecule, donor type, donor heavy atom, donor atom, acceptor molecule, acceptor atom, score
      P1  H  7997  8010       L1    13  0.76
      P1  H  8011  8017       L1     2  0.66
      P1  H 10752 10765       L1    10  0.80

> <Gold.PLP.Chemscore.Internal.Correction>
0.3766

> <Gold.Rescore>
     Score         DG    S(hbond)    S(metal)    S(lipo)     H(rot)  DE(clash)    DE(int)     intcor
     10.62     -12.66       1.19        0.00      60.47       1.52       0.48       1.57       ----

> <Gold.Chemscore.Fitness>
10.6205

> <Gold.Chemscore.DG>
-12.6635

> <Gold.Chemscore.ZeroCoef>
-5.4800

> <Gold.Chemscore.Hbond>
1.1942

> <Gold.Chemscore.Metal>
0.0000

> <Gold.Chemscore.Lipo>
60.4750

> <Gold.Chemscore.Internal_Hbond>
0.0000

> <Gold.Chemscore.DEClash>
0.4778

> <Gold.Chemscore.DEInternal>
1.5652

> <Gold.Chemscore.Rot>
1.5159

> <Gold.Chemscore.Internal.Correction>
   9.000000E+99

> <Gold.Chemscore.Hbonds>
donor molecule, donor type, donor heavy atom, donor atom, acceptor molecule, acceptor atom, score
      P1  H  7997  8010       L1    13  0.19
      P1  H  8011  8017       L1     2  0.30
      P1  H 10752 10765       L1    10  0.12

> <Gold.Chemscore.Hbond.Weighted>
-3.9885

> <Gold.Chemscore.Metal.Weighted>
-0.0000

> <Gold.Chemscore.Lipo.Weighted>
-7.0756

> <Gold.Chemscore.Internal_Hbond.Weighted>
0.0000

> <Gold.Chemscore.DEClash.Weighted>
0.4778

> <Gold.Chemscore.DEInternal.Weighted>
1.5652

> <Gold.Chemscore.Rot.Weighted>
3.8806

> <Gold.Chemscore.Internal.Correction.Weighted>
   9.000000E+99

> <Gold.Protein.RotatedTorsions>
[ 6907 6896 6895 6894 ] final   92.16 input  -60.11 | X-H torsion
[ 7974 7965 7964 7962 ] final  123.09 input  175.53 | X-H torsion
[ 8008 7997 7996 7995 ] final   39.52 input   59.86 | X-H torsion
[ 10167 10162 10161 10158 ] final   21.42 input  -65.29 | X-H torsion
[ 10718 10713 10712 10709 ] final -110.21 input   66.30 | X-H torsion
[ 10763 10752 10751 10750 ] final  158.51 input  -60.55 | X-H torsion
[ 11005 11000 10999 10996 ] final  136.66 input  -57.11 | X-H torsion

> <Gold.Protein.ActiveResidues>
 VAL166  LYS551  ARG553  GLY616  TRP617  ASP618  TYR619  PRO620  LYS621  CYS622 
 ASP623  PHE694  ASN695  SER759  ASP760  ASP761  ALA762  ILE779  LEU786  VAL792 
 PHE793  MET794  SER795  GLU796  ALA797  LYS798  CYS799  TRP800  GLU811  SER814 

> <Gold.Protein.RotatedAtoms>
  152.5452  134.1546  159.8532 H   0  0  0  0  0  0  0  0  0  0  0  0  # atno 6907 bound_to 6896
  151.1569  133.4863  159.2602 H   0  0  0  0  0  0  0  0  0  0  0  0  # atno 6908 bound_to 6896
  151.1413  135.0192  159.8682 H   0  0  0  0  0  0  0  0  0  0  0  0  # atno 6909 bound_to 6896
  145.1000  139.3525  143.4817 H   0  0  0  0  0  0  0  0  0  0  0  0  # atno 7974 bound_to 7965
  155.2381  140.3343  155.4295 H   0  0  0  0  0  0  0  0  0  0  0  0  # atno 8008 bound_to 7997
  156.2267  140.1832  156.7390 H   0  0  0  0  0  0  0  0  0  0  0  0  # atno 8009 bound_to 7997
  154.5911  140.0638  156.9225 H   0  0  0  0  0  0  0  0  0  0  0  0  # atno 8010 bound_to 7997
  140.5428  143.9647  150.6529 H   0  0  0  0  0  0  0  0  0  0  0  0  # atno 10167 bound_to 10162
  156.0578  130.5803  150.8205 H   0  0  0  0  0  0  0  0  0  0  0  0  # atno 10718 bound_to 10713
  154.2172  135.2783  155.2937 H   0  0  0  0  0  0  0  0  0  0  0  0  # atno 10763 bound_to 10752
  154.5731  135.5612  153.7117 H   0  0  0  0  0  0  0  0  0  0  0  0  # atno 10764 bound_to 10752
  153.0050  135.6326  154.2312 H   0  0  0  0  0  0  0  0  0  0  0  0  # atno 10765 bound_to 10752
  140.0061  134.9458  157.0178 H   0  0  0  0  0  0  0  0  0  0  0  0  # atno 11005 bound_to 11000
  146.3530  140.0872  142.8614 LP  0  0  0  0  0  0  0  0  0  0  0  0  # atno 17320 bound_to 7965
  145.0967  140.9319  143.4737 LP  0  0  0  0  0  0  0  0  0  0  0  0  # atno 17321 bound_to 7965
  140.3052  143.3234  152.0933 LP  0  0  0  0  0  0  0  0  0  0  0  0  # atno 17342 bound_to 10162
  139.4995  144.6671  151.6330 LP  0  0  0  0  0  0  0  0  0  0  0  0  # atno 17343 bound_to 10162
  157.5563  131.0945  150.9624 LP  0  0  0  0  0  0  0  0  0  0  0  0  # atno 17370 bound_to 10713
  156.9872  130.5549  149.5300 LP  0  0  0  0  0  0  0  0  0  0  0  0  # atno 17371 bound_to 10713
  140.4638  134.1456  155.7194 LP  0  0  0  0  0  0  0  0  0  0  0  0  # atno 17394 bound_to 11000
  141.1678  133.8669  157.1663 LP  0  0  0  0  0  0  0  0  0  0  0  0  # atno 17395 bound_to 11000

$$$$
