AV-unprocessed.smi:287|AV-procd|sdf|2198|dock1
  -GOLD-   2262022 03D 1   1.00000     0.00000
 Structure written by MMmdl.
 55 58  0  0  0  0  0  0  0  0  1 V2000
  152.2217  141.6768  158.8284 C   0  0  0  0  0  0  0  0  0  0  0  0
  151.8573  140.7932  157.6854 C   0  0  0  0  0  0  0  0  0  0  0  0
  150.8157  140.7708  156.8047 C   0  0  0  0  0  0  0  0  0  0  0  0
  151.0312  139.6744  155.9170 C   0  0  0  0  0  0  0  0  0  0  0  0
  150.1256  139.2539  154.7674 C   0  0  2  0  0  0  0  0  0  0  0  0
  150.7613  138.0747  154.0134 C   0  0  0  0  0  0  0  0  0  0  0  0
  149.9607  140.2747  153.8018 O   0  0  0  0  0  0  0  0  0  0  0  0
  148.7007  138.8787  155.2366 C   0  0  0  0  0  0  0  0  0  0  0  0
  148.5975  137.4974  155.6901 N   0  0  0  0  0  0  0  0  0  0  0  0
  147.7955  136.6159  155.0570 C   0  0  0  0  0  0  0  0  0  0  0  0
  147.9938  135.3147  155.3770 N   0  0  0  0  0  0  0  0  0  0  0  0
  147.2527  134.3611  154.8063 C   0  0  0  0  0  0  0  0  0  0  0  0
  146.2752  134.4906  153.9077 N   0  0  0  0  0  0  0  0  0  0  0  0
  146.0688  135.7991  153.5807 C   0  0  0  0  0  0  0  0  0  0  0  0
  146.7777  136.9179  154.1040 C   0  0  0  0  0  0  0  0  0  0  0  0
  146.2760  138.0825  153.5323 N   0  0  0  0  0  0  0  0  0  0  0  0
  145.3353  137.6714  152.7262 C   0  0  0  0  0  0  0  0  0  0  0  0
  145.1404  136.3073  152.6983 N   0  0  0  0  0  0  0  0  0  0  0  0
  144.1570  135.4981  151.9030 C   0  0  2  0  0  0  0  0  0  0  0  0
  144.0068  134.2687  152.5422 O   0  0  0  0  0  0  0  0  0  0  0  0
  144.7356  133.2325  151.8766 C   0  0  1  0  0  0  0  0  0  0  0  0
  143.6868  132.1984  151.4150 C   0  0  0  0  0  0  0  0  0  0  0  0
  142.8053  132.7940  150.4869 O   0  0  0  0  0  0  0  0  0  0  0  0
  145.5068  133.9462  150.7445 C   0  0  1  0  0  0  0  0  0  0  0  0
  145.6376  133.1752  149.5660 O   0  0  0  0  0  0  0  0  0  0  0  0
  144.6806  135.1951  150.4920 C   0  0  2  0  0  0  0  0  0  0  0  0
  145.4705  136.2296  149.9339 O   0  0  0  0  0  0  0  0  0  0  0  0
  152.1987  139.0960  156.3529 C   0  0  0  0  0  0  0  0  0  0  0  0
  152.9942  137.9115  155.9134 C   0  0  0  0  0  0  0  0  0  0  0  0
  152.7092  139.7714  157.4200 O   0  0  0  0  0  0  0  0  0  0  0  0
  143.2335  136.0776  151.9248 H   0  0  0  0  0  0  0  0  0  0  0  0
  145.4437  132.7627  152.5607 H   0  0  0  0  0  0  0  0  0  0  0  0
  146.5006  134.2191  151.1033 H   0  0  0  0  0  0  0  0  0  0  0  0
  143.8244  134.9768  149.8520 H   0  0  0  0  0  0  0  0  0  0  0  0
  151.5558  142.5383  158.8815 H   0  0  0  0  0  0  0  0  0  0  0  0
  153.2423  142.0455  158.7228 H   0  0  0  0  0  0  0  0  0  0  0  0
  152.1513  141.1361  159.7723 H   0  0  0  0  0  0  0  0  0  0  0  0
  149.9924  141.4697  156.7922 H   0  0  0  0  0  0  0  0  0  0  0  0
  150.9012  137.2159  154.6710 H   0  0  0  0  0  0  0  0  0  0  0  0
  151.7395  138.3421  153.6109 H   0  0  0  0  0  0  0  0  0  0  0  0
  150.1384  137.7497  153.1789 H   0  0  0  0  0  0  0  0  0  0  0  0
  149.7597  139.8718  152.9711 H   0  0  0  0  0  0  0  0  0  0  0  0
  148.3580  139.5601  156.0166 H   0  0  0  0  0  0  0  0  0  0  0  0
  148.0188  138.9942  154.3930 H   0  0  0  0  0  0  0  0  0  0  0  0
  149.2211  137.2378  156.4410 H   0  0  0  0  0  0  0  0  0  0  0  0
  147.4740  133.3501  155.1147 H   0  0  0  0  0  0  0  0  0  0  0  0
  144.7571  138.3614  152.1300 H   0  0  0  0  0  0  0  0  0  0  0  0
  144.1579  131.3166  150.9795 H   0  0  0  0  0  0  0  0  0  0  0  0
  143.0707  131.8610  152.2482 H   0  0  0  0  0  0  0  0  0  0  0  0
  143.2563  132.8878  149.6619 H   0  0  0  0  0  0  0  0  0  0  0  0
  145.9487  133.7406  148.8753 H   0  0  0  0  0  0  0  0  0  0  0  0
  144.9126  136.9734  149.7634 H   0  0  0  0  0  0  0  0  0  0  0  0
  152.3607  137.0276  155.8386 H   0  0  0  0  0  0  0  0  0  0  0  0
  153.7958  137.6901  156.6185 H   0  0  0  0  0  0  0  0  0  0  0  0
  153.4448  138.0900  154.9371 H   0  0  0  0  0  0  0  0  0  0  0  0
  1  2  1  0  0  0  0
  1 35  1  0  0  0  0
  1 36  1  0  0  0  0
  1 37  1  0  0  0  0
  2 30  1  0  0  0  0
  2  3  2  0  0  0  0
  3  4  1  0  0  0  0
  3 38  1  0  0  0  0
  4  5  1  0  0  0  0
  4 28  2  0  0  0  0
  5  6  1  0  0  0  0
  5  7  1  0  0  0  0
  5  8  1  0  0  0  0
  6 39  1  0  0  0  0
  6 40  1  0  0  0  0
  6 41  1  0  0  0  0
  7 42  1  0  0  0  0
  8  9  1  0  0  0  0
  8 43  1  0  0  0  0
  8 44  1  0  0  0  0
  9 10  1  0  0  0  0
  9 45  1  0  0  0  0
 10 15  1  0  0  0  0
 10 11  2  0  0  0  0
 11 12  1  0  0  0  0
 12 13  2  0  0  0  0
 12 46  1  0  0  0  0
 13 14  1  0  0  0  0
 14 18  1  0  0  0  0
 14 15  2  0  0  0  0
 15 16  1  0  0  0  0
 16 17  2  0  0  0  0
 17 18  1  0  0  0  0
 17 47  1  0  0  0  0
 18 19  1  0  0  0  0
 19 31  1  0  0  0  0
 19 26  1  0  0  0  0
 19 20  1  0  0  0  0
 20 21  1  0  0  0  0
 21 32  1  0  0  0  0
 21 22  1  0  0  0  0
 21 24  1  0  0  0  0
 22 23  1  0  0  0  0
 22 48  1  0  0  0  0
 22 49  1  0  0  0  0
 23 50  1  0  0  0  0
 24 33  1  0  0  0  0
 24 25  1  0  0  0  0
 24 26  1  0  0  0  0
 25 51  1  0  0  0  0
 26 34  1  0  0  0  0
 26 27  1  0  0  0  0
 27 52  1  0  0  0  0
 28 29  1  0  0  0  0
 28 30  1  0  0  0  0
 29 53  1  0  0  0  0
 29 54  1  0  0  0  0
 29 55  1  0  0  0  0
M  END
> <s_m_source_file>
AV-unprocessed.smi

> <i_m_source_file_index>
287

> <i_lp_mmshare_version>
43012

> <i_f3d_flags>
0

> <s_epik_input>
W0NIM11jMVtjSF1jKGMobzEpW0NIM10pW0NAQF0oW0NIM10pKFtPSF0pW0NIMl1bTkhdYyhuW2NIXW4yKWMoYzIzKW5bY0hdbjNbQ0BASF00T1tDQEhdKFtDSDJdW09IXSlbQ0BASF0oW09IXSlbQ0BIXTRbT0hd

> <s_epik_cmdline>
J2VwaWtfcHl0aG9uJywgJy1waCcsICc3LjAnLCAnLXRuJywgJzgnLCAnLW1hJywgJzIwMCcsICctbWV0YWxfYmluZGluZycsICctaW1hZScsICc8aW5maWxlLm1hZT4nLCAnLW9tYWUnLCAnPG91dGZpbGUubWFlPic=

> <r_lp_tautomer_probability>
1

> <r_epik_Ionization_Penalty>
0.000992612

> <r_epik_Ionization_Penalty_Charging>
0

> <r_epik_Ionization_Penalty_Neutral>
0.000992612

> <r_epik_State_Penalty>
-0

> <r_epik_Charging_Adjusted_Penalty>
0

> <i_epik_Tot_Q>
0

> <i_epik_Tot_abs_Q>
0

> <r_epik_Metal_State_Penalty>
-0

> <b_epik_Metal_Only>
0

> <s_epik_Chemistry_Notes>
This compound contains an acetal/aminal-like group ( X-CH(R)-Y where X, Y are N, S, or O) that may be acid/base labile, releasing an aldehyde.

> <s_lp_Force_Field>
OPLS_2005

> <r_lp_Energy>
45.8493

> <b_lp_Chiralities_Consistent>
1

> <s_lp_Variant>
AV-unprocessed.smi:287-22

> <Gold.Version>
5.8.1

> <Gold.Id.Protein>
6NUR|6NUR_protein|mol2

> <Gold.PLP.Fitness>
54.0713

> <Gold.PLP.PLP>
-39.1313

> <Gold.PLP.part.hbond>
-7.1787

> <Gold.PLP.part.metal>
0.0000

> <Gold.PLP.part.buried>
-4.2084

> <Gold.PLP.part.nonpolar>
-29.5215

> <Gold.PLP.part.repulsive>
0.4565

> <Gold.PLP.ligand.clash>
2.0968

> <Gold.PLP.ligand.torsion>
1.1303

> <Gold.PLP.Chemscore.Hbond>
4.3616

> <Gold.PLP.Chemscore.CHOScore>
2.0000

> <Gold.PLP.Chemscore.Metal>
0.0000

> <Gold.Chemscore.Hbonds>
donor molecule, donor type, donor heavy atom, donor atom, acceptor molecule, acceptor atom, score
      L1  H     7    42       P1  7957  0.96
      L1  H    25    51       P1  7921  0.65
      L1  H    27    52       P1 10171  1.00
      P1  H  7989  7998       L1     7  0.72
      P1  H  7997  8010       L1    30  0.90
      L1  C    17    47       P1 10171  1.00
      L1  C    17    47       P1 10175  1.00

> <Gold.PLP.Chemscore.Internal.Correction>
0.2128

> <Gold.Rescore>
     Score         DG    S(hbond)    S(metal)    S(lipo)     H(rot)  DE(clash)    DE(int)     intcor
      5.77     -11.37       2.80        0.00      85.52       5.27       0.28       5.32       ----

> <Gold.Chemscore.Fitness>
5.7653

> <Gold.Chemscore.DG>
-11.3667

> <Gold.Chemscore.ZeroCoef>
-5.4800

> <Gold.Chemscore.Hbond>
2.8037

> <Gold.Chemscore.Metal>
0.0000

> <Gold.Chemscore.Lipo>
85.5225

> <Gold.Chemscore.Internal_Hbond>
0.0000

> <Gold.Chemscore.DEClash>
0.2835

> <Gold.Chemscore.DEInternal>
5.3179

> <Gold.Chemscore.Rot>
5.2672

> <Gold.Chemscore.Internal.Correction>
   9.000000E+99

> <Gold.Chemscore.Hbonds>
donor molecule, donor type, donor heavy atom, donor atom, acceptor molecule, acceptor atom, score
      L1  H     7    42       P1  7957  0.92
      L1  H    25    51       P1  7921  0.06
      L1  H    27    52       P1 10171  1.00
      P1  H  7989  7998       L1     7  0.10
      P1  H  7997  8010       L1    30  0.18

> <Gold.Chemscore.Hbond.Weighted>
-9.3645

> <Gold.Chemscore.Metal.Weighted>
-0.0000

> <Gold.Chemscore.Lipo.Weighted>
-10.0061

> <Gold.Chemscore.Internal_Hbond.Weighted>
0.0000

> <Gold.Chemscore.DEClash.Weighted>
0.2835

> <Gold.Chemscore.DEInternal.Weighted>
5.3179

> <Gold.Chemscore.Rot.Weighted>
13.4839

> <Gold.Chemscore.Internal.Correction.Weighted>
   9.000000E+99

> <Gold.Protein.RotatedTorsions>
[ 6907 6896 6895 6894 ] final   31.05 input  -60.11 | X-H torsion
[ 7974 7965 7964 7962 ] final  -93.39 input  175.53 | X-H torsion
[ 8008 7997 7996 7995 ] final   55.10 input   59.86 | X-H torsion
[ 10167 10162 10161 10158 ] final   51.05 input  -65.29 | X-H torsion
[ 10718 10713 10712 10709 ] final   75.49 input   66.30 | X-H torsion
[ 10763 10752 10751 10750 ] final   60.45 input  -60.55 | X-H torsion
[ 11005 11000 10999 10996 ] final  127.12 input  -57.11 | X-H torsion

> <Gold.Protein.ActiveResidues>
 VAL166  LYS551  ARG553  GLY616  TRP617  ASP618  TYR619  PRO620  LYS621  CYS622 
 ASP623  PHE694  ASN695  SER759  ASP760  ASP761  ALA762  ILE779  LEU786  VAL792 
 PHE793  MET794  SER795  GLU796  ALA797  LYS798  CYS799  TRP800  GLU811  SER814 

> <Gold.Protein.RotatedAtoms>
  152.0547  134.9632  160.0574 H   0  0  0  0  0  0  0  0  0  0  0  0  # atno 6907 bound_to 6896
  152.1019  133.4249  159.4599 H   0  0  0  0  0  0  0  0  0  0  0  0  # atno 6908 bound_to 6896
  150.6840  134.2670  159.4616 H   0  0  0  0  0  0  0  0  0  0  0  0  # atno 6909 bound_to 6896
  145.3872  140.9524  143.2361 H   0  0  0  0  0  0  0  0  0  0  0  0  # atno 7974 bound_to 7965
  155.4956  140.3473  155.4362 H   0  0  0  0  0  0  0  0  0  0  0  0  # atno 8008 bound_to 7997
  156.0948  140.1420  156.9574 H   0  0  0  0  0  0  0  0  0  0  0  0  # atno 8009 bound_to 7997
  154.4656  140.0918  156.6989 H   0  0  0  0  0  0  0  0  0  0  0  0  # atno 8010 bound_to 7997
  140.2660  144.3319  150.6304 H   0  0  0  0  0  0  0  0  0  0  0  0  # atno 10167 bound_to 10162
  157.6636  130.9729  150.1361 H   0  0  0  0  0  0  0  0  0  0  0  0  # atno 10718 bound_to 10713
  152.9921  135.5536  154.5876 H   0  0  0  0  0  0  0  0  0  0  0  0  # atno 10763 bound_to 10752
  154.5244  135.2809  155.1236 H   0  0  0  0  0  0  0  0  0  0  0  0  # atno 10764 bound_to 10752
  154.2577  135.6387  153.5316 H   0  0  0  0  0  0  0  0  0  0  0  0  # atno 10765 bound_to 10752
  139.9491  134.9625  156.8807 H   0  0  0  0  0  0  0  0  0  0  0  0  # atno 11005 bound_to 11000
  144.8466  139.5387  143.6876 LP  0  0  0  0  0  0  0  0  0  0  0  0  # atno 17320 bound_to 7965
  146.2815  139.6889  142.9226 LP  0  0  0  0  0  0  0  0  0  0  0  0  # atno 17321 bound_to 7965
  140.5928  143.2167  151.7221 LP  0  0  0  0  0  0  0  0  0  0  0  0  # atno 17342 bound_to 10162
  139.5002  144.3913  152.0276 LP  0  0  0  0  0  0  0  0  0  0  0  0  # atno 17343 bound_to 10162
  156.2195  130.3673  149.8573 LP  0  0  0  0  0  0  0  0  0  0  0  0  # atno 17370 bound_to 10713
  156.6430  130.8712  151.3517 LP  0  0  0  0  0  0  0  0  0  0  0  0  # atno 17371 bound_to 10713
  140.5763  134.0395  155.7448 LP  0  0  0  0  0  0  0  0  0  0  0  0  # atno 17394 bound_to 11000
  141.1149  133.9556  157.2841 LP  0  0  0  0  0  0  0  0  0  0  0  0  # atno 17395 bound_to 11000

$$$$
