AV-unprocessed.smi:21|AV-procd|sdf|135|dock6
  -GOLD-   2262015333D 1   1.00000     0.00000
 Structure written by MMmdl.
 62 65  0  0  0  0  0  0  0  0  2 V2000
  144.6257  132.6155  149.6346 C   0  0  0  0  0  0  0  0  0  0  0  0
  145.2372  132.6925  150.9128 O   0  0  0  0  0  0  0  0  0  0  0  0
  146.1168  131.6111  151.1893 C   0  0  1  0  0  0  0  0  0  0  0  0
  146.9523  131.9615  152.4214 C   0  0  0  0  0  0  0  0  0  0  0  0
  146.2009  131.3035  153.5783 C   0  0  2  0  0  0  0  0  0  0  0  0
  147.0234  131.1305  154.8773 C   0  0  0  0  0  0  0  0  0  0  0  0
  148.1789  132.0229  154.9401 N   0  0  0  0  0  0  0  0  0  0  0  0
  149.4944  131.4645  154.6281 C   0  0  0  0  0  0  0  0  0  0  0  0
  148.0354  133.3805  155.0247 C   0  0  0  0  0  0  0  0  0  0  0  0
  146.8177  133.9104  154.7259 N   0  0  0  0  0  0  0  0  0  0  0  0
  146.6002  135.2256  154.7900 C   0  0  0  0  0  0  0  0  0  0  0  0
  147.4513  136.1926  155.1263 N   0  0  0  0  0  0  0  0  0  0  0  0
  148.6800  135.6852  155.4238 C   0  0  0  0  0  0  0  0  0  0  0  0
  149.0596  134.3092  155.3999 C   0  0  0  0  0  0  0  0  0  0  0  0
  150.3997  134.2039  155.7664 N   0  0  0  0  0  0  0  0  0  0  0  0
  150.7833  135.4300  155.9880 C   0  0  0  0  0  0  0  0  0  0  0  0
  149.8133  136.3842  155.8016 N   0  0  0  0  0  0  0  0  0  0  0  0
  149.9697  137.8181  155.9757 C   0  0  0  0  0  0  0  0  0  0  0  0
  151.2850  138.3644  155.3666 C   0  0  1  0  0  0  0  0  0  0  0  0
  151.3296  138.2276  153.8248 C   0  0  0  0  0  0  0  0  0  0  0  0
  150.0728  138.5091  153.2445 O   0  0  0  0  0  0  0  0  0  0  0  0
  151.5761  139.8130  155.8352 C   0  0  1  0  0  0  0  0  0  0  0  0
  150.5730  140.8509  155.3629 C   0  0  0  0  0  0  0  0  0  0  0  0
  150.8337  142.0062  156.3221 C   0  0  0  0  0  0  0  0  0  0  0  0
  151.1947  141.3996  157.5571 O   0  0  0  0  0  0  0  0  0  0  0  0
  151.5025  140.0236  157.3520 C   0  0  0  0  0  0  0  0  0  0  0  0
  145.6630  130.0459  153.0038 N   0  3  2  0  0  0  0  0  0  0  0  0
  146.5362  128.8533  153.1315 C   0  0  0  0  0  0  0  0  0  0  0  0
  145.3235  130.3510  151.5937 C   0  0  0  0  0  0  0  0  0  0  0  0
  146.7754  131.4243  150.3390 H   0  0  0  0  0  0  0  0  0  0  0  0
  145.3276  131.9209  153.7933 H   0  0  0  0  0  0  0  0  0  0  0  0
  143.9567  133.4653  149.4993 H   0  0  0  0  0  0  0  0  0  0  0  0
  144.0373  131.7046  149.5220 H   0  0  0  0  0  0  0  0  0  0  0  0
  145.3722  132.6488  148.8402 H   0  0  0  0  0  0  0  0  0  0  0  0
  147.9458  131.5212  152.3272 H   0  0  0  0  0  0  0  0  0  0  0  0
  147.0795  133.0366  152.5537 H   0  0  0  0  0  0  0  0  0  0  0  0
  146.4039  131.2688  155.7617 H   0  0  0  0  0  0  0  0  0  0  0  0
  147.3801  130.1027  154.9502 H   0  0  0  0  0  0  0  0  0  0  0  0
  150.2125  131.7107  155.4111 H   0  0  0  0  0  0  0  0  0  0  0  0
  149.8664  131.8548  153.6801 H   0  0  0  0  0  0  0  0  0  0  0  0
  149.4569  130.3780  154.5463 H   0  0  0  0  0  0  0  0  0  0  0  0
  145.6015  135.5486  154.5351 H   0  0  0  0  0  0  0  0  0  0  0  0
  151.7910  135.6756  156.2912 H   0  0  0  0  0  0  0  0  0  0  0  0
  149.1089  138.3223  155.5349 H   0  0  0  0  0  0  0  0  0  0  0  0
  149.9284  138.0224  157.0455 H   0  0  0  0  0  0  0  0  0  0  0  0
  152.0915  137.7380  155.7508 H   0  0  0  0  0  0  0  0  0  0  0  0
  152.0693  138.9034  153.3960 H   0  0  0  0  0  0  0  0  0  0  0  0
  151.6354  137.2243  153.5280 H   0  0  0  0  0  0  0  0  0  0  0  0
  149.9117  137.8818  152.5562 H   0  0  0  0  0  0  0  0  0  0  0  0
  152.5664  140.1167  155.4911 H   0  0  0  0  0  0  0  0  0  0  0  0
  150.7084  141.1396  154.3202 H   0  0  0  0  0  0  0  0  0  0  0  0
  149.5533  140.4835  155.4879 H   0  0  0  0  0  0  0  0  0  0  0  0
  151.6727  142.6090  155.9719 H   0  0  0  0  0  0  0  0  0  0  0  0
  149.9689  142.6606  156.4347 H   0  0  0  0  0  0  0  0  0  0  0  0
  150.6989  139.4286  157.7881 H   0  0  0  0  0  0  0  0  0  0  0  0
  152.4316  139.7527  157.8540 H   0  0  0  0  0  0  0  0  0  0  0  0
  147.5114  129.0245  152.6742 H   0  0  0  0  0  0  0  0  0  0  0  0
  146.0782  127.9937  152.6410 H   0  0  0  0  0  0  0  0  0  0  0  0
  146.6848  128.5782  154.1755 H   0  0  0  0  0  0  0  0  0  0  0  0
  144.2504  130.5377  151.5408 H   0  0  0  0  0  0  0  0  0  0  0  0
  145.5326  129.5140  150.9258 H   0  0  0  0  0  0  0  0  0  0  0  0
  144.8071  129.8239  153.4928 H   0  0  0  0  0  0  0  0  0  0  0  0
  1  2  1  0  0  0  0
  1 32  1  0  0  0  0
  1 33  1  0  0  0  0
  1 34  1  0  0  0  0
  2  3  1  0  0  0  0
  3 30  1  0  0  0  0
  3 29  1  0  0  0  0
  3  4  1  0  0  0  0
  4  5  1  0  0  0  0
  4 35  1  0  0  0  0
  4 36  1  0  0  0  0
  5 31  1  0  0  0  0
  5  6  1  0  0  0  0
  5 27  1  0  0  0  0
  6  7  1  0  0  0  0
  6 37  1  0  0  0  0
  6 38  1  0  0  0  0
  7  8  1  0  0  0  0
  7  9  1  0  0  0  0
  8 39  1  0  0  0  0
  8 40  1  0  0  0  0
  8 41  1  0  0  0  0
  9 14  1  0  0  0  0
  9 10  2  0  0  0  0
 10 11  1  0  0  0  0
 11 12  2  0  0  0  0
 11 42  1  0  0  0  0
 12 13  1  0  0  0  0
 13 17  1  0  0  0  0
 13 14  2  0  0  0  0
 14 15  1  0  0  0  0
 15 16  2  0  0  0  0
 16 17  1  0  0  0  0
 16 43  1  0  0  0  0
 17 18  1  0  0  0  0
 18 19  1  0  0  0  0
 18 44  1  0  0  0  0
 18 45  1  0  0  0  0
 19 20  1  0  0  0  0
 19 22  1  0  0  0  0
 19 46  1  0  0  0  0
 20 21  1  0  0  0  0
 20 47  1  0  0  0  0
 20 48  1  0  0  0  0
 21 49  1  0  0  0  0
 22 26  1  0  0  0  0
 22 23  1  0  0  0  0
 22 50  1  0  0  0  0
 23 24  1  0  0  0  0
 23 51  1  0  0  0  0
 23 52  1  0  0  0  0
 24 25  1  0  0  0  0
 24 53  1  0  0  0  0
 24 54  1  0  0  0  0
 25 26  1  0  0  0  0
 26 55  1  0  0  0  0
 26 56  1  0  0  0  0
 27 28  1  0  0  0  0
 27 29  1  0  0  0  0
 27 62  1  0  0  0  0
 28 57  1  0  0  0  0
 28 58  1  0  0  0  0
 28 59  1  0  0  0  0
 29 60  1  0  0  0  0
 29 61  1  0  0  0  0
M  CHG  1  27   1
M  END
> <s_m_source_file>
AV-unprocessed.smi

> <i_m_source_file_index>
21

> <i_lp_mmshare_version>
43012

> <i_f3d_flags>
0

> <s_epik_input>
W0NIM11PW0NASF0xW0NIMl1bQ0BIXShOKFtDSDNdKVtDSDJdMSlbQ0gyXU4oW0NIM10pYyhuW2NIXW4yKWMoYzIzKW5bY0hdbjNbQ0gyXVtDQEhdKFtDSDJdW09IXSlbQ0BASF00W0NIMl1bQ0gyXU9bQ0gyXTQ=

> <s_epik_cmdline>
J2VwaWtfcHl0aG9uJywgJy1waCcsICc3LjAnLCAnLXRuJywgJzgnLCAnLW1hJywgJzIwMCcsICctbWV0YWxfYmluZGluZycsICctaW1hZScsICc8aW5maWxlLm1hZT4nLCAnLW9tYWUnLCAnPG91dGZpbGUubWFlPic=

> <r_lp_tautomer_probability>
1

> <r_epik_Ionization_Penalty>
0.0157465

> <r_epik_Ionization_Penalty_Charging>
0.015354

> <r_epik_Ionization_Penalty_Neutral>
0.000392529

> <r_epik_State_Penalty>
0.0120612

> <r_epik_Charging_Adjusted_Penalty>
0.0274152

> <i_epik_Tot_Q>
1

> <i_epik_Tot_abs_Q>
1

> <r_epik_Metal_State_Penalty>
0.0121253

> <b_epik_Metal_Only>
0

> <s_lp_Force_Field>
OPLS_2005

> <r_lp_Energy>
62.2742

> <b_lp_Chiralities_Consistent>
1

> <s_lp_Variant>
AV-unprocessed.smi:21-15

> <Gold.Version>
5.8.1

> <Gold.Id.Protein>
6NUR|6NUR_protein|mol2

> <Gold.PLP.Fitness>
46.2007

> <Gold.PLP.PLP>
-39.9587

> <Gold.PLP.part.hbond>
-3.0000

> <Gold.PLP.part.metal>
0.0000

> <Gold.PLP.part.buried>
-7.5997

> <Gold.PLP.part.nonpolar>
-31.8218

> <Gold.PLP.part.repulsive>
0.2881

> <Gold.PLP.ligand.clash>
0.0000

> <Gold.PLP.ligand.torsion>
1.5934

> <Gold.PLP.Chemscore.Hbond>
3.0000

> <Gold.PLP.Chemscore.CHOScore>
0.0000

> <Gold.PLP.Chemscore.Metal>
0.0000

> <Gold.Chemscore.Hbonds>
donor molecule, donor type, donor heavy atom, donor atom, acceptor molecule, acceptor atom, score
      L1  H    21    49       P1  7948  0.90
      L1  H    27    62       P1 10956  1.50

> <Gold.PLP.Chemscore.Internal.Correction>
0.4288

> <Gold.Rescore>
     Score         DG    S(hbond)    S(metal)    S(lipo)     H(rot)  DE(clash)    DE(int)     intcor
     12.91     -15.78       1.91        0.00     100.73       3.08       0.03       2.84       ----

> <Gold.Chemscore.Fitness>
12.9099

> <Gold.Chemscore.DG>
-15.7755

> <Gold.Chemscore.ZeroCoef>
-5.4800

> <Gold.Chemscore.Hbond>
1.9116

> <Gold.Chemscore.Metal>
0.0000

> <Gold.Chemscore.Lipo>
100.7256

> <Gold.Chemscore.Internal_Hbond>
0.0000

> <Gold.Chemscore.DEClash>
0.0298

> <Gold.Chemscore.DEInternal>
2.8358

> <Gold.Chemscore.Rot>
3.0758

> <Gold.Chemscore.Internal.Correction>
   9.000000E+99

> <Gold.Chemscore.Hbonds>
donor molecule, donor type, donor heavy atom, donor atom, acceptor molecule, acceptor atom, score
      L1  H    21    49       P1  7948  0.17
      L1  H    27    62       P1 10956  0.09

> <Gold.Chemscore.Hbond.Weighted>
-6.3848

> <Gold.Chemscore.Metal.Weighted>
-0.0000

> <Gold.Chemscore.Lipo.Weighted>
-11.7849

> <Gold.Chemscore.Internal_Hbond.Weighted>
0.0000

> <Gold.Chemscore.DEClash.Weighted>
0.0298

> <Gold.Chemscore.DEInternal.Weighted>
2.8358

> <Gold.Chemscore.Rot.Weighted>
7.8741

> <Gold.Chemscore.Internal.Correction.Weighted>
   9.000000E+99

> <Gold.Protein.RotatedTorsions>
[ 6907 6896 6895 6894 ] final -144.05 input  -60.11 | X-H torsion
[ 7974 7965 7964 7962 ] final -134.63 input  175.53 | X-H torsion
[ 8008 7997 7996 7995 ] final   70.21 input   59.86 | X-H torsion
[ 10167 10162 10161 10158 ] final -157.17 input  -65.29 | X-H torsion
[ 10718 10713 10712 10709 ] final  -91.03 input   66.30 | X-H torsion
[ 10763 10752 10751 10750 ] final   48.72 input  -60.55 | X-H torsion
[ 11005 11000 10999 10996 ] final    8.04 input  -57.11 | X-H torsion

> <Gold.Protein.ActiveResidues>
 VAL166  LYS551  ARG553  GLY616  TRP617  ASP618  TYR619  PRO620  LYS621  CYS622 
 ASP623  PHE694  ASN695  SER759  ASP760  ASP761  ALA762  ILE779  LEU786  VAL792 
 PHE793  MET794  SER795  GLU796  ALA797  LYS798  CYS799  TRP800  GLU811  SER814 

> <Gold.Protein.RotatedAtoms>
  151.1088  133.5188  159.2606 H   0  0  0  0  0  0  0  0  0  0  0  0  # atno 6907 bound_to 6896
  151.1991  135.0434  159.8874 H   0  0  0  0  0  0  0  0  0  0  0  0  # atno 6908 bound_to 6896
  152.5448  134.0918  159.8334 H   0  0  0  0  0  0  0  0  0  0  0  0  # atno 6909 bound_to 6896
  144.9085  140.6864  143.5040 H   0  0  0  0  0  0  0  0  0  0  0  0  # atno 7974 bound_to 7965
  155.7353  140.3491  155.5078 H   0  0  0  0  0  0  0  0  0  0  0  0  # atno 8008 bound_to 7997
  155.9145  140.1056  157.1276 H   0  0  0  0  0  0  0  0  0  0  0  0  # atno 8009 bound_to 7997
  154.4060  140.1261  156.4586 H   0  0  0  0  0  0  0  0  0  0  0  0  # atno 8010 bound_to 7997
  139.6791  143.9612  152.2327 H   0  0  0  0  0  0  0  0  0  0  0  0  # atno 10167 bound_to 10162
  155.9991  130.4932  150.5413 H   0  0  0  0  0  0  0  0  0  0  0  0  # atno 10718 bound_to 10713
  152.9790  135.5935  154.3972 H   0  0  0  0  0  0  0  0  0  0  0  0  # atno 10763 bound_to 10752
  154.3621  135.2767  155.2316 H   0  0  0  0  0  0  0  0  0  0  0  0  # atno 10764 bound_to 10752
  154.4309  135.6036  153.6123 H   0  0  0  0  0  0  0  0  0  0  0  0  # atno 10765 bound_to 10752
  140.5414  134.0371  155.7905 H   0  0  0  0  0  0  0  0  0  0  0  0  # atno 11005 bound_to 11000
  145.3494  139.1710  143.4443 LP  0  0  0  0  0  0  0  0  0  0  0  0  # atno 17320 bound_to 7965
  146.3146  140.3544  142.8659 LP  0  0  0  0  0  0  0  0  0  0  0  0  # atno 17321 bound_to 7965
  139.9397  144.6689  150.8279 LP  0  0  0  0  0  0  0  0  0  0  0  0  # atno 17342 bound_to 10162
  140.7646  143.3253  151.2530 LP  0  0  0  0  0  0  0  0  0  0  0  0  # atno 17343 bound_to 10162
  157.3349  131.0706  151.1833 LP  0  0  0  0  0  0  0  0  0  0  0  0  # atno 17370 bound_to 10713
  157.2701  130.6700  149.6015 LP  0  0  0  0  0  0  0  0  0  0  0  0  # atno 17371 bound_to 10713
  141.1225  133.9438  157.2702 LP  0  0  0  0  0  0  0  0  0  0  0  0  # atno 17394 bound_to 11000
  139.9502  135.0177  156.8971 LP  0  0  0  0  0  0  0  0  0  0  0  0  # atno 17395 bound_to 11000

$$$$
