AV-unprocessed.smi:1240|AV-procd|sdf|5209|dock1
  -GOLD-   22720 4303D 1   1.00000     0.00000
 Structure written by MMmdl.
 49 51  0  0  0  0  0  0  0  0  3 V2000
  144.5793  135.9286  153.3675 O   0  0  0  0  0  0  0  0  0  0  0  0
  145.7141  136.0509  152.9078 C   0  0  0  0  0  0  0  0  0  0  0  0
  146.5316  137.0623  153.2295 N   0  0  0  0  0  0  0  0  0  0  0  0
  146.1674  138.1554  154.1264 C   0  0  0  0  0  0  0  0  0  0  0  0
  147.0563  139.4063  153.9062 C   0  0  2  0  0  0  0  0  0  0  0  0
  148.4139  139.2855  154.6750 C   0  0  1  0  0  0  0  0  0  0  0  0
  149.2915  138.1239  154.2202 C   0  0  0  0  0  0  0  0  0  0  0  0
  150.6766  138.5541  154.6727 C   0  0  0  0  0  0  0  0  0  0  0  0
  150.7005  139.9309  154.3451 O   0  0  0  0  0  0  0  0  0  0  0  0
  149.3899  140.4678  154.4899 C   0  0  0  0  0  0  0  0  0  0  0  0
  146.2330  140.6241  154.2191 N   0  3  0  0  0  0  0  0  0  0  0  0
  145.7880  140.8283  155.6227 C   0  0  0  0  0  0  0  0  0  0  0  0
  144.8620  142.0531  155.7233 C   0  0  0  0  0  0  0  0  0  0  0  0
  145.5321  143.2051  155.2312 O   0  0  0  0  0  0  0  0  0  0  0  0
  145.8902  143.0631  153.8636 C   0  0  0  0  0  0  0  0  0  0  0  0
  146.8525  141.8745  153.7067 C   0  0  0  0  0  0  0  0  0  0  0  0
  146.2998  135.1986  152.0489 N   0  0  0  0  0  0  0  0  0  0  0  0
  145.7489  134.0285  151.4586 C   0  0  0  0  0  0  0  0  0  0  0  0
  144.4366  133.6609  151.8301 C   0  0  0  0  0  0  0  0  0  0  0  0
  143.8579  132.4986  151.2804 C   0  0  0  0  0  0  0  0  0  0  0  0
  144.5644  131.7409  150.4142 N   0  3  0  0  0  0  0  0  0  0  0  0
  145.8268  132.0426  150.0419 C   0  0  0  0  0  0  0  0  0  0  0  0
  146.4576  133.1930  150.5581 C   0  0  0  0  0  0  0  0  0  0  0  0
  147.4472  137.0960  152.8058 H   0  0  0  0  0  0  0  0  0  0  0  0
  145.1127  138.3969  153.9900 H   0  0  0  0  0  0  0  0  0  0  0  0
  146.2468  137.8043  155.1553 H   0  0  0  0  0  0  0  0  0  0  0  0
  147.3069  139.4386  152.8444 H   0  0  0  0  0  0  0  0  0  0  0  0
  148.2299  139.1382  155.7402 H   0  0  0  0  0  0  0  0  0  0  0  0
  148.9951  137.1664  154.6499 H   0  0  0  0  0  0  0  0  0  0  0  0
  149.2765  138.0312  153.1332 H   0  0  0  0  0  0  0  0  0  0  0  0
  150.7906  138.4318  155.7509 H   0  0  0  0  0  0  0  0  0  0  0  0
  151.4765  138.0064  154.1739 H   0  0  0  0  0  0  0  0  0  0  0  0
  149.1583  141.0549  153.6008 H   0  0  0  0  0  0  0  0  0  0  0  0
  149.3726  141.1385  155.3487 H   0  0  0  0  0  0  0  0  0  0  0  0
  145.2371  139.9625  155.9871 H   0  0  0  0  0  0  0  0  0  0  0  0
  146.6532  140.9770  156.2693 H   0  0  0  0  0  0  0  0  0  0  0  0
  143.9371  141.8900  155.1676 H   0  0  0  0  0  0  0  0  0  0  0  0
  144.5819  142.2268  156.7623 H   0  0  0  0  0  0  0  0  0  0  0  0
  144.9974  142.9276  153.2505 H   0  0  0  0  0  0  0  0  0  0  0  0
  146.3710  143.9822  153.5282 H   0  0  0  0  0  0  0  0  0  0  0  0
  147.7771  142.0723  154.2517 H   0  0  0  0  0  0  0  0  0  0  0  0
  147.1229  141.7712  152.6565 H   0  0  0  0  0  0  0  0  0  0  0  0
  147.2691  135.3784  151.8323 H   0  0  0  0  0  0  0  0  0  0  0  0
  143.8711  134.2653  152.5248 H   0  0  0  0  0  0  0  0  0  0  0  0
  142.8595  132.1541  151.5072 H   0  0  0  0  0  0  0  0  0  0  0  0
  146.2943  131.3561  149.3511 H   0  0  0  0  0  0  0  0  0  0  0  0
  147.4742  133.4043  150.2633 H   0  0  0  0  0  0  0  0  0  0  0  0
  145.3788  140.5006  153.6949 H   0  0  0  0  0  0  0  0  0  0  0  0
  144.1280  130.9030  150.0286 H   0  0  0  0  0  0  0  0  0  0  0  0
  1  2  2  0  0  0  0
  2  3  1  0  0  0  0
  2 17  1  0  0  0  0
  3  4  1  0  0  0  0
  3 24  1  0  0  0  0
  4  5  1  0  0  0  0
  4 25  1  0  0  0  0
  4 26  1  0  0  0  0
  5  6  1  0  0  0  0
  5 11  1  0  0  0  0
  5 27  1  0  0  0  0
  6 10  1  0  0  0  0
  6  7  1  0  0  0  0
  6 28  1  0  0  0  0
  7  8  1  0  0  0  0
  7 29  1  0  0  0  0
  7 30  1  0  0  0  0
  8  9  1  0  0  0  0
  8 31  1  0  0  0  0
  8 32  1  0  0  0  0
  9 10  1  0  0  0  0
 10 33  1  0  0  0  0
 10 34  1  0  0  0  0
 11 16  1  0  0  0  0
 11 12  1  0  0  0  0
 11 48  1  0  0  0  0
 12 13  1  0  0  0  0
 12 35  1  0  0  0  0
 12 36  1  0  0  0  0
 13 14  1  0  0  0  0
 13 37  1  0  0  0  0
 13 38  1  0  0  0  0
 14 15  1  0  0  0  0
 15 16  1  0  0  0  0
 15 39  1  0  0  0  0
 15 40  1  0  0  0  0
 16 41  1  0  0  0  0
 16 42  1  0  0  0  0
 17 18  1  0  0  0  0
 17 43  1  0  0  0  0
 18 23  1  0  0  0  0
 18 19  2  0  0  0  0
 19 20  1  0  0  0  0
 19 44  1  0  0  0  0
 20 21  2  0  0  0  0
 20 45  1  0  0  0  0
 21 22  1  0  0  0  0
 21 49  1  0  0  0  0
 22 23  2  0  0  0  0
 22 46  1  0  0  0  0
 23 47  1  0  0  0  0
M  CHG  1  11   1
M  CHG  1  21   1
M  END
> <s_m_source_file>
AV-unprocessed.smi

> <i_m_source_file_index>
1240

> <i_lp_mmshare_version>
43012

> <i_f3d_flags>
0

> <s_epik_input>
W2NIXTFbY0hdbltjSF1bY0hdYzFbTkhdQyg9TylbTkhdW0NIMl1bQ0BIXShbQ0BASF0yW0NIMl1bQ0gyXU9bQ0gyXTIpTjNbQ0gyXVtDSDJdT1tDSDJdW0NIMl0z

> <s_epik_cmdline>
J2VwaWtfcHl0aG9uJywgJy1waCcsICc3LjAnLCAnLXRuJywgJzgnLCAnLW1hJywgJzIwMCcsICctbWV0YWxfYmluZGluZycsICctaW1hZScsICc8aW5maWxlLm1hZT4nLCAnLW9tYWUnLCAnPG91dGZpbGUubWFlPic=

> <r_epik_Ionization_Penalty>
2.08105

> <r_epik_Ionization_Penalty_Charging>
2.08103

> <r_epik_Ionization_Penalty_Neutral>
2.04144e-05

> <r_epik_State_Penalty>
2.15598

> <r_epik_Charging_Adjusted_Penalty>
4.23701

> <i_epik_Tot_Q>
2

> <i_epik_Tot_abs_Q>
2

> <r_epik_Metal_State_Penalty>
2.25158

> <b_epik_Metal_Only>
0

> <s_lp_Force_Field>
OPLS_2005

> <r_lp_Energy>
62.0114

> <b_lp_Chiralities_Consistent>
1

> <s_lp_Variant>
AV-unprocessed.smi:1240-15

> <Gold.Version>
5.8.1

> <Gold.Id.Protein>
6NUR|6NUR_protein|mol2

> <Gold.PLP.Fitness>
51.3568

> <Gold.PLP.PLP>
-37.4908

> <Gold.PLP.part.hbond>
-4.0000

> <Gold.PLP.part.metal>
0.0000

> <Gold.PLP.part.buried>
-7.2880

> <Gold.PLP.part.nonpolar>
-26.7844

> <Gold.PLP.part.repulsive>
0.5272

> <Gold.PLP.ligand.clash>
0.2393

> <Gold.PLP.ligand.torsion>
0.5668

> <Gold.PLP.Chemscore.Hbond>
4.9760

> <Gold.PLP.Chemscore.CHOScore>
0.0000

> <Gold.PLP.Chemscore.Metal>
0.0000

> <Gold.Chemscore.Hbonds>
donor molecule, donor type, donor heavy atom, donor atom, acceptor molecule, acceptor atom, score
      L1  H     3    24       P1  7948  1.00
      L1  H    11    48       P1 10175  1.72
      L1  H    17    43       P1  7948  1.00
      P1  H  7989  7998       L1     9  1.00

> <Gold.PLP.Chemscore.Internal.Correction>
0.3109

> <Gold.Rescore>
     Score         DG    S(hbond)    S(metal)    S(lipo)     H(rot)  DE(clash)    DE(int)     intcor
     21.81     -24.49       3.86        0.00      90.35       1.74       0.50       2.17       ----

> <Gold.Chemscore.Fitness>
21.8122

> <Gold.Chemscore.DG>
-24.4885

> <Gold.Chemscore.ZeroCoef>
-5.4800

> <Gold.Chemscore.Hbond>
3.8614

> <Gold.Chemscore.Metal>
0.0000

> <Gold.Chemscore.Lipo>
90.3514

> <Gold.Chemscore.Internal_Hbond>
0.0000

> <Gold.Chemscore.DEClash>
0.5024

> <Gold.Chemscore.DEInternal>
2.1739

> <Gold.Chemscore.Rot>
1.7421

> <Gold.Chemscore.Internal.Correction>
   9.000000E+99

> <Gold.Chemscore.Hbonds>
donor molecule, donor type, donor heavy atom, donor atom, acceptor molecule, acceptor atom, score
      L1  H     3    24       P1  7948  0.94
      L1  H    11    48       P1 10175  0.83
      L1  H    17    43       P1  7948  0.99
      P1  H  7989  7998       L1     9  0.79

> <Gold.Chemscore.Hbond.Weighted>
-12.8971

> <Gold.Chemscore.Metal.Weighted>
-0.0000

> <Gold.Chemscore.Lipo.Weighted>
-10.5711

> <Gold.Chemscore.Internal_Hbond.Weighted>
0.0000

> <Gold.Chemscore.DEClash.Weighted>
0.5024

> <Gold.Chemscore.DEInternal.Weighted>
2.1739

> <Gold.Chemscore.Rot.Weighted>
4.4597

> <Gold.Chemscore.Internal.Correction.Weighted>
   9.000000E+99

> <Gold.Protein.RotatedTorsions>
[ 6907 6896 6895 6894 ] final -143.39 input  -60.11 | X-H torsion
[ 7974 7965 7964 7962 ] final   36.58 input  175.53 | X-H torsion
[ 8008 7997 7996 7995 ] final  -90.80 input   59.86 | X-H torsion
[ 10167 10162 10161 10158 ] final -158.04 input  -65.29 | X-H torsion
[ 10718 10713 10712 10709 ] final   30.65 input   66.30 | X-H torsion
[ 10763 10752 10751 10750 ] final  -96.67 input  -60.55 | X-H torsion
[ 11005 11000 10999 10996 ] final   10.43 input  -57.11 | X-H torsion

> <Gold.Protein.ActiveResidues>
 VAL166  LYS551  ARG553  GLY616  TRP617  ASP618  TYR619  PRO620  LYS621  CYS622 
 ASP623  PHE694  ASN695  SER759  ASP760  ASP761  ALA762  ILE779  LEU786  VAL792 
 PHE793  MET794  SER795  GLU796  ALA797  LYS798  CYS799  TRP800  GLU811  SER814 

> <Gold.Protein.RotatedAtoms>
  151.0998  133.5252  159.2610 H   0  0  0  0  0  0  0  0  0  0  0  0  # atno 6907 bound_to 6896
  151.2087  135.0472  159.8912 H   0  0  0  0  0  0  0  0  0  0  0  0  # atno 6908 bound_to 6896
  152.5442  134.0817  159.8292 H   0  0  0  0  0  0  0  0  0  0  0  0  # atno 6909 bound_to 6896
  146.1200  139.6000  142.9296 H   0  0  0  0  0  0  0  0  0  0  0  0  # atno 7974 bound_to 7965
  154.7030  140.0526  157.0476 H   0  0  0  0  0  0  0  0  0  0  0  0  # atno 8008 bound_to 7997
  155.0659  140.3194  155.4627 H   0  0  0  0  0  0  0  0  0  0  0  0  # atno 8009 bound_to 7997
  156.2766  140.2090  156.5786 H   0  0  0  0  0  0  0  0  0  0  0  0  # atno 8010 bound_to 7997
  139.6723  143.9724  152.2290 H   0  0  0  0  0  0  0  0  0  0  0  0  # atno 10167 bound_to 10162
  157.2624  130.7167  149.6461 H   0  0  0  0  0  0  0  0  0  0  0  0  # atno 10718 bound_to 10713
  154.7260  135.5075  153.8888 H   0  0  0  0  0  0  0  0  0  0  0  0  # atno 10763 bound_to 10752
  153.0906  135.6658  153.9871 H   0  0  0  0  0  0  0  0  0  0  0  0  # atno 10764 bound_to 10752
  153.9683  135.3041  155.3408 H   0  0  0  0  0  0  0  0  0  0  0  0  # atno 10765 bound_to 10752
  140.5146  134.0619  155.7827 H   0  0  0  0  0  0  0  0  0  0  0  0  # atno 11005 bound_to 11000
  145.5485  141.0415  143.2291 LP  0  0  0  0  0  0  0  0  0  0  0  0  # atno 17320 bound_to 7965
  144.7589  139.7006  143.7243 LP  0  0  0  0  0  0  0  0  0  0  0  0  # atno 17321 bound_to 7965
  139.9491  144.6632  150.8189 LP  0  0  0  0  0  0  0  0  0  0  0  0  # atno 17342 bound_to 10162
  140.7622  143.3194  151.2658 LP  0  0  0  0  0  0  0  0  0  0  0  0  # atno 17343 bound_to 10162
  155.9664  130.4393  150.5254 LP  0  0  0  0  0  0  0  0  0  0  0  0  # atno 17370 bound_to 10713
  157.3161  131.0673  151.1966 LP  0  0  0  0  0  0  0  0  0  0  0  0  # atno 17371 bound_to 10713
  141.1367  133.9209  157.2417 LP  0  0  0  0  0  0  0  0  0  0  0  0  # atno 17394 bound_to 11000
  139.9640  135.0147  156.9337 LP  0  0  0  0  0  0  0  0  0  0  0  0  # atno 17395 bound_to 11000

$$$$
