AV-unprocessed.smi:2457|AV-procd|sdf|9706|dock6
  -GOLD-   2272013343D 1   1.00000     0.00000
 Structure written by MMmdl.
 40 41  0  0  0  0  0  0  0  0  1 V2000
  145.8627  136.1641  152.8320 C   0  0  0  0  0  0  0  0  0  0  0  0
  146.2383  137.5845  152.5499 C   0  0  0  0  0  0  0  0  0  0  0  0
  146.3084  138.1924  151.3214 C   0  0  0  0  0  0  0  0  0  0  0  0
  146.7907  139.8615  151.4495 S   0  0  0  0  0  0  0  0  0  0  0  0
  146.8837  139.6692  153.1972 C   0  0  0  0  0  0  0  0  0  0  0  0
  147.2581  140.7853  154.1249 C   0  0  2  0  0  0  0  0  0  0  0  0
  146.1430  141.8329  154.2508 C   0  0  0  0  0  0  0  0  0  0  0  0
  148.6355  141.4079  153.8030 C   0  0  0  0  0  0  0  0  0  0  0  0
  149.2122  142.1318  154.9330 N   0  0  0  0  0  0  0  0  0  0  0  0
  150.3128  141.7614  155.6009 C   0  0  0  0  0  0  0  0  0  0  0  0
  150.9498  140.7350  155.3646 O   0  0  0  0  0  0  0  0  0  0  0  0
  150.6486  142.6562  156.5401 N   0  0  0  0  0  0  0  0  0  0  0  0
  151.8272  142.5726  157.3973 C   0  0  1  0  0  0  0  0  0  0  0  0
  151.9274  143.8308  158.2850 C   0  0  0  0  0  0  0  0  0  0  0  0
  153.1830  143.8284  159.1717 C   0  0  0  0  0  0  0  0  0  0  0  0
  153.2130  142.6370  160.1393 C   0  0  0  0  0  0  0  0  0  0  0  0
  153.2496  141.0622  159.2408 S   0  0  0  0  0  0  0  0  0  0  0  0
  151.7552  141.2855  158.2364 C   0  0  0  0  0  0  0  0  0  0  0  0
  146.5628  138.4383  153.6076 N   0  0  0  0  0  0  0  0  0  0  0  0
  145.6739  135.6107  151.9118 H   0  0  0  0  0  0  0  0  0  0  0  0
  144.9601  136.1094  153.4409 H   0  0  0  0  0  0  0  0  0  0  0  0
  146.6573  135.6461  153.3699 H   0  0  0  0  0  0  0  0  0  0  0  0
  146.1075  137.7616  150.3518 H   0  0  0  0  0  0  0  0  0  0  0  0
  147.3464  140.3323  155.1130 H   0  0  0  0  0  0  0  0  0  0  0  0
  145.2091  141.3741  154.5768 H   0  0  0  0  0  0  0  0  0  0  0  0
  145.9563  142.3301  153.2985 H   0  0  0  0  0  0  0  0  0  0  0  0
  146.4062  142.5997  154.9797 H   0  0  0  0  0  0  0  0  0  0  0  0
  149.3377  140.6178  153.5354 H   0  0  0  0  0  0  0  0  0  0  0  0
  148.5661  142.0657  152.9350 H   0  0  0  0  0  0  0  0  0  0  0  0
  148.7590  142.9935  155.2001 H   0  0  0  0  0  0  0  0  0  0  0  0
  150.0598  143.4680  156.6555 H   0  0  0  0  0  0  0  0  0  0  0  0
  152.7157  142.5130  156.7654 H   0  0  0  0  0  0  0  0  0  0  0  0
  151.9440  144.7232  157.6580 H   0  0  0  0  0  0  0  0  0  0  0  0
  151.0378  143.9164  158.9105 H   0  0  0  0  0  0  0  0  0  0  0  0
  154.0767  143.8184  158.5465 H   0  0  0  0  0  0  0  0  0  0  0  0
  153.2205  144.7562  159.7432 H   0  0  0  0  0  0  0  0  0  0  0  0
  154.0932  142.6938  160.7800 H   0  0  0  0  0  0  0  0  0  0  0  0
  152.3399  142.6545  160.7924 H   0  0  0  0  0  0  0  0  0  0  0  0
  150.8863  141.3041  158.8954 H   0  0  0  0  0  0  0  0  0  0  0  0
  151.6470  140.4151  157.5884 H   0  0  0  0  0  0  0  0  0  0  0  0
  1  2  1  0  0  0  0
  1 20  1  0  0  0  0
  1 21  1  0  0  0  0
  1 22  1  0  0  0  0
  2 19  1  0  0  0  0
  2  3  2  0  0  0  0
  3  4  1  0  0  0  0
  3 23  1  0  0  0  0
  4  5  1  0  0  0  0
  5  6  1  0  0  0  0
  5 19  2  0  0  0  0
  6  7  1  0  0  0  0
  6  8  1  0  0  0  0
  6 24  1  0  0  0  0
  7 25  1  0  0  0  0
  7 26  1  0  0  0  0
  7 27  1  0  0  0  0
  8  9  1  0  0  0  0
  8 28  1  0  0  0  0
  8 29  1  0  0  0  0
  9 10  1  0  0  0  0
  9 30  1  0  0  0  0
 10 11  2  0  0  0  0
 10 12  1  0  0  0  0
 12 13  1  0  0  0  0
 12 31  1  0  0  0  0
 13 18  1  0  0  0  0
 13 14  1  0  0  0  0
 13 32  1  0  0  0  0
 14 15  1  0  0  0  0
 14 33  1  0  0  0  0
 14 34  1  0  0  0  0
 15 16  1  0  0  0  0
 15 35  1  0  0  0  0
 15 36  1  0  0  0  0
 16 17  1  0  0  0  0
 16 37  1  0  0  0  0
 16 38  1  0  0  0  0
 17 18  1  0  0  0  0
 18 39  1  0  0  0  0
 18 40  1  0  0  0  0
M  END
> <s_m_source_file>
AV-unprocessed.smi

> <i_m_source_file_index>
2457

> <i_lp_mmshare_version>
43012

> <i_f3d_flags>
0

> <s_epik_input>
W0NIM11jMVtjSF1zYyhuMSlbQ0BIXShbQ0gzXSlbQ0gyXVtOSF1DKD1PKVtOSF1bQ0BASF0yW0NIMl1bQ0gyXVtDSDJdU1tDSDJdMg==

> <s_epik_cmdline>
J2VwaWtfcHl0aG9uJywgJy1waCcsICc3LjAnLCAnLXRuJywgJzgnLCAnLW1hJywgJzIwMCcsICctbWV0YWxfYmluZGluZycsICctaW1hZScsICc8aW5maWxlLm1hZT4nLCAnLW9tYWUnLCAnPG91dGZpbGUubWFlPic=

> <r_epik_Ionization_Penalty>
0.00154805

> <r_epik_Ionization_Penalty_Charging>
0

> <r_epik_Ionization_Penalty_Neutral>
0.00154805

> <r_epik_State_Penalty>
0.00100357

> <r_epik_Charging_Adjusted_Penalty>
0.00100357

> <i_epik_Tot_Q>
0

> <i_epik_Tot_abs_Q>
0

> <r_epik_Metal_State_Penalty>
-0

> <b_epik_Metal_Only>
0

> <s_lp_Force_Field>
OPLS_2005

> <r_lp_Energy>
-7.39809

> <b_lp_Chiralities_Consistent>
1

> <s_lp_Variant>
AV-unprocessed.smi:2457-3

> <Gold.Version>
5.8.1

> <Gold.Id.Protein>
6NUR|6NUR_protein|mol2

> <Gold.PLP.Fitness>
46.0320

> <Gold.PLP.PLP>
-37.3881

> <Gold.PLP.part.hbond>
-3.0000

> <Gold.PLP.part.metal>
0.0000

> <Gold.PLP.part.buried>
2.8530

> <Gold.PLP.part.nonpolar>
-37.4896

> <Gold.PLP.part.repulsive>
0.5248

> <Gold.PLP.ligand.clash>
0.0000

> <Gold.PLP.ligand.torsion>
0.3240

> <Gold.PLP.Chemscore.Hbond>
2.5824

> <Gold.PLP.Chemscore.CHOScore>
0.4745

> <Gold.PLP.Chemscore.Metal>
0.0000

> <Gold.Chemscore.Hbonds>
donor molecule, donor type, donor heavy atom, donor atom, acceptor molecule, acceptor atom, score
      L1  H     9    30       P1  8028  0.99
      L1  H    12    31       P1  8028  0.86
      P1  H  7989  7998       L1    11  0.83
      L1  C     3    23       P1 10171  0.48

> <Gold.PLP.Chemscore.Internal.Correction>
0.1214

> <Gold.Rescore>
     Score         DG    S(hbond)    S(metal)    S(lipo)     H(rot)  DE(clash)    DE(int)     intcor
     21.40     -22.82       2.18        0.00     118.02       1.46       1.11       0.31       ----

> <Gold.Chemscore.Fitness>
21.4045

> <Gold.Chemscore.DG>
-22.8227

> <Gold.Chemscore.ZeroCoef>
-5.4800

> <Gold.Chemscore.Hbond>
2.1785

> <Gold.Chemscore.Metal>
0.0000

> <Gold.Chemscore.Lipo>
118.0181

> <Gold.Chemscore.Internal_Hbond>
0.0000

> <Gold.Chemscore.DEClash>
1.1065

> <Gold.Chemscore.DEInternal>
0.3116

> <Gold.Chemscore.Rot>
1.4616

> <Gold.Chemscore.Internal.Correction>
   9.000000E+99

> <Gold.Chemscore.Hbonds>
donor molecule, donor type, donor heavy atom, donor atom, acceptor molecule, acceptor atom, score
      L1  H     9    30       P1  8028  0.94
      L1  H    12    31       P1  8028  0.83
      P1  H  7989  7998       L1    11  0.49

> <Gold.Chemscore.Hbond.Weighted>
-7.2762

> <Gold.Chemscore.Metal.Weighted>
-0.0000

> <Gold.Chemscore.Lipo.Weighted>
-13.8081

> <Gold.Chemscore.Internal_Hbond.Weighted>
0.0000

> <Gold.Chemscore.DEClash.Weighted>
1.1065

> <Gold.Chemscore.DEInternal.Weighted>
0.3116

> <Gold.Chemscore.Rot.Weighted>
3.7416

> <Gold.Chemscore.Internal.Correction.Weighted>
   9.000000E+99

> <Gold.Protein.RotatedTorsions>
[ 6907 6896 6895 6894 ] final  115.33 input  -60.11 | X-H torsion
[ 7974 7965 7964 7962 ] final  -50.30 input  175.53 | X-H torsion
[ 8008 7997 7996 7995 ] final   25.86 input   59.86 | X-H torsion
[ 10167 10162 10161 10158 ] final  -44.37 input  -65.29 | X-H torsion
[ 10718 10713 10712 10709 ] final   70.15 input   66.30 | X-H torsion
[ 10763 10752 10751 10750 ] final  -94.96 input  -60.55 | X-H torsion
[ 11005 11000 10999 10996 ] final   28.65 input  -57.11 | X-H torsion

> <Gold.Protein.ActiveResidues>
 VAL166  LYS551  ARG553  GLY616  TRP617  ASP618  TYR619  PRO620  LYS621  CYS622 
 ASP623  PHE694  ASN695  SER759  ASP760  ASP761  ALA762  ILE779  LEU786  VAL792 
 PHE793  MET794  SER795  GLU796  ALA797  LYS798  CYS799  TRP800  GLU811  SER814 

> <Gold.Protein.RotatedAtoms>
  152.4748  133.8113  159.7004 H   0  0  0  0  0  0  0  0  0  0  0  0  # atno 6907 bound_to 6896
  150.8759  133.7430  159.2953 H   0  0  0  0  0  0  0  0  0  0  0  0  # atno 6908 bound_to 6896
  151.4950  135.1063  159.9866 H   0  0  0  0  0  0  0  0  0  0  0  0  # atno 6909 bound_to 6896
  145.9313  140.7746  142.9598 H   0  0  0  0  0  0  0  0  0  0  0  0  # atno 7974 bound_to 7965
  155.0182  140.3144  155.4803 H   0  0  0  0  0  0  0  0  0  0  0  0  # atno 8008 bound_to 7997
  156.2897  140.2202  156.5241 H   0  0  0  0  0  0  0  0  0  0  0  0  # atno 8009 bound_to 7997
  154.7475  140.0469  157.0852 H   0  0  0  0  0  0  0  0  0  0  0  0  # atno 8010 bound_to 7997
  140.6899  143.2933  151.3486 H   0  0  0  0  0  0  0  0  0  0  0  0  # atno 10167 bound_to 10162
  157.6385  130.9463  150.0612 H   0  0  0  0  0  0  0  0  0  0  0  0  # atno 10718 bound_to 10713
  154.7104  135.5138  153.8658 H   0  0  0  0  0  0  0  0  0  0  0  0  # atno 10763 bound_to 10752
  153.0776  135.6621  154.0122 H   0  0  0  0  0  0  0  0  0  0  0  0  # atno 10764 bound_to 10752
  153.9965  135.3015  155.3386 H   0  0  0  0  0  0  0  0  0  0  0  0  # atno 10765 bound_to 10752
  140.3133  134.2625  155.7730 H   0  0  0  0  0  0  0  0  0  0  0  0  # atno 11005 bound_to 11000
  144.6765  140.2132  143.7374 LP  0  0  0  0  0  0  0  0  0  0  0  0  # atno 17320 bound_to 7965
  145.8422  139.2135  143.1821 LP  0  0  0  0  0  0  0  0  0  0  0  0  # atno 17321 bound_to 7965
  139.6292  144.0754  152.2461 LP  0  0  0  0  0  0  0  0  0  0  0  0  # atno 17342 bound_to 10162
  140.0223  144.6143  150.7556 LP  0  0  0  0  0  0  0  0  0  0  0  0  # atno 17343 bound_to 10162
  156.1644  130.3644  149.9253 LP  0  0  0  0  0  0  0  0  0  0  0  0  # atno 17370 bound_to 10713
  156.7244  130.9019  151.3621 LP  0  0  0  0  0  0  0  0  0  0  0  0  # atno 17371 bound_to 10713
  141.2103  133.7723  156.9940 LP  0  0  0  0  0  0  0  0  0  0  0  0  # atno 17394 bound_to 11000
  140.1005  134.9538  157.1916 LP  0  0  0  0  0  0  0  0  0  0  0  0  # atno 17395 bound_to 11000

$$$$
