AV-unprocessed.smi:2557|AV-procd|sdf|10031|dock6
  -GOLD-   2272014 73D 1   1.00000     0.00000
 Structure written by MMmdl.
 39 41  0  0  0  0  0  0  0  0  3 V2000
  151.7541  137.3047  154.0661 O   0  5  0  0  0  0  0  0  0  0  0  0
  151.0852  137.5529  155.0967 C   0  0  0  0  0  0  0  0  0  0  0  0
  151.1017  138.6188  155.9989 C   0  0  0  0  0  0  0  0  0  0  0  0
  152.0255  139.7407  155.7921 C   0  0  0  0  0  0  0  0  0  0  0  0
  152.8249  139.8902  154.8696 O   0  0  0  0  0  0  0  0  0  0  0  0
  151.9725  140.7607  156.7917 N   0  0  0  0  0  0  0  0  0  0  0  0
  151.1335  140.6990  157.8443 C   0  0  0  0  0  0  0  0  0  0  0  0
  151.1667  141.8199  158.8434 C   0  0  0  0  0  0  0  0  0  0  0  0
  150.7244  143.1338  158.1718 C   0  0  0  0  0  0  0  0  0  0  0  0
  150.7924  144.3087  159.1612 C   0  0  0  0  0  0  0  0  0  0  0  0
  152.1976  144.4426  159.7723 C   0  0  0  0  0  0  0  0  0  0  0  0
  152.6484  143.1291  160.4333 C   0  0  0  0  0  0  0  0  0  0  0  0
  152.5804  141.9560  159.4422 C   0  0  0  0  0  0  0  0  0  0  0  0
  150.2805  139.6714  158.0229 N   0  3  0  0  0  0  0  0  0  0  0  0
  150.2329  138.6416  157.0888 N   0  0  0  0  0  0  0  0  0  0  0  0
  150.1648  136.4289  155.3477 C   0  0  0  0  0  0  0  0  0  0  0  0
  150.6582  135.1238  155.5631 C   0  0  0  0  0  0  0  0  0  0  0  0
  149.7381  134.0810  155.7876 C   0  0  0  0  0  0  0  0  0  0  0  0
  148.4005  134.2635  155.8094 N   0  0  0  0  0  0  0  0  0  0  0  0
  147.9322  135.5118  155.5958 C   0  0  0  0  0  0  0  0  0  0  0  0
  148.7664  136.6221  155.3597 C   0  0  0  0  0  0  0  0  0  0  0  0
  150.4696  141.5915  159.6520 H   0  0  0  0  0  0  0  0  0  0  0  0
  151.3609  143.3498  157.3134 H   0  0  0  0  0  0  0  0  0  0  0  0
  149.7102  143.0282  157.7862 H   0  0  0  0  0  0  0  0  0  0  0  0
  150.5155  145.2357  158.6583 H   0  0  0  0  0  0  0  0  0  0  0  0
  150.0616  144.1590  159.9570 H   0  0  0  0  0  0  0  0  0  0  0  0
  152.9088  144.7225  158.9939 H   0  0  0  0  0  0  0  0  0  0  0  0
  152.2089  145.2501  160.5048 H   0  0  0  0  0  0  0  0  0  0  0  0
  153.6640  143.2343  160.8161 H   0  0  0  0  0  0  0  0  0  0  0  0
  152.0140  142.9171  161.2949 H   0  0  0  0  0  0  0  0  0  0  0  0
  152.8613  141.0283  159.9413 H   0  0  0  0  0  0  0  0  0  0  0  0
  153.3130  142.1158  158.6505 H   0  0  0  0  0  0  0  0  0  0  0  0
  149.6649  139.6503  158.8239 H   0  0  0  0  0  0  0  0  0  0  0  0
  149.6283  137.8724  157.3415 H   0  0  0  0  0  0  0  0  0  0  0  0
  151.7201  134.9276  155.5530 H   0  0  0  0  0  0  0  0  0  0  0  0
  150.0862  133.0729  155.9558 H   0  0  0  0  0  0  0  0  0  0  0  0
  146.8590  135.6303  155.6149 H   0  0  0  0  0  0  0  0  0  0  0  0
  148.3434  137.6019  155.1930 H   0  0  0  0  0  0  0  0  0  0  0  0
  152.5640  141.5779  156.7581 H   0  0  0  0  0  0  0  0  0  0  0  0
  1  2  1  0  0  0  0
  2  3  2  0  0  0  0
  2 16  1  0  0  0  0
  3 15  1  0  0  0  0
  3  4  1  0  0  0  0
  4  5  2  0  0  0  0
  4  6  1  0  0  0  0
  6  7  1  0  0  0  0
  6 39  1  0  0  0  0
  7  8  1  0  0  0  0
  7 14  2  0  0  0  0
  8 13  1  0  0  0  0
  8  9  1  0  0  0  0
  8 22  1  0  0  0  0
  9 10  1  0  0  0  0
  9 23  1  0  0  0  0
  9 24  1  0  0  0  0
 10 11  1  0  0  0  0
 10 25  1  0  0  0  0
 10 26  1  0  0  0  0
 11 12  1  0  0  0  0
 11 27  1  0  0  0  0
 11 28  1  0  0  0  0
 12 13  1  0  0  0  0
 12 29  1  0  0  0  0
 12 30  1  0  0  0  0
 13 31  1  0  0  0  0
 13 32  1  0  0  0  0
 14 15  1  0  0  0  0
 14 33  1  0  0  0  0
 15 34  1  0  0  0  0
 16 21  1  0  0  0  0
 16 17  2  0  0  0  0
 17 18  1  0  0  0  0
 17 35  1  0  0  0  0
 18 19  2  0  0  0  0
 18 36  1  0  0  0  0
 19 20  1  0  0  0  0
 20 21  2  0  0  0  0
 20 37  1  0  0  0  0
 21 38  1  0  0  0  0
M  CHG  1   1  -1
M  CHG  1  14   1
M  END
> <s_m_source_file>
AV-unprocessed.smi

> <i_m_source_file_index>
2557

> <i_lp_mmshare_version>
43012

> <i_f3d_flags>
0

> <s_epik_input>
W2NIXTFbY0hdbltjSF1bY0hdYzFDKD1PKUMyPUMoW09IXSlOPUMoW05IXVtOSF0yKVtDSF0zW0NIMl1bQ0gyXVtDSDJdW0NIMl1bQ0gyXTM=

> <s_epik_cmdline>
J2VwaWtfcHl0aG9uJywgJy1waCcsICc3LjAnLCAnLXRuJywgJzgnLCAnLW1hJywgJzIwMCcsICctbWV0YWxfYmluZGluZycsICctaW1hZScsICc8aW5maWxlLm1hZT4nLCAnLW9tYWUnLCAnPG91dGZpbGUubWFlPic=

> <r_epik_Ionization_Penalty>
2.4889

> <r_epik_Ionization_Penalty_Charging>
1.64109

> <r_epik_Ionization_Penalty_Neutral>
0.84781

> <r_epik_State_Penalty>
2.44612

> <r_epik_Charging_Adjusted_Penalty>
4.08721

> <i_epik_Tot_Q>
0

> <i_epik_Tot_abs_Q>
2

> <r_epik_Metal_State_Penalty>
1.55557

> <b_epik_Metal_Only>
0

> <s_epik_Chemistry_Notes>
This compound has an imine and may undergo hydrolysis.

> <s_lp_Force_Field>
OPLS_2005

> <r_lp_Energy>
23.4412

> <b_lp_Chiralities_Consistent>
1

> <s_lp_Variant>
AV-unprocessed.smi:2557-5

> <Gold.Version>
5.8.1

> <Gold.Id.Protein>
6NUR|6NUR_protein|mol2

> <Gold.PLP.Fitness>
42.0234

> <Gold.PLP.PLP>
-32.5426

> <Gold.PLP.part.hbond>
-3.0000

> <Gold.PLP.part.metal>
0.0000

> <Gold.PLP.part.buried>
-3.8816

> <Gold.PLP.part.nonpolar>
-27.4391

> <Gold.PLP.part.repulsive>
1.5525

> <Gold.PLP.ligand.clash>
0.0000

> <Gold.PLP.ligand.torsion>
1.1700

> <Gold.PLP.Chemscore.Hbond>
3.1941

> <Gold.PLP.Chemscore.CHOScore>
0.0000

> <Gold.PLP.Chemscore.Metal>
0.0000

> <Gold.Chemscore.Hbonds>
donor molecule, donor type, donor heavy atom, donor atom, acceptor molecule, acceptor atom, score
      P1  H  7989  7998       L1     5  0.43
      P1  H  7997  8008       L1     5  0.70
      P1  H 10752 10763       L1     1  2.00

> <Gold.PLP.Chemscore.Internal.Correction>
2.2386

> <Gold.Rescore>
     Score         DG    S(hbond)    S(metal)    S(lipo)     H(rot)  DE(clash)    DE(int)     intcor
     17.02     -18.32       1.73        0.00      82.16       1.00       0.00       1.29       ----

> <Gold.Chemscore.Fitness>
17.0240

> <Gold.Chemscore.DG>
-18.3171

> <Gold.Chemscore.ZeroCoef>
-5.4800

> <Gold.Chemscore.Hbond>
1.7318

> <Gold.Chemscore.Metal>
0.0000

> <Gold.Chemscore.Lipo>
82.1623

> <Gold.Chemscore.Internal_Hbond>
0.0000

> <Gold.Chemscore.DEClash>
0.0000

> <Gold.Chemscore.DEInternal>
1.2932

> <Gold.Chemscore.Rot>
1.0000

> <Gold.Chemscore.Internal.Correction>
   9.000000E+99

> <Gold.Chemscore.Hbonds>
donor molecule, donor type, donor heavy atom, donor atom, acceptor molecule, acceptor atom, score
      P1  H  7989  7998       L1     5  0.14
      P1  H  7997  8008       L1     5  0.07
      P1  H 10752 10763       L1     1  0.87

> <Gold.Chemscore.Hbond.Weighted>
-5.7841

> <Gold.Chemscore.Metal.Weighted>
-0.0000

> <Gold.Chemscore.Lipo.Weighted>
-9.6130

> <Gold.Chemscore.Internal_Hbond.Weighted>
0.0000

> <Gold.Chemscore.DEClash.Weighted>
0.0000

> <Gold.Chemscore.DEInternal.Weighted>
1.2932

> <Gold.Chemscore.Rot.Weighted>
2.5600

> <Gold.Chemscore.Internal.Correction.Weighted>
   9.000000E+99

> <Gold.Protein.RotatedTorsions>
[ 6907 6896 6895 6894 ] final   56.75 input  -60.11 | X-H torsion
[ 7974 7965 7964 7962 ] final -172.52 input  175.53 | X-H torsion
[ 8008 7997 7996 7995 ] final  -28.35 input   59.86 | X-H torsion
[ 10167 10162 10161 10158 ] final   48.97 input  -65.29 | X-H torsion
[ 10718 10713 10712 10709 ] final  146.16 input   66.30 | X-H torsion
[ 10763 10752 10751 10750 ] final   31.21 input  -60.55 | X-H torsion
[ 11005 11000 10999 10996 ] final  -60.66 input  -57.11 | X-H torsion

> <Gold.Protein.ActiveResidues>
 VAL166  LYS551  ARG553  GLY616  TRP617  ASP618  TYR619  PRO620  LYS621  CYS622 
 ASP623  PHE694  ASN695  SER759  ASP760  ASP761  ALA762  ILE779  LEU786  VAL792 
 PHE793  MET794  SER795  GLU796  ALA797  LYS798  CYS799  TRP800  GLU811  SER814 

> <Gold.Protein.RotatedAtoms>
  152.3666  134.6795  160.0189 H   0  0  0  0  0  0  0  0  0  0  0  0  # atno 6907 bound_to 6896
  151.7101  133.3307  159.3296 H   0  0  0  0  0  0  0  0  0  0  0  0  # atno 6908 bound_to 6896
  150.7643  134.6474  159.6314 H   0  0  0  0  0  0  0  0  0  0  0  0  # atno 6909 bound_to 6896
  144.7145  140.1759  143.6363 H   0  0  0  0  0  0  0  0  0  0  0  0  # atno 7974 bound_to 7965
  154.4336  140.1847  156.1075 H   0  0  0  0  0  0  0  0  0  0  0  0  # atno 8008 bound_to 7997
  156.0243  140.3337  155.7046 H   0  0  0  0  0  0  0  0  0  0  0  0  # atno 8009 bound_to 7997
  155.5931  140.0633  157.2744 H   0  0  0  0  0  0  0  0  0  0  0  0  # atno 8010 bound_to 7997
  140.2877  144.3082  150.6248 H   0  0  0  0  0  0  0  0  0  0  0  0  # atno 10167 bound_to 10162
  157.3365  131.0929  151.1119 H   0  0  0  0  0  0  0  0  0  0  0  0  # atno 10718 bound_to 10713
  153.0328  135.6444  154.1164 H   0  0  0  0  0  0  0  0  0  0  0  0  # atno 10763 bound_to 10752
  154.0883  135.2868  155.3278 H   0  0  0  0  0  0  0  0  0  0  0  0  # atno 10764 bound_to 10752
  154.6482  135.5435  153.7934 H   0  0  0  0  0  0  0  0  0  0  0  0  # atno 10765 bound_to 10752
  141.1295  133.6624  156.5257 H   0  0  0  0  0  0  0  0  0  0  0  0  # atno 11005 bound_to 11000
  145.8901  139.2371  143.1555 LP  0  0  0  0  0  0  0  0  0  0  0  0  # atno 17320 bound_to 7965
  145.9912  140.8601  143.0065 LP  0  0  0  0  0  0  0  0  0  0  0  0  # atno 17321 bound_to 7965
  140.5758  143.2176  151.7517 LP  0  0  0  0  0  0  0  0  0  0  0  0  # atno 17342 bound_to 10162
  139.4946  144.4151  152.0038 LP  0  0  0  0  0  0  0  0  0  0  0  0  # atno 17343 bound_to 10162
  157.2347  130.6541  149.5864 LP  0  0  0  0  0  0  0  0  0  0  0  0  # atno 17370 bound_to 10713
  155.9702  130.4587  150.6010 LP  0  0  0  0  0  0  0  0  0  0  0  0  # atno 17371 bound_to 10713
  140.4256  134.7147  157.4914 LP  0  0  0  0  0  0  0  0  0  0  0  0  # atno 17394 bound_to 11000
  140.0329  134.6380  155.9082 LP  0  0  0  0  0  0  0  0  0  0  0  0  # atno 17395 bound_to 11000

$$$$
