AV-unprocessed.smi:365|AV-procd|sdf|2427|dock9
  -GOLD-   2262022363D 1   1.00000     0.00000
 Structure written by MMmdl.
 53 54  0  0  0  0  0  0  0  0  1 V2000
  149.8735  133.8985  155.5065 C   0  0  0  0  0  0  0  0  0  0  0  0
  149.1420  135.2106  155.1787 C   0  0  2  0  0  0  0  0  0  0  0  0
  148.2997  134.9814  154.0066 N   0  0  0  0  0  0  0  0  0  0  0  0
  147.0817  134.4111  154.0206 C   0  0  0  0  0  0  0  0  0  0  0  0
  146.5669  133.9933  155.0593 O   0  0  0  0  0  0  0  0  0  0  0  0
  146.3114  134.2936  152.6834 C   0  0  0  0  0  0  0  0  0  0  0  0
  144.9803  133.5620  152.9500 C   0  0  0  0  0  0  0  0  0  0  0  0
  147.1545  133.4624  151.6939 C   0  0  0  0  0  0  0  0  0  0  0  0
  146.0121  135.6724  152.0481 C   0  0  0  0  0  0  0  0  0  0  0  0
  150.1907  136.2914  154.8733 C   0  0  0  0  0  0  0  0  0  0  0  0
  151.3920  136.0585  155.0182 O   0  0  0  0  0  0  0  0  0  0  0  0
  149.7169  137.4715  154.4461 N   0  0  0  0  0  0  0  0  0  0  0  0
  150.5403  138.6121  154.0576 C   0  0  0  0  0  0  0  0  0  0  0  0
  150.9373  139.5340  155.2042 C   0  0  0  0  0  0  0  0  0  0  0  0
  150.2150  140.7208  155.4313 C   0  0  0  0  0  0  0  0  0  0  0  0
  150.5998  141.5713  156.4854 C   0  0  0  0  0  0  0  0  0  0  0  0
  151.7106  141.2161  157.2934 C   0  0  0  0  0  0  0  0  0  0  0  0
  152.1482  142.0221  158.3709 N   0  0  0  0  0  0  0  0  0  0  0  0
  151.5469  143.3519  158.4831 C   0  0  0  0  0  0  0  0  0  0  0  0
  152.3416  144.2282  159.4659 C   0  0  0  0  0  0  0  0  0  0  0  0
  152.4607  143.5625  160.7178 O   0  0  0  0  0  0  0  0  0  0  0  0
  153.1783  142.3407  160.5925 C   0  0  0  0  0  0  0  0  0  0  0  0
  152.4210  141.3835  159.6566 C   0  0  0  0  0  0  0  0  0  0  0  0
  152.4024  140.0724  157.0677 N   0  0  0  0  0  0  0  0  0  0  0  0
  152.0297  139.2612  156.0562 C   0  0  0  0  0  0  0  0  0  0  0  0
  150.5257  134.0148  156.3728 H   0  0  0  0  0  0  0  0  0  0  0  0
  150.4859  133.5534  154.6720 H   0  0  0  0  0  0  0  0  0  0  0  0
  149.1620  133.1060  155.7412 H   0  0  0  0  0  0  0  0  0  0  0  0
  148.5247  135.5065  156.0295 H   0  0  0  0  0  0  0  0  0  0  0  0
  148.6562  135.3087  153.1207 H   0  0  0  0  0  0  0  0  0  0  0  0
  144.4055  133.4417  152.0310 H   0  0  0  0  0  0  0  0  0  0  0  0
  144.3566  134.1140  153.6548 H   0  0  0  0  0  0  0  0  0  0  0  0
  145.1397  132.5651  153.3639 H   0  0  0  0  0  0  0  0  0  0  0  0
  147.3457  132.4553  152.0675 H   0  0  0  0  0  0  0  0  0  0  0  0
  148.1208  133.9307  151.5005 H   0  0  0  0  0  0  0  0  0  0  0  0
  146.6461  133.3574  150.7349 H   0  0  0  0  0  0  0  0  0  0  0  0
  145.4809  135.5600  151.1022 H   0  0  0  0  0  0  0  0  0  0  0  0
  146.9269  136.2283  151.8373 H   0  0  0  0  0  0  0  0  0  0  0  0
  145.3852  136.2893  152.6937 H   0  0  0  0  0  0  0  0  0  0  0  0
  148.7169  137.5776  154.3568 H   0  0  0  0  0  0  0  0  0  0  0  0
  151.4517  138.2283  153.5991 H   0  0  0  0  0  0  0  0  0  0  0  0
  150.0274  139.1891  153.2861 H   0  0  0  0  0  0  0  0  0  0  0  0
  149.3742  140.9808  154.8048 H   0  0  0  0  0  0  0  0  0  0  0  0
  150.0390  142.4799  156.6409 H   0  0  0  0  0  0  0  0  0  0  0  0
  151.5100  143.8615  157.5204 H   0  0  0  0  0  0  0  0  0  0  0  0
  150.5177  143.2433  158.8271 H   0  0  0  0  0  0  0  0  0  0  0  0
  153.3311  144.4594  159.0679 H   0  0  0  0  0  0  0  0  0  0  0  0
  151.8306  145.1791  159.6170 H   0  0  0  0  0  0  0  0  0  0  0  0
  154.1852  142.5342  160.2190 H   0  0  0  0  0  0  0  0  0  0  0  0
  153.2874  141.8904  161.5791 H   0  0  0  0  0  0  0  0  0  0  0  0
  151.4790  141.0780  160.1135 H   0  0  0  0  0  0  0  0  0  0  0  0
  153.0274  140.4885  159.5155 H   0  0  0  0  0  0  0  0  0  0  0  0
  152.6312  138.3733  155.9292 H   0  0  0  0  0  0  0  0  0  0  0  0
  1  2  1  0  0  0  0
  1 26  1  0  0  0  0
  1 27  1  0  0  0  0
  1 28  1  0  0  0  0
  2  3  1  0  0  0  0
  2 10  1  0  0  0  0
  2 29  1  0  0  0  0
  3  4  1  0  0  0  0
  3 30  1  0  0  0  0
  4  5  2  0  0  0  0
  4  6  1  0  0  0  0
  6  7  1  0  0  0  0
  6  8  1  0  0  0  0
  6  9  1  0  0  0  0
  7 31  1  0  0  0  0
  7 32  1  0  0  0  0
  7 33  1  0  0  0  0
  8 34  1  0  0  0  0
  8 35  1  0  0  0  0
  8 36  1  0  0  0  0
  9 37  1  0  0  0  0
  9 38  1  0  0  0  0
  9 39  1  0  0  0  0
 10 11  2  0  0  0  0
 10 12  1  0  0  0  0
 12 13  1  0  0  0  0
 12 40  1  0  0  0  0
 13 14  1  0  0  0  0
 13 41  1  0  0  0  0
 13 42  1  0  0  0  0
 14 25  1  0  0  0  0
 14 15  2  0  0  0  0
 15 16  1  0  0  0  0
 15 43  1  0  0  0  0
 16 17  2  0  0  0  0
 16 44  1  0  0  0  0
 17 18  1  0  0  0  0
 17 24  1  0  0  0  0
 18 23  1  0  0  0  0
 18 19  1  0  0  0  0
 19 20  1  0  0  0  0
 19 45  1  0  0  0  0
 19 46  1  0  0  0  0
 20 21  1  0  0  0  0
 20 47  1  0  0  0  0
 20 48  1  0  0  0  0
 21 22  1  0  0  0  0
 22 23  1  0  0  0  0
 22 49  1  0  0  0  0
 22 50  1  0  0  0  0
 23 51  1  0  0  0  0
 23 52  1  0  0  0  0
 24 25  2  0  0  0  0
 25 53  1  0  0  0  0
M  END
> <s_m_source_file>
AV-unprocessed.smi

> <i_m_source_file_index>
365

> <i_lp_mmshare_version>
43012

> <i_f3d_flags>
0

> <s_epik_input>
W0NIM11DKFtDSDNdKShbQ0gzXSlDKD1PKVtOSF1bQ0BASF0oW0NIM10pQyg9TylbTkhdW0NIMl1jMVtjSF1bY0hdYyhuW2NIXTEpTjJbQ0gyXVtDSDJdT1tDSDJdW0NIMl0y

> <s_epik_cmdline>
J2VwaWtfcHl0aG9uJywgJy1waCcsICc3LjAnLCAnLXRuJywgJzgnLCAnLW1hJywgJzIwMCcsICctbWV0YWxfYmluZGluZycsICctaW1hZScsICc8aW5maWxlLm1hZT4nLCAnLW9tYWUnLCAnPG91dGZpbGUubWFlPic=

> <r_lp_tautomer_probability>
1

> <r_epik_Ionization_Penalty>
0.00484327

> <r_epik_Ionization_Penalty_Charging>
0

> <r_epik_Ionization_Penalty_Neutral>
0.00484327

> <r_epik_State_Penalty>
0.0035131

> <r_epik_Charging_Adjusted_Penalty>
0.0035131

> <i_epik_Tot_Q>
0

> <i_epik_Tot_abs_Q>
0

> <r_epik_Metal_State_Penalty>
-0

> <b_epik_Metal_Only>
0

> <s_lp_Force_Field>
OPLS_2005

> <r_lp_Energy>
21.7768

> <b_lp_Chiralities_Consistent>
1

> <s_lp_Variant>
AV-unprocessed.smi:365-1

> <Gold.Version>
5.8.1

> <Gold.Id.Protein>
6NUR|6NUR_protein|mol2

> <Gold.PLP.Fitness>
50.2378

> <Gold.PLP.PLP>
-42.8682

> <Gold.PLP.part.hbond>
-4.0000

> <Gold.PLP.part.metal>
0.0000

> <Gold.PLP.part.buried>
-3.5267

> <Gold.PLP.part.nonpolar>
-35.9621

> <Gold.PLP.part.repulsive>
0.2480

> <Gold.PLP.ligand.clash>
0.0000

> <Gold.PLP.ligand.torsion>
1.0757

> <Gold.PLP.Chemscore.Hbond>
3.0000

> <Gold.PLP.Chemscore.CHOScore>
0.0000

> <Gold.PLP.Chemscore.Metal>
0.0000

> <Gold.Chemscore.Hbonds>
donor molecule, donor type, donor heavy atom, donor atom, acceptor molecule, acceptor atom, score
      L1  H     3    30       P1  7948  1.00
      P1  H  7997  8008       L1    24  0.94
      P1  H 10752 10763       L1    11  1.00

> <Gold.PLP.Chemscore.Internal.Correction>
0.5209

> <Gold.Rescore>
     Score         DG    S(hbond)    S(metal)    S(lipo)     H(rot)  DE(clash)    DE(int)     intcor
     19.70     -21.06       2.52        0.00     105.76       2.04       0.14       1.22       ----

> <Gold.Chemscore.Fitness>
19.7005

> <Gold.Chemscore.DG>
-21.0595

> <Gold.Chemscore.ZeroCoef>
-5.4800

> <Gold.Chemscore.Hbond>
2.5207

> <Gold.Chemscore.Metal>
0.0000

> <Gold.Chemscore.Lipo>
105.7646

> <Gold.Chemscore.Internal_Hbond>
0.0000

> <Gold.Chemscore.DEClash>
0.1402

> <Gold.Chemscore.DEInternal>
1.2188

> <Gold.Chemscore.Rot>
2.0367

> <Gold.Chemscore.Internal.Correction>
   9.000000E+99

> <Gold.Chemscore.Hbonds>
donor molecule, donor type, donor heavy atom, donor atom, acceptor molecule, acceptor atom, score
      L1  H     3    30       P1  7948  0.79
      P1  H  7997  8008       L1    24  0.19
      P1  H 10752 10763       L1    11  0.99

> <Gold.Chemscore.Hbond.Weighted>
-8.4190

> <Gold.Chemscore.Metal.Weighted>
-0.0000

> <Gold.Chemscore.Lipo.Weighted>
-12.3745

> <Gold.Chemscore.Internal_Hbond.Weighted>
0.0000

> <Gold.Chemscore.DEClash.Weighted>
0.1402

> <Gold.Chemscore.DEInternal.Weighted>
1.2188

> <Gold.Chemscore.Rot.Weighted>
5.2140

> <Gold.Chemscore.Internal.Correction.Weighted>
   9.000000E+99

> <Gold.Protein.RotatedTorsions>
[ 6907 6896 6895 6894 ] final  137.75 input  -60.11 | X-H torsion
[ 7974 7965 7964 7962 ] final  148.20 input  175.53 | X-H torsion
[ 8008 7997 7996 7995 ] final  -67.96 input   59.86 | X-H torsion
[ 10167 10162 10161 10158 ] final -151.90 input  -65.29 | X-H torsion
[ 10718 10713 10712 10709 ] final -155.34 input   66.30 | X-H torsion
[ 10763 10752 10751 10750 ] final   47.01 input  -60.55 | X-H torsion
[ 11005 11000 10999 10996 ] final   15.61 input  -57.11 | X-H torsion

> <Gold.Protein.ActiveResidues>
 VAL166  LYS551  ARG553  GLY616  TRP617  ASP618  TYR619  PRO620  LYS621  CYS622 
 ASP623  PHE694  ASN695  SER759  ASP760  ASP761  ALA762  ILE779  LEU786  VAL792 
 PHE793  MET794  SER795  GLU796  ALA797  LYS798  CYS799  TRP800  GLU811  SER814 

> <Gold.Protein.RotatedAtoms>
  152.2745  133.5413  159.5459 H   0  0  0  0  0  0  0  0  0  0  0  0  # atno 6907 bound_to 6896
  150.7172  134.0651  159.3853 H   0  0  0  0  0  0  0  0  0  0  0  0  # atno 6908 bound_to 6896
  151.8564  135.0540  160.0515 H   0  0  0  0  0  0  0  0  0  0  0  0  # atno 6909 bound_to 6896
  144.8532  139.6124  143.5964 H   0  0  0  0  0  0  0  0  0  0  0  0  # atno 7974 bound_to 7965
  154.4835  140.0882  156.7433 H   0  0  0  0  0  0  0  0  0  0  0  0  # atno 8008 bound_to 7997
  155.4409  140.3453  155.4271 H   0  0  0  0  0  0  0  0  0  0  0  0  # atno 8009 bound_to 7997
  156.1227  140.1479  156.9169 H   0  0  0  0  0  0  0  0  0  0  0  0  # atno 8010 bound_to 7997
  139.7228  143.8931  152.2509 H   0  0  0  0  0  0  0  0  0  0  0  0  # atno 10167 bound_to 10162
  156.5115  130.8437  151.2648 H   0  0  0  0  0  0  0  0  0  0  0  0  # atno 10718 bound_to 10713
  152.9804  135.5990  154.3693 H   0  0  0  0  0  0  0  0  0  0  0  0  # atno 10763 bound_to 10752
  154.3368  135.2768  155.2445 H   0  0  0  0  0  0  0  0  0  0  0  0  # atno 10764 bound_to 10752
  154.4545  135.5981  153.6269 H   0  0  0  0  0  0  0  0  0  0  0  0  # atno 10765 bound_to 10752
  140.4563  134.1172  155.7710 H   0  0  0  0  0  0  0  0  0  0  0  0  # atno 11005 bound_to 11000
  146.2802  139.6857  142.9234 LP  0  0  0  0  0  0  0  0  0  0  0  0  # atno 17320 bound_to 7965
  145.4458  141.0425  143.2832 LP  0  0  0  0  0  0  0  0  0  0  0  0  # atno 17321 bound_to 7965
  139.8831  144.7006  150.8854 LP  0  0  0  0  0  0  0  0  0  0  0  0  # atno 17342 bound_to 10162
  140.7757  143.3645  151.1765 LP  0  0  0  0  0  0  0  0  0  0  0  0  # atno 17343 bound_to 10162
  157.7450  130.9948  150.2720 LP  0  0  0  0  0  0  0  0  0  0  0  0  # atno 17370 bound_to 10713
  156.3235  130.3789  149.7554 LP  0  0  0  0  0  0  0  0  0  0  0  0  # atno 17371 bound_to 10713
  141.1641  133.8736  157.1764 LP  0  0  0  0  0  0  0  0  0  0  0  0  # atno 17394 bound_to 11000
  139.9974  135.0041  157.0113 LP  0  0  0  0  0  0  0  0  0  0  0  0  # atno 17395 bound_to 11000

$$$$
