AV-unprocessed.smi:561|AV-procd|sdf|2939|dock7
  -GOLD-   2262023433D 1   1.00000     0.00000
 Structure written by MMmdl.
 36 37  0  0  0  0  0  0  0  0  1 V2000
  143.9566  136.1803  151.9737 C   0  0  0  0  0  0  0  0  0  0  0  0
  145.3404  135.6129  152.3229 C   0  0  1  0  0  0  0  0  0  0  0  0
  145.9633  134.8635  151.1297 C   0  0  0  0  0  0  0  0  0  0  0  0
  145.3475  133.5667  150.9147 N   0  0  0  0  0  0  0  0  0  0  0  0
  144.0027  133.3054  150.6889 C   0  0  0  0  0  0  0  0  0  0  0  0
  143.8850  131.9404  150.5554 C   0  0  0  0  0  0  0  0  0  0  0  0
  145.1372  131.3455  150.6926 N   0  0  0  0  0  0  0  0  0  0  0  0
  145.9528  132.3708  150.9013 C   0  0  0  0  0  0  0  0  0  0  0  0
  146.2288  136.6919  152.7476 N   0  0  0  0  0  0  0  0  0  0  0  0
  145.9135  137.6851  153.5984 C   0  0  0  0  0  0  0  0  0  0  0  0
  144.7872  137.8317  154.0737 O   0  0  0  0  0  0  0  0  0  0  0  0
  147.0245  138.6085  153.9513 C   0  0  0  0  0  0  0  0  0  0  0  0
  148.2356  138.1561  154.0481 N   0  0  0  0  0  0  0  0  0  0  0  0
  149.2984  138.9648  154.3933 N   0  0  0  0  0  0  0  0  0  0  0  0
  150.5135  138.2218  154.7261 C   0  0  0  0  0  0  0  0  0  0  0  0
  149.2555  140.3221  154.4135 C   0  0  0  0  0  0  0  0  0  0  0  0
  150.1984  141.0386  154.7488 O   0  0  0  0  0  0  0  0  0  0  0  0
  147.9441  140.9686  153.9567 C   0  0  0  0  0  0  0  0  0  0  0  0
  146.7238  140.0672  154.2282 C   0  0  0  0  0  0  0  0  0  0  0  0
  143.2727  135.3862  151.6728 H   0  0  0  0  0  0  0  0  0  0  0  0
  144.0166  136.8967  151.1537 H   0  0  0  0  0  0  0  0  0  0  0  0
  143.5114  136.6891  152.8294 H   0  0  0  0  0  0  0  0  0  0  0  0
  145.2189  134.9007  153.1415 H   0  0  0  0  0  0  0  0  0  0  0  0
  145.8463  135.4474  150.2158 H   0  0  0  0  0  0  0  0  0  0  0  0
  147.0353  134.7244  151.2774 H   0  0  0  0  0  0  0  0  0  0  0  0
  143.2617  134.0901  150.6465 H   0  0  0  0  0  0  0  0  0  0  0  0
  143.0021  131.3454  150.3733 H   0  0  0  0  0  0  0  0  0  0  0  0
  147.0152  132.2483  151.0556 H   0  0  0  0  0  0  0  0  0  0  0  0
  147.1778  136.6584  152.4037 H   0  0  0  0  0  0  0  0  0  0  0  0
  151.3790  138.8560  154.9223 H   0  0  0  0  0  0  0  0  0  0  0  0
  150.7816  137.5535  153.9069 H   0  0  0  0  0  0  0  0  0  0  0  0
  150.3449  137.6118  155.6144 H   0  0  0  0  0  0  0  0  0  0  0  0
  147.8146  141.9380  154.4391 H   0  0  0  0  0  0  0  0  0  0  0  0
  148.0286  141.1594  152.8863 H   0  0  0  0  0  0  0  0  0  0  0  0
  145.8942  140.4129  153.6104 H   0  0  0  0  0  0  0  0  0  0  0  0
  146.4029  140.1778  155.2647 H   0  0  0  0  0  0  0  0  0  0  0  0
  1  2  1  0  0  0  0
  1 20  1  0  0  0  0
  1 21  1  0  0  0  0
  1 22  1  0  0  0  0
  2  3  1  0  0  0  0
  2  9  1  0  0  0  0
  2 23  1  0  0  0  0
  3  4  1  0  0  0  0
  3 24  1  0  0  0  0
  3 25  1  0  0  0  0
  4  8  1  0  0  0  0
  4  5  1  0  0  0  0
  5  6  2  0  0  0  0
  5 26  1  0  0  0  0
  6  7  1  0  0  0  0
  6 27  1  0  0  0  0
  7  8  2  0  0  0  0
  8 28  1  0  0  0  0
  9 10  1  0  0  0  0
  9 29  1  0  0  0  0
 10 11  2  0  0  0  0
 10 12  1  0  0  0  0
 12 19  1  0  0  0  0
 12 13  2  0  0  0  0
 13 14  1  0  0  0  0
 14 15  1  0  0  0  0
 14 16  1  0  0  0  0
 15 30  1  0  0  0  0
 15 31  1  0  0  0  0
 15 32  1  0  0  0  0
 16 17  2  0  0  0  0
 16 18  1  0  0  0  0
 18 19  1  0  0  0  0
 18 33  1  0  0  0  0
 18 34  1  0  0  0  0
 19 35  1  0  0  0  0
 19 36  1  0  0  0  0
M  END
> <s_m_source_file>
AV-unprocessed.smi

> <i_m_source_file_index>
561

> <i_lp_mmshare_version>
43012

> <i_f3d_flags>
0

> <s_epik_input>
W2NIXTFuW2NIXVtjSF1uMVtDSDJdW0NAQEhdKFtDSDNdKVtOSF1DKD1PKUMyPU5OKFtDSDNdKUMoPU8pW0NIMl1bQ0gyXTI=

> <s_epik_cmdline>
J2VwaWtfcHl0aG9uJywgJy1waCcsICc3LjAnLCAnLXRuJywgJzgnLCAnLW1hJywgJzIwMCcsICctbWV0YWxfYmluZGluZycsICctaW1hZScsICc8aW5maWxlLm1hZT4nLCAnLW9tYWUnLCAnPG91dGZpbGUubWFlPic=

> <r_lp_tautomer_probability>
1

> <r_epik_Ionization_Penalty>
0.46798

> <r_epik_Ionization_Penalty_Charging>
0.467902

> <r_epik_Ionization_Penalty_Neutral>
7.78263e-05

> <r_epik_State_Penalty>
0.47192

> <r_epik_Charging_Adjusted_Penalty>
0.939822

> <i_epik_Tot_Q>
0

> <i_epik_Tot_abs_Q>
0

> <r_epik_Metal_State_Penalty>
0.280825

> <b_epik_Metal_Only>
0

> <s_epik_Chemistry_Notes>
This compound has an imine and may undergo hydrolysis.

> <s_lp_Force_Field>
OPLS_2005

> <r_lp_Energy>
18.7987

> <b_lp_Chiralities_Consistent>
1

> <s_lp_Variant>
AV-unprocessed.smi:561-4

> <Gold.Version>
5.8.1

> <Gold.Id.Protein>
6NUR|6NUR_protein|mol2

> <Gold.PLP.Fitness>
42.5624

> <Gold.PLP.PLP>
-30.0890

> <Gold.PLP.part.hbond>
-2.0000

> <Gold.PLP.part.metal>
0.0000

> <Gold.PLP.part.buried>
-5.4738

> <Gold.PLP.part.nonpolar>
-24.8447

> <Gold.PLP.part.repulsive>
1.5517

> <Gold.PLP.ligand.clash>
0.0000

> <Gold.PLP.ligand.torsion>
0.7568

> <Gold.PLP.Chemscore.Hbond>
1.6560

> <Gold.PLP.Chemscore.CHOScore>
3.0000

> <Gold.PLP.Chemscore.Metal>
0.0000

> <Gold.Chemscore.Hbonds>
donor molecule, donor type, donor heavy atom, donor atom, acceptor molecule, acceptor atom, score
      L1  H     9    29       P1  7948  1.00
      P1  H  7989  7998       L1    17  0.66
      L1  C     5    26       P1 10186  1.00
      L1  C     6    27       P1 10952  1.00
      L1  C     8    28       P1 10747  1.00

> <Gold.PLP.Chemscore.Internal.Correction>
0.0191

> <Gold.Rescore>
     Score         DG    S(hbond)    S(metal)    S(lipo)     H(rot)  DE(clash)    DE(int)     intcor
     10.04     -12.33       1.53        0.00      52.20       1.71       0.28       2.01       ----

> <Gold.Chemscore.Fitness>
10.0442

> <Gold.Chemscore.DG>
-12.3337

> <Gold.Chemscore.ZeroCoef>
-5.4800

> <Gold.Chemscore.Hbond>
1.5329

> <Gold.Chemscore.Metal>
0.0000

> <Gold.Chemscore.Lipo>
52.2019

> <Gold.Chemscore.Internal_Hbond>
0.0000

> <Gold.Chemscore.DEClash>
0.2793

> <Gold.Chemscore.DEInternal>
2.0103

> <Gold.Chemscore.Rot>
1.7086

> <Gold.Chemscore.Internal.Correction>
   9.000000E+99

> <Gold.Chemscore.Hbonds>
donor molecule, donor type, donor heavy atom, donor atom, acceptor molecule, acceptor atom, score
      L1  H     9    29       P1  7948  1.00
      P1  H  7989  7998       L1    17  0.52

> <Gold.Chemscore.Hbond.Weighted>
-5.1200

> <Gold.Chemscore.Metal.Weighted>
-0.0000

> <Gold.Chemscore.Lipo.Weighted>
-6.1076

> <Gold.Chemscore.Internal_Hbond.Weighted>
0.0000

> <Gold.Chemscore.DEClash.Weighted>
0.2793

> <Gold.Chemscore.DEInternal.Weighted>
2.0103

> <Gold.Chemscore.Rot.Weighted>
4.3739

> <Gold.Chemscore.Internal.Correction.Weighted>
   9.000000E+99

> <Gold.Protein.RotatedTorsions>
[ 6907 6896 6895 6894 ] final -163.59 input  -60.11 | X-H torsion
[ 7974 7965 7964 7962 ] final   40.84 input  175.53 | X-H torsion
[ 8008 7997 7996 7995 ] final  149.92 input   59.86 | X-H torsion
[ 10167 10162 10161 10158 ] final   94.79 input  -65.29 | X-H torsion
[ 10718 10713 10712 10709 ] final  168.26 input   66.30 | X-H torsion
[ 10763 10752 10751 10750 ] final  -29.53 input  -60.55 | X-H torsion
[ 11005 11000 10999 10996 ] final -136.31 input  -57.11 | X-H torsion

> <Gold.Protein.ActiveResidues>
 VAL166  LYS551  ARG553  GLY616  TRP617  ASP618  TYR619  PRO620  LYS621  CYS622 
 ASP623  PHE694  ASN695  SER759  ASP760  ASP761  ALA762  ILE779  LEU786  VAL792 
 PHE793  MET794  SER795  GLU796  ALA797  LYS798  CYS799  TRP800  GLU811  SER814 

> <Gold.Protein.RotatedAtoms>
  151.3984  133.3765  159.2729 H   0  0  0  0  0  0  0  0  0  0  0  0  # atno 6907 bound_to 6896
  150.9452  134.8858  159.7648 H   0  0  0  0  0  0  0  0  0  0  0  0  # atno 6908 bound_to 6896
  152.5088  134.3937  159.9445 H   0  0  0  0  0  0  0  0  0  0  0  0  # atno 6909 bound_to 6896
  146.0872  139.5485  142.9499 H   0  0  0  0  0  0  0  0  0  0  0  0  # atno 7974 bound_to 7965
  156.2736  140.2089  156.5935 H   0  0  0  0  0  0  0  0  0  0  0  0  # atno 8008 bound_to 7997
  154.6963  140.0525  157.0437 H   0  0  0  0  0  0  0  0  0  0  0  0  # atno 8009 bound_to 7997
  155.0796  140.3185  155.4608 H   0  0  0  0  0  0  0  0  0  0  0  0  # atno 8010 bound_to 7997
  139.8050  144.6798  150.9715 H   0  0  0  0  0  0  0  0  0  0  0  0  # atno 10167 bound_to 10162
  157.0396  131.0283  151.2717 H   0  0  0  0  0  0  0  0  0  0  0  0  # atno 10718 bound_to 10713
  153.7662  135.6915  153.4915 H   0  0  0  0  0  0  0  0  0  0  0  0  # atno 10763 bound_to 10752
  153.1905  135.4473  155.0142 H   0  0  0  0  0  0  0  0  0  0  0  0  # atno 10764 bound_to 10752
  154.8135  135.3388  154.7174 H   0  0  0  0  0  0  0  0  0  0  0  0  # atno 10765 bound_to 10752
  140.8817  134.1923  157.4586 H   0  0  0  0  0  0  0  0  0  0  0  0  # atno 11005 bound_to 11000
  145.6108  141.0340  143.1968 LP  0  0  0  0  0  0  0  0  0  0  0  0  # atno 17320 bound_to 7965
  144.7334  139.7658  143.7338 LP  0  0  0  0  0  0  0  0  0  0  0  0  # atno 17321 bound_to 7965
  140.7819  143.4243  151.0793 LP  0  0  0  0  0  0  0  0  0  0  0  0  # atno 17342 bound_to 10162
  139.7913  143.8215  152.3152 LP  0  0  0  0  0  0  0  0  0  0  0  0  # atno 17343 bound_to 10162
  157.5114  130.7941  149.7709 LP  0  0  0  0  0  0  0  0  0  0  0  0  # atno 17370 bound_to 10713
  156.0042  130.3864  150.2491 LP  0  0  0  0  0  0  0  0  0  0  0  0  # atno 17371 bound_to 10713
  139.8720  134.9820  156.5139 LP  0  0  0  0  0  0  0  0  0  0  0  0  # atno 17394 bound_to 11000
  140.8453  133.8174  155.9115 LP  0  0  0  0  0  0  0  0  0  0  0  0  # atno 17395 bound_to 11000

$$$$
