AV-unprocessed.smi:3039|AV-procd|sdf|11594|dock1
  -GOLD-   2272016573D 1   1.00000     0.00000
 Structure written by MMmdl.
 38 39  0  0  0  0  0  0  0  0  1 V2000
  150.2028  140.2901  157.8855 O   0  0  0  0  0  0  0  0  0  0  0  0
  150.9021  141.0138  157.1767 C   0  0  0  0  0  0  0  0  0  0  0  0
  150.8661  140.8586  155.6563 C   0  0  0  0  0  0  0  0  0  0  0  0
  151.1312  139.4267  155.2773 C   0  0  0  0  0  0  0  0  0  0  0  0
  150.3491  138.5733  154.4499 C   0  0  0  0  0  0  0  0  0  0  0  0
  151.0463  137.3999  154.4520 C   0  0  0  0  0  0  0  0  0  0  0  0
  152.1664  137.5139  155.2092 O   0  0  0  0  0  0  0  0  0  0  0  0
  152.2133  138.8119  155.7306 N   0  0  0  0  0  0  0  0  0  0  0  0
  151.7232  141.9589  157.6623 N   0  0  0  0  0  0  0  0  0  0  0  0
  151.9061  142.2884  159.0764 C   0  0  1  0  0  0  0  0  0  0  0  0
  153.2821  141.7600  159.5482 C   0  0  0  0  0  0  0  0  0  0  0  0
  153.3166  141.4034  161.0458 C   0  0  0  0  0  0  0  0  0  0  0  0
  153.3708  142.6024  162.0015 C   0  0  0  0  0  0  0  0  0  0  0  0
  152.2266  143.6110  161.8218 C   0  0  0  0  0  0  0  0  0  0  0  0
  152.3583  144.4213  160.5222 C   0  0  0  0  0  0  0  0  0  0  0  0
  151.6683  143.8156  159.2775 C   0  0  2  0  0  0  0  0  0  0  0  0
  150.1610  144.1739  159.2820 C   0  0  0  0  0  0  0  0  0  0  0  0
  149.9425  145.5692  159.3186 O   0  0  0  0  0  0  0  0  0  0  0  0
  149.8896  141.1729  155.2862 H   0  0  0  0  0  0  0  0  0  0  0  0
  151.5982  141.5283  155.2024 H   0  0  0  0  0  0  0  0  0  0  0  0
  149.4214  138.7885  153.9410 H   0  0  0  0  0  0  0  0  0  0  0  0
  150.8841  136.4393  153.9854 H   0  0  0  0  0  0  0  0  0  0  0  0
  152.2578  142.5025  156.9999 H   0  0  0  0  0  0  0  0  0  0  0  0
  151.1389  141.7588  159.6441 H   0  0  0  0  0  0  0  0  0  0  0  0
  153.5137  140.8407  159.0080 H   0  0  0  0  0  0  0  0  0  0  0  0
  154.0811  142.4554  159.2889 H   0  0  0  0  0  0  0  0  0  0  0  0
  152.4599  140.7753  161.2932 H   0  0  0  0  0  0  0  0  0  0  0  0
  154.1946  140.7847  161.2337 H   0  0  0  0  0  0  0  0  0  0  0  0
  153.3481  142.2259  163.0248 H   0  0  0  0  0  0  0  0  0  0  0  0
  154.3298  143.1114  161.8972 H   0  0  0  0  0  0  0  0  0  0  0  0
  151.2550  143.1203  161.8872 H   0  0  0  0  0  0  0  0  0  0  0  0
  152.2658  144.3070  162.6606 H   0  0  0  0  0  0  0  0  0  0  0  0
  151.9638  145.4235  160.6935 H   0  0  0  0  0  0  0  0  0  0  0  0
  153.4149  144.5849  160.3064 H   0  0  0  0  0  0  0  0  0  0  0  0
  152.1160  144.3394  158.4306 H   0  0  0  0  0  0  0  0  0  0  0  0
  149.6591  143.7538  158.4101 H   0  0  0  0  0  0  0  0  0  0  0  0
  149.6682  143.7553  160.1599 H   0  0  0  0  0  0  0  0  0  0  0  0
  149.2083  145.7727  158.7590 H   0  0  0  0  0  0  0  0  0  0  0  0
  1  2  2  0  0  0  0
  2  3  1  0  0  0  0
  2  9  1  0  0  0  0
  3  4  1  0  0  0  0
  3 19  1  0  0  0  0
  3 20  1  0  0  0  0
  4  8  2  0  0  0  0
  4  5  1  0  0  0  0
  5  6  2  0  0  0  0
  5 21  1  0  0  0  0
  6  7  1  0  0  0  0
  6 22  1  0  0  0  0
  7  8  1  0  0  0  0
  9 10  1  0  0  0  0
  9 23  1  0  0  0  0
 10 16  1  0  0  0  0
 10 11  1  0  0  0  0
 10 24  1  0  0  0  0
 11 12  1  0  0  0  0
 11 25  1  0  0  0  0
 11 26  1  0  0  0  0
 12 13  1  0  0  0  0
 12 27  1  0  0  0  0
 12 28  1  0  0  0  0
 13 14  1  0  0  0  0
 13 29  1  0  0  0  0
 13 30  1  0  0  0  0
 14 15  1  0  0  0  0
 14 31  1  0  0  0  0
 14 32  1  0  0  0  0
 15 16  1  0  0  0  0
 15 33  1  0  0  0  0
 15 34  1  0  0  0  0
 16 17  1  0  0  0  0
 16 35  1  0  0  0  0
 17 18  1  0  0  0  0
 17 36  1  0  0  0  0
 17 37  1  0  0  0  0
 18 38  1  0  0  0  0
M  END
> <s_m_source_file>
AV-unprocessed.smi

> <i_m_source_file_index>
3039

> <i_lp_mmshare_version>
43012

> <i_f3d_flags>
0

> <s_epik_input>
bjFvW2NIXVtjSF1jMVtDSDJdQyg9TylbTkhdW0NAQEhdMltDSDJdW0NIMl1bQ0gyXVtDSDJdW0NIMl1bQ0BIXTJbQ0gyXVtPSF0=

> <s_epik_cmdline>
J2VwaWtfcHl0aG9uJywgJy1waCcsICc3LjAnLCAnLXRuJywgJzgnLCAnLW1hJywgJzIwMCcsICctbWV0YWxfYmluZGluZycsICctaW1hZScsICc8aW5maWxlLm1hZT4nLCAnLW9tYWUnLCAnPG91dGZpbGUubWFlPic=

> <r_lp_tautomer_probability>
1

> <r_epik_Ionization_Penalty>
3.05817e-07

> <r_epik_Ionization_Penalty_Charging>
0

> <r_epik_Ionization_Penalty_Neutral>
3.05817e-07

> <r_epik_State_Penalty>
-0

> <r_epik_Charging_Adjusted_Penalty>
0

> <i_epik_Tot_Q>
0

> <i_epik_Tot_abs_Q>
0

> <r_epik_Metal_State_Penalty>
-0

> <b_epik_Metal_Only>
0

> <s_lp_Force_Field>
OPLS_2005

> <r_lp_Energy>
18.8226

> <b_lp_Chiralities_Consistent>
1

> <s_lp_Variant>
AV-unprocessed.smi:3039-4

> <Gold.Version>
5.8.1

> <Gold.Id.Protein>
6NUR|6NUR_protein|mol2

> <Gold.PLP.Fitness>
47.2390

> <Gold.PLP.PLP>
-40.4507

> <Gold.PLP.part.hbond>
-3.0706

> <Gold.PLP.part.metal>
0.0000

> <Gold.PLP.part.buried>
-1.8694

> <Gold.PLP.part.nonpolar>
-34.4412

> <Gold.PLP.part.repulsive>
0.1147

> <Gold.PLP.ligand.clash>
0.0000

> <Gold.PLP.ligand.torsion>
0.1899

> <Gold.PLP.Chemscore.Hbond>
1.4210

> <Gold.PLP.Chemscore.CHOScore>
0.9521

> <Gold.PLP.Chemscore.Metal>
0.0000

> <Gold.Chemscore.Hbonds>
donor molecule, donor type, donor heavy atom, donor atom, acceptor molecule, acceptor atom, score
      L1  H    18    38       P1  8029  1.00
      P1  H 10752 10765       L1     7  0.45
      L1  C     6    22       P1  7948  0.05
      L1  C     6    22       P1  7949  0.76

> <Gold.PLP.Chemscore.Internal.Correction>
0.0488

> <Gold.Rescore>
     Score         DG    S(hbond)    S(metal)    S(lipo)     H(rot)  DE(clash)    DE(int)     intcor
     18.24     -18.53       1.75        0.00     110.95       2.26       0.12       0.17       ----

> <Gold.Chemscore.Fitness>
18.2419

> <Gold.Chemscore.DG>
-18.5292

> <Gold.Chemscore.ZeroCoef>
-5.4800

> <Gold.Chemscore.Hbond>
1.7537

> <Gold.Chemscore.Metal>
0.0000

> <Gold.Chemscore.Lipo>
110.9545

> <Gold.Chemscore.Internal_Hbond>
0.0000

> <Gold.Chemscore.DEClash>
0.1199

> <Gold.Chemscore.DEInternal>
0.1675

> <Gold.Chemscore.Rot>
2.2616

> <Gold.Chemscore.Internal.Correction>
   9.000000E+99

> <Gold.Chemscore.Hbonds>
donor molecule, donor type, donor heavy atom, donor atom, acceptor molecule, acceptor atom, score
      L1  H    18    38       P1  8029  0.98
      P1  H 10752 10765       L1     7  0.07

> <Gold.Chemscore.Hbond.Weighted>
-5.8572

> <Gold.Chemscore.Metal.Weighted>
-0.0000

> <Gold.Chemscore.Lipo.Weighted>
-12.9817

> <Gold.Chemscore.Internal_Hbond.Weighted>
0.0000

> <Gold.Chemscore.DEClash.Weighted>
0.1199

> <Gold.Chemscore.DEInternal.Weighted>
0.1675

> <Gold.Chemscore.Rot.Weighted>
5.7896

> <Gold.Chemscore.Internal.Correction.Weighted>
   9.000000E+99

> <Gold.Protein.RotatedTorsions>
[ 6907 6896 6895 6894 ] final -148.24 input  -60.11 | X-H torsion
[ 7974 7965 7964 7962 ] final   62.82 input  175.53 | X-H torsion
[ 8008 7997 7996 7995 ] final  -72.57 input   59.86 | X-H torsion
[ 10167 10162 10161 10158 ] final -114.05 input  -65.29 | X-H torsion
[ 10718 10713 10712 10709 ] final   20.04 input   66.30 | X-H torsion
[ 10763 10752 10751 10750 ] final -169.72 input  -60.55 | X-H torsion
[ 11005 11000 10999 10996 ] final -171.82 input  -57.11 | X-H torsion

> <Gold.Protein.ActiveResidues>
 VAL166  LYS551  ARG553  GLY616  TRP617  ASP618  TYR619  PRO620  LYS621  CYS622 
 ASP623  PHE694  ASN695  SER759  ASP760  ASP761  ALA762  ILE779  LEU786  VAL792 
 PHE793  MET794  SER795  GLU796  ALA797  LYS798  CYS799  TRP800  GLU811  SER814 

> <Gold.Protein.RotatedAtoms>
  151.1670  133.4808  159.2593 H   0  0  0  0  0  0  0  0  0  0  0  0  # atno 6907 bound_to 6896
  151.1395  135.0172  159.8629 H   0  0  0  0  0  0  0  0  0  0  0  0  # atno 6908 bound_to 6896
  152.5462  134.1565  159.8593 H   0  0  0  0  0  0  0  0  0  0  0  0  # atno 6909 bound_to 6896
  145.8689  139.3364  143.0774 H   0  0  0  0  0  0  0  0  0  0  0  0  # atno 7974 bound_to 7965
  154.5177  140.0795  156.8112 H   0  0  0  0  0  0  0  0  0  0  0  0  # atno 8008 bound_to 7997
  155.3645  140.3419  155.4223 H   0  0  0  0  0  0  0  0  0  0  0  0  # atno 8009 bound_to 7997
  156.1646  140.1599  156.8541 H   0  0  0  0  0  0  0  0  0  0  0  0  # atno 8010 bound_to 7997
  140.1052  143.4577  152.1787 H   0  0  0  0  0  0  0  0  0  0  0  0  # atno 10167 bound_to 10162
  157.1189  130.6541  149.5918 H   0  0  0  0  0  0  0  0  0  0  0  0  # atno 10718 bound_to 10713
  154.6492  135.2909  155.0008 H   0  0  0  0  0  0  0  0  0  0  0  0  # atno 10763 bound_to 10752
  154.1107  135.6563  153.4888 H   0  0  0  0  0  0  0  0  0  0  0  0  # atno 10764 bound_to 10752
  153.0367  135.5264  154.7393 H   0  0  0  0  0  0  0  0  0  0  0  0  # atno 10765 bound_to 10752
  140.5039  134.5867  157.4997 H   0  0  0  0  0  0  0  0  0  0  0  0  # atno 11005 bound_to 11000
  145.9160  140.9148  143.0429 LP  0  0  0  0  0  0  0  0  0  0  0  0  # atno 17320 bound_to 7965
  144.6726  140.1224  143.7449 LP  0  0  0  0  0  0  0  0  0  0  0  0  # atno 17321 bound_to 7965
  139.5649  144.7429  151.4049 LP  0  0  0  0  0  0  0  0  0  0  0  0  # atno 17342 bound_to 10162
  140.6956  143.7756  150.7322 LP  0  0  0  0  0  0  0  0  0  0  0  0  # atno 17343 bound_to 10162
  155.9833  130.4851  150.6925 LP  0  0  0  0  0  0  0  0  0  0  0  0  # atno 17370 bound_to 10713
  157.4493  131.0870  151.0862 LP  0  0  0  0  0  0  0  0  0  0  0  0  # atno 17371 bound_to 10713
  139.9697  134.7313  156.0066 LP  0  0  0  0  0  0  0  0  0  0  0  0  # atno 17394 bound_to 11000
  141.1421  133.6563  156.3760 LP  0  0  0  0  0  0  0  0  0  0  0  0  # atno 17395 bound_to 11000

$$$$
