AV-unprocessed.smi:59|AV-procd|sdf|589|dock2
  -GOLD-   2262016483D 1   1.00000     0.00000
 Structure written by MMmdl.
 29 30  0  0  0  0  0  0  0  0  2 V2000
  148.1213  141.6362  154.5677 C   0  0  0  0  0  0  0  0  0  0  0  0
  148.9021  140.4048  154.6321 N   0  0  0  0  0  0  0  0  0  0  0  0
  148.4170  139.1569  154.5797 C   0  0  0  0  0  0  0  0  0  0  0  0
  147.2311  138.8390  154.4921 O   0  0  0  0  0  0  0  0  0  0  0  0
  149.5410  138.1371  154.6573 C   0  0  2  0  0  0  0  0  0  0  0  0
  149.5199  137.5378  155.9418 O   0  0  0  0  0  0  0  0  0  0  0  0
  150.7837  139.0104  154.3466 C   0  0  2  0  0  0  0  0  0  0  0  0
  152.1386  138.4992  154.8906 C   0  0  0  0  0  0  0  0  0  0  0  0
  152.1846  137.3460  155.3733 O   0  0  0  0  0  0  0  0  0  0  0  0
  153.1362  139.2365  154.7291 O   0  5  0  0  0  0  0  0  0  0  0  0
  150.3581  140.4583  154.7311 C   0  0  2  0  0  0  0  0  0  0  0  0
  150.7964  140.9246  156.1075 C   0  0  0  0  0  0  0  0  0  0  0  0
  151.1485  140.1145  157.2257 C   0  0  0  0  0  0  0  0  0  0  0  0
  151.4979  140.8207  158.2887 N   0  0  0  0  0  0  0  0  0  0  0  0
  151.3767  142.1034  157.8917 N   0  0  0  0  0  0  0  0  0  0  0  0
  151.6775  143.1697  158.8221 C   0  0  0  0  0  0  0  0  0  0  0  0
  150.9582  142.1972  156.5826 C   0  0  0  0  0  0  0  0  0  0  0  0
  149.4065  137.3663  153.8977 H   0  0  0  0  0  0  0  0  0  0  0  0
  150.8938  138.9961  153.2607 H   0  0  0  0  0  0  0  0  0  0  0  0
  150.7270  141.1454  153.9679 H   0  0  0  0  0  0  0  0  0  0  0  0
  147.0479  141.4459  154.5345 H   0  0  0  0  0  0  0  0  0  0  0  0
  148.3903  142.2037  153.6768 H   0  0  0  0  0  0  0  0  0  0  0  0
  148.3218  142.2585  155.4400 H   0  0  0  0  0  0  0  0  0  0  0  0
  148.6870  137.7283  156.3448 H   0  0  0  0  0  0  0  0  0  0  0  0
  151.1592  139.0366  157.2932 H   0  0  0  0  0  0  0  0  0  0  0  0
  151.6504  144.1317  158.3097 H   0  0  0  0  0  0  0  0  0  0  0  0
  152.6712  143.0222  159.2464 H   0  0  0  0  0  0  0  0  0  0  0  0
  150.9404  143.1744  159.6256 H   0  0  0  0  0  0  0  0  0  0  0  0
  150.8087  143.1517  156.1001 H   0  0  0  0  0  0  0  0  0  0  0  0
  1  2  1  0  0  0  0
  1 21  1  0  0  0  0
  1 22  1  0  0  0  0
  1 23  1  0  0  0  0
  2 11  1  0  0  0  0
  2  3  1  0  0  0  0
  3  4  2  0  0  0  0
  3  5  1  0  0  0  0
  5 18  1  0  0  0  0
  5  6  1  0  0  0  0
  5  7  1  0  0  0  0
  6 24  1  0  0  0  0
  7 19  1  0  0  0  0
  7  8  1  0  0  0  0
  7 11  1  0  0  0  0
  8  9  2  0  0  0  0
  8 10  1  0  0  0  0
 11 20  1  0  0  0  0
 11 12  1  0  0  0  0
 12 17  2  0  0  0  0
 12 13  1  0  0  0  0
 13 14  2  0  0  0  0
 13 25  1  0  0  0  0
 14 15  1  0  0  0  0
 15 16  1  0  0  0  0
 15 17  1  0  0  0  0
 16 26  1  0  0  0  0
 16 27  1  0  0  0  0
 16 28  1  0  0  0  0
 17 29  1  0  0  0  0
M  CHG  1  10  -1
M  END
> <s_m_source_file>
AV-unprocessed.smi

> <i_m_source_file_index>
59

> <i_lp_mmshare_version>
43012

> <i_f3d_flags>
0

> <s_epik_input>
W0NIM11OMUMoPU8pW0NASF0oW09IXSlbQ0BIXShDKD1PKVtPSF0pW0NASF0xYzJbY0hdbm4oW0NIM10pW2NIXTI=

> <s_epik_cmdline>
J2VwaWtfcHl0aG9uJywgJy1waCcsICc3LjAnLCAnLXRuJywgJzgnLCAnLW1hJywgJzIwMCcsICctbWV0YWxfYmluZGluZycsICctaW1hZScsICc8aW5maWxlLm1hZT4nLCAnLW9tYWUnLCAnPG91dGZpbGUubWFlPic=

> <r_lp_tautomer_probability>
1

> <r_epik_Ionization_Penalty>
0.00173515

> <r_epik_Ionization_Penalty_Charging>
0.00120567

> <r_epik_Ionization_Penalty_Neutral>
0.000529476

> <r_epik_State_Penalty>
-0

> <r_epik_Charging_Adjusted_Penalty>
0.00120567

> <i_epik_Tot_Q>
-1

> <i_epik_Tot_abs_Q>
1

> <r_epik_Metal_State_Penalty>
-0

> <b_epik_Metal_Only>
0

> <s_lp_Force_Field>
OPLS_2005

> <r_lp_Energy>
8.48109

> <b_lp_Chiralities_Consistent>
1

> <s_lp_Variant>
AV-unprocessed.smi:59-5

> <Gold.Version>
5.8.1

> <Gold.Id.Protein>
6NUR|6NUR_protein|mol2

> <Gold.PLP.Fitness>
41.9995

> <Gold.PLP.PLP>
-29.8702

> <Gold.PLP.part.hbond>
-2.5073

> <Gold.PLP.part.metal>
0.0000

> <Gold.PLP.part.buried>
-2.1713

> <Gold.PLP.part.nonpolar>
-26.1804

> <Gold.PLP.part.repulsive>
0.1633

> <Gold.PLP.ligand.clash>
0.0000

> <Gold.PLP.ligand.torsion>
0.8687

> <Gold.PLP.Chemscore.Hbond>
3.6000

> <Gold.PLP.Chemscore.CHOScore>
1.0000

> <Gold.PLP.Chemscore.Metal>
0.0000

> <Gold.Chemscore.Hbonds>
donor molecule, donor type, donor heavy atom, donor atom, acceptor molecule, acceptor atom, score
      P1  H  7997  8008       L1    10  1.95
      P1  H 10752 10765       L1     9  1.56
      L1  C    17    29       P1  8028  1.00

> <Gold.PLP.Chemscore.Internal.Correction>
0.0667

> <Gold.Rescore>
     Score         DG    S(hbond)    S(metal)    S(lipo)     H(rot)  DE(clash)    DE(int)     intcor
      8.81     -12.66       1.77        0.00      56.12       2.06       0.42       3.43       ----

> <Gold.Chemscore.Fitness>
8.8092

> <Gold.Chemscore.DG>
-12.6603

> <Gold.Chemscore.ZeroCoef>
-5.4800

> <Gold.Chemscore.Hbond>
1.7657

> <Gold.Chemscore.Metal>
0.0000

> <Gold.Chemscore.Lipo>
56.1239

> <Gold.Chemscore.Internal_Hbond>
0.0000

> <Gold.Chemscore.DEClash>
0.4241

> <Gold.Chemscore.DEInternal>
3.4269

> <Gold.Chemscore.Rot>
2.0639

> <Gold.Chemscore.Internal.Correction>
   9.000000E+99

> <Gold.Chemscore.Hbonds>
donor molecule, donor type, donor heavy atom, donor atom, acceptor molecule, acceptor atom, score
      P1  H  7997  8008       L1    10  0.89
      P1  H 10752 10765       L1     9  0.73

> <Gold.Chemscore.Hbond.Weighted>
-5.8974

> <Gold.Chemscore.Metal.Weighted>
-0.0000

> <Gold.Chemscore.Lipo.Weighted>
-6.5665

> <Gold.Chemscore.Internal_Hbond.Weighted>
0.0000

> <Gold.Chemscore.DEClash.Weighted>
0.4241

> <Gold.Chemscore.DEInternal.Weighted>
3.4269

> <Gold.Chemscore.Rot.Weighted>
5.2837

> <Gold.Chemscore.Internal.Correction.Weighted>
   9.000000E+99

> <Gold.Protein.RotatedTorsions>
[ 6907 6896 6895 6894 ] final -113.08 input  -60.11 | X-H torsion
[ 7974 7965 7964 7962 ] final  -80.45 input  175.53 | X-H torsion
[ 8008 7997 7996 7995 ] final    5.83 input   59.86 | X-H torsion
[ 10167 10162 10161 10158 ] final  166.38 input  -65.29 | X-H torsion
[ 10718 10713 10712 10709 ] final -140.96 input   66.30 | X-H torsion
[ 10763 10752 10751 10750 ] final -175.61 input  -60.55 | X-H torsion
[ 11005 11000 10999 10996 ] final   29.52 input  -57.11 | X-H torsion

> <Gold.Protein.ActiveResidues>
 VAL166  LYS551  ARG553  GLY616  TRP617  ASP618  TYR619  PRO620  LYS621  CYS622 
 ASP623  PHE694  ASN695  SER759  ASP760  ASP761  ALA762  ILE779  LEU786  VAL792 
 PHE793  MET794  SER795  GLU796  ALA797  LYS798  CYS799  TRP800  GLU811  SER814 

> <Gold.Protein.RotatedAtoms>
  150.7804  133.8996  159.3337 H   0  0  0  0  0  0  0  0  0  0  0  0  # atno 6907 bound_to 6896
  151.6860  135.0952  160.0234 H   0  0  0  0  0  0  0  0  0  0  0  0  # atno 6908 bound_to 6896
  152.3853  133.6564  159.6229 H   0  0  0  0  0  0  0  0  0  0  0  0  # atno 6909 bound_to 6896
  145.5598  140.9484  143.1453 H   0  0  0  0  0  0  0  0  0  0  0  0  # atno 7974 bound_to 7965
  154.7333  140.2735  155.6436 H   0  0  0  0  0  0  0  0  0  0  0  0  # atno 8008 bound_to 7997
  156.2855  140.2711  156.1965 H   0  0  0  0  0  0  0  0  0  0  0  0  # atno 8009 bound_to 7997
  155.0353  140.0371  157.2479 H   0  0  0  0  0  0  0  0  0  0  0  0  # atno 8010 bound_to 7997
  139.4923  144.4034  151.9383 H   0  0  0  0  0  0  0  0  0  0  0  0  # atno 10167 bound_to 10162
  156.3285  130.7573  151.1686 H   0  0  0  0  0  0  0  0  0  0  0  0  # atno 10718 bound_to 10713
  154.5823  135.2837  155.0720 H   0  0  0  0  0  0  0  0  0  0  0  0  # atno 10763 bound_to 10752
  154.2052  135.6417  153.5102 H   0  0  0  0  0  0  0  0  0  0  0  0  # atno 10764 bound_to 10752
  153.0092  135.5478  154.6481 H   0  0  0  0  0  0  0  0  0  0  0  0  # atno 10765 bound_to 10752
  140.3041  134.2723  155.7747 H   0  0  0  0  0  0  0  0  0  0  0  0  # atno 11005 bound_to 11000
  144.7488  139.7248  143.7281 LP  0  0  0  0  0  0  0  0  0  0  0  0  # atno 17320 bound_to 7965
  146.1859  139.5074  142.9836 LP  0  0  0  0  0  0  0  0  0  0  0  0  # atno 17321 bound_to 7965
  140.3473  144.3131  150.5955 LP  0  0  0  0  0  0  0  0  0  0  0  0  # atno 17342 bound_to 10162
  140.5515  143.2206  151.7919 LP  0  0  0  0  0  0  0  0  0  0  0  0  # atno 17343 bound_to 10162
  157.7426  131.0488  150.5013 LP  0  0  0  0  0  0  0  0  0  0  0  0  # atno 17370 bound_to 10713
  156.5176  130.4154  149.6268 LP  0  0  0  0  0  0  0  0  0  0  0  0  # atno 17371 bound_to 10713
  141.2122  133.7665  156.9811 LP  0  0  0  0  0  0  0  0  0  0  0  0  # atno 17394 bound_to 11000
  140.1083  134.9493  157.2027 LP  0  0  0  0  0  0  0  0  0  0  0  0  # atno 17395 bound_to 11000

$$$$
