AV-unprocessed.smi:3292|AV-procd|sdf|12628|dock6
  -GOLD-   2272018563D 1   1.00000     0.00000
 Structure written by MMmdl.
 38 39  0  0  0  0  0  0  0  0  1 V2000
  145.2856  135.7816  151.3466 C   0  0  0  0  0  0  0  0  0  0  0  0
  145.8227  134.9653  152.5336 C   0  0  1  0  0  0  0  0  0  0  0  0
  146.2274  133.5256  152.1486 C   0  0  0  0  0  0  0  0  0  0  0  0
  145.2580  132.8834  151.2817 N   0  0  0  0  0  0  0  0  0  0  0  0
  143.8920  133.1273  151.2313 C   0  0  0  0  0  0  0  0  0  0  0  0
  143.3780  132.2874  150.2693 C   0  0  0  0  0  0  0  0  0  0  0  0
  144.4031  131.5197  149.7213 N   0  0  0  0  0  0  0  0  0  0  0  0
  145.4857  131.9259  150.3720 C   0  0  0  0  0  0  0  0  0  0  0  0
  146.9619  135.6642  153.1217 N   0  0  0  0  0  0  0  0  0  0  0  0
  147.0019  136.1647  154.3649 C   0  0  0  0  0  0  0  0  0  0  0  0
  146.0653  136.1066  155.1618 O   0  0  0  0  0  0  0  0  0  0  0  0
  148.1888  136.7246  154.6381 N   0  0  0  0  0  0  0  0  0  0  0  0
  148.5604  137.3392  155.9091 C   0  0  0  0  0  0  0  0  0  0  0  0
  149.7923  138.2534  155.7679 C   0  0  1  0  0  0  0  0  0  0  0  0
  150.9847  137.5774  155.1228 C   0  0  0  0  0  0  0  0  0  0  0  0
  151.8384  138.7713  154.7055 C   0  0  0  0  0  0  0  0  0  0  0  0
  150.9232  139.8270  154.4266 O   0  0  0  0  0  0  0  0  0  0  0  0
  149.6118  139.4582  154.8417 C   0  0  0  0  0  0  0  0  0  0  0  0
  144.3770  135.3404  150.9362 H   0  0  0  0  0  0  0  0  0  0  0  0
  146.0196  135.8423  150.5425 H   0  0  0  0  0  0  0  0  0  0  0  0
  145.0397  136.7997  151.6508 H   0  0  0  0  0  0  0  0  0  0  0  0
  145.0257  134.9145  153.2780 H   0  0  0  0  0  0  0  0  0  0  0  0
  147.1965  133.5249  151.6472 H   0  0  0  0  0  0  0  0  0  0  0  0
  146.3385  132.9083  153.0410 H   0  0  0  0  0  0  0  0  0  0  0  0
  143.4131  133.8590  151.8655 H   0  0  0  0  0  0  0  0  0  0  0  0
  142.3576  132.1762  149.9337 H   0  0  0  0  0  0  0  0  0  0  0  0
  146.4679  131.5202  150.1791 H   0  0  0  0  0  0  0  0  0  0  0  0
  147.7827  135.7630  152.5422 H   0  0  0  0  0  0  0  0  0  0  0  0
  148.8930  136.7202  153.9148 H   0  0  0  0  0  0  0  0  0  0  0  0
  147.7094  137.9290  156.2506 H   0  0  0  0  0  0  0  0  0  0  0  0
  148.7287  136.5786  156.6735 H   0  0  0  0  0  0  0  0  0  0  0  0
  150.0928  138.6114  156.7542 H   0  0  0  0  0  0  0  0  0  0  0  0
  151.5082  136.8962  155.7942 H   0  0  0  0  0  0  0  0  0  0  0  0
  150.6731  137.0157  154.2407 H   0  0  0  0  0  0  0  0  0  0  0  0
  152.4843  139.0825  155.5274 H   0  0  0  0  0  0  0  0  0  0  0  0
  152.4686  138.5510  153.8437 H   0  0  0  0  0  0  0  0  0  0  0  0
  149.0381  139.1824  153.9558 H   0  0  0  0  0  0  0  0  0  0  0  0
  149.1018  140.2895  155.3291 H   0  0  0  0  0  0  0  0  0  0  0  0
  1  2  1  0  0  0  0
  1 19  1  0  0  0  0
  1 20  1  0  0  0  0
  1 21  1  0  0  0  0
  2  3  1  0  0  0  0
  2  9  1  0  0  0  0
  2 22  1  0  0  0  0
  3  4  1  0  0  0  0
  3 23  1  0  0  0  0
  3 24  1  0  0  0  0
  4  8  1  0  0  0  0
  4  5  1  0  0  0  0
  5  6  2  0  0  0  0
  5 25  1  0  0  0  0
  6  7  1  0  0  0  0
  6 26  1  0  0  0  0
  7  8  2  0  0  0  0
  8 27  1  0  0  0  0
  9 10  1  0  0  0  0
  9 28  1  0  0  0  0
 10 11  2  0  0  0  0
 10 12  1  0  0  0  0
 12 13  1  0  0  0  0
 12 29  1  0  0  0  0
 13 14  1  0  0  0  0
 13 30  1  0  0  0  0
 13 31  1  0  0  0  0
 14 18  1  0  0  0  0
 14 15  1  0  0  0  0
 14 32  1  0  0  0  0
 15 16  1  0  0  0  0
 15 33  1  0  0  0  0
 15 34  1  0  0  0  0
 16 17  1  0  0  0  0
 16 35  1  0  0  0  0
 16 36  1  0  0  0  0
 17 18  1  0  0  0  0
 18 37  1  0  0  0  0
 18 38  1  0  0  0  0
M  END
> <s_m_source_file>
AV-unprocessed.smi

> <i_m_source_file_index>
3292

> <i_lp_mmshare_version>
43012

> <i_f3d_flags>
0

> <s_epik_input>
W2NIXTFuW2NIXVtjSF1uMVtDSDJdW0NAQEhdKFtDSDNdKVtOSF1DKD1PKVtOSF1bQ0gyXVtDQEBIXTJbQ0gyXVtDSDJdT1tDSDJdMg==

> <s_epik_cmdline>
J2VwaWtfcHl0aG9uJywgJy1waCcsICc3LjAnLCAnLXRuJywgJzgnLCAnLW1hJywgJzIwMCcsICctbWV0YWxfYmluZGluZycsICctaW1hZScsICc8aW5maWxlLm1hZT4nLCAnLW9tYWUnLCAnPG91dGZpbGUubWFlPic=

> <r_lp_tautomer_probability>
1

> <r_epik_Ionization_Penalty>
0.621291

> <r_epik_Ionization_Penalty_Charging>
0.621234

> <r_epik_Ionization_Penalty_Neutral>
5.72199e-05

> <r_epik_State_Penalty>
0.637278

> <r_epik_Charging_Adjusted_Penalty>
1.25851

> <i_epik_Tot_Q>
0

> <i_epik_Tot_abs_Q>
0

> <r_epik_Metal_State_Penalty>
0.306757

> <b_epik_Metal_Only>
0

> <s_lp_Force_Field>
OPLS_2005

> <r_lp_Energy>
18.205

> <b_lp_Chiralities_Consistent>
1

> <s_lp_Variant>
AV-unprocessed.smi:3292-8

> <Gold.Version>
5.8.1

> <Gold.Id.Protein>
6NUR|6NUR_protein|mol2

> <Gold.PLP.Fitness>
43.3035

> <Gold.PLP.PLP>
-28.6175

> <Gold.PLP.part.hbond>
-3.4839

> <Gold.PLP.part.metal>
0.0000

> <Gold.PLP.part.buried>
-3.3768

> <Gold.PLP.part.nonpolar>
-22.9335

> <Gold.PLP.part.repulsive>
0.2928

> <Gold.PLP.ligand.clash>
0.0000

> <Gold.PLP.ligand.torsion>
0.6223

> <Gold.PLP.Chemscore.Hbond>
2.8251

> <Gold.PLP.Chemscore.CHOScore>
2.4638

> <Gold.PLP.Chemscore.Metal>
0.0000

> <Gold.Chemscore.Hbonds>
donor molecule, donor type, donor heavy atom, donor atom, acceptor molecule, acceptor atom, score
      L1  H     9    28       P1  7948  0.71
      L1  H    12    29       P1  7948  0.61
      P1  H  7989  7998       L1    17  1.00
      P1  H 10785 10796       L1     7  0.41
      L1  C     6    26       P1 10186  0.54
      L1  C     6    26       P1 10952  1.00
      L1  C     8    27       P1 10747  0.86

> <Gold.PLP.Chemscore.Internal.Correction>
0.0640

> <Gold.Rescore>
     Score         DG    S(hbond)    S(metal)    S(lipo)     H(rot)  DE(clash)    DE(int)     intcor
     17.07     -17.87       3.43        0.00      55.17       2.16       0.24       0.56       ----

> <Gold.Chemscore.Fitness>
17.0722

> <Gold.Chemscore.DG>
-17.8722

> <Gold.Chemscore.ZeroCoef>
-5.4800

> <Gold.Chemscore.Hbond>
3.4315

> <Gold.Chemscore.Metal>
0.0000

> <Gold.Chemscore.Lipo>
55.1686

> <Gold.Chemscore.Internal_Hbond>
0.0000

> <Gold.Chemscore.DEClash>
0.2357

> <Gold.Chemscore.DEInternal>
0.5643

> <Gold.Chemscore.Rot>
2.1577

> <Gold.Chemscore.Internal.Correction>
   9.000000E+99

> <Gold.Chemscore.Hbonds>
donor molecule, donor type, donor heavy atom, donor atom, acceptor molecule, acceptor atom, score
      L1  H     9    28       P1  7948  0.71
      L1  H    12    29       P1  7948  0.61
      P1  H  7989  7998       L1    17  0.63
      P1  H 10785 10796       L1     7  0.08

> <Gold.Chemscore.Hbond.Weighted>
-11.4612

> <Gold.Chemscore.Metal.Weighted>
-0.0000

> <Gold.Chemscore.Lipo.Weighted>
-6.4547

> <Gold.Chemscore.Internal_Hbond.Weighted>
0.0000

> <Gold.Chemscore.DEClash.Weighted>
0.2357

> <Gold.Chemscore.DEInternal.Weighted>
0.5643

> <Gold.Chemscore.Rot.Weighted>
5.5237

> <Gold.Chemscore.Internal.Correction.Weighted>
   9.000000E+99

> <Gold.Protein.RotatedTorsions>
[ 6907 6896 6895 6894 ] final  179.39 input  -60.11 | X-H torsion
[ 7974 7965 7964 7962 ] final  -68.05 input  175.53 | X-H torsion
[ 8008 7997 7996 7995 ] final    6.67 input   59.86 | X-H torsion
[ 10167 10162 10161 10158 ] final  -28.99 input  -65.29 | X-H torsion
[ 10718 10713 10712 10709 ] final -151.33 input   66.30 | X-H torsion
[ 10763 10752 10751 10750 ] final  165.96 input  -60.55 | X-H torsion
[ 11005 11000 10999 10996 ] final  173.52 input  -57.11 | X-H torsion

> <Gold.Protein.ActiveResidues>
 VAL166  LYS551  ARG553  GLY616  TRP617  ASP618  TYR619  PRO620  LYS621  CYS622 
 ASP623  PHE694  ASN695  SER759  ASP760  ASP761  ALA762  ILE779  LEU786  VAL792 
 PHE793  MET794  SER795  GLU796  ALA797  LYS798  CYS799  TRP800  GLU811  SER814 

> <Gold.Protein.RotatedAtoms>
  151.6723  133.3313  159.3199 H   0  0  0  0  0  0  0  0  0  0  0  0  # atno 6907 bound_to 6896
  150.7862  134.6851  159.6475 H   0  0  0  0  0  0  0  0  0  0  0  0  # atno 6908 bound_to 6896
  152.3931  134.6412  160.0152 H   0  0  0  0  0  0  0  0  0  0  0  0  # atno 6909 bound_to 6896
  145.7215  140.9036  143.0628 H   0  0  0  0  0  0  0  0  0  0  0  0  # atno 7974 bound_to 7965
  154.7440  140.2754  155.6348 H   0  0  0  0  0  0  0  0  0  0  0  0  # atno 8008 bound_to 7997
  156.2880  140.2691  156.2102 H   0  0  0  0  0  0  0  0  0  0  0  0  # atno 8009 bound_to 7997
  155.0221  140.0371  157.2431 H   0  0  0  0  0  0  0  0  0  0  0  0  # atno 8010 bound_to 7997
  140.7265  143.3964  151.1339 H   0  0  0  0  0  0  0  0  0  0  0  0  # atno 10167 bound_to 10162
  156.4578  130.8199  151.2430 H   0  0  0  0  0  0  0  0  0  0  0  0  # atno 10718 bound_to 10713
  154.3319  135.2754  155.2467 H   0  0  0  0  0  0  0  0  0  0  0  0  # atno 10763 bound_to 10752
  154.4775  135.5867  153.6369 H   0  0  0  0  0  0  0  0  0  0  0  0  # atno 10764 bound_to 10752
  152.9865  135.6103  154.3512 H   0  0  0  0  0  0  0  0  0  0  0  0  # atno 10765 bound_to 10752
  140.3414  134.7273  157.4205 H   0  0  0  0  0  0  0  0  0  0  0  0  # atno 11005 bound_to 11000
  144.6915  139.9208  143.7468 LP  0  0  0  0  0  0  0  0  0  0  0  0  # atno 17320 bound_to 7965
  146.0621  139.3614  143.0575 LP  0  0  0  0  0  0  0  0  0  0  0  0  # atno 17321 bound_to 7965
  139.7578  143.8682  152.3093 LP  0  0  0  0  0  0  0  0  0  0  0  0  # atno 17342 bound_to 10162
  139.8557  144.7142  150.9160 LP  0  0  0  0  0  0  0  0  0  0  0  0  # atno 17343 bound_to 10162
  157.7499  131.0117  150.3355 LP  0  0  0  0  0  0  0  0  0  0  0  0  # atno 17370 bound_to 10713
  156.3748  130.3870  149.7147 LP  0  0  0  0  0  0  0  0  0  0  0  0  # atno 17371 bound_to 10713
  140.0778  134.5773  155.8572 LP  0  0  0  0  0  0  0  0  0  0  0  0  # atno 17394 bound_to 11000
  141.2037  133.6634  156.6080 LP  0  0  0  0  0  0  0  0  0  0  0  0  # atno 17395 bound_to 11000

$$$$
