AV-unprocessed.smi:1302|AV-procd|sdf|5426|dock7
  -GOLD-   22720 4583D 1   1.00000     0.00000
 Structure written by MMmdl.
 43 44  0  0  0  0  0  0  0  0  1 V2000
  156.2315  135.2509  161.7166 C   0  0  0  0  0  0  0  0  0  0  0  0
  155.7026  136.2186  162.7844 C   0  0  0  0  0  0  0  0  0  0  0  0
  154.6889  135.5423  163.7169 C   0  0  0  0  0  0  0  0  0  0  0  0
  155.0792  137.3701  162.1381 N   0  0  0  0  0  0  0  0  0  0  0  0
  155.4394  138.6548  162.2968 C   0  0  0  0  0  0  0  0  0  0  0  0
  156.3369  139.0278  163.0524 O   0  0  0  0  0  0  0  0  0  0  0  0
  154.6227  139.6514  161.5275 C   0  0  0  0  0  0  0  0  0  0  0  0
  154.3698  140.9353  162.0567 C   0  0  0  0  0  0  0  0  0  0  0  0
  153.6174  141.8523  161.2978 C   0  0  0  0  0  0  0  0  0  0  0  0
  153.1536  141.4610  160.0251 C   0  0  0  0  0  0  0  0  0  0  0  0
  152.4003  142.3690  159.2681 N   0  0  0  0  0  0  0  0  0  0  0  0
  151.9799  141.8309  157.9825 C   0  0  0  0  0  0  0  0  0  0  0  0
  151.0124  142.8085  157.2907 C   0  0  2  0  0  0  0  0  0  0  0  0
  150.6422  142.3419  155.8792 C   0  0  0  0  0  0  0  0  0  0  0  0
  151.6256  144.0941  157.1842 O   0  0  0  0  0  0  0  0  0  0  0  0
  152.0568  144.6608  158.4247 C   0  0  1  0  0  0  0  0  0  0  0  0
  150.8737  145.1192  159.2965 C   0  0  0  0  0  0  0  0  0  0  0  0
  153.0106  143.6868  159.1439 C   0  0  0  0  0  0  0  0  0  0  0  0
  153.4011  140.2359  159.5039 N   0  0  0  0  0  0  0  0  0  0  0  0
  154.1194  139.3603  160.2389 C   0  0  0  0  0  0  0  0  0  0  0  0
  156.7101  134.3853  162.1756 H   0  0  0  0  0  0  0  0  0  0  0  0
  156.9711  135.7358  161.0786 H   0  0  0  0  0  0  0  0  0  0  0  0
  155.4270  134.8863  161.0770 H   0  0  0  0  0  0  0  0  0  0  0  0
  156.5471  136.5411  163.3954 H   0  0  0  0  0  0  0  0  0  0  0  0
  155.1330  134.6828  164.2198 H   0  0  0  0  0  0  0  0  0  0  0  0
  153.8144  135.1915  163.1676 H   0  0  0  0  0  0  0  0  0  0  0  0
  154.3447  136.2321  164.4883 H   0  0  0  0  0  0  0  0  0  0  0  0
  154.3105  137.1732  161.5137 H   0  0  0  0  0  0  0  0  0  0  0  0
  154.7382  141.2177  163.0322 H   0  0  0  0  0  0  0  0  0  0  0  0
  153.4037  142.8375  161.6862 H   0  0  0  0  0  0  0  0  0  0  0  0
  152.8559  141.6622  157.3540 H   0  0  0  0  0  0  0  0  0  0  0  0
  151.4960  140.8643  158.1283 H   0  0  0  0  0  0  0  0  0  0  0  0
  150.0938  142.8880  157.8727 H   0  0  0  0  0  0  0  0  0  0  0  0
  150.1620  141.3633  155.9018 H   0  0  0  0  0  0  0  0  0  0  0  0
  151.5255  142.2668  155.2444 H   0  0  0  0  0  0  0  0  0  0  0  0
  149.9510  143.0403  155.4068 H   0  0  0  0  0  0  0  0  0  0  0  0
  152.6255  145.5555  158.1700 H   0  0  0  0  0  0  0  0  0  0  0  0
  151.2285  145.6567  160.1760 H   0  0  0  0  0  0  0  0  0  0  0  0
  150.2714  144.2830  159.6512 H   0  0  0  0  0  0  0  0  0  0  0  0
  150.2196  145.7915  158.7414 H   0  0  0  0  0  0  0  0  0  0  0  0
  153.2770  144.0716  160.1292 H   0  0  0  0  0  0  0  0  0  0  0  0
  153.9370  143.6023  158.5739 H   0  0  0  0  0  0  0  0  0  0  0  0
  154.2974  138.4016  159.7740 H   0  0  0  0  0  0  0  0  0  0  0  0
  1  2  1  0  0  0  0
  1 21  1  0  0  0  0
  1 22  1  0  0  0  0
  1 23  1  0  0  0  0
  2  3  1  0  0  0  0
  2  4  1  0  0  0  0
  2 24  1  0  0  0  0
  3 25  1  0  0  0  0
  3 26  1  0  0  0  0
  3 27  1  0  0  0  0
  4  5  1  0  0  0  0
  4 28  1  0  0  0  0
  5  6  2  0  0  0  0
  5  7  1  0  0  0  0
  7 20  1  0  0  0  0
  7  8  2  0  0  0  0
  8  9  1  0  0  0  0
  8 29  1  0  0  0  0
  9 10  2  0  0  0  0
  9 30  1  0  0  0  0
 10 11  1  0  0  0  0
 10 19  1  0  0  0  0
 11 18  1  0  0  0  0
 11 12  1  0  0  0  0
 12 13  1  0  0  0  0
 12 31  1  0  0  0  0
 12 32  1  0  0  0  0
 13 14  1  0  0  0  0
 13 15  1  0  0  0  0
 13 33  1  0  0  0  0
 14 34  1  0  0  0  0
 14 35  1  0  0  0  0
 14 36  1  0  0  0  0
 15 16  1  0  0  0  0
 16 17  1  0  0  0  0
 16 18  1  0  0  0  0
 16 37  1  0  0  0  0
 17 38  1  0  0  0  0
 17 39  1  0  0  0  0
 17 40  1  0  0  0  0
 18 41  1  0  0  0  0
 18 42  1  0  0  0  0
 19 20  2  0  0  0  0
 20 43  1  0  0  0  0
M  END
> <s_m_source_file>
AV-unprocessed.smi

> <i_m_source_file_index>
1302

> <i_lp_mmshare_version>
43012

> <i_f3d_flags>
0

> <s_epik_input>
W0NIM11bQ0hdKFtDSDNdKVtOSF1DKD1PKWMxW2NIXVtjSF1jKG5bY0hdMSlOMltDSDJdW0NAQEhdKFtDSDNdKU9bQ0BASF0oW0NIM10pW0NIMl0y

> <s_epik_cmdline>
J2VwaWtfcHl0aG9uJywgJy1waCcsICc3LjAnLCAnLXRuJywgJzgnLCAnLW1hJywgJzIwMCcsICctbWV0YWxfYmluZGluZycsICctaW1hZScsICc8aW5maWxlLm1hZT4nLCAnLW9tYWUnLCAnPG91dGZpbGUubWFlPic=

> <r_lp_tautomer_probability>
1

> <r_epik_Ionization_Penalty>
2.23089e-05

> <r_epik_Ionization_Penalty_Charging>
0

> <r_epik_Ionization_Penalty_Neutral>
2.23089e-05

> <r_epik_State_Penalty>
-0

> <r_epik_Charging_Adjusted_Penalty>
0

> <i_epik_Tot_Q>
0

> <i_epik_Tot_abs_Q>
0

> <r_epik_Metal_State_Penalty>
-0

> <b_epik_Metal_Only>
0

> <s_lp_Force_Field>
OPLS_2005

> <r_lp_Energy>
23.1748

> <b_lp_Chiralities_Consistent>
1

> <s_lp_Variant>
AV-unprocessed.smi:1302-2

> <Gold.Version>
5.8.1

> <Gold.Id.Protein>
6NUR|6NUR_protein|mol2

> <Gold.PLP.Fitness>
39.8564

> <Gold.PLP.PLP>
-40.8492

> <Gold.PLP.part.hbond>
0.0000

> <Gold.PLP.part.metal>
0.0000

> <Gold.PLP.part.buried>
-2.1166

> <Gold.PLP.part.nonpolar>
-38.9947

> <Gold.PLP.part.repulsive>
0.1348

> <Gold.PLP.ligand.clash>
0.0000

> <Gold.PLP.ligand.torsion>
0.5505

> <Gold.PLP.Chemscore.Hbond>
0.0000

> <Gold.PLP.Chemscore.CHOScore>
0.0000

> <Gold.PLP.Chemscore.Metal>
0.0000

> <Gold.PLP.Chemscore.Internal.Correction>
0.1083

> <Gold.Rescore>
     Score         DG    S(hbond)    S(metal)    S(lipo)     H(rot)  DE(clash)    DE(int)     intcor
     15.36     -16.06       0.00        0.00     115.60       1.15       0.10       0.60       ----

> <Gold.Chemscore.Fitness>
15.3612

> <Gold.Chemscore.DG>
-16.0590

> <Gold.Chemscore.ZeroCoef>
-5.4800

> <Gold.Chemscore.Hbond>
0.0000

> <Gold.Chemscore.Metal>
0.0000

> <Gold.Chemscore.Lipo>
115.5989

> <Gold.Chemscore.Internal_Hbond>
0.0000

> <Gold.Chemscore.DEClash>
0.0960

> <Gold.Chemscore.DEInternal>
0.6018

> <Gold.Chemscore.Rot>
1.1508

> <Gold.Chemscore.Internal.Correction>
   9.000000E+99

> <Gold.Chemscore.Hbond.Weighted>
-0.0000

> <Gold.Chemscore.Metal.Weighted>
-0.0000

> <Gold.Chemscore.Lipo.Weighted>
-13.5251

> <Gold.Chemscore.Internal_Hbond.Weighted>
0.0000

> <Gold.Chemscore.DEClash.Weighted>
0.0960

> <Gold.Chemscore.DEInternal.Weighted>
0.6018

> <Gold.Chemscore.Rot.Weighted>
2.9461

> <Gold.Chemscore.Internal.Correction.Weighted>
   9.000000E+99

> <Gold.Protein.RotatedTorsions>
[ 6907 6896 6895 6894 ] final  162.67 input  -60.11 | X-H torsion
[ 7974 7965 7964 7962 ] final  103.20 input  175.53 | X-H torsion
[ 8008 7997 7996 7995 ] final  177.02 input   59.86 | X-H torsion
[ 10167 10162 10161 10158 ] final  -61.85 input  -65.29 | X-H torsion
[ 10718 10713 10712 10709 ] final   20.55 input   66.30 | X-H torsion
[ 10763 10752 10751 10750 ] final    1.40 input  -60.55 | X-H torsion
[ 11005 11000 10999 10996 ] final -160.66 input  -57.11 | X-H torsion

> <Gold.Protein.ActiveResidues>
 VAL166  LYS551  ARG553  GLY616  TRP617  ASP618  TYR619  PRO620  LYS621  CYS622 
 ASP623  PHE694  ASN695  SER759  ASP760  ASP761  ALA762  ILE779  LEU786  VAL792 
 PHE793  MET794  SER795  GLU796  ALA797  LYS798  CYS799  TRP800  GLU811  SER814 

> <Gold.Protein.RotatedAtoms>
  151.9369  133.3627  159.3950 H   0  0  0  0  0  0  0  0  0  0  0  0  # atno 6907 bound_to 6896
  150.7006  134.4480  159.5332 H   0  0  0  0  0  0  0  0  0  0  0  0  # atno 6908 bound_to 6896
  152.2130  134.8484  160.0546 H   0  0  0  0  0  0  0  0  0  0  0  0  # atno 6909 bound_to 6896
  145.3491  139.2443  143.3568 H   0  0  0  0  0  0  0  0  0  0  0  0  # atno 7974 bound_to 7965
  156.0702  140.1369  156.9837 H   0  0  0  0  0  0  0  0  0  0  0  0  # atno 8008 bound_to 7997
  154.4528  140.0973  156.6719 H   0  0  0  0  0  0  0  0  0  0  0  0  # atno 8009 bound_to 7997
  155.5240  140.3457  155.4414 H   0  0  0  0  0  0  0  0  0  0  0  0  # atno 8010 bound_to 7997
  140.5979  143.2355  151.5995 H   0  0  0  0  0  0  0  0  0  0  0  0  # atno 10167 bound_to 10162
  157.1260  130.6570  149.5937 H   0  0  0  0  0  0  0  0  0  0  0  0  # atno 10718 bound_to 10713
  153.3084  135.6961  153.7138 H   0  0  0  0  0  0  0  0  0  0  0  0  # atno 10763 bound_to 10752
  153.6024  135.3459  155.2951 H   0  0  0  0  0  0  0  0  0  0  0  0  # atno 10764 bound_to 10752
  154.8569  135.4344  154.2216 H   0  0  0  0  0  0  0  0  0  0  0  0  # atno 10765 bound_to 10752
  140.6290  134.4671  157.5228 H   0  0  0  0  0  0  0  0  0  0  0  0  # atno 11005 bound_to 11000
  146.2975  140.4103  142.8716 LP  0  0  0  0  0  0  0  0  0  0  0  0  # atno 17320 bound_to 7965
  144.8731  140.7300  143.6034 LP  0  0  0  0  0  0  0  0  0  0  0  0  # atno 17321 bound_to 7965
  139.5270  144.3028  152.1059 LP  0  0  0  0  0  0  0  0  0  0  0  0  # atno 17342 bound_to 10162
  140.2204  144.4472  150.6345 LP  0  0  0  0  0  0  0  0  0  0  0  0  # atno 17343 bound_to 10162
  155.9818  130.4828  150.6847 LP  0  0  0  0  0  0  0  0  0  0  0  0  # atno 17370 bound_to 10713
  157.4434  131.0864  151.0920 LP  0  0  0  0  0  0  0  0  0  0  0  0  # atno 17371 bound_to 10713
  139.9123  134.8318  156.1484 LP  0  0  0  0  0  0  0  0  0  0  0  0  # atno 17394 bound_to 11000
  141.0689  133.6806  156.2099 LP  0  0  0  0  0  0  0  0  0  0  0  0  # atno 17395 bound_to 11000

$$$$
