AV-unprocessed.smi:2583|AV-procd|sdf|10140|dock9
  -GOLD-   2272014153D 1   1.00000     0.00000
 Structure written by MMmdl.
 54 56  0  0  0  0  0  0  0  0  2 V2000
  135.8879  139.6529  153.4905 C   0  0  0  0  0  0  0  0  0  0  0  0
  136.4675  138.6699  154.4862 C   0  0  0  0  0  0  0  0  0  0  0  0
  135.8196  138.4071  155.7106 C   0  0  0  0  0  0  0  0  0  0  0  0
  136.2904  137.5321  156.6236 N   0  0  0  0  0  0  0  0  0  0  0  0
  137.4431  136.8869  156.3454 C   0  0  0  0  0  0  0  0  0  0  0  0
  138.1843  137.0834  155.1612 C   0  0  0  0  0  0  0  0  0  0  0  0
  139.3784  136.3317  154.9915 N   0  0  0  0  0  0  0  0  0  0  0  0
  140.2832  136.4113  154.0007 C   0  0  0  0  0  0  0  0  0  0  0  0
  140.2177  137.1709  153.0345 O   0  0  0  0  0  0  0  0  0  0  0  0
  141.3004  135.5619  154.2035 N   0  0  0  0  0  0  0  0  0  0  0  0
  142.4608  135.4207  153.3288 C   0  0  0  0  0  0  0  0  0  0  0  0
  142.3704  134.1139  152.5374 C   0  0  0  0  0  0  0  0  0  0  0  0
  143.6346  133.8942  151.6886 C   0  0  0  0  0  0  0  0  0  0  0  0
  144.8501  133.8378  152.5188 N   0  0  0  0  0  0  0  0  0  0  0  0
  146.0496  133.5477  151.6987 C   0  0  2  0  0  0  0  0  0  0  0  0
  145.7908  132.5203  150.5664 C   0  0  0  0  0  0  0  0  0  0  0  0
  145.5380  131.1059  151.1192 C   0  0  0  0  0  0  0  0  0  0  0  0
  146.6779  130.6434  151.9482 N   0  3  2  0  0  0  0  0  0  0  0  0
  146.5002  129.2555  152.4258 C   0  0  0  0  0  0  0  0  0  0  0  0
  146.9902  131.5856  153.0508 C   0  0  0  0  0  0  0  0  0  0  0  0
  147.2534  133.0030  152.5107 C   0  0  0  0  0  0  0  0  0  0  0  0
  144.9749  135.1212  153.2304 C   0  0  0  0  0  0  0  0  0  0  0  0
  143.7636  135.3985  154.1367 C   0  0  0  0  0  0  0  0  0  0  0  0
  137.6706  137.9921  154.2045 C   0  0  0  0  0  0  0  0  0  0  0  0
  134.9566  140.0864  153.8564 H   0  0  0  0  0  0  0  0  0  0  0  0
  135.6828  139.1549  152.5426 H   0  0  0  0  0  0  0  0  0  0  0  0
  136.5926  140.4642  153.3066 H   0  0  0  0  0  0  0  0  0  0  0  0
  134.8960  138.9068  155.9640 H   0  0  0  0  0  0  0  0  0  0  0  0
  137.7882  136.1938  157.0989 H   0  0  0  0  0  0  0  0  0  0  0  0
  139.6088  135.7102  155.7531 H   0  0  0  0  0  0  0  0  0  0  0  0
  141.2744  134.9757  155.0249 H   0  0  0  0  0  0  0  0  0  0  0  0
  142.4853  136.2540  152.6236 H   0  0  0  0  0  0  0  0  0  0  0  0
  142.2378  133.2698  153.2160 H   0  0  0  0  0  0  0  0  0  0  0  0
  141.4929  134.1311  151.8900 H   0  0  0  0  0  0  0  0  0  0  0  0
  143.4798  132.9618  151.1525 H   0  0  0  0  0  0  0  0  0  0  0  0
  143.7292  134.6824  150.9400 H   0  0  0  0  0  0  0  0  0  0  0  0
  146.3561  134.4886  151.2387 H   0  0  0  0  0  0  0  0  0  0  0  0
  144.9940  132.8165  149.8883 H   0  0  0  0  0  0  0  0  0  0  0  0
  146.6761  132.4825  149.9299 H   0  0  0  0  0  0  0  0  0  0  0  0
  144.6210  131.0901  151.7105 H   0  0  0  0  0  0  0  0  0  0  0  0
  145.3914  130.4131  150.2896 H   0  0  0  0  0  0  0  0  0  0  0  0
  145.6373  129.1765  153.0883 H   0  0  0  0  0  0  0  0  0  0  0  0
  147.3827  128.9197  152.9712 H   0  0  0  0  0  0  0  0  0  0  0  0
  146.3504  128.5760  151.5862 H   0  0  0  0  0  0  0  0  0  0  0  0
  146.1679  131.6008  153.7678 H   0  0  0  0  0  0  0  0  0  0  0  0
  147.8718  131.2328  153.5875 H   0  0  0  0  0  0  0  0  0  0  0  0
  148.1195  132.9580  151.8490 H   0  0  0  0  0  0  0  0  0  0  0  0
  147.5714  133.6705  153.3088 H   0  0  0  0  0  0  0  0  0  0  0  0
  145.8422  135.1221  153.8855 H   0  0  0  0  0  0  0  0  0  0  0  0
  145.1083  135.9349  152.5156 H   0  0  0  0  0  0  0  0  0  0  0  0
  143.9047  136.3511  154.6486 H   0  0  0  0  0  0  0  0  0  0  0  0
  143.7102  134.6354  154.9148 H   0  0  0  0  0  0  0  0  0  0  0  0
  138.1639  138.1720  153.2621 H   0  0  0  0  0  0  0  0  0  0  0  0
  147.4862  130.6356  151.3428 H   0  0  0  0  0  0  0  0  0  0  0  0
  1  2  1  0  0  0  0
  1 25  1  0  0  0  0
  1 26  1  0  0  0  0
  1 27  1  0  0  0  0
  2 24  1  0  0  0  0
  2  3  2  0  0  0  0
  3  4  1  0  0  0  0
  3 28  1  0  0  0  0
  4  5  2  0  0  0  0
  5  6  1  0  0  0  0
  5 29  1  0  0  0  0
  6  7  1  0  0  0  0
  6 24  2  0  0  0  0
  7  8  1  0  0  0  0
  7 30  1  0  0  0  0
  8  9  2  0  0  0  0
  8 10  1  0  0  0  0
 10 11  1  0  0  0  0
 10 31  1  0  0  0  0
 11 23  1  0  0  0  0
 11 12  1  0  0  0  0
 11 32  1  0  0  0  0
 12 13  1  0  0  0  0
 12 33  1  0  0  0  0
 12 34  1  0  0  0  0
 13 14  1  0  0  0  0
 13 35  1  0  0  0  0
 13 36  1  0  0  0  0
 14 15  1  0  0  0  0
 14 22  1  0  0  0  0
 15 21  1  0  0  0  0
 15 16  1  0  0  0  0
 15 37  1  0  0  0  0
 16 17  1  0  0  0  0
 16 38  1  0  0  0  0
 16 39  1  0  0  0  0
 17 18  1  0  0  0  0
 17 40  1  0  0  0  0
 17 41  1  0  0  0  0
 18 19  1  0  0  0  0
 18 20  1  0  0  0  0
 18 54  1  0  0  0  0
 19 42  1  0  0  0  0
 19 43  1  0  0  0  0
 19 44  1  0  0  0  0
 20 21  1  0  0  0  0
 20 45  1  0  0  0  0
 20 46  1  0  0  0  0
 21 47  1  0  0  0  0
 21 48  1  0  0  0  0
 22 23  1  0  0  0  0
 22 49  1  0  0  0  0
 22 50  1  0  0  0  0
 23 51  1  0  0  0  0
 23 52  1  0  0  0  0
 24 53  1  0  0  0  0
M  CHG  1  18   1
M  END
> <s_m_source_file>
AV-unprocessed.smi

> <i_m_source_file_index>
2583

> <i_lp_mmshare_version>
43012

> <i_f3d_flags>
0

> <s_epik_input>
W0NIM11jMVtjSF1uW2NIXWMoW2NIXTEpW05IXUMoPU8pW05IXVtDSF0yW0NIMl1bQ0gyXU4oW0NIMl1bQ0gyXTIpW0NIXTNbQ0gyXVtDSDJdTihbQ0gzXSlbQ0gyXVtDSDJdMw==

> <s_epik_cmdline>
J2VwaWtfcHl0aG9uJywgJy1waCcsICc3LjAnLCAnLXRuJywgJzgnLCAnLW1hJywgJzIwMCcsICctbWV0YWxfYmluZGluZycsICctaW1hZScsICc8aW5maWxlLm1hZT4nLCAnLW9tYWUnLCAnPG91dGZpbGUubWFlPic=

> <r_epik_Ionization_Penalty>
1.01912

> <r_epik_Ionization_Penalty_Charging>
0.000974969

> <r_epik_Ionization_Penalty_Neutral>
1.01814

> <r_epik_State_Penalty>
1.10721

> <r_epik_Charging_Adjusted_Penalty>
1.10819

> <i_epik_Tot_Q>
1

> <i_epik_Tot_abs_Q>
1

> <r_epik_Metal_State_Penalty>
1.10135

> <b_epik_Metal_Only>
0

> <s_lp_Force_Field>
OPLS_2005

> <r_lp_Energy>
36.2524

> <b_lp_Chiralities_Consistent>
1

> <s_lp_Variant>
AV-unprocessed.smi:2583-6

> <Gold.Version>
5.8.1

> <Gold.Id.Protein>
6NUR|6NUR_protein|mol2

> <Gold.PLP.Fitness>
45.2135

> <Gold.PLP.PLP>
-37.3038

> <Gold.PLP.part.hbond>
-3.0000

> <Gold.PLP.part.metal>
0.0000

> <Gold.PLP.part.buried>
-6.6442

> <Gold.PLP.part.nonpolar>
-28.1893

> <Gold.PLP.part.repulsive>
0.4764

> <Gold.PLP.ligand.clash>
0.0000

> <Gold.PLP.ligand.torsion>
0.5470

> <Gold.PLP.Chemscore.Hbond>
3.0000

> <Gold.PLP.Chemscore.CHOScore>
0.0000

> <Gold.PLP.Chemscore.Metal>
0.0000

> <Gold.Chemscore.Hbonds>
donor molecule, donor type, donor heavy atom, donor atom, acceptor molecule, acceptor atom, score
      L1  H     7    30       P1 11000  1.00
      L1  H    10    31       P1 11000  0.94
      L1  H    18    54       P1 10747  1.00

> <Gold.PLP.Chemscore.Internal.Correction>
0.0036

> <Gold.Rescore>
     Score         DG    S(hbond)    S(metal)    S(lipo)     H(rot)  DE(clash)    DE(int)     intcor
     20.46     -22.56       2.38        0.00     104.17       1.20       0.37       1.73       ----

> <Gold.Chemscore.Fitness>
20.4570

> <Gold.Chemscore.DG>
-22.5565

> <Gold.Chemscore.ZeroCoef>
-5.4800

> <Gold.Chemscore.Hbond>
2.3813

> <Gold.Chemscore.Metal>
0.0000

> <Gold.Chemscore.Lipo>
104.1714

> <Gold.Chemscore.Internal_Hbond>
0.0000

> <Gold.Chemscore.DEClash>
0.3709

> <Gold.Chemscore.DEInternal>
1.7287

> <Gold.Chemscore.Rot>
1.1974

> <Gold.Chemscore.Internal.Correction>
   9.000000E+99

> <Gold.Chemscore.Hbonds>
donor molecule, donor type, donor heavy atom, donor atom, acceptor molecule, acceptor atom, score
      L1  H     7    30       P1 11000  0.87
      L1  H    10    31       P1 11000  0.22
      L1  H    18    54       P1 10747  1.00

> <Gold.Chemscore.Hbond.Weighted>
-7.9537

> <Gold.Chemscore.Metal.Weighted>
-0.0000

> <Gold.Chemscore.Lipo.Weighted>
-12.1881

> <Gold.Chemscore.Internal_Hbond.Weighted>
0.0000

> <Gold.Chemscore.DEClash.Weighted>
0.3709

> <Gold.Chemscore.DEInternal.Weighted>
1.7287

> <Gold.Chemscore.Rot.Weighted>
3.0652

> <Gold.Chemscore.Internal.Correction.Weighted>
   9.000000E+99

> <Gold.Protein.RotatedTorsions>
[ 6907 6896 6895 6894 ] final   86.61 input  -60.11 | X-H torsion
[ 7974 7965 7964 7962 ] final  175.41 input  175.53 | X-H torsion
[ 8008 7997 7996 7995 ] final  -19.29 input   59.86 | X-H torsion
[ 10167 10162 10161 10158 ] final   19.04 input  -65.29 | X-H torsion
[ 10718 10713 10712 10709 ] final    7.07 input   66.30 | X-H torsion
[ 10763 10752 10751 10750 ] final  166.24 input  -60.55 | X-H torsion
[ 11005 11000 10999 10996 ] final -112.41 input  -57.11 | X-H torsion

> <Gold.Protein.ActiveResidues>
 VAL166  LYS551  ARG553  GLY616  TRP617  ASP618  TYR619  PRO620  LYS621  CYS622 
 ASP623  PHE694  ASN695  SER759  ASP760  ASP761  ALA762  ILE779  LEU786  VAL792 
 PHE793  MET794  SER795  GLU796  ALA797  LYS798  CYS799  TRP800  GLU811  SER814 

> <Gold.Protein.RotatedAtoms>
  152.5397  134.2405  159.8859 H   0  0  0  0  0  0  0  0  0  0  0  0  # atno 6907 bound_to 6896
  151.2373  133.4412  159.2613 H   0  0  0  0  0  0  0  0  0  0  0  0  # atno 6908 bound_to 6896
  151.0660  134.9781  159.8340 H   0  0  0  0  0  0  0  0  0  0  0  0  # atno 6909 bound_to 6896
  144.7202  139.9942  143.6440 H   0  0  0  0  0  0  0  0  0  0  0  0  # atno 7974 bound_to 7965
  154.4847  140.2093  155.9683 H   0  0  0  0  0  0  0  0  0  0  0  0  # atno 8008 bound_to 7997
  156.1218  140.3212  155.8188 H   0  0  0  0  0  0  0  0  0  0  0  0  # atno 8009 bound_to 7997
  155.4454  140.0513  157.2997 H   0  0  0  0  0  0  0  0  0  0  0  0  # atno 8010 bound_to 7997
  140.5608  143.9340  150.6641 H   0  0  0  0  0  0  0  0  0  0  0  0  # atno 10167 bound_to 10162
  156.9315  130.5828  149.5649 H   0  0  0  0  0  0  0  0  0  0  0  0  # atno 10718 bound_to 10713
  154.3361  135.2754  155.2447 H   0  0  0  0  0  0  0  0  0  0  0  0  # atno 10763 bound_to 10752
  154.4738  135.5876  153.6344 H   0  0  0  0  0  0  0  0  0  0  0  0  # atno 10764 bound_to 10752
  152.9862  135.6094  154.3558 H   0  0  0  0  0  0  0  0  0  0  0  0  # atno 10765 bound_to 10752
  141.0677  133.9432  157.2547 H   0  0  0  0  0  0  0  0  0  0  0  0  # atno 11005 bound_to 11000
  146.0387  139.3401  143.0711 LP  0  0  0  0  0  0  0  0  0  0  0  0  # atno 17320 bound_to 7965
  145.8362  140.9605  143.0823 LP  0  0  0  0  0  0  0  0  0  0  0  0  # atno 17321 bound_to 7965
  140.2790  143.3402  152.1168 LP  0  0  0  0  0  0  0  0  0  0  0  0  # atno 17342 bound_to 10162
  139.5069  144.6823  151.5978 LP  0  0  0  0  0  0  0  0  0  0  0  0  # atno 17343 bound_to 10162
  156.0445  130.5523  150.8848 LP  0  0  0  0  0  0  0  0  0  0  0  0  # atno 17370 bound_to 10713
  157.5844  131.0946  150.9220 LP  0  0  0  0  0  0  0  0  0  0  0  0  # atno 17371 bound_to 10713
  139.9492  135.0178  156.8944 LP  0  0  0  0  0  0  0  0  0  0  0  0  # atno 17394 bound_to 11000
  140.5739  134.0417  155.7440 LP  0  0  0  0  0  0  0  0  0  0  0  0  # atno 17395 bound_to 11000

$$$$
