AV-unprocessed.smi:44|AV-procd|sdf|403|dock9
  -GOLD-   2262016253D 1   1.00000     0.00000
 Structure written by MMmdl.
 28 30  0  0  0  0  0  0  0  0  2 V2000
  155.0146  139.0268  160.2500 O   0  0  0  0  0  0  0  0  0  0  0  0
  154.1479  139.7622  159.7814 C   0  0  0  0  0  0  0  0  0  0  0  0
  153.4892  139.5548  158.5968 N   0  5  0  0  0  0  0  0  0  0  0  0
  152.5253  140.4683  158.1747 C   0  0  0  0  0  0  0  0  0  0  0  0
  152.1412  141.5427  158.7760 N   0  0  0  0  0  0  0  0  0  0  0  0
  152.7874  141.7732  159.9727 C   0  0  0  0  0  0  0  0  0  0  0  0
  153.7561  140.9866  160.5351 C   0  0  0  0  0  0  0  0  0  0  0  0
  154.1938  141.5150  161.7432 N   0  0  0  0  0  0  0  0  0  0  0  0
  153.4505  142.6163  161.8517 C   0  0  0  0  0  0  0  0  0  0  0  0
  152.5818  142.8370  160.8418 N   0  0  0  0  0  0  0  0  0  0  0  0
  151.6166  143.9692  160.6661 C   0  0  1  0  0  0  0  0  0  0  0  0
  152.0641  144.8488  159.4981 C   0  0  0  0  0  0  0  0  0  0  0  0
  151.3949  144.1544  158.3334 C   0  0  0  0  0  0  0  0  0  0  0  0
  150.0567  143.7515  158.9529 C   0  0  1  0  0  0  0  0  0  0  0  0
  149.3933  142.5578  158.2496 C   0  0  0  0  0  0  0  0  0  0  0  0
  149.6025  142.6392  156.8565 O   0  0  0  0  0  0  0  0  0  0  0  0
  150.3727  143.4350  160.3108 O   0  0  0  0  0  0  0  0  0  0  0  0
  151.5980  144.4712  161.6340 H   0  0  0  0  0  0  0  0  0  0  0  0
  149.3964  144.6209  158.9442 H   0  0  0  0  0  0  0  0  0  0  0  0
  152.0845  140.1796  157.2173 H   0  0  0  0  0  0  0  0  0  0  0  0
  153.5458  143.2807  162.6963 H   0  0  0  0  0  0  0  0  0  0  0  0
  151.6575  145.8514  159.6367 H   0  0  0  0  0  0  0  0  0  0  0  0
  153.1498  144.9130  159.4163 H   0  0  0  0  0  0  0  0  0  0  0  0
  151.2827  144.7972  157.4601 H   0  0  0  0  0  0  0  0  0  0  0  0
  151.9690  143.2745  158.0386 H   0  0  0  0  0  0  0  0  0  0  0  0
  149.8442  141.6258  158.5921 H   0  0  0  0  0  0  0  0  0  0  0  0
  148.3279  142.5008  158.4712 H   0  0  0  0  0  0  0  0  0  0  0  0
  149.2493  143.4590  156.5466 H   0  0  0  0  0  0  0  0  0  0  0  0
  1  2  2  0  0  0  0
  2  7  1  0  0  0  0
  2  3  1  0  0  0  0
  3  4  1  0  0  0  0
  4  5  2  0  0  0  0
  4 20  1  0  0  0  0
  5  6  1  0  0  0  0
  6 10  1  0  0  0  0
  6  7  2  0  0  0  0
  7  8  1  0  0  0  0
  8  9  2  0  0  0  0
  9 10  1  0  0  0  0
  9 21  1  0  0  0  0
 10 11  1  0  0  0  0
 11 18  1  0  0  0  0
 11 17  1  0  0  0  0
 11 12  1  0  0  0  0
 12 13  1  0  0  0  0
 12 22  1  0  0  0  0
 12 23  1  0  0  0  0
 13 14  1  0  0  0  0
 13 24  1  0  0  0  0
 13 25  1  0  0  0  0
 14 19  1  0  0  0  0
 14 15  1  0  0  0  0
 14 17  1  0  0  0  0
 15 16  1  0  0  0  0
 15 26  1  0  0  0  0
 15 27  1  0  0  0  0
 16 28  1  0  0  0  0
M  CHG  1   3  -1
M  END
> <s_m_source_file>
AV-unprocessed.smi

> <i_m_source_file_index>
44

> <i_lp_mmshare_version>
43012

> <i_f3d_flags>
0

> <s_epik_input>
bjFbY0hdW25IXWMoPU8pYyhjMTIpbltjSF1uMltDQEhdM1tDSDJdW0NIMl1bQ0BIXShPMylbQ0gyXVtPSF0=

> <s_epik_cmdline>
J2VwaWtfcHl0aG9uJywgJy1waCcsICc3LjAnLCAnLXRuJywgJzgnLCAnLW1hJywgJzIwMCcsICctbWV0YWxfYmluZGluZycsICctaW1hZScsICc8aW5maWxlLm1hZT4nLCAnLW9tYWUnLCAnPG91dGZpbGUubWFlPic=

> <r_lp_tautomer_probability>
0.85571

> <r_epik_Ionization_Penalty>
2.55863

> <r_epik_Ionization_Penalty_Charging>
1.36424e-10

> <r_epik_Ionization_Penalty_Neutral>
2.55863

> <r_epik_State_Penalty>
2.63326

> <r_epik_Charging_Adjusted_Penalty>
2.63326

> <i_epik_Tot_Q>
-1

> <i_epik_Tot_abs_Q>
1

> <r_epik_Metal_State_Penalty>
0.475154

> <b_epik_Metal_Only>
1

> <s_epik_Chemistry_Notes>
This compound contains an acetal/aminal-like group ( X-CH(R)-Y where X, Y are N, S, or O) that may be acid/base labile, releasing an aldehyde.

> <s_lp_Force_Field>
OPLS_2005

> <r_lp_Energy>
44.8595

> <b_lp_Chiralities_Consistent>
1

> <s_lp_Variant>
AV-unprocessed.smi:44-9

> <Gold.Version>
5.8.1

> <Gold.Id.Protein>
6NUR|6NUR_protein|mol2

> <Gold.PLP.Fitness>
43.2613

> <Gold.PLP.PLP>
-36.1720

> <Gold.PLP.part.hbond>
-3.8077

> <Gold.PLP.part.metal>
0.0000

> <Gold.PLP.part.buried>
-5.2775

> <Gold.PLP.part.nonpolar>
-27.2872

> <Gold.PLP.part.repulsive>
0.0933

> <Gold.PLP.ligand.clash>
0.0000

> <Gold.PLP.ligand.torsion>
0.4540

> <Gold.PLP.Chemscore.Hbond>
2.6592

> <Gold.PLP.Chemscore.CHOScore>
0.0000

> <Gold.PLP.Chemscore.Metal>
0.0000

> <Gold.Chemscore.Hbonds>
donor molecule, donor type, donor heavy atom, donor atom, acceptor molecule, acceptor atom, score
      L1  H    16    28       P1  8028  1.00
      P1  H  7997  8008       L1     3  1.66

> <Gold.PLP.Chemscore.Internal.Correction>
0.0196

> <Gold.Rescore>
     Score         DG    S(hbond)    S(metal)    S(lipo)     H(rot)  DE(clash)    DE(int)     intcor
      6.93      -8.79       0.98        0.00      49.64       2.26       0.09       1.78       ----

> <Gold.Chemscore.Fitness>
6.9265

> <Gold.Chemscore.DG>
-8.7944

> <Gold.Chemscore.ZeroCoef>
-5.4800

> <Gold.Chemscore.Hbond>
0.9846

> <Gold.Chemscore.Metal>
0.0000

> <Gold.Chemscore.Lipo>
49.6438

> <Gold.Chemscore.Internal_Hbond>
0.0000

> <Gold.Chemscore.DEClash>
0.0879

> <Gold.Chemscore.DEInternal>
1.7799

> <Gold.Chemscore.Rot>
2.2588

> <Gold.Chemscore.Internal.Correction>
   9.000000E+99

> <Gold.Chemscore.Hbonds>
donor molecule, donor type, donor heavy atom, donor atom, acceptor molecule, acceptor atom, score
      L1  H    16    28       P1  8028  0.97
      P1  H  7997  8008       L1     3  0.04

> <Gold.Chemscore.Hbond.Weighted>
-3.2885

> <Gold.Chemscore.Metal.Weighted>
-0.0000

> <Gold.Chemscore.Lipo.Weighted>
-5.8083

> <Gold.Chemscore.Internal_Hbond.Weighted>
0.0000

> <Gold.Chemscore.DEClash.Weighted>
0.0879

> <Gold.Chemscore.DEInternal.Weighted>
1.7799

> <Gold.Chemscore.Rot.Weighted>
5.7825

> <Gold.Chemscore.Internal.Correction.Weighted>
   9.000000E+99

> <Gold.Protein.RotatedTorsions>
[ 6907 6896 6895 6894 ] final  158.67 input  -60.11 | X-H torsion
[ 7974 7965 7964 7962 ] final -169.22 input  175.53 | X-H torsion
[ 8008 7997 7996 7995 ] final -116.17 input   59.86 | X-H torsion
[ 10167 10162 10161 10158 ] final  -11.00 input  -65.29 | X-H torsion
[ 10718 10713 10712 10709 ] final  -19.74 input   66.30 | X-H torsion
[ 10763 10752 10751 10750 ] final   91.53 input  -60.55 | X-H torsion
[ 11005 11000 10999 10996 ] final  -81.58 input  -57.11 | X-H torsion

> <Gold.Protein.ActiveResidues>
 VAL166  LYS551  ARG553  GLY616  TRP617  ASP618  TYR619  PRO620  LYS621  CYS622 
 ASP623  PHE694  ASN695  SER759  ASP760  ASP761  ALA762  ILE779  LEU786  VAL792 
 PHE793  MET794  SER795  GLU796  ALA797  LYS798  CYS799  TRP800  GLU811  SER814 

> <Gold.Protein.RotatedAtoms>
  151.9969  133.3811  159.4166 H   0  0  0  0  0  0  0  0  0  0  0  0  # atno 6907 bound_to 6896
  150.6915  134.3876  159.5071 H   0  0  0  0  0  0  0  0  0  0  0  0  # atno 6908 bound_to 6896
  152.1618  134.8906  160.0592 H   0  0  0  0  0  0  0  0  0  0  0  0  # atno 6909 bound_to 6896
  144.7189  140.2254  143.6311 H   0  0  0  0  0  0  0  0  0  0  0  0  # atno 7974 bound_to 7965
  155.0635  140.0393  157.2585 H   0  0  0  0  0  0  0  0  0  0  0  0  # atno 8008 bound_to 7997
  154.7040  140.2679  155.6668 H   0  0  0  0  0  0  0  0  0  0  0  0  # atno 8009 bound_to 7997
  156.2769  140.2735  156.1660 H   0  0  0  0  0  0  0  0  0  0  0  0  # atno 8010 bound_to 7997
  140.7128  143.5687  150.9116 H   0  0  0  0  0  0  0  0  0  0  0  0  # atno 10167 bound_to 10162
  156.5414  130.4679  149.6497 H   0  0  0  0  0  0  0  0  0  0  0  0  # atno 10718 bound_to 10713
  153.2093  135.4394  155.0361 H   0  0  0  0  0  0  0  0  0  0  0  0  # atno 10763 bound_to 10752
  154.8191  135.3329  154.7093 H   0  0  0  0  0  0  0  0  0  0  0  0  # atno 10764 bound_to 10752
  153.7532  135.6997  153.4997 H   0  0  0  0  0  0  0  0  0  0  0  0  # atno 10765 bound_to 10752
  141.1666  133.7203  156.8443 H   0  0  0  0  0  0  0  0  0  0  0  0  # atno 11005 bound_to 11000
  145.8461  139.2153  143.1799 LP  0  0  0  0  0  0  0  0  0  0  0  0  # atno 17320 bound_to 7965
  146.0302  140.8265  142.9879 LP  0  0  0  0  0  0  0  0  0  0  0  0  # atno 17321 bound_to 7965
  139.9413  143.6379  152.3053 LP  0  0  0  0  0  0  0  0  0  0  0  0  # atno 17342 bound_to 10162
  139.6864  144.7651  151.1516 LP  0  0  0  0  0  0  0  0  0  0  0  0  # atno 17343 bound_to 10162
  156.2968  130.7154  151.2017 LP  0  0  0  0  0  0  0  0  0  0  0  0  # atno 17370 bound_to 10713
  157.7404  131.0517  150.5165 LP  0  0  0  0  0  0  0  0  0  0  0  0  # atno 17371 bound_to 10713
  140.1961  134.8931  157.3115 LP  0  0  0  0  0  0  0  0  0  0  0  0  # atno 17394 bound_to 11000
  140.2238  134.3991  155.7553 LP  0  0  0  0  0  0  0  0  0  0  0  0  # atno 17395 bound_to 11000

$$$$
