AV-unprocessed.smi:443|AV-procd|sdf|2586|dock7
  -GOLD-   2262022573D 1   1.00000     0.00000
 Structure written by MMmdl.
 48 49  0  0  0  0  0  0  0  0  1 V2000
  147.8135  137.5793  154.3182 C   0  0  0  0  0  0  0  0  0  0  0  0
  149.1732  137.1314  154.7815 C   0  0  0  0  0  0  0  0  0  0  0  0
  150.1474  137.9626  154.6055 N   0  0  0  0  0  0  0  0  0  0  0  0
  151.4356  137.6516  154.9930 N   0  0  0  0  0  0  0  0  0  0  0  0
  152.4045  138.7305  154.7723 C   0  0  0  0  0  0  0  0  0  0  0  0
  152.0122  140.0086  155.5521 C   0  0  1  0  0  0  0  0  0  0  0  0
  150.8622  140.5784  154.9599 O   0  0  0  0  0  0  0  0  0  0  0  0
  151.6844  139.7306  157.0265 C   0  0  0  0  0  0  0  0  0  0  0  0
  151.4572  140.9705  157.6837 O   0  0  0  0  0  0  0  0  0  0  0  0
  152.1763  141.2605  158.8253 C   0  0  0  0  0  0  0  0  0  0  0  0
  153.0629  140.3348  159.4347 C   0  0  0  0  0  0  0  0  0  0  0  0
  153.7654  140.6735  160.6054 C   0  0  0  0  0  0  0  0  0  0  0  0
  153.5934  141.9407  161.1863 C   0  0  0  0  0  0  0  0  0  0  0  0
  152.7212  142.8686  160.5914 C   0  0  0  0  0  0  0  0  0  0  0  0
  152.0122  142.5425  159.4127 C   0  0  0  0  0  0  0  0  0  0  0  0
  151.0863  143.5887  158.7893 C   0  0  0  0  0  0  0  0  0  0  0  0
  151.2540  144.9608  159.4629 C   0  0  0  0  0  0  0  0  0  0  0  0
  149.6202  143.1283  158.8020 C   0  0  0  0  0  0  0  0  0  0  0  0
  151.8110  136.4782  155.5765 C   0  0  0  0  0  0  0  0  0  0  0  0
  152.9731  136.2456  155.9121 O   0  0  0  0  0  0  0  0  0  0  0  0
  150.7028  135.5407  155.7723 C   0  0  0  0  0  0  0  0  0  0  0  0
  151.0509  134.2971  156.3806 C   0  0  0  0  0  0  0  0  0  0  0  0
  151.3358  133.2990  156.8932 N   0  0  0  0  0  0  0  0  0  0  0  0
  149.4309  135.8373  155.4062 C   0  0  0  0  0  0  0  0  0  0  0  0
  148.2471  134.8987  155.5960 C   0  0  0  0  0  0  0  0  0  0  0  0
  147.3153  136.7961  153.7470 H   0  0  0  0  0  0  0  0  0  0  0  0
  147.8763  138.4569  153.6753 H   0  0  0  0  0  0  0  0  0  0  0  0
  147.1815  137.8344  155.1689 H   0  0  0  0  0  0  0  0  0  0  0  0
  153.4148  138.4020  155.0252 H   0  0  0  0  0  0  0  0  0  0  0  0
  152.4554  138.9442  153.7028 H   0  0  0  0  0  0  0  0  0  0  0  0
  152.8101  140.7516  155.5064 H   0  0  0  0  0  0  0  0  0  0  0  0
  150.2010  139.9079  154.8808 H   0  0  0  0  0  0  0  0  0  0  0  0
  150.7862  139.1136  157.0862 H   0  0  0  0  0  0  0  0  0  0  0  0
  152.5042  139.1888  157.5017 H   0  0  0  0  0  0  0  0  0  0  0  0
  153.2229  139.3494  159.0247 H   0  0  0  0  0  0  0  0  0  0  0  0
  154.4357  139.9584  161.0590 H   0  0  0  0  0  0  0  0  0  0  0  0
  154.1307  142.2021  162.0860 H   0  0  0  0  0  0  0  0  0  0  0  0
  152.6009  143.8401  161.0475 H   0  0  0  0  0  0  0  0  0  0  0  0
  151.3536  143.7275  157.7429 H   0  0  0  0  0  0  0  0  0  0  0  0
  152.2847  145.3086  159.3868 H   0  0  0  0  0  0  0  0  0  0  0  0
  150.9903  144.9295  160.5201 H   0  0  0  0  0  0  0  0  0  0  0  0
  150.6186  145.7112  158.9930 H   0  0  0  0  0  0  0  0  0  0  0  0
  149.5041  142.1801  158.2765 H   0  0  0  0  0  0  0  0  0  0  0  0
  148.9777  143.8579  158.3085 H   0  0  0  0  0  0  0  0  0  0  0  0
  149.2467  142.9945  159.8175 H   0  0  0  0  0  0  0  0  0  0  0  0
  148.4937  134.0534  156.2376 H   0  0  0  0  0  0  0  0  0  0  0  0
  147.9207  134.5026  154.6339 H   0  0  0  0  0  0  0  0  0  0  0  0
  147.4069  135.4177  156.0583 H   0  0  0  0  0  0  0  0  0  0  0  0
  1  2  1  0  0  0  0
  1 26  1  0  0  0  0
  1 27  1  0  0  0  0
  1 28  1  0  0  0  0
  2 24  1  0  0  0  0
  2  3  2  0  0  0  0
  3  4  1  0  0  0  0
  4  5  1  0  0  0  0
  4 19  1  0  0  0  0
  5  6  1  0  0  0  0
  5 29  1  0  0  0  0
  5 30  1  0  0  0  0
  6  7  1  0  0  0  0
  6  8  1  0  0  0  0
  6 31  1  0  0  0  0
  7 32  1  0  0  0  0
  8  9  1  0  0  0  0
  8 33  1  0  0  0  0
  8 34  1  0  0  0  0
  9 10  1  0  0  0  0
 10 15  1  0  0  0  0
 10 11  2  0  0  0  0
 11 12  1  0  0  0  0
 11 35  1  0  0  0  0
 12 13  2  0  0  0  0
 12 36  1  0  0  0  0
 13 14  1  0  0  0  0
 13 37  1  0  0  0  0
 14 15  2  0  0  0  0
 14 38  1  0  0  0  0
 15 16  1  0  0  0  0
 16 17  1  0  0  0  0
 16 18  1  0  0  0  0
 16 39  1  0  0  0  0
 17 40  1  0  0  0  0
 17 41  1  0  0  0  0
 17 42  1  0  0  0  0
 18 43  1  0  0  0  0
 18 44  1  0  0  0  0
 18 45  1  0  0  0  0
 19 20  2  0  0  0  0
 19 21  1  0  0  0  0
 21 22  1  0  0  0  0
 21 24  2  0  0  0  0
 22 23  3  0  0  0  0
 24 25  1  0  0  0  0
 25 46  1  0  0  0  0
 25 47  1  0  0  0  0
 25 48  1  0  0  0  0
M  END
> <s_m_source_file>
AV-unprocessed.smi

> <i_m_source_file_index>
443

> <i_lp_mmshare_version>
43012

> <i_f3d_flags>
0

> <s_epik_input>
TiNDYyhjMVtDSDNdKWMoPU8pbihuYzFbQ0gzXSlbQ0gyXVtDQEhdKFtPSF0pW0NIMl1PYzJbY0hdW2NIXVtjSF1bY0hdYzJbQ0hdKFtDSDNdKVtDSDNd

> <s_epik_cmdline>
J2VwaWtfcHl0aG9uJywgJy1waCcsICc3LjAnLCAnLXRuJywgJzgnLCAnLW1hJywgJzIwMCcsICctbWV0YWxfYmluZGluZycsICctaW1hZScsICc8aW5maWxlLm1hZT4nLCAnLW9tYWUnLCAnPG91dGZpbGUubWFlPic=

> <r_lp_tautomer_probability>
1

> <r_epik_Ionization_Penalty>
1.17331e-07

> <r_epik_Ionization_Penalty_Charging>
1.57223e-10

> <r_epik_Ionization_Penalty_Neutral>
1.17174e-07

> <r_epik_State_Penalty>
-0

> <r_epik_Charging_Adjusted_Penalty>
1.57223e-10

> <i_epik_Tot_Q>
0

> <i_epik_Tot_abs_Q>
0

> <r_epik_Metal_State_Penalty>
-0

> <b_epik_Metal_Only>
0

> <s_lp_Force_Field>
OPLS_2005

> <r_lp_Energy>
30.2937

> <b_lp_Chiralities_Consistent>
1

> <s_lp_Variant>
AV-unprocessed.smi:443-2

> <Gold.Version>
5.8.1

> <Gold.Id.Protein>
6NUR|6NUR_protein|mol2

> <Gold.PLP.Fitness>
53.3679

> <Gold.PLP.PLP>
-45.4403

> <Gold.PLP.part.hbond>
-3.0000

> <Gold.PLP.part.metal>
0.0000

> <Gold.PLP.part.buried>
-5.7834

> <Gold.PLP.part.nonpolar>
-37.6662

> <Gold.PLP.part.repulsive>
0.1734

> <Gold.PLP.ligand.clash>
0.0000

> <Gold.PLP.ligand.torsion>
0.5542

> <Gold.PLP.Chemscore.Hbond>
2.9920

> <Gold.PLP.Chemscore.CHOScore>
0.0000

> <Gold.PLP.Chemscore.Metal>
0.0000

> <Gold.Chemscore.Hbonds>
donor molecule, donor type, donor heavy atom, donor atom, acceptor molecule, acceptor atom, score
      P1  H  6896  6908       L1    23  0.15
      P1  H  7989  7998       L1     7  0.69
      P1  H 10752 10765       L1    20  0.07

> <Gold.PLP.Chemscore.Internal.Correction>
0.0600

> <Gold.Rescore>
     Score         DG    S(hbond)    S(metal)    S(lipo)     H(rot)  DE(clash)    DE(int)     intcor
     20.46     -21.35       2.44        0.00     118.63       2.41       0.11       0.78       ----

> <Gold.Chemscore.Fitness>
20.4593

> <Gold.Chemscore.DG>
-21.3492

> <Gold.Chemscore.ZeroCoef>
-5.4800

> <Gold.Chemscore.Hbond>
2.4416

> <Gold.Chemscore.Metal>
0.0000

> <Gold.Chemscore.Lipo>
118.6308

> <Gold.Chemscore.Internal_Hbond>
0.0000

> <Gold.Chemscore.DEClash>
0.1104

> <Gold.Chemscore.DEInternal>
0.7795

> <Gold.Chemscore.Rot>
2.4084

> <Gold.Chemscore.Internal.Correction>
   9.000000E+99

> <Gold.Chemscore.Hbonds>
donor molecule, donor type, donor heavy atom, donor atom, acceptor molecule, acceptor atom, score
      P1  H  6896  6908       L1    23  0.11
      P1  H  7989  7998       L1     7  0.06

> <Gold.Chemscore.Hbond.Weighted>
-8.1549

> <Gold.Chemscore.Metal.Weighted>
-0.0000

> <Gold.Chemscore.Lipo.Weighted>
-13.8798

> <Gold.Chemscore.Internal_Hbond.Weighted>
0.0000

> <Gold.Chemscore.DEClash.Weighted>
0.1104

> <Gold.Chemscore.DEInternal.Weighted>
0.7795

> <Gold.Chemscore.Rot.Weighted>
6.1655

> <Gold.Chemscore.Internal.Correction.Weighted>
   9.000000E+99

> <Gold.Protein.RotatedTorsions>
[ 6907 6896 6895 6894 ] final  100.82 input  -60.11 | X-H torsion
[ 7974 7965 7964 7962 ] final -139.07 input  175.53 | X-H torsion
[ 8008 7997 7996 7995 ] final   47.10 input   59.86 | X-H torsion
[ 10167 10162 10161 10158 ] final   83.81 input  -65.29 | X-H torsion
[ 10718 10713 10712 10709 ] final   70.50 input   66.30 | X-H torsion
[ 10763 10752 10751 10750 ] final -165.08 input  -60.55 | X-H torsion
[ 11005 11000 10999 10996 ] final   47.91 input  -57.11 | X-H torsion

> <Gold.Protein.ActiveResidues>
 VAL166  LYS551  ARG553  GLY616  TRP617  ASP618  TYR619  PRO620  LYS621  CYS622 
 ASP623  PHE694  ASN695  SER759  ASP760  ASP761  ALA762  ILE779  LEU786  VAL792 
 PHE793  MET794  SER795  GLU796  ALA797  LYS798  CYS799  TRP800  GLU811  SER814 

> <Gold.Protein.RotatedAtoms>
  152.5363  134.0218  159.7984 H   0  0  0  0  0  0  0  0  0  0  0  0  # atno 6907 bound_to 6896
  151.0403  133.5704  159.2659 H   0  0  0  0  0  0  0  0  0  0  0  0  # atno 6908 bound_to 6896
  151.2676  135.0681  159.9175 H   0  0  0  0  0  0  0  0  0  0  0  0  # atno 6909 bound_to 6896
  144.8706  140.6361  143.5269 H   0  0  0  0  0  0  0  0  0  0  0  0  # atno 7974 bound_to 7965
  155.3635  140.3420  155.4241 H   0  0  0  0  0  0  0  0  0  0  0  0  # atno 8008 bound_to 7997
  156.1701  140.1629  156.8497 H   0  0  0  0  0  0  0  0  0  0  0  0  # atno 8009 bound_to 7997
  154.5224  140.0764  156.8179 H   0  0  0  0  0  0  0  0  0  0  0  0  # atno 8010 bound_to 7997
  139.9145  144.6251  150.8503 H   0  0  0  0  0  0  0  0  0  0  0  0  # atno 10167 bound_to 10162
  157.6403  130.9480  150.0659 H   0  0  0  0  0  0  0  0  0  0  0  0  # atno 10718 bound_to 10713
  154.6966  135.2980  154.9402 H   0  0  0  0  0  0  0  0  0  0  0  0  # atno 10763 bound_to 10752
  154.0348  135.6665  153.4788 H   0  0  0  0  0  0  0  0  0  0  0  0  # atno 10764 bound_to 10752
  153.0650  135.5093  154.8087 H   0  0  0  0  0  0  0  0  0  0  0  0  # atno 10765 bound_to 10752
  140.1237  134.4796  155.8576 H   0  0  0  0  0  0  0  0  0  0  0  0  # atno 11005 bound_to 11000
  145.4137  139.1575  143.4112 LP  0  0  0  0  0  0  0  0  0  0  0  0  # atno 17320 bound_to 7965
  146.2928  140.4242  142.8733 LP  0  0  0  0  0  0  0  0  0  0  0  0  # atno 17321 bound_to 7965
  140.7677  143.3341  151.2346 LP  0  0  0  0  0  0  0  0  0  0  0  0  # atno 17342 bound_to 10162
  139.6914  143.9686  152.2861 LP  0  0  0  0  0  0  0  0  0  0  0  0  # atno 17343 bound_to 10162
  156.1677  130.3645  149.9208 LP  0  0  0  0  0  0  0  0  0  0  0  0  # atno 17370 bound_to 10713
  156.7191  130.9000  151.3616 LP  0  0  0  0  0  0  0  0  0  0  0  0  # atno 17371 bound_to 10713
  141.2157  133.6770  156.6938 LP  0  0  0  0  0  0  0  0  0  0  0  0  # atno 17394 bound_to 11000
  140.2932  134.8224  157.4034 LP  0  0  0  0  0  0  0  0  0  0  0  0  # atno 17395 bound_to 11000

$$$$
