AV-unprocessed.smi:2870|AV-procd|sdf|11029|dock8
  -GOLD-   2272015493D 1   1.00000     0.00000
 Structure written by MMmdl.
 40 42  0  0  0  0  0  0  0  0  1 V2000
  151.6273  136.3503  154.7695 N   0  0  0  0  0  0  0  0  0  0  0  0
  151.0258  137.3389  154.7461 C   0  0  0  0  0  0  0  0  0  0  0  0
  150.2890  138.5578  154.6859 C   0  0  0  0  0  0  0  0  0  0  0  0
  149.0861  138.6319  154.0802 C   0  0  0  0  0  0  0  0  0  0  0  0
  148.3546  139.7980  154.0253 N   0  0  0  0  0  0  0  0  0  0  0  0
  147.1451  139.8863  153.2566 C   0  0  0  0  0  0  0  0  0  0  0  0
  145.9564  139.0046  153.5877 C   0  0  0  0  0  0  0  0  0  0  0  0
  146.7712  138.7371  152.3460 C   0  0  0  0  0  0  0  0  0  0  0  0
  148.8918  140.9980  154.5402 C   0  0  0  0  0  0  0  0  0  0  0  0
  148.2879  142.0678  154.4278 O   0  0  0  0  0  0  0  0  0  0  0  0
  150.1493  140.9367  155.1886 N   0  0  0  0  0  0  0  0  0  0  0  0
  150.6955  142.1736  155.7897 C   0  0  0  0  0  0  0  0  0  0  0  0
  150.6498  142.1795  157.3255 C   0  0  0  0  0  0  0  0  0  0  0  0
  150.1786  141.2293  157.9523 O   0  0  0  0  0  0  0  0  0  0  0  0
  151.1603  143.2668  157.9198 N   0  0  0  0  0  0  0  0  0  0  0  0
  151.2343  143.4643  159.3605 C   0  0  0  0  0  0  0  0  0  0  0  0
  152.6334  143.1402  159.8700 C   0  0  0  0  0  0  0  0  0  0  0  0
  153.1927  141.7165  159.7240 C   0  0  0  0  0  0  0  0  0  0  0  0
  153.9061  141.9087  161.0648 C   0  0  0  0  0  0  0  0  0  0  0  0
  152.8776  142.9985  161.3797 C   0  0  0  0  0  0  0  0  0  0  0  0
  150.8928  139.7344  155.3072 C   0  0  0  0  0  0  0  0  0  0  0  0
  151.9729  139.7111  155.8998 O   0  0  0  0  0  0  0  0  0  0  0  0
  148.6734  137.7416  153.6275 H   0  0  0  0  0  0  0  0  0  0  0  0
  146.9058  140.8811  152.8846 H   0  0  0  0  0  0  0  0  0  0  0  0
  146.0522  138.2934  154.4058 H   0  0  0  0  0  0  0  0  0  0  0  0
  144.9645  139.4321  153.4570 H   0  0  0  0  0  0  0  0  0  0  0  0
  146.3213  138.9837  151.3866 H   0  0  0  0  0  0  0  0  0  0  0  0
  147.4052  137.8524  152.3491 H   0  0  0  0  0  0  0  0  0  0  0  0
  151.7278  142.3415  155.4793 H   0  0  0  0  0  0  0  0  0  0  0  0
  150.1645  143.0520  155.4190 H   0  0  0  0  0  0  0  0  0  0  0  0
  151.5307  144.0024  157.3357 H   0  0  0  0  0  0  0  0  0  0  0  0
  150.9747  144.4954  159.6057 H   0  0  0  0  0  0  0  0  0  0  0  0
  150.4919  142.8273  159.8436 H   0  0  0  0  0  0  0  0  0  0  0  0
  153.3637  143.8450  159.4660 H   0  0  0  0  0  0  0  0  0  0  0  0
  152.4173  140.9495  159.7653 H   0  0  0  0  0  0  0  0  0  0  0  0
  153.8544  141.5732  158.8694 H   0  0  0  0  0  0  0  0  0  0  0  0
  153.8749  141.0436  161.7278 H   0  0  0  0  0  0  0  0  0  0  0  0
  154.9184  142.3007  160.9538 H   0  0  0  0  0  0  0  0  0  0  0  0
  153.2859  143.8877  161.8611 H   0  0  0  0  0  0  0  0  0  0  0  0
  152.0088  142.6134  161.9166 H   0  0  0  0  0  0  0  0  0  0  0  0
  1  2  3  0  0  0  0
  2  3  1  0  0  0  0
  3 21  1  0  0  0  0
  3  4  2  0  0  0  0
  4  5  1  0  0  0  0
  4 23  1  0  0  0  0
  5  6  1  0  0  0  0
  5  9  1  0  0  0  0
  6  8  1  0  0  0  0
  6  7  1  0  0  0  0
  6 24  1  0  0  0  0
  7  8  1  0  0  0  0
  7 25  1  0  0  0  0
  7 26  1  0  0  0  0
  8 27  1  0  0  0  0
  8 28  1  0  0  0  0
  9 10  2  0  0  0  0
  9 11  1  0  0  0  0
 11 12  1  0  0  0  0
 11 21  1  0  0  0  0
 12 13  1  0  0  0  0
 12 29  1  0  0  0  0
 12 30  1  0  0  0  0
 13 14  2  0  0  0  0
 13 15  1  0  0  0  0
 15 16  1  0  0  0  0
 15 31  1  0  0  0  0
 16 17  1  0  0  0  0
 16 32  1  0  0  0  0
 16 33  1  0  0  0  0
 17 20  1  0  0  0  0
 17 18  1  0  0  0  0
 17 34  1  0  0  0  0
 18 19  1  0  0  0  0
 18 35  1  0  0  0  0
 18 36  1  0  0  0  0
 19 20  1  0  0  0  0
 19 37  1  0  0  0  0
 19 38  1  0  0  0  0
 20 39  1  0  0  0  0
 20 40  1  0  0  0  0
 21 22  2  0  0  0  0
M  END
> <s_m_source_file>
AV-unprocessed.smi

> <i_m_source_file_index>
2870

> <i_lp_mmshare_version>
43012

> <i_f3d_flags>
0

> <s_epik_input>
TiNDYzFbY0hdbihbQ0hdMltDSDJdW0NIMl0yKWMoPU8pbihjMT1PKVtDSDJdQyg9TylbTkhdW0NIMl1bQ0hdM1tDSDJdW0NIMl1bQ0gyXTM=

> <s_epik_cmdline>
J2VwaWtfcHl0aG9uJywgJy1waCcsICc3LjAnLCAnLXRuJywgJzgnLCAnLW1hJywgJzIwMCcsICctbWV0YWxfYmluZGluZycsICctaW1hZScsICc8aW5maWxlLm1hZT4nLCAnLW9tYWUnLCAnPG91dGZpbGUubWFlPic=

> <r_lp_tautomer_probability>
1

> <r_epik_Ionization_Penalty>
1.93838e-08

> <r_epik_Ionization_Penalty_Charging>
8.20545e-11

> <r_epik_Ionization_Penalty_Neutral>
1.93017e-08

> <r_epik_State_Penalty>
-0

> <r_epik_Charging_Adjusted_Penalty>
8.20545e-11

> <i_epik_Tot_Q>
0

> <i_epik_Tot_abs_Q>
0

> <r_epik_Metal_State_Penalty>
-0

> <b_epik_Metal_Only>
0

> <s_lp_Force_Field>
OPLS_2005

> <r_lp_Energy>
38.3845

> <b_lp_Chiralities_Consistent>
1

> <s_lp_Variant>
AV-unprocessed.smi:2870-1

> <Gold.Version>
5.8.1

> <Gold.Id.Protein>
6NUR|6NUR_protein|mol2

> <Gold.PLP.Fitness>
48.3607

> <Gold.PLP.PLP>
-43.1132

> <Gold.PLP.part.hbond>
-1.5371

> <Gold.PLP.part.metal>
0.0000

> <Gold.PLP.part.buried>
-0.2988

> <Gold.PLP.part.nonpolar>
-41.9355

> <Gold.PLP.part.repulsive>
1.2256

> <Gold.PLP.ligand.clash>
0.0000

> <Gold.PLP.ligand.torsion>
0.5185

> <Gold.PLP.Chemscore.Hbond>
1.0000

> <Gold.PLP.Chemscore.CHOScore>
1.0000

> <Gold.PLP.Chemscore.Metal>
0.0000

> <Gold.Chemscore.Hbonds>
donor molecule, donor type, donor heavy atom, donor atom, acceptor molecule, acceptor atom, score
      P1  H 10752 10763       L1     1  0.99
      L1  C     4    23       P1  7948  1.00

> <Gold.PLP.Chemscore.Internal.Correction>
0.2846

> <Gold.Rescore>
     Score         DG    S(hbond)    S(metal)    S(lipo)     H(rot)  DE(clash)    DE(int)     intcor
     13.58     -14.68       0.99        0.00      93.64       1.98       0.66       0.44       ----

> <Gold.Chemscore.Fitness>
13.5784

> <Gold.Chemscore.DG>
-14.6790

> <Gold.Chemscore.ZeroCoef>
-5.4800

> <Gold.Chemscore.Hbond>
0.9908

> <Gold.Chemscore.Metal>
0.0000

> <Gold.Chemscore.Lipo>
93.6415

> <Gold.Chemscore.Internal_Hbond>
0.0000

> <Gold.Chemscore.DEClash>
0.6615

> <Gold.Chemscore.DEInternal>
0.4391

> <Gold.Chemscore.Rot>
1.9791

> <Gold.Chemscore.Internal.Correction>
   9.000000E+99

> <Gold.Chemscore.Hbonds>
donor molecule, donor type, donor heavy atom, donor atom, acceptor molecule, acceptor atom, score
      P1  H 10752 10763       L1     1  0.92

> <Gold.Chemscore.Hbond.Weighted>
-3.3094

> <Gold.Chemscore.Metal.Weighted>
-0.0000

> <Gold.Chemscore.Lipo.Weighted>
-10.9561

> <Gold.Chemscore.Internal_Hbond.Weighted>
0.0000

> <Gold.Chemscore.DEClash.Weighted>
0.6615

> <Gold.Chemscore.DEInternal.Weighted>
0.4391

> <Gold.Chemscore.Rot.Weighted>
5.0665

> <Gold.Chemscore.Internal.Correction.Weighted>
   9.000000E+99

> <Gold.Protein.RotatedTorsions>
[ 6907 6896 6895 6894 ] final   73.24 input  -60.11 | X-H torsion
[ 7974 7965 7964 7962 ] final   15.31 input  175.53 | X-H torsion
[ 8008 7997 7996 7995 ] final   34.19 input   59.86 | X-H torsion
[ 10167 10162 10161 10158 ] final -130.20 input  -65.29 | X-H torsion
[ 10718 10713 10712 10709 ] final -103.75 input   66.30 | X-H torsion
[ 10763 10752 10751 10750 ] final   47.14 input  -60.55 | X-H torsion
[ 11005 11000 10999 10996 ] final -110.90 input  -57.11 | X-H torsion

> <Gold.Protein.ActiveResidues>
 VAL166  LYS551  ARG553  GLY616  TRP617  ASP618  TYR619  PRO620  LYS621  CYS622 
 ASP623  PHE694  ASN695  SER759  ASP760  ASP761  ALA762  ILE779  LEU786  VAL792 
 PHE793  MET794  SER795  GLU796  ALA797  LYS798  CYS799  TRP800  GLU811  SER814 

> <Gold.Protein.RotatedAtoms>
  152.4912  134.4451  159.9555 H   0  0  0  0  0  0  0  0  0  0  0  0  # atno 6907 bound_to 6896
  151.4438  133.3630  159.2793 H   0  0  0  0  0  0  0  0  0  0  0  0  # atno 6908 bound_to 6896
  150.9069  134.8508  159.7459 H   0  0  0  0  0  0  0  0  0  0  0  0  # atno 6909 bound_to 6896
  146.2282  139.8913  142.8554 H   0  0  0  0  0  0  0  0  0  0  0  0  # atno 7974 bound_to 7965
  155.1507  140.3274  155.4432 H   0  0  0  0  0  0  0  0  0  0  0  0  # atno 8008 bound_to 7997
  156.2575  140.1977  156.6569 H   0  0  0  0  0  0  0  0  0  0  0  0  # atno 8009 bound_to 7997
  154.6475  140.0562  156.9903 H   0  0  0  0  0  0  0  0  0  0  0  0  # atno 8010 bound_to 7997
  139.9318  143.6264  152.2527 H   0  0  0  0  0  0  0  0  0  0  0  0  # atno 10167 bound_to 10162
  156.0277  130.5482  150.7298 H   0  0  0  0  0  0  0  0  0  0  0  0  # atno 10718 bound_to 10713
  152.9803  135.5985  154.3715 H   0  0  0  0  0  0  0  0  0  0  0  0  # atno 10763 bound_to 10752
  154.3387  135.2768  155.2435 H   0  0  0  0  0  0  0  0  0  0  0  0  # atno 10764 bound_to 10752
  154.4527  135.5986  153.6257 H   0  0  0  0  0  0  0  0  0  0  0  0  # atno 10765 bound_to 10752
  141.0765  133.9292  157.2379 H   0  0  0  0  0  0  0  0  0  0  0  0  # atno 11005 bound_to 11000
  145.2415  141.0011  143.3933 LP  0  0  0  0  0  0  0  0  0  0  0  0  # atno 17320 bound_to 7965
  144.9448  139.4148  143.6431 LP  0  0  0  0  0  0  0  0  0  0  0  0  # atno 17321 bound_to 7965
  139.6776  144.7657  151.1667 LP  0  0  0  0  0  0  0  0  0  0  0  0  # atno 17342 bound_to 10162
  140.7635  143.5772  150.8933 LP  0  0  0  0  0  0  0  0  0  0  0  0  # atno 17343 bound_to 10162
  157.4893  131.0909  151.0445 LP  0  0  0  0  0  0  0  0  0  0  0  0  # atno 17370 bound_to 10713
  157.0856  130.5921  149.5429 LP  0  0  0  0  0  0  0  0  0  0  0  0  # atno 17371 bound_to 10713
  139.9577  135.0161  156.9175 LP  0  0  0  0  0  0  0  0  0  0  0  0  # atno 17394 bound_to 11000
  140.5562  134.0579  155.7384 LP  0  0  0  0  0  0  0  0  0  0  0  0  # atno 17395 bound_to 11000

$$$$
