AV-unprocessed.smi:641|AV-procd|sdf|3151|dock3
  -GOLD-   22720 0 73D 1   1.00000     0.00000
 Structure written by MMmdl.
 39 40  0  0  0  0  0  0  0  0  1 V2000
  145.2123  131.0258  151.3489 C   0  0  0  0  0  0  0  0  0  0  0  0
  144.8559  132.4702  151.5089 C   0  0  0  0  0  0  0  0  0  0  0  0
  143.5941  133.0083  151.5798 C   0  0  0  0  0  0  0  0  0  0  0  0
  143.6324  134.7413  151.7670 S   0  0  0  0  0  0  0  0  0  0  0  0
  145.3873  134.6663  151.7431 C   0  0  0  0  0  0  0  0  0  0  0  0
  146.1911  135.8305  151.8621 N   0  0  0  0  0  0  0  0  0  0  0  0
  145.8131  137.0655  152.2360 C   0  0  0  0  0  0  0  0  0  0  0  0
  144.6690  137.3941  152.5512 O   0  0  0  0  0  0  0  0  0  0  0  0
  146.8516  137.9144  152.2282 N   0  0  0  0  0  0  0  0  0  0  0  0
  146.7862  139.3341  152.5640 C   0  0  0  0  0  0  0  0  0  0  0  0
  147.6729  139.6956  153.7735 C   0  0  0  0  0  0  0  0  0  0  0  0
  148.1298  141.1671  153.7809 C   0  0  0  0  0  0  0  0  0  0  0  0
  149.0788  141.4532  154.9583 C   0  0  0  0  0  0  0  0  0  0  0  0
  150.2530  140.5797  154.8943 N   0  0  0  0  0  0  0  0  0  0  0  0
  151.1659  140.8842  155.9910 C   0  0  0  0  0  0  0  0  0  0  0  0
  152.2848  139.9307  156.0777 C   0  0  0  0  0  0  0  0  0  0  0  0
  153.1635  139.1811  156.1458 N   0  0  0  0  0  0  0  0  0  0  0  0
  149.8337  139.1828  155.0072 C   0  0  0  0  0  0  0  0  0  0  0  0
  148.9226  138.8013  153.8279 C   0  0  0  0  0  0  0  0  0  0  0  0
  145.8708  133.4265  151.6043 N   0  0  0  0  0  0  0  0  0  0  0  0
  144.3305  130.4166  151.1487 H   0  0  0  0  0  0  0  0  0  0  0  0
  145.6853  130.6362  152.2505 H   0  0  0  0  0  0  0  0  0  0  0  0
  145.9070  130.8805  150.5212 H   0  0  0  0  0  0  0  0  0  0  0  0
  142.6468  132.4917  151.5333 H   0  0  0  0  0  0  0  0  0  0  0  0
  147.1656  135.7096  151.6294 H   0  0  0  0  0  0  0  0  0  0  0  0
  147.7559  137.5546  151.9600 H   0  0  0  0  0  0  0  0  0  0  0  0
  147.1222  139.8887  151.6876 H   0  0  0  0  0  0  0  0  0  0  0  0
  145.7560  139.6486  152.7407 H   0  0  0  0  0  0  0  0  0  0  0  0
  147.0940  139.5171  154.6812 H   0  0  0  0  0  0  0  0  0  0  0  0
  148.6287  141.4080  152.8410 H   0  0  0  0  0  0  0  0  0  0  0  0
  147.2690  141.8319  153.8522 H   0  0  0  0  0  0  0  0  0  0  0  0
  149.3912  142.4970  154.9176 H   0  0  0  0  0  0  0  0  0  0  0  0
  148.5587  141.3128  155.9070 H   0  0  0  0  0  0  0  0  0  0  0  0
  151.5706  141.8927  155.8961 H   0  0  0  0  0  0  0  0  0  0  0  0
  150.6341  140.8318  156.9416 H   0  0  0  0  0  0  0  0  0  0  0  0
  150.7140  138.5390  155.0056 H   0  0  0  0  0  0  0  0  0  0  0  0
  149.3189  139.0192  155.9553 H   0  0  0  0  0  0  0  0  0  0  0  0
  148.6285  137.7553  153.9187 H   0  0  0  0  0  0  0  0  0  0  0  0
  149.4817  138.8845  152.8945 H   0  0  0  0  0  0  0  0  0  0  0  0
  1  2  1  0  0  0  0
  1 21  1  0  0  0  0
  1 22  1  0  0  0  0
  1 23  1  0  0  0  0
  2 20  1  0  0  0  0
  2  3  2  0  0  0  0
  3  4  1  0  0  0  0
  3 24  1  0  0  0  0
  4  5  1  0  0  0  0
  5  6  1  0  0  0  0
  5 20  2  0  0  0  0
  6  7  1  0  0  0  0
  6 25  1  0  0  0  0
  7  8  2  0  0  0  0
  7  9  1  0  0  0  0
  9 10  1  0  0  0  0
  9 26  1  0  0  0  0
 10 11  1  0  0  0  0
 10 27  1  0  0  0  0
 10 28  1  0  0  0  0
 11 19  1  0  0  0  0
 11 12  1  0  0  0  0
 11 29  1  0  0  0  0
 12 13  1  0  0  0  0
 12 30  1  0  0  0  0
 12 31  1  0  0  0  0
 13 14  1  0  0  0  0
 13 32  1  0  0  0  0
 13 33  1  0  0  0  0
 14 15  1  0  0  0  0
 14 18  1  0  0  0  0
 15 16  1  0  0  0  0
 15 34  1  0  0  0  0
 15 35  1  0  0  0  0
 16 17  3  0  0  0  0
 18 19  1  0  0  0  0
 18 36  1  0  0  0  0
 18 37  1  0  0  0  0
 19 38  1  0  0  0  0
 19 39  1  0  0  0  0
M  END
> <s_m_source_file>
AV-unprocessed.smi

> <i_m_source_file_index>
641

> <i_lp_mmshare_version>
43012

> <i_f3d_flags>
0

> <s_epik_input>
W0NIM11jMVtjSF1zYyhuMSlbTkhdQyg9TylbTkhdW0NIMl1bQ0hdMltDSDJdW0NIMl1OKFtDSDJdQyNOKVtDSDJdW0NIMl0y

> <s_epik_cmdline>
J2VwaWtfcHl0aG9uJywgJy1waCcsICc3LjAnLCAnLXRuJywgJzgnLCAnLW1hJywgJzIwMCcsICctbWV0YWxfYmluZGluZycsICctaW1hZScsICc8aW5maWxlLm1hZT4nLCAnLW9tYWUnLCAnPG91dGZpbGUubWFlPic=

> <r_lp_tautomer_probability>
0.999

> <r_epik_Ionization_Penalty>
0.00182121

> <r_epik_Ionization_Penalty_Charging>
0

> <r_epik_Ionization_Penalty_Neutral>
0.00182121

> <r_epik_State_Penalty>
0.000177984

> <r_epik_Charging_Adjusted_Penalty>
0.000177984

> <i_epik_Tot_Q>
0

> <i_epik_Tot_abs_Q>
0

> <r_epik_Metal_State_Penalty>
-0

> <b_epik_Metal_Only>
0

> <s_lp_Force_Field>
OPLS_2005

> <r_lp_Energy>
13.7532

> <b_lp_Chiralities_Consistent>
1

> <s_lp_Variant>
AV-unprocessed.smi:641-1

> <Gold.Version>
5.8.1

> <Gold.Id.Protein>
6NUR|6NUR_protein|mol2

> <Gold.PLP.Fitness>
46.0342

> <Gold.PLP.PLP>
-35.6458

> <Gold.PLP.part.hbond>
-3.9872

> <Gold.PLP.part.metal>
0.0000

> <Gold.PLP.part.buried>
-2.1894

> <Gold.PLP.part.nonpolar>
-30.4970

> <Gold.PLP.part.repulsive>
0.9668

> <Gold.PLP.ligand.clash>
0.0000

> <Gold.PLP.ligand.torsion>
0.3770

> <Gold.PLP.Chemscore.Hbond>
3.7120

> <Gold.PLP.Chemscore.CHOScore>
0.0000

> <Gold.PLP.Chemscore.Metal>
0.0000

> <Gold.Chemscore.Hbonds>
donor molecule, donor type, donor heavy atom, donor atom, acceptor molecule, acceptor atom, score
      L1  H     6    25       P1  7948  1.00
      L1  H     9    26       P1  7948  1.00
      P1  H  7989  7998       L1    14  0.65
      P1  H  7997  8008       L1    17  1.00

> <Gold.PLP.Chemscore.Internal.Correction>
0.0064

> <Gold.Rescore>
     Score         DG    S(hbond)    S(metal)    S(lipo)     H(rot)  DE(clash)    DE(int)     intcor
     18.08     -19.58       2.84        0.00      75.06       1.62       0.05       1.45       ----

> <Gold.Chemscore.Fitness>
18.0796

> <Gold.Chemscore.DG>
-19.5799

> <Gold.Chemscore.ZeroCoef>
-5.4800

> <Gold.Chemscore.Hbond>
2.8355

> <Gold.Chemscore.Metal>
0.0000

> <Gold.Chemscore.Lipo>
75.0600

> <Gold.Chemscore.Internal_Hbond>
0.0000

> <Gold.Chemscore.DEClash>
0.0466

> <Gold.Chemscore.DEInternal>
1.4537

> <Gold.Chemscore.Rot>
1.6221

> <Gold.Chemscore.Internal.Correction>
   9.000000E+99

> <Gold.Chemscore.Hbonds>
donor molecule, donor type, donor heavy atom, donor atom, acceptor molecule, acceptor atom, score
      L1  H     6    25       P1  7948  0.95
      L1  H     9    26       P1  7948  0.97
      P1  H  7989  7998       L1    14  0.05
      P1  H  7997  8008       L1    17  0.37

> <Gold.Chemscore.Hbond.Weighted>
-9.4704

> <Gold.Chemscore.Metal.Weighted>
-0.0000

> <Gold.Chemscore.Lipo.Weighted>
-8.7820

> <Gold.Chemscore.Internal_Hbond.Weighted>
0.0000

> <Gold.Chemscore.DEClash.Weighted>
0.0466

> <Gold.Chemscore.DEInternal.Weighted>
1.4537

> <Gold.Chemscore.Rot.Weighted>
4.1525

> <Gold.Chemscore.Internal.Correction.Weighted>
   9.000000E+99

> <Gold.Protein.RotatedTorsions>
[ 6907 6896 6895 6894 ] final  -39.46 input  -60.11 | X-H torsion
[ 7974 7965 7964 7962 ] final -166.76 input  175.53 | X-H torsion
[ 8008 7997 7996 7995 ] final  -53.20 input   59.86 | X-H torsion
[ 10167 10162 10161 10158 ] final   51.93 input  -65.29 | X-H torsion
[ 10718 10713 10712 10709 ] final   70.02 input   66.30 | X-H torsion
[ 10763 10752 10751 10750 ] final  -46.60 input  -60.55 | X-H torsion
[ 11005 11000 10999 10996 ] final  176.79 input  -57.11 | X-H torsion

> <Gold.Protein.ActiveResidues>
 VAL166  LYS551  ARG553  GLY616  TRP617  ASP618  TYR619  PRO620  LYS621  CYS622 
 ASP623  PHE694  ASN695  SER759  ASP760  ASP761  ALA762  ILE779  LEU786  VAL792 
 PHE793  MET794  SER795  GLU796  ALA797  LYS798  CYS799  TRP800  GLU811  SER814 

> <Gold.Protein.RotatedAtoms>
  150.9900  134.9237  159.7893 H   0  0  0  0  0  0  0  0  0  0  0  0  # atno 6907 bound_to 6896
  152.5248  134.3294  159.9187 H   0  0  0  0  0  0  0  0  0  0  0  0  # atno 6908 bound_to 6896
  151.3300  133.3963  159.2696 H   0  0  0  0  0  0  0  0  0  0  0  0  # atno 6909 bound_to 6896
  144.7238  140.2619  143.6263 H   0  0  0  0  0  0  0  0  0  0  0  0  # atno 7974 bound_to 7965
  154.4127  140.1205  156.5116 H   0  0  0  0  0  0  0  0  0  0  0  0  # atno 8008 bound_to 7997
  155.6793  140.3496  155.4830 H   0  0  0  0  0  0  0  0  0  0  0  0  # atno 8009 bound_to 7997
  155.9565  140.1115  157.0922 H   0  0  0  0  0  0  0  0  0  0  0  0  # atno 8010 bound_to 7997
  140.2567  144.3419  150.6331 H   0  0  0  0  0  0  0  0  0  0  0  0  # atno 10167 bound_to 10162
  157.6377  130.9456  150.0593 H   0  0  0  0  0  0  0  0  0  0  0  0  # atno 10718 bound_to 10713
  154.0476  135.6635  153.4797 H   0  0  0  0  0  0  0  0  0  0  0  0  # atno 10763 bound_to 10752
  153.0476  135.5104  154.7782 H   0  0  0  0  0  0  0  0  0  0  0  0  # atno 10764 bound_to 10752
  154.6778  135.3040  154.9621 H   0  0  0  0  0  0  0  0  0  0  0  0  # atno 10765 bound_to 10752
  140.3770  134.6980  157.4427 H   0  0  0  0  0  0  0  0  0  0  0  0  # atno 11005 bound_to 11000
  145.8127  139.2010  143.1983 LP  0  0  0  0  0  0  0  0  0  0  0  0  # atno 17320 bound_to 7965
  146.0582  140.7999  142.9748 LP  0  0  0  0  0  0  0  0  0  0  0  0  # atno 17321 bound_to 7965
  140.5998  143.2167  151.7094 LP  0  0  0  0  0  0  0  0  0  0  0  0  # atno 17342 bound_to 10162
  139.5029  144.3810  152.0376 LP  0  0  0  0  0  0  0  0  0  0  0  0  # atno 17343 bound_to 10162
  156.1631  130.3644  149.9271 LP  0  0  0  0  0  0  0  0  0  0  0  0  # atno 17370 bound_to 10713
  156.7265  130.9027  151.3622 LP  0  0  0  0  0  0  0  0  0  0  0  0  # atno 17371 bound_to 10713
  140.0508  134.6134  155.8864 LP  0  0  0  0  0  0  0  0  0  0  0  0  # atno 17394 bound_to 11000
  141.1936  133.6579  156.5556 LP  0  0  0  0  0  0  0  0  0  0  0  0  # atno 17395 bound_to 11000

$$$$
