AV-unprocessed.smi:2114|AV-procd|sdf|8618|dock8
  -GOLD-   2272011363D 1   1.00000     0.00000
 Structure written by MMmdl.
 47 48  0  0  0  0  0  0  0  0  1 V2000
  153.7453  133.0764  165.3632 C   0  0  0  0  0  0  0  0  0  0  0  0
  154.8571  133.7888  164.8504 O   0  0  0  0  0  0  0  0  0  0  0  0
  154.4816  135.0005  164.2150 C   0  0  0  0  0  0  0  0  0  0  0  0
  155.3169  135.1876  162.9393 C   0  0  1  0  0  0  0  0  0  0  0  0
  155.2349  133.9534  162.0263 C   0  0  0  0  0  0  0  0  0  0  0  0
  154.8551  136.3758  162.2271 N   0  0  0  0  0  0  0  0  0  0  0  0
  154.8991  137.6328  162.6974 C   0  0  0  0  0  0  0  0  0  0  0  0
  155.3876  137.9372  163.7859 O   0  0  0  0  0  0  0  0  0  0  0  0
  154.3672  138.6872  161.7713 C   0  0  0  0  0  0  0  0  0  0  0  0
  154.5528  140.0556  162.0572 C   0  0  0  0  0  0  0  0  0  0  0  0
  154.0226  141.0185  161.1773 C   0  0  0  0  0  0  0  0  0  0  0  0
  153.3094  140.5900  160.0329 C   0  0  0  0  0  0  0  0  0  0  0  0
  152.7730  141.5389  159.1366 N   0  0  0  0  0  0  0  0  0  0  0  0
  152.6048  142.9104  159.6112 C   0  0  0  0  0  0  0  0  0  0  0  0
  152.2933  143.8527  158.4339 C   0  0  2  0  0  0  0  0  0  0  0  0
  151.9925  145.2798  158.9034 C   0  0  0  0  0  0  0  0  0  0  0  0
  151.1544  143.3621  157.7322 O   0  0  0  0  0  0  0  0  0  0  0  0
  151.3720  142.0669  157.1795 C   0  0  2  0  0  0  0  0  0  0  0  0
  150.1313  141.6760  156.3703 C   0  0  0  0  0  0  0  0  0  0  0  0
  151.6572  141.0709  158.3193 C   0  0  0  0  0  0  0  0  0  0  0  0
  153.1149  139.2743  159.7701 N   0  0  0  0  0  0  0  0  0  0  0  0
  153.6264  138.3549  160.6154 C   0  0  0  0  0  0  0  0  0  0  0  0
  154.0876  132.1588  165.8416 H   0  0  0  0  0  0  0  0  0  0  0  0
  153.0513  132.8025  164.5676 H   0  0  0  0  0  0  0  0  0  0  0  0
  153.2094  133.6651  166.1088 H   0  0  0  0  0  0  0  0  0  0  0  0
  153.4206  134.9622  163.9618 H   0  0  0  0  0  0  0  0  0  0  0  0
  154.6250  135.8447  164.8920 H   0  0  0  0  0  0  0  0  0  0  0  0
  156.3580  135.3296  163.2354 H   0  0  0  0  0  0  0  0  0  0  0  0
  155.5827  133.0597  162.5450 H   0  0  0  0  0  0  0  0  0  0  0  0
  155.8541  134.0757  161.1372 H   0  0  0  0  0  0  0  0  0  0  0  0
  154.2116  133.7699  161.6970 H   0  0  0  0  0  0  0  0  0  0  0  0
  154.4551  136.2271  161.3118 H   0  0  0  0  0  0  0  0  0  0  0  0
  155.0955  140.3718  162.9365 H   0  0  0  0  0  0  0  0  0  0  0  0
  154.1545  142.0674  161.3971 H   0  0  0  0  0  0  0  0  0  0  0  0
  151.7956  142.9408  160.3426 H   0  0  0  0  0  0  0  0  0  0  0  0
  153.5127  143.2468  160.1137 H   0  0  0  0  0  0  0  0  0  0  0  0
  153.1460  143.8845  157.7532 H   0  0  0  0  0  0  0  0  0  0  0  0
  152.8417  145.7033  159.4401 H   0  0  0  0  0  0  0  0  0  0  0  0
  151.1298  145.3022  159.5699 H   0  0  0  0  0  0  0  0  0  0  0  0
  151.7766  145.9312  158.0565 H   0  0  0  0  0  0  0  0  0  0  0  0
  152.2279  142.1054  156.5029 H   0  0  0  0  0  0  0  0  0  0  0  0
  150.2547  140.6944  155.9121 H   0  0  0  0  0  0  0  0  0  0  0  0
  149.9457  142.3947  155.5719 H   0  0  0  0  0  0  0  0  0  0  0  0
  149.2429  141.6424  157.0015 H   0  0  0  0  0  0  0  0  0  0  0  0
  151.8558  140.0885  157.8935 H   0  0  0  0  0  0  0  0  0  0  0  0
  150.7778  140.9679  158.9563 H   0  0  0  0  0  0  0  0  0  0  0  0
  153.4288  137.3253  160.3548 H   0  0  0  0  0  0  0  0  0  0  0  0
  1  2  1  0  0  0  0
  1 23  1  0  0  0  0
  1 24  1  0  0  0  0
  1 25  1  0  0  0  0
  2  3  1  0  0  0  0
  3  4  1  0  0  0  0
  3 26  1  0  0  0  0
  3 27  1  0  0  0  0
  4  5  1  0  0  0  0
  4  6  1  0  0  0  0
  4 28  1  0  0  0  0
  5 29  1  0  0  0  0
  5 30  1  0  0  0  0
  5 31  1  0  0  0  0
  6  7  1  0  0  0  0
  6 32  1  0  0  0  0
  7  8  2  0  0  0  0
  7  9  1  0  0  0  0
  9 22  1  0  0  0  0
  9 10  2  0  0  0  0
 10 11  1  0  0  0  0
 10 33  1  0  0  0  0
 11 12  2  0  0  0  0
 11 34  1  0  0  0  0
 12 13  1  0  0  0  0
 12 21  1  0  0  0  0
 13 20  1  0  0  0  0
 13 14  1  0  0  0  0
 14 15  1  0  0  0  0
 14 35  1  0  0  0  0
 14 36  1  0  0  0  0
 15 16  1  0  0  0  0
 15 17  1  0  0  0  0
 15 37  1  0  0  0  0
 16 38  1  0  0  0  0
 16 39  1  0  0  0  0
 16 40  1  0  0  0  0
 17 18  1  0  0  0  0
 18 19  1  0  0  0  0
 18 20  1  0  0  0  0
 18 41  1  0  0  0  0
 19 42  1  0  0  0  0
 19 43  1  0  0  0  0
 19 44  1  0  0  0  0
 20 45  1  0  0  0  0
 20 46  1  0  0  0  0
 21 22  2  0  0  0  0
 22 47  1  0  0  0  0
M  END
> <s_m_source_file>
AV-unprocessed.smi

> <i_m_source_file_index>
2114

> <i_lp_mmshare_version>
43012

> <i_f3d_flags>
0

> <s_epik_input>
W0NIM11PW0NIMl1bQ0BIXShbQ0gzXSlbTkhdQyg9TyljMVtjSF1bY0hdYyhuW2NIXTEpTjJbQ0gyXVtDQEBIXShbQ0gzXSlPW0NAQEhdKFtDSDNdKVtDSDJdMg==

> <s_epik_cmdline>
J2VwaWtfcHl0aG9uJywgJy1waCcsICc3LjAnLCAnLXRuJywgJzgnLCAnLW1hJywgJzIwMCcsICctbWV0YWxfYmluZGluZycsICctaW1hZScsICc8aW5maWxlLm1hZT4nLCAnLW9tYWUnLCAnPG91dGZpbGUubWFlPic=

> <r_lp_tautomer_probability>
1

> <r_epik_Ionization_Penalty>
1.92915e-05

> <r_epik_Ionization_Penalty_Charging>
0

> <r_epik_Ionization_Penalty_Neutral>
1.92915e-05

> <r_epik_State_Penalty>
-0

> <r_epik_Charging_Adjusted_Penalty>
0

> <i_epik_Tot_Q>
0

> <i_epik_Tot_abs_Q>
0

> <r_epik_Metal_State_Penalty>
-0

> <b_epik_Metal_Only>
0

> <s_lp_Force_Field>
OPLS_2005

> <r_lp_Energy>
18.3403

> <b_lp_Chiralities_Consistent>
1

> <s_lp_Variant>
AV-unprocessed.smi:2114-2

> <Gold.Version>
5.8.1

> <Gold.Id.Protein>
6NUR|6NUR_protein|mol2

> <Gold.PLP.Fitness>
41.9892

> <Gold.PLP.PLP>
-43.5555

> <Gold.PLP.part.hbond>
0.0000

> <Gold.PLP.part.metal>
0.0000

> <Gold.PLP.part.buried>
-6.6675

> <Gold.PLP.part.nonpolar>
-37.0668

> <Gold.PLP.part.repulsive>
0.2578

> <Gold.PLP.ligand.clash>
0.0000

> <Gold.PLP.ligand.torsion>
0.9550

> <Gold.PLP.Chemscore.Hbond>
0.0000

> <Gold.PLP.Chemscore.CHOScore>
0.0000

> <Gold.PLP.Chemscore.Metal>
0.0000

> <Gold.PLP.Chemscore.Internal.Correction>
0.3438

> <Gold.Rescore>
     Score         DG    S(hbond)    S(metal)    S(lipo)     H(rot)  DE(clash)    DE(int)     intcor
     14.62     -15.60       0.00        0.00     119.80       1.52       0.01       0.97       ----

> <Gold.Chemscore.Fitness>
14.6150

> <Gold.Chemscore.DG>
-15.5982

> <Gold.Chemscore.ZeroCoef>
-5.4800

> <Gold.Chemscore.Hbond>
0.0000

> <Gold.Chemscore.Metal>
0.0000

> <Gold.Chemscore.Lipo>
119.7967

> <Gold.Chemscore.Internal_Hbond>
0.0000

> <Gold.Chemscore.DEClash>
0.0089

> <Gold.Chemscore.DEInternal>
0.9743

> <Gold.Chemscore.Rot>
1.5226

> <Gold.Chemscore.Internal.Correction>
   9.000000E+99

> <Gold.Chemscore.Hbond.Weighted>
-0.0000

> <Gold.Chemscore.Metal.Weighted>
-0.0000

> <Gold.Chemscore.Lipo.Weighted>
-14.0162

> <Gold.Chemscore.Internal_Hbond.Weighted>
0.0000

> <Gold.Chemscore.DEClash.Weighted>
0.0089

> <Gold.Chemscore.DEInternal.Weighted>
0.9743

> <Gold.Chemscore.Rot.Weighted>
3.8980

> <Gold.Chemscore.Internal.Correction.Weighted>
   9.000000E+99

> <Gold.Protein.RotatedTorsions>
[ 6907 6896 6895 6894 ] final -179.75 input  -60.11 | X-H torsion
[ 7974 7965 7964 7962 ] final  179.42 input  175.53 | X-H torsion
[ 8008 7997 7996 7995 ] final  -99.76 input   59.86 | X-H torsion
[ 10167 10162 10161 10158 ] final  -24.50 input  -65.29 | X-H torsion
[ 10718 10713 10712 10709 ] final -123.93 input   66.30 | X-H torsion
[ 10763 10752 10751 10750 ] final  137.30 input  -60.55 | X-H torsion
[ 11005 11000 10999 10996 ] final   17.68 input  -57.11 | X-H torsion

> <Gold.Protein.ActiveResidues>
 VAL166  LYS551  ARG553  GLY616  TRP617  ASP618  TYR619  PRO620  LYS621  CYS622 
 ASP623  PHE694  ASN695  SER759  ASP760  ASP761  ALA762  ILE779  LEU786  VAL792 
 PHE793  MET794  SER795  GLU796  ALA797  LYS798  CYS799  TRP800  GLU811  SER814 

> <Gold.Protein.RotatedAtoms>
  151.6585  133.3318  159.3168 H   0  0  0  0  0  0  0  0  0  0  0  0  # atno 6907 bound_to 6896
  150.7925  134.6964  159.6535 H   0  0  0  0  0  0  0  0  0  0  0  0  # atno 6908 bound_to 6896
  152.4007  134.6295  160.0123 H   0  0  0  0  0  0  0  0  0  0  0  0  # atno 6909 bound_to 6896
  144.7146  140.0545  143.6434 H   0  0  0  0  0  0  0  0  0  0  0  0  # atno 7974 bound_to 7965
  154.8193  140.0445  157.1399 H   0  0  0  0  0  0  0  0  0  0  0  0  # atno 8008 bound_to 7997
  154.9278  140.3035  155.5163 H   0  0  0  0  0  0  0  0  0  0  0  0  # atno 8009 bound_to 7997
  156.2979  140.2328  156.4335 H   0  0  0  0  0  0  0  0  0  0  0  0  # atno 8010 bound_to 7997
  140.7288  143.4347  151.0747 H   0  0  0  0  0  0  0  0  0  0  0  0  # atno 10167 bound_to 10162
  156.1544  130.6558  150.9961 H   0  0  0  0  0  0  0  0  0  0  0  0  # atno 10718 bound_to 10713
  153.8707  135.3056  155.3442 H   0  0  0  0  0  0  0  0  0  0  0  0  # atno 10763 bound_to 10752
  154.7807  135.4837  153.9841 H   0  0  0  0  0  0  0  0  0  0  0  0  # atno 10764 bound_to 10752
  153.1408  135.6823  153.9127 H   0  0  0  0  0  0  0  0  0  0  0  0  # atno 10765 bound_to 10752
  140.4332  134.1398  155.7682 H   0  0  0  0  0  0  0  0  0  0  0  0  # atno 11005 bound_to 11000
  145.9916  139.3019  143.0981 LP  0  0  0  0  0  0  0  0  0  0  0  0  # atno 17320 bound_to 7965
  145.8896  140.9312  143.0559 LP  0  0  0  0  0  0  0  0  0  0  0  0  # atno 17321 bound_to 7965
  139.8008  143.8086  152.3162 LP  0  0  0  0  0  0  0  0  0  0  0  0  # atno 17342 bound_to 10162
  139.8102  144.7339  150.9707 LP  0  0  0  0  0  0  0  0  0  0  0  0  # atno 17343 bound_to 10162
  157.6683  131.0867  150.7674 LP  0  0  0  0  0  0  0  0  0  0  0  0  # atno 17370 bound_to 10713
  156.7740  130.4838  149.5413 LP  0  0  0  0  0  0  0  0  0  0  0  0  # atno 17371 bound_to 10713
  141.1737  133.8558  157.1491 LP  0  0  0  0  0  0  0  0  0  0  0  0  # atno 17394 bound_to 11000
  140.0120  134.9984  157.0415 LP  0  0  0  0  0  0  0  0  0  0  0  0  # atno 17395 bound_to 11000

$$$$
