AV-unprocessed.smi:786|AV-procd|sdf|3724|dock9
  -GOLD-   22720 1153D 1   1.00000     0.00000
 Structure written by MMmdl.
 39 40  0  0  0  0  0  0  0  0  3 V2000
  152.5984  137.4370  155.7925 O   0  0  0  0  0  0  0  0  0  0  0  0
  152.1903  138.8282  156.0437 S   0  0  0  0  0  0  0  0  0  0  0  0
  152.0139  139.6883  154.8624 O   0  0  0  0  0  0  0  0  0  0  0  0
  150.5260  138.7608  156.8556 C   0  0  0  0  0  0  0  0  0  0  0  0
  149.3567  139.3503  156.0294 C   0  0  0  0  0  0  0  0  0  0  0  0
  149.1298  138.6806  154.6608 C   0  0  0  0  0  0  0  0  0  0  0  0
  148.0366  139.4083  153.8603 C   0  0  0  0  0  0  0  0  0  0  0  0
  148.3628  140.7851  153.7132 O   0  0  0  0  0  0  0  0  0  0  0  0
  148.4425  141.4640  154.9605 C   0  0  0  0  0  0  0  0  0  0  0  0
  149.5702  140.8583  155.8107 C   0  0  0  0  0  0  0  0  0  0  0  0
  153.0767  139.5519  157.1953 N   0  5  0  0  0  0  0  0  0  0  0  0
  152.4391  140.1131  158.3796 C   0  0  0  0  0  0  0  0  0  0  0  0
  153.4017  141.0126  159.1926 C   0  0  0  0  0  0  0  0  0  0  0  0
  152.8531  142.3899  159.5517 C   0  0  0  0  0  0  0  0  0  0  0  0
  152.6761  142.8041  160.8917 C   0  0  0  0  0  0  0  0  0  0  0  0
  152.1674  144.0928  161.1557 C   0  0  0  0  0  0  0  0  0  0  0  0
  151.8497  144.9449  160.0778 C   0  0  0  0  0  0  0  0  0  0  0  0
  152.0502  144.4860  158.7602 C   0  0  0  0  0  0  0  0  0  0  0  0
  152.5396  143.2454  158.5486 N   0  3  0  0  0  0  0  0  0  0  0  0
  150.3247  137.7131  157.0787 H   0  0  0  0  0  0  0  0  0  0  0  0
  150.6127  139.2760  157.8122 H   0  0  0  0  0  0  0  0  0  0  0  0
  148.4400  139.2361  156.6089 H   0  0  0  0  0  0  0  0  0  0  0  0
  150.0596  138.6736  154.0909 H   0  0  0  0  0  0  0  0  0  0  0  0
  148.8231  137.6434  154.7837 H   0  0  0  0  0  0  0  0  0  0  0  0
  147.9403  138.9623  152.8704 H   0  0  0  0  0  0  0  0  0  0  0  0
  147.0665  139.3055  154.3492 H   0  0  0  0  0  0  0  0  0  0  0  0
  148.6401  142.5197  154.7746 H   0  0  0  0  0  0  0  0  0  0  0  0
  147.4860  141.4061  155.4825 H   0  0  0  0  0  0  0  0  0  0  0  0
  149.6244  141.3741  156.7699 H   0  0  0  0  0  0  0  0  0  0  0  0
  150.5255  141.0275  155.3118 H   0  0  0  0  0  0  0  0  0  0  0  0
  151.5669  140.7066  158.1041 H   0  0  0  0  0  0  0  0  0  0  0  0
  152.0566  139.3288  159.0331 H   0  0  0  0  0  0  0  0  0  0  0  0
  153.6552  140.5002  160.1211 H   0  0  0  0  0  0  0  0  0  0  0  0
  154.3484  141.1314  158.6648 H   0  0  0  0  0  0  0  0  0  0  0  0
  152.9223  142.1400  161.7072 H   0  0  0  0  0  0  0  0  0  0  0  0
  152.0222  144.4234  162.1736 H   0  0  0  0  0  0  0  0  0  0  0  0
  151.4575  145.9347  160.2591 H   0  0  0  0  0  0  0  0  0  0  0  0
  151.8341  145.0667  157.8755 H   0  0  0  0  0  0  0  0  0  0  0  0
  152.6698  142.9282  157.5862 H   0  0  0  0  0  0  0  0  0  0  0  0
  1  2  2  0  0  0  0
  2  3  2  0  0  0  0
  2  4  1  0  0  0  0
  2 11  1  0  0  0  0
  4  5  1  0  0  0  0
  4 20  1  0  0  0  0
  4 21  1  0  0  0  0
  5 10  1  0  0  0  0
  5  6  1  0  0  0  0
  5 22  1  0  0  0  0
  6  7  1  0  0  0  0
  6 23  1  0  0  0  0
  6 24  1  0  0  0  0
  7  8  1  0  0  0  0
  7 25  1  0  0  0  0
  7 26  1  0  0  0  0
  8  9  1  0  0  0  0
  9 10  1  0  0  0  0
  9 27  1  0  0  0  0
  9 28  1  0  0  0  0
 10 29  1  0  0  0  0
 10 30  1  0  0  0  0
 11 12  1  0  0  0  0
 12 13  1  0  0  0  0
 12 31  1  0  0  0  0
 12 32  1  0  0  0  0
 13 14  1  0  0  0  0
 13 33  1  0  0  0  0
 13 34  1  0  0  0  0
 14 19  1  0  0  0  0
 14 15  2  0  0  0  0
 15 16  1  0  0  0  0
 15 35  1  0  0  0  0
 16 17  2  0  0  0  0
 16 36  1  0  0  0  0
 17 18  1  0  0  0  0
 17 37  1  0  0  0  0
 18 19  2  0  0  0  0
 18 38  1  0  0  0  0
 19 39  1  0  0  0  0
M  CHG  1  11  -1
M  CHG  1  19   1
M  END
> <s_m_source_file>
AV-unprocessed.smi

> <i_m_source_file_index>
786

> <i_lp_mmshare_version>
43012

> <i_f3d_flags>
0

> <s_epik_input>
W0NIMl0xW0NIMl1PW0NIMl1bQ0gyXVtDSF0xW0NIMl1TKD1PKSg9TylbTkhdW0NIMl1bQ0gyXWMyW2NIXVtjSF1bY0hdW2NIXW4y

> <s_epik_cmdline>
J2VwaWtfcHl0aG9uJywgJy1waCcsICc3LjAnLCAnLXRuJywgJzgnLCAnLW1hJywgJzIwMCcsICctbWV0YWxfYmluZGluZycsICctaW1hZScsICc8aW5maWxlLm1hZT4nLCAnLW9tYWUnLCAnPG91dGZpbGUubWFlPic=

> <r_epik_Ionization_Penalty>
7.39271

> <r_epik_Ionization_Penalty_Charging>
7.39271

> <r_epik_Ionization_Penalty_Neutral>
5.66014e-11

> <r_epik_State_Penalty>
8.23716

> <r_epik_Charging_Adjusted_Penalty>
15.6299

> <i_epik_Tot_Q>
0

> <i_epik_Tot_abs_Q>
2

> <r_epik_Metal_State_Penalty>
4.19267

> <b_epik_Metal_Only>
1

> <s_lp_Force_Field>
OPLS_2005

> <r_lp_Energy>
3.22126

> <b_lp_Chiralities_Consistent>
1

> <s_lp_Variant>
AV-unprocessed.smi:786-4

> <Gold.Version>
5.8.1

> <Gold.Id.Protein>
6NUR|6NUR_protein|mol2

> <Gold.PLP.Fitness>
47.7479

> <Gold.PLP.PLP>
-39.1865

> <Gold.PLP.part.hbond>
-2.9463

> <Gold.PLP.part.metal>
0.0000

> <Gold.PLP.part.buried>
-5.6527

> <Gold.PLP.part.nonpolar>
-30.8027

> <Gold.PLP.part.repulsive>
0.8978

> <Gold.PLP.ligand.clash>
0.0000

> <Gold.PLP.ligand.torsion>
1.1506

> <Gold.PLP.Chemscore.Hbond>
3.2673

> <Gold.PLP.Chemscore.CHOScore>
0.0000

> <Gold.PLP.Chemscore.Metal>
0.0000

> <Gold.Chemscore.Hbonds>
donor molecule, donor type, donor heavy atom, donor atom, acceptor molecule, acceptor atom, score
      P1  H  7989  7998       L1     3  0.90
      P1  H  7997  8008       L1    11  2.00
      P1  H 10752 10765       L1     1  0.49

> <Gold.PLP.Chemscore.Internal.Correction>
1.0608

> <Gold.Rescore>
     Score         DG    S(hbond)    S(metal)    S(lipo)     H(rot)  DE(clash)    DE(int)     intcor
     18.89     -21.45       2.63        0.00      98.34       1.68       0.02       2.54       ----

> <Gold.Chemscore.Fitness>
18.8917

> <Gold.Chemscore.DG>
-21.4518

> <Gold.Chemscore.ZeroCoef>
-5.4800

> <Gold.Chemscore.Hbond>
2.6266

> <Gold.Chemscore.Metal>
0.0000

> <Gold.Chemscore.Lipo>
98.3429

> <Gold.Chemscore.Internal_Hbond>
0.0000

> <Gold.Chemscore.DEClash>
0.0208

> <Gold.Chemscore.DEInternal>
2.5392

> <Gold.Chemscore.Rot>
1.6824

> <Gold.Chemscore.Internal.Correction>
   9.000000E+99

> <Gold.Chemscore.Hbonds>
donor molecule, donor type, donor heavy atom, donor atom, acceptor molecule, acceptor atom, score
      P1  H  7989  7998       L1     3  0.88
      P1  H  7997  8008       L1    11  0.61
      P1  H 10752 10765       L1     1  0.48

> <Gold.Chemscore.Hbond.Weighted>
-8.7727

> <Gold.Chemscore.Metal.Weighted>
-0.0000

> <Gold.Chemscore.Lipo.Weighted>
-11.5061

> <Gold.Chemscore.Internal_Hbond.Weighted>
0.0000

> <Gold.Chemscore.DEClash.Weighted>
0.0208

> <Gold.Chemscore.DEInternal.Weighted>
2.5392

> <Gold.Chemscore.Rot.Weighted>
4.3070

> <Gold.Chemscore.Internal.Correction.Weighted>
   9.000000E+99

> <Gold.Protein.RotatedTorsions>
[ 6907 6896 6895 6894 ] final   68.92 input  -60.11 | X-H torsion
[ 7974 7965 7964 7962 ] final   61.40 input  175.53 | X-H torsion
[ 8008 7997 7996 7995 ] final  -53.01 input   59.86 | X-H torsion
[ 10167 10162 10161 10158 ] final  -84.87 input  -65.29 | X-H torsion
[ 10718 10713 10712 10709 ] final   13.07 input   66.30 | X-H torsion
[ 10763 10752 10751 10750 ] final -157.20 input  -60.55 | X-H torsion
[ 11005 11000 10999 10996 ] final  -39.61 input  -57.11 | X-H torsion

> <Gold.Protein.ActiveResidues>
 VAL166  LYS551  ARG553  GLY616  TRP617  ASP618  TYR619  PRO620  LYS621  CYS622 
 ASP623  PHE694  ASN695  SER759  ASP760  ASP761  ALA762  ILE779  LEU786  VAL792 
 PHE793  MET794  SER795  GLU796  ALA797  LYS798  CYS799  TRP800  GLU811  SER814 

> <Gold.Protein.RotatedAtoms>
  152.4653  134.5091  159.9747 H   0  0  0  0  0  0  0  0  0  0  0  0  # atno 6907 bound_to 6896
  151.5130  133.3475  159.2896 H   0  0  0  0  0  0  0  0  0  0  0  0  # atno 6908 bound_to 6896
  150.8634  134.8020  159.7162 H   0  0  0  0  0  0  0  0  0  0  0  0  # atno 6909 bound_to 6896
  145.8852  139.3471  143.0682 H   0  0  0  0  0  0  0  0  0  0  0  0  # atno 7974 bound_to 7965
  154.4121  140.1210  156.5085 H   0  0  0  0  0  0  0  0  0  0  0  0  # atno 8008 bound_to 7997
  155.6823  140.3496  155.4841 H   0  0  0  0  0  0  0  0  0  0  0  0  # atno 8009 bound_to 7997
  155.9540  140.1110  157.0942 H   0  0  0  0  0  0  0  0  0  0  0  0  # atno 8010 bound_to 7997
  140.4091  143.2630  151.9041 H   0  0  0  0  0  0  0  0  0  0  0  0  # atno 10167 bound_to 10162
  157.0193  130.6148  149.5719 H   0  0  0  0  0  0  0  0  0  0  0  0  # atno 10718 bound_to 10713
  154.7654  135.3129  154.8295 H   0  0  0  0  0  0  0  0  0  0  0  0  # atno 10763 bound_to 10752
  153.9045  135.6812  153.4758 H   0  0  0  0  0  0  0  0  0  0  0  0  # atno 10764 bound_to 10752
  153.1260  135.4801  154.9205 H   0  0  0  0  0  0  0  0  0  0  0  0  # atno 10765 bound_to 10752
  141.0114  133.6906  156.2210 H   0  0  0  0  0  0  0  0  0  0  0  0  # atno 11005 bound_to 11000
  145.8975  140.9264  143.0520 LP  0  0  0  0  0  0  0  0  0  0  0  0  # atno 17320 bound_to 7965
  144.6728  140.0988  143.7461 LP  0  0  0  0  0  0  0  0  0  0  0  0  # atno 17321 bound_to 7965
  139.4783  144.5555  151.8320 LP  0  0  0  0  0  0  0  0  0  0  0  0  # atno 17342 bound_to 10162
  140.4657  144.1658  150.5911 LP  0  0  0  0  0  0  0  0  0  0  0  0  # atno 17343 bound_to 10162
  156.0108  130.5199  150.7981 LP  0  0  0  0  0  0  0  0  0  0  0  0  # atno 17370 bound_to 10713
  157.5261  131.0934  151.0016 LP  0  0  0  0  0  0  0  0  0  0  0  0  # atno 17371 bound_to 10713
  140.6726  134.4851  157.5587 LP  0  0  0  0  0  0  0  0  0  0  0  0  # atno 17394 bound_to 11000
  139.9092  134.8381  156.1590 LP  0  0  0  0  0  0  0  0  0  0  0  0  # atno 17395 bound_to 11000

$$$$
