AV-unprocessed.smi:2557|AV-procd|sdf|10031|dock3
  -GOLD-   2272014 73D 1   1.00000     0.00000
 Structure written by MMmdl.
 39 41  0  0  0  0  0  0  0  0  3 V2000
  152.1328  137.3060  155.4579 O   0  5  0  0  0  0  0  0  0  0  0  0
  152.3043  137.7530  156.6162 C   0  0  0  0  0  0  0  0  0  0  0  0
  152.0339  138.9929  157.1993 C   0  0  0  0  0  0  0  0  0  0  0  0
  151.4040  140.0551  156.4057 C   0  0  0  0  0  0  0  0  0  0  0  0
  151.0442  139.9968  155.2311 O   0  0  0  0  0  0  0  0  0  0  0  0
  151.1991  141.2880  157.0986 N   0  0  0  0  0  0  0  0  0  0  0  0
  151.5542  141.4614  158.3869 C   0  0  0  0  0  0  0  0  0  0  0  0
  151.3041  142.8018  159.0165 C   0  0  0  0  0  0  0  0  0  0  0  0
  151.6373  143.9224  158.0133 C   0  0  0  0  0  0  0  0  0  0  0  0
  151.4333  145.3083  158.6472 C   0  0  0  0  0  0  0  0  0  0  0  0
  152.2545  145.4568  159.9393 C   0  0  0  0  0  0  0  0  0  0  0  0
  151.9340  144.3329  160.9390 C   0  0  0  0  0  0  0  0  0  0  0  0
  152.1393  142.9483  160.3035 C   0  0  0  0  0  0  0  0  0  0  0  0
  152.1225  140.4790  159.1131 N   0  3  0  0  0  0  0  0  0  0  0  0
  152.3371  139.2301  158.5391 N   0  0  0  0  0  0  0  0  0  0  0  0
  152.9622  136.7167  157.4327 C   0  0  0  0  0  0  0  0  0  0  0  0
  154.2271  136.9490  158.0152 C   0  0  0  0  0  0  0  0  0  0  0  0
  154.8196  135.9233  158.7775 C   0  0  0  0  0  0  0  0  0  0  0  0
  154.2389  134.7221  158.9840 N   0  0  0  0  0  0  0  0  0  0  0  0
  153.0324  134.5011  158.4193 C   0  0  0  0  0  0  0  0  0  0  0  0
  152.3561  135.4582  157.6379 C   0  0  0  0  0  0  0  0  0  0  0  0
  150.2472  142.8750  159.2803 H   0  0  0  0  0  0  0  0  0  0  0  0
  152.6700  143.8301  157.6762 H   0  0  0  0  0  0  0  0  0  0  0  0
  151.0120  143.8217  157.1259 H   0  0  0  0  0  0  0  0  0  0  0  0
  151.7125  146.0873  157.9373 H   0  0  0  0  0  0  0  0  0  0  0  0
  150.3756  145.4568  158.8684 H   0  0  0  0  0  0  0  0  0  0  0  0
  153.3186  145.4397  159.6994 H   0  0  0  0  0  0  0  0  0  0  0  0
  152.0571  146.4273  160.3955 H   0  0  0  0  0  0  0  0  0  0  0  0
  152.5617  144.4324  161.8250 H   0  0  0  0  0  0  0  0  0  0  0  0
  150.9022  144.4297  161.2792 H   0  0  0  0  0  0  0  0  0  0  0  0
  151.8652  142.1672  161.0129 H   0  0  0  0  0  0  0  0  0  0  0  0
  153.1986  142.8104  160.0850 H   0  0  0  0  0  0  0  0  0  0  0  0
  152.3815  140.6389  160.0766 H   0  0  0  0  0  0  0  0  0  0  0  0
  152.8424  138.5796  159.1245 H   0  0  0  0  0  0  0  0  0  0  0  0
  154.7324  137.8933  157.8766 H   0  0  0  0  0  0  0  0  0  0  0  0
  155.7860  136.0725  159.2354 H   0  0  0  0  0  0  0  0  0  0  0  0
  152.5912  133.5315  158.5967 H   0  0  0  0  0  0  0  0  0  0  0  0
  151.3919  135.2334  157.2060 H   0  0  0  0  0  0  0  0  0  0  0  0
  150.7788  142.0912  156.6546 H   0  0  0  0  0  0  0  0  0  0  0  0
  1  2  1  0  0  0  0
  2  3  2  0  0  0  0
  2 16  1  0  0  0  0
  3 15  1  0  0  0  0
  3  4  1  0  0  0  0
  4  5  2  0  0  0  0
  4  6  1  0  0  0  0
  6  7  1  0  0  0  0
  6 39  1  0  0  0  0
  7  8  1  0  0  0  0
  7 14  2  0  0  0  0
  8 13  1  0  0  0  0
  8  9  1  0  0  0  0
  8 22  1  0  0  0  0
  9 10  1  0  0  0  0
  9 23  1  0  0  0  0
  9 24  1  0  0  0  0
 10 11  1  0  0  0  0
 10 25  1  0  0  0  0
 10 26  1  0  0  0  0
 11 12  1  0  0  0  0
 11 27  1  0  0  0  0
 11 28  1  0  0  0  0
 12 13  1  0  0  0  0
 12 29  1  0  0  0  0
 12 30  1  0  0  0  0
 13 31  1  0  0  0  0
 13 32  1  0  0  0  0
 14 15  1  0  0  0  0
 14 33  1  0  0  0  0
 15 34  1  0  0  0  0
 16 21  1  0  0  0  0
 16 17  2  0  0  0  0
 17 18  1  0  0  0  0
 17 35  1  0  0  0  0
 18 19  2  0  0  0  0
 18 36  1  0  0  0  0
 19 20  1  0  0  0  0
 20 21  2  0  0  0  0
 20 37  1  0  0  0  0
 21 38  1  0  0  0  0
M  CHG  1   1  -1
M  CHG  1  14   1
M  END
> <s_m_source_file>
AV-unprocessed.smi

> <i_m_source_file_index>
2557

> <i_lp_mmshare_version>
43012

> <i_f3d_flags>
0

> <s_epik_input>
W2NIXTFbY0hdbltjSF1bY0hdYzFDKD1PKUMyPUMoW09IXSlOPUMoW05IXVtOSF0yKVtDSF0zW0NIMl1bQ0gyXVtDSDJdW0NIMl1bQ0gyXTM=

> <s_epik_cmdline>
J2VwaWtfcHl0aG9uJywgJy1waCcsICc3LjAnLCAnLXRuJywgJzgnLCAnLW1hJywgJzIwMCcsICctbWV0YWxfYmluZGluZycsICctaW1hZScsICc8aW5maWxlLm1hZT4nLCAnLW9tYWUnLCAnPG91dGZpbGUubWFlPic=

> <r_epik_Ionization_Penalty>
2.4889

> <r_epik_Ionization_Penalty_Charging>
1.64109

> <r_epik_Ionization_Penalty_Neutral>
0.84781

> <r_epik_State_Penalty>
2.44612

> <r_epik_Charging_Adjusted_Penalty>
4.08721

> <i_epik_Tot_Q>
0

> <i_epik_Tot_abs_Q>
2

> <r_epik_Metal_State_Penalty>
1.55557

> <b_epik_Metal_Only>
0

> <s_epik_Chemistry_Notes>
This compound has an imine and may undergo hydrolysis.

> <s_lp_Force_Field>
OPLS_2005

> <r_lp_Energy>
23.4412

> <b_lp_Chiralities_Consistent>
1

> <s_lp_Variant>
AV-unprocessed.smi:2557-5

> <Gold.Version>
5.8.1

> <Gold.Id.Protein>
6NUR|6NUR_protein|mol2

> <Gold.PLP.Fitness>
36.3564

> <Gold.PLP.PLP>
-31.1997

> <Gold.PLP.part.hbond>
-2.0000

> <Gold.PLP.part.metal>
0.0000

> <Gold.PLP.part.buried>
-2.5518

> <Gold.PLP.part.nonpolar>
-26.8242

> <Gold.PLP.part.repulsive>
0.3588

> <Gold.PLP.ligand.clash>
0.3151

> <Gold.PLP.ligand.torsion>
1.6114

> <Gold.PLP.Chemscore.Hbond>
2.1520

> <Gold.PLP.Chemscore.CHOScore>
0.0000

> <Gold.PLP.Chemscore.Metal>
0.0000

> <Gold.Chemscore.Hbonds>
donor molecule, donor type, donor heavy atom, donor atom, acceptor molecule, acceptor atom, score
      P1  H  7989  7998       L1     5  1.00
      P1  H 10752 10765       L1     1  1.60

> <Gold.PLP.Chemscore.Internal.Correction>
2.2386

> <Gold.Rescore>
     Score         DG    S(hbond)    S(metal)    S(lipo)     H(rot)  DE(clash)    DE(int)     intcor
     17.78     -19.67       1.61        0.00      97.13       1.00       0.46       1.43       ----

> <Gold.Chemscore.Fitness>
17.7817

> <Gold.Chemscore.DG>
-19.6738

> <Gold.Chemscore.ZeroCoef>
-5.4800

> <Gold.Chemscore.Hbond>
1.6138

> <Gold.Chemscore.Metal>
0.0000

> <Gold.Chemscore.Lipo>
97.1261

> <Gold.Chemscore.Internal_Hbond>
0.0000

> <Gold.Chemscore.DEClash>
0.4634

> <Gold.Chemscore.DEInternal>
1.4287

> <Gold.Chemscore.Rot>
1.0000

> <Gold.Chemscore.Internal.Correction>
   9.000000E+99

> <Gold.Chemscore.Hbonds>
donor molecule, donor type, donor heavy atom, donor atom, acceptor molecule, acceptor atom, score
      P1  H  7989  7998       L1     5  0.93
      P1  H 10752 10765       L1     1  0.76

> <Gold.Chemscore.Hbond.Weighted>
-5.3901

> <Gold.Chemscore.Metal.Weighted>
-0.0000

> <Gold.Chemscore.Lipo.Weighted>
-11.3638

> <Gold.Chemscore.Internal_Hbond.Weighted>
0.0000

> <Gold.Chemscore.DEClash.Weighted>
0.4634

> <Gold.Chemscore.DEInternal.Weighted>
1.4287

> <Gold.Chemscore.Rot.Weighted>
2.5600

> <Gold.Chemscore.Internal.Correction.Weighted>
   9.000000E+99

> <Gold.Protein.RotatedTorsions>
[ 6907 6896 6895 6894 ] final   49.33 input  -60.11 | X-H torsion
[ 7974 7965 7964 7962 ] final  136.10 input  175.53 | X-H torsion
[ 8008 7997 7996 7995 ] final -109.06 input   59.86 | X-H torsion
[ 10167 10162 10161 10158 ] final -114.16 input  -65.29 | X-H torsion
[ 10718 10713 10712 10709 ] final -130.55 input   66.30 | X-H torsion
[ 10763 10752 10751 10750 ] final -172.35 input  -60.55 | X-H torsion
[ 11005 11000 10999 10996 ] final  145.45 input  -57.11 | X-H torsion

> <Gold.Protein.ActiveResidues>
 VAL166  LYS551  ARG553  GLY616  TRP617  ASP618  TYR619  PRO620  LYS621  CYS622 
 ASP623  PHE694  ASN695  SER759  ASP760  ASP761  ALA762  ILE779  LEU786  VAL792 
 PHE793  MET794  SER795  GLU796  ALA797  LYS798  CYS799  TRP800  GLU811  SER814 

> <Gold.Protein.RotatedAtoms>
  152.2895  134.7737  160.0380 H   0  0  0  0  0  0  0  0  0  0  0  0  # atno 6907 bound_to 6896
  151.8288  133.3400  159.3615 H   0  0  0  0  0  0  0  0  0  0  0  0  # atno 6908 bound_to 6896
  150.7224  134.5432  159.5802 H   0  0  0  0  0  0  0  0  0  0  0  0  # atno 6909 bound_to 6896
  144.9598  139.4724  143.5485 H   0  0  0  0  0  0  0  0  0  0  0  0  # atno 7974 bound_to 7965
  154.9536  140.0400  157.2156 H   0  0  0  0  0  0  0  0  0  0  0  0  # atno 8008 bound_to 7997
  154.7955  140.2843  155.5937 H   0  0  0  0  0  0  0  0  0  0  0  0  # atno 8009 bound_to 7997
  156.2955  140.2565  156.2812 H   0  0  0  0  0  0  0  0  0  0  0  0  # atno 8010 bound_to 7997
  140.1040  143.4587  152.1794 H   0  0  0  0  0  0  0  0  0  0  0  0  # atno 10167 bound_to 10162
  156.2156  130.6946  151.0698 H   0  0  0  0  0  0  0  0  0  0  0  0  # atno 10718 bound_to 10713
  154.6202  135.2874  155.0334 H   0  0  0  0  0  0  0  0  0  0  0  0  # atno 10763 bound_to 10752
  154.1532  135.6500  153.4972 H   0  0  0  0  0  0  0  0  0  0  0  0  # atno 10764 bound_to 10752
  153.0233  135.5360  154.6989 H   0  0  0  0  0  0  0  0  0  0  0  0  # atno 10765 bound_to 10752
  140.0713  134.9150  157.1350 H   0  0  0  0  0  0  0  0  0  0  0  0  # atno 11005 bound_to 11000
  146.3349  139.8739  142.8835 LP  0  0  0  0  0  0  0  0  0  0  0  0  # atno 17320 bound_to 7965
  145.2718  141.0111  143.3768 LP  0  0  0  0  0  0  0  0  0  0  0  0  # atno 17321 bound_to 7965
  139.5656  144.7433  151.4033 LP  0  0  0  0  0  0  0  0  0  0  0  0  # atno 17342 bound_to 10162
  140.6962  143.7742  150.7331 LP  0  0  0  0  0  0  0  0  0  0  0  0  # atno 17343 bound_to 10162
  157.7061  131.0755  150.6661 LP  0  0  0  0  0  0  0  0  0  0  0  0  # atno 17370 bound_to 10713
  156.6722  130.4543  149.5653 LP  0  0  0  0  0  0  0  0  0  0  0  0  # atno 17371 bound_to 10713
  140.3622  134.2481  155.7186 LP  0  0  0  0  0  0  0  0  0  0  0  0  # atno 17394 bound_to 11000
  141.2013  133.7966  157.0448 LP  0  0  0  0  0  0  0  0  0  0  0  0  # atno 17395 bound_to 11000

$$$$
