AV-unprocessed.smi:1896|AV-procd|sdf|7683|dock8
  -GOLD-   22720 9423D 1   1.00000     0.00000
 Structure written by MMmdl.
 47 48  0  0  0  0  0  0  0  0  2 V2000
  148.8730  137.0272  158.7138 C   0  0  0  0  0  0  0  0  0  0  0  0
  148.3051  136.3884  159.9486 C   0  0  0  0  0  0  0  0  0  0  0  0
  148.0189  137.1501  160.9908 N   0  0  0  0  0  0  0  0  0  0  0  0
  147.5490  136.2972  161.9226 N   0  0  0  0  0  0  0  0  0  0  0  0
  147.1346  136.8113  163.2135 C   0  0  0  0  0  0  0  0  0  0  0  0
  147.5423  134.9924  161.4698 C   0  0  0  0  0  0  0  0  0  0  0  0
  147.0741  133.8582  162.3236 C   0  0  0  0  0  0  0  0  0  0  0  0
  148.0262  135.0098  160.1884 C   0  0  0  0  0  0  0  0  0  0  0  0
  148.2309  133.8511  159.2454 C   0  0  0  0  0  0  0  0  0  0  0  0
  147.3890  134.0647  157.9879 C   0  0  0  0  0  0  0  0  0  0  0  0
  146.2602  134.5473  158.0754 O   0  0  0  0  0  0  0  0  0  0  0  0
  147.9413  133.6881  156.8256 N   0  0  0  0  0  0  0  0  0  0  0  0
  147.2693  133.7608  155.5340 C   0  0  0  0  0  0  0  0  0  0  0  0
  148.1571  134.4197  154.4500 C   0  0  1  0  0  0  0  0  0  0  0  0
  149.5841  133.8267  154.4695 C   0  0  0  0  0  0  0  0  0  0  0  0
  147.5511  134.2845  153.0931 N   0  3  0  0  0  0  0  0  0  0  0  0
  147.6234  132.9377  152.4845 C   0  0  0  0  0  0  0  0  0  0  0  0
  146.5530  132.9356  151.3994 C   0  0  0  0  0  0  0  0  0  0  0  0
  145.4299  133.7547  152.0239 C   0  0  0  0  0  0  0  0  0  0  0  0
  146.1353  134.7212  152.9851 C   0  0  0  0  0  0  0  0  0  0  0  0
  149.9623  137.0199  158.7414 H   0  0  0  0  0  0  0  0  0  0  0  0
  148.5511  138.0646  158.6155 H   0  0  0  0  0  0  0  0  0  0  0  0
  148.5581  136.5004  157.8132 H   0  0  0  0  0  0  0  0  0  0  0  0
  146.0990  136.5299  163.4050 H   0  0  0  0  0  0  0  0  0  0  0  0
  147.2140  137.8990  163.2394 H   0  0  0  0  0  0  0  0  0  0  0  0
  147.7690  136.3925  163.9951 H   0  0  0  0  0  0  0  0  0  0  0  0
  147.2120  132.9001  161.8232 H   0  0  0  0  0  0  0  0  0  0  0  0
  146.0151  133.9637  162.5602 H   0  0  0  0  0  0  0  0  0  0  0  0
  147.6290  133.8243  163.2612 H   0  0  0  0  0  0  0  0  0  0  0  0
  149.2770  133.7502  158.9549 H   0  0  0  0  0  0  0  0  0  0  0  0
  147.9611  132.9029  159.7117 H   0  0  0  0  0  0  0  0  0  0  0  0
  148.8736  133.3002  156.8429 H   0  0  0  0  0  0  0  0  0  0  0  0
  146.9863  132.7528  155.2254 H   0  0  0  0  0  0  0  0  0  0  0  0
  146.3457  134.3241  155.6729 H   0  0  0  0  0  0  0  0  0  0  0  0
  148.2283  135.4855  154.6747 H   0  0  0  0  0  0  0  0  0  0  0  0
  150.0677  133.9761  155.4344 H   0  0  0  0  0  0  0  0  0  0  0  0
  150.2358  134.2913  153.7302 H   0  0  0  0  0  0  0  0  0  0  0  0
  149.5686  132.7549  154.2697 H   0  0  0  0  0  0  0  0  0  0  0  0
  148.6126  132.7238  152.0785 H   0  0  0  0  0  0  0  0  0  0  0  0
  147.3885  132.1803  153.2345 H   0  0  0  0  0  0  0  0  0  0  0  0
  146.9284  133.4388  150.5070 H   0  0  0  0  0  0  0  0  0  0  0  0
  146.2388  131.9312  151.1137 H   0  0  0  0  0  0  0  0  0  0  0  0
  144.8278  134.2715  151.2759 H   0  0  0  0  0  0  0  0  0  0  0  0
  144.7657  133.0975  152.5867 H   0  0  0  0  0  0  0  0  0  0  0  0
  145.6324  134.7044  153.9532 H   0  0  0  0  0  0  0  0  0  0  0  0
  146.1035  135.7454  152.6118 H   0  0  0  0  0  0  0  0  0  0  0  0
  148.0747  134.8889  152.4758 H   0  0  0  0  0  0  0  0  0  0  0  0
  1  2  1  0  0  0  0
  1 21  1  0  0  0  0
  1 22  1  0  0  0  0
  1 23  1  0  0  0  0
  2  8  1  0  0  0  0
  2  3  2  0  0  0  0
  3  4  1  0  0  0  0
  4  5  1  0  0  0  0
  4  6  1  0  0  0  0
  5 24  1  0  0  0  0
  5 25  1  0  0  0  0
  5 26  1  0  0  0  0
  6  7  1  0  0  0  0
  6  8  2  0  0  0  0
  7 27  1  0  0  0  0
  7 28  1  0  0  0  0
  7 29  1  0  0  0  0
  8  9  1  0  0  0  0
  9 10  1  0  0  0  0
  9 30  1  0  0  0  0
  9 31  1  0  0  0  0
 10 11  2  0  0  0  0
 10 12  1  0  0  0  0
 12 13  1  0  0  0  0
 12 32  1  0  0  0  0
 13 14  1  0  0  0  0
 13 33  1  0  0  0  0
 13 34  1  0  0  0  0
 14 15  1  0  0  0  0
 14 16  1  0  0  0  0
 14 35  1  0  0  0  0
 15 36  1  0  0  0  0
 15 37  1  0  0  0  0
 15 38  1  0  0  0  0
 16 20  1  0  0  0  0
 16 17  1  0  0  0  0
 16 47  1  0  0  0  0
 17 18  1  0  0  0  0
 17 39  1  0  0  0  0
 17 40  1  0  0  0  0
 18 19  1  0  0  0  0
 18 41  1  0  0  0  0
 18 42  1  0  0  0  0
 19 20  1  0  0  0  0
 19 43  1  0  0  0  0
 19 44  1  0  0  0  0
 20 45  1  0  0  0  0
 20 46  1  0  0  0  0
M  CHG  1  16   1
M  END
> <s_m_source_file>
AV-unprocessed.smi

> <i_m_source_file_index>
1896

> <i_lp_mmshare_version>
43012

> <i_f3d_flags>
0

> <s_epik_input>
W0NIM11jMW5uKFtDSDNdKWMoW0NIM10pYzFbQ0gyXUMoPU8pW05IXVtDSDJdW0NASF0oW0NIM10pTjJbQ0gyXVtDSDJdW0NIMl1bQ0gyXTI=

> <s_epik_cmdline>
J2VwaWtfcHl0aG9uJywgJy1waCcsICc3LjAnLCAnLXRuJywgJzgnLCAnLW1hJywgJzIwMCcsICctbWV0YWxfYmluZGluZycsICctaW1hZScsICc8aW5maWxlLm1hZT4nLCAnLW9tYWUnLCAnPG91dGZpbGUubWFlPic=

> <r_lp_tautomer_probability>
1

> <r_epik_Ionization_Penalty>
0.00723064

> <r_epik_Ionization_Penalty_Charging>
0.0050435

> <r_epik_Ionization_Penalty_Neutral>
0.00218714

> <r_epik_State_Penalty>
-0

> <r_epik_Charging_Adjusted_Penalty>
0.0050435

> <i_epik_Tot_Q>
1

> <i_epik_Tot_abs_Q>
1

> <r_epik_Metal_State_Penalty>
-0

> <b_epik_Metal_Only>
0

> <s_lp_Force_Field>
OPLS_2005

> <r_lp_Energy>
24.4883

> <b_lp_Chiralities_Consistent>
1

> <s_lp_Variant>
AV-unprocessed.smi:1896-2

> <Gold.Version>
5.8.1

> <Gold.Id.Protein>
6NUR|6NUR_protein|mol2

> <Gold.PLP.Fitness>
43.3197

> <Gold.PLP.PLP>
-33.4152

> <Gold.PLP.part.hbond>
-3.0000

> <Gold.PLP.part.metal>
0.0000

> <Gold.PLP.part.buried>
-3.1130

> <Gold.PLP.part.nonpolar>
-27.8119

> <Gold.PLP.part.repulsive>
0.0088

> <Gold.PLP.ligand.clash>
0.0000

> <Gold.PLP.ligand.torsion>
0.5378

> <Gold.PLP.Chemscore.Hbond>
3.6418

> <Gold.PLP.Chemscore.CHOScore>
0.0000

> <Gold.PLP.Chemscore.Metal>
0.0000

> <Gold.Chemscore.Hbonds>
donor molecule, donor type, donor heavy atom, donor atom, acceptor molecule, acceptor atom, score
      L1  H    16    47       P1  7948  2.00
      P1  H  6931  6943       L1     3  0.96
      P1  H  6934  6947       L1     3  0.71

> <Gold.PLP.Chemscore.Internal.Correction>
0.0546

> <Gold.Rescore>
     Score         DG    S(hbond)    S(metal)    S(lipo)     H(rot)  DE(clash)    DE(int)     intcor
     16.61     -17.36       2.26        0.00      73.01       1.65       0.21       0.54       ----

> <Gold.Chemscore.Fitness>
16.6118

> <Gold.Chemscore.DG>
-17.3604

> <Gold.Chemscore.ZeroCoef>
-5.4800

> <Gold.Chemscore.Hbond>
2.2637

> <Gold.Chemscore.Metal>
0.0000

> <Gold.Chemscore.Lipo>
73.0109

> <Gold.Chemscore.Internal_Hbond>
0.0000

> <Gold.Chemscore.DEClash>
0.2111

> <Gold.Chemscore.DEInternal>
0.5375

> <Gold.Chemscore.Rot>
1.6495

> <Gold.Chemscore.Internal.Correction>
   9.000000E+99

> <Gold.Chemscore.Hbonds>
donor molecule, donor type, donor heavy atom, donor atom, acceptor molecule, acceptor atom, score
      L1  H    16    47       P1  7948  0.70
      P1  H  6931  6943       L1     3  0.41
      P1  H  6934  6947       L1     3  0.63

> <Gold.Chemscore.Hbond.Weighted>
-7.5608

> <Gold.Chemscore.Metal.Weighted>
-0.0000

> <Gold.Chemscore.Lipo.Weighted>
-8.5423

> <Gold.Chemscore.Internal_Hbond.Weighted>
0.0000

> <Gold.Chemscore.DEClash.Weighted>
0.2111

> <Gold.Chemscore.DEInternal.Weighted>
0.5375

> <Gold.Chemscore.Rot.Weighted>
4.2227

> <Gold.Chemscore.Internal.Correction.Weighted>
   9.000000E+99

> <Gold.Protein.RotatedTorsions>
[ 6907 6896 6895 6894 ] final  167.70 input  -60.11 | X-H torsion
[ 7974 7965 7964 7962 ] final  130.00 input  175.53 | X-H torsion
[ 8008 7997 7996 7995 ] final   35.32 input   59.86 | X-H torsion
[ 10167 10162 10161 10158 ] final -131.33 input  -65.29 | X-H torsion
[ 10718 10713 10712 10709 ] final  148.40 input   66.30 | X-H torsion
[ 10763 10752 10751 10750 ] final  -90.88 input  -60.55 | X-H torsion
[ 11005 11000 10999 10996 ] final  -91.43 input  -57.11 | X-H torsion

> <Gold.Protein.ActiveResidues>
 VAL166  LYS551  ARG553  GLY616  TRP617  ASP618  TYR619  PRO620  LYS621  CYS622 
 ASP623  PHE694  ASN695  SER759  ASP760  ASP761  ALA762  ILE779  LEU786  VAL792 
 PHE793  MET794  SER795  GLU796  ALA797  LYS798  CYS799  TRP800  GLU811  SER814 

> <Gold.Protein.RotatedAtoms>
  151.8591  133.3454  159.3697 H   0  0  0  0  0  0  0  0  0  0  0  0  # atno 6907 bound_to 6896
  150.7184  134.5223  159.5669 H   0  0  0  0  0  0  0  0  0  0  0  0  # atno 6908 bound_to 6896
  152.2733  134.7909  160.0461 H   0  0  0  0  0  0  0  0  0  0  0  0  # atno 6909 bound_to 6896
  145.0226  139.4118  143.5190 H   0  0  0  0  0  0  0  0  0  0  0  0  # atno 7974 bound_to 7965
  155.1691  140.3290  155.4396 H   0  0  0  0  0  0  0  0  0  0  0  0  # atno 8008 bound_to 7997
  156.2516  140.1946  156.6745 H   0  0  0  0  0  0  0  0  0  0  0  0  # atno 8009 bound_to 7997
  154.6350  140.0577  156.9764 H   0  0  0  0  0  0  0  0  0  0  0  0  # atno 8010 bound_to 7997
  139.9200  143.6393  152.2556 H   0  0  0  0  0  0  0  0  0  0  0  0  # atno 10167 bound_to 10162
  157.3090  131.0884  151.1331 H   0  0  0  0  0  0  0  0  0  0  0  0  # atno 10718 bound_to 10713
  154.6703  135.5288  153.8130 H   0  0  0  0  0  0  0  0  0  0  0  0  # atno 10763 bound_to 10752
  153.0497  135.6527  154.0735 H   0  0  0  0  0  0  0  0  0  0  0  0  # atno 10764 bound_to 10752
  154.0634  135.2960  155.3300 H   0  0  0  0  0  0  0  0  0  0  0  0  # atno 10765 bound_to 10752
  141.1545  133.7755  156.9879 H   0  0  0  0  0  0  0  0  0  0  0  0  # atno 11005 bound_to 11000
  146.3487  139.9732  142.8704 LP  0  0  0  0  0  0  0  0  0  0  0  0  # atno 17320 bound_to 7965
  145.1876  140.9796  143.4230 LP  0  0  0  0  0  0  0  0  0  0  0  0  # atno 17321 bound_to 7965
  139.6869  144.7650  151.1507 LP  0  0  0  0  0  0  0  0  0  0  0  0  # atno 17342 bound_to 10162
  140.7664  143.5644  150.9064 LP  0  0  0  0  0  0  0  0  0  0  0  0  # atno 17343 bound_to 10162
  157.2660  130.6681  149.5997 LP  0  0  0  0  0  0  0  0  0  0  0  0  # atno 17370 bound_to 10713
  155.9676  130.4494  150.5656 LP  0  0  0  0  0  0  0  0  0  0  0  0  # atno 17371 bound_to 10713
  140.1022  134.9528  157.1941 LP  0  0  0  0  0  0  0  0  0  0  0  0  # atno 17394 bound_to 11000
  140.3303  134.2817  155.7229 LP  0  0  0  0  0  0  0  0  0  0  0  0  # atno 17395 bound_to 11000

$$$$
