AV-unprocessed.smi:2412|AV-procd|sdf|9533|dock9
  -GOLD-   2272013163D 1   1.00000     0.00000
 Structure written by MMmdl.
 38 39  0  0  0  0  0  0  0  0  2 V2000
  150.2581  138.8165  154.2933 C   0  0  0  0  0  0  0  0  0  0  0  0
  149.2606  139.9616  154.2691 C   0  0  0  0  0  0  0  0  0  0  0  0
  149.6042  141.1952  154.8640 C   0  0  0  0  0  0  0  0  0  0  0  0
  148.7303  142.2233  154.8469 N   0  3  0  0  0  0  0  0  0  0  0  0
  147.5133  142.1366  154.2713 C   0  0  0  0  0  0  0  0  0  0  0  0
  147.1097  140.9338  153.6590 C   0  0  0  0  0  0  0  0  0  0  0  0
  147.9853  139.8177  153.6639 C   0  0  0  0  0  0  0  0  0  0  0  0
  147.6591  138.5766  153.0471 N   0  0  0  0  0  0  0  0  0  0  0  0
  146.4689  137.9543  152.9953 C   0  0  0  0  0  0  0  0  0  0  0  0
  145.4357  138.3502  153.5347 O   0  0  0  0  0  0  0  0  0  0  0  0
  146.5434  136.8197  152.2838 N   0  0  0  0  0  0  0  0  0  0  0  0
  145.4182  135.9301  152.0003 C   0  0  0  0  0  0  0  0  0  0  0  0
  145.7412  134.4428  152.2384 C   0  0  0  0  0  0  0  0  0  0  0  0
  146.4485  134.1115  153.1921 O   0  0  0  0  0  0  0  0  0  0  0  0
  145.2222  133.5352  151.3857 N   0  0  0  0  0  0  0  0  0  0  0  0
  145.4186  132.0871  151.4528 C   0  0  0  0  0  0  0  0  0  0  0  0
  144.4714  131.4915  150.4102 C   0  0  0  0  0  0  0  0  0  0  0  0
  144.2663  132.6157  149.4046 C   0  0  0  0  0  0  0  0  0  0  0  0
  144.3874  133.8904  150.2396 C   0  0  0  0  0  0  0  0  0  0  0  0
  151.1674  139.0947  154.8273 H   0  0  0  0  0  0  0  0  0  0  0  0
  150.5368  138.5328  153.2780 H   0  0  0  0  0  0  0  0  0  0  0  0
  149.8293  137.9464  154.7911 H   0  0  0  0  0  0  0  0  0  0  0  0
  150.5491  141.3919  155.3495 H   0  0  0  0  0  0  0  0  0  0  0  0
  146.9047  143.0285  154.3105 H   0  0  0  0  0  0  0  0  0  0  0  0
  146.1409  140.8963  153.1843 H   0  0  0  0  0  0  0  0  0  0  0  0
  148.4365  138.0799  152.6370 H   0  0  0  0  0  0  0  0  0  0  0  0
  147.4323  136.5668  151.8779 H   0  0  0  0  0  0  0  0  0  0  0  0
  144.5896  136.2190  152.6473 H   0  0  0  0  0  0  0  0  0  0  0  0
  145.0837  136.0789  150.9724 H   0  0  0  0  0  0  0  0  0  0  0  0
  146.4550  131.8556  151.2030 H   0  0  0  0  0  0  0  0  0  0  0  0
  145.2065  131.6828  152.4433 H   0  0  0  0  0  0  0  0  0  0  0  0
  144.8620  130.5816  149.9539 H   0  0  0  0  0  0  0  0  0  0  0  0
  143.5181  131.2462  150.8806 H   0  0  0  0  0  0  0  0  0  0  0  0
  145.0638  132.5884  148.6608 H   0  0  0  0  0  0  0  0  0  0  0  0
  143.3147  132.5444  148.8770 H   0  0  0  0  0  0  0  0  0  0  0  0
  143.4078  134.2077  150.6004 H   0  0  0  0  0  0  0  0  0  0  0  0
  144.8144  134.7070  149.6551 H   0  0  0  0  0  0  0  0  0  0  0  0
  149.0033  143.1049  155.2824 H   0  0  0  0  0  0  0  0  0  0  0  0
  1  2  1  0  0  0  0
  1 20  1  0  0  0  0
  1 21  1  0  0  0  0
  1 22  1  0  0  0  0
  2  7  1  0  0  0  0
  2  3  2  0  0  0  0
  3  4  1  0  0  0  0
  3 23  1  0  0  0  0
  4  5  2  0  0  0  0
  4 38  1  0  0  0  0
  5  6  1  0  0  0  0
  5 24  1  0  0  0  0
  6  7  2  0  0  0  0
  6 25  1  0  0  0  0
  7  8  1  0  0  0  0
  8  9  1  0  0  0  0
  8 26  1  0  0  0  0
  9 10  2  0  0  0  0
  9 11  1  0  0  0  0
 11 12  1  0  0  0  0
 11 27  1  0  0  0  0
 12 13  1  0  0  0  0
 12 28  1  0  0  0  0
 12 29  1  0  0  0  0
 13 14  2  0  0  0  0
 13 15  1  0  0  0  0
 15 19  1  0  0  0  0
 15 16  1  0  0  0  0
 16 17  1  0  0  0  0
 16 30  1  0  0  0  0
 16 31  1  0  0  0  0
 17 18  1  0  0  0  0
 17 32  1  0  0  0  0
 17 33  1  0  0  0  0
 18 19  1  0  0  0  0
 18 34  1  0  0  0  0
 18 35  1  0  0  0  0
 19 36  1  0  0  0  0
 19 37  1  0  0  0  0
M  CHG  1   4   1
M  END
> <s_m_source_file>
AV-unprocessed.smi

> <i_m_source_file_index>
2412

> <i_lp_mmshare_version>
43012

> <i_f3d_flags>
0

> <s_epik_input>
W0NIM11jMVtjSF1uW2NIXVtjSF1jMVtOSF1DKD1PKVtOSF1bQ0gyXUMoPU8pTjJbQ0gyXVtDSDJdW0NIMl1bQ0gyXTI=

> <s_epik_cmdline>
J2VwaWtfcHl0aG9uJywgJy1waCcsICc3LjAnLCAnLXRuJywgJzgnLCAnLW1hJywgJzIwMCcsICctbWV0YWxfYmluZGluZycsICctaW1hZScsICc8aW5maWxlLm1hZT4nLCAnLW9tYWUnLCAnPG91dGZpbGUubWFlPic=

> <r_epik_Ionization_Penalty>
0.861722

> <r_epik_Ionization_Penalty_Charging>
0.861704

> <r_epik_Ionization_Penalty_Neutral>
1.84974e-05

> <r_epik_State_Penalty>
0.898238

> <r_epik_Charging_Adjusted_Penalty>
1.75994

> <i_epik_Tot_Q>
1

> <i_epik_Tot_abs_Q>
1

> <r_epik_Metal_State_Penalty>
1.0245

> <b_epik_Metal_Only>
0

> <s_lp_Force_Field>
OPLS_2005

> <r_lp_Energy>
33.6381

> <b_lp_Chiralities_Consistent>
1

> <s_lp_Variant>
AV-unprocessed.smi:2412-2

> <Gold.Version>
5.8.1

> <Gold.Id.Protein>
6NUR|6NUR_protein|mol2

> <Gold.PLP.Fitness>
45.4695

> <Gold.PLP.PLP>
-35.0991

> <Gold.PLP.part.hbond>
-3.4756

> <Gold.PLP.part.metal>
0.0000

> <Gold.PLP.part.buried>
-4.4752

> <Gold.PLP.part.nonpolar>
-29.6470

> <Gold.PLP.part.repulsive>
1.4066

> <Gold.PLP.ligand.clash>
0.0000

> <Gold.PLP.ligand.torsion>
0.6594

> <Gold.PLP.Chemscore.Hbond>
3.8960

> <Gold.PLP.Chemscore.CHOScore>
0.0000

> <Gold.PLP.Chemscore.Metal>
0.0000

> <Gold.Chemscore.Hbonds>
donor molecule, donor type, donor heavy atom, donor atom, acceptor molecule, acceptor atom, score
      L1  H     4    38       P1  8028  2.00
      L1  H     8    26       P1  7948  0.81
      L1  H    11    27       P1  7948  1.00

> <Gold.PLP.Chemscore.Internal.Correction>
0.0013

> <Gold.Rescore>
     Score         DG    S(hbond)    S(metal)    S(lipo)     H(rot)  DE(clash)    DE(int)     intcor
     20.03     -21.49       2.93        0.00      81.18       1.28       0.05       1.41       ----

> <Gold.Chemscore.Fitness>
20.0317

> <Gold.Chemscore.DG>
-21.4924

> <Gold.Chemscore.ZeroCoef>
-5.4800

> <Gold.Chemscore.Hbond>
2.9305

> <Gold.Chemscore.Metal>
0.0000

> <Gold.Chemscore.Lipo>
81.1778

> <Gold.Chemscore.Internal_Hbond>
0.0000

> <Gold.Chemscore.DEClash>
0.0492

> <Gold.Chemscore.DEInternal>
1.4115

> <Gold.Chemscore.Rot>
1.2786

> <Gold.Chemscore.Internal.Correction>
   9.000000E+99

> <Gold.Chemscore.Hbonds>
donor molecule, donor type, donor heavy atom, donor atom, acceptor molecule, acceptor atom, score
      L1  H     4    38       P1  8028  0.98
      L1  H     8    26       P1  7948  0.77
      L1  H    11    27       P1  7948  0.93

> <Gold.Chemscore.Hbond.Weighted>
-9.7879

> <Gold.Chemscore.Metal.Weighted>
-0.0000

> <Gold.Chemscore.Lipo.Weighted>
-9.4978

> <Gold.Chemscore.Internal_Hbond.Weighted>
0.0000

> <Gold.Chemscore.DEClash.Weighted>
0.0492

> <Gold.Chemscore.DEInternal.Weighted>
1.4115

> <Gold.Chemscore.Rot.Weighted>
3.2733

> <Gold.Chemscore.Internal.Correction.Weighted>
   9.000000E+99

> <Gold.Protein.RotatedTorsions>
[ 6907 6896 6895 6894 ] final   22.19 input  -60.11 | X-H torsion
[ 7974 7965 7964 7962 ] final -152.60 input  175.53 | X-H torsion
[ 8008 7997 7996 7995 ] final   69.16 input   59.86 | X-H torsion
[ 10167 10162 10161 10158 ] final -172.60 input  -65.29 | X-H torsion
[ 10718 10713 10712 10709 ] final  -89.14 input   66.30 | X-H torsion
[ 10763 10752 10751 10750 ] final  -97.82 input  -60.55 | X-H torsion
[ 11005 11000 10999 10996 ] final  -72.10 input  -57.11 | X-H torsion

> <Gold.Protein.ActiveResidues>
 VAL166  LYS551  ARG553  GLY616  TRP617  ASP618  TYR619  PRO620  LYS621  CYS622 
 ASP623  PHE694  ASN695  SER759  ASP760  ASP761  ALA762  ILE779  LEU786  VAL792 
 PHE793  MET794  SER795  GLU796  ALA797  LYS798  CYS799  TRP800  GLU811  SER814 

> <Gold.Protein.RotatedAtoms>
  151.9233  135.0289  160.0523 H   0  0  0  0  0  0  0  0  0  0  0  0  # atno 6907 bound_to 6896
  152.2181  133.4958  159.5155 H   0  0  0  0  0  0  0  0  0  0  0  0  # atno 6908 bound_to 6896
  150.6993  134.1295  159.4107 H   0  0  0  0  0  0  0  0  0  0  0  0  # atno 6909 bound_to 6896
  144.7785  140.4639  143.5856 H   0  0  0  0  0  0  0  0  0  0  0  0  # atno 7974 bound_to 7965
  155.7193  140.3493  155.5009 H   0  0  0  0  0  0  0  0  0  0  0  0  # atno 8008 bound_to 7997
  155.9284  140.1080  157.1173 H   0  0  0  0  0  0  0  0  0  0  0  0  # atno 8009 bound_to 7997
  154.4081  140.1236  156.4757 H   0  0  0  0  0  0  0  0  0  0  0  0  # atno 8010 bound_to 7997
  139.5736  144.1585  152.1418 H   0  0  0  0  0  0  0  0  0  0  0  0  # atno 10167 bound_to 10162
  155.9984  130.4861  150.5126 H   0  0  0  0  0  0  0  0  0  0  0  0  # atno 10718 bound_to 10713
  154.7361  135.5032  153.9044 H   0  0  0  0  0  0  0  0  0  0  0  0  # atno 10763 bound_to 10752
  153.0997  135.6681  153.9705 H   0  0  0  0  0  0  0  0  0  0  0  0  # atno 10764 bound_to 10752
  153.9494  135.3059  155.3418 H   0  0  0  0  0  0  0  0  0  0  0  0  # atno 10765 bound_to 10752
  141.1603  133.6837  156.7007 H   0  0  0  0  0  0  0  0  0  0  0  0  # atno 11005 bound_to 11000
  145.6117  139.1514  143.3072 LP  0  0  0  0  0  0  0  0  0  0  0  0  # atno 17320 bound_to 7965
  146.1979  140.6232  142.9115 LP  0  0  0  0  0  0  0  0  0  0  0  0  # atno 17321 bound_to 7965
  140.1123  144.5446  150.6917 LP  0  0  0  0  0  0  0  0  0  0  0  0  # atno 17342 bound_to 10162
  140.7019  143.2441  151.4839 LP  0  0  0  0  0  0  0  0  0  0  0  0  # atno 17343 bound_to 10162
  157.3097  131.0661  151.2010 LP  0  0  0  0  0  0  0  0  0  0  0  0  # atno 17370 bound_to 10713
  157.2960  130.6819  149.6139 LP  0  0  0  0  0  0  0  0  0  0  0  0  # atno 17371 bound_to 10713
  140.2960  134.8202  157.4058 LP  0  0  0  0  0  0  0  0  0  0  0  0  # atno 17394 bound_to 11000
  140.1304  134.5103  155.8110 LP  0  0  0  0  0  0  0  0  0  0  0  0  # atno 17395 bound_to 11000

$$$$
