AV-unprocessed.smi:1406|AV-procd|sdf|5709|dock9
  -GOLD-   22720 5343D 1   1.00000     0.00000
 Structure written by MMmdl.
 41 43  0  0  0  0  0  0  0  0  2 V2000
  151.3704  144.2677  158.4652 C   0  0  0  0  0  0  0  0  0  0  0  0
  152.3249  143.0573  158.5150 C   0  0  2  0  0  0  0  0  0  0  0  0
  151.6916  141.7787  157.9448 C   0  0  0  0  0  0  0  0  0  0  0  0
  151.7794  140.7093  158.5489 O   0  0  0  0  0  0  0  0  0  0  0  0
  151.0548  141.9058  156.7698 N   0  0  0  0  0  0  0  0  0  0  0  0
  150.4070  140.8214  156.0382 C   0  0  2  0  0  0  0  0  0  0  0  0
  151.3941  139.9400  155.2819 C   0  0  0  0  0  0  0  0  0  0  0  0
  150.4927  139.2559  154.2534 C   0  0  0  0  0  0  0  0  0  0  0  0
  149.4582  140.2527  153.8956 N   0  3  1  0  0  0  0  0  0  0  0  0
  148.1267  139.6784  153.5826 C   0  0  0  0  0  0  0  0  0  0  0  0
  147.1299  140.7932  153.2178 C   0  0  0  0  0  0  0  0  0  0  0  0
  147.0795  141.9245  154.2658 C   0  0  0  0  0  0  0  0  0  0  0  0
  148.0545  141.6931  155.4309 C   0  0  0  0  0  0  0  0  0  0  0  0
  149.4700  141.3285  154.9277 C   0  0  1  0  0  0  0  0  0  0  0  0
  152.8320  142.8094  159.8589 N   0  0  0  0  0  0  0  0  0  0  0  0
  153.7345  141.9227  160.2849 C   0  0  0  0  0  0  0  0  0  0  0  0
  153.9249  141.9351  161.5965 N   0  0  0  0  0  0  0  0  0  0  0  0
  153.0397  142.9151  161.9463 C   0  0  0  0  0  0  0  0  0  0  0  0
  152.3509  143.4633  160.9456 N   0  0  0  0  0  0  0  0  0  0  0  0
  151.0429  144.4680  157.4446 H   0  0  0  0  0  0  0  0  0  0  0  0
  151.8666  145.1674  158.8303 H   0  0  0  0  0  0  0  0  0  0  0  0
  150.4783  144.1142  159.0738 H   0  0  0  0  0  0  0  0  0  0  0  0
  153.1852  143.3022  157.8893 H   0  0  0  0  0  0  0  0  0  0  0  0
  151.0305  142.8212  156.3440 H   0  0  0  0  0  0  0  0  0  0  0  0
  149.8516  140.1806  156.7268 H   0  0  0  0  0  0  0  0  0  0  0  0
  152.1424  140.5509  154.7743 H   0  0  0  0  0  0  0  0  0  0  0  0
  151.9143  139.2312  155.9271 H   0  0  0  0  0  0  0  0  0  0  0  0
  151.0423  138.9182  153.3745 H   0  0  0  0  0  0  0  0  0  0  0  0
  150.0250  138.3820  154.7103 H   0  0  0  0  0  0  0  0  0  0  0  0
  148.2209  138.9761  152.7536 H   0  0  0  0  0  0  0  0  0  0  0  0
  147.7580  139.1082  154.4369 H   0  0  0  0  0  0  0  0  0  0  0  0
  147.4055  141.2166  152.2510 H   0  0  0  0  0  0  0  0  0  0  0  0
  146.1357  140.3654  153.0841 H   0  0  0  0  0  0  0  0  0  0  0  0
  147.3189  142.8715  153.7807 H   0  0  0  0  0  0  0  0  0  0  0  0
  146.0658  142.0326  154.6527 H   0  0  0  0  0  0  0  0  0  0  0  0
  148.0954  142.5837  156.0581 H   0  0  0  0  0  0  0  0  0  0  0  0
  147.6682  140.8956  156.0675 H   0  0  0  0  0  0  0  0  0  0  0  0
  149.9139  142.2021  154.4468 H   0  0  0  0  0  0  0  0  0  0  0  0
  154.2598  141.2505  159.6226 H   0  0  0  0  0  0  0  0  0  0  0  0
  152.8928  143.2282  162.9695 H   0  0  0  0  0  0  0  0  0  0  0  0
  149.7760  140.6982  153.0466 H   0  0  0  0  0  0  0  0  0  0  0  0
  1  2  1  0  0  0  0
  1 20  1  0  0  0  0
  1 21  1  0  0  0  0
  1 22  1  0  0  0  0
  2  3  1  0  0  0  0
  2 15  1  0  0  0  0
  2 23  1  0  0  0  0
  3  4  2  0  0  0  0
  3  5  1  0  0  0  0
  5  6  1  0  0  0  0
  5 24  1  0  0  0  0
  6 14  1  0  0  0  0
  6  7  1  0  0  0  0
  6 25  1  0  0  0  0
  7  8  1  0  0  0  0
  7 26  1  0  0  0  0
  7 27  1  0  0  0  0
  8  9  1  0  0  0  0
  8 28  1  0  0  0  0
  8 29  1  0  0  0  0
  9 14  1  0  0  0  0
  9 10  1  0  0  0  0
  9 41  1  0  0  0  0
 10 11  1  0  0  0  0
 10 30  1  0  0  0  0
 10 31  1  0  0  0  0
 11 12  1  0  0  0  0
 11 32  1  0  0  0  0
 11 33  1  0  0  0  0
 12 13  1  0  0  0  0
 12 34  1  0  0  0  0
 12 35  1  0  0  0  0
 13 14  1  0  0  0  0
 13 36  1  0  0  0  0
 13 37  1  0  0  0  0
 14 38  1  0  0  0  0
 15 19  1  0  0  0  0
 15 16  1  0  0  0  0
 16 17  2  0  0  0  0
 16 39  1  0  0  0  0
 17 18  1  0  0  0  0
 18 19  2  0  0  0  0
 18 40  1  0  0  0  0
M  CHG  1   9   1
M  END
> <s_m_source_file>
AV-unprocessed.smi

> <i_m_source_file_index>
1406

> <i_lp_mmshare_version>
43012

> <i_f3d_flags>
0

> <s_epik_input>
bjFbY0hdbltjSF1uMVtDQEhdKFtDSDNdKUMoPU8pW05IXVtDQEhdKFtDSDJdW0NIMl0yKVtDQEBIXShOMjMpW0NIMl1bQ0gyXVtDSDJdW0NIMl0z

> <s_epik_cmdline>
J2VwaWtfcHl0aG9uJywgJy1waCcsICc3LjAnLCAnLXRuJywgJzgnLCAnLW1hJywgJzIwMCcsICctbWV0YWxfYmluZGluZycsICctaW1hZScsICc8aW5maWxlLm1hZT4nLCAnLW9tYWUnLCAnPG91dGZpbGUubWFlPic=

> <r_lp_tautomer_probability>
1

> <r_epik_Ionization_Penalty>
0.00197066

> <r_epik_Ionization_Penalty_Charging>
0.00196223

> <r_epik_Ionization_Penalty_Neutral>
8.43107e-06

> <r_epik_State_Penalty>
0.00133866

> <r_epik_Charging_Adjusted_Penalty>
0.00330089

> <i_epik_Tot_Q>
1

> <i_epik_Tot_abs_Q>
1

> <r_epik_Metal_State_Penalty>
-0

> <b_epik_Metal_Only>
0

> <s_lp_Force_Field>
OPLS_2005

> <r_lp_Energy>
45.3265

> <b_lp_Chiralities_Consistent>
1

> <s_lp_Variant>
AV-unprocessed.smi:1406-1

> <Gold.Version>
5.8.1

> <Gold.Id.Protein>
6NUR|6NUR_protein|mol2

> <Gold.PLP.Fitness>
45.9569

> <Gold.PLP.PLP>
-44.7712

> <Gold.PLP.part.hbond>
-1.0000

> <Gold.PLP.part.metal>
0.0000

> <Gold.PLP.part.buried>
-3.6440

> <Gold.PLP.part.nonpolar>
-40.3917

> <Gold.PLP.part.repulsive>
0.3511

> <Gold.PLP.ligand.clash>
0.0000

> <Gold.PLP.ligand.torsion>
0.4665

> <Gold.PLP.Chemscore.Hbond>
0.6720

> <Gold.PLP.Chemscore.CHOScore>
0.0000

> <Gold.PLP.Chemscore.Metal>
0.0000

> <Gold.Chemscore.Hbonds>
donor molecule, donor type, donor heavy atom, donor atom, acceptor molecule, acceptor atom, score
      L1  H     9    41       P1  7957  0.58

> <Gold.PLP.Chemscore.Internal.Correction>
0.1027

> <Gold.Rescore>
     Score         DG    S(hbond)    S(metal)    S(lipo)     H(rot)  DE(clash)    DE(int)     intcor
     10.73     -12.45       0.90        0.00      75.32       1.89       0.06       1.66       ----

> <Gold.Chemscore.Fitness>
10.7307

> <Gold.Chemscore.DG>
-12.4534

> <Gold.Chemscore.ZeroCoef>
-5.4800

> <Gold.Chemscore.Hbond>
0.8953

> <Gold.Chemscore.Metal>
0.0000

> <Gold.Chemscore.Lipo>
75.3200

> <Gold.Chemscore.Internal_Hbond>
0.0000

> <Gold.Chemscore.DEClash>
0.0589

> <Gold.Chemscore.DEInternal>
1.6639

> <Gold.Chemscore.Rot>
1.8865

> <Gold.Chemscore.Internal.Correction>
   9.000000E+99

> <Gold.Chemscore.Hbonds>
donor molecule, donor type, donor heavy atom, donor atom, acceptor molecule, acceptor atom, score
      L1  H     9    41       P1  7957  0.56

> <Gold.Chemscore.Hbond.Weighted>
-2.9905

> <Gold.Chemscore.Metal.Weighted>
-0.0000

> <Gold.Chemscore.Lipo.Weighted>
-8.8124

> <Gold.Chemscore.Internal_Hbond.Weighted>
0.0000

> <Gold.Chemscore.DEClash.Weighted>
0.0589

> <Gold.Chemscore.DEInternal.Weighted>
1.6639

> <Gold.Chemscore.Rot.Weighted>
4.8295

> <Gold.Chemscore.Internal.Correction.Weighted>
   9.000000E+99

> <Gold.Protein.RotatedTorsions>
[ 6907 6896 6895 6894 ] final   21.19 input  -60.11 | X-H torsion
[ 7974 7965 7964 7962 ] final -149.82 input  175.53 | X-H torsion
[ 8008 7997 7996 7995 ] final  -96.76 input   59.86 | X-H torsion
[ 10167 10162 10161 10158 ] final -161.51 input  -65.29 | X-H torsion
[ 10718 10713 10712 10709 ] final -170.14 input   66.30 | X-H torsion
[ 10763 10752 10751 10750 ] final  -39.60 input  -60.55 | X-H torsion
[ 11005 11000 10999 10996 ] final  -84.91 input  -57.11 | X-H torsion

> <Gold.Protein.ActiveResidues>
 VAL166  LYS551  ARG553  GLY616  TRP617  ASP618  TYR619  PRO620  LYS621  CYS622 
 ASP623  PHE694  ASN695  SER759  ASP760  ASP761  ALA762  ILE779  LEU786  VAL792 
 PHE793  MET794  SER795  GLU796  ALA797  LYS798  CYS799  TRP800  GLU811  SER814 

> <Gold.Protein.RotatedAtoms>
  151.9080  135.0351  160.0511 H   0  0  0  0  0  0  0  0  0  0  0  0  # atno 6907 bound_to 6896
  152.2303  133.5048  159.5220 H   0  0  0  0  0  0  0  0  0  0  0  0  # atno 6908 bound_to 6896
  150.7024  134.1141  159.4053 H   0  0  0  0  0  0  0  0  0  0  0  0  # atno 6909 bound_to 6896
  144.7944  140.5014  143.5750 H   0  0  0  0  0  0  0  0  0  0  0  0  # atno 7974 bound_to 7965
  154.7787  140.0468  157.1110 H   0  0  0  0  0  0  0  0  0  0  0  0  # atno 8008 bound_to 7997
  154.9731  140.3092  155.4959 H   0  0  0  0  0  0  0  0  0  0  0  0  # atno 8009 bound_to 7997
  156.2933  140.2249  156.4825 H   0  0  0  0  0  0  0  0  0  0  0  0  # atno 8010 bound_to 7997
  139.6460  144.0172  152.2127 H   0  0  0  0  0  0  0  0  0  0  0  0  # atno 10167 bound_to 10162
  156.7219  130.9273  151.3098 H   0  0  0  0  0  0  0  0  0  0  0  0  # atno 10718 bound_to 10713
  153.9321  135.6771  153.4745 H   0  0  0  0  0  0  0  0  0  0  0  0  # atno 10763 bound_to 10752
  153.0974  135.4844  154.8801 H   0  0  0  0  0  0  0  0  0  0  0  0  # atno 10764 bound_to 10752
  154.7422  135.3163  154.8665 H   0  0  0  0  0  0  0  0  0  0  0  0  # atno 10765 bound_to 10752
  141.1646  133.7371  156.8938 H   0  0  0  0  0  0  0  0  0  0  0  0  # atno 11005 bound_to 11000
  145.5710  139.1483  143.3288 LP  0  0  0  0  0  0  0  0  0  0  0  0  # atno 17320 bound_to 7965
  146.2208  140.5843  142.9018 LP  0  0  0  0  0  0  0  0  0  0  0  0  # atno 17321 bound_to 7965
  139.9874  144.6386  150.7845 LP  0  0  0  0  0  0  0  0  0  0  0  0  # atno 17342 bound_to 10162
  140.7514  143.2973  151.3172 LP  0  0  0  0  0  0  0  0  0  0  0  0  # atno 17343 bound_to 10162
  157.6894  130.9218  150.0474 LP  0  0  0  0  0  0  0  0  0  0  0  0  # atno 17370 bound_to 10713
  156.1589  130.3643  149.9329 LP  0  0  0  0  0  0  0  0  0  0  0  0  # atno 17371 bound_to 10713
  140.1630  134.9152  157.2739 LP  0  0  0  0  0  0  0  0  0  0  0  0  # atno 17394 bound_to 11000
  140.2589  134.3595  155.7414 LP  0  0  0  0  0  0  0  0  0  0  0  0  # atno 17395 bound_to 11000

$$$$
