AV-unprocessed.smi:2886|AV-procd|sdf|11096|dock3
  -GOLD-   2272015563D 1   1.00000     0.00000
 Structure written by MMmdl.
 27 29  0  0  0  0  0  0  0  0  2 V2000
  151.7250  137.1596  160.0286 O   0  0  0  0  0  0  0  0  0  0  0  0
  151.8376  137.8954  159.0495 C   0  0  0  0  0  0  0  0  0  0  0  0
  152.9232  138.7076  158.8706 N   0  5  0  0  0  0  0  0  0  0  0  0
  153.0058  139.5636  157.7080 N   0  0  0  0  0  0  0  0  0  0  0  0
  152.0820  139.5703  156.8302 C   0  0  0  0  0  0  0  0  0  0  0  0
  150.8781  138.7097  156.9369 C   0  0  0  0  0  0  0  0  0  0  0  0
  149.8703  138.7175  155.9809 N   0  0  0  0  0  0  0  0  0  0  0  0
  149.7795  139.5081  154.7610 C   0  0  1  0  0  0  0  0  0  0  0  0
  148.4565  139.3151  154.0182 C   0  0  0  0  0  0  0  0  0  0  0  0
  147.9695  140.7641  153.8730 C   0  0  1  0  0  0  0  0  0  0  0  0
  147.4367  141.3146  155.2021 C   0  0  0  0  0  0  0  0  0  0  0  0
  148.7262  141.5073  155.9980 C   0  0  0  0  0  0  0  0  0  0  0  0
  149.7923  141.0280  154.9983 C   0  0  2  0  0  0  0  0  0  0  0  0
  149.2024  141.4600  153.7833 O   0  0  0  0  0  0  0  0  0  0  0  0
  150.7814  137.9114  158.0302 C   0  0  0  0  0  0  0  0  0  0  0  0
  149.4057  136.8797  158.2515 Cl  0  0  0  0  0  0  0  0  0  0  0  0
  152.1377  140.2230  155.9561 H   0  0  0  0  0  0  0  0  0  0  0  0
  149.1702  137.9948  156.0668 H   0  0  0  0  0  0  0  0  0  0  0  0
  150.5882  139.2417  154.0805 H   0  0  0  0  0  0  0  0  0  0  0  0
  148.6333  138.8621  153.0422 H   0  0  0  0  0  0  0  0  0  0  0  0
  147.7375  138.6939  154.5546 H   0  0  0  0  0  0  0  0  0  0  0  0
  147.2988  140.9234  153.0282 H   0  0  0  0  0  0  0  0  0  0  0  0
  146.9332  142.2703  155.0535 H   0  0  0  0  0  0  0  0  0  0  0  0
  146.7379  140.6309  155.6856 H   0  0  0  0  0  0  0  0  0  0  0  0
  148.8703  142.5621  156.2341 H   0  0  0  0  0  0  0  0  0  0  0  0
  148.7368  140.9499  156.9350 H   0  0  0  0  0  0  0  0  0  0  0  0
  150.7865  141.4355  155.1839 H   0  0  0  0  0  0  0  0  0  0  0  0
  1  2  2  0  0  0  0
  2 15  1  0  0  0  0
  2  3  1  0  0  0  0
  3  4  1  0  0  0  0
  4  5  2  0  0  0  0
  5  6  1  0  0  0  0
  5 17  1  0  0  0  0
  6  7  1  0  0  0  0
  6 15  2  0  0  0  0
  7  8  1  0  0  0  0
  7 18  1  0  0  0  0
  8 13  1  0  0  0  0
  8  9  1  0  0  0  0
  8 19  1  0  0  0  0
  9 10  1  0  0  0  0
  9 20  1  0  0  0  0
  9 21  1  0  0  0  0
 10 14  1  0  0  0  0
 10 11  1  0  0  0  0
 10 22  1  0  0  0  0
 11 12  1  0  0  0  0
 11 23  1  0  0  0  0
 11 24  1  0  0  0  0
 12 13  1  0  0  0  0
 12 25  1  0  0  0  0
 12 26  1  0  0  0  0
 13 14  1  0  0  0  0
 13 27  1  0  0  0  0
 15 16  1  0  0  0  0
M  CHG  1   3  -1
M  END
> <s_m_source_file>
AV-unprocessed.smi

> <i_m_source_file_index>
2886

> <i_lp_mmshare_version>
43012

> <i_f3d_flags>
0

> <s_epik_input>
Tz1jMVtuSF1uW2NIXWMoYzFDbClbTkhdW0NASF0oW0NIMl1bQ0BASF0yMylbQ0BASF0oTzMpW0NIMl1bQ0gyXTI=

> <s_epik_cmdline>
J2VwaWtfcHl0aG9uJywgJy1waCcsICc3LjAnLCAnLXRuJywgJzgnLCAnLW1hJywgJzIwMCcsICctbWV0YWxfYmluZGluZycsICctaW1hZScsICc8aW5maWxlLm1hZT4nLCAnLW9tYWUnLCAnPG91dGZpbGUubWFlPic=

> <r_lp_tautomer_probability>
0.986175

> <r_epik_Ionization_Penalty>
3.84253

> <r_epik_Ionization_Penalty_Charging>
0.0129711

> <r_epik_Ionization_Penalty_Neutral>
3.82956

> <r_epik_State_Penalty>
3.8249

> <r_epik_Charging_Adjusted_Penalty>
3.83787

> <i_epik_Tot_Q>
-1

> <i_epik_Tot_abs_Q>
1

> <r_epik_Metal_State_Penalty>
0.57612

> <b_epik_Metal_Only>
1

> <s_lp_Force_Field>
OPLS_2005

> <r_lp_Energy>
60.9826

> <b_lp_Chiralities_Consistent>
1

> <s_lp_Variant>
AV-unprocessed.smi:2886-10

> <Gold.Version>
5.8.1

> <Gold.Id.Protein>
6NUR|6NUR_protein|mol2

> <Gold.PLP.Fitness>
29.5218

> <Gold.PLP.PLP>
-21.1822

> <Gold.PLP.part.hbond>
-3.9874

> <Gold.PLP.part.metal>
0.0000

> <Gold.PLP.part.buried>
-1.4903

> <Gold.PLP.part.nonpolar>
-15.9461

> <Gold.PLP.part.repulsive>
0.9735

> <Gold.PLP.ligand.clash>
0.0000

> <Gold.PLP.ligand.torsion>
0.0107

> <Gold.PLP.Chemscore.Hbond>
2.7840

> <Gold.PLP.Chemscore.CHOScore>
0.0000

> <Gold.PLP.Chemscore.Metal>
0.0000

> <Gold.Chemscore.Hbonds>
donor molecule, donor type, donor heavy atom, donor atom, acceptor molecule, acceptor atom, score
      P1  H  6896  6908       L1     1  1.00
      P1  H  7997  8010       L1     4  1.00
      P1  H  8011  8017       L1    14  0.77

> <Gold.PLP.Chemscore.Internal.Correction>
0.0091

> <Gold.Rescore>
     Score         DG    S(hbond)    S(metal)    S(lipo)     H(rot)  DE(clash)    DE(int)     intcor
     17.68     -17.76       2.65        0.00      51.21       1.00       0.08       0.01       ----

> <Gold.Chemscore.Fitness>
17.6755

> <Gold.Chemscore.DG>
-17.7642

> <Gold.Chemscore.ZeroCoef>
-5.4800

> <Gold.Chemscore.Hbond>
2.6505

> <Gold.Chemscore.Metal>
0.0000

> <Gold.Chemscore.Lipo>
51.2101

> <Gold.Chemscore.Internal_Hbond>
0.0000

> <Gold.Chemscore.DEClash>
0.0785

> <Gold.Chemscore.DEInternal>
0.0102

> <Gold.Chemscore.Rot>
1.0000

> <Gold.Chemscore.Internal.Correction>
   9.000000E+99

> <Gold.Chemscore.Hbonds>
donor molecule, donor type, donor heavy atom, donor atom, acceptor molecule, acceptor atom, score
      P1  H  6896  6908       L1     1  0.97
      P1  H  7997  8010       L1     4  0.77
      P1  H  8011  8017       L1    14  0.78

> <Gold.Chemscore.Hbond.Weighted>
-8.8527

> <Gold.Chemscore.Metal.Weighted>
-0.0000

> <Gold.Chemscore.Lipo.Weighted>
-5.9916

> <Gold.Chemscore.Internal_Hbond.Weighted>
0.0000

> <Gold.Chemscore.DEClash.Weighted>
0.0785

> <Gold.Chemscore.DEInternal.Weighted>
0.0102

> <Gold.Chemscore.Rot.Weighted>
2.5600

> <Gold.Chemscore.Internal.Correction.Weighted>
   9.000000E+99

> <Gold.Protein.RotatedTorsions>
[ 6907 6896 6895 6894 ] final -119.41 input  -60.11 | X-H torsion
[ 7974 7965 7964 7962 ] final -144.80 input  175.53 | X-H torsion
[ 8008 7997 7996 7995 ] final   35.98 input   59.86 | X-H torsion
[ 10167 10162 10161 10158 ] final    8.99 input  -65.29 | X-H torsion
[ 10718 10713 10712 10709 ] final   33.49 input   66.30 | X-H torsion
[ 10763 10752 10751 10750 ] final   78.58 input  -60.55 | X-H torsion
[ 11005 11000 10999 10996 ] final   32.60 input  -57.11 | X-H torsion

> <Gold.Protein.ActiveResidues>
 VAL166  LYS551  ARG553  GLY616  TRP617  ASP618  TYR619  PRO620  LYS621  CYS622 
 ASP623  PHE694  ASN695  SER759  ASP760  ASP761  ALA762  ILE779  LEU786  VAL792 
 PHE793  MET794  SER795  GLU796  ALA797  LYS798  CYS799  TRP800  GLU811  SER814 

> <Gold.Protein.RotatedAtoms>
  150.8303  133.8102  159.3101 H   0  0  0  0  0  0  0  0  0  0  0  0  # atno 6907 bound_to 6896
  151.5834  135.1055  160.0032 H   0  0  0  0  0  0  0  0  0  0  0  0  # atno 6908 bound_to 6896
  152.4383  133.7360  159.6670 H   0  0  0  0  0  0  0  0  0  0  0  0  # atno 6909 bound_to 6896
  144.8272  140.5664  143.5539 H   0  0  0  0  0  0  0  0  0  0  0  0  # atno 7974 bound_to 7965
  155.1800  140.3299  155.4377 H   0  0  0  0  0  0  0  0  0  0  0  0  # atno 8008 bound_to 7997
  156.2480  140.1928  156.6849 H   0  0  0  0  0  0  0  0  0  0  0  0  # atno 8009 bound_to 7997
  154.6278  140.0586  156.9681 H   0  0  0  0  0  0  0  0  0  0  0  0  # atno 8010 bound_to 7997
  140.6281  143.8054  150.7260 H   0  0  0  0  0  0  0  0  0  0  0  0  # atno 10167 bound_to 10162
  157.2984  130.7338  149.6652 H   0  0  0  0  0  0  0  0  0  0  0  0  # atno 10718 bound_to 10713
  153.0886  135.4871  154.8645 H   0  0  0  0  0  0  0  0  0  0  0  0  # atno 10763 bound_to 10752
  154.7241  135.3045  154.9002 H   0  0  0  0  0  0  0  0  0  0  0  0  # atno 10764 bound_to 10752
  153.9657  135.6807  153.4799 H   0  0  0  0  0  0  0  0  0  0  0  0  # atno 10765 bound_to 10752
  140.2718  134.3073  155.7825 H   0  0  0  0  0  0  0  0  0  0  0  0  # atno 11005 bound_to 11000
  145.4975  139.1485  143.3676 LP  0  0  0  0  0  0  0  0  0  0  0  0  # atno 17320 bound_to 7965
  146.2577  140.5114  142.8867 LP  0  0  0  0  0  0  0  0  0  0  0  0  # atno 17321 bound_to 7965
  140.1660  143.4235  152.2034 LP  0  0  0  0  0  0  0  0  0  0  0  0  # atno 17342 bound_to 10162
  139.5499  144.7329  151.4467 LP  0  0  0  0  0  0  0  0  0  0  0  0  # atno 17343 bound_to 10162
  155.9670  130.4287  150.4801 LP  0  0  0  0  0  0  0  0  0  0  0  0  # atno 17370 bound_to 10713
  157.2777  131.0600  151.2218 LP  0  0  0  0  0  0  0  0  0  0  0  0  # atno 17371 bound_to 10713
  141.2176  133.7471  156.9346 LP  0  0  0  0  0  0  0  0  0  0  0  0  # atno 17394 bound_to 11000
  140.1366  134.9321  157.2410 LP  0  0  0  0  0  0  0  0  0  0  0  0  # atno 17395 bound_to 11000

$$$$
