AV-unprocessed.smi:33|AV-procd|sdf|209|dock5
  -GOLD-   2262015503D 1   1.00000     0.00000
 Structure written by MMmdl.
 67 72  0  0  0  0  0  0  0  0  1 V2000
  149.8896  142.5141  158.6151 O   0  0  0  0  0  0  0  0  0  0  0  0
  150.8603  141.7683  158.4689 C   0  0  0  0  0  0  0  0  0  0  0  0
  151.0355  140.9731  157.3954 O   0  0  0  0  0  0  0  0  0  0  0  0
  150.2539  141.1715  156.2286 C   0  0  0  0  0  0  0  0  0  0  0  0
  150.8492  140.3582  155.0707 C   0  0  2  0  0  0  0  0  0  0  0  0
  149.8234  140.0386  154.1233 O   0  0  0  0  0  0  0  0  0  0  0  0
  149.5691  138.6646  154.1140 C   0  0  2  0  0  0  0  0  0  0  0  0
  148.0912  138.4383  154.0740 N   0  0  0  0  0  0  0  0  0  0  0  0
  147.1599  139.1999  153.4034 C   0  0  0  0  0  0  0  0  0  0  0  0
  145.9236  138.7939  153.5030 N   0  0  0  0  0  0  0  0  0  0  0  0
  146.0060  137.6682  154.3112 C   0  0  0  0  0  0  0  0  0  0  0  0
  145.0509  136.7452  154.8168 C   0  0  0  0  0  0  0  0  0  0  0  0
  143.7272  136.8372  154.5463 N   0  0  0  0  0  0  0  0  0  0  0  0
  142.9696  137.8969  155.2293 C   0  0  0  0  0  0  0  0  0  0  0  0
  143.3895  138.3533  156.2947 O   0  0  0  0  0  0  0  0  0  0  0  0
  141.6612  138.3826  154.6718 C   0  0  0  0  0  0  0  0  0  0  0  0
  141.3921  138.2555  153.2913 C   0  0  0  0  0  0  0  0  0  0  0  0
  140.1640  138.6984  152.7631 C   0  0  0  0  0  0  0  0  0  0  0  0
  139.1898  139.2541  153.6141 C   0  0  0  0  0  0  0  0  0  0  0  0
  139.4398  139.3570  154.9956 C   0  0  0  0  0  0  0  0  0  0  0  0
  140.6679  138.9148  155.5248 C   0  0  0  0  0  0  0  0  0  0  0  0
  143.1691  135.8583  153.6020 C   0  0  0  0  0  0  0  0  0  0  0  0
  141.9749  135.5615  153.6694 O   0  0  0  0  0  0  0  0  0  0  0  0
  144.0526  135.1877  152.5883 C   0  0  0  0  0  0  0  0  0  0  0  0
  143.8320  133.8369  152.2402 C   0  0  0  0  0  0  0  0  0  0  0  0
  144.6471  133.2092  151.2783 C   0  0  0  0  0  0  0  0  0  0  0  0
  145.6758  133.9327  150.6455 C   0  0  0  0  0  0  0  0  0  0  0  0
  145.8827  135.2877  150.9668 C   0  0  0  0  0  0  0  0  0  0  0  0
  145.0681  135.9160  151.9284 C   0  0  0  0  0  0  0  0  0  0  0  0
  145.4979  135.7281  155.5982 N   0  0  0  0  0  0  0  0  0  0  0  0
  146.8025  135.6226  155.8660 C   0  0  0  0  0  0  0  0  0  0  0  0
  147.8028  136.4074  155.4599 N   0  0  0  0  0  0  0  0  0  0  0  0
  147.3605  137.4322  154.6761 C   0  0  0  0  0  0  0  0  0  0  0  0
  150.1737  138.1005  155.3958 C   0  0  1  0  0  0  0  0  0  0  0  0
  150.5689  136.7469  155.2956 O   0  0  0  0  0  0  0  0  0  0  0  0
  151.3871  139.0036  155.5385 C   0  0  1  0  0  0  0  0  0  0  0  0
  152.3567  138.6374  154.6951 F   0  0  0  0  0  0  0  0  0  0  0  0
  151.9660  141.6540  159.4628 C   0  0  0  0  0  0  0  0  0  0  0  0
  152.7597  140.4834  159.4835 C   0  0  0  0  0  0  0  0  0  0  0  0
  153.8118  140.3464  160.4097 C   0  0  0  0  0  0  0  0  0  0  0  0
  154.0827  141.3781  161.3272 C   0  0  0  0  0  0  0  0  0  0  0  0
  153.2996  142.5472  161.3174 C   0  0  0  0  0  0  0  0  0  0  0  0
  152.2469  142.6861  160.3918 C   0  0  0  0  0  0  0  0  0  0  0  0
  149.2360  140.8380  156.4331 H   0  0  0  0  0  0  0  0  0  0  0  0
  150.1965  142.2270  155.9639 H   0  0  0  0  0  0  0  0  0  0  0  0
  151.6359  140.9398  154.5883 H   0  0  0  0  0  0  0  0  0  0  0  0
  149.9652  138.2154  153.2018 H   0  0  0  0  0  0  0  0  0  0  0  0
  147.4312  140.0716  152.8258 H   0  0  0  0  0  0  0  0  0  0  0  0
  142.1326  137.8318  152.6282 H   0  0  0  0  0  0  0  0  0  0  0  0
  139.9696  138.6115  151.7043 H   0  0  0  0  0  0  0  0  0  0  0  0
  138.2487  139.5949  153.2083 H   0  0  0  0  0  0  0  0  0  0  0  0
  138.6895  139.7747  155.6504 H   0  0  0  0  0  0  0  0  0  0  0  0
  140.8465  138.9947  156.5875 H   0  0  0  0  0  0  0  0  0  0  0  0
  143.0447  133.2722  152.7185 H   0  0  0  0  0  0  0  0  0  0  0  0
  144.4816  132.1726  151.0247 H   0  0  0  0  0  0  0  0  0  0  0  0
  146.3006  133.4507  149.9081 H   0  0  0  0  0  0  0  0  0  0  0  0
  146.6651  135.8464  150.4744 H   0  0  0  0  0  0  0  0  0  0  0  0
  145.2325  136.9580  152.1627 H   0  0  0  0  0  0  0  0  0  0  0  0
  147.0871  134.7906  156.4935 H   0  0  0  0  0  0  0  0  0  0  0  0
  149.4846  138.2464  156.2294 H   0  0  0  0  0  0  0  0  0  0  0  0
  149.8232  136.2373  155.0171 H   0  0  0  0  0  0  0  0  0  0  0  0
  151.8105  139.0163  156.5434 H   0  0  0  0  0  0  0  0  0  0  0  0
  152.5712  139.6777  158.7885 H   0  0  0  0  0  0  0  0  0  0  0  0
  154.4117  139.4482  160.4153 H   0  0  0  0  0  0  0  0  0  0  0  0
  154.8897  141.2729  162.0372 H   0  0  0  0  0  0  0  0  0  0  0  0
  153.5064  143.3399  162.0215 H   0  0  0  0  0  0  0  0  0  0  0  0
  151.6654  143.5963  160.4118 H   0  0  0  0  0  0  0  0  0  0  0  0
  1  2  2  0  0  0  0
  2  3  1  0  0  0  0
  2 38  1  0  0  0  0
  3  4  1  0  0  0  0
  4  5  1  0  0  0  0
  4 44  1  0  0  0  0
  4 45  1  0  0  0  0
  5 36  1  0  0  0  0
  5  6  1  0  0  0  0
  5 46  1  0  0  0  0
  6  7  1  0  0  0  0
  7  8  1  0  0  0  0
  7 34  1  0  0  0  0
  7 47  1  0  0  0  0
  8 33  1  0  0  0  0
  8  9  1  0  0  0  0
  9 10  2  0  0  0  0
  9 48  1  0  0  0  0
 10 11  1  0  0  0  0
 11 33  2  0  0  0  0
 11 12  1  0  0  0  0
 12 13  1  0  0  0  0
 12 30  2  0  0  0  0
 13 14  1  0  0  0  0
 13 22  1  0  0  0  0
 14 15  2  0  0  0  0
 14 16  1  0  0  0  0
 16 21  1  0  0  0  0
 16 17  2  0  0  0  0
 17 18  1  0  0  0  0
 17 49  1  0  0  0  0
 18 19  2  0  0  0  0
 18 50  1  0  0  0  0
 19 20  1  0  0  0  0
 19 51  1  0  0  0  0
 20 21  2  0  0  0  0
 20 52  1  0  0  0  0
 21 53  1  0  0  0  0
 22 23  2  0  0  0  0
 22 24  1  0  0  0  0
 24 29  1  0  0  0  0
 24 25  2  0  0  0  0
 25 26  1  0  0  0  0
 25 54  1  0  0  0  0
 26 27  2  0  0  0  0
 26 55  1  0  0  0  0
 27 28  1  0  0  0  0
 27 56  1  0  0  0  0
 28 29  2  0  0  0  0
 28 57  1  0  0  0  0
 29 58  1  0  0  0  0
 30 31  1  0  0  0  0
 31 32  2  0  0  0  0
 31 59  1  0  0  0  0
 32 33  1  0  0  0  0
 34 35  1  0  0  0  0
 34 36  1  0  0  0  0
 34 60  1  0  0  0  0
 35 61  1  0  0  0  0
 36 37  1  0  0  0  0
 36 62  1  0  0  0  0
 38 43  1  0  0  0  0
 38 39  2  0  0  0  0
 39 40  1  0  0  0  0
 39 63  1  0  0  0  0
 40 41  2  0  0  0  0
 40 64  1  0  0  0  0
 41 42  1  0  0  0  0
 41 65  1  0  0  0  0
 42 43  2  0  0  0  0
 42 66  1  0  0  0  0
 43 67  1  0  0  0  0
M  END
> <s_m_source_file>
AV-unprocessed.smi

> <i_m_source_file_index>
33

> <i_lp_mmshare_version>
43012

> <i_f3d_flags>
0

> <s_epik_input>
W2NIXTFbY0hdW2NIXVtjSF1bY0hdYzFDKD1PKU9bQ0gyXVtDQEBIXTJPW0NASF0oW0NAQEhdKFtPSF0pW0NAQEhdMkYpbihbY0hdbjMpYyhjMzQpbltjSF1uYzROKEMoPU8pYzVbY0hdW2NIXVtjSF1bY0hdW2NIXTUpQyg9TyljNltjSF1bY0hdW2NIXVtjSF1bY0hdNg==

> <s_epik_cmdline>
J2VwaWtfcHl0aG9uJywgJy1waCcsICc3LjAnLCAnLXRuJywgJzgnLCAnLW1hJywgJzIwMCcsICctbWV0YWxfYmluZGluZycsICctaW1hZScsICc8aW5maWxlLm1hZT4nLCAnLW9tYWUnLCAnPG91dGZpbGUubWFlPic=

> <r_lp_tautomer_probability>
1

> <r_epik_Ionization_Penalty>
0.00067664

> <r_epik_Ionization_Penalty_Charging>
0

> <r_epik_Ionization_Penalty_Neutral>
0.00067664

> <r_epik_State_Penalty>
0.000428095

> <r_epik_Charging_Adjusted_Penalty>
0.000428095

> <i_epik_Tot_Q>
0

> <i_epik_Tot_abs_Q>
0

> <r_epik_Metal_State_Penalty>
-0

> <b_epik_Metal_Only>
0

> <s_epik_Chemistry_Notes>
This compound has an ester and may undergo hydrolysis at high or low pH. This compound contains an acetal/aminal-like group ( X-CH(R)-Y where X, Y are N, S, or O) that may be acid/base labile, releasing an aldehyde.

> <s_lp_Force_Field>
OPLS_2005

> <r_lp_Energy>
71.9351

> <b_lp_Chiralities_Consistent>
1

> <s_lp_Variant>
AV-unprocessed.smi:33-11

> <Gold.Version>
5.8.1

> <Gold.Id.Protein>
6NUR|6NUR_protein|mol2

> <Gold.PLP.Fitness>
54.3307

> <Gold.PLP.PLP>
-56.3594

> <Gold.PLP.part.hbond>
-1.0000

> <Gold.PLP.part.metal>
0.0000

> <Gold.PLP.part.buried>
-0.9614

> <Gold.PLP.part.nonpolar>
-55.1425

> <Gold.PLP.part.repulsive>
2.8841

> <Gold.PLP.ligand.clash>
0.0000

> <Gold.PLP.ligand.torsion>
4.1004

> <Gold.PLP.Chemscore.Hbond>
0.0000

> <Gold.PLP.Chemscore.CHOScore>
0.4761

> <Gold.PLP.Chemscore.Metal>
0.0000

> <Gold.Chemscore.Hbonds>
donor molecule, donor type, donor heavy atom, donor atom, acceptor molecule, acceptor atom, score
      L1  C     9    48       P1  7957  0.42

> <Gold.PLP.Chemscore.Internal.Correction>
4.7439

> <Gold.Rescore>
     Score         DG    S(hbond)    S(metal)    S(lipo)     H(rot)  DE(clash)    DE(int)     intcor
      5.15     -15.47       0.00        0.00     140.66       2.52       0.49       9.84       ----

> <Gold.Chemscore.Fitness>
5.1452

> <Gold.Chemscore.DG>
-15.4742

> <Gold.Chemscore.ZeroCoef>
-5.4800

> <Gold.Chemscore.Hbond>
0.0000

> <Gold.Chemscore.Metal>
0.0000

> <Gold.Chemscore.Lipo>
140.6617

> <Gold.Chemscore.Internal_Hbond>
0.0000

> <Gold.Chemscore.DEClash>
0.4878

> <Gold.Chemscore.DEInternal>
9.8413

> <Gold.Chemscore.Rot>
2.5247

> <Gold.Chemscore.Internal.Correction>
   9.000000E+99

> <Gold.Chemscore.Hbond.Weighted>
-0.0001

> <Gold.Chemscore.Metal.Weighted>
-0.0000

> <Gold.Chemscore.Lipo.Weighted>
-16.4574

> <Gold.Chemscore.Internal_Hbond.Weighted>
0.0000

> <Gold.Chemscore.DEClash.Weighted>
0.4878

> <Gold.Chemscore.DEInternal.Weighted>
9.8413

> <Gold.Chemscore.Rot.Weighted>
6.4633

> <Gold.Chemscore.Internal.Correction.Weighted>
   9.000000E+99

> <Gold.Protein.RotatedTorsions>
[ 6907 6896 6895 6894 ] final  -47.59 input  -60.11 | X-H torsion
[ 7974 7965 7964 7962 ] final    6.40 input  175.53 | X-H torsion
[ 8008 7997 7996 7995 ] final  -81.83 input   59.86 | X-H torsion
[ 10167 10162 10161 10158 ] final   48.06 input  -65.29 | X-H torsion
[ 10718 10713 10712 10709 ] final    3.18 input   66.30 | X-H torsion
[ 10763 10752 10751 10750 ] final  116.68 input  -60.55 | X-H torsion
[ 11005 11000 10999 10996 ] final  133.66 input  -57.11 | X-H torsion

> <Gold.Protein.ActiveResidues>
 VAL166  LYS551  ARG553  GLY616  TRP617  ASP618  TYR619  PRO620  LYS621  CYS622 
 ASP623  PHE694  ASN695  SER759  ASP760  ASP761  ALA762  ILE779  LEU786  VAL792 
 PHE793  MET794  SER795  GLU796  ALA797  LYS798  CYS799  TRP800  GLU811  SER814 

> <Gold.Protein.RotatedAtoms>
  150.8993  134.8403  159.7348 H   0  0  0  0  0  0  0  0  0  0  0  0  # atno 6907 bound_to 6896
  152.4883  134.4528  159.9590 H   0  0  0  0  0  0  0  0  0  0  0  0  # atno 6908 bound_to 6896
  151.4581  133.3560  159.2840 H   0  0  0  0  0  0  0  0  0  0  0  0  # atno 6909 bound_to 6896
  146.2435  140.0239  142.8395 H   0  0  0  0  0  0  0  0  0  0  0  0  # atno 7974 bound_to 7965
  154.6023  140.0642  156.9385 H   0  0  0  0  0  0  0  0  0  0  0  0  # atno 8008 bound_to 7997
  155.2111  140.3322  155.4310 H   0  0  0  0  0  0  0  0  0  0  0  0  # atno 8009 bound_to 7997
  156.2326  140.1848  156.7187 H   0  0  0  0  0  0  0  0  0  0  0  0  # atno 8010 bound_to 7997
  140.2972  144.2976  150.6227 H   0  0  0  0  0  0  0  0  0  0  0  0  # atno 10167 bound_to 10162
  156.8740  130.5630  149.5656 H   0  0  0  0  0  0  0  0  0  0  0  0  # atno 10718 bound_to 10713
  153.5409  135.3559  155.2718 H   0  0  0  0  0  0  0  0  0  0  0  0  # atno 10763 bound_to 10752
  154.8717  135.4091  154.3045 H   0  0  0  0  0  0  0  0  0  0  0  0  # atno 10764 bound_to 10752
  153.3752  135.7066  153.6675 H   0  0  0  0  0  0  0  0  0  0  0  0  # atno 10765 bound_to 10752
  139.9866  134.9530  156.9757 H   0  0  0  0  0  0  0  0  0  0  0  0  # atno 11005 bound_to 11000
  145.1216  140.9466  143.4597 LP  0  0  0  0  0  0  0  0  0  0  0  0  # atno 17320 bound_to 7965
  145.0475  139.3209  143.5945 LP  0  0  0  0  0  0  0  0  0  0  0  0  # atno 17321 bound_to 7965
  140.5682  143.2184  151.7646 LP  0  0  0  0  0  0  0  0  0  0  0  0  # atno 17342 bound_to 10162
  139.4923  144.4254  151.9931 LP  0  0  0  0  0  0  0  0  0  0  0  0  # atno 17343 bound_to 10162
  156.0711  130.5744  150.9386 LP  0  0  0  0  0  0  0  0  0  0  0  0  # atno 17370 bound_to 10713
  157.6179  131.0932  150.8676 LP  0  0  0  0  0  0  0  0  0  0  0  0  # atno 17371 bound_to 10713
  140.4990  134.1116  155.7247 LP  0  0  0  0  0  0  0  0  0  0  0  0  # atno 17394 bound_to 11000
  141.1530  133.8935  157.2050 LP  0  0  0  0  0  0  0  0  0  0  0  0  # atno 17395 bound_to 11000

$$$$
