AV-unprocessed.smi:1539|AV-procd|sdf|6196|dock8
  -GOLD-   22720 6363D 1   1.00000     0.00000
 Structure written by MMmdl.
 42 43  0  0  0  0  0  0  0  0  2 V2000
  152.0796  138.1904  158.1828 C   0  0  0  0  0  0  0  0  0  0  0  0
  150.8843  138.9541  157.6077 C   0  0  0  0  0  0  0  0  0  0  0  0
  149.8479  138.9950  158.2712 O   0  0  0  0  0  0  0  0  0  0  0  0
  150.9968  139.5450  156.3927 N   0  0  0  0  0  0  0  0  0  0  0  0
  149.8613  140.2392  155.7668 C   0  0  0  0  0  0  0  0  0  0  0  0
  148.9695  139.2606  154.9731 C   0  0  0  0  0  0  0  0  0  0  0  0
  149.7248  138.5006  153.8599 C   0  0  0  0  0  0  0  0  0  0  0  0
  150.8116  137.6690  154.4117 N   0  0  0  0  0  0  0  0  0  0  0  0
  150.6551  136.4171  154.9158 C   0  0  0  0  0  0  0  0  0  0  0  0
  151.5343  135.8241  155.5428 O   0  0  0  0  0  0  0  0  0  0  0  0
  149.4471  135.8691  154.6957 N   0  0  0  0  0  0  0  0  0  0  0  0
  149.0249  134.5559  155.1668 C   0  0  0  0  0  0  0  0  0  0  0  0
  148.8185  133.5776  153.9989 C   0  0  0  0  0  0  0  0  0  0  0  0
  147.4058  133.4613  153.6356 N   0  0  0  0  0  0  0  0  0  0  0  0
  146.8165  133.8601  152.4636 C   0  0  0  0  0  0  0  0  0  0  0  0
  145.4854  133.5490  152.5704 C   0  0  0  0  0  0  0  0  0  0  0  0
  145.3191  132.9740  153.8020 N   0  3  0  0  0  0  0  0  0  0  0  0
  146.4890  132.9199  154.4478 C   0  0  0  0  0  0  0  0  0  0  0  0
  152.1139  138.3595  154.4529 C   0  0  0  0  0  0  0  0  0  0  0  0
  152.1949  139.4678  155.5378 C   0  0  0  0  0  0  0  0  0  0  0  0
  152.4400  137.4389  157.4801 H   0  0  0  0  0  0  0  0  0  0  0  0
  151.7997  137.6759  159.1026 H   0  0  0  0  0  0  0  0  0  0  0  0
  152.8952  138.8743  158.4181 H   0  0  0  0  0  0  0  0  0  0  0  0
  149.2638  140.7572  156.5188 H   0  0  0  0  0  0  0  0  0  0  0  0
  150.2164  141.0256  155.0998 H   0  0  0  0  0  0  0  0  0  0  0  0
  148.5046  138.5510  155.6584 H   0  0  0  0  0  0  0  0  0  0  0  0
  148.1484  139.8199  154.5240 H   0  0  0  0  0  0  0  0  0  0  0  0
  149.0282  137.8986  153.2748 H   0  0  0  0  0  0  0  0  0  0  0  0
  150.1288  139.2224  153.1489 H   0  0  0  0  0  0  0  0  0  0  0  0
  148.7682  136.4134  154.1831 H   0  0  0  0  0  0  0  0  0  0  0  0
  149.7580  134.1621  155.8730 H   0  0  0  0  0  0  0  0  0  0  0  0
  148.0944  134.6770  155.7221 H   0  0  0  0  0  0  0  0  0  0  0  0
  149.3769  133.8986  153.1182 H   0  0  0  0  0  0  0  0  0  0  0  0
  149.1735  132.5791  154.2579 H   0  0  0  0  0  0  0  0  0  0  0  0
  147.3745  134.3228  151.6619 H   0  0  0  0  0  0  0  0  0  0  0  0
  144.6660  133.6901  151.8804 H   0  0  0  0  0  0  0  0  0  0  0  0
  146.6584  132.5181  155.4311 H   0  0  0  0  0  0  0  0  0  0  0  0
  152.9345  137.6574  154.6060 H   0  0  0  0  0  0  0  0  0  0  0  0
  152.3181  138.7950  153.4739 H   0  0  0  0  0  0  0  0  0  0  0  0
  152.3369  140.4299  155.0441 H   0  0  0  0  0  0  0  0  0  0  0  0
  153.1066  139.3454  156.1218 H   0  0  0  0  0  0  0  0  0  0  0  0
  144.4392  132.6376  154.1727 H   0  0  0  0  0  0  0  0  0  0  0  0
  1  2  1  0  0  0  0
  1 21  1  0  0  0  0
  1 22  1  0  0  0  0
  1 23  1  0  0  0  0
  2  3  2  0  0  0  0
  2  4  1  0  0  0  0
  4 20  1  0  0  0  0
  4  5  1  0  0  0  0
  5  6  1  0  0  0  0
  5 24  1  0  0  0  0
  5 25  1  0  0  0  0
  6  7  1  0  0  0  0
  6 26  1  0  0  0  0
  6 27  1  0  0  0  0
  7  8  1  0  0  0  0
  7 28  1  0  0  0  0
  7 29  1  0  0  0  0
  8  9  1  0  0  0  0
  8 19  1  0  0  0  0
  9 10  2  0  0  0  0
  9 11  1  0  0  0  0
 11 12  1  0  0  0  0
 11 30  1  0  0  0  0
 12 13  1  0  0  0  0
 12 31  1  0  0  0  0
 12 32  1  0  0  0  0
 13 14  1  0  0  0  0
 13 33  1  0  0  0  0
 13 34  1  0  0  0  0
 14 18  1  0  0  0  0
 14 15  1  0  0  0  0
 15 16  2  0  0  0  0
 15 35  1  0  0  0  0
 16 17  1  0  0  0  0
 16 36  1  0  0  0  0
 17 18  2  0  0  0  0
 17 42  1  0  0  0  0
 18 37  1  0  0  0  0
 19 20  1  0  0  0  0
 19 38  1  0  0  0  0
 19 39  1  0  0  0  0
 20 40  1  0  0  0  0
 20 41  1  0  0  0  0
M  CHG  1  17   1
M  END
> <s_m_source_file>
AV-unprocessed.smi

> <i_m_source_file_index>
1539

> <i_lp_mmshare_version>
43012

> <i_f3d_flags>
0

> <s_epik_input>
W0NIM11DKD1PKU4xW0NIMl1bQ0gyXVtDSDJdTihbQ0gyXVtDSDJdMSlDKD1PKVtOSF1bQ0gyXVtDSDJdbjJbY0hdW2NIXW5bY0hdMg==

> <s_epik_cmdline>
J2VwaWtfcHl0aG9uJywgJy1waCcsICc3LjAnLCAnLXRuJywgJzgnLCAnLW1hJywgJzIwMCcsICctbWV0YWxfYmluZGluZycsICctaW1hZScsICc8aW5maWxlLm1hZT4nLCAnLW9tYWUnLCAnPG91dGZpbGUubWFlPic=

> <r_lp_tautomer_probability>
1

> <r_epik_Ionization_Penalty>
0.254079

> <r_epik_Ionization_Penalty_Charging>
0

> <r_epik_Ionization_Penalty_Neutral>
0.254079

> <r_epik_State_Penalty>
0.245493

> <r_epik_Charging_Adjusted_Penalty>
0.245493

> <i_epik_Tot_Q>
1

> <i_epik_Tot_abs_Q>
1

> <r_epik_Metal_State_Penalty>
0.535648

> <b_epik_Metal_Only>
0

> <s_lp_Force_Field>
OPLS_2005

> <r_lp_Energy>
43.2206

> <b_lp_Chiralities_Consistent>
1

> <s_lp_Variant>
AV-unprocessed.smi:1539-1

> <Gold.Version>
5.8.1

> <Gold.Id.Protein>
6NUR|6NUR_protein|mol2

> <Gold.PLP.Fitness>
39.9324

> <Gold.PLP.PLP>
-28.6443

> <Gold.PLP.part.hbond>
-2.9650

> <Gold.PLP.part.metal>
0.0000

> <Gold.PLP.part.buried>
-2.1527

> <Gold.PLP.part.nonpolar>
-24.7096

> <Gold.PLP.part.repulsive>
0.1008

> <Gold.PLP.ligand.clash>
0.0000

> <Gold.PLP.ligand.torsion>
0.3768

> <Gold.PLP.Chemscore.Hbond>
3.0407

> <Gold.PLP.Chemscore.CHOScore>
0.9670

> <Gold.PLP.Chemscore.Metal>
0.0000

> <Gold.Chemscore.Hbonds>
donor molecule, donor type, donor heavy atom, donor atom, acceptor molecule, acceptor atom, score
      L1  H    11    30       P1  7948  0.07
      L1  H    17    42       P1 10957  1.85
      P1  H 10752 10765       L1    10  1.00
      L1  C    15    35       P1  7948  0.96

> <Gold.PLP.Chemscore.Internal.Correction>
0.0184

> <Gold.Rescore>
     Score         DG    S(hbond)    S(metal)    S(lipo)     H(rot)  DE(clash)    DE(int)     intcor
     13.56     -13.92       2.00        0.00      52.23       1.70       0.03       0.33       ----

> <Gold.Chemscore.Fitness>
13.5648

> <Gold.Chemscore.DG>
-13.9235

> <Gold.Chemscore.ZeroCoef>
-5.4800

> <Gold.Chemscore.Hbond>
2.0043

> <Gold.Chemscore.Metal>
0.0000

> <Gold.Chemscore.Lipo>
52.2262

> <Gold.Chemscore.Internal_Hbond>
0.0000

> <Gold.Chemscore.DEClash>
0.0306

> <Gold.Chemscore.DEInternal>
0.3282

> <Gold.Chemscore.Rot>
1.7036

> <Gold.Chemscore.Internal.Correction>
   9.000000E+99

> <Gold.Chemscore.Hbonds>
donor molecule, donor type, donor heavy atom, donor atom, acceptor molecule, acceptor atom, score
      L1  H    11    30       P1  7948  0.07
      L1  H    17    42       P1 10957  0.69
      P1  H 10752 10765       L1    10  0.99

> <Gold.Chemscore.Hbond.Weighted>
-6.6944

> <Gold.Chemscore.Metal.Weighted>
-0.0000

> <Gold.Chemscore.Lipo.Weighted>
-6.1105

> <Gold.Chemscore.Internal_Hbond.Weighted>
0.0000

> <Gold.Chemscore.DEClash.Weighted>
0.0306

> <Gold.Chemscore.DEInternal.Weighted>
0.3282

> <Gold.Chemscore.Rot.Weighted>
4.3613

> <Gold.Chemscore.Internal.Correction.Weighted>
   9.000000E+99

> <Gold.Protein.RotatedTorsions>
[ 6907 6896 6895 6894 ] final  -39.22 input  -60.11 | X-H torsion
[ 7974 7965 7964 7962 ] final -141.70 input  175.53 | X-H torsion
[ 8008 7997 7996 7995 ] final   55.88 input   59.86 | X-H torsion
[ 10167 10162 10161 10158 ] final  101.66 input  -65.29 | X-H torsion
[ 10718 10713 10712 10709 ] final  -26.98 input   66.30 | X-H torsion
[ 10763 10752 10751 10750 ] final -160.84 input  -60.55 | X-H torsion
[ 11005 11000 10999 10996 ] final -136.99 input  -57.11 | X-H torsion

> <Gold.Protein.ActiveResidues>
 VAL166  LYS551  ARG553  GLY616  TRP617  ASP618  TYR619  PRO620  LYS621  CYS622 
 ASP623  PHE694  ASN695  SER759  ASP760  ASP761  ALA762  ILE779  LEU786  VAL792 
 PHE793  MET794  SER795  GLU796  ALA797  LYS798  CYS799  TRP800  GLU811  SER814 

> <Gold.Protein.RotatedAtoms>
  150.9930  134.9260  159.7910 H   0  0  0  0  0  0  0  0  0  0  0  0  # atno 6907 bound_to 6896
  152.5256  134.3256  159.9174 H   0  0  0  0  0  0  0  0  0  0  0  0  # atno 6908 bound_to 6896
  151.3262  133.3978  159.2693 H   0  0  0  0  0  0  0  0  0  0  0  0  # atno 6909 bound_to 6896
  144.8499  140.6048  143.5397 H   0  0  0  0  0  0  0  0  0  0  0  0  # atno 7974 bound_to 7965
  155.5084  140.3476  155.4384 H   0  0  0  0  0  0  0  0  0  0  0  0  # atno 8008 bound_to 7997
  156.0866  140.1400  156.9672 H   0  0  0  0  0  0  0  0  0  0  0  0  # atno 8009 bound_to 7997
  154.4610  140.0935  156.6870 H   0  0  0  0  0  0  0  0  0  0  0  0  # atno 8010 bound_to 7997
  139.7418  144.7009  151.0563 H   0  0  0  0  0  0  0  0  0  0  0  0  # atno 10167 bound_to 10162
  156.4441  130.4470  149.7033 H   0  0  0  0  0  0  0  0  0  0  0  0  # atno 10718 bound_to 10713
  154.7355  135.3056  154.8818 H   0  0  0  0  0  0  0  0  0  0  0  0  # atno 10763 bound_to 10752
  153.9648  135.6748  153.4750 H   0  0  0  0  0  0  0  0  0  0  0  0  # atno 10764 bound_to 10752
  153.0959  135.4936  154.8700 H   0  0  0  0  0  0  0  0  0  0  0  0  # atno 10765 bound_to 10752
  140.8753  134.2000  157.4625 H   0  0  0  0  0  0  0  0  0  0  0  0  # atno 11005 bound_to 11000
  145.4520  139.1522  143.3913 LP  0  0  0  0  0  0  0  0  0  0  0  0  # atno 17320 bound_to 7965
  146.2776  140.4647  142.8789 LP  0  0  0  0  0  0  0  0  0  0  0  0  # atno 17321 bound_to 7965
  140.7787  143.4914  150.9888 LP  0  0  0  0  0  0  0  0  0  0  0  0  # atno 17342 bound_to 10162
  139.8603  143.7323  152.3174 LP  0  0  0  0  0  0  0  0  0  0  0  0  # atno 17343 bound_to 10162
  156.3886  130.7615  151.2614 LP  0  0  0  0  0  0  0  0  0  0  0  0  # atno 17370 bound_to 10713
  157.7505  131.0274  150.4006 LP  0  0  0  0  0  0  0  0  0  0  0  0  # atno 17371 bound_to 10713
  139.8715  134.9793  156.5030 LP  0  0  0  0  0  0  0  0  0  0  0  0  # atno 17394 bound_to 11000
  140.8525  133.8121  155.9183 LP  0  0  0  0  0  0  0  0  0  0  0  0  # atno 17395 bound_to 11000

$$$$
