AV-unprocessed.smi:2954|AV-procd|sdf|11298|dock6
  -GOLD-   2272016193D 1   1.00000     0.00000
 Structure written by MMmdl.
 42 44  0  0  0  0  0  0  0  0  1 V2000
  151.7369  139.2352  157.8609 C   0  0  0  0  0  0  0  0  0  0  0  0
  151.9632  139.4827  156.3637 C   0  0  1  0  0  0  0  0  0  0  0  0
  152.4339  138.2622  155.7137 N   0  0  0  0  0  0  0  0  0  0  0  0
  153.4638  138.2107  154.8590 C   0  0  0  0  0  0  0  0  0  0  0  0
  154.1224  139.1968  154.5391 O   0  0  0  0  0  0  0  0  0  0  0  0
  150.7073  139.9533  155.6723 C   0  0  0  0  0  0  0  0  0  0  0  0
  150.2014  139.3176  154.6115 N   0  0  0  0  0  0  0  0  0  0  0  0
  149.0926  140.0766  154.2965 C   0  0  0  0  0  0  0  0  0  0  0  0
  148.1423  139.9280  153.2611 C   0  0  0  0  0  0  0  0  0  0  0  0
  147.0798  140.8459  153.1305 C   0  0  0  0  0  0  0  0  0  0  0  0
  146.9523  141.9223  154.0318 C   0  0  0  0  0  0  0  0  0  0  0  0
  147.8869  142.0862  155.0720 C   0  0  0  0  0  0  0  0  0  0  0  0
  148.9457  141.1668  155.1986 C   0  0  0  0  0  0  0  0  0  0  0  0
  150.0124  141.0451  156.0848 N   0  0  0  0  0  0  0  0  0  0  0  0
  150.2980  141.9393  157.1992 C   0  0  0  0  0  0  0  0  0  0  0  0
  151.6272  142.6858  157.0109 C   0  0  0  0  0  0  0  0  0  0  0  0
  151.7914  143.6092  158.0787 O   0  0  0  0  0  0  0  0  0  0  0  0
  152.2132  143.1341  159.3011 C   0  0  0  0  0  0  0  0  0  0  0  0
  152.8053  141.8596  159.4899 C   0  0  0  0  0  0  0  0  0  0  0  0
  153.2120  141.4450  160.7727 C   0  0  0  0  0  0  0  0  0  0  0  0
  153.0312  142.2939  161.8799 C   0  0  0  0  0  0  0  0  0  0  0  0
  152.4410  143.5588  161.7032 C   0  0  0  0  0  0  0  0  0  0  0  0
  152.0336  143.9763  160.4209 C   0  0  0  0  0  0  0  0  0  0  0  0
  151.3187  145.5372  160.2262 Cl  0  0  0  0  0  0  0  0  0  0  0  0
  151.4053  140.1465  158.3593 H   0  0  0  0  0  0  0  0  0  0  0  0
  152.6555  138.9077  158.3487 H   0  0  0  0  0  0  0  0  0  0  0  0
  150.9784  138.4697  158.0282 H   0  0  0  0  0  0  0  0  0  0  0  0
  152.7490  140.2307  156.2678 H   0  0  0  0  0  0  0  0  0  0  0  0
  151.9437  137.4056  155.9267 H   0  0  0  0  0  0  0  0  0  0  0  0
  153.6430  137.1889  154.4907 H   0  0  0  0  0  0  0  0  0  0  0  0
  148.2328  139.1079  152.5643 H   0  0  0  0  0  0  0  0  0  0  0  0
  146.3602  140.7243  152.3342 H   0  0  0  0  0  0  0  0  0  0  0  0
  146.1376  142.6232  153.9237 H   0  0  0  0  0  0  0  0  0  0  0  0
  147.7939  142.9134  155.7596 H   0  0  0  0  0  0  0  0  0  0  0  0
  149.4834  142.6595  157.2798 H   0  0  0  0  0  0  0  0  0  0  0  0
  150.2927  141.3746  158.1316 H   0  0  0  0  0  0  0  0  0  0  0  0
  152.4549  141.9755  156.9938 H   0  0  0  0  0  0  0  0  0  0  0  0
  151.6181  143.2105  156.0554 H   0  0  0  0  0  0  0  0  0  0  0  0
  152.9537  141.1795  158.6651 H   0  0  0  0  0  0  0  0  0  0  0  0
  153.6627  140.4728  160.9072 H   0  0  0  0  0  0  0  0  0  0  0  0
  153.3442  141.9751  162.8631 H   0  0  0  0  0  0  0  0  0  0  0  0
  152.3022  144.2103  162.5534 H   0  0  0  0  0  0  0  0  0  0  0  0
  1  2  1  0  0  0  0
  1 25  1  0  0  0  0
  1 26  1  0  0  0  0
  1 27  1  0  0  0  0
  2  3  1  0  0  0  0
  2  6  1  0  0  0  0
  2 28  1  0  0  0  0
  3  4  1  0  0  0  0
  3 29  1  0  0  0  0
  4  5  2  0  0  0  0
  4 30  1  0  0  0  0
  6 14  1  0  0  0  0
  6  7  2  0  0  0  0
  7  8  1  0  0  0  0
  8 13  2  0  0  0  0
  8  9  1  0  0  0  0
  9 10  2  0  0  0  0
  9 31  1  0  0  0  0
 10 11  1  0  0  0  0
 10 32  1  0  0  0  0
 11 12  2  0  0  0  0
 11 33  1  0  0  0  0
 12 13  1  0  0  0  0
 12 34  1  0  0  0  0
 13 14  1  0  0  0  0
 14 15  1  0  0  0  0
 15 16  1  0  0  0  0
 15 35  1  0  0  0  0
 15 36  1  0  0  0  0
 16 17  1  0  0  0  0
 16 37  1  0  0  0  0
 16 38  1  0  0  0  0
 17 18  1  0  0  0  0
 18 23  1  0  0  0  0
 18 19  2  0  0  0  0
 19 20  1  0  0  0  0
 19 39  1  0  0  0  0
 20 21  2  0  0  0  0
 20 40  1  0  0  0  0
 21 22  1  0  0  0  0
 21 41  1  0  0  0  0
 22 23  2  0  0  0  0
 22 42  1  0  0  0  0
 23 24  1  0  0  0  0
M  END
> <s_m_source_file>
AV-unprocessed.smi

> <i_m_source_file_index>
2954

> <i_lp_mmshare_version>
43012

> <i_f3d_flags>
0

> <s_epik_input>
Tz1bQ0hdW05IXVtDQEBIXShbQ0gzXSljKG4xKW4oYyhjMTIpW2NIXVtjSF1bY0hdW2NIXTIpW0NIMl1bQ0gyXU9jM1tjSF1bY0hdW2NIXVtjSF1jM0Ns

> <s_epik_cmdline>
J2VwaWtfcHl0aG9uJywgJy1waCcsICc3LjAnLCAnLXRuJywgJzgnLCAnLW1hJywgJzIwMCcsICctbWV0YWxfYmluZGluZycsICctaW1hZScsICc8aW5maWxlLm1hZT4nLCAnLW9tYWUnLCAnPG91dGZpbGUubWFlPic=

> <r_lp_tautomer_probability>
1

> <r_epik_Ionization_Penalty>
0.0861383

> <r_epik_Ionization_Penalty_Charging>
0

> <r_epik_Ionization_Penalty_Neutral>
0.0861383

> <r_epik_State_Penalty>
0.0766841

> <r_epik_Charging_Adjusted_Penalty>
0.0766841

> <i_epik_Tot_Q>
0

> <i_epik_Tot_abs_Q>
0

> <r_epik_Metal_State_Penalty>
0.0668745

> <b_epik_Metal_Only>
0

> <s_lp_Force_Field>
OPLS_2005

> <r_lp_Energy>
11.8377

> <b_lp_Chiralities_Consistent>
1

> <s_lp_Variant>
AV-unprocessed.smi:2954-2

> <Gold.Version>
5.8.1

> <Gold.Id.Protein>
6NUR|6NUR_protein|mol2

> <Gold.PLP.Fitness>
54.4579

> <Gold.PLP.PLP>
-52.4127

> <Gold.PLP.part.hbond>
-1.1968

> <Gold.PLP.part.metal>
0.0000

> <Gold.PLP.part.buried>
2.1316

> <Gold.PLP.part.nonpolar>
-53.6518

> <Gold.PLP.part.repulsive>
0.4269

> <Gold.PLP.ligand.clash>
0.0000

> <Gold.PLP.ligand.torsion>
0.5279

> <Gold.PLP.Chemscore.Hbond>
1.0143

> <Gold.PLP.Chemscore.CHOScore>
0.0000

> <Gold.PLP.Chemscore.Metal>
0.0000

> <Gold.Chemscore.Hbonds>
donor molecule, donor type, donor heavy atom, donor atom, acceptor molecule, acceptor atom, score
      P1  H  7997  8010       L1     5  1.00

> <Gold.PLP.Chemscore.Internal.Correction>
0.0582

> <Gold.Rescore>
     Score         DG    S(hbond)    S(metal)    S(lipo)     H(rot)  DE(clash)    DE(int)     intcor
     16.67     -19.63       0.95        0.00     143.80       2.28       2.46       0.49       ----

> <Gold.Chemscore.Fitness>
16.6696

> <Gold.Chemscore.DG>
-19.6262

> <Gold.Chemscore.ZeroCoef>
-5.4800

> <Gold.Chemscore.Hbond>
0.9496

> <Gold.Chemscore.Metal>
0.0000

> <Gold.Chemscore.Lipo>
143.7950

> <Gold.Chemscore.Internal_Hbond>
0.0000

> <Gold.Chemscore.DEClash>
2.4650

> <Gold.Chemscore.DEInternal>
0.4916

> <Gold.Chemscore.Rot>
2.2849

> <Gold.Chemscore.Internal.Correction>
   9.000000E+99

> <Gold.Chemscore.Hbonds>
donor molecule, donor type, donor heavy atom, donor atom, acceptor molecule, acceptor atom, score
      P1  H  7997  8010       L1     5  0.94

> <Gold.Chemscore.Hbond.Weighted>
-3.1716

> <Gold.Chemscore.Metal.Weighted>
-0.0000

> <Gold.Chemscore.Lipo.Weighted>
-16.8240

> <Gold.Chemscore.Internal_Hbond.Weighted>
0.0000

> <Gold.Chemscore.DEClash.Weighted>
2.4650

> <Gold.Chemscore.DEInternal.Weighted>
0.4916

> <Gold.Chemscore.Rot.Weighted>
5.8495

> <Gold.Chemscore.Internal.Correction.Weighted>
   9.000000E+99

> <Gold.Protein.RotatedTorsions>
[ 6907 6896 6895 6894 ] final  -39.82 input  -60.11 | X-H torsion
[ 7974 7965 7964 7962 ] final   87.06 input  175.53 | X-H torsion
[ 8008 7997 7996 7995 ] final  125.99 input   59.86 | X-H torsion
[ 10167 10162 10161 10158 ] final   -2.85 input  -65.29 | X-H torsion
[ 10718 10713 10712 10709 ] final  153.30 input   66.30 | X-H torsion
[ 10763 10752 10751 10750 ] final   64.51 input  -60.55 | X-H torsion
[ 11005 11000 10999 10996 ] final -160.28 input  -57.11 | X-H torsion

> <Gold.Protein.ActiveResidues>
 VAL166  LYS551  ARG553  GLY616  TRP617  ASP618  TYR619  PRO620  LYS621  CYS622 
 ASP623  PHE694  ASN695  SER759  ASP760  ASP761  ALA762  ILE779  LEU786  VAL792 
 PHE793  MET794  SER795  GLU796  ALA797  LYS798  CYS799  TRP800  GLU811  SER814 

> <Gold.Protein.RotatedAtoms>
  150.9858  134.9204  159.7870 H   0  0  0  0  0  0  0  0  0  0  0  0  # atno 6907 bound_to 6896
  152.5236  134.3348  159.9206 H   0  0  0  0  0  0  0  0  0  0  0  0  # atno 6908 bound_to 6896
  151.3355  133.3942  159.2701 H   0  0  0  0  0  0  0  0  0  0  0  0  # atno 6909 bound_to 6896
  145.5640  139.2307  143.2443 H   0  0  0  0  0  0  0  0  0  0  0  0  # atno 7974 bound_to 7965
  156.2851  140.2703  156.2038 H   0  0  0  0  0  0  0  0  0  0  0  0  # atno 8008 bound_to 7997
  155.0334  140.0386  157.2500 H   0  0  0  0  0  0  0  0  0  0  0  0  # atno 8009 bound_to 7997
  154.7335  140.2711  155.6440 H   0  0  0  0  0  0  0  0  0  0  0  0  # atno 8010 bound_to 7997
  140.6867  143.6609  150.8268 H   0  0  0  0  0  0  0  0  0  0  0  0  # atno 10167 bound_to 10162
  157.2465  131.0770  151.1758 H   0  0  0  0  0  0  0  0  0  0  0  0  # atno 10718 bound_to 10713
  153.0058  135.5390  154.6521 H   0  0  0  0  0  0  0  0  0  0  0  0  # atno 10763 bound_to 10752
  154.5751  135.2845  155.0791 H   0  0  0  0  0  0  0  0  0  0  0  0  # atno 10764 bound_to 10752
  154.1942  135.6495  153.5121 H   0  0  0  0  0  0  0  0  0  0  0  0  # atno 10765 bound_to 10752
  140.6333  134.4628  157.5230 H   0  0  0  0  0  0  0  0  0  0  0  0  # atno 11005 bound_to 11000
  146.1831  140.6466  142.9180 LP  0  0  0  0  0  0  0  0  0  0  0  0  # atno 17320 bound_to 7965
  144.7469  140.5091  143.6829 LP  0  0  0  0  0  0  0  0  0  0  0  0  # atno 17321 bound_to 7965
  140.0317  143.5437  152.2757 LP  0  0  0  0  0  0  0  0  0  0  0  0  # atno 17342 bound_to 10162
  139.6232  144.7633  151.2695 LP  0  0  0  0  0  0  0  0  0  0  0  0  # atno 17343 bound_to 10162
  157.3323  130.6991  149.6332 LP  0  0  0  0  0  0  0  0  0  0  0  0  # atno 17370 bound_to 10713
  155.9668  130.4304  150.4874 LP  0  0  0  0  0  0  0  0  0  0  0  0  # atno 17371 bound_to 10713
  139.9108  134.8350  156.1537 LP  0  0  0  0  0  0  0  0  0  0  0  0  # atno 17394 bound_to 11000
  141.0660  133.6819  156.2045 LP  0  0  0  0  0  0  0  0  0  0  0  0  # atno 17395 bound_to 11000

$$$$
