AV-unprocessed.smi:3184|AV-procd|sdf|12162|dock1
  -GOLD-   2272017593D 1   1.00000     0.00000
 Structure written by MMmdl.
 35 36  0  0  0  0  0  0  0  0  2 V2000
  148.8680  139.0020  156.7493 C   0  0  0  0  0  0  0  0  0  0  0  0
  150.0870  139.4603  155.9378 C   0  0  1  0  0  0  0  0  0  0  0  0
  149.7248  139.6606  154.4507 C   0  0  0  0  0  0  0  0  0  0  0  0
  148.4258  140.3153  154.2619 N   0  0  0  0  0  0  0  0  0  0  0  0
  148.0677  141.5783  154.6583 C   0  0  0  0  0  0  0  0  0  0  0  0
  146.7605  141.7500  154.2823 C   0  0  0  0  0  0  0  0  0  0  0  0
  146.3783  140.5885  153.6662 N   0  3  0  0  0  0  0  0  0  0  0  0
  147.3938  139.7189  153.6507 C   0  0  0  0  0  0  0  0  0  0  0  0
  150.6073  140.6945  156.5247 N   0  0  0  0  0  0  0  0  0  0  0  0
  151.2323  140.8022  157.7107 C   0  0  0  0  0  0  0  0  0  0  0  0
  151.4540  139.8359  158.4414 O   0  0  0  0  0  0  0  0  0  0  0  0
  151.6235  142.0582  158.0153 N   0  0  0  0  0  0  0  0  0  0  0  0
  151.1631  143.2950  157.3772 C   0  0  0  0  0  0  0  0  0  0  0  0
  151.7071  144.4343  158.2394 C   0  0  0  0  0  0  0  0  0  0  0  0
  152.9317  143.8371  158.9179 C   0  0  0  0  0  0  0  0  0  0  0  0
  152.5871  142.3561  159.0732 C   0  0  0  0  0  0  0  0  0  0  0  0
  148.4706  138.0629  156.3633 H   0  0  0  0  0  0  0  0  0  0  0  0
  148.0662  139.7406  156.7162 H   0  0  0  0  0  0  0  0  0  0  0  0
  149.1297  138.8408  157.7957 H   0  0  0  0  0  0  0  0  0  0  0  0
  150.8385  138.6723  156.0154 H   0  0  0  0  0  0  0  0  0  0  0  0
  150.4707  140.2893  153.9628 H   0  0  0  0  0  0  0  0  0  0  0  0
  149.7192  138.7078  153.9188 H   0  0  0  0  0  0  0  0  0  0  0  0
  148.7491  142.2400  155.1731 H   0  0  0  0  0  0  0  0  0  0  0  0
  146.0910  142.5889  154.4044 H   0  0  0  0  0  0  0  0  0  0  0  0
  147.3783  138.7269  153.2360 H   0  0  0  0  0  0  0  0  0  0  0  0
  150.4731  141.5409  155.9907 H   0  0  0  0  0  0  0  0  0  0  0  0
  151.5756  143.3499  156.3684 H   0  0  0  0  0  0  0  0  0  0  0  0
  150.0754  143.3449  157.3049 H   0  0  0  0  0  0  0  0  0  0  0  0
  151.9372  145.3300  157.6616 H   0  0  0  0  0  0  0  0  0  0  0  0
  150.9685  144.7050  158.9951 H   0  0  0  0  0  0  0  0  0  0  0  0
  153.7986  143.9445  158.2647 H   0  0  0  0  0  0  0  0  0  0  0  0
  153.1669  144.3186  159.8674 H   0  0  0  0  0  0  0  0  0  0  0  0
  152.1197  142.1706  160.0413 H   0  0  0  0  0  0  0  0  0  0  0  0
  153.4799  141.7329  159.0028 H   0  0  0  0  0  0  0  0  0  0  0  0
  145.4603  140.4104  153.2787 H   0  0  0  0  0  0  0  0  0  0  0  0
  1  2  1  0  0  0  0
  1 17  1  0  0  0  0
  1 18  1  0  0  0  0
  1 19  1  0  0  0  0
  2  3  1  0  0  0  0
  2  9  1  0  0  0  0
  2 20  1  0  0  0  0
  3  4  1  0  0  0  0
  3 21  1  0  0  0  0
  3 22  1  0  0  0  0
  4  8  1  0  0  0  0
  4  5  1  0  0  0  0
  5  6  2  0  0  0  0
  5 23  1  0  0  0  0
  6  7  1  0  0  0  0
  6 24  1  0  0  0  0
  7  8  2  0  0  0  0
  7 35  1  0  0  0  0
  8 25  1  0  0  0  0
  9 10  1  0  0  0  0
  9 26  1  0  0  0  0
 10 11  2  0  0  0  0
 10 12  1  0  0  0  0
 12 16  1  0  0  0  0
 12 13  1  0  0  0  0
 13 14  1  0  0  0  0
 13 27  1  0  0  0  0
 13 28  1  0  0  0  0
 14 15  1  0  0  0  0
 14 29  1  0  0  0  0
 14 30  1  0  0  0  0
 15 16  1  0  0  0  0
 15 31  1  0  0  0  0
 15 32  1  0  0  0  0
 16 33  1  0  0  0  0
 16 34  1  0  0  0  0
M  CHG  1   7   1
M  END
> <s_m_source_file>
AV-unprocessed.smi

> <i_m_source_file_index>
3184

> <i_lp_mmshare_version>
43012

> <i_f3d_flags>
0

> <s_epik_input>
W2NIXTFuW2NIXVtjSF1uMVtDSDJdW0NAQEhdKFtDSDNdKVtOSF1DKD1PKU4yW0NIMl1bQ0gyXVtDSDJdW0NIMl0y

> <s_epik_cmdline>
J2VwaWtfcHl0aG9uJywgJy1waCcsICc3LjAnLCAnLXRuJywgJzgnLCAnLW1hJywgJzIwMCcsICctbWV0YWxfYmluZGluZycsICctaW1hZScsICc8aW5maWxlLm1hZT4nLCAnLW9tYWUnLCAnPG91dGZpbGUubWFlPic=

> <r_lp_tautomer_probability>
1

> <r_epik_Ionization_Penalty>
0.25331

> <r_epik_Ionization_Penalty_Charging>
0

> <r_epik_Ionization_Penalty_Neutral>
0.25331

> <r_epik_State_Penalty>
0.244676

> <r_epik_Charging_Adjusted_Penalty>
0.244676

> <i_epik_Tot_Q>
1

> <i_epik_Tot_abs_Q>
1

> <r_epik_Metal_State_Penalty>
0.535078

> <b_epik_Metal_Only>
0

> <s_lp_Force_Field>
OPLS_2005

> <r_lp_Energy>
36.5644

> <b_lp_Chiralities_Consistent>
1

> <s_lp_Variant>
AV-unprocessed.smi:3184-2

> <Gold.Version>
5.8.1

> <Gold.Id.Protein>
6NUR|6NUR_protein|mol2

> <Gold.PLP.Fitness>
43.0746

> <Gold.PLP.PLP>
-34.8619

> <Gold.PLP.part.hbond>
-1.0000

> <Gold.PLP.part.metal>
0.0000

> <Gold.PLP.part.buried>
-1.8884

> <Gold.PLP.part.nonpolar>
-31.4193

> <Gold.PLP.part.repulsive>
0.0907

> <Gold.PLP.ligand.clash>
0.0000

> <Gold.PLP.ligand.torsion>
0.4020

> <Gold.PLP.Chemscore.Hbond>
2.0000

> <Gold.PLP.Chemscore.CHOScore>
1.0000

> <Gold.PLP.Chemscore.Metal>
0.0000

> <Gold.Chemscore.Hbonds>
donor molecule, donor type, donor heavy atom, donor atom, acceptor molecule, acceptor atom, score
      L1  H     7    35       P1 10175  2.00
      L1  C     5    23       P1  8028  1.00

> <Gold.PLP.Chemscore.Internal.Correction>
0.0167

> <Gold.Rescore>
     Score         DG    S(hbond)    S(metal)    S(lipo)     H(rot)  DE(clash)    DE(int)     intcor
     12.91     -13.58       0.99        0.00      77.26       1.65       0.03       0.64       ----

> <Gold.Chemscore.Fitness>
12.9127

> <Gold.Chemscore.DG>
-13.5825

> <Gold.Chemscore.ZeroCoef>
-5.4800

> <Gold.Chemscore.Hbond>
0.9850

> <Gold.Chemscore.Metal>
0.0000

> <Gold.Chemscore.Lipo>
77.2638

> <Gold.Chemscore.Internal_Hbond>
0.0000

> <Gold.Chemscore.DEClash>
0.0256

> <Gold.Chemscore.DEInternal>
0.6443

> <Gold.Chemscore.Rot>
1.6513

> <Gold.Chemscore.Internal.Correction>
   9.000000E+99

> <Gold.Chemscore.Hbonds>
donor molecule, donor type, donor heavy atom, donor atom, acceptor molecule, acceptor atom, score
      L1  H     7    35       P1 10175  0.97

> <Gold.Chemscore.Hbond.Weighted>
-3.2899

> <Gold.Chemscore.Metal.Weighted>
-0.0000

> <Gold.Chemscore.Lipo.Weighted>
-9.0399

> <Gold.Chemscore.Internal_Hbond.Weighted>
0.0000

> <Gold.Chemscore.DEClash.Weighted>
0.0256

> <Gold.Chemscore.DEInternal.Weighted>
0.6443

> <Gold.Chemscore.Rot.Weighted>
4.2273

> <Gold.Chemscore.Internal.Correction.Weighted>
   9.000000E+99

> <Gold.Protein.RotatedTorsions>
[ 6907 6896 6895 6894 ] final  -36.06 input  -60.11 | X-H torsion
[ 7974 7965 7964 7962 ] final -129.10 input  175.53 | X-H torsion
[ 8008 7997 7996 7995 ] final  -14.33 input   59.86 | X-H torsion
[ 10167 10162 10161 10158 ] final  162.30 input  -65.29 | X-H torsion
[ 10718 10713 10712 10709 ] final   12.08 input   66.30 | X-H torsion
[ 10763 10752 10751 10750 ] final   65.00 input  -60.55 | X-H torsion
[ 11005 11000 10999 10996 ] final   31.90 input  -57.11 | X-H torsion

> <Gold.Protein.ActiveResidues>
 VAL166  LYS551  ARG553  GLY616  TRP617  ASP618  TYR619  PRO620  LYS621  CYS622 
 ASP623  PHE694  ASN695  SER759  ASP760  ASP761  ALA762  ILE779  LEU786  VAL792 
 PHE793  MET794  SER795  GLU796  ALA797  LYS798  CYS799  TRP800  GLU811  SER814 

> <Gold.Protein.RotatedAtoms>
  151.0319  134.9545  159.8115 H   0  0  0  0  0  0  0  0  0  0  0  0  # atno 6907 bound_to 6896
  152.5347  134.2769  159.9003 H   0  0  0  0  0  0  0  0  0  0  0  0  # atno 6908 bound_to 6896
  151.2779  133.4181  159.2659 H   0  0  0  0  0  0  0  0  0  0  0  0  # atno 6909 bound_to 6896
  144.9605  140.7441  143.4732 H   0  0  0  0  0  0  0  0  0  0  0  0  # atno 7974 bound_to 7965
  154.5219  140.2226  155.8960 H   0  0  0  0  0  0  0  0  0  0  0  0  # atno 8008 bound_to 7997
  156.1671  140.3130  155.8873 H   0  0  0  0  0  0  0  0  0  0  0  0  # atno 8009 bound_to 7997
  155.3634  140.0462  157.3037 H   0  0  0  0  0  0  0  0  0  0  0  0  # atno 8010 bound_to 7997
  139.4859  144.4451  151.8902 H   0  0  0  0  0  0  0  0  0  0  0  0  # atno 10167 bound_to 10162
  157.0050  130.6094  149.5701 H   0  0  0  0  0  0  0  0  0  0  0  0  # atno 10718 bound_to 10713
  153.0078  135.5372  154.6598 H   0  0  0  0  0  0  0  0  0  0  0  0  # atno 10763 bound_to 10752
  154.5810  135.2850  155.0735 H   0  0  0  0  0  0  0  0  0  0  0  0  # atno 10764 bound_to 10752
  154.1864  135.6507  153.5100 H   0  0  0  0  0  0  0  0  0  0  0  0  # atno 10765 bound_to 10752
  140.2791  134.2994  155.7805 H   0  0  0  0  0  0  0  0  0  0  0  0  # atno 11005 bound_to 11000
  145.2708  139.1955  143.4843 LP  0  0  0  0  0  0  0  0  0  0  0  0  # atno 17320 bound_to 7965
  146.3351  140.2653  142.8603 LP  0  0  0  0  0  0  0  0  0  0  0  0  # atno 17321 bound_to 7965
  140.3905  144.2622  150.5900 LP  0  0  0  0  0  0  0  0  0  0  0  0  # atno 17342 bound_to 10162
  140.5151  143.2280  151.8476 LP  0  0  0  0  0  0  0  0  0  0  0  0  # atno 17343 bound_to 10162
  156.0157  130.5251  150.8126 LP  0  0  0  0  0  0  0  0  0  0  0  0  # atno 17370 bound_to 10713
  157.5362  131.0939  150.9889 LP  0  0  0  0  0  0  0  0  0  0  0  0  # atno 17371 bound_to 10713
  141.2165  133.7514  156.9453 LP  0  0  0  0  0  0  0  0  0  0  0  0  # atno 17394 bound_to 11000
  140.1300  134.9362  157.2324 LP  0  0  0  0  0  0  0  0  0  0  0  0  # atno 17395 bound_to 11000

$$$$
