AV-unprocessed.smi:1384|AV-procd|sdf|5627|dock1
  -GOLD-   22720 5243D 1   1.00000     0.00000
 Structure written by MMmdl.
 41 42  0  0  0  0  0  0  0  0  1 V2000
  146.0852  143.5460  155.0054 C   0  0  0  0  0  0  0  0  0  0  0  0
  146.7304  142.1934  155.3396 C   0  0  2  0  0  0  0  0  0  0  0  0
  147.0217  142.0680  156.8473 C   0  0  0  0  0  0  0  0  0  0  0  0
  147.6738  140.7166  157.1908 C   0  0  0  0  0  0  0  0  0  0  0  0
  148.9518  140.4598  156.3697 C   0  0  2  0  0  0  0  0  0  0  0  0
  150.0222  141.3533  156.8098 N   0  0  0  0  0  0  0  0  0  0  0  0
  150.7709  141.1912  157.9112 C   0  0  0  0  0  0  0  0  0  0  0  0
  150.6380  140.2405  158.6833 O   0  0  0  0  0  0  0  0  0  0  0  0
  151.8396  142.2667  158.1552 C   0  0  0  0  0  0  0  0  0  0  0  0
  152.6337  142.0423  159.3757 N   0  0  0  0  0  0  0  0  0  0  0  0
  152.5559  143.0297  160.3739 C   0  0  0  0  0  0  0  0  0  0  0  0
  153.2377  142.9270  161.5227 C   0  0  0  0  0  0  0  0  0  0  0  0
  154.0672  141.7637  161.7217 C   0  0  0  0  0  0  0  0  0  0  0  0
  154.1676  140.8003  160.7767 C   0  0  0  0  0  0  0  0  0  0  0  0
  155.0375  139.5605  160.9736 C   0  0  0  0  0  0  0  0  0  0  0  0
  154.2936  138.4540  160.9438 F   0  0  0  0  0  0  0  0  0  0  0  0
  155.9522  139.4739  160.0072 F   0  0  0  0  0  0  0  0  0  0  0  0
  155.6800  139.5870  162.1423 F   0  0  0  0  0  0  0  0  0  0  0  0
  153.4148  140.9261  159.5117 C   0  0  0  0  0  0  0  0  0  0  0  0
  153.4789  140.0788  158.6192 O   0  0  0  0  0  0  0  0  0  0  0  0
  148.6703  140.6124  154.8596 C   0  0  0  0  0  0  0  0  0  0  0  0
  148.0158  141.9638  154.5218 C   0  0  0  0  0  0  0  0  0  0  0  0
  146.7486  144.3744  155.2562 H   0  0  0  0  0  0  0  0  0  0  0  0
  145.1559  143.6847  155.5583 H   0  0  0  0  0  0  0  0  0  0  0  0
  145.8498  143.6176  153.9431 H   0  0  0  0  0  0  0  0  0  0  0  0
  146.0168  141.4135  155.0691 H   0  0  0  0  0  0  0  0  0  0  0  0
  147.6745  142.8818  157.1655 H   0  0  0  0  0  0  0  0  0  0  0  0
  146.0972  142.1792  157.4148 H   0  0  0  0  0  0  0  0  0  0  0  0
  147.8938  140.6684  158.2580 H   0  0  0  0  0  0  0  0  0  0  0  0
  146.9576  139.9178  156.9939 H   0  0  0  0  0  0  0  0  0  0  0  0
  149.2705  139.4336  156.5623 H   0  0  0  0  0  0  0  0  0  0  0  0
  150.2051  142.1590  156.2293 H   0  0  0  0  0  0  0  0  0  0  0  0
  152.4892  142.3045  157.2793 H   0  0  0  0  0  0  0  0  0  0  0  0
  151.3592  143.2462  158.1929 H   0  0  0  0  0  0  0  0  0  0  0  0
  151.9187  143.8714  160.1428 H   0  0  0  0  0  0  0  0  0  0  0  0
  153.1710  143.6963  162.2777 H   0  0  0  0  0  0  0  0  0  0  0  0
  154.6128  141.6766  162.6493 H   0  0  0  0  0  0  0  0  0  0  0  0
  149.5880  140.4882  154.2837 H   0  0  0  0  0  0  0  0  0  0  0  0
  148.0064  139.8082  154.5400 H   0  0  0  0  0  0  0  0  0  0  0  0
  147.7894  141.9999  153.4555 H   0  0  0  0  0  0  0  0  0  0  0  0
  148.7244  142.7712  154.7111 H   0  0  0  0  0  0  0  0  0  0  0  0
  1  2  1  0  0  0  0
  1 23  1  0  0  0  0
  1 24  1  0  0  0  0
  1 25  1  0  0  0  0
  2 22  1  0  0  0  0
  2  3  1  0  0  0  0
  2 26  1  0  0  0  0
  3  4  1  0  0  0  0
  3 27  1  0  0  0  0
  3 28  1  0  0  0  0
  4  5  1  0  0  0  0
  4 29  1  0  0  0  0
  4 30  1  0  0  0  0
  5  6  1  0  0  0  0
  5 21  1  0  0  0  0
  5 31  1  0  0  0  0
  6  7  1  0  0  0  0
  6 32  1  0  0  0  0
  7  8  2  0  0  0  0
  7  9  1  0  0  0  0
  9 10  1  0  0  0  0
  9 33  1  0  0  0  0
  9 34  1  0  0  0  0
 10 19  1  0  0  0  0
 10 11  1  0  0  0  0
 11 12  2  0  0  0  0
 11 35  1  0  0  0  0
 12 13  1  0  0  0  0
 12 36  1  0  0  0  0
 13 14  2  0  0  0  0
 13 37  1  0  0  0  0
 14 15  1  0  0  0  0
 14 19  1  0  0  0  0
 15 16  1  0  0  0  0
 15 17  1  0  0  0  0
 15 18  1  0  0  0  0
 19 20  2  0  0  0  0
 21 22  1  0  0  0  0
 21 38  1  0  0  0  0
 21 39  1  0  0  0  0
 22 40  1  0  0  0  0
 22 41  1  0  0  0  0
M  END
> <s_m_source_file>
AV-unprocessed.smi

> <i_m_source_file_index>
1384

> <i_lp_mmshare_version>
43012

> <i_f3d_flags>
0

> <s_epik_input>
W0NIM11bQ0BASF0xW0NIMl1bQ0gyXVtDQEhdKFtDSDJdW0NIMl0xKVtOSF1DKD1PKVtDSDJdbjJbY0hdW2NIXVtjSF1jKEMoRikoRilGKWMyPU8=

> <s_epik_cmdline>
J2VwaWtfcHl0aG9uJywgJy1waCcsICc3LjAnLCAnLXRuJywgJzgnLCAnLW1hJywgJzIwMCcsICctbWV0YWxfYmluZGluZycsICctaW1hZScsICc8aW5maWxlLm1hZT4nLCAnLW9tYWUnLCAnPG91dGZpbGUubWFlPic=

> <r_lp_tautomer_probability>
1

> <r_epik_Ionization_Penalty>
2.11165e-08

> <r_epik_Ionization_Penalty_Charging>
2.06965e-09

> <r_epik_Ionization_Penalty_Neutral>
1.90469e-08

> <r_epik_State_Penalty>
-0

> <r_epik_Charging_Adjusted_Penalty>
2.06965e-09

> <i_epik_Tot_Q>
0

> <i_epik_Tot_abs_Q>
0

> <r_epik_Metal_State_Penalty>
-0

> <b_epik_Metal_Only>
0

> <s_lp_Force_Field>
OPLS_2005

> <r_lp_Energy>
18.4349

> <b_lp_Chiralities_Consistent>
1

> <s_lp_Variant>
AV-unprocessed.smi:1384-2

> <Gold.Version>
5.8.1

> <Gold.Id.Protein>
6NUR|6NUR_protein|mol2

> <Gold.PLP.Fitness>
48.4665

> <Gold.PLP.PLP>
-46.3106

> <Gold.PLP.part.hbond>
-1.0000

> <Gold.PLP.part.metal>
0.0000

> <Gold.PLP.part.buried>
-3.6749

> <Gold.PLP.part.nonpolar>
-40.0529

> <Gold.PLP.part.repulsive>
0.0438

> <Gold.PLP.ligand.clash>
0.3070

> <Gold.PLP.ligand.torsion>
0.2918

> <Gold.PLP.Chemscore.Hbond>
0.9048

> <Gold.PLP.Chemscore.CHOScore>
0.0000

> <Gold.PLP.Chemscore.Metal>
0.0000

> <Gold.Chemscore.Hbonds>
donor molecule, donor type, donor heavy atom, donor atom, acceptor molecule, acceptor atom, score
      P1  H  7997  8010       L1    20  1.00

> <Gold.PLP.Chemscore.Internal.Correction>
0.3321

> <Gold.Rescore>
     Score         DG    S(hbond)    S(metal)    S(lipo)     H(rot)  DE(clash)    DE(int)     intcor
     10.09     -15.53       0.91        0.00      93.33       1.52       0.05       5.39       ----

> <Gold.Chemscore.Fitness>
10.0879

> <Gold.Chemscore.DG>
-15.5269

> <Gold.Chemscore.ZeroCoef>
-5.4800

> <Gold.Chemscore.Hbond>
0.9070

> <Gold.Chemscore.Metal>
0.0000

> <Gold.Chemscore.Lipo>
93.3276

> <Gold.Chemscore.Internal_Hbond>
0.0000

> <Gold.Chemscore.DEClash>
0.0458

> <Gold.Chemscore.DEInternal>
5.3932

> <Gold.Chemscore.Rot>
1.5242

> <Gold.Chemscore.Internal.Correction>
   9.000000E+99

> <Gold.Chemscore.Hbonds>
donor molecule, donor type, donor heavy atom, donor atom, acceptor molecule, acceptor atom, score
      P1  H  7997  8010       L1    20  0.94

> <Gold.Chemscore.Hbond.Weighted>
-3.0295

> <Gold.Chemscore.Metal.Weighted>
-0.0000

> <Gold.Chemscore.Lipo.Weighted>
-10.9193

> <Gold.Chemscore.Internal_Hbond.Weighted>
0.0000

> <Gold.Chemscore.DEClash.Weighted>
0.0458

> <Gold.Chemscore.DEInternal.Weighted>
5.3932

> <Gold.Chemscore.Rot.Weighted>
3.9019

> <Gold.Chemscore.Internal.Correction.Weighted>
   9.000000E+99

> <Gold.Protein.RotatedTorsions>
[ 6907 6896 6895 6894 ] final   38.69 input  -60.11 | X-H torsion
[ 7974 7965 7964 7962 ] final   82.41 input  175.53 | X-H torsion
[ 8008 7997 7996 7995 ] final   22.64 input   59.86 | X-H torsion
[ 10167 10162 10161 10158 ] final -113.81 input  -65.29 | X-H torsion
[ 10718 10713 10712 10709 ] final  174.57 input   66.30 | X-H torsion
[ 10763 10752 10751 10750 ] final   -5.92 input  -60.55 | X-H torsion
[ 11005 11000 10999 10996 ] final   49.71 input  -57.11 | X-H torsion

> <Gold.Protein.ActiveResidues>
 VAL166  LYS551  ARG553  GLY616  TRP617  ASP618  TYR619  PRO620  LYS621  CYS622 
 ASP623  PHE694  ASN695  SER759  ASP760  ASP761  ALA762  ILE779  LEU786  VAL792 
 PHE793  MET794  SER795  GLU796  ALA797  LYS798  CYS799  TRP800  GLU811  SER814 

> <Gold.Protein.RotatedAtoms>
  152.1598  134.8921  160.0542 H   0  0  0  0  0  0  0  0  0  0  0  0  # atno 6907 bound_to 6896
  151.9921  133.3790  159.4157 H   0  0  0  0  0  0  0  0  0  0  0  0  # atno 6908 bound_to 6896
  150.6886  134.3847  159.5093 H   0  0  0  0  0  0  0  0  0  0  0  0  # atno 6909 bound_to 6896
  145.6254  139.2394  143.2115 H   0  0  0  0  0  0  0  0  0  0  0  0  # atno 7974 bound_to 7965
  154.9688  140.3087  155.4997 H   0  0  0  0  0  0  0  0  0  0  0  0  # atno 8008 bound_to 7997
  156.2968  140.2288  156.4717 H   0  0  0  0  0  0  0  0  0  0  0  0  # atno 8009 bound_to 7997
  154.7896  140.0440  157.1179 H   0  0  0  0  0  0  0  0  0  0  0  0  # atno 8010 bound_to 7997
  140.1077  143.4555  152.1772 H   0  0  0  0  0  0  0  0  0  0  0  0  # atno 10167 bound_to 10162
  156.9477  131.0021  151.2955 H   0  0  0  0  0  0  0  0  0  0  0  0  # atno 10718 bound_to 10713
  153.4051  135.7006  153.6398 H   0  0  0  0  0  0  0  0  0  0  0  0  # atno 10763 bound_to 10752
  153.4915  135.3671  155.2494 H   0  0  0  0  0  0  0  0  0  0  0  0  # atno 10764 bound_to 10752
  154.8713  135.4090  154.3393 H   0  0  0  0  0  0  0  0  0  0  0  0  # atno 10765 bound_to 10752
  140.1080  134.4993  155.8703 H   0  0  0  0  0  0  0  0  0  0  0  0  # atno 11005 bound_to 11000
  146.1399  140.7072  142.9372 LP  0  0  0  0  0  0  0  0  0  0  0  0  # atno 17320 bound_to 7965
  144.7214  140.4387  143.7005 LP  0  0  0  0  0  0  0  0  0  0  0  0  # atno 17321 bound_to 7965
  139.5636  144.7421  151.4085 LP  0  0  0  0  0  0  0  0  0  0  0  0  # atno 17342 bound_to 10162
  140.6943  143.7787  150.7302 LP  0  0  0  0  0  0  0  0  0  0  0  0  # atno 17343 bound_to 10162
  157.5743  130.8332  149.8434 LP  0  0  0  0  0  0  0  0  0  0  0  0  # atno 17370 bound_to 10713
  156.0376  130.3747  150.1518 LP  0  0  0  0  0  0  0  0  0  0  0  0  # atno 17371 bound_to 10713
  141.2123  133.6718  156.6649 LP  0  0  0  0  0  0  0  0  0  0  0  0  # atno 17394 bound_to 11000
  140.3130  134.8071  157.4191 LP  0  0  0  0  0  0  0  0  0  0  0  0  # atno 17395 bound_to 11000

$$$$
