AV-unprocessed.smi:1106|AV-procd|sdf|4778|dock9
  -GOLD-   22720 3323D 1   1.00000     0.00000
 Structure written by MMmdl.
 48 49  0  0  0  0  0  0  0  0  2 V2000
  151.1719  142.1913  157.8591 C   0  0  0  0  0  0  0  0  0  0  0  0
  150.5400  141.9888  156.4740 C   0  0  0  0  0  0  0  0  0  0  0  0
  150.7540  140.6661  155.9475 N   0  0  0  0  0  0  0  0  0  0  0  0
  152.0237  140.1756  155.7121 C   0  0  0  0  0  0  0  0  0  0  0  0
  152.2516  138.9406  155.2153 C   0  0  0  0  0  0  0  0  0  0  0  0
  153.5726  138.4551  154.9893 C   0  0  0  0  0  0  0  0  0  0  0  0
  154.6531  138.0836  154.8060 N   0  0  0  0  0  0  0  0  0  0  0  0
  151.1466  138.0417  154.8893 C   0  0  0  0  0  0  0  0  0  0  0  0
  151.2997  136.8956  154.4612 O   0  0  0  0  0  0  0  0  0  0  0  0
  149.8577  138.5858  155.1206 N   0  0  0  0  0  0  0  0  0  0  0  0
  148.7088  137.7426  154.8313 C   0  0  0  0  0  0  0  0  0  0  0  0
  147.6237  138.4587  153.9976 C   0  0  1  0  0  0  0  0  0  0  0  0
  148.0855  138.5772  152.6662 O   0  0  0  0  0  0  0  0  0  0  0  0
  146.3168  137.6427  153.9515 C   0  0  0  0  0  0  0  0  0  0  0  0
  146.3935  136.5210  152.9815 N   0  3  2  0  0  0  0  0  0  0  0  0
  145.4179  136.6449  151.8666 C   0  0  0  0  0  0  0  0  0  0  0  0
  145.6368  135.5447  150.8150 C   0  0  0  0  0  0  0  0  0  0  0  0
  145.5585  134.1441  151.4465 C   0  0  1  0  0  0  0  0  0  0  0  0
  145.8082  133.0394  150.4102 C   0  0  0  0  0  0  0  0  0  0  0  0
  146.5486  134.0607  152.6208 C   0  0  0  0  0  0  0  0  0  0  0  0
  146.3082  135.1909  153.6359 C   0  0  0  0  0  0  0  0  0  0  0  0
  149.6187  139.8743  155.6557 C   0  0  0  0  0  0  0  0  0  0  0  0
  148.4758  140.2889  155.8670 O   0  0  0  0  0  0  0  0  0  0  0  0
  150.9543  143.1896  158.2382 H   0  0  0  0  0  0  0  0  0  0  0  0
  152.2559  142.0805  157.8275 H   0  0  0  0  0  0  0  0  0  0  0  0
  150.7821  141.4705  158.5783 H   0  0  0  0  0  0  0  0  0  0  0  0
  149.4583  142.1210  156.5223 H   0  0  0  0  0  0  0  0  0  0  0  0
  150.9088  142.7023  155.7348 H   0  0  0  0  0  0  0  0  0  0  0  0
  152.8726  140.8057  155.9376 H   0  0  0  0  0  0  0  0  0  0  0  0
  149.0520  136.8152  154.3692 H   0  0  0  0  0  0  0  0  0  0  0  0
  148.3165  137.4243  155.7988 H   0  0  0  0  0  0  0  0  0  0  0  0
  147.4353  139.4529  154.4018 H   0  0  0  0  0  0  0  0  0  0  0  0
  148.6037  137.8144  152.4565 H   0  0  0  0  0  0  0  0  0  0  0  0
  146.1083  137.2633  154.9534 H   0  0  0  0  0  0  0  0  0  0  0  0
  145.4716  138.2817  153.6907 H   0  0  0  0  0  0  0  0  0  0  0  0
  144.4027  136.5862  152.2620 H   0  0  0  0  0  0  0  0  0  0  0  0
  145.5113  137.6188  151.3872 H   0  0  0  0  0  0  0  0  0  0  0  0
  144.8910  135.6402  150.0252 H   0  0  0  0  0  0  0  0  0  0  0  0
  146.6091  135.6847  150.3400 H   0  0  0  0  0  0  0  0  0  0  0  0
  144.5513  134.0050  151.8421 H   0  0  0  0  0  0  0  0  0  0  0  0
  146.8022  133.1242  149.9702 H   0  0  0  0  0  0  0  0  0  0  0  0
  145.0804  133.0904  149.5999 H   0  0  0  0  0  0  0  0  0  0  0  0
  145.7276  132.0503  150.8623 H   0  0  0  0  0  0  0  0  0  0  0  0
  146.4581  133.0952  153.1199 H   0  0  0  0  0  0  0  0  0  0  0  0
  147.5720  134.1197  152.2474 H   0  0  0  0  0  0  0  0  0  0  0  0
  147.0543  135.1208  154.4285 H   0  0  0  0  0  0  0  0  0  0  0  0
  145.3307  135.0765  154.1073 H   0  0  0  0  0  0  0  0  0  0  0  0
  147.3173  136.5705  152.5751 H   0  0  0  0  0  0  0  0  0  0  0  0
  1  2  1  0  0  0  0
  1 24  1  0  0  0  0
  1 25  1  0  0  0  0
  1 26  1  0  0  0  0
  2  3  1  0  0  0  0
  2 27  1  0  0  0  0
  2 28  1  0  0  0  0
  3 22  1  0  0  0  0
  3  4  1  0  0  0  0
  4  5  2  0  0  0  0
  4 29  1  0  0  0  0
  5  6  1  0  0  0  0
  5  8  1  0  0  0  0
  6  7  3  0  0  0  0
  8  9  2  0  0  0  0
  8 10  1  0  0  0  0
 10 11  1  0  0  0  0
 10 22  1  0  0  0  0
 11 12  1  0  0  0  0
 11 30  1  0  0  0  0
 11 31  1  0  0  0  0
 12 13  1  0  0  0  0
 12 14  1  0  0  0  0
 12 32  1  0  0  0  0
 13 33  1  0  0  0  0
 14 15  1  0  0  0  0
 14 34  1  0  0  0  0
 14 35  1  0  0  0  0
 15 21  1  0  0  0  0
 15 16  1  0  0  0  0
 15 48  1  0  0  0  0
 16 17  1  0  0  0  0
 16 36  1  0  0  0  0
 16 37  1  0  0  0  0
 17 18  1  0  0  0  0
 17 38  1  0  0  0  0
 17 39  1  0  0  0  0
 18 19  1  0  0  0  0
 18 20  1  0  0  0  0
 18 40  1  0  0  0  0
 19 41  1  0  0  0  0
 19 42  1  0  0  0  0
 19 43  1  0  0  0  0
 20 21  1  0  0  0  0
 20 44  1  0  0  0  0
 20 45  1  0  0  0  0
 21 46  1  0  0  0  0
 21 47  1  0  0  0  0
 22 23  2  0  0  0  0
M  CHG  1  15   1
M  END
> <s_m_source_file>
AV-unprocessed.smi

> <i_m_source_file_index>
1106

> <i_lp_mmshare_version>
43012

> <i_f3d_flags>
0

> <s_epik_input>
W0NIM11bQ0gyXW4xW2NIXWMoQyNOKWMoPU8pbihjMT1PKVtDSDJdW0NASF0oW09IXSlbQ0gyXU4yW0NIMl1bQ0gyXVtDSF0oW0NIM10pW0NIMl1bQ0gyXTI=

> <s_epik_cmdline>
J2VwaWtfcHl0aG9uJywgJy1waCcsICc3LjAnLCAnLXRuJywgJzgnLCAnLW1hJywgJzIwMCcsICctbWV0YWxfYmluZGluZycsICctaW1hZScsICc8aW5maWxlLm1hZT4nLCAnLW9tYWUnLCAnPG91dGZpbGUubWFlPic=

> <r_epik_Ionization_Penalty>
0.00136816

> <r_epik_Ionization_Penalty_Charging>
0.00136813

> <r_epik_Ionization_Penalty_Neutral>
3.19882e-08

> <r_epik_State_Penalty>
0.000910892

> <r_epik_Charging_Adjusted_Penalty>
0.00227902

> <i_epik_Tot_Q>
1

> <i_epik_Tot_abs_Q>
1

> <r_epik_Metal_State_Penalty>
-0

> <b_epik_Metal_Only>
0

> <s_lp_Force_Field>
OPLS_2005

> <r_lp_Energy>
28.6797

> <b_lp_Chiralities_Consistent>
1

> <s_lp_Variant>
AV-unprocessed.smi:1106-2

> <Gold.Version>
5.8.1

> <Gold.Id.Protein>
6NUR|6NUR_protein|mol2

> <Gold.PLP.Fitness>
49.4794

> <Gold.PLP.PLP>
-39.6092

> <Gold.PLP.part.hbond>
-5.9889

> <Gold.PLP.part.metal>
0.0000

> <Gold.PLP.part.buried>
-3.1231

> <Gold.PLP.part.nonpolar>
-32.8860

> <Gold.PLP.part.repulsive>
1.0196

> <Gold.PLP.ligand.clash>
0.0000

> <Gold.PLP.ligand.torsion>
1.1082

> <Gold.PLP.Chemscore.Hbond>
4.0039

> <Gold.PLP.Chemscore.CHOScore>
0.0000

> <Gold.PLP.Chemscore.Metal>
0.0000

> <Gold.Chemscore.Hbonds>
donor molecule, donor type, donor heavy atom, donor atom, acceptor molecule, acceptor atom, score
      L1  H    13    33       P1  7948  1.00
      L1  H    15    48       P1  7948  2.00
      P1  H  7997  8009       L1     7  0.01
      P1  H 10752 10764       L1     9  0.91

> <Gold.PLP.Chemscore.Internal.Correction>
0.0750

> <Gold.Rescore>
     Score         DG    S(hbond)    S(metal)    S(lipo)     H(rot)  DE(clash)    DE(int)     intcor
     14.44     -17.68       2.99        0.00      73.33       2.48       0.49       2.74       ----

> <Gold.Chemscore.Fitness>
14.4413

> <Gold.Chemscore.DG>
-17.6765

> <Gold.Chemscore.ZeroCoef>
-5.4800

> <Gold.Chemscore.Hbond>
2.9867

> <Gold.Chemscore.Metal>
0.0000

> <Gold.Chemscore.Lipo>
73.3288

> <Gold.Chemscore.Internal_Hbond>
0.0000

> <Gold.Chemscore.DEClash>
0.4903

> <Gold.Chemscore.DEInternal>
2.7449

> <Gold.Chemscore.Rot>
2.4838

> <Gold.Chemscore.Internal.Correction>
   9.000000E+99

> <Gold.Chemscore.Hbonds>
donor molecule, donor type, donor heavy atom, donor atom, acceptor molecule, acceptor atom, score
      L1  H    13    33       P1  7948  0.99
      L1  H    15    48       P1  7948  1.00
      P1  H 10752 10764       L1     9  0.89

> <Gold.Chemscore.Hbond.Weighted>
-9.9755

> <Gold.Chemscore.Metal.Weighted>
-0.0000

> <Gold.Chemscore.Lipo.Weighted>
-8.5795

> <Gold.Chemscore.Internal_Hbond.Weighted>
0.0000

> <Gold.Chemscore.DEClash.Weighted>
0.4903

> <Gold.Chemscore.DEInternal.Weighted>
2.7449

> <Gold.Chemscore.Rot.Weighted>
6.3585

> <Gold.Chemscore.Internal.Correction.Weighted>
   9.000000E+99

> <Gold.Protein.RotatedTorsions>
[ 6907 6896 6895 6894 ] final -152.29 input  -60.11 | X-H torsion
[ 7974 7965 7964 7962 ] final   64.02 input  175.53 | X-H torsion
[ 8008 7997 7996 7995 ] final  -75.32 input   59.86 | X-H torsion
[ 10167 10162 10161 10158 ] final  -26.36 input  -65.29 | X-H torsion
[ 10718 10713 10712 10709 ] final  -51.72 input   66.30 | X-H torsion
[ 10763 10752 10751 10750 ] final  -80.49 input  -60.55 | X-H torsion
[ 11005 11000 10999 10996 ] final   54.64 input  -57.11 | X-H torsion

> <Gold.Protein.ActiveResidues>
 VAL166  LYS551  ARG553  GLY616  TRP617  ASP618  TYR619  PRO620  LYS621  CYS622 
 ASP623  PHE694  ASN695  SER759  ASP760  ASP761  ALA762  ILE779  LEU786  VAL792 
 PHE793  MET794  SER795  GLU796  ALA797  LYS798  CYS799  TRP800  GLU811  SER814 

> <Gold.Protein.RotatedAtoms>
  151.2256  133.4478  159.2601 H   0  0  0  0  0  0  0  0  0  0  0  0  # atno 6907 bound_to 6896
  151.0843  134.9877  159.8381 H   0  0  0  0  0  0  0  0  0  0  0  0  # atno 6908 bound_to 6896
  152.5428  134.2194  159.8834 H   0  0  0  0  0  0  0  0  0  0  0  0  # atno 6909 bound_to 6896
  145.8551  139.3278  143.0852 H   0  0  0  0  0  0  0  0  0  0  0  0  # atno 7974 bound_to 7965
  154.5407  140.0746  156.8504 H   0  0  0  0  0  0  0  0  0  0  0  0  # atno 8008 bound_to 7997
  155.3187  140.3395  155.4223 H   0  0  0  0  0  0  0  0  0  0  0  0  # atno 8009 bound_to 7997
  156.1871  140.1673  156.8150 H   0  0  0  0  0  0  0  0  0  0  0  0  # atno 8010 bound_to 7997
  140.7283  143.4185  151.0990 H   0  0  0  0  0  0  0  0  0  0  0  0  # atno 10167 bound_to 10162
  156.1685  130.4149  149.9684 H   0  0  0  0  0  0  0  0  0  0  0  0  # atno 10718 bound_to 10713
  154.5518  135.5659  153.6929 H   0  0  0  0  0  0  0  0  0  0  0  0  # atno 10763 bound_to 10752
  152.9992  135.6253  154.2363 H   0  0  0  0  0  0  0  0  0  0  0  0  # atno 10764 bound_to 10752
  154.2298  135.2866  155.2874 H   0  0  0  0  0  0  0  0  0  0  0  0  # atno 10765 bound_to 10752
  140.0670  134.5523  155.9088 H   0  0  0  0  0  0  0  0  0  0  0  0  # atno 11005 bound_to 11000
  145.9313  140.9046  143.0355 LP  0  0  0  0  0  0  0  0  0  0  0  0  # atno 17320 bound_to 7965
  144.6728  140.1422  143.7436 LP  0  0  0  0  0  0  0  0  0  0  0  0  # atno 17321 bound_to 7965
  139.7827  143.8332  152.3140 LP  0  0  0  0  0  0  0  0  0  0  0  0  # atno 17342 bound_to 10162
  139.8288  144.7263  150.9477 LP  0  0  0  0  0  0  0  0  0  0  0  0  # atno 17343 bound_to 10162
  156.7491  130.9108  151.3636 LP  0  0  0  0  0  0  0  0  0  0  0  0  # atno 17370 bound_to 10713
  157.6785  130.9117  150.0209 LP  0  0  0  0  0  0  0  0  0  0  0  0  # atno 17371 bound_to 10713
  141.1997  133.6608  156.5856 LP  0  0  0  0  0  0  0  0  0  0  0  0  # atno 17394 bound_to 11000
  140.3684  134.7627  157.4582 LP  0  0  0  0  0  0  0  0  0  0  0  0  # atno 17395 bound_to 11000

$$$$
