AV-unprocessed.smi:1030|AV-procd|sdf|4478|dock5
  -GOLD-   22720 2453D 1   1.00000     0.00000
 Structure written by MMmdl.
 29 30  0  0  0  0  0  0  0  0  1 V2000
  153.4104  138.3194  160.2633 N   0  0  0  0  0  0  0  0  0  0  0  0
  152.7329  138.7839  158.7505 S   0  0  0  0  0  0  0  0  0  0  0  0
  153.7478  138.5085  157.7218 O   0  0  0  0  0  0  0  0  0  0  0  0
  151.3935  138.1828  158.6546 O   0  0  0  0  0  0  0  0  0  0  0  0
  152.5681  140.5668  158.9245 C   0  0  0  0  0  0  0  0  0  0  0  0
  153.1886  141.2107  160.0154 C   0  0  0  0  0  0  0  0  0  0  0  0
  153.0532  142.6057  160.1447 C   0  0  0  0  0  0  0  0  0  0  0  0
  152.3011  143.2979  159.1766 C   0  0  0  0  0  0  0  0  0  0  0  0
  151.7026  142.6908  158.1300 N   0  0  0  0  0  0  0  0  0  0  0  0
  151.8293  141.3474  157.9989 C   0  0  0  0  0  0  0  0  0  0  0  0
  151.1991  140.7470  156.8986 N   0  0  0  0  0  0  0  0  0  0  0  0
  152.0939  139.9570  156.0636 C   0  0  0  0  0  0  0  0  0  0  0  0
  151.2801  139.2020  154.9987 C   0  0  0  0  0  0  0  0  0  0  0  0
  150.5033  140.1289  154.2442 O   0  0  0  0  0  0  0  0  0  0  0  0
  149.5831  140.8487  155.0607 C   0  0  0  0  0  0  0  0  0  0  0  0
  150.3539  141.6472  156.1257 C   0  0  0  0  0  0  0  0  0  0  0  0
  153.8830  139.1030  160.7129 H   0  0  0  0  0  0  0  0  0  0  0  0
  154.0382  137.5230  160.1564 H   0  0  0  0  0  0  0  0  0  0  0  0
  153.7602  140.6557  160.7439 H   0  0  0  0  0  0  0  0  0  0  0  0
  153.5153  143.1325  160.9663 H   0  0  0  0  0  0  0  0  0  0  0  0
  152.1768  144.3686  159.2443 H   0  0  0  0  0  0  0  0  0  0  0  0
  152.8213  140.6111  155.5808 H   0  0  0  0  0  0  0  0  0  0  0  0
  152.6516  139.2513  156.6805 H   0  0  0  0  0  0  0  0  0  0  0  0
  151.9477  138.6651  154.3249 H   0  0  0  0  0  0  0  0  0  0  0  0
  150.6291  138.4593  155.4629 H   0  0  0  0  0  0  0  0  0  0  0  0
  149.0010  141.5229  154.4326 H   0  0  0  0  0  0  0  0  0  0  0  0
  148.8786  140.1583  155.5277 H   0  0  0  0  0  0  0  0  0  0  0  0
  149.6565  142.1607  156.7885 H   0  0  0  0  0  0  0  0  0  0  0  0
  150.9677  142.4106  155.6457 H   0  0  0  0  0  0  0  0  0  0  0  0
  1  2  1  0  0  0  0
  1 17  1  0  0  0  0
  1 18  1  0  0  0  0
  2  3  2  0  0  0  0
  2  4  2  0  0  0  0
  2  5  1  0  0  0  0
  5 10  1  0  0  0  0
  5  6  2  0  0  0  0
  6  7  1  0  0  0  0
  6 19  1  0  0  0  0
  7  8  2  0  0  0  0
  7 20  1  0  0  0  0
  8  9  1  0  0  0  0
  8 21  1  0  0  0  0
  9 10  2  0  0  0  0
 10 11  1  0  0  0  0
 11 16  1  0  0  0  0
 11 12  1  0  0  0  0
 12 13  1  0  0  0  0
 12 22  1  0  0  0  0
 12 23  1  0  0  0  0
 13 14  1  0  0  0  0
 13 24  1  0  0  0  0
 13 25  1  0  0  0  0
 14 15  1  0  0  0  0
 15 16  1  0  0  0  0
 15 26  1  0  0  0  0
 15 27  1  0  0  0  0
 16 28  1  0  0  0  0
 16 29  1  0  0  0  0
M  END
> <s_m_source_file>
AV-unprocessed.smi

> <i_m_source_file_index>
1030

> <i_lp_mmshare_version>
43012

> <i_f3d_flags>
0

> <s_epik_input>
W05IMl1TKD1PKSg9TyljMVtjSF1bY0hdW2NIXW5jMU4yW0NIMl1bQ0gyXU9bQ0gyXVtDSDJdMg==

> <s_epik_cmdline>
J2VwaWtfcHl0aG9uJywgJy1waCcsICc3LjAnLCAnLXRuJywgJzgnLCAnLW1hJywgJzIwMCcsICctbWV0YWxfYmluZGluZycsICctaW1hZScsICc8aW5maWxlLm1hZT4nLCAnLW9tYWUnLCAnPG91dGZpbGUubWFlPic=

> <r_lp_tautomer_probability>
1

> <r_epik_Ionization_Penalty>
0.00223263

> <r_epik_Ionization_Penalty_Charging>
0

> <r_epik_Ionization_Penalty_Neutral>
0.00223263

> <r_epik_State_Penalty>
-0

> <r_epik_Charging_Adjusted_Penalty>
0

> <i_epik_Tot_Q>
0

> <i_epik_Tot_abs_Q>
0

> <r_epik_Metal_State_Penalty>
0.346078

> <b_epik_Metal_Only>
0

> <s_lp_Force_Field>
OPLS_2005

> <r_lp_Energy>
28.1978

> <b_lp_Chiralities_Consistent>
1

> <s_lp_Variant>
AV-unprocessed.smi:1030-1

> <Gold.Version>
5.8.1

> <Gold.Id.Protein>
6NUR|6NUR_protein|mol2

> <Gold.PLP.Fitness>
36.2352

> <Gold.PLP.PLP>
-30.7495

> <Gold.PLP.part.hbond>
-1.8835

> <Gold.PLP.part.metal>
0.0000

> <Gold.PLP.part.buried>
-4.3408

> <Gold.PLP.part.nonpolar>
-25.2809

> <Gold.PLP.part.repulsive>
0.1737

> <Gold.PLP.ligand.clash>
0.0000

> <Gold.PLP.ligand.torsion>
1.3162

> <Gold.PLP.Chemscore.Hbond>
2.0000

> <Gold.PLP.Chemscore.CHOScore>
0.0000

> <Gold.PLP.Chemscore.Metal>
0.0000

> <Gold.Chemscore.Hbonds>
donor molecule, donor type, donor heavy atom, donor atom, acceptor molecule, acceptor atom, score
      P1  H  7989  7998       L1    14  1.00
      P1  H  7997  8010       L1     3  1.00

> <Gold.PLP.Chemscore.Internal.Correction>
2.1183

> <Gold.Rescore>
     Score         DG    S(hbond)    S(metal)    S(lipo)     H(rot)  DE(clash)    DE(int)     intcor
     12.93     -17.05       1.81        0.00      69.04       1.00       0.13       3.99       ----

> <Gold.Chemscore.Fitness>
12.9331

> <Gold.Chemscore.DG>
-17.0521

> <Gold.Chemscore.ZeroCoef>
-5.4800

> <Gold.Chemscore.Hbond>
1.8127

> <Gold.Chemscore.Metal>
0.0000

> <Gold.Chemscore.Lipo>
69.0392

> <Gold.Chemscore.Internal_Hbond>
0.0000

> <Gold.Chemscore.DEClash>
0.1334

> <Gold.Chemscore.DEInternal>
3.9856

> <Gold.Chemscore.Rot>
1.0000

> <Gold.Chemscore.Internal.Correction>
   9.000000E+99

> <Gold.Chemscore.Hbonds>
donor molecule, donor type, donor heavy atom, donor atom, acceptor molecule, acceptor atom, score
      P1  H  7989  7998       L1    14  0.27
      P1  H  7997  8010       L1     3  0.90

> <Gold.Chemscore.Hbond.Weighted>
-6.0545

> <Gold.Chemscore.Metal.Weighted>
-0.0000

> <Gold.Chemscore.Lipo.Weighted>
-8.0776

> <Gold.Chemscore.Internal_Hbond.Weighted>
0.0000

> <Gold.Chemscore.DEClash.Weighted>
0.1334

> <Gold.Chemscore.DEInternal.Weighted>
3.9856

> <Gold.Chemscore.Rot.Weighted>
2.5600

> <Gold.Chemscore.Internal.Correction.Weighted>
   9.000000E+99

> <Gold.Protein.RotatedTorsions>
[ 6907 6896 6895 6894 ] final   79.79 input  -60.11 | X-H torsion
[ 7974 7965 7964 7962 ] final  -67.80 input  175.53 | X-H torsion
[ 8008 7997 7996 7995 ] final   39.15 input   59.86 | X-H torsion
[ 10167 10162 10161 10158 ] final  -40.30 input  -65.29 | X-H torsion
[ 10718 10713 10712 10709 ] final -147.04 input   66.30 | X-H torsion
[ 10763 10752 10751 10750 ] final  -90.90 input  -60.55 | X-H torsion
[ 11005 11000 10999 10996 ] final  -44.70 input  -57.11 | X-H torsion

> <Gold.Protein.ActiveResidues>
 VAL166  LYS551  ARG553  GLY616  TRP617  ASP618  TYR619  PRO620  LYS621  CYS622 
 ASP623  PHE694  ASN695  SER759  ASP760  ASP761  ALA762  ILE779  LEU786  VAL792 
 PHE793  MET794  SER795  GLU796  ALA797  LYS798  CYS799  TRP800  GLU811  SER814 

> <Gold.Protein.RotatedAtoms>
  152.5211  134.3457  159.9232 H   0  0  0  0  0  0  0  0  0  0  0  0  # atno 6907 bound_to 6896
  151.3407  133.3957  159.2678 H   0  0  0  0  0  0  0  0  0  0  0  0  # atno 6908 bound_to 6896
  150.9805  134.9179  159.7899 H   0  0  0  0  0  0  0  0  0  0  0  0  # atno 6909 bound_to 6896
  145.7246  140.9024  143.0612 H   0  0  0  0  0  0  0  0  0  0  0  0  # atno 7974 bound_to 7965
  155.2318  140.3339  155.4302 H   0  0  0  0  0  0  0  0  0  0  0  0  # atno 8008 bound_to 7997
  156.2292  140.1843  156.7333 H   0  0  0  0  0  0  0  0  0  0  0  0  # atno 8009 bound_to 7997
  154.5949  140.0632  156.9274 H   0  0  0  0  0  0  0  0  0  0  0  0  # atno 8010 bound_to 7997
  140.7038  143.3162  151.2904 H   0  0  0  0  0  0  0  0  0  0  0  0  # atno 10167 bound_to 10162
  156.4026  130.7941  151.2153 H   0  0  0  0  0  0  0  0  0  0  0  0  # atno 10718 bound_to 10713
  154.6705  135.5287  153.8133 H   0  0  0  0  0  0  0  0  0  0  0  0  # atno 10763 bound_to 10752
  153.0499  135.6528  154.0731 H   0  0  0  0  0  0  0  0  0  0  0  0  # atno 10764 bound_to 10752
  154.0630  135.2960  155.3301 H   0  0  0  0  0  0  0  0  0  0  0  0  # atno 10765 bound_to 10752
  141.0467  133.6758  156.2909 H   0  0  0  0  0  0  0  0  0  0  0  0  # atno 11005 bound_to 11000
  144.6908  139.9248  143.7469 LP  0  0  0  0  0  0  0  0  0  0  0  0  # atno 17320 bound_to 7965
  146.0594  139.3589  143.0590 LP  0  0  0  0  0  0  0  0  0  0  0  0  # atno 17321 bound_to 7965
  139.6601  144.0204  152.2686 LP  0  0  0  0  0  0  0  0  0  0  0  0  # atno 17342 bound_to 10162
  139.9769  144.6455  150.7937 LP  0  0  0  0  0  0  0  0  0  0  0  0  # atno 17343 bound_to 10162
  157.7504  131.0282  150.4039 LP  0  0  0  0  0  0  0  0  0  0  0  0  # atno 17370 bound_to 10713
  156.4322  130.3974  149.6753 LP  0  0  0  0  0  0  0  0  0  0  0  0  # atno 17371 bound_to 10713
  140.6132  134.5437  157.5537 LP  0  0  0  0  0  0  0  0  0  0  0  0  # atno 17394 bound_to 11000
  139.9318  134.7950  156.0911 LP  0  0  0  0  0  0  0  0  0  0  0  0  # atno 17395 bound_to 11000

$$$$
