AV-unprocessed.smi:213|AV-procd|sdf|1640|dock1
  -GOLD-   2262020 03D 1   1.00000     0.00000
 Structure written by MMmdl.
 59 62  0  0  0  0  0  0  0  0  2 V2000
  151.6090  139.6202  155.6481 C   0  0  0  0  0  0  0  0  0  0  0  0
  150.3904  140.5254  155.9093 C   0  0  1  0  0  0  0  0  0  0  0  0
  150.7959  142.0012  156.1335 C   0  0  0  0  0  0  0  0  0  0  0  0
  151.1772  142.2840  157.5396 N   0  3  0  0  0  0  0  0  0  0  0  0
  152.2111  141.3491  158.0441 C   0  0  0  0  0  0  0  0  0  0  0  0
  152.5414  141.6522  159.5153 C   0  0  0  0  0  0  0  0  0  0  0  0
  152.9638  143.0042  159.6407 O   0  0  0  0  0  0  0  0  0  0  0  0
  151.9482  143.9173  159.2443 C   0  0  0  0  0  0  0  0  0  0  0  0
  151.5982  143.6899  157.7641 C   0  0  0  0  0  0  0  0  0  0  0  0
  149.3980  140.4011  154.8323 N   0  0  0  0  0  0  0  0  0  0  0  0
  148.7752  141.6006  154.2759 C   0  0  0  0  0  0  0  0  0  0  0  0
  148.7211  139.2281  154.6682 C   0  0  0  0  0  0  0  0  0  0  0  0
  149.0678  138.1463  155.4188 N   0  0  0  0  0  0  0  0  0  0  0  0
  148.4195  136.9860  155.2882 C   0  0  0  0  0  0  0  0  0  0  0  0
  147.4064  136.6850  154.4761 N   0  0  0  0  0  0  0  0  0  0  0  0
  147.0533  137.7573  153.7123 C   0  0  0  0  0  0  0  0  0  0  0  0
  147.6491  139.0517  153.7418 C   0  0  0  0  0  0  0  0  0  0  0  0
  147.0227  139.8718  152.8082 N   0  0  0  0  0  0  0  0  0  0  0  0
  146.1068  139.1129  152.2711 C   0  0  0  0  0  0  0  0  0  0  0  0
  146.0565  137.8273  152.7567 N   0  0  0  0  0  0  0  0  0  0  0  0
  145.1462  136.7741  152.3435 C   0  0  0  0  0  0  0  0  0  0  0  0
  145.8790  135.5936  151.6779 C   0  0  1  0  0  0  0  0  0  0  0  0
  146.7357  134.9529  152.6050 O   0  0  0  0  0  0  0  0  0  0  0  0
  144.9130  134.5773  151.0366 C   0  0  1  0  0  0  0  0  0  0  0  0
  145.5443  133.2947  150.4703 C   0  0  0  0  0  0  0  0  0  0  0  0
  144.6052  132.1888  150.9311 C   0  0  0  0  0  0  0  0  0  0  0  0
  143.3767  132.9390  151.4371 C   0  0  0  0  0  0  0  0  0  0  0  0
  143.9208  134.1408  151.9559 O   0  0  0  0  0  0  0  0  0  0  0  0
  152.2843  139.6141  156.5038 H   0  0  0  0  0  0  0  0  0  0  0  0
  152.1846  139.9449  154.7814 H   0  0  0  0  0  0  0  0  0  0  0  0
  151.2991  138.5889  155.4746 H   0  0  0  0  0  0  0  0  0  0  0  0
  149.9367  140.1364  156.8199 H   0  0  0  0  0  0  0  0  0  0  0  0
  151.6351  142.2366  155.4777 H   0  0  0  0  0  0  0  0  0  0  0  0
  149.9908  142.6780  155.8435 H   0  0  0  0  0  0  0  0  0  0  0  0
  151.8583  140.3209  157.9534 H   0  0  0  0  0  0  0  0  0  0  0  0
  153.1112  141.4349  157.4329 H   0  0  0  0  0  0  0  0  0  0  0  0
  151.6773  141.4674  160.1556 H   0  0  0  0  0  0  0  0  0  0  0  0
  153.3414  140.9983  159.8629 H   0  0  0  0  0  0  0  0  0  0  0  0
  151.0669  143.7983  159.8763 H   0  0  0  0  0  0  0  0  0  0  0  0
  152.3109  144.9347  159.3923 H   0  0  0  0  0  0  0  0  0  0  0  0
  152.4641  143.9169  157.1401 H   0  0  0  0  0  0  0  0  0  0  0  0
  150.8075  144.3800  157.4723 H   0  0  0  0  0  0  0  0  0  0  0  0
  147.6870  141.5296  154.2971 H   0  0  0  0  0  0  0  0  0  0  0  0
  149.0928  141.7445  153.2429 H   0  0  0  0  0  0  0  0  0  0  0  0
  149.0498  142.4947  154.8342 H   0  0  0  0  0  0  0  0  0  0  0  0
  148.7614  136.1842  155.9258 H   0  0  0  0  0  0  0  0  0  0  0  0
  145.4380  139.4722  151.5025 H   0  0  0  0  0  0  0  0  0  0  0  0
  144.5865  136.4362  153.2167 H   0  0  0  0  0  0  0  0  0  0  0  0
  144.4188  137.2041  151.6541 H   0  0  0  0  0  0  0  0  0  0  0  0
  146.5184  135.9861  150.8866 H   0  0  0  0  0  0  0  0  0  0  0  0
  147.5533  135.4258  152.6324 H   0  0  0  0  0  0  0  0  0  0  0  0
  144.3809  135.0762  150.2246 H   0  0  0  0  0  0  0  0  0  0  0  0
  145.5980  133.3454  149.3823 H   0  0  0  0  0  0  0  0  0  0  0  0
  146.5539  133.1132  150.8392 H   0  0  0  0  0  0  0  0  0  0  0  0
  144.3653  131.4765  150.1409 H   0  0  0  0  0  0  0  0  0  0  0  0
  145.0631  131.6374  151.7534 H   0  0  0  0  0  0  0  0  0  0  0  0
  142.6956  133.1703  150.6165 H   0  0  0  0  0  0  0  0  0  0  0  0
  142.8262  132.3838  152.1968 H   0  0  0  0  0  0  0  0  0  0  0  0
  150.3524  142.1251  158.1007 H   0  0  0  0  0  0  0  0  0  0  0  0
  1  2  1  0  0  0  0
  1 29  1  0  0  0  0
  1 30  1  0  0  0  0
  1 31  1  0  0  0  0
  2  3  1  0  0  0  0
  2 10  1  0  0  0  0
  2 32  1  0  0  0  0
  3  4  1  0  0  0  0
  3 33  1  0  0  0  0
  3 34  1  0  0  0  0
  4  9  1  0  0  0  0
  4  5  1  0  0  0  0
  4 59  1  0  0  0  0
  5  6  1  0  0  0  0
  5 35  1  0  0  0  0
  5 36  1  0  0  0  0
  6  7  1  0  0  0  0
  6 37  1  0  0  0  0
  6 38  1  0  0  0  0
  7  8  1  0  0  0  0
  8  9  1  0  0  0  0
  8 39  1  0  0  0  0
  8 40  1  0  0  0  0
  9 41  1  0  0  0  0
  9 42  1  0  0  0  0
 10 11  1  0  0  0  0
 10 12  1  0  0  0  0
 11 43  1  0  0  0  0
 11 44  1  0  0  0  0
 11 45  1  0  0  0  0
 12 17  1  0  0  0  0
 12 13  2  0  0  0  0
 13 14  1  0  0  0  0
 14 15  2  0  0  0  0
 14 46  1  0  0  0  0
 15 16  1  0  0  0  0
 16 20  1  0  0  0  0
 16 17  2  0  0  0  0
 17 18  1  0  0  0  0
 18 19  2  0  0  0  0
 19 20  1  0  0  0  0
 19 47  1  0  0  0  0
 20 21  1  0  0  0  0
 21 22  1  0  0  0  0
 21 48  1  0  0  0  0
 21 49  1  0  0  0  0
 22 23  1  0  0  0  0
 22 24  1  0  0  0  0
 22 50  1  0  0  0  0
 23 51  1  0  0  0  0
 24 28  1  0  0  0  0
 24 25  1  0  0  0  0
 24 52  1  0  0  0  0
 25 26  1  0  0  0  0
 25 53  1  0  0  0  0
 25 54  1  0  0  0  0
 26 27  1  0  0  0  0
 26 55  1  0  0  0  0
 26 56  1  0  0  0  0
 27 28  1  0  0  0  0
 27 57  1  0  0  0  0
 27 58  1  0  0  0  0
M  CHG  1   4   1
M  END
> <s_m_source_file>
AV-unprocessed.smi

> <i_m_source_file_index>
213

> <i_lp_mmshare_version>
43012

> <i_f3d_flags>
0

> <s_epik_input>
W0NIMl0xW0NIMl1PW0NIMl1bQ0gyXU4xW0NIMl1bQ0BASF0oW0NIM10pTihbQ0gzXSljKG5bY0hdbjIpYyhjMjMpbltjSF1uM1tDSDJdW0NASF0oW09IXSlbQ0BASF00W0NIMl1bQ0gyXVtDSDJdTzQ=

> <s_epik_cmdline>
J2VwaWtfcHl0aG9uJywgJy1waCcsICc3LjAnLCAnLXRuJywgJzgnLCAnLW1hJywgJzIwMCcsICctbWV0YWxfYmluZGluZycsICctaW1hZScsICc8aW5maWxlLm1hZT4nLCAnLW9tYWUnLCAnPG91dGZpbGUubWFlPic=

> <r_lp_tautomer_probability>
1

> <r_epik_Ionization_Penalty>
0.399679

> <r_epik_Ionization_Penalty_Charging>
0.399433

> <r_epik_Ionization_Penalty_Neutral>
0.000246213

> <r_epik_State_Penalty>
0.286032

> <r_epik_Charging_Adjusted_Penalty>
0.685465

> <i_epik_Tot_Q>
1

> <i_epik_Tot_abs_Q>
1

> <r_epik_Metal_State_Penalty>
0.286072

> <b_epik_Metal_Only>
0

> <s_lp_Force_Field>
OPLS_2005

> <r_lp_Energy>
46.5476

> <b_lp_Chiralities_Consistent>
1

> <s_lp_Variant>
AV-unprocessed.smi:213-8

> <Gold.Version>
5.8.1

> <Gold.Id.Protein>
6NUR|6NUR_protein|mol2

> <Gold.PLP.Fitness>
51.9654

> <Gold.PLP.PLP>
-45.0177

> <Gold.PLP.part.hbond>
-1.0000

> <Gold.PLP.part.metal>
0.0000

> <Gold.PLP.part.buried>
-2.7361

> <Gold.PLP.part.nonpolar>
-43.6057

> <Gold.PLP.part.repulsive>
2.0104

> <Gold.PLP.ligand.clash>
0.0000

> <Gold.PLP.ligand.torsion>
0.7766

> <Gold.PLP.Chemscore.Hbond>
1.0000

> <Gold.PLP.Chemscore.CHOScore>
1.5530

> <Gold.PLP.Chemscore.Metal>
0.0000

> <Gold.Chemscore.Hbonds>
donor molecule, donor type, donor heavy atom, donor atom, acceptor molecule, acceptor atom, score
      L1  H    23    51       P1  7948  1.00
      L1  C    19    47       P1 10171  1.00
      L1  C    19    47       P1 10175  0.61

> <Gold.PLP.Chemscore.Internal.Correction>
0.8420

> <Gold.Rescore>
     Score         DG    S(hbond)    S(metal)    S(lipo)     H(rot)  DE(clash)    DE(int)     intcor
      7.99     -13.25       0.61        0.00     110.82       2.83       1.00       4.26       ----

> <Gold.Chemscore.Fitness>
7.9913

> <Gold.Chemscore.DG>
-13.2496

> <Gold.Chemscore.ZeroCoef>
-5.4800

> <Gold.Chemscore.Hbond>
0.6097

> <Gold.Chemscore.Metal>
0.0000

> <Gold.Chemscore.Lipo>
110.8228

> <Gold.Chemscore.Internal_Hbond>
0.0000

> <Gold.Chemscore.DEClash>
1.0016

> <Gold.Chemscore.DEInternal>
4.2567

> <Gold.Chemscore.Rot>
2.8254

> <Gold.Chemscore.Internal.Correction>
   9.000000E+99

> <Gold.Chemscore.Hbonds>
donor molecule, donor type, donor heavy atom, donor atom, acceptor molecule, acceptor atom, score
      L1  H    23    51       P1  7948  0.96

> <Gold.Chemscore.Hbond.Weighted>
-2.0363

> <Gold.Chemscore.Metal.Weighted>
-0.0000

> <Gold.Chemscore.Lipo.Weighted>
-12.9663

> <Gold.Chemscore.Internal_Hbond.Weighted>
0.0000

> <Gold.Chemscore.DEClash.Weighted>
1.0016

> <Gold.Chemscore.DEInternal.Weighted>
4.2567

> <Gold.Chemscore.Rot.Weighted>
7.2330

> <Gold.Chemscore.Internal.Correction.Weighted>
   9.000000E+99

> <Gold.Protein.RotatedTorsions>
[ 6907 6896 6895 6894 ] final  103.93 input  -60.11 | X-H torsion
[ 7974 7965 7964 7962 ] final  -11.37 input  175.53 | X-H torsion
[ 8008 7997 7996 7995 ] final -174.71 input   59.86 | X-H torsion
[ 10167 10162 10161 10158 ] final  163.22 input  -65.29 | X-H torsion
[ 10718 10713 10712 10709 ] final    5.09 input   66.30 | X-H torsion
[ 10763 10752 10751 10750 ] final  -41.69 input  -60.55 | X-H torsion
[ 11005 11000 10999 10996 ] final    9.85 input  -57.11 | X-H torsion

> <Gold.Protein.ActiveResidues>
 VAL166  LYS551  ARG553  GLY616  TRP617  ASP618  TYR619  PRO620  LYS621  CYS622 
 ASP623  PHE694  ASN695  SER759  ASP760  ASP761  ALA762  ILE779  LEU786  VAL792 
 PHE793  MET794  SER795  GLU796  ALA797  LYS798  CYS799  TRP800  GLU811  SER814 

> <Gold.Protein.RotatedAtoms>
  152.5280  133.9752  159.7780 H   0  0  0  0  0  0  0  0  0  0  0  0  # atno 6907 bound_to 6896
  151.0016  133.6042  159.2701 H   0  0  0  0  0  0  0  0  0  0  0  0  # atno 6908 bound_to 6896
  151.3149  135.0810  159.9338 H   0  0  0  0  0  0  0  0  0  0  0  0  # atno 6909 bound_to 6896
  146.2190  140.2900  142.8368 H   0  0  0  0  0  0  0  0  0  0  0  0  # atno 7974 bound_to 7965
  155.9735  140.1167  157.0791 H   0  0  0  0  0  0  0  0  0  0  0  0  # atno 8008 bound_to 7997
  154.4163  140.1158  156.5406 H   0  0  0  0  0  0  0  0  0  0  0  0  # atno 8009 bound_to 7997
  155.6565  140.3473  155.4769 H   0  0  0  0  0  0  0  0  0  0  0  0  # atno 8010 bound_to 7997
  139.4871  144.4359  151.9013 H   0  0  0  0  0  0  0  0  0  0  0  0  # atno 10167 bound_to 10162
  156.9022  130.5726  149.5648 H   0  0  0  0  0  0  0  0  0  0  0  0  # atno 10718 bound_to 10713
  153.9667  135.6733  153.4746 H   0  0  0  0  0  0  0  0  0  0  0  0  # atno 10763 bound_to 10752
  153.0812  135.4922  154.8503 H   0  0  0  0  0  0  0  0  0  0  0  0  # atno 10764 bound_to 10752
  154.7242  135.3124  154.8958 H   0  0  0  0  0  0  0  0  0  0  0  0  # atno 10765 bound_to 10752
  140.5211  134.0558  155.7845 H   0  0  0  0  0  0  0  0  0  0  0  0  # atno 11005 bound_to 11000
  144.9133  140.7783  143.5793 LP  0  0  0  0  0  0  0  0  0  0  0  0  # atno 17320 bound_to 7965
  145.2832  139.1910  143.4779 LP  0  0  0  0  0  0  0  0  0  0  0  0  # atno 17321 bound_to 7965
  140.3808  144.2738  150.5909 LP  0  0  0  0  0  0  0  0  0  0  0  0  # atno 17342 bound_to 10162
  140.5235  143.2260  151.8352 LP  0  0  0  0  0  0  0  0  0  0  0  0  # atno 17343 bound_to 10162
  156.0576  130.5635  150.9125 LP  0  0  0  0  0  0  0  0  0  0  0  0  # atno 17370 bound_to 10713
  157.6019  131.0941  150.8946 LP  0  0  0  0  0  0  0  0  0  0  0  0  # atno 17371 bound_to 10713
  141.1334  133.9264  157.2487 LP  0  0  0  0  0  0  0  0  0  0  0  0  # atno 17394 bound_to 11000
  139.9605  135.0155  156.9248 LP  0  0  0  0  0  0  0  0  0  0  0  0  # atno 17395 bound_to 11000

$$$$
