AV-unprocessed.smi:3343|AV-procd|sdf|12894|dock10
  -GOLD-   2272019303D 1   1.00000     0.00000
 Structure written by MMmdl.
 41 42  0  0  0  0  0  0  0  0  1 V2000
  146.9824  138.1379  158.2432 C   0  0  0  0  0  0  0  0  0  0  0  0
  147.8615  137.0043  158.8098 C   0  0  1  0  0  0  0  0  0  0  0  0
  149.3448  137.3968  158.8826 C   0  0  0  0  0  0  0  0  0  0  0  0
  150.1802  136.6035  159.3175 O   0  0  0  0  0  0  0  0  0  0  0  0
  149.6550  138.6302  158.4518 N   0  0  0  0  0  0  0  0  0  0  0  0
  150.9908  139.2176  158.4588 C   0  0  0  0  0  0  0  0  0  0  0  0
  151.0222  140.5623  157.7062 C   0  0  0  0  0  0  0  0  0  0  0  0
  151.0783  141.7566  158.5490 N   0  0  0  0  0  0  0  0  0  0  0  0
  152.3841  141.9332  159.1918 C   0  0  0  0  0  0  0  0  0  0  0  0
  152.4083  143.1898  160.0818 C   0  0  0  0  0  0  0  0  0  0  0  0
  152.0994  144.3941  159.3134 N   0  0  0  0  0  0  0  0  0  0  0  0
  152.1249  145.5831  160.1512 C   0  0  0  0  0  0  0  0  0  0  0  0
  150.8013  144.2218  158.6649 C   0  0  0  0  0  0  0  0  0  0  0  0
  150.7799  142.9633  157.7772 C   0  0  0  0  0  0  0  0  0  0  0  0
  147.3999  136.5403  160.1125 N   0  0  0  0  0  0  0  0  0  0  0  0
  147.0098  135.3236  160.4990 C   0  0  0  0  0  0  0  0  0  0  0  0
  146.6948  135.2406  161.7839 N   0  0  0  0  0  0  0  0  0  0  0  0
  146.9426  136.5294  162.1626 C   0  0  0  0  0  0  0  0  0  0  0  0
  147.3772  137.3464  161.2036 N   0  0  0  0  0  0  0  0  0  0  0  0
  147.3168  138.4320  157.2477 H   0  0  0  0  0  0  0  0  0  0  0  0
  147.0014  139.0285  158.8727 H   0  0  0  0  0  0  0  0  0  0  0  0
  145.9439  137.8171  158.1570 H   0  0  0  0  0  0  0  0  0  0  0  0
  147.7761  136.1603  158.1229 H   0  0  0  0  0  0  0  0  0  0  0  0
  148.9052  139.2144  158.1119 H   0  0  0  0  0  0  0  0  0  0  0  0
  151.3832  139.3087  159.4721 H   0  0  0  0  0  0  0  0  0  0  0  0
  151.6526  138.5157  157.9513 H   0  0  0  0  0  0  0  0  0  0  0  0
  151.8682  140.5658  157.0175 H   0  0  0  0  0  0  0  0  0  0  0  0
  150.1315  140.6111  157.0782 H   0  0  0  0  0  0  0  0  0  0  0  0
  152.6244  141.0690  159.8095 H   0  0  0  0  0  0  0  0  0  0  0  0
  153.1678  142.0034  158.4358 H   0  0  0  0  0  0  0  0  0  0  0  0
  151.6933  143.0719  160.8979 H   0  0  0  0  0  0  0  0  0  0  0  0
  153.3926  143.2881  160.5409 H   0  0  0  0  0  0  0  0  0  0  0  0
  151.9161  146.4759  159.5610 H   0  0  0  0  0  0  0  0  0  0  0  0
  153.1058  145.7102  160.6103 H   0  0  0  0  0  0  0  0  0  0  0  0
  151.3819  145.5206  160.9475 H   0  0  0  0  0  0  0  0  0  0  0  0
  150.0134  144.1515  159.4168 H   0  0  0  0  0  0  0  0  0  0  0  0
  150.5746  145.0975  158.0557 H   0  0  0  0  0  0  0  0  0  0  0  0
  151.4990  143.0755  156.9639 H   0  0  0  0  0  0  0  0  0  0  0  0
  149.7970  142.8710  157.3138 H   0  0  0  0  0  0  0  0  0  0  0  0
  146.9584  134.4795  159.8269 H   0  0  0  0  0  0  0  0  0  0  0  0
  146.8044  136.8747  163.1765 H   0  0  0  0  0  0  0  0  0  0  0  0
  1  2  1  0  0  0  0
  1 20  1  0  0  0  0
  1 21  1  0  0  0  0
  1 22  1  0  0  0  0
  2  3  1  0  0  0  0
  2 15  1  0  0  0  0
  2 23  1  0  0  0  0
  3  4  2  0  0  0  0
  3  5  1  0  0  0  0
  5  6  1  0  0  0  0
  5 24  1  0  0  0  0
  6  7  1  0  0  0  0
  6 25  1  0  0  0  0
  6 26  1  0  0  0  0
  7  8  1  0  0  0  0
  7 27  1  0  0  0  0
  7 28  1  0  0  0  0
  8 14  1  0  0  0  0
  8  9  1  0  0  0  0
  9 10  1  0  0  0  0
  9 29  1  0  0  0  0
  9 30  1  0  0  0  0
 10 11  1  0  0  0  0
 10 31  1  0  0  0  0
 10 32  1  0  0  0  0
 11 12  1  0  0  0  0
 11 13  1  0  0  0  0
 12 33  1  0  0  0  0
 12 34  1  0  0  0  0
 12 35  1  0  0  0  0
 13 14  1  0  0  0  0
 13 36  1  0  0  0  0
 13 37  1  0  0  0  0
 14 38  1  0  0  0  0
 14 39  1  0  0  0  0
 15 19  1  0  0  0  0
 15 16  1  0  0  0  0
 16 17  2  0  0  0  0
 16 40  1  0  0  0  0
 17 18  1  0  0  0  0
 18 19  2  0  0  0  0
 18 41  1  0  0  0  0
M  END
> <s_m_source_file>
AV-unprocessed.smi

> <i_m_source_file_index>
3343

> <i_lp_mmshare_version>
43012

> <i_f3d_flags>
0

> <s_epik_input>
bjFbY0hdbltjSF1uMVtDQEhdKFtDSDNdKUMoPU8pW05IXVtDSDJdW0NIMl1OMltDSDJdW0NIMl1OKFtDSDNdKVtDSDJdW0NIMl0y

> <s_epik_cmdline>
J2VwaWtfcHl0aG9uJywgJy1waCcsICc3LjAnLCAnLXRuJywgJzgnLCAnLW1hJywgJzIwMCcsICctbWV0YWxfYmluZGluZycsICctaW1hZScsICc8aW5maWxlLm1hZT4nLCAnLW9tYWUnLCAnPG91dGZpbGUubWFlPic=

> <r_lp_tautomer_probability>
1

> <r_epik_Ionization_Penalty>
1.97295

> <r_epik_Ionization_Penalty_Charging>
0

> <r_epik_Ionization_Penalty_Neutral>
1.97295

> <r_epik_State_Penalty>
1.8027

> <r_epik_Charging_Adjusted_Penalty>
1.8027

> <i_epik_Tot_Q>
0

> <i_epik_Tot_abs_Q>
0

> <r_epik_Metal_State_Penalty>
1.8027

> <b_epik_Metal_Only>
0

> <s_lp_Force_Field>
OPLS_2005

> <r_lp_Energy>
40.9653

> <b_lp_Chiralities_Consistent>
1

> <s_lp_Variant>
AV-unprocessed.smi:3343-4

> <Gold.Version>
5.8.1

> <Gold.Id.Protein>
6NUR|6NUR_protein|mol2

> <Gold.PLP.Fitness>
41.6087

> <Gold.PLP.PLP>
-35.0080

> <Gold.PLP.part.hbond>
-3.0000

> <Gold.PLP.part.metal>
0.0000

> <Gold.PLP.part.buried>
-6.6591

> <Gold.PLP.part.nonpolar>
-26.2822

> <Gold.PLP.part.repulsive>
0.2257

> <Gold.PLP.ligand.clash>
0.8863

> <Gold.PLP.ligand.torsion>
0.5043

> <Gold.PLP.Chemscore.Hbond>
2.7920

> <Gold.PLP.Chemscore.CHOScore>
0.0000

> <Gold.PLP.Chemscore.Metal>
0.0000

> <Gold.Chemscore.Hbonds>
donor molecule, donor type, donor heavy atom, donor atom, acceptor molecule, acceptor atom, score
      P1  H  6896  6907       L1     4  1.00
      P1  H  6931  6943       L1    19  0.80
      P1  H  6934  6947       L1    19  0.99

> <Gold.PLP.Chemscore.Internal.Correction>
0.1197

> <Gold.Rescore>
     Score         DG    S(hbond)    S(metal)    S(lipo)     H(rot)  DE(clash)    DE(int)     intcor
     14.60     -15.15       2.62        0.00      63.70       2.56       0.00       0.55       ----

> <Gold.Chemscore.Fitness>
14.6014

> <Gold.Chemscore.DG>
-15.1513

> <Gold.Chemscore.ZeroCoef>
-5.4800

> <Gold.Chemscore.Hbond>
2.6245

> <Gold.Chemscore.Metal>
0.0000

> <Gold.Chemscore.Lipo>
63.7013

> <Gold.Chemscore.Internal_Hbond>
0.0000

> <Gold.Chemscore.DEClash>
0.0048

> <Gold.Chemscore.DEInternal>
0.5451

> <Gold.Chemscore.Rot>
2.5577

> <Gold.Chemscore.Internal.Correction>
   9.000000E+99

> <Gold.Chemscore.Hbonds>
donor molecule, donor type, donor heavy atom, donor atom, acceptor molecule, acceptor atom, score
      P1  H  6896  6907       L1     4  1.00
      P1  H  6931  6943       L1    19  0.45
      P1  H  6934  6947       L1    19  0.90

> <Gold.Chemscore.Hbond.Weighted>
-8.7659

> <Gold.Chemscore.Metal.Weighted>
-0.0000

> <Gold.Chemscore.Lipo.Weighted>
-7.4531

> <Gold.Chemscore.Internal_Hbond.Weighted>
0.0000

> <Gold.Chemscore.DEClash.Weighted>
0.0048

> <Gold.Chemscore.DEInternal.Weighted>
0.5451

> <Gold.Chemscore.Rot.Weighted>
6.5477

> <Gold.Chemscore.Internal.Correction.Weighted>
   9.000000E+99

> <Gold.Protein.RotatedTorsions>
[ 6907 6896 6895 6894 ] final  -39.76 input  -60.11 | X-H torsion
[ 7974 7965 7964 7962 ] final -100.97 input  175.53 | X-H torsion
[ 8008 7997 7996 7995 ] final  -50.94 input   59.86 | X-H torsion
[ 10167 10162 10161 10158 ] final   96.87 input  -65.29 | X-H torsion
[ 10718 10713 10712 10709 ] final  158.36 input   66.30 | X-H torsion
[ 10763 10752 10751 10750 ] final  -56.64 input  -60.55 | X-H torsion
[ 11005 11000 10999 10996 ] final  117.48 input  -57.11 | X-H torsion

> <Gold.Protein.ActiveResidues>
 VAL166  LYS551  ARG553  GLY616  TRP617  ASP618  TYR619  PRO620  LYS621  CYS622 
 ASP623  PHE694  ASN695  SER759  ASP760  ASP761  ALA762  ILE779  LEU786  VAL792 
 PHE793  MET794  SER795  GLU796  ALA797  LYS798  CYS799  TRP800  GLU811  SER814 

> <Gold.Protein.RotatedAtoms>
  150.9865  134.9209  159.7874 H   0  0  0  0  0  0  0  0  0  0  0  0  # atno 6907 bound_to 6896
  152.5238  134.3340  159.9203 H   0  0  0  0  0  0  0  0  0  0  0  0  # atno 6908 bound_to 6896
  151.3346  133.3945  159.2700 H   0  0  0  0  0  0  0  0  0  0  0  0  # atno 6909 bound_to 6896
  145.2876  140.9344  143.2896 H   0  0  0  0  0  0  0  0  0  0  0  0  # atno 7974 bound_to 7965
  154.4072  140.1260  156.4747 H   0  0  0  0  0  0  0  0  0  0  0  0  # atno 8008 bound_to 7997
  155.7144  140.3493  155.4968 H   0  0  0  0  0  0  0  0  0  0  0  0  # atno 8009 bound_to 7997
  155.9271  140.1063  157.1152 H   0  0  0  0  0  0  0  0  0  0  0  0  # atno 8010 bound_to 7997
  139.7854  144.6872  150.9965 H   0  0  0  0  0  0  0  0  0  0  0  0  # atno 10167 bound_to 10162
  157.1789  131.0628  151.2142 H   0  0  0  0  0  0  0  0  0  0  0  0  # atno 10718 bound_to 10713
  154.2099  135.6396  153.5112 H   0  0  0  0  0  0  0  0  0  0  0  0  # atno 10763 bound_to 10752
  152.9992  135.5471  154.6226 H   0  0  0  0  0  0  0  0  0  0  0  0  # atno 10764 bound_to 10752
  154.5660  135.2913  155.0846 H   0  0  0  0  0  0  0  0  0  0  0  0  # atno 10765 bound_to 10752
  139.9076  134.9610  156.7357 H   0  0  0  0  0  0  0  0  0  0  0  0  # atno 11005 bound_to 11000
  144.9200  139.4423  143.6546 LP  0  0  0  0  0  0  0  0  0  0  0  0  # atno 17320 bound_to 7965
  146.3195  139.8055  142.8956 LP  0  0  0  0  0  0  0  0  0  0  0  0  # atno 17321 bound_to 7965
  140.7819  143.4438  151.0513 LP  0  0  0  0  0  0  0  0  0  0  0  0  # atno 17342 bound_to 10162
  139.8117  143.7942  152.3171 LP  0  0  0  0  0  0  0  0  0  0  0  0  # atno 17343 bound_to 10162
  157.3971  130.7313  149.6740 LP  0  0  0  0  0  0  0  0  0  0  0  0  # atno 17370 bound_to 10713
  155.9727  130.4130  150.4063 LP  0  0  0  0  0  0  0  0  0  0  0  0  # atno 17371 bound_to 10713
  140.6889  133.9407  155.7954 LP  0  0  0  0  0  0  0  0  0  0  0  0  # atno 17394 bound_to 11000
  141.0456  134.0559  157.3848 LP  0  0  0  0  0  0  0  0  0  0  0  0  # atno 17395 bound_to 11000

$$$$
