AV-unprocessed.smi:2259|AV-procd|sdf|9130|dock2
  -GOLD-   2272012333D 1   1.00000     0.00000
 Structure written by MMmdl.
 39 40  0  0  0  0  0  0  0  0  1 V2000
  151.8634  144.0606  161.1070 C   0  0  0  0  0  0  0  0  0  0  0  0
  151.8905  143.2217  159.8418 C   0  0  0  0  0  0  0  0  0  0  0  0
  151.1941  143.7508  158.7515 N   0  0  0  0  0  0  0  0  0  0  0  0
  151.1549  143.1013  157.6346 C   0  0  0  0  0  0  0  0  0  0  0  0
  151.7969  141.8607  157.4778 N   0  0  0  0  0  0  0  0  0  0  0  0
  151.6806  141.2182  156.1555 C   0  0  0  0  0  0  0  0  0  0  0  0
  150.5397  140.1763  156.0803 C   0  0  2  0  0  0  0  0  0  0  0  0
  150.5768  139.6161  154.7835 O   0  0  0  0  0  0  0  0  0  0  0  0
  149.1378  140.7698  156.3105 C   0  0  0  0  0  0  0  0  0  0  0  0
  148.6336  141.2481  155.0705 O   0  0  0  0  0  0  0  0  0  0  0  0
  147.4726  141.9915  155.0790 C   0  0  0  0  0  0  0  0  0  0  0  0
  146.9990  142.4510  153.8329 C   0  0  0  0  0  0  0  0  0  0  0  0
  145.8215  143.2185  153.7457 C   0  0  0  0  0  0  0  0  0  0  0  0
  145.0994  143.5363  154.9129 C   0  0  0  0  0  0  0  0  0  0  0  0
  143.8844  144.3294  154.8265 C   0  0  0  0  0  0  0  0  0  0  0  0
  142.9172  144.9607  154.7580 N   0  0  0  0  0  0  0  0  0  0  0  0
  145.5608  143.0815  156.1640 C   0  0  0  0  0  0  0  0  0  0  0  0
  146.7394  142.3144  156.2492 C   0  0  0  0  0  0  0  0  0  0  0  0
  152.5155  141.2844  158.4847 C   0  0  0  0  0  0  0  0  0  0  0  0
  153.0978  140.2092  158.3304 O   0  0  0  0  0  0  0  0  0  0  0  0
  152.5430  142.0308  159.7531 C   0  0  0  0  0  0  0  0  0  0  0  0
  153.3172  141.4054  160.9069 C   0  0  0  0  0  0  0  0  0  0  0  0
  152.8755  144.3346  161.4057 H   0  0  0  0  0  0  0  0  0  0  0  0
  151.3962  143.5071  161.9220 H   0  0  0  0  0  0  0  0  0  0  0  0
  151.2976  144.9817  160.9611 H   0  0  0  0  0  0  0  0  0  0  0  0
  150.6215  143.4711  156.7572 H   0  0  0  0  0  0  0  0  0  0  0  0
  151.5526  141.9551  155.3597 H   0  0  0  0  0  0  0  0  0  0  0  0
  152.6311  140.7321  155.9261 H   0  0  0  0  0  0  0  0  0  0  0  0
  150.7231  139.3776  156.7997 H   0  0  0  0  0  0  0  0  0  0  0  0
  149.6993  139.3674  154.5367 H   0  0  0  0  0  0  0  0  0  0  0  0
  148.4604  139.9939  156.6669 H   0  0  0  0  0  0  0  0  0  0  0  0
  149.1702  141.5575  157.0655 H   0  0  0  0  0  0  0  0  0  0  0  0
  147.5459  142.2130  152.9322 H   0  0  0  0  0  0  0  0  0  0  0  0
  145.4786  143.5605  152.7796 H   0  0  0  0  0  0  0  0  0  0  0  0
  145.0144  143.3179  157.0659 H   0  0  0  0  0  0  0  0  0  0  0  0
  147.0592  141.9846  157.2258 H   0  0  0  0  0  0  0  0  0  0  0  0
  152.9105  140.4215  161.1426 H   0  0  0  0  0  0  0  0  0  0  0  0
  153.2839  141.9995  161.8186 H   0  0  0  0  0  0  0  0  0  0  0  0
  154.3655  141.2820  160.6330 H   0  0  0  0  0  0  0  0  0  0  0  0
  1  2  1  0  0  0  0
  1 23  1  0  0  0  0
  1 24  1  0  0  0  0
  1 25  1  0  0  0  0
  2 21  2  0  0  0  0
  2  3  1  0  0  0  0
  3  4  2  0  0  0  0
  4  5  1  0  0  0  0
  4 26  1  0  0  0  0
  5  6  1  0  0  0  0
  5 19  1  0  0  0  0
  6  7  1  0  0  0  0
  6 27  1  0  0  0  0
  6 28  1  0  0  0  0
  7  8  1  0  0  0  0
  7  9  1  0  0  0  0
  7 29  1  0  0  0  0
  8 30  1  0  0  0  0
  9 10  1  0  0  0  0
  9 31  1  0  0  0  0
  9 32  1  0  0  0  0
 10 11  1  0  0  0  0
 11 18  1  0  0  0  0
 11 12  2  0  0  0  0
 12 13  1  0  0  0  0
 12 33  1  0  0  0  0
 13 14  2  0  0  0  0
 13 34  1  0  0  0  0
 14 15  1  0  0  0  0
 14 17  1  0  0  0  0
 15 16  3  0  0  0  0
 17 18  2  0  0  0  0
 17 35  1  0  0  0  0
 18 36  1  0  0  0  0
 19 20  2  0  0  0  0
 19 21  1  0  0  0  0
 21 22  1  0  0  0  0
 22 37  1  0  0  0  0
 22 38  1  0  0  0  0
 22 39  1  0  0  0  0
M  END
> <s_m_source_file>
AV-unprocessed.smi

> <i_m_source_file_index>
2259

> <i_lp_mmshare_version>
43012

> <i_f3d_flags>
0

> <s_epik_input>
W0NIM11jMW5bY0hdbihjKD1PKWMxW0NIM10pW0NIMl1bQ0BIXShbT0hdKVtDSDJdT2MyW2NIXVtjSF1jKEMjTilbY0hdW2NIXTI=

> <s_epik_cmdline>
J2VwaWtfcHl0aG9uJywgJy1waCcsICc3LjAnLCAnLXRuJywgJzgnLCAnLW1hJywgJzIwMCcsICctbWV0YWxfYmluZGluZycsICctaW1hZScsICc8aW5maWxlLm1hZT4nLCAnLW9tYWUnLCAnPG91dGZpbGUubWFlPic=

> <r_lp_tautomer_probability>
1

> <r_epik_Ionization_Penalty>
3.47921e-05

> <r_epik_Ionization_Penalty_Charging>
7.82631e-08

> <r_epik_Ionization_Penalty_Neutral>
3.47138e-05

> <r_epik_State_Penalty>
-0

> <r_epik_Charging_Adjusted_Penalty>
7.82631e-08

> <i_epik_Tot_Q>
0

> <i_epik_Tot_abs_Q>
0

> <r_epik_Metal_State_Penalty>
-0

> <b_epik_Metal_Only>
0

> <s_lp_Force_Field>
OPLS_2005

> <r_lp_Energy>
23.7954

> <b_lp_Chiralities_Consistent>
1

> <s_lp_Variant>
AV-unprocessed.smi:2259-1

> <Gold.Version>
5.8.1

> <Gold.Id.Protein>
6NUR|6NUR_protein|mol2

> <Gold.PLP.Fitness>
46.5893

> <Gold.PLP.PLP>
-39.2748

> <Gold.PLP.part.hbond>
-1.8341

> <Gold.PLP.part.metal>
0.0000

> <Gold.PLP.part.buried>
-5.7233

> <Gold.PLP.part.nonpolar>
-30.4599

> <Gold.PLP.part.repulsive>
0.2806

> <Gold.PLP.ligand.clash>
0.0000

> <Gold.PLP.ligand.torsion>
0.6855

> <Gold.PLP.Chemscore.Hbond>
1.8698

> <Gold.PLP.Chemscore.CHOScore>
1.0000

> <Gold.PLP.Chemscore.Metal>
0.0000

> <Gold.Chemscore.Hbonds>
donor molecule, donor type, donor heavy atom, donor atom, acceptor molecule, acceptor atom, score
      P1  H  7989  7998       L1     8  0.88
      P1  H  7997  8008       L1    20  0.96
      L1  C     4    26       P1  8028  1.00

> <Gold.PLP.Chemscore.Internal.Correction>
0.0762

> <Gold.Rescore>
     Score         DG    S(hbond)    S(metal)    S(lipo)     H(rot)  DE(clash)    DE(int)     intcor
     12.91     -13.90       1.57        0.00      85.29       2.66       0.33       0.66       ----

> <Gold.Chemscore.Fitness>
12.9109

> <Gold.Chemscore.DG>
-13.9031

> <Gold.Chemscore.ZeroCoef>
-5.4800

> <Gold.Chemscore.Hbond>
1.5704

> <Gold.Chemscore.Metal>
0.0000

> <Gold.Chemscore.Lipo>
85.2851

> <Gold.Chemscore.Internal_Hbond>
0.0000

> <Gold.Chemscore.DEClash>
0.3290

> <Gold.Chemscore.DEInternal>
0.6633

> <Gold.Chemscore.Rot>
2.6563

> <Gold.Chemscore.Internal.Correction>
   9.000000E+99

> <Gold.Chemscore.Hbonds>
donor molecule, donor type, donor heavy atom, donor atom, acceptor molecule, acceptor atom, score
      P1  H  7989  7998       L1     8  0.61
      P1  H  7997  8008       L1    20  0.88

> <Gold.Chemscore.Hbond.Weighted>
-5.2450

> <Gold.Chemscore.Metal.Weighted>
-0.0000

> <Gold.Chemscore.Lipo.Weighted>
-9.9784

> <Gold.Chemscore.Internal_Hbond.Weighted>
0.0000

> <Gold.Chemscore.DEClash.Weighted>
0.3290

> <Gold.Chemscore.DEInternal.Weighted>
0.6633

> <Gold.Chemscore.Rot.Weighted>
6.8002

> <Gold.Chemscore.Internal.Correction.Weighted>
   9.000000E+99

> <Gold.Protein.RotatedTorsions>
[ 6907 6896 6895 6894 ] final -130.37 input  -60.11 | X-H torsion
[ 7974 7965 7964 7962 ] final -176.39 input  175.53 | X-H torsion
[ 8008 7997 7996 7995 ] final  -85.46 input   59.86 | X-H torsion
[ 10167 10162 10161 10158 ] final  111.90 input  -65.29 | X-H torsion
[ 10718 10713 10712 10709 ] final -108.93 input   66.30 | X-H torsion
[ 10763 10752 10751 10750 ] final  103.70 input  -60.55 | X-H torsion
[ 11005 11000 10999 10996 ] final  165.19 input  -57.11 | X-H torsion

> <Gold.Protein.ActiveResidues>
 VAL166  LYS551  ARG553  GLY616  TRP617  ASP618  TYR619  PRO620  LYS621  CYS622 
 ASP623  PHE694  ASN695  SER759  ASP760  ASP761  ALA762  ILE779  LEU786  VAL792 
 PHE793  MET794  SER795  GLU796  ALA797  LYS798  CYS799  TRP800  GLU811  SER814 

> <Gold.Protein.RotatedAtoms>
  150.9390  133.6679  159.2794 H   0  0  0  0  0  0  0  0  0  0  0  0  # atno 6907 bound_to 6896
  151.4074  135.0979  159.9584 H   0  0  0  0  0  0  0  0  0  0  0  0  # atno 6908 bound_to 6896
  152.5061  133.8870  159.7430 H   0  0  0  0  0  0  0  0  0  0  0  0  # atno 6909 bound_to 6896
  144.7127  140.1178  143.6407 H   0  0  0  0  0  0  0  0  0  0  0  0  # atno 7974 bound_to 7965
  154.6410  140.0591  156.9845 H   0  0  0  0  0  0  0  0  0  0  0  0  # atno 8008 bound_to 7997
  155.1517  140.3274  155.4411 H   0  0  0  0  0  0  0  0  0  0  0  0  # atno 8009 bound_to 7997
  156.2531  140.1946  156.6629 H   0  0  0  0  0  0  0  0  0  0  0  0  # atno 8010 bound_to 7997
  139.6576  144.7129  151.1927 H   0  0  0  0  0  0  0  0  0  0  0  0  # atno 10167 bound_to 10162
  156.0511  130.5738  150.8029 H   0  0  0  0  0  0  0  0  0  0  0  0  # atno 10718 bound_to 10713
  153.3562  135.3968  155.1683 H   0  0  0  0  0  0  0  0  0  0  0  0  # atno 10763 bound_to 10752
  154.8671  135.3668  154.5158 H   0  0  0  0  0  0  0  0  0  0  0  0  # atno 10764 bound_to 10752
  153.5614  135.7081  153.5606 H   0  0  0  0  0  0  0  0  0  0  0  0  # atno 10765 bound_to 10752
  140.2536  134.7957  157.3525 H   0  0  0  0  0  0  0  0  0  0  0  0  # atno 11005 bound_to 11000
  145.9398  139.2661  143.1275 LP  0  0  0  0  0  0  0  0  0  0  0  0  # atno 17320 bound_to 7965
  145.9436  140.8961  143.0295 LP  0  0  0  0  0  0  0  0  0  0  0  0  # atno 17321 bound_to 7965
  140.7566  143.6047  150.8665 LP  0  0  0  0  0  0  0  0  0  0  0  0  # atno 17342 bound_to 10162
  139.9701  143.6066  152.2976 LP  0  0  0  0  0  0  0  0  0  0  0  0  # atno 17343 bound_to 10162
  157.5437  131.0941  150.9792 LP  0  0  0  0  0  0  0  0  0  0  0  0  # atno 17370 bound_to 10713
  157.0069  130.5621  149.5317 LP  0  0  0  0  0  0  0  0  0  0  0  0  # atno 17371 bound_to 10713
  140.1534  134.4821  155.7945 LP  0  0  0  0  0  0  0  0  0  0  0  0  # atno 17394 bound_to 11000
  141.2198  133.6871  156.7418 LP  0  0  0  0  0  0  0  0  0  0  0  0  # atno 17395 bound_to 11000

$$$$
