AV-unprocessed.smi:1423|AV-procd|sdf|5796|dock3
  -GOLD-   22720 5443D 1   1.00000     0.00000
 Structure written by MMmdl.
 44 45  0  0  0  0  0  0  0  0  2 V2000
  153.5098  142.3290  162.2892 C   0  0  0  0  0  0  0  0  0  0  0  0
  153.6210  141.5638  161.0944 O   0  0  0  0  0  0  0  0  0  0  0  0
  152.7594  141.8447  160.0538 C   0  0  0  0  0  0  0  0  0  0  0  0
  152.2825  143.1626  159.9108 C   0  0  0  0  0  0  0  0  0  0  0  0
  151.4006  143.4581  158.8538 C   0  0  0  0  0  0  0  0  0  0  0  0
  151.0143  142.4187  157.9735 C   0  0  0  0  0  0  0  0  0  0  0  0
  150.1414  142.5837  156.8629 N   0  0  0  0  0  0  0  0  0  0  0  0
  149.5714  141.6421  156.0913 C   0  0  0  0  0  0  0  0  0  0  0  0
  149.7223  140.4275  156.2169 O   0  0  0  0  0  0  0  0  0  0  0  0
  148.8130  142.1943  155.1329 N   0  0  0  0  0  0  0  0  0  0  0  0
  148.0429  141.4523  154.1345 C   0  0  2  0  0  0  0  0  0  0  0  0
  147.0985  142.3715  153.3334 C   0  0  0  0  0  0  0  0  0  0  0  0
  145.9160  142.8667  154.1836 C   0  0  0  0  0  0  0  0  0  0  0  0
  145.1640  141.7244  154.7679 N   0  3  2  0  0  0  0  0  0  0  0  0
  143.9255  142.1407  155.4754 C   0  0  0  0  0  0  0  0  0  0  0  0
  143.0506  140.9575  155.9033 C   0  0  0  0  0  0  0  0  0  0  0  0
  142.5884  140.1689  154.9305 N   0  0  0  0  0  0  0  0  0  0  0  0
  142.7816  140.7630  157.0874 O   0  0  0  0  0  0  0  0  0  0  0  0
  146.0395  140.8703  155.6100 C   0  0  0  0  0  0  0  0  0  0  0  0
  147.2329  140.3273  154.8023 C   0  0  0  0  0  0  0  0  0  0  0  0
  151.5597  141.1370  158.1959 C   0  0  0  0  0  0  0  0  0  0  0  0
  152.4058  140.8470  159.2064 N   0  0  0  0  0  0  0  0  0  0  0  0
  154.2622  141.9939  163.0030 H   0  0  0  0  0  0  0  0  0  0  0  0
  152.5315  142.2004  162.7546 H   0  0  0  0  0  0  0  0  0  0  0  0
  153.6807  143.3901  162.1025 H   0  0  0  0  0  0  0  0  0  0  0  0
  152.5910  143.9355  160.5990 H   0  0  0  0  0  0  0  0  0  0  0  0
  151.0529  144.4725  158.7388 H   0  0  0  0  0  0  0  0  0  0  0  0
  149.9682  143.5409  156.5933 H   0  0  0  0  0  0  0  0  0  0  0  0
  148.7465  143.2013  155.1056 H   0  0  0  0  0  0  0  0  0  0  0  0
  148.7516  140.9910  153.4440 H   0  0  0  0  0  0  0  0  0  0  0  0
  147.6438  143.2209  152.9201 H   0  0  0  0  0  0  0  0  0  0  0  0
  146.7100  141.8208  152.4755 H   0  0  0  0  0  0  0  0  0  0  0  0
  146.2717  143.5194  154.9823 H   0  0  0  0  0  0  0  0  0  0  0  0
  145.2576  143.4699  153.5579 H   0  0  0  0  0  0  0  0  0  0  0  0
  144.1869  142.6789  156.3875 H   0  0  0  0  0  0  0  0  0  0  0  0
  143.3543  142.8341  154.8556 H   0  0  0  0  0  0  0  0  0  0  0  0
  142.0108  139.3709  155.1536 H   0  0  0  0  0  0  0  0  0  0  0  0
  142.8226  140.3703  153.9685 H   0  0  0  0  0  0  0  0  0  0  0  0
  146.3890  141.4425  156.4709 H   0  0  0  0  0  0  0  0  0  0  0  0
  145.4661  140.0294  156.0019 H   0  0  0  0  0  0  0  0  0  0  0  0
  146.8591  139.6526  154.0308 H   0  0  0  0  0  0  0  0  0  0  0  0
  147.8780  139.7247  155.4431 H   0  0  0  0  0  0  0  0  0  0  0  0
  151.3063  140.3132  157.5444 H   0  0  0  0  0  0  0  0  0  0  0  0
  144.8612  141.1464  153.9963 H   0  0  0  0  0  0  0  0  0  0  0  0
  1  2  1  0  0  0  0
  1 23  1  0  0  0  0
  1 24  1  0  0  0  0
  1 25  1  0  0  0  0
  2  3  1  0  0  0  0
  3 22  1  0  0  0  0
  3  4  2  0  0  0  0
  4  5  1  0  0  0  0
  4 26  1  0  0  0  0
  5  6  2  0  0  0  0
  5 27  1  0  0  0  0
  6  7  1  0  0  0  0
  6 21  1  0  0  0  0
  7  8  1  0  0  0  0
  7 28  1  0  0  0  0
  8  9  2  0  0  0  0
  8 10  1  0  0  0  0
 10 11  1  0  0  0  0
 10 29  1  0  0  0  0
 11 20  1  0  0  0  0
 11 12  1  0  0  0  0
 11 30  1  0  0  0  0
 12 13  1  0  0  0  0
 12 31  1  0  0  0  0
 12 32  1  0  0  0  0
 13 14  1  0  0  0  0
 13 33  1  0  0  0  0
 13 34  1  0  0  0  0
 14 15  1  0  0  0  0
 14 19  1  0  0  0  0
 14 44  1  0  0  0  0
 15 16  1  0  0  0  0
 15 35  1  0  0  0  0
 15 36  1  0  0  0  0
 16 17  1  0  0  0  0
 16 18  2  0  0  0  0
 17 37  1  0  0  0  0
 17 38  1  0  0  0  0
 19 20  1  0  0  0  0
 19 39  1  0  0  0  0
 19 40  1  0  0  0  0
 20 41  1  0  0  0  0
 20 42  1  0  0  0  0
 21 22  2  0  0  0  0
 21 43  1  0  0  0  0
M  CHG  1  14   1
M  END
> <s_m_source_file>
AV-unprocessed.smi

> <i_m_source_file_index>
1423

> <i_lp_mmshare_version>
43012

> <i_f3d_flags>
0

> <s_epik_input>
W0NIM11PYzFbY0hdW2NIXWMoW2NIXW4xKVtOSF1DKD1PKVtOSF1bQ0hdMltDSDJdW0NIMl1OKFtDSDJdW0NIMl0yKVtDSDJdQyg9TylbTkgyXQ==

> <s_epik_cmdline>
J2VwaWtfcHl0aG9uJywgJy1waCcsICc3LjAnLCAnLXRuJywgJzgnLCAnLW1hJywgJzIwMCcsICctbWV0YWxfYmluZGluZycsICctaW1hZScsICc8aW5maWxlLm1hZT4nLCAnLW9tYWUnLCAnPG91dGZpbGUubWFlPic=

> <r_lp_tautomer_probability>
1

> <r_epik_Ionization_Penalty>
0.838963

> <r_epik_Ionization_Penalty_Charging>
0.838844

> <r_epik_Ionization_Penalty_Neutral>
0.0001192

> <r_epik_State_Penalty>
0.8734

> <r_epik_Charging_Adjusted_Penalty>
1.71224

> <i_epik_Tot_Q>
1

> <i_epik_Tot_abs_Q>
1

> <r_epik_Metal_State_Penalty>
0.890706

> <b_epik_Metal_Only>
0

> <s_lp_Force_Field>
OPLS_2005

> <r_lp_Energy>
16.4792

> <b_lp_Chiralities_Consistent>
1

> <s_lp_Variant>
AV-unprocessed.smi:1423-3

> <Gold.Version>
5.8.1

> <Gold.Id.Protein>
6NUR|6NUR_protein|mol2

> <Gold.PLP.Fitness>
49.5863

> <Gold.PLP.PLP>
-35.7481

> <Gold.PLP.part.hbond>
-4.0000

> <Gold.PLP.part.metal>
0.0000

> <Gold.PLP.part.buried>
-7.0724

> <Gold.PLP.part.nonpolar>
-25.2868

> <Gold.PLP.part.repulsive>
0.2603

> <Gold.PLP.ligand.clash>
0.0000

> <Gold.PLP.ligand.torsion>
0.5326

> <Gold.PLP.Chemscore.Hbond>
4.9600

> <Gold.PLP.Chemscore.CHOScore>
0.0000

> <Gold.PLP.Chemscore.Metal>
0.0000

> <Gold.Chemscore.Hbonds>
donor molecule, donor type, donor heavy atom, donor atom, acceptor molecule, acceptor atom, score
      L1  H     7    28       P1  8028  0.96
      L1  H    10    29       P1  8028  1.00
      L1  H    14    44       P1 10175  2.00
      L1  H    17    38       P1 10175  1.00

> <Gold.PLP.Chemscore.Internal.Correction>
0.0234

> <Gold.Rescore>
     Score         DG    S(hbond)    S(metal)    S(lipo)     H(rot)  DE(clash)    DE(int)     intcor
     16.72     -21.30       3.82        0.00      76.93       2.33       1.39       3.19       ----

> <Gold.Chemscore.Fitness>
16.7195

> <Gold.Chemscore.DG>
-21.2975

> <Gold.Chemscore.ZeroCoef>
-5.4800

> <Gold.Chemscore.Hbond>
3.8245

> <Gold.Chemscore.Metal>
0.0000

> <Gold.Chemscore.Lipo>
76.9326

> <Gold.Chemscore.Internal_Hbond>
0.0000

> <Gold.Chemscore.DEClash>
1.3865

> <Gold.Chemscore.DEInternal>
3.1914

> <Gold.Chemscore.Rot>
2.3271

> <Gold.Chemscore.Internal.Correction>
   9.000000E+99

> <Gold.Chemscore.Hbonds>
donor molecule, donor type, donor heavy atom, donor atom, acceptor molecule, acceptor atom, score
      L1  H     7    28       P1  8028  0.92
      L1  H    10    29       P1  8028  0.98
      L1  H    14    44       P1 10175  0.65
      L1  H    17    38       P1 10175  0.94

> <Gold.Chemscore.Hbond.Weighted>
-12.7737

> <Gold.Chemscore.Metal.Weighted>
-0.0000

> <Gold.Chemscore.Lipo.Weighted>
-9.0011

> <Gold.Chemscore.Internal_Hbond.Weighted>
0.0000

> <Gold.Chemscore.DEClash.Weighted>
1.3865

> <Gold.Chemscore.DEInternal.Weighted>
3.1914

> <Gold.Chemscore.Rot.Weighted>
5.9573

> <Gold.Chemscore.Internal.Correction.Weighted>
   9.000000E+99

> <Gold.Protein.RotatedTorsions>
[ 6907 6896 6895 6894 ] final   89.00 input  -60.11 | X-H torsion
[ 7974 7965 7964 7962 ] final -174.02 input  175.53 | X-H torsion
[ 8008 7997 7996 7995 ] final  123.06 input   59.86 | X-H torsion
[ 10167 10162 10161 10158 ] final  113.68 input  -65.29 | X-H torsion
[ 10718 10713 10712 10709 ] final   -4.39 input   66.30 | X-H torsion
[ 10763 10752 10751 10750 ] final   19.74 input  -60.55 | X-H torsion
[ 11005 11000 10999 10996 ] final -109.49 input  -57.11 | X-H torsion

> <Gold.Protein.ActiveResidues>
 VAL166  LYS551  ARG553  GLY616  TRP617  ASP618  TYR619  PRO620  LYS621  CYS622 
 ASP623  PHE694  ASN695  SER759  ASP760  ASP761  ALA762  ILE779  LEU786  VAL792 
 PHE793  MET794  SER795  GLU796  ALA797  LYS798  CYS799  TRP800  GLU811  SER814 

> <Gold.Protein.RotatedAtoms>
  152.5431  134.2035  159.8721 H   0  0  0  0  0  0  0  0  0  0  0  0  # atno 6907 bound_to 6896
  151.2022  133.4597  159.2604 H   0  0  0  0  0  0  0  0  0  0  0  0  # atno 6908 bound_to 6896
  151.0978  134.9967  159.8490 H   0  0  0  0  0  0  0  0  0  0  0  0  # atno 6909 bound_to 6896
  144.7134  140.1534  143.6382 H   0  0  0  0  0  0  0  0  0  0  0  0  # atno 7974 bound_to 7965
  156.2752  140.2771  156.1567 H   0  0  0  0  0  0  0  0  0  0  0  0  # atno 8008 bound_to 7997
  155.0796  140.0387  157.2653 H   0  0  0  0  0  0  0  0  0  0  0  0  # atno 8009 bound_to 7997
  154.6974  140.2642  155.6758 H   0  0  0  0  0  0  0  0  0  0  0  0  # atno 8010 bound_to 7997
  139.6444  144.7126  151.2173 H   0  0  0  0  0  0  0  0  0  0  0  0  # atno 10167 bound_to 10162
  156.7620  130.5272  149.5783 H   0  0  0  0  0  0  0  0  0  0  0  0  # atno 10718 bound_to 10713
  153.1136  135.6702  153.9457 H   0  0  0  0  0  0  0  0  0  0  0  0  # atno 10763 bound_to 10752
  153.8993  135.3038  155.3449 H   0  0  0  0  0  0  0  0  0  0  0  0  # atno 10764 bound_to 10752
  154.7554  135.5014  153.9443 H   0  0  0  0  0  0  0  0  0  0  0  0  # atno 10765 bound_to 10752
  141.0845  133.9163  157.2216 H   0  0  0  0  0  0  0  0  0  0  0  0  # atno 11005 bound_to 11000
  145.9096  139.2479  143.1445 LP  0  0  0  0  0  0  0  0  0  0  0  0  # atno 17320 bound_to 7965
  145.9730  140.8745  143.0153 LP  0  0  0  0  0  0  0  0  0  0  0  0  # atno 17321 bound_to 7965
  140.7507  143.6257  150.8471 LP  0  0  0  0  0  0  0  0  0  0  0  0  # atno 17342 bound_to 10162
  139.9898  143.5860  152.2914 LP  0  0  0  0  0  0  0  0  0  0  0  0  # atno 17343 bound_to 10162
  156.1333  130.6193  151.0364 LP  0  0  0  0  0  0  0  0  0  0  0  0  # atno 17370 bound_to 10713
  157.6730  131.0857  150.7565 LP  0  0  0  0  0  0  0  0  0  0  0  0  # atno 17371 bound_to 10713
  139.9661  135.0141  156.9392 LP  0  0  0  0  0  0  0  0  0  0  0  0  # atno 17394 bound_to 11000
  140.5395  134.0734  155.7337 LP  0  0  0  0  0  0  0  0  0  0  0  0  # atno 17395 bound_to 11000

$$$$
