AV-unprocessed.smi:1591|AV-procd|sdf|6398|dock1
  -GOLD-   22720 7 33D 1   1.00000     0.00000
 Structure written by MMmdl.
 52 55  0  0  0  0  0  0  0  0  1 V2000
  147.0854  140.4429  152.9802 C   0  0  0  0  0  0  0  0  0  0  0  0
  146.9738  138.9262  152.7609 C   0  0  0  0  0  0  0  0  0  0  0  0
  147.1743  138.0851  154.0467 C   0  0  1  0  0  0  0  0  0  0  0  0
  147.1841  136.6643  153.6982 N   0  0  0  0  0  0  0  0  0  0  0  0
  146.3570  136.0228  152.8557 C   0  0  0  0  0  0  0  0  0  0  0  0
  145.5027  136.5970  152.1821 O   0  0  0  0  0  0  0  0  0  0  0  0
  146.4926  134.4929  152.7640 C   0  0  0  0  0  0  0  0  0  0  0  0
  145.6862  133.8841  151.6915 N   0  0  0  0  0  0  0  0  0  0  0  0
  146.2751  133.0238  150.7755 C   0  0  0  0  0  0  0  0  0  0  0  0
  145.5847  132.3881  149.7991 C   0  0  0  0  0  0  0  0  0  0  0  0
  144.1453  132.5853  149.6638 C   0  0  0  0  0  0  0  0  0  0  0  0
  143.4327  132.0512  148.8171 O   0  0  0  0  0  0  0  0  0  0  0  0
  143.5902  133.4606  150.6009 N   0  0  0  0  0  0  0  0  0  0  0  0
  144.2959  134.1210  151.6074 C   0  0  0  0  0  0  0  0  0  0  0  0
  143.7053  134.8661  152.3879 O   0  0  0  0  0  0  0  0  0  0  0  0
  148.4554  138.4267  154.8792 C   0  0  0  0  0  0  0  0  0  0  0  0
  148.7063  137.3029  155.9304 C   0  0  0  0  0  0  0  0  0  0  0  0
  149.9591  137.6014  156.7781 C   0  0  1  0  0  0  0  0  0  0  0  0
  151.1912  137.7002  155.8558 C   0  0  0  0  0  0  0  0  0  0  0  0
  150.9730  138.8404  154.8407 C   0  0  2  0  0  0  0  0  0  0  0  0
  150.7770  140.1735  155.5919 C   0  0  0  0  0  0  0  0  0  0  0  0
  149.5438  140.0612  156.5120 C   0  0  2  0  0  0  0  0  0  0  0  0
  149.7621  138.9290  157.5345 C   0  0  0  0  0  0  0  0  0  0  0  0
  148.2910  139.7628  155.6597 C   0  0  0  0  0  0  0  0  0  0  0  0
  149.7255  138.5389  153.9834 C   0  0  0  0  0  0  0  0  0  0  0  0
  142.5959  133.6284  150.5464 H   0  0  0  0  0  0  0  0  0  0  0  0
  147.0181  140.9754  152.0314 H   0  0  0  0  0  0  0  0  0  0  0  0
  148.0387  140.7042  153.4401 H   0  0  0  0  0  0  0  0  0  0  0  0
  146.2880  140.8192  153.6212 H   0  0  0  0  0  0  0  0  0  0  0  0
  146.0048  138.7094  152.3118 H   0  0  0  0  0  0  0  0  0  0  0  0
  147.7232  138.6558  152.0187 H   0  0  0  0  0  0  0  0  0  0  0  0
  146.3151  138.2884  154.6885 H   0  0  0  0  0  0  0  0  0  0  0  0
  147.8529  136.0958  154.1971 H   0  0  0  0  0  0  0  0  0  0  0  0
  147.5465  134.2365  152.6403 H   0  0  0  0  0  0  0  0  0  0  0  0
  146.2079  134.0722  153.7293 H   0  0  0  0  0  0  0  0  0  0  0  0
  147.3380  132.8402  150.8445 H   0  0  0  0  0  0  0  0  0  0  0  0
  146.0994  131.7265  149.1176 H   0  0  0  0  0  0  0  0  0  0  0  0
  147.8377  137.1966  156.5817 H   0  0  0  0  0  0  0  0  0  0  0  0
  148.8383  136.3354  155.4471 H   0  0  0  0  0  0  0  0  0  0  0  0
  150.1097  136.7953  157.4967 H   0  0  0  0  0  0  0  0  0  0  0  0
  152.0906  137.8846  156.4447 H   0  0  0  0  0  0  0  0  0  0  0  0
  151.3511  136.7553  155.3344 H   0  0  0  0  0  0  0  0  0  0  0  0
  151.8461  138.9167  154.1918 H   0  0  0  0  0  0  0  0  0  0  0  0
  151.6658  140.4119  156.1776 H   0  0  0  0  0  0  0  0  0  0  0  0
  150.6466  140.9913  154.8821 H   0  0  0  0  0  0  0  0  0  0  0  0
  149.4027  141.0033  157.0427 H   0  0  0  0  0  0  0  0  0  0  0  0
  148.9080  138.8577  158.2091 H   0  0  0  0  0  0  0  0  0  0  0  0
  150.6317  139.1427  158.1573 H   0  0  0  0  0  0  0  0  0  0  0  0
  148.1412  140.5976  154.9761 H   0  0  0  0  0  0  0  0  0  0  0  0
  147.4063  139.7235  156.2966 H   0  0  0  0  0  0  0  0  0  0  0  0
  149.8932  137.6178  153.4240 H   0  0  0  0  0  0  0  0  0  0  0  0
  149.6036  139.3276  153.2409 H   0  0  0  0  0  0  0  0  0  0  0  0
  1  2  1  0  0  0  0
  1 27  1  0  0  0  0
  1 28  1  0  0  0  0
  1 29  1  0  0  0  0
  2  3  1  0  0  0  0
  2 30  1  0  0  0  0
  2 31  1  0  0  0  0
  3  4  1  0  0  0  0
  3 16  1  0  0  0  0
  3 32  1  0  0  0  0
  4  5  1  0  0  0  0
  4 33  1  0  0  0  0
  5  6  2  0  0  0  0
  5  7  1  0  0  0  0
  7  8  1  0  0  0  0
  7 34  1  0  0  0  0
  7 35  1  0  0  0  0
  8 14  1  0  0  0  0
  8  9  1  0  0  0  0
  9 10  2  0  0  0  0
  9 36  1  0  0  0  0
 10 11  1  0  0  0  0
 10 37  1  0  0  0  0
 11 12  2  0  0  0  0
 11 13  1  0  0  0  0
 13 26  1  0  0  0  0
 13 14  1  0  0  0  0
 14 15  2  0  0  0  0
 16 24  1  0  0  0  0
 16 25  1  0  0  0  0
 16 17  1  0  0  0  0
 17 18  1  0  0  0  0
 17 38  1  0  0  0  0
 17 39  1  0  0  0  0
 18 23  1  0  0  0  0
 18 19  1  0  0  0  0
 18 40  1  0  0  0  0
 19 20  1  0  0  0  0
 19 41  1  0  0  0  0
 19 42  1  0  0  0  0
 20 21  1  0  0  0  0
 20 25  1  0  0  0  0
 20 43  1  0  0  0  0
 21 22  1  0  0  0  0
 21 44  1  0  0  0  0
 21 45  1  0  0  0  0
 22 23  1  0  0  0  0
 22 24  1  0  0  0  0
 22 46  1  0  0  0  0
 23 47  1  0  0  0  0
 23 48  1  0  0  0  0
 24 49  1  0  0  0  0
 24 50  1  0  0  0  0
 25 51  1  0  0  0  0
 25 52  1  0  0  0  0
M  END
> <s_m_source_file>
AV-unprocessed.smi

> <i_m_source_file_index>
1591

> <i_lp_mmshare_version>
43012

> <i_f3d_flags>
0

> <s_epik_input>
W0NIMl0xW0NASF0oW0NIMl0yKVtDSDJdW0NASF0oW0NIMl0zKVtDSDJdW0NAQEhdMVtDSDJdQzIzW0NASF0oW0NIMl1bQ0gzXSlbTkhdQyg9TylbQ0gyXW40W2NIXVtjSF1jKD1PKVtuSF1jND1P

> <s_epik_cmdline>
J2VwaWtfcHl0aG9uJywgJy1waCcsICc3LjAnLCAnLXRuJywgJzgnLCAnLW1hJywgJzIwMCcsICctbWV0YWxfYmluZGluZycsICctaW1hZScsICc8aW5maWxlLm1hZT4nLCAnLW9tYWUnLCAnPG91dGZpbGUubWFlPic=

> <r_lp_tautomer_probability>
0.999537

> <r_epik_Ionization_Penalty>
0.00297067

> <r_epik_Ionization_Penalty_Charging>
0.00297065

> <r_epik_Ionization_Penalty_Neutral>
1.95363e-08

> <r_epik_State_Penalty>
0.00208437

> <r_epik_Charging_Adjusted_Penalty>
0.00505502

> <i_epik_Tot_Q>
0

> <i_epik_Tot_abs_Q>
0

> <r_epik_Metal_State_Penalty>
0.36072

> <b_epik_Metal_Only>
0

> <s_lp_Force_Field>
OPLS_2005

> <r_lp_Energy>
36.0514

> <b_lp_Chiralities_Consistent>
1

> <s_lp_Variant>
AV-unprocessed.smi:1591-2

> <Gold.Version>
5.8.1

> <Gold.Id.Protein>
6NUR|6NUR_protein|mol2

> <Gold.PLP.Fitness>
40.1776

> <Gold.PLP.PLP>
-33.3967

> <Gold.PLP.part.hbond>
-3.0000

> <Gold.PLP.part.metal>
0.0000

> <Gold.PLP.part.buried>
-0.4954

> <Gold.PLP.part.nonpolar>
-29.6590

> <Gold.PLP.part.repulsive>
0.6407

> <Gold.PLP.ligand.clash>
0.0000

> <Gold.PLP.ligand.torsion>
0.6499

> <Gold.PLP.Chemscore.Hbond>
1.8160

> <Gold.PLP.Chemscore.CHOScore>
0.8133

> <Gold.PLP.Chemscore.Metal>
0.0000

> <Gold.Chemscore.Hbonds>
donor molecule, donor type, donor heavy atom, donor atom, acceptor molecule, acceptor atom, score
      L1  H    13    26       P1 10186  0.98
      P1  H 10785 10796       L1    12  0.86
      L1  C     9    36       P1 10747  0.76

> <Gold.PLP.Chemscore.Internal.Correction>
0.1927

> <Gold.Rescore>
     Score         DG    S(hbond)    S(metal)    S(lipo)     H(rot)  DE(clash)    DE(int)     intcor
      9.38     -15.12       1.59        0.00      81.58       2.04       0.87       4.87       ----

> <Gold.Chemscore.Fitness>
9.3781

> <Gold.Chemscore.DG>
-15.1239

> <Gold.Chemscore.ZeroCoef>
-5.4800

> <Gold.Chemscore.Hbond>
1.5939

> <Gold.Chemscore.Metal>
0.0000

> <Gold.Chemscore.Lipo>
81.5812

> <Gold.Chemscore.Internal_Hbond>
0.0000

> <Gold.Chemscore.DEClash>
0.8718

> <Gold.Chemscore.DEInternal>
4.8740

> <Gold.Chemscore.Rot>
2.0409

> <Gold.Chemscore.Internal.Correction>
   9.000000E+99

> <Gold.Chemscore.Hbonds>
donor molecule, donor type, donor heavy atom, donor atom, acceptor molecule, acceptor atom, score
      L1  H    13    26       P1 10186  0.85
      P1  H 10785 10796       L1    12  0.84

> <Gold.Chemscore.Hbond.Weighted>
-5.3235

> <Gold.Chemscore.Metal.Weighted>
-0.0000

> <Gold.Chemscore.Lipo.Weighted>
-9.5450

> <Gold.Chemscore.Internal_Hbond.Weighted>
0.0000

> <Gold.Chemscore.DEClash.Weighted>
0.8718

> <Gold.Chemscore.DEInternal.Weighted>
4.8740

> <Gold.Chemscore.Rot.Weighted>
5.2246

> <Gold.Chemscore.Internal.Correction.Weighted>
   9.000000E+99

> <Gold.Protein.RotatedTorsions>
[ 6907 6896 6895 6894 ] final  -46.90 input  -60.11 | X-H torsion
[ 7974 7965 7964 7962 ] final  164.13 input  175.53 | X-H torsion
[ 8008 7997 7996 7995 ] final  152.83 input   59.86 | X-H torsion
[ 10167 10162 10161 10158 ] final    8.00 input  -65.29 | X-H torsion
[ 10718 10713 10712 10709 ] final  135.25 input   66.30 | X-H torsion
[ 10763 10752 10751 10750 ] final   23.25 input  -60.55 | X-H torsion
[ 11005 11000 10999 10996 ] final   62.83 input  -57.11 | X-H torsion

> <Gold.Protein.ActiveResidues>
 VAL166  LYS551  ARG553  GLY616  TRP617  ASP618  TYR619  PRO620  LYS621  CYS622 
 ASP623  PHE694  ASN695  SER759  ASP760  ASP761  ALA762  ILE779  LEU786  VAL792 
 PHE793  MET794  SER795  GLU796  ALA797  LYS798  CYS799  TRP800  GLU811  SER814 

> <Gold.Protein.RotatedAtoms>
  150.9064  134.8479  159.7395 H   0  0  0  0  0  0  0  0  0  0  0  0  # atno 6907 bound_to 6896
  152.4921  134.4425  159.9558 H   0  0  0  0  0  0  0  0  0  0  0  0  # atno 6908 bound_to 6896
  151.4471  133.3588  159.2825 H   0  0  0  0  0  0  0  0  0  0  0  0  # atno 6909 bound_to 6896
  144.7558  139.8282  143.6350 H   0  0  0  0  0  0  0  0  0  0  0  0  # atno 7974 bound_to 7965
  156.2611  140.2010  156.6394 H   0  0  0  0  0  0  0  0  0  0  0  0  # atno 8008 bound_to 7997
  154.6621  140.0559  157.0098 H   0  0  0  0  0  0  0  0  0  0  0  0  # atno 8009 bound_to 7997
  155.1261  140.3229  155.4488 H   0  0  0  0  0  0  0  0  0  0  0  0  # atno 8010 bound_to 7997
  140.6339  143.7930  150.7333 H   0  0  0  0  0  0  0  0  0  0  0  0  # atno 10167 bound_to 10162
  157.4590  131.1072  150.9943 H   0  0  0  0  0  0  0  0  0  0  0  0  # atno 10718 bound_to 10713
  153.0852  135.6631  153.9963 H   0  0  0  0  0  0  0  0  0  0  0  0  # atno 10763 bound_to 10752
  153.9574  135.2977  155.3437 H   0  0  0  0  0  0  0  0  0  0  0  0  # atno 10764 bound_to 10752
  154.7259  135.5144  153.8958 H   0  0  0  0  0  0  0  0  0  0  0  0  # atno 10765 bound_to 10752
  140.0065  134.6361  155.9847 H   0  0  0  0  0  0  0  0  0  0  0  0  # atno 11005 bound_to 11000
  146.1567  139.4667  143.0014 LP  0  0  0  0  0  0  0  0  0  0  0  0  # atno 17320 bound_to 7965
  145.6783  141.0198  143.1620 LP  0  0  0  0  0  0  0  0  0  0  0  0  # atno 17321 bound_to 7965
  140.1547  143.4327  152.2107 LP  0  0  0  0  0  0  0  0  0  0  0  0  # atno 17342 bound_to 10162
  139.5551  144.7367  151.4318 LP  0  0  0  0  0  0  0  0  0  0  0  0  # atno 17343 bound_to 10162
  157.0747  130.5878  149.5409 LP  0  0  0  0  0  0  0  0  0  0  0  0  # atno 17370 bound_to 10713
  156.0020  130.5101  150.7697 LP  0  0  0  0  0  0  0  0  0  0  0  0  # atno 17371 bound_to 10713
  141.1681  133.6537  156.4551 LP  0  0  0  0  0  0  0  0  0  0  0  0  # atno 17394 bound_to 11000
  140.4631  134.6823  157.5095 LP  0  0  0  0  0  0  0  0  0  0  0  0  # atno 17395 bound_to 11000

$$$$
