AV-unprocessed.smi:1491|AV-procd|sdf|6035|dock6
  -GOLD-   22720 6143D 1   1.00000     0.00000
 Structure written by MMmdl.
 38 39  0  0  0  0  0  0  0  0  1 V2000
  146.1093  136.6183  153.4864 O   0  0  0  0  0  0  0  0  0  0  0  0
  145.6073  137.4336  152.7123 C   0  0  0  0  0  0  0  0  0  0  0  0
  144.8027  137.1051  151.6915 N   0  0  0  0  0  0  0  0  0  0  0  0
  144.3587  135.7513  151.3719 C   0  0  0  0  0  0  0  0  0  0  0  0
  145.5297  134.8532  150.9324 C   0  0  0  0  0  0  0  0  0  0  0  0
  145.1294  133.4738  150.7263 N   0  0  0  0  0  0  0  0  0  0  0  0
  143.8342  132.9830  150.6214 C   0  0  0  0  0  0  0  0  0  0  0  0
  143.9428  131.6231  150.4385 C   0  0  0  0  0  0  0  0  0  0  0  0
  145.2868  131.2581  150.4226 N   0  0  0  0  0  0  0  0  0  0  0  0
  145.9288  132.4059  150.5983 C   0  0  0  0  0  0  0  0  0  0  0  0
  145.7859  138.7591  152.7960 N   0  0  0  0  0  0  0  0  0  0  0  0
  146.5808  139.4394  153.8136 C   0  0  2  0  0  0  0  0  0  0  0  0
  146.7821  140.9118  153.4128 C   0  0  0  0  0  0  0  0  0  0  0  0
  147.6601  141.6585  154.4322 C   0  0  0  0  0  0  0  0  0  0  0  0
  149.0120  140.9571  154.6620 C   0  0  2  0  0  0  0  0  0  0  0  0
  149.8245  141.0839  153.5118 O   0  0  0  0  0  0  0  0  0  0  0  0
  148.8252  139.4697  155.0170 C   0  0  0  0  0  0  0  0  0  0  0  0
  147.9377  138.7322  153.9990 C   0  0  0  0  0  0  0  0  0  0  0  0
  144.4455  137.8494  151.1108 H   0  0  0  0  0  0  0  0  0  0  0  0
  143.9054  135.3344  152.2712 H   0  0  0  0  0  0  0  0  0  0  0  0
  143.5735  135.7590  150.6139 H   0  0  0  0  0  0  0  0  0  0  0  0
  145.9786  135.2323  150.0133 H   0  0  0  0  0  0  0  0  0  0  0  0
  146.3128  134.8680  151.6912 H   0  0  0  0  0  0  0  0  0  0  0  0
  142.9670  133.6230  150.6906 H   0  0  0  0  0  0  0  0  0  0  0  0
  143.1633  130.8852  150.3182 H   0  0  0  0  0  0  0  0  0  0  0  0
  147.0061  132.4714  150.6383 H   0  0  0  0  0  0  0  0  0  0  0  0
  145.3291  139.3445  152.1120 H   0  0  0  0  0  0  0  0  0  0  0  0
  146.0421  139.4214  154.7633 H   0  0  0  0  0  0  0  0  0  0  0  0
  147.2427  140.9684  152.4253 H   0  0  0  0  0  0  0  0  0  0  0  0
  145.8160  141.4111  153.3299 H   0  0  0  0  0  0  0  0  0  0  0  0
  147.8180  142.6879  154.1087 H   0  0  0  0  0  0  0  0  0  0  0  0
  147.1252  141.7174  155.3808 H   0  0  0  0  0  0  0  0  0  0  0  0
  149.5369  141.4555  155.4776 H   0  0  0  0  0  0  0  0  0  0  0  0
  149.6360  140.3637  152.9299 H   0  0  0  0  0  0  0  0  0  0  0  0
  149.7936  138.9746  155.0974 H   0  0  0  0  0  0  0  0  0  0  0  0
  148.3647  139.3962  156.0031 H   0  0  0  0  0  0  0  0  0  0  0  0
  147.7826  137.7046  154.3296 H   0  0  0  0  0  0  0  0  0  0  0  0
  148.4563  138.6713  153.0412 H   0  0  0  0  0  0  0  0  0  0  0  0
  1  2  2  0  0  0  0
  2  3  1  0  0  0  0
  2 11  1  0  0  0  0
  3  4  1  0  0  0  0
  3 19  1  0  0  0  0
  4  5  1  0  0  0  0
  4 20  1  0  0  0  0
  4 21  1  0  0  0  0
  5  6  1  0  0  0  0
  5 22  1  0  0  0  0
  5 23  1  0  0  0  0
  6 10  1  0  0  0  0
  6  7  1  0  0  0  0
  7  8  2  0  0  0  0
  7 24  1  0  0  0  0
  8  9  1  0  0  0  0
  8 25  1  0  0  0  0
  9 10  2  0  0  0  0
 10 26  1  0  0  0  0
 11 12  1  0  0  0  0
 11 27  1  0  0  0  0
 12 18  1  0  0  0  0
 12 13  1  0  0  0  0
 12 28  1  0  0  0  0
 13 14  1  0  0  0  0
 13 29  1  0  0  0  0
 13 30  1  0  0  0  0
 14 15  1  0  0  0  0
 14 31  1  0  0  0  0
 14 32  1  0  0  0  0
 15 16  1  0  0  0  0
 15 17  1  0  0  0  0
 15 33  1  0  0  0  0
 16 34  1  0  0  0  0
 17 18  1  0  0  0  0
 17 35  1  0  0  0  0
 17 36  1  0  0  0  0
 18 37  1  0  0  0  0
 18 38  1  0  0  0  0
M  END
> <s_m_source_file>
AV-unprocessed.smi

> <i_m_source_file_index>
1491

> <i_lp_mmshare_version>
43012

> <i_f3d_flags>
0

> <s_epik_input>
W0NIMl0xW0NIMl1bQ0BIXShbT0hdKVtDSDJdW0NIMl1bQ0BIXTFbTkhdQyg9TylbTkhdW0NIMl1bQ0gyXW4yW2NIXVtjSF1uW2NIXTI=

> <s_epik_cmdline>
J2VwaWtfcHl0aG9uJywgJy1waCcsICc3LjAnLCAnLXRuJywgJzgnLCAnLW1hJywgJzIwMCcsICctbWV0YWxfYmluZGluZycsICctaW1hZScsICc8aW5maWxlLm1hZT4nLCAnLW9tYWUnLCAnPG91dGZpbGUubWFlPic=

> <r_lp_tautomer_probability>
1

> <r_epik_Ionization_Penalty>
0.623245

> <r_epik_Ionization_Penalty_Charging>
0.623187

> <r_epik_Ionization_Penalty_Neutral>
5.75214e-05

> <r_epik_State_Penalty>
0.639392

> <r_epik_Charging_Adjusted_Penalty>
1.26258

> <i_epik_Tot_Q>
0

> <i_epik_Tot_abs_Q>
0

> <r_epik_Metal_State_Penalty>
0.307266

> <b_epik_Metal_Only>
0

> <s_lp_Force_Field>
OPLS_2005

> <r_lp_Energy>
9.71392

> <b_lp_Chiralities_Consistent>
1

> <s_lp_Variant>
AV-unprocessed.smi:1491-4

> <Gold.Version>
5.8.1

> <Gold.Id.Protein>
6NUR|6NUR_protein|mol2

> <Gold.PLP.Fitness>
49.3929

> <Gold.PLP.PLP>
-31.0650

> <Gold.PLP.part.hbond>
-4.3355

> <Gold.PLP.part.metal>
0.0000

> <Gold.PLP.part.buried>
-2.5312

> <Gold.PLP.part.nonpolar>
-25.4826

> <Gold.PLP.part.repulsive>
0.2564

> <Gold.PLP.ligand.clash>
0.0000

> <Gold.PLP.ligand.torsion>
0.3326

> <Gold.PLP.Chemscore.Hbond>
3.4352

> <Gold.PLP.Chemscore.CHOScore>
2.8894

> <Gold.PLP.Chemscore.Metal>
0.0000

> <Gold.Chemscore.Hbonds>
donor molecule, donor type, donor heavy atom, donor atom, acceptor molecule, acceptor atom, score
      L1  H     3    19       P1 10171  1.00
      L1  H    11    27       P1 10175  0.51
      L1  H    16    34       P1  7957  0.75
      P1  H  7989  7998       L1    16  0.18
      P1  H  8011  8017       L1    16  0.94
      L1  C     7    24       P1 10186  1.00
      L1  C     8    25       P1 10952  1.00
      L1  C    10    26       P1 10747  0.91

> <Gold.PLP.Chemscore.Internal.Correction>
0.0194

> <Gold.Rescore>
     Score         DG    S(hbond)    S(metal)    S(lipo)     H(rot)  DE(clash)    DE(int)     intcor
     14.03     -16.92       3.05        0.00      67.13       2.57       1.08       1.82       ----

> <Gold.Chemscore.Fitness>
14.0267

> <Gold.Chemscore.DG>
-16.9245

> <Gold.Chemscore.ZeroCoef>
-5.4800

> <Gold.Chemscore.Hbond>
3.0476

> <Gold.Chemscore.Metal>
0.0000

> <Gold.Chemscore.Lipo>
67.1328

> <Gold.Chemscore.Internal_Hbond>
0.0000

> <Gold.Chemscore.DEClash>
1.0793

> <Gold.Chemscore.DEInternal>
1.8185

> <Gold.Chemscore.Rot>
2.5738

> <Gold.Chemscore.Internal.Correction>
   9.000000E+99

> <Gold.Chemscore.Hbonds>
donor molecule, donor type, donor heavy atom, donor atom, acceptor molecule, acceptor atom, score
      L1  H     3    19       P1 10171  0.98
      L1  H    11    27       P1 10175  0.49
      L1  H    16    34       P1  7957  0.76
      P1  H  7989  7998       L1    16  0.03
      P1  H  8011  8017       L1    16  0.20

> <Gold.Chemscore.Hbond.Weighted>
-10.1789

> <Gold.Chemscore.Metal.Weighted>
-0.0000

> <Gold.Chemscore.Lipo.Weighted>
-7.8545

> <Gold.Chemscore.Internal_Hbond.Weighted>
0.0000

> <Gold.Chemscore.DEClash.Weighted>
1.0793

> <Gold.Chemscore.DEInternal.Weighted>
1.8185

> <Gold.Chemscore.Rot.Weighted>
6.5890

> <Gold.Chemscore.Internal.Correction.Weighted>
   9.000000E+99

> <Gold.Protein.RotatedTorsions>
[ 6907 6896 6895 6894 ] final  178.52 input  -60.11 | X-H torsion
[ 7974 7965 7964 7962 ] final  151.66 input  175.53 | X-H torsion
[ 8008 7997 7996 7995 ] final  -60.63 input   59.86 | X-H torsion
[ 10167 10162 10161 10158 ] final  173.61 input  -65.29 | X-H torsion
[ 10718 10713 10712 10709 ] final -149.16 input   66.30 | X-H torsion
[ 10763 10752 10751 10750 ] final -161.66 input  -60.55 | X-H torsion
[ 11005 11000 10999 10996 ] final   94.96 input  -57.11 | X-H torsion

> <Gold.Protein.ActiveResidues>
 VAL166  LYS551  ARG553  GLY616  TRP617  ASP618  TYR619  PRO620  LYS621  CYS622 
 ASP623  PHE694  ASN695  SER759  ASP760  ASP761  ALA762  ILE779  LEU786  VAL792 
 PHE793  MET794  SER795  GLU796  ALA797  LYS798  CYS799  TRP800  GLU811  SER814 

> <Gold.Protein.RotatedAtoms>
  151.6866  133.3311  159.3232 H   0  0  0  0  0  0  0  0  0  0  0  0  # atno 6907 bound_to 6896
  150.7798  134.6735  159.6414 H   0  0  0  0  0  0  0  0  0  0  0  0  # atno 6908 bound_to 6896
  152.3852  134.6531  160.0180 H   0  0  0  0  0  0  0  0  0  0  0  0  # atno 6909 bound_to 6896
  144.8277  139.6567  143.6073 H   0  0  0  0  0  0  0  0  0  0  0  0  # atno 7974 bound_to 7965
  154.4408  140.1035  156.6303 H   0  0  0  0  0  0  0  0  0  0  0  0  # atno 8008 bound_to 7997
  155.5611  140.3487  155.4473 H   0  0  0  0  0  0  0  0  0  0  0  0  # atno 8009 bound_to 7997
  156.0459  140.1292  157.0094 H   0  0  0  0  0  0  0  0  0  0  0  0  # atno 8010 bound_to 7997
  139.5114  144.3241  152.0174 H   0  0  0  0  0  0  0  0  0  0  0  0  # atno 10167 bound_to 10162
  156.4295  130.8069  151.2295 H   0  0  0  0  0  0  0  0  0  0  0  0  # atno 10718 bound_to 10713
  154.7283  135.3041  154.8933 H   0  0  0  0  0  0  0  0  0  0  0  0  # atno 10763 bound_to 10752
  153.9784  135.6733  153.4753 H   0  0  0  0  0  0  0  0  0  0  0  0  # atno 10764 bound_to 10752
  153.0895  135.4966  154.8583 H   0  0  0  0  0  0  0  0  0  0  0  0  # atno 10765 bound_to 10752
  139.8793  134.8873  156.3941 H   0  0  0  0  0  0  0  0  0  0  0  0  # atno 11005 bound_to 11000
  146.2581  139.6348  142.9381 LP  0  0  0  0  0  0  0  0  0  0  0  0  # atno 17320 bound_to 7965
  145.4965  141.0438  143.2564 LP  0  0  0  0  0  0  0  0  0  0  0  0  # atno 17321 bound_to 7965
  140.2682  144.3993  150.6161 LP  0  0  0  0  0  0  0  0  0  0  0  0  # atno 17342 bound_to 10162
  140.6108  143.2169  151.6890 LP  0  0  0  0  0  0  0  0  0  0  0  0  # atno 17343 bound_to 10162
  157.7508  131.0202  150.3701 LP  0  0  0  0  0  0  0  0  0  0  0  0  # atno 17370 bound_to 10713
  156.4035  130.3920  149.6942 LP  0  0  0  0  0  0  0  0  0  0  0  0  # atno 17371 bound_to 10713
  140.9312  133.7578  156.0027 LP  0  0  0  0  0  0  0  0  0  0  0  0  # atno 17394 bound_to 11000
  140.8328  134.3158  157.5342 LP  0  0  0  0  0  0  0  0  0  0  0  0  # atno 17395 bound_to 11000

$$$$
