AV-unprocessed.smi:282|AV-procd|sdf|2119|dock2
  -GOLD-   2262021413D 1   1.00000     0.00000
 Structure written by MMmdl.
 65 69  0  0  0  0  0  0  0  0  2 V2000
  141.3120  135.1876  153.5478 C   0  0  0  0  0  0  0  0  0  0  0  0
  142.7859  135.5511  153.7744 C   0  0  0  0  0  0  0  0  0  0  0  0
  143.6960  135.3348  152.5356 C   0  0  2  0  0  0  0  0  0  0  0  0
  143.3946  133.9744  151.8637 C   0  0  0  0  0  0  0  0  0  0  0  0
  144.3103  133.6884  150.7288 N   0  3  2  0  0  0  0  0  0  0  0  0
  144.0011  132.4183  150.0208 C   0  0  0  0  0  0  0  0  0  0  0  0
  144.4551  131.1811  150.8201 C   0  0  0  0  0  0  0  0  0  0  0  0
  145.9418  131.2767  151.1915 C   0  0  0  0  0  0  0  0  0  0  0  0
  146.2302  132.5979  151.9192 C   0  0  0  0  0  0  0  0  0  0  0  0
  145.7520  133.8041  151.0814 C   0  0  2  0  0  0  0  0  0  0  0  0
  146.0385  135.1546  151.7579 C   0  0  0  0  0  0  0  0  0  0  0  0
  145.1254  135.4136  152.8675 N   0  0  0  0  0  0  0  0  0  0  0  0
  145.5075  136.5092  153.5617 C   0  0  0  0  0  0  0  0  0  0  0  0
  144.6636  137.5673  153.6842 N   0  0  0  0  0  0  0  0  0  0  0  0
  145.0439  138.6420  154.3829 C   0  0  0  0  0  0  0  0  0  0  0  0
  146.1960  138.8575  155.0231 N   0  0  0  0  0  0  0  0  0  0  0  0
  147.0411  137.7933  154.8995 C   0  0  0  0  0  0  0  0  0  0  0  0
  146.7753  136.5887  154.1923 C   0  0  0  0  0  0  0  0  0  0  0  0
  147.8566  135.7244  154.2910 N   0  0  0  0  0  0  0  0  0  0  0  0
  148.7153  136.3805  155.0228 C   0  0  0  0  0  0  0  0  0  0  0  0
  148.3156  137.6386  155.4181 N   0  0  0  0  0  0  0  0  0  0  0  0
  149.0686  138.5750  156.2406 C   0  0  0  0  0  0  0  0  0  0  0  0
  149.8188  139.6963  155.4540 C   0  0  0  0  0  0  0  0  0  0  0  0
  148.7916  140.4401  154.5554 C   0  0  0  0  0  0  0  0  0  0  0  0
  149.3767  141.0566  153.4251 O   0  0  0  0  0  0  0  0  0  0  0  0
  150.4565  140.6810  156.4679 C   0  0  0  0  0  0  0  0  0  0  0  0
  151.6614  140.0720  157.2117 C   0  0  0  0  0  0  0  0  0  0  0  0
  152.6286  139.6016  156.2805 O   0  0  0  0  0  0  0  0  0  0  0  0
  152.1295  138.5790  155.4271 C   0  0  0  0  0  0  0  0  0  0  0  0
  150.9672  139.1276  154.5804 C   0  0  0  0  0  0  0  0  0  0  0  0
  140.7116  135.4683  154.4134 H   0  0  0  0  0  0  0  0  0  0  0  0
  141.1754  134.1173  153.3957 H   0  0  0  0  0  0  0  0  0  0  0  0
  140.9064  135.7097  152.6808 H   0  0  0  0  0  0  0  0  0  0  0  0
  142.8050  136.5978  154.0787 H   0  0  0  0  0  0  0  0  0  0  0  0
  143.1736  134.9847  154.6223 H   0  0  0  0  0  0  0  0  0  0  0  0
  143.4853  136.1245  151.8128 H   0  0  0  0  0  0  0  0  0  0  0  0
  143.4617  133.1790  152.6062 H   0  0  0  0  0  0  0  0  0  0  0  0
  142.3733  133.9620  151.4835 H   0  0  0  0  0  0  0  0  0  0  0  0
  142.9344  132.3619  149.8019 H   0  0  0  0  0  0  0  0  0  0  0  0
  144.5100  132.4321  149.0562 H   0  0  0  0  0  0  0  0  0  0  0  0
  143.8559  131.0762  151.7250 H   0  0  0  0  0  0  0  0  0  0  0  0
  144.2784  130.2783  150.2347 H   0  0  0  0  0  0  0  0  0  0  0  0
  146.2289  130.4311  151.8170 H   0  0  0  0  0  0  0  0  0  0  0  0
  146.5494  131.2158  150.2877 H   0  0  0  0  0  0  0  0  0  0  0  0
  145.7446  132.5939  152.8957 H   0  0  0  0  0  0  0  0  0  0  0  0
  147.3001  132.6805  152.1131 H   0  0  0  0  0  0  0  0  0  0  0  0
  146.3126  133.7898  150.1453 H   0  0  0  0  0  0  0  0  0  0  0  0
  147.0727  135.1849  152.1055 H   0  0  0  0  0  0  0  0  0  0  0  0
  145.9330  135.9519  151.0205 H   0  0  0  0  0  0  0  0  0  0  0  0
  144.3214  139.4429  154.4389 H   0  0  0  0  0  0  0  0  0  0  0  0
  149.6741  135.9624  155.2928 H   0  0  0  0  0  0  0  0  0  0  0  0
  148.3754  139.0266  156.9518 H   0  0  0  0  0  0  0  0  0  0  0  0
  149.7545  137.9857  156.8466 H   0  0  0  0  0  0  0  0  0  0  0  0
  148.0294  139.7532  154.1880 H   0  0  0  0  0  0  0  0  0  0  0  0
  148.2734  141.2096  155.1284 H   0  0  0  0  0  0  0  0  0  0  0  0
  149.4069  140.4270  152.7208 H   0  0  0  0  0  0  0  0  0  0  0  0
  150.8122  141.5739  155.9532 H   0  0  0  0  0  0  0  0  0  0  0  0
  149.7112  141.0265  157.1851 H   0  0  0  0  0  0  0  0  0  0  0  0
  152.1282  140.8313  157.8393 H   0  0  0  0  0  0  0  0  0  0  0  0
  151.3606  139.2649  157.8797 H   0  0  0  0  0  0  0  0  0  0  0  0
  152.9373  138.2475  154.7745 H   0  0  0  0  0  0  0  0  0  0  0  0
  151.8276  137.7113  156.0140 H   0  0  0  0  0  0  0  0  0  0  0  0
  150.6023  138.3643  153.8944 H   0  0  0  0  0  0  0  0  0  0  0  0
  151.3727  139.9158  153.9452 H   0  0  0  0  0  0  0  0  0  0  0  0
  144.1331  134.4258  150.0615 H   0  0  0  0  0  0  0  0  0  0  0  0
  1  2  1  0  0  0  0
  1 31  1  0  0  0  0
  1 32  1  0  0  0  0
  1 33  1  0  0  0  0
  2  3  1  0  0  0  0
  2 34  1  0  0  0  0
  2 35  1  0  0  0  0
  3 12  1  0  0  0  0
  3  4  1  0  0  0  0
  3 36  1  0  0  0  0
  4  5  1  0  0  0  0
  4 37  1  0  0  0  0
  4 38  1  0  0  0  0
  5 10  1  0  0  0  0
  5  6  1  0  0  0  0
  5 65  1  0  0  0  0
  6  7  1  0  0  0  0
  6 39  1  0  0  0  0
  6 40  1  0  0  0  0
  7  8  1  0  0  0  0
  7 41  1  0  0  0  0
  7 42  1  0  0  0  0
  8  9  1  0  0  0  0
  8 43  1  0  0  0  0
  8 44  1  0  0  0  0
  9 10  1  0  0  0  0
  9 45  1  0  0  0  0
  9 46  1  0  0  0  0
 10 11  1  0  0  0  0
 10 47  1  0  0  0  0
 11 12  1  0  0  0  0
 11 48  1  0  0  0  0
 11 49  1  0  0  0  0
 12 13  1  0  0  0  0
 13 18  1  0  0  0  0
 13 14  2  0  0  0  0
 14 15  1  0  0  0  0
 15 16  2  0  0  0  0
 15 50  1  0  0  0  0
 16 17  1  0  0  0  0
 17 21  1  0  0  0  0
 17 18  2  0  0  0  0
 18 19  1  0  0  0  0
 19 20  2  0  0  0  0
 20 21  1  0  0  0  0
 20 51  1  0  0  0  0
 21 22  1  0  0  0  0
 22 23  1  0  0  0  0
 22 52  1  0  0  0  0
 22 53  1  0  0  0  0
 23 30  1  0  0  0  0
 23 24  1  0  0  0  0
 23 26  1  0  0  0  0
 24 25  1  0  0  0  0
 24 54  1  0  0  0  0
 24 55  1  0  0  0  0
 25 56  1  0  0  0  0
 26 27  1  0  0  0  0
 26 57  1  0  0  0  0
 26 58  1  0  0  0  0
 27 28  1  0  0  0  0
 27 59  1  0  0  0  0
 27 60  1  0  0  0  0
 28 29  1  0  0  0  0
 29 30  1  0  0  0  0
 29 61  1  0  0  0  0
 29 62  1  0  0  0  0
 30 63  1  0  0  0  0
 30 64  1  0  0  0  0
M  CHG  1   5   1
M  END
> <s_m_source_file>
AV-unprocessed.smi

> <i_m_source_file_index>
282

> <i_lp_mmshare_version>
43012

> <i_f3d_flags>
0

> <s_epik_input>
W0NIMl0xW0NIMl1bQ0gyXVtDSDJdW0NAQEhdKE4xMilbQ0gyXU4oW0NAQEhdKFtDSDJdMilbQ0gyXVtDSDNdKWMobltjSF1uMyljKGMzNCluW2NIXW40W0NIMl1DNShbQ0gyXVtPSF0pW0NIMl1bQ0gyXU9bQ0gyXVtDSDJdNQ==

> <s_epik_cmdline>
J2VwaWtfcHl0aG9uJywgJy1waCcsICc3LjAnLCAnLXRuJywgJzgnLCAnLW1hJywgJzIwMCcsICctbWV0YWxfYmluZGluZycsICctaW1hZScsICc8aW5maWxlLm1hZT4nLCAnLW9tYWUnLCAnPG91dGZpbGUubWFlPic=

> <r_lp_tautomer_probability>
1

> <r_epik_Ionization_Penalty>
0.00308583

> <r_epik_Ionization_Penalty_Charging>
0.00300384

> <r_epik_Ionization_Penalty_Neutral>
8.19894e-05

> <r_epik_State_Penalty>
-0

> <r_epik_Charging_Adjusted_Penalty>
0.00300384

> <i_epik_Tot_Q>
1

> <i_epik_Tot_abs_Q>
1

> <r_epik_Metal_State_Penalty>
-0

> <b_epik_Metal_Only>
0

> <s_lp_Force_Field>
OPLS_2005

> <r_lp_Energy>
60.5871

> <b_lp_Chiralities_Consistent>
1

> <s_lp_Variant>
AV-unprocessed.smi:282-3

> <Gold.Version>
5.8.1

> <Gold.Id.Protein>
6NUR|6NUR_protein|mol2

> <Gold.PLP.Fitness>
47.8241

> <Gold.PLP.PLP>
-38.5731

> <Gold.PLP.part.hbond>
-3.5828

> <Gold.PLP.part.metal>
0.0000

> <Gold.PLP.part.buried>
-1.9061

> <Gold.PLP.part.nonpolar>
-34.2574

> <Gold.PLP.part.repulsive>
3.1175

> <Gold.PLP.ligand.clash>
0.0000

> <Gold.PLP.ligand.torsion>
1.0367

> <Gold.PLP.Chemscore.Hbond>
2.8579

> <Gold.PLP.Chemscore.CHOScore>
0.8260

> <Gold.PLP.Chemscore.Metal>
0.0000

> <Gold.Chemscore.Hbonds>
donor molecule, donor type, donor heavy atom, donor atom, acceptor molecule, acceptor atom, score
      L1  H    25    56       P1  7957  1.00
      P1  H  7989  7998       L1    25  0.03
      P1  H  7997  8008       L1    28  1.00
      P1  H  8011  8017       L1    25  0.60
      L1  C    15    50       P1 10175  0.78

> <Gold.PLP.Chemscore.Internal.Correction>
0.2726

> <Gold.Rescore>
     Score         DG    S(hbond)    S(metal)    S(lipo)     H(rot)  DE(clash)    DE(int)     intcor
     13.70     -18.01       1.97        0.00     104.47       2.46       1.41       2.89       ----

> <Gold.Chemscore.Fitness>
13.7008

> <Gold.Chemscore.DG>
-18.0059

> <Gold.Chemscore.ZeroCoef>
-5.4800

> <Gold.Chemscore.Hbond>
1.9745

> <Gold.Chemscore.Metal>
0.0000

> <Gold.Chemscore.Lipo>
104.4662

> <Gold.Chemscore.Internal_Hbond>
0.0000

> <Gold.Chemscore.DEClash>
1.4120

> <Gold.Chemscore.DEInternal>
2.8931

> <Gold.Chemscore.Rot>
2.4576

> <Gold.Chemscore.Internal.Correction>
   9.000000E+99

> <Gold.Chemscore.Hbonds>
donor molecule, donor type, donor heavy atom, donor atom, acceptor molecule, acceptor atom, score
      L1  H    25    56       P1  7957  0.95
      P1  H  7997  8008       L1    28  0.98
      P1  H  8011  8017       L1    25  0.04

> <Gold.Chemscore.Hbond.Weighted>
-6.5949

> <Gold.Chemscore.Metal.Weighted>
-0.0000

> <Gold.Chemscore.Lipo.Weighted>
-12.2225

> <Gold.Chemscore.Internal_Hbond.Weighted>
0.0000

> <Gold.Chemscore.DEClash.Weighted>
1.4120

> <Gold.Chemscore.DEInternal.Weighted>
2.8931

> <Gold.Chemscore.Rot.Weighted>
6.2915

> <Gold.Chemscore.Internal.Correction.Weighted>
   9.000000E+99

> <Gold.Protein.RotatedTorsions>
[ 6907 6896 6895 6894 ] final  -81.53 input  -60.11 | X-H torsion
[ 7974 7965 7964 7962 ] final  102.03 input  175.53 | X-H torsion
[ 8008 7997 7996 7995 ] final  -49.27 input   59.86 | X-H torsion
[ 10167 10162 10161 10158 ] final   15.85 input  -65.29 | X-H torsion
[ 10718 10713 10712 10709 ] final  -42.28 input   66.30 | X-H torsion
[ 10763 10752 10751 10750 ] final -136.49 input  -60.55 | X-H torsion
[ 11005 11000 10999 10996 ] final  -11.30 input  -57.11 | X-H torsion

> <Gold.Protein.ActiveResidues>
 VAL166  LYS551  ARG553  GLY616  TRP617  ASP618  TYR619  PRO620  LYS621  CYS622 
 ASP623  PHE694  ASN695  SER759  ASP760  ASP761  ALA762  ILE779  LEU786  VAL792 
 PHE793  MET794  SER795  GLU796  ALA797  LYS798  CYS799  TRP800  GLU811  SER814 

> <Gold.Protein.RotatedAtoms>
  150.6910  134.3803  159.5031 H   0  0  0  0  0  0  0  0  0  0  0  0  # atno 6907 bound_to 6896
  152.1607  134.8912  160.0551 H   0  0  0  0  0  0  0  0  0  0  0  0  # atno 6908 bound_to 6896
  151.9975  133.3778  159.4205 H   0  0  0  0  0  0  0  0  0  0  0  0  # atno 6909 bound_to 6896
  145.3645  139.2411  143.3488 H   0  0  0  0  0  0  0  0  0  0  0  0  # atno 7974 bound_to 7965
  154.4041  140.1301  156.4475 H   0  0  0  0  0  0  0  0  0  0  0  0  # atno 8008 bound_to 7997
  155.7399  140.3490  155.5079 H   0  0  0  0  0  0  0  0  0  0  0  0  # atno 8009 bound_to 7997
  155.9049  140.1026  157.1313 H   0  0  0  0  0  0  0  0  0  0  0  0  # atno 8010 bound_to 7997
  140.5839  143.8928  150.6813 H   0  0  0  0  0  0  0  0  0  0  0  0  # atno 10167 bound_to 10162
  156.2613  130.4197  149.8539 H   0  0  0  0  0  0  0  0  0  0  0  0  # atno 10718 bound_to 10713
  154.8682  135.3671  154.5069 H   0  0  0  0  0  0  0  0  0  0  0  0  # atno 10763 bound_to 10752
  153.5706  135.7021  153.5511 H   0  0  0  0  0  0  0  0  0  0  0  0  # atno 10764 bound_to 10752
  153.3545  135.4063  155.1635 H   0  0  0  0  0  0  0  0  0  0  0  0  # atno 10765 bound_to 10752
  140.7538  133.8570  155.9067 H   0  0  0  0  0  0  0  0  0  0  0  0  # atno 11005 bound_to 11000
  146.2912  140.4285  142.8738 LP  0  0  0  0  0  0  0  0  0  0  0  0  # atno 17320 bound_to 7965
  144.8621  140.7155  143.6100 LP  0  0  0  0  0  0  0  0  0  0  0  0  # atno 17321 bound_to 7965
  140.2434  143.3647  152.1467 LP  0  0  0  0  0  0  0  0  0  0  0  0  # atno 17342 bound_to 10162
  139.5186  144.7008  151.5500 LP  0  0  0  0  0  0  0  0  0  0  0  0  # atno 17343 bound_to 10162
  156.6054  130.8564  151.3441 LP  0  0  0  0  0  0  0  0  0  0  0  0  # atno 17370 bound_to 10713
  157.7251  130.9612  150.1602 LP  0  0  0  0  0  0  0  0  0  0  0  0  # atno 17371 bound_to 10713
  140.9726  134.1511  157.4563 LP  0  0  0  0  0  0  0  0  0  0  0  0  # atno 17394 bound_to 11000
  139.8783  134.9984  156.5896 LP  0  0  0  0  0  0  0  0  0  0  0  0  # atno 17395 bound_to 11000

$$$$
