AV-unprocessed.smi:533|AV-procd|sdf|2855|dock3
  -GOLD-   2262023343D 1   1.00000     0.00000
 Structure written by MMmdl.
 35 36  0  0  0  0  0  0  0  0  2 V2000
  152.3391  144.1032  160.2634 C   0  0  0  0  0  0  0  0  0  0  0  0
  152.7097  143.7229  158.8273 C   0  0  0  0  0  0  0  0  0  0  0  0
  152.2043  142.4104  158.4753 N   0  0  0  0  0  0  0  0  0  0  0  0
  152.4728  141.1471  158.9877 C   0  0  0  0  0  0  0  0  0  0  0  0
  153.3252  140.9031  159.9840 N   0  0  0  0  0  0  0  0  0  0  0  0
  153.2485  139.5233  160.1126 C   0  0  0  0  0  0  0  0  0  0  0  0
  152.3780  138.9869  159.2152 C   0  0  0  0  0  0  0  0  0  0  0  0
  152.0993  137.5383  159.1062 C   0  0  0  0  0  0  0  0  0  0  0  0
  151.3113  137.1023  158.2695 O   0  0  0  0  0  0  0  0  0  0  0  0
  152.8109  136.8064  160.0213 N   0  5  0  0  0  0  0  0  0  0  0  0
  153.6980  137.3079  160.9500 C   0  0  0  0  0  0  0  0  0  0  0  0
  154.2936  136.5695  161.7347 O   0  0  0  0  0  0  0  0  0  0  0  0
  153.9298  138.6588  161.0100 N   0  0  0  0  0  0  0  0  0  0  0  0
  154.8572  139.2698  161.9673 C   0  0  0  0  0  0  0  0  0  0  0  0
  151.8572  140.0529  158.4752 N   0  0  0  0  0  0  0  0  0  0  0  0
  150.8810  140.0229  157.3886 C   0  0  0  0  0  0  0  0  0  0  0  0
  151.4633  140.5523  156.0696 C   0  0  0  0  0  0  0  0  0  0  0  0
  150.5549  140.3159  155.0068 O   0  0  0  0  0  0  0  0  0  0  0  0
  150.4759  138.9483  154.6489 C   0  0  0  0  0  0  0  0  0  0  0  0
  152.7271  145.0909  160.5134 H   0  0  0  0  0  0  0  0  0  0  0  0
  152.7541  143.3929  160.9790 H   0  0  0  0  0  0  0  0  0  0  0  0
  151.2574  144.1268  160.3994 H   0  0  0  0  0  0  0  0  0  0  0  0
  152.3050  144.4550  158.1278 H   0  0  0  0  0  0  0  0  0  0  0  0
  153.7933  143.7277  158.7055 H   0  0  0  0  0  0  0  0  0  0  0  0
  151.5413  142.4204  157.7141 H   0  0  0  0  0  0  0  0  0  0  0  0
  155.3389  138.5628  162.6430 H   0  0  0  0  0  0  0  0  0  0  0  0
  154.3279  139.9969  162.5840 H   0  0  0  0  0  0  0  0  0  0  0  0
  155.6473  139.7970  161.4322 H   0  0  0  0  0  0  0  0  0  0  0  0
  150.5022  139.0103  157.2625 H   0  0  0  0  0  0  0  0  0  0  0  0
  150.0137  140.6181  157.6749 H   0  0  0  0  0  0  0  0  0  0  0  0
  151.6633  141.6209  156.1589 H   0  0  0  0  0  0  0  0  0  0  0  0
  152.4145  140.0605  155.8596 H   0  0  0  0  0  0  0  0  0  0  0  0
  149.7692  138.8261  153.8281 H   0  0  0  0  0  0  0  0  0  0  0  0
  150.1283  138.3413  155.4858 H   0  0  0  0  0  0  0  0  0  0  0  0
  151.4442  138.5702  154.3188 H   0  0  0  0  0  0  0  0  0  0  0  0
  1  2  1  0  0  0  0
  1 20  1  0  0  0  0
  1 21  1  0  0  0  0
  1 22  1  0  0  0  0
  2  3  1  0  0  0  0
  2 23  1  0  0  0  0
  2 24  1  0  0  0  0
  3  4  1  0  0  0  0
  3 25  1  0  0  0  0
  4 15  1  0  0  0  0
  4  5  2  0  0  0  0
  5  6  1  0  0  0  0
  6 13  1  0  0  0  0
  6  7  2  0  0  0  0
  7  8  1  0  0  0  0
  7 15  1  0  0  0  0
  8  9  2  0  0  0  0
  8 10  1  0  0  0  0
 10 11  1  0  0  0  0
 11 12  2  0  0  0  0
 11 13  1  0  0  0  0
 13 14  1  0  0  0  0
 14 26  1  0  0  0  0
 14 27  1  0  0  0  0
 14 28  1  0  0  0  0
 15 16  1  0  0  0  0
 16 17  1  0  0  0  0
 16 29  1  0  0  0  0
 16 30  1  0  0  0  0
 17 18  1  0  0  0  0
 17 31  1  0  0  0  0
 17 32  1  0  0  0  0
 18 19  1  0  0  0  0
 19 33  1  0  0  0  0
 19 34  1  0  0  0  0
 19 35  1  0  0  0  0
M  CHG  1  10  -1
M  END
> <s_m_source_file>
AV-unprocessed.smi

> <i_m_source_file_index>
533

> <i_lp_mmshare_version>
43012

> <i_f3d_flags>
0

> <s_epik_input>
W0NIM11bQ0gyXVtOSF1jKG4xKW4oW0NIMl1bQ0gyXU9bQ0gzXSljKGMxMiljKD1PKVtuSF1jKD1PKW4yW0NIM10=

> <s_epik_cmdline>
J2VwaWtfcHl0aG9uJywgJy1waCcsICc3LjAnLCAnLXRuJywgJzgnLCAnLW1hJywgJzIwMCcsICctbWV0YWxfYmluZGluZycsICctaW1hZScsICc8aW5maWxlLm1hZT4nLCAnLW9tYWUnLCAnPG91dGZpbGUubWFlPic=

> <r_lp_tautomer_probability>
1

> <r_epik_Ionization_Penalty>
5.85583

> <r_epik_Ionization_Penalty_Charging>
1.37787e-08

> <r_epik_Ionization_Penalty_Neutral>
5.85583

> <r_epik_State_Penalty>
5.8557

> <r_epik_Charging_Adjusted_Penalty>
5.8557

> <i_epik_Tot_Q>
-1

> <i_epik_Tot_abs_Q>
1

> <r_epik_Metal_State_Penalty>
1.82051

> <b_epik_Metal_Only>
1

> <s_lp_Force_Field>
OPLS_2005

> <r_lp_Energy>
24.2596

> <b_lp_Chiralities_Consistent>
1

> <s_lp_Variant>
AV-unprocessed.smi:533-2

> <Gold.Version>
5.8.1

> <Gold.Id.Protein>
6NUR|6NUR_protein|mol2

> <Gold.PLP.Fitness>
42.3508

> <Gold.PLP.PLP>
-33.4723

> <Gold.PLP.part.hbond>
-2.0000

> <Gold.PLP.part.metal>
0.0000

> <Gold.PLP.part.buried>
-6.1719

> <Gold.PLP.part.nonpolar>
-25.5866

> <Gold.PLP.part.repulsive>
0.1220

> <Gold.PLP.ligand.clash>
0.0000

> <Gold.PLP.ligand.torsion>
0.0615

> <Gold.PLP.Chemscore.Hbond>
3.0000

> <Gold.PLP.Chemscore.CHOScore>
0.0000

> <Gold.PLP.Chemscore.Metal>
0.0000

> <Gold.Chemscore.Hbonds>
donor molecule, donor type, donor heavy atom, donor atom, acceptor molecule, acceptor atom, score
      P1  H  6896  6909       L1    10  2.00
      P1  H  7989  7998       L1    18  0.85

> <Gold.PLP.Chemscore.Internal.Correction>
0.0016

> <Gold.Rescore>
     Score         DG    S(hbond)    S(metal)    S(lipo)     H(rot)  DE(clash)    DE(int)     intcor
     12.92     -13.07       1.68        0.00      57.00       1.83       0.11       0.03       ----

> <Gold.Chemscore.Fitness>
12.9245

> <Gold.Chemscore.DG>
-13.0655

> <Gold.Chemscore.ZeroCoef>
-5.4800

> <Gold.Chemscore.Hbond>
1.6804

> <Gold.Chemscore.Metal>
0.0000

> <Gold.Chemscore.Lipo>
56.9968

> <Gold.Chemscore.Internal_Hbond>
0.0000

> <Gold.Chemscore.DEClash>
0.1099

> <Gold.Chemscore.DEInternal>
0.0310

> <Gold.Chemscore.Rot>
1.8342

> <Gold.Chemscore.Internal.Correction>
   9.000000E+99

> <Gold.Chemscore.Hbonds>
donor molecule, donor type, donor heavy atom, donor atom, acceptor molecule, acceptor atom, score
      P1  H  6896  6909       L1    10  0.60
      P1  H  7989  7998       L1    18  0.04

> <Gold.Chemscore.Hbond.Weighted>
-5.6125

> <Gold.Chemscore.Metal.Weighted>
-0.0000

> <Gold.Chemscore.Lipo.Weighted>
-6.6686

> <Gold.Chemscore.Internal_Hbond.Weighted>
0.0000

> <Gold.Chemscore.DEClash.Weighted>
0.1099

> <Gold.Chemscore.DEInternal.Weighted>
0.0310

> <Gold.Chemscore.Rot.Weighted>
4.6957

> <Gold.Chemscore.Internal.Correction.Weighted>
   9.000000E+99

> <Gold.Protein.RotatedTorsions>
[ 6907 6896 6895 6894 ] final  147.38 input  -60.11 | X-H torsion
[ 7974 7965 7964 7962 ] final  118.05 input  175.53 | X-H torsion
[ 8008 7997 7996 7995 ] final  -79.41 input   59.86 | X-H torsion
[ 10167 10162 10161 10158 ] final   75.30 input  -65.29 | X-H torsion
[ 10718 10713 10712 10709 ] final  -41.70 input   66.30 | X-H torsion
[ 10763 10752 10751 10750 ] final  -35.58 input  -60.55 | X-H torsion
[ 11005 11000 10999 10996 ] final    3.31 input  -57.11 | X-H torsion

> <Gold.Protein.ActiveResidues>
 VAL166  LYS551  ARG553  GLY616  TRP617  ASP618  TYR619  PRO620  LYS621  CYS622 
 ASP623  PHE694  ASN695  SER759  ASP760  ASP761  ALA762  ILE779  LEU786  VAL792 
 PHE793  MET794  SER795  GLU796  ALA797  LYS798  CYS799  TRP800  GLU811  SER814 

> <Gold.Protein.RotatedAtoms>
  152.1556  133.4549  159.4834 H   0  0  0  0  0  0  0  0  0  0  0  0  # atno 6907 bound_to 6896
  150.6900  134.2136  159.4378 H   0  0  0  0  0  0  0  0  0  0  0  0  # atno 6908 bound_to 6896
  152.0035  134.9915  160.0616 H   0  0  0  0  0  0  0  0  0  0  0  0  # atno 6909 bound_to 6896
  145.1600  139.3161  143.4522 H   0  0  0  0  0  0  0  0  0  0  0  0  # atno 7974 bound_to 7965
  154.5783  140.0679  156.9066 H   0  0  0  0  0  0  0  0  0  0  0  0  # atno 8008 bound_to 7997
  155.2509  140.3351  155.4264 H   0  0  0  0  0  0  0  0  0  0  0  0  # atno 8009 bound_to 7997
  156.2170  140.1782  156.7551 H   0  0  0  0  0  0  0  0  0  0  0  0  # atno 8010 bound_to 7997
  140.0045  144.5661  150.7710 H   0  0  0  0  0  0  0  0  0  0  0  0  # atno 10167 bound_to 10162
  156.2675  130.4203  149.8474 H   0  0  0  0  0  0  0  0  0  0  0  0  # atno 10718 bound_to 10713
  153.8656  135.6836  153.4779 H   0  0  0  0  0  0  0  0  0  0  0  0  # atno 10763 bound_to 10752
  153.1316  135.4695  154.9356 H   0  0  0  0  0  0  0  0  0  0  0  0  # atno 10764 bound_to 10752
  154.7738  135.3247  154.8084 H   0  0  0  0  0  0  0  0  0  0  0  0  # atno 10765 bound_to 10752
  140.5946  133.9892  155.8104 H   0  0  0  0  0  0  0  0  0  0  0  0  # atno 11005 bound_to 11000
  146.3483  140.1706  142.8589 LP  0  0  0  0  0  0  0  0  0  0  0  0  # atno 17320 bound_to 7965
  145.0341  140.8894  143.5092 LP  0  0  0  0  0  0  0  0  0  0  0  0  # atno 17321 bound_to 7965
  140.7406  143.2806  151.3609 LP  0  0  0  0  0  0  0  0  0  0  0  0  # atno 17342 bound_to 10162
  139.6248  144.0835  152.2424 LP  0  0  0  0  0  0  0  0  0  0  0  0  # atno 17343 bound_to 10162
  156.5967  130.8529  151.3422 LP  0  0  0  0  0  0  0  0  0  0  0  0  # atno 17370 bound_to 10713
  157.7272  130.9640  150.1690 LP  0  0  0  0  0  0  0  0  0  0  0  0  # atno 17371 bound_to 10713
  141.0912  133.9913  157.3233 LP  0  0  0  0  0  0  0  0  0  0  0  0  # atno 17394 bound_to 11000
  139.9259  135.0201  156.8232 LP  0  0  0  0  0  0  0  0  0  0  0  0  # atno 17395 bound_to 11000

$$$$
