AV-unprocessed.smi:2355|AV-procd|sdf|9392|dock5
  -GOLD-   2272013 23D 1   1.00000     0.00000
 Structure written by MMmdl.
 49 50  0  0  0  0  0  0  0  0  2 V2000
  153.6666  142.1251  162.1560 C   0  0  0  0  0  0  0  0  0  0  0  0
  153.0174  142.2835  160.7974 C   0  0  0  0  0  0  0  0  0  0  0  0
  152.5967  143.5476  160.3423 C   0  0  0  0  0  0  0  0  0  0  0  0
  151.9952  143.6304  159.0712 C   0  0  0  0  0  0  0  0  0  0  0  0
  151.5199  144.9577  158.5188 C   0  0  0  0  0  0  0  0  0  0  0  0
  151.8021  142.5560  158.2765 N   0  0  0  0  0  0  0  0  0  0  0  0
  152.2055  141.3336  158.7038 C   0  0  0  0  0  0  0  0  0  0  0  0
  152.0460  140.1434  157.9452 N   0  0  0  0  0  0  0  0  0  0  0  0
  151.0710  139.8467  157.0686 C   0  0  0  0  0  0  0  0  0  0  0  0
  150.1558  140.6022  156.7392 O   0  0  0  0  0  0  0  0  0  0  0  0
  151.2008  138.5974  156.5957 N   0  0  0  0  0  0  0  0  0  0  0  0
  150.3010  137.9458  155.6407 C   0  0  1  0  0  0  0  0  0  0  0  0
  150.2737  138.7568  154.3345 C   0  0  0  0  0  0  0  0  0  0  0  0
  150.6594  136.4427  155.4321 C   0  0  1  0  0  0  0  0  0  0  0  0
  151.1137  135.7780  156.7557 C   0  0  0  0  0  0  0  0  0  0  0  0
  149.5293  135.7281  154.7513 N   0  3  0  0  0  0  0  0  0  0  0  0
  149.7929  134.2772  154.5658 C   0  0  0  0  0  0  0  0  0  0  0  0
  148.6927  133.6331  153.7075 C   0  0  0  0  0  0  0  0  0  0  0  0
  147.4316  133.8335  154.3303 O   0  0  0  0  0  0  0  0  0  0  0  0
  147.1164  135.2141  154.4445 C   0  0  0  0  0  0  0  0  0  0  0  0
  148.1674  135.9224  155.3169 C   0  0  0  0  0  0  0  0  0  0  0  0
  152.8179  141.1634  159.9654 C   0  0  0  0  0  0  0  0  0  0  0  0
  154.0155  143.0844  162.5387 H   0  0  0  0  0  0  0  0  0  0  0  0
  154.5228  141.4527  162.0952 H   0  0  0  0  0  0  0  0  0  0  0  0
  152.9527  141.7102  162.8676 H   0  0  0  0  0  0  0  0  0  0  0  0
  152.7309  144.4300  160.9510 H   0  0  0  0  0  0  0  0  0  0  0  0
  151.8406  145.7861  159.1507 H   0  0  0  0  0  0  0  0  0  0  0  0
  150.4315  144.9743  158.4601 H   0  0  0  0  0  0  0  0  0  0  0  0
  151.9214  145.1199  157.5180 H   0  0  0  0  0  0  0  0  0  0  0  0
  152.7416  139.4300  158.1066 H   0  0  0  0  0  0  0  0  0  0  0  0
  151.9840  138.0494  156.9217 H   0  0  0  0  0  0  0  0  0  0  0  0
  149.2861  138.0122  156.0333 H   0  0  0  0  0  0  0  0  0  0  0  0
  149.6326  138.2827  153.5909 H   0  0  0  0  0  0  0  0  0  0  0  0
  151.2660  138.8720  153.8986 H   0  0  0  0  0  0  0  0  0  0  0  0
  149.8816  139.7594  154.5099 H   0  0  0  0  0  0  0  0  0  0  0  0
  151.5189  136.3910  154.7614 H   0  0  0  0  0  0  0  0  0  0  0  0
  151.9477  136.3131  157.2075 H   0  0  0  0  0  0  0  0  0  0  0  0
  151.4714  134.7607  156.5964 H   0  0  0  0  0  0  0  0  0  0  0  0
  150.3105  135.7435  157.4923 H   0  0  0  0  0  0  0  0  0  0  0  0
  150.7563  134.1159  154.0843 H   0  0  0  0  0  0  0  0  0  0  0  0
  149.8397  133.7864  155.5390 H   0  0  0  0  0  0  0  0  0  0  0  0
  148.6885  134.0498  152.6988 H   0  0  0  0  0  0  0  0  0  0  0  0
  148.8713  132.5622  153.6098 H   0  0  0  0  0  0  0  0  0  0  0  0
  147.0634  135.6702  153.4544 H   0  0  0  0  0  0  0  0  0  0  0  0
  146.1279  135.3142  154.8926 H   0  0  0  0  0  0  0  0  0  0  0  0
  148.1318  135.5378  156.3373 H   0  0  0  0  0  0  0  0  0  0  0  0
  147.9069  136.9798  155.3516 H   0  0  0  0  0  0  0  0  0  0  0  0
  153.1321  140.1837  160.2956 H   0  0  0  0  0  0  0  0  0  0  0  0
  149.4873  136.1256  153.8230 H   0  0  0  0  0  0  0  0  0  0  0  0
  1  2  1  0  0  0  0
  1 23  1  0  0  0  0
  1 24  1  0  0  0  0
  1 25  1  0  0  0  0
  2 22  1  0  0  0  0
  2  3  2  0  0  0  0
  3  4  1  0  0  0  0
  3 26  1  0  0  0  0
  4  5  1  0  0  0  0
  4  6  2  0  0  0  0
  5 27  1  0  0  0  0
  5 28  1  0  0  0  0
  5 29  1  0  0  0  0
  6  7  1  0  0  0  0
  7  8  1  0  0  0  0
  7 22  2  0  0  0  0
  8  9  1  0  0  0  0
  8 30  1  0  0  0  0
  9 10  2  0  0  0  0
  9 11  1  0  0  0  0
 11 12  1  0  0  0  0
 11 31  1  0  0  0  0
 12 13  1  0  0  0  0
 12 14  1  0  0  0  0
 12 32  1  0  0  0  0
 13 33  1  0  0  0  0
 13 34  1  0  0  0  0
 13 35  1  0  0  0  0
 14 15  1  0  0  0  0
 14 16  1  0  0  0  0
 14 36  1  0  0  0  0
 15 37  1  0  0  0  0
 15 38  1  0  0  0  0
 15 39  1  0  0  0  0
 16 21  1  0  0  0  0
 16 17  1  0  0  0  0
 16 49  1  0  0  0  0
 17 18  1  0  0  0  0
 17 40  1  0  0  0  0
 17 41  1  0  0  0  0
 18 19  1  0  0  0  0
 18 42  1  0  0  0  0
 18 43  1  0  0  0  0
 19 20  1  0  0  0  0
 20 21  1  0  0  0  0
 20 44  1  0  0  0  0
 20 45  1  0  0  0  0
 21 46  1  0  0  0  0
 21 47  1  0  0  0  0
 22 48  1  0  0  0  0
M  CHG  1  16   1
M  END
> <s_m_source_file>
AV-unprocessed.smi

> <i_m_source_file_index>
2355

> <i_lp_mmshare_version>
43012

> <i_f3d_flags>
0

> <s_epik_input>
W0NIM11jMVtjSF1jKFtDSDNdKW5jKFtjSF0xKVtOSF1DKD1PKVtOSF1bQ0BIXShbQ0gzXSlbQ0BIXShbQ0gzXSlOMltDSDJdW0NIMl1PW0NIMl1bQ0gyXTI=

> <s_epik_cmdline>
J2VwaWtfcHl0aG9uJywgJy1waCcsICc3LjAnLCAnLXRuJywgJzgnLCAnLW1hJywgJzIwMCcsICctbWV0YWxfYmluZGluZycsICctaW1hZScsICc8aW5maWxlLm1hZT4nLCAnLW9tYWUnLCAnPG91dGZpbGUubWFlPic=

> <r_epik_Ionization_Penalty>
0.602711

> <r_epik_Ionization_Penalty_Charging>
0.602531

> <r_epik_Ionization_Penalty_Neutral>
0.000180055

> <r_epik_State_Penalty>
0.617039

> <r_epik_Charging_Adjusted_Penalty>
1.21957

> <i_epik_Tot_Q>
1

> <i_epik_Tot_abs_Q>
1

> <r_epik_Metal_State_Penalty>
0.617075

> <b_epik_Metal_Only>
0

> <s_lp_Force_Field>
OPLS_2005

> <r_lp_Energy>
30.3549

> <b_lp_Chiralities_Consistent>
1

> <s_lp_Variant>
AV-unprocessed.smi:2355-8

> <Gold.Version>
5.8.1

> <Gold.Id.Protein>
6NUR|6NUR_protein|mol2

> <Gold.PLP.Fitness>
44.5789

> <Gold.PLP.PLP>
-39.6706

> <Gold.PLP.part.hbond>
-1.0000

> <Gold.PLP.part.metal>
0.0000

> <Gold.PLP.part.buried>
-4.5135

> <Gold.PLP.part.nonpolar>
-33.2944

> <Gold.PLP.part.repulsive>
0.2755

> <Gold.PLP.ligand.clash>
0.0000

> <Gold.PLP.ligand.torsion>
0.6142

> <Gold.PLP.Chemscore.Hbond>
2.0000

> <Gold.PLP.Chemscore.CHOScore>
0.0000

> <Gold.PLP.Chemscore.Metal>
0.0000

> <Gold.Chemscore.Hbonds>
donor molecule, donor type, donor heavy atom, donor atom, acceptor molecule, acceptor atom, score
      L1  H    16    49       P1  7948  2.00

> <Gold.PLP.Chemscore.Internal.Correction>
0.1367

> <Gold.Rescore>
     Score         DG    S(hbond)    S(metal)    S(lipo)     H(rot)  DE(clash)    DE(int)     intcor
     14.55     -17.00       0.94        0.00     103.33       1.45       0.02       2.43       ----

> <Gold.Chemscore.Fitness>
14.5515

> <Gold.Chemscore.DG>
-16.9998

> <Gold.Chemscore.ZeroCoef>
-5.4800

> <Gold.Chemscore.Hbond>
0.9378

> <Gold.Chemscore.Metal>
0.0000

> <Gold.Chemscore.Lipo>
103.3319

> <Gold.Chemscore.Internal_Hbond>
0.0000

> <Gold.Chemscore.DEClash>
0.0226

> <Gold.Chemscore.DEInternal>
2.4257

> <Gold.Chemscore.Rot>
1.4462

> <Gold.Chemscore.Internal.Correction>
   9.000000E+99

> <Gold.Chemscore.Hbonds>
donor molecule, donor type, donor heavy atom, donor atom, acceptor molecule, acceptor atom, score
      L1  H    16    49       P1  7948  0.62

> <Gold.Chemscore.Hbond.Weighted>
-3.1322

> <Gold.Chemscore.Metal.Weighted>
-0.0000

> <Gold.Chemscore.Lipo.Weighted>
-12.0898

> <Gold.Chemscore.Internal_Hbond.Weighted>
0.0000

> <Gold.Chemscore.DEClash.Weighted>
0.0226

> <Gold.Chemscore.DEInternal.Weighted>
2.4257

> <Gold.Chemscore.Rot.Weighted>
3.7023

> <Gold.Chemscore.Internal.Correction.Weighted>
   9.000000E+99

> <Gold.Protein.RotatedTorsions>
[ 6907 6896 6895 6894 ] final  166.81 input  -60.11 | X-H torsion
[ 7974 7965 7964 7962 ] final  129.35 input  175.53 | X-H torsion
[ 8008 7997 7996 7995 ] final   -4.90 input   59.86 | X-H torsion
[ 10167 10162 10161 10158 ] final    2.01 input  -65.29 | X-H torsion
[ 10718 10713 10712 10709 ] final  161.17 input   66.30 | X-H torsion
[ 10763 10752 10751 10750 ] final   17.56 input  -60.55 | X-H torsion
[ 11005 11000 10999 10996 ] final   34.32 input  -57.11 | X-H torsion

> <Gold.Protein.ActiveResidues>
 VAL166  LYS551  ARG553  GLY616  TRP617  ASP618  TYR619  PRO620  LYS621  CYS622 
 ASP623  PHE694  ASN695  SER759  ASP760  ASP761  ALA762  ILE779  LEU786  VAL792 
 PHE793  MET794  SER795  GLU796  ALA797  LYS798  CYS799  TRP800  GLU811  SER814 

> <Gold.Protein.RotatedAtoms>
  151.8731  133.3480  159.3741 H   0  0  0  0  0  0  0  0  0  0  0  0  # atno 6907 bound_to 6896
  150.7147  134.5093  159.5608 H   0  0  0  0  0  0  0  0  0  0  0  0  # atno 6908 bound_to 6896
  152.2629  134.8015  160.0478 H   0  0  0  0  0  0  0  0  0  0  0  0  # atno 6909 bound_to 6896
  145.0296  139.4058  143.5156 H   0  0  0  0  0  0  0  0  0  0  0  0  # atno 7974 bound_to 7965
  154.6095  140.2472  155.7687 H   0  0  0  0  0  0  0  0  0  0  0  0  # atno 8008 bound_to 7997
  156.2362  140.2949  156.0268 H   0  0  0  0  0  0  0  0  0  0  0  0  # atno 8009 bound_to 7997
  155.2076  140.0396  157.2918 H   0  0  0  0  0  0  0  0  0  0  0  0  # atno 8010 bound_to 7997
  140.6656  143.7189  150.7820 H   0  0  0  0  0  0  0  0  0  0  0  0  # atno 10167 bound_to 10162
  157.1402  131.0538  151.2330 H   0  0  0  0  0  0  0  0  0  0  0  0  # atno 10718 bound_to 10713
  153.1328  135.6744  153.9151 H   0  0  0  0  0  0  0  0  0  0  0  0  # atno 10763 bound_to 10752
  153.8632  135.3079  155.3440 H   0  0  0  0  0  0  0  0  0  0  0  0  # atno 10764 bound_to 10752
  154.7722  135.4933  153.9753 H   0  0  0  0  0  0  0  0  0  0  0  0  # atno 10765 bound_to 10752
  140.2540  134.3269  155.7880 H   0  0  0  0  0  0  0  0  0  0  0  0  # atno 11005 bound_to 11000
  146.3497  139.9838  142.8693 LP  0  0  0  0  0  0  0  0  0  0  0  0  # atno 17320 bound_to 7965
  145.1788  140.9757  143.4278 LP  0  0  0  0  0  0  0  0  0  0  0  0  # atno 17321 bound_to 7965
  140.0866  143.4918  152.2501 LP  0  0  0  0  0  0  0  0  0  0  0  0  # atno 17342 bound_to 10162
  139.5903  144.7547  151.3417 LP  0  0  0  0  0  0  0  0  0  0  0  0  # atno 17343 bound_to 10162
  157.4314  130.7492  149.6993 LP  0  0  0  0  0  0  0  0  0  0  0  0  # atno 17370 bound_to 10713
  155.9790  130.4045  150.3613 LP  0  0  0  0  0  0  0  0  0  0  0  0  # atno 17371 bound_to 10713
  141.2198  133.7370  156.9083 LP  0  0  0  0  0  0  0  0  0  0  0  0  # atno 17394 bound_to 11000
  140.1529  134.9218  157.2616 LP  0  0  0  0  0  0  0  0  0  0  0  0  # atno 17395 bound_to 11000

$$$$
