AV-unprocessed.smi:1022|AV-procd|sdf|4460|dock8
  -GOLD-   22720 2433D 1   1.00000     0.00000
 Structure written by MMmdl.
 32 33  0  0  0  0  0  0  0  0  2 V2000
  146.3137  142.6261  154.9868 C   0  0  0  0  0  0  0  0  0  0  0  0
  146.7837  141.3806  154.5019 O   0  0  0  0  0  0  0  0  0  0  0  0
  146.9811  141.3855  153.0972 C   0  0  0  0  0  0  0  0  0  0  0  0
  147.6798  140.0821  152.6685 C   0  0  2  0  0  0  0  0  0  0  0  0
  146.9770  138.8401  153.2366 C   0  0  0  0  0  0  0  0  0  0  0  0
  149.0725  140.0850  153.1102 N   0  0  0  0  0  0  0  0  0  0  0  0
  149.5064  139.8830  154.3631 C   0  0  0  0  0  0  0  0  0  0  0  0
  148.6962  139.6834  155.2712 O   0  0  0  0  0  0  0  0  0  0  0  0
  150.8530  139.9168  154.4847 N   0  5  0  0  0  0  0  0  0  0  0  0
  151.4231  139.7277  155.6863 C   0  0  0  0  0  0  0  0  0  0  0  0
  152.4859  138.9296  155.8611 N   0  0  0  0  0  0  0  0  0  0  0  0
  152.9134  138.8734  157.1798 N   0  0  0  0  0  0  0  0  0  0  0  0
  152.1608  139.6261  157.9860 C   0  0  0  0  0  0  0  0  0  0  0  0
  152.4192  139.7337  159.4518 C   0  0  0  0  0  0  0  0  0  0  0  0
  152.5426  141.0769  160.1376 C   0  0  0  0  0  0  0  0  0  0  0  0
  153.7597  140.2042  159.9681 C   0  0  0  0  0  0  0  0  0  0  0  0
  150.8471  140.4678  157.1796 S   0  0  0  0  0  0  0  0  0  0  0  0
  146.1807  142.5720  156.0671 H   0  0  0  0  0  0  0  0  0  0  0  0
  145.3521  142.8851  154.5417 H   0  0  0  0  0  0  0  0  0  0  0  0
  147.0249  143.4254  154.7748 H   0  0  0  0  0  0  0  0  0  0  0  0
  146.0130  141.4757  152.6015 H   0  0  0  0  0  0  0  0  0  0  0  0
  147.5782  142.2502  152.8020 H   0  0  0  0  0  0  0  0  0  0  0  0
  147.6583  140.0118  151.5795 H   0  0  0  0  0  0  0  0  0  0  0  0
  145.9443  138.7797  152.8922 H   0  0  0  0  0  0  0  0  0  0  0  0
  146.9633  138.8551  154.3270 H   0  0  0  0  0  0  0  0  0  0  0  0
  147.4806  137.9260  152.9214 H   0  0  0  0  0  0  0  0  0  0  0  0
  149.7731  140.2463  152.4017 H   0  0  0  0  0  0  0  0  0  0  0  0
  151.9175  138.9322  159.9902 H   0  0  0  0  0  0  0  0  0  0  0  0
  152.4869  141.9751  159.5261 H   0  0  0  0  0  0  0  0  0  0  0  0
  152.1260  141.1687  161.1386 H   0  0  0  0  0  0  0  0  0  0  0  0
  154.1558  139.7142  160.8550 H   0  0  0  0  0  0  0  0  0  0  0  0
  154.5020  140.5155  159.2356 H   0  0  0  0  0  0  0  0  0  0  0  0
  1  2  1  0  0  0  0
  1 18  1  0  0  0  0
  1 19  1  0  0  0  0
  1 20  1  0  0  0  0
  2  3  1  0  0  0  0
  3  4  1  0  0  0  0
  3 21  1  0  0  0  0
  3 22  1  0  0  0  0
  4  5  1  0  0  0  0
  4  6  1  0  0  0  0
  4 23  1  0  0  0  0
  5 24  1  0  0  0  0
  5 25  1  0  0  0  0
  5 26  1  0  0  0  0
  6  7  1  0  0  0  0
  6 27  1  0  0  0  0
  7  8  2  0  0  0  0
  7  9  1  0  0  0  0
  9 10  1  0  0  0  0
 10 17  1  0  0  0  0
 10 11  2  0  0  0  0
 11 12  1  0  0  0  0
 12 13  2  0  0  0  0
 13 14  1  0  0  0  0
 13 17  1  0  0  0  0
 14 16  1  0  0  0  0
 14 15  1  0  0  0  0
 14 28  1  0  0  0  0
 15 16  1  0  0  0  0
 15 29  1  0  0  0  0
 15 30  1  0  0  0  0
 16 31  1  0  0  0  0
 16 32  1  0  0  0  0
M  CHG  1   9  -1
M  END
> <s_m_source_file>
AV-unprocessed.smi

> <i_m_source_file_index>
1022

> <i_lp_mmshare_version>
43012

> <i_f3d_flags>
0

> <s_epik_input>
W0NIM11PW0NIMl1bQ0BIXShbQ0gzXSlbTkhdQyg9TylbTkhdYzFubmMoczEpW0NIXTJbQ0gyXVtDSDJdMg==

> <s_epik_cmdline>
J2VwaWtfcHl0aG9uJywgJy1waCcsICc3LjAnLCAnLXRuJywgJzgnLCAnLW1hJywgJzIwMCcsICctbWV0YWxfYmluZGluZycsICctaW1hZScsICc8aW5maWxlLm1hZT4nLCAnLW9tYWUnLCAnPG91dGZpbGUubWFlPic=

> <r_lp_tautomer_probability>
1

> <r_epik_Ionization_Penalty>
3.79487

> <r_epik_Ionization_Penalty_Charging>
3.64217

> <r_epik_Ionization_Penalty_Neutral>
0.152695

> <r_epik_State_Penalty>
3.6409

> <r_epik_Charging_Adjusted_Penalty>
7.28307

> <i_epik_Tot_Q>
-1

> <i_epik_Tot_abs_Q>
1

> <r_epik_Metal_State_Penalty>
0.534129

> <b_epik_Metal_Only>
1

> <s_lp_Force_Field>
OPLS_2005

> <r_lp_Energy>
-0.766609

> <b_lp_Chiralities_Consistent>
1

> <s_lp_Variant>
AV-unprocessed.smi:1022-3

> <Gold.Version>
5.8.1

> <Gold.Id.Protein>
6NUR|6NUR_protein|mol2

> <Gold.PLP.Fitness>
38.2001

> <Gold.PLP.PLP>
-31.0997

> <Gold.PLP.part.hbond>
-3.7087

> <Gold.PLP.part.metal>
0.0000

> <Gold.PLP.part.buried>
-3.4062

> <Gold.PLP.part.nonpolar>
-24.3736

> <Gold.PLP.part.repulsive>
0.3593

> <Gold.PLP.ligand.clash>
0.0000

> <Gold.PLP.ligand.torsion>
0.6796

> <Gold.PLP.Chemscore.Hbond>
2.7600

> <Gold.PLP.Chemscore.CHOScore>
0.0000

> <Gold.PLP.Chemscore.Metal>
0.0000

> <Gold.Chemscore.Hbonds>
donor molecule, donor type, donor heavy atom, donor atom, acceptor molecule, acceptor atom, score
      L1  H     6    27       P1  7957  0.17
      P1  H  7989  7998       L1     9  1.00
      P1  H  7997  8008       L1    12  0.76

> <Gold.PLP.Chemscore.Internal.Correction>
0.1797

> <Gold.Rescore>
     Score         DG    S(hbond)    S(metal)    S(lipo)     H(rot)  DE(clash)    DE(int)     intcor
     11.50     -15.44       2.22        0.00      58.81       1.69       0.12       3.82       ----

> <Gold.Chemscore.Fitness>
11.4973

> <Gold.Chemscore.DG>
-15.4374

> <Gold.Chemscore.ZeroCoef>
-5.4800

> <Gold.Chemscore.Hbond>
2.2182

> <Gold.Chemscore.Metal>
0.0000

> <Gold.Chemscore.Lipo>
58.8057

> <Gold.Chemscore.Internal_Hbond>
0.0000

> <Gold.Chemscore.DEClash>
0.1154

> <Gold.Chemscore.DEInternal>
3.8247

> <Gold.Chemscore.Rot>
1.6921

> <Gold.Chemscore.Internal.Correction>
   9.000000E+99

> <Gold.Chemscore.Hbonds>
donor molecule, donor type, donor heavy atom, donor atom, acceptor molecule, acceptor atom, score
      L1  H     6    27       P1  7957  0.17
      P1  H  7989  7998       L1     9  0.85
      P1  H  7997  8008       L1    12  0.06

> <Gold.Chemscore.Hbond.Weighted>
-7.4088

> <Gold.Chemscore.Metal.Weighted>
-0.0000

> <Gold.Chemscore.Lipo.Weighted>
-6.8803

> <Gold.Chemscore.Internal_Hbond.Weighted>
0.0000

> <Gold.Chemscore.DEClash.Weighted>
0.1154

> <Gold.Chemscore.DEInternal.Weighted>
3.8247

> <Gold.Chemscore.Rot.Weighted>
4.3317

> <Gold.Chemscore.Internal.Correction.Weighted>
   9.000000E+99

> <Gold.Protein.RotatedTorsions>
[ 6907 6896 6895 6894 ] final  118.95 input  -60.11 | X-H torsion
[ 7974 7965 7964 7962 ] final   43.91 input  175.53 | X-H torsion
[ 8008 7997 7996 7995 ] final  -91.59 input   59.86 | X-H torsion
[ 10167 10162 10161 10158 ] final  -27.72 input  -65.29 | X-H torsion
[ 10718 10713 10712 10709 ] final  172.37 input   66.30 | X-H torsion
[ 10763 10752 10751 10750 ] final   91.67 input  -60.55 | X-H torsion
[ 11005 11000 10999 10996 ] final -124.24 input  -57.11 | X-H torsion

> <Gold.Protein.ActiveResidues>
 VAL166  LYS551  ARG553  GLY616  TRP617  ASP618  TYR619  PRO620  LYS621  CYS622 
 ASP623  PHE694  ASN695  SER759  ASP760  ASP761  ALA762  ILE779  LEU786  VAL792 
 PHE793  MET794  SER795  GLU796  ALA797  LYS798  CYS799  TRP800  GLU811  SER814 

> <Gold.Protein.RotatedAtoms>
  152.4507  133.7623  159.6752 H   0  0  0  0  0  0  0  0  0  0  0  0  # atno 6907 bound_to 6896
  150.8418  133.7914  159.3064 H   0  0  0  0  0  0  0  0  0  0  0  0  # atno 6908 bound_to 6896
  151.5537  135.1069  160.0007 H   0  0  0  0  0  0  0  0  0  0  0  0  # atno 6909 bound_to 6896
  146.0614  139.5133  142.9655 H   0  0  0  0  0  0  0  0  0  0  0  0  # atno 7974 bound_to 7965
  154.7127  140.0518  157.0565 H   0  0  0  0  0  0  0  0  0  0  0  0  # atno 8008 bound_to 7997
  155.0534  140.3181  155.4665 H   0  0  0  0  0  0  0  0  0  0  0  0  # atno 8009 bound_to 7997
  156.2794  140.2112  156.5660 H   0  0  0  0  0  0  0  0  0  0  0  0  # atno 8010 bound_to 7997
  140.7275  143.4069  151.1170 H   0  0  0  0  0  0  0  0  0  0  0  0  # atno 10167 bound_to 10162
  156.9799  131.0116  151.2884 H   0  0  0  0  0  0  0  0  0  0  0  0  # atno 10718 bound_to 10713
  153.2108  135.4389  155.0377 H   0  0  0  0  0  0  0  0  0  0  0  0  # atno 10763 bound_to 10752
  154.8199  135.3332  154.7071 H   0  0  0  0  0  0  0  0  0  0  0  0  # atno 10764 bound_to 10752
  153.7509  135.6998  153.5001 H   0  0  0  0  0  0  0  0  0  0  0  0  # atno 10765 bound_to 10752
  140.9856  134.0611  157.3714 H   0  0  0  0  0  0  0  0  0  0  0  0  # atno 11005 bound_to 11000
  145.6553  141.0253  143.1738 LP  0  0  0  0  0  0  0  0  0  0  0  0  # atno 17320 bound_to 7965
  144.7177  139.8138  143.7393 LP  0  0  0  0  0  0  0  0  0  0  0  0  # atno 17321 bound_to 7965
  139.7697  143.8512  152.3118 LP  0  0  0  0  0  0  0  0  0  0  0  0  # atno 17342 bound_to 10162
  139.8426  144.7202  150.9312 LP  0  0  0  0  0  0  0  0  0  0  0  0  # atno 17343 bound_to 10162
  157.5533  130.8197  149.8173 LP  0  0  0  0  0  0  0  0  0  0  0  0  # atno 17370 bound_to 10713
  156.0248  130.3783  150.1854 LP  0  0  0  0  0  0  0  0  0  0  0  0  # atno 17371 bound_to 10713
  139.8969  135.0148  156.7075 LP  0  0  0  0  0  0  0  0  0  0  0  0  # atno 17394 bound_to 11000
  140.7119  133.9216  155.8090 LP  0  0  0  0  0  0  0  0  0  0  0  0  # atno 17395 bound_to 11000

$$$$
