AV-unprocessed.smi:1430|AV-procd|sdf|5825|dock8
  -GOLD-   22720 5483D 1   1.00000     0.00000
 Structure written by MMmdl.
 47 48  0  0  0  0  0  0  0  0  2 V2000
  152.6486  141.1777  159.4335 C   0  0  0  0  0  0  0  0  0  0  0  0
  153.0842  140.3626  158.3510 O   0  0  0  0  0  0  0  0  0  0  0  0
  152.2157  140.1496  157.3001 C   0  0  0  0  0  0  0  0  0  0  0  0
  150.8532  140.4615  157.4775 C   0  0  0  0  0  0  0  0  0  0  0  0
  149.9599  140.2475  156.4104 C   0  0  0  0  0  0  0  0  0  0  0  0
  150.4616  139.7319  155.1911 C   0  0  0  0  0  0  0  0  0  0  0  0
  149.6653  139.4513  154.0477 N   0  0  0  0  0  0  0  0  0  0  0  0
  148.3832  139.0524  153.9943 C   0  0  0  0  0  0  0  0  0  0  0  0
  147.6391  138.9069  154.9631 O   0  0  0  0  0  0  0  0  0  0  0  0
  147.9969  138.8323  152.7294 N   0  0  0  0  0  0  0  0  0  0  0  0
  146.6638  138.3964  152.3179 C   0  0  0  0  0  0  0  0  0  0  0  0
  146.1201  137.2126  153.1485 C   0  0  0  0  0  0  0  0  0  0  0  0
  146.4375  135.8873  152.5590 N   0  3  1  0  0  0  0  0  0  0  0  0
  146.7376  134.8627  153.5855 C   0  0  0  0  0  0  0  0  0  0  0  0
  147.1375  133.5343  152.9162 C   0  0  1  0  0  0  0  0  0  0  0  0
  147.3831  132.4215  153.9410 C   0  0  0  0  0  0  0  0  0  0  0  0
  146.0892  133.1175  152.0475 O   0  0  0  0  0  0  0  0  0  0  0  0
  145.8388  134.0508  151.0018 C   0  0  1  0  0  0  0  0  0  0  0  0
  144.7639  133.4625  150.0812 C   0  0  0  0  0  0  0  0  0  0  0  0
  145.4035  135.3931  151.6189 C   0  0  0  0  0  0  0  0  0  0  0  0
  151.8399  139.4413  155.1206 C   0  0  0  0  0  0  0  0  0  0  0  0
  152.7010  139.6441  156.1394 N   0  0  0  0  0  0  0  0  0  0  0  0
  153.4422  141.2426  160.1777 H   0  0  0  0  0  0  0  0  0  0  0  0
  151.7703  140.7542  159.9230 H   0  0  0  0  0  0  0  0  0  0  0  0
  152.4205  142.1920  159.1036 H   0  0  0  0  0  0  0  0  0  0  0  0
  150.4977  140.8545  158.4187 H   0  0  0  0  0  0  0  0  0  0  0  0
  148.9144  140.4683  156.5568 H   0  0  0  0  0  0  0  0  0  0  0  0
  150.1195  139.6078  153.1598 H   0  0  0  0  0  0  0  0  0  0  0  0
  148.6697  138.9932  151.9939 H   0  0  0  0  0  0  0  0  0  0  0  0
  145.9702  139.2372  152.3653 H   0  0  0  0  0  0  0  0  0  0  0  0
  146.7213  138.1145  151.2666 H   0  0  0  0  0  0  0  0  0  0  0  0
  146.5641  137.2649  154.1433 H   0  0  0  0  0  0  0  0  0  0  0  0
  145.0436  137.3112  153.2954 H   0  0  0  0  0  0  0  0  0  0  0  0
  147.5498  135.2109  154.2251 H   0  0  0  0  0  0  0  0  0  0  0  0
  145.8639  134.7197  154.2237 H   0  0  0  0  0  0  0  0  0  0  0  0
  148.0500  133.6763  152.3343 H   0  0  0  0  0  0  0  0  0  0  0  0
  148.1875  132.6896  154.6262 H   0  0  0  0  0  0  0  0  0  0  0  0
  147.6649  131.4916  153.4465 H   0  0  0  0  0  0  0  0  0  0  0  0
  146.4893  132.2255  154.5339 H   0  0  0  0  0  0  0  0  0  0  0  0
  146.7520  134.1928  150.4210 H   0  0  0  0  0  0  0  0  0  0  0  0
  144.5390  134.1394  149.2566 H   0  0  0  0  0  0  0  0  0  0  0  0
  143.8368  133.2772  150.6245 H   0  0  0  0  0  0  0  0  0  0  0  0
  145.0929  132.5155  149.6523 H   0  0  0  0  0  0  0  0  0  0  0  0
  144.4559  135.2767  152.1476 H   0  0  0  0  0  0  0  0  0  0  0  0
  145.2406  136.1217  150.8248 H   0  0  0  0  0  0  0  0  0  0  0  0
  152.2687  139.0345  154.2163 H   0  0  0  0  0  0  0  0  0  0  0  0
  147.2873  136.0092  152.0267 H   0  0  0  0  0  0  0  0  0  0  0  0
  1  2  1  0  0  0  0
  1 23  1  0  0  0  0
  1 24  1  0  0  0  0
  1 25  1  0  0  0  0
  2  3  1  0  0  0  0
  3 22  1  0  0  0  0
  3  4  2  0  0  0  0
  4  5  1  0  0  0  0
  4 26  1  0  0  0  0
  5  6  2  0  0  0  0
  5 27  1  0  0  0  0
  6  7  1  0  0  0  0
  6 21  1  0  0  0  0
  7  8  1  0  0  0  0
  7 28  1  0  0  0  0
  8  9  2  0  0  0  0
  8 10  1  0  0  0  0
 10 11  1  0  0  0  0
 10 29  1  0  0  0  0
 11 12  1  0  0  0  0
 11 30  1  0  0  0  0
 11 31  1  0  0  0  0
 12 13  1  0  0  0  0
 12 32  1  0  0  0  0
 12 33  1  0  0  0  0
 13 20  1  0  0  0  0
 13 14  1  0  0  0  0
 13 47  1  0  0  0  0
 14 15  1  0  0  0  0
 14 34  1  0  0  0  0
 14 35  1  0  0  0  0
 15 16  1  0  0  0  0
 15 17  1  0  0  0  0
 15 36  1  0  0  0  0
 16 37  1  0  0  0  0
 16 38  1  0  0  0  0
 16 39  1  0  0  0  0
 17 18  1  0  0  0  0
 18 19  1  0  0  0  0
 18 20  1  0  0  0  0
 18 40  1  0  0  0  0
 19 41  1  0  0  0  0
 19 42  1  0  0  0  0
 19 43  1  0  0  0  0
 20 44  1  0  0  0  0
 20 45  1  0  0  0  0
 21 22  2  0  0  0  0
 21 46  1  0  0  0  0
M  CHG  1  13   1
M  END
> <s_m_source_file>
AV-unprocessed.smi

> <i_m_source_file_index>
1430

> <i_lp_mmshare_version>
43012

> <i_f3d_flags>
0

> <s_epik_input>
W0NIM11PYzFbY0hdW2NIXWMoW2NIXW4xKVtOSF1DKD1PKVtOSF1bQ0gyXVtDSDJdTjJbQ0gyXVtDQEBIXShbQ0gzXSlPW0NAQEhdKFtDSDNdKVtDSDJdMg==

> <s_epik_cmdline>
J2VwaWtfcHl0aG9uJywgJy1waCcsICc3LjAnLCAnLXRuJywgJzgnLCAnLW1hJywgJzIwMCcsICctbWV0YWxfYmluZGluZycsICctaW1hZScsICc8aW5maWxlLm1hZT4nLCAnLW9tYWUnLCAnPG91dGZpbGUubWFlPic=

> <r_lp_tautomer_probability>
1

> <r_epik_Ionization_Penalty>
0.602607

> <r_epik_Ionization_Penalty_Charging>
0.602531

> <r_epik_Ionization_Penalty_Neutral>
7.66983e-05

> <r_epik_State_Penalty>
0.617039

> <r_epik_Charging_Adjusted_Penalty>
1.21957

> <i_epik_Tot_Q>
1

> <i_epik_Tot_abs_Q>
1

> <r_epik_Metal_State_Penalty>
0.617043

> <b_epik_Metal_Only>
0

> <s_lp_Force_Field>
OPLS_2005

> <r_lp_Energy>
23.5338

> <b_lp_Chiralities_Consistent>
1

> <s_lp_Variant>
AV-unprocessed.smi:1430-4

> <Gold.Version>
5.8.1

> <Gold.Id.Protein>
6NUR|6NUR_protein|mol2

> <Gold.PLP.Fitness>
47.4327

> <Gold.PLP.PLP>
-35.1610

> <Gold.PLP.part.hbond>
-5.9580

> <Gold.PLP.part.metal>
0.0000

> <Gold.PLP.part.buried>
-2.3529

> <Gold.PLP.part.nonpolar>
-26.7529

> <Gold.PLP.part.repulsive>
0.3900

> <Gold.PLP.ligand.clash>
0.0018

> <Gold.PLP.ligand.torsion>
1.1196

> <Gold.PLP.Chemscore.Hbond>
4.8240

> <Gold.PLP.Chemscore.CHOScore>
0.0000

> <Gold.PLP.Chemscore.Metal>
0.0000

> <Gold.Chemscore.Hbonds>
donor molecule, donor type, donor heavy atom, donor atom, acceptor molecule, acceptor atom, score
      L1  H     7    28       P1  7957  0.66
      L1  H    10    29       P1  7957  1.00
      L1  H    13    47       P1  7948  2.00
      P1  H  7997  8009       L1    22  1.00

> <Gold.PLP.Chemscore.Internal.Correction>
0.0407

> <Gold.Rescore>
     Score         DG    S(hbond)    S(metal)    S(lipo)     H(rot)  DE(clash)    DE(int)     intcor
     18.12     -21.49       3.54        0.00      74.21       1.76       0.41       2.96       ----

> <Gold.Chemscore.Fitness>
18.1186

> <Gold.Chemscore.DG>
-21.4936

> <Gold.Chemscore.ZeroCoef>
-5.4800

> <Gold.Chemscore.Hbond>
3.5443

> <Gold.Chemscore.Metal>
0.0000

> <Gold.Chemscore.Lipo>
74.2134

> <Gold.Chemscore.Internal_Hbond>
0.0000

> <Gold.Chemscore.DEClash>
0.4137

> <Gold.Chemscore.DEInternal>
2.9614

> <Gold.Chemscore.Rot>
1.7606

> <Gold.Chemscore.Internal.Correction>
   9.000000E+99

> <Gold.Chemscore.Hbonds>
donor molecule, donor type, donor heavy atom, donor atom, acceptor molecule, acceptor atom, score
      L1  H     7    28       P1  7957  0.64
      L1  H    10    29       P1  7957  0.88
      L1  H    13    47       P1  7948  0.98
      P1  H  7997  8009       L1    22  0.54

> <Gold.Chemscore.Hbond.Weighted>
-11.8379

> <Gold.Chemscore.Metal.Weighted>
-0.0000

> <Gold.Chemscore.Lipo.Weighted>
-8.6830

> <Gold.Chemscore.Internal_Hbond.Weighted>
0.0000

> <Gold.Chemscore.DEClash.Weighted>
0.4137

> <Gold.Chemscore.DEInternal.Weighted>
2.9614

> <Gold.Chemscore.Rot.Weighted>
4.5072

> <Gold.Chemscore.Internal.Correction.Weighted>
   9.000000E+99

> <Gold.Protein.RotatedTorsions>
[ 6907 6896 6895 6894 ] final   40.29 input  -60.11 | X-H torsion
[ 7974 7965 7964 7962 ] final   54.71 input  175.53 | X-H torsion
[ 8008 7997 7996 7995 ] final -144.85 input   59.86 | X-H torsion
[ 10167 10162 10161 10158 ] final   33.96 input  -65.29 | X-H torsion
[ 10718 10713 10712 10709 ] final  -32.72 input   66.30 | X-H torsion
[ 10763 10752 10751 10750 ] final   50.57 input  -60.55 | X-H torsion
[ 11005 11000 10999 10996 ] final   98.88 input  -57.11 | X-H torsion

> <Gold.Protein.ActiveResidues>
 VAL166  LYS551  ARG553  GLY616  TRP617  ASP618  TYR619  PRO620  LYS621  CYS622 
 ASP623  PHE694  ASN695  SER759  ASP760  ASP761  ALA762  ILE779  LEU786  VAL792 
 PHE793  MET794  SER795  GLU796  ALA797  LYS798  CYS799  TRP800  GLU811  SER814 

> <Gold.Protein.RotatedAtoms>
  152.1806  134.8758  160.0526 H   0  0  0  0  0  0  0  0  0  0  0  0  # atno 6907 bound_to 6896
  151.9683  133.3712  159.4070 H   0  0  0  0  0  0  0  0  0  0  0  0  # atno 6908 bound_to 6896
  150.6917  134.4090  159.5197 H   0  0  0  0  0  0  0  0  0  0  0  0  # atno 6909 bound_to 6896
  145.9580  139.4033  143.0265 H   0  0  0  0  0  0  0  0  0  0  0  0  # atno 7974 bound_to 7965
  155.5336  140.0602  157.2884 H   0  0  0  0  0  0  0  0  0  0  0  0  # atno 8008 bound_to 7997
  154.4476  140.1931  156.0564 H   0  0  0  0  0  0  0  0  0  0  0  0  # atno 8009 bound_to 7997
  156.0634  140.3269  155.7493 H   0  0  0  0  0  0  0  0  0  0  0  0  # atno 8010 bound_to 7997
  140.4360  144.1257  150.6166 H   0  0  0  0  0  0  0  0  0  0  0  0  # atno 10167 bound_to 10162
  156.3715  130.4340  149.7542 H   0  0  0  0  0  0  0  0  0  0  0  0  # atno 10718 bound_to 10713
  152.9784  135.5874  154.4274 H   0  0  0  0  0  0  0  0  0  0  0  0  # atno 10763 bound_to 10752
  154.3892  135.2767  155.2167 H   0  0  0  0  0  0  0  0  0  0  0  0  # atno 10764 bound_to 10752
  154.4047  135.6095  153.5972 H   0  0  0  0  0  0  0  0  0  0  0  0  # atno 10765 bound_to 10752
  139.8771  134.9070  156.4522 H   0  0  0  0  0  0  0  0  0  0  0  0  # atno 11005 bound_to 11000
  145.8079  140.9740  143.0964 LP  0  0  0  0  0  0  0  0  0  0  0  0  # atno 17320 bound_to 7965
  144.6809  139.9884  143.7484 LP  0  0  0  0  0  0  0  0  0  0  0  0  # atno 17321 bound_to 7965
  140.4373  143.2541  151.9518 LP  0  0  0  0  0  0  0  0  0  0  0  0  # atno 17342 bound_to 10162
  139.4787  144.5687  151.8123 LP  0  0  0  0  0  0  0  0  0  0  0  0  # atno 17343 bound_to 10162
  156.4667  130.7977  151.2996 LP  0  0  0  0  0  0  0  0  0  0  0  0  # atno 17370 bound_to 10713
  157.7484  131.0049  150.3092 LP  0  0  0  0  0  0  0  0  0  0  0  0  # atno 17371 bound_to 10713
  140.8923  133.7839  155.9586 LP  0  0  0  0  0  0  0  0  0  0  0  0  # atno 17394 bound_to 11000
  140.8740  134.2692  157.5177 LP  0  0  0  0  0  0  0  0  0  0  0  0  # atno 17395 bound_to 11000

$$$$
