AV-unprocessed.smi:2983|AV-procd|sdf|11377|dock3
  -GOLD-   2272016293D 1   1.00000     0.00000
 Structure written by MMmdl.
 39 40  0  0  0  0  0  0  0  0  1 V2000
  145.5671  135.1994  150.8603 C   0  0  0  0  0  0  0  0  0  0  0  0
  144.2976  135.2494  151.7173 C   0  0  0  0  0  0  0  0  0  0  0  0
  144.5366  135.9031  153.0847 C   0  0  0  0  0  0  0  0  0  0  0  0
  144.9654  137.3749  152.9635 C   0  0  0  0  0  0  0  0  0  0  0  0
  145.9308  137.7571  153.9744 N   0  0  0  0  0  0  0  0  0  0  0  0
  147.1521  138.3726  153.6847 C   0  0  0  0  0  0  0  0  0  0  0  0
  147.4548  138.6338  152.3581 N   0  0  0  0  0  0  0  0  0  0  0  0
  148.0336  138.7221  154.6660 C   0  0  0  0  0  0  0  0  0  0  0  0
  149.2528  139.3451  154.4238 N   0  0  0  0  0  0  0  0  0  0  0  0
  150.4375  138.6388  153.9535 C   0  0  0  0  0  0  0  0  0  0  0  0
  151.5888  138.7769  154.9671 C   0  0  0  0  0  0  0  0  0  0  0  0
  151.8266  140.1545  155.2423 O   0  0  0  0  0  0  0  0  0  0  0  0
  150.6810  140.7994  155.7918 C   0  0  0  0  0  0  0  0  0  0  0  0
  149.5214  140.7305  154.7833 C   0  0  0  0  0  0  0  0  0  0  0  0
  147.7202  138.4611  156.0746 C   0  0  0  0  0  0  0  0  0  0  0  0
  148.4475  138.7232  157.0321 O   0  0  0  0  0  0  0  0  0  0  0  0
  146.4781  137.8727  156.3011 N   0  0  0  0  0  0  0  0  0  0  0  0
  145.5594  137.5186  155.3191 C   0  0  0  0  0  0  0  0  0  0  0  0
  144.4813  137.0243  155.6507 O   0  0  0  0  0  0  0  0  0  0  0  0
  146.2198  137.6949  157.2606 H   0  0  0  0  0  0  0  0  0  0  0  0
  145.3675  134.7325  149.8954 H   0  0  0  0  0  0  0  0  0  0  0  0
  146.3510  134.6236  151.3528 H   0  0  0  0  0  0  0  0  0  0  0  0
  145.9537  136.2012  150.6716 H   0  0  0  0  0  0  0  0  0  0  0  0
  143.5225  135.7981  151.1806 H   0  0  0  0  0  0  0  0  0  0  0  0
  143.9189  134.2362  151.8571 H   0  0  0  0  0  0  0  0  0  0  0  0
  143.6262  135.8383  153.6818 H   0  0  0  0  0  0  0  0  0  0  0  0
  145.2996  135.3415  153.6252 H   0  0  0  0  0  0  0  0  0  0  0  0
  145.3891  137.6015  151.9834 H   0  0  0  0  0  0  0  0  0  0  0  0
  144.1158  138.0495  153.0646 H   0  0  0  0  0  0  0  0  0  0  0  0
  146.8182  138.3905  151.6130 H   0  0  0  0  0  0  0  0  0  0  0  0
  148.3065  139.1038  152.0872 H   0  0  0  0  0  0  0  0  0  0  0  0
  150.2078  137.5858  153.7865 H   0  0  0  0  0  0  0  0  0  0  0  0
  150.7325  139.0535  152.9887 H   0  0  0  0  0  0  0  0  0  0  0  0
  151.3646  138.2464  155.8931 H   0  0  0  0  0  0  0  0  0  0  0  0
  152.4991  138.3339  154.5632 H   0  0  0  0  0  0  0  0  0  0  0  0
  150.4046  140.3307  156.7374 H   0  0  0  0  0  0  0  0  0  0  0  0
  150.9289  141.8380  156.0109 H   0  0  0  0  0  0  0  0  0  0  0  0
  149.7680  141.2914  153.8812 H   0  0  0  0  0  0  0  0  0  0  0  0
  148.6278  141.1910  155.2070 H   0  0  0  0  0  0  0  0  0  0  0  0
  1  2  1  0  0  0  0
  1 21  1  0  0  0  0
  1 22  1  0  0  0  0
  1 23  1  0  0  0  0
  2  3  1  0  0  0  0
  2 24  1  0  0  0  0
  2 25  1  0  0  0  0
  3  4  1  0  0  0  0
  3 26  1  0  0  0  0
  3 27  1  0  0  0  0
  4  5  1  0  0  0  0
  4 28  1  0  0  0  0
  4 29  1  0  0  0  0
  5 18  1  0  0  0  0
  5  6  1  0  0  0  0
  6  7  1  0  0  0  0
  6  8  2  0  0  0  0
  7 30  1  0  0  0  0
  7 31  1  0  0  0  0
  8  9  1  0  0  0  0
  8 15  1  0  0  0  0
  9 14  1  0  0  0  0
  9 10  1  0  0  0  0
 10 11  1  0  0  0  0
 10 32  1  0  0  0  0
 10 33  1  0  0  0  0
 11 12  1  0  0  0  0
 11 34  1  0  0  0  0
 11 35  1  0  0  0  0
 12 13  1  0  0  0  0
 13 14  1  0  0  0  0
 13 36  1  0  0  0  0
 13 37  1  0  0  0  0
 14 38  1  0  0  0  0
 14 39  1  0  0  0  0
 15 16  2  0  0  0  0
 15 17  1  0  0  0  0
 17 20  1  0  0  0  0
 17 18  1  0  0  0  0
 18 19  2  0  0  0  0
M  END
> <s_m_source_file>
AV-unprocessed.smi

> <i_m_source_file_index>
2983

> <i_lp_mmshare_version>
43012

> <i_f3d_flags>
0

> <s_epik_input>
W0NIM11bQ0gyXVtDSDJdW0NIMl1uMWMoW05IMl0pYyhjKD1PKVtuSF1jMT1PKU4yW0NIMl1bQ0gyXU9bQ0gyXVtDSDJdMg==

> <s_epik_cmdline>
J2VwaWtfcHl0aG9uJywgJy1waCcsICc3LjAnLCAnLXRuJywgJzgnLCAnLW1hJywgJzIwMCcsICctbWV0YWxfYmluZGluZycsICctaW1hZScsICc8aW5maWxlLm1hZT4nLCAnLW9tYWUnLCAnPG91dGZpbGUubWFlPic=

> <r_lp_tautomer_probability>
1

> <r_epik_Ionization_Penalty>
1.02563e-05

> <r_epik_Ionization_Penalty_Charging>
2.70122e-06

> <r_epik_Ionization_Penalty_Neutral>
7.55508e-06

> <r_epik_State_Penalty>
-0

> <r_epik_Charging_Adjusted_Penalty>
2.70122e-06

> <i_epik_Tot_Q>
0

> <i_epik_Tot_abs_Q>
0

> <r_epik_Metal_State_Penalty>
-0

> <b_epik_Metal_Only>
0

> <s_epik_Chemistry_Notes>
This compound has an imine and may undergo hydrolysis.

> <s_lp_Force_Field>
OPLS_2005

> <r_lp_Energy>
27.0785

> <b_lp_Chiralities_Consistent>
1

> <s_lp_Variant>
AV-unprocessed.smi:2983-1

> <Gold.Version>
5.8.1

> <Gold.Id.Protein>
6NUR|6NUR_protein|mol2

> <Gold.PLP.Fitness>
31.1935

> <Gold.PLP.PLP>
-27.6686

> <Gold.PLP.part.hbond>
-3.0000

> <Gold.PLP.part.metal>
0.0000

> <Gold.PLP.part.buried>
-3.7994

> <Gold.PLP.part.nonpolar>
-20.9930

> <Gold.PLP.part.repulsive>
0.1209

> <Gold.PLP.ligand.clash>
0.0000

> <Gold.PLP.ligand.torsion>
1.6689

> <Gold.PLP.Chemscore.Hbond>
1.7480

> <Gold.PLP.Chemscore.CHOScore>
0.0000

> <Gold.PLP.Chemscore.Metal>
0.0000

> <Gold.Chemscore.Hbonds>
donor molecule, donor type, donor heavy atom, donor atom, acceptor molecule, acceptor atom, score
      L1  H     7    31       P1  7957  1.00
      P1  H  7989  7998       L1    12  0.73

> <Gold.PLP.Chemscore.Internal.Correction>
1.6187

> <Gold.Rescore>
     Score         DG    S(hbond)    S(metal)    S(lipo)     H(rot)  DE(clash)    DE(int)     intcor
      9.59     -11.65       0.99        0.00      56.17       1.45       0.37       1.70       ----

> <Gold.Chemscore.Fitness>
9.5880

> <Gold.Chemscore.DG>
-11.6513

> <Gold.Chemscore.ZeroCoef>
-5.4800

> <Gold.Chemscore.Hbond>
0.9925

> <Gold.Chemscore.Metal>
0.0000

> <Gold.Chemscore.Lipo>
56.1742

> <Gold.Chemscore.Internal_Hbond>
0.0000

> <Gold.Chemscore.DEClash>
0.3660

> <Gold.Chemscore.DEInternal>
1.6973

> <Gold.Chemscore.Rot>
1.4515

> <Gold.Chemscore.Internal.Correction>
   9.000000E+99

> <Gold.Chemscore.Hbonds>
donor molecule, donor type, donor heavy atom, donor atom, acceptor molecule, acceptor atom, score
      L1  H     7    31       P1  7957  0.99
      P1  H  7989  7998       L1    12  0.03

> <Gold.Chemscore.Hbond.Weighted>
-3.3148

> <Gold.Chemscore.Metal.Weighted>
-0.0000

> <Gold.Chemscore.Lipo.Weighted>
-6.5724

> <Gold.Chemscore.Internal_Hbond.Weighted>
0.0000

> <Gold.Chemscore.DEClash.Weighted>
0.3660

> <Gold.Chemscore.DEInternal.Weighted>
1.6973

> <Gold.Chemscore.Rot.Weighted>
3.7159

> <Gold.Chemscore.Internal.Correction.Weighted>
   9.000000E+99

> <Gold.Protein.RotatedTorsions>
[ 6907 6896 6895 6894 ] final -127.86 input  -60.11 | X-H torsion
[ 7974 7965 7964 7962 ] final -155.50 input  175.53 | X-H torsion
[ 8008 7997 7996 7995 ] final  105.31 input   59.86 | X-H torsion
[ 10167 10162 10161 10158 ] final -107.30 input  -65.29 | X-H torsion
[ 10718 10713 10712 10709 ] final  146.23 input   66.30 | X-H torsion
[ 10763 10752 10751 10750 ] final -129.70 input  -60.55 | X-H torsion
[ 11005 11000 10999 10996 ] final  -74.67 input  -57.11 | X-H torsion

> <Gold.Protein.ActiveResidues>
 VAL166  LYS551  ARG553  GLY616  TRP617  ASP618  TYR619  PRO620  LYS621  CYS622 
 ASP623  PHE694  ASN695  SER759  ASP760  ASP761  ALA762  ILE779  LEU786  VAL792 
 PHE793  MET794  SER795  GLU796  ALA797  LYS798  CYS799  TRP800  GLU811  SER814 

> <Gold.Protein.RotatedAtoms>
  150.9117  133.6989  159.2852 H   0  0  0  0  0  0  0  0  0  0  0  0  # atno 6907 bound_to 6896
  151.4473  135.1025  159.9697 H   0  0  0  0  0  0  0  0  0  0  0  0  # atno 6908 bound_to 6896
  152.4933  133.8511  159.7257 H   0  0  0  0  0  0  0  0  0  0  0  0  # atno 6909 bound_to 6896
  144.7637  140.4241  143.5957 H   0  0  0  0  0  0  0  0  0  0  0  0  # atno 7974 bound_to 7965
  156.1648  140.3133  155.8869 H   0  0  0  0  0  0  0  0  0  0  0  0  # atno 8008 bound_to 7997
  155.3709  140.0482  157.3062 H   0  0  0  0  0  0  0  0  0  0  0  0  # atno 8009 bound_to 7997
  154.5181  140.2189  155.9037 H   0  0  0  0  0  0  0  0  0  0  0  0  # atno 8010 bound_to 7997
  140.1785  143.3986  152.1300 H   0  0  0  0  0  0  0  0  0  0  0  0  # atno 10167 bound_to 10162
  157.3356  131.0927  151.1125 H   0  0  0  0  0  0  0  0  0  0  0  0  # atno 10718 bound_to 10713
  154.8757  135.3887  154.3963 H   0  0  0  0  0  0  0  0  0  0  0  0  # atno 10763 bound_to 10752
  153.4693  135.7030  153.6008 H   0  0  0  0  0  0  0  0  0  0  0  0  # atno 10764 bound_to 10752
  153.4473  135.3842  155.2231 H   0  0  0  0  0  0  0  0  0  0  0  0  # atno 10765 bound_to 10752
  141.1637  133.6919  156.7400 H   0  0  0  0  0  0  0  0  0  0  0  0  # atno 11005 bound_to 11000
  145.6536  139.1569  143.2848 LP  0  0  0  0  0  0  0  0  0  0  0  0  # atno 17320 bound_to 7965
  146.1725  140.6623  142.9226 LP  0  0  0  0  0  0  0  0  0  0  0  0  # atno 17321 bound_to 7965
  139.5306  144.7155  151.5068 LP  0  0  0  0  0  0  0  0  0  0  0  0  # atno 17342 bound_to 10162
  140.6535  143.8647  150.6811 LP  0  0  0  0  0  0  0  0  0  0  0  0  # atno 17343 bound_to 10162
  157.2357  130.6546  149.5868 LP  0  0  0  0  0  0  0  0  0  0  0  0  # atno 17370 bound_to 10713
  155.9701  130.4584  150.5999 LP  0  0  0  0  0  0  0  0  0  0  0  0  # atno 17371 bound_to 10713
  140.2681  134.8414  157.3822 LP  0  0  0  0  0  0  0  0  0  0  0  0  # atno 17394 bound_to 11000
  140.1547  134.4805  155.7936 LP  0  0  0  0  0  0  0  0  0  0  0  0  # atno 17395 bound_to 11000

$$$$
