AV-unprocessed.smi:3195|AV-procd|sdf|12220|dock2
  -GOLD-   2272018 53D 1   1.00000     0.00000
 Structure written by MMmdl.
 29 30  0  0  0  0  0  0  0  0  2 V2000
  152.4714  139.0552  154.7622 C   0  0  0  0  0  0  0  0  0  0  0  0
  151.1150  139.5981  155.2440 C   0  0  2  0  0  0  0  0  0  0  0  0
  151.3234  140.7108  156.2946 C   0  0  0  0  0  0  0  0  0  0  0  0
  150.7610  141.7955  156.1350 O   0  0  0  0  0  0  0  0  0  0  0  0
  152.1159  140.4161  157.3433 N   0  0  0  0  0  0  0  0  0  0  0  0
  152.4908  141.2403  158.4402 C   0  0  0  0  0  0  0  0  0  0  0  0
  151.7882  142.3417  158.8075 N   0  0  0  0  0  0  0  0  0  0  0  0
  152.2071  143.0731  159.8605 C   0  0  0  0  0  0  0  0  0  0  0  0
  153.3503  142.7550  160.6141 C   0  0  0  0  0  0  0  0  0  0  0  0
  154.0894  141.6175  160.2458 C   0  0  0  0  0  0  0  0  0  0  0  0
  153.6592  140.8481  159.1459 C   0  0  0  0  0  0  0  0  0  0  0  0
  154.3812  139.7420  158.7872 O   0  5  0  0  0  0  0  0  0  0  0  0
  150.1942  138.4739  155.7759 C   0  0  0  0  0  0  0  0  0  0  0  0
  149.0311  138.4380  154.7998 C   0  0  0  0  0  0  0  0  0  0  0  0
  149.0391  139.8423  154.2183 C   0  0  0  0  0  0  0  0  0  0  0  0
  150.4267  140.1182  154.1014 O   0  0  0  0  0  0  0  0  0  0  0  0
  153.0329  138.5972  155.5773 H   0  0  0  0  0  0  0  0  0  0  0  0
  153.0876  139.8490  154.3379 H   0  0  0  0  0  0  0  0  0  0  0  0
  152.3361  138.2982  153.9892 H   0  0  0  0  0  0  0  0  0  0  0  0
  152.5094  139.4857  157.3587 H   0  0  0  0  0  0  0  0  0  0  0  0
  151.6112  143.9384  160.1092 H   0  0  0  0  0  0  0  0  0  0  0  0
  153.6521  143.3667  161.4511 H   0  0  0  0  0  0  0  0  0  0  0  0
  154.9740  141.3407  160.8006 H   0  0  0  0  0  0  0  0  0  0  0  0
  150.6952  137.5066  155.8308 H   0  0  0  0  0  0  0  0  0  0  0  0
  149.8186  138.6938  156.7768 H   0  0  0  0  0  0  0  0  0  0  0  0
  149.2310  137.7115  154.0112 H   0  0  0  0  0  0  0  0  0  0  0  0
  148.0835  138.1771  155.2715 H   0  0  0  0  0  0  0  0  0  0  0  0
  148.5326  139.9045  153.2552 H   0  0  0  0  0  0  0  0  0  0  0  0
  148.5729  140.5538  154.9019 H   0  0  0  0  0  0  0  0  0  0  0  0
  1  2  1  0  0  0  0
  1 17  1  0  0  0  0
  1 18  1  0  0  0  0
  1 19  1  0  0  0  0
  2 16  1  0  0  0  0
  2  3  1  0  0  0  0
  2 13  1  0  0  0  0
  3  4  2  0  0  0  0
  3  5  1  0  0  0  0
  5 20  1  0  0  0  0
  5  6  1  0  0  0  0
  6 11  2  0  0  0  0
  6  7  1  0  0  0  0
  7  8  2  0  0  0  0
  8 21  1  0  0  0  0
  8  9  1  0  0  0  0
  9 22  1  0  0  0  0
  9 10  2  0  0  0  0
 10 11  1  0  0  0  0
 10 23  1  0  0  0  0
 11 12  1  0  0  0  0
 13 14  1  0  0  0  0
 13 24  1  0  0  0  0
 13 25  1  0  0  0  0
 14 15  1  0  0  0  0
 14 26  1  0  0  0  0
 14 27  1  0  0  0  0
 15 16  1  0  0  0  0
 15 28  1  0  0  0  0
 15 29  1  0  0  0  0
M  CHG  1  12  -1
M  END
> <s_m_source_file>
AV-unprocessed.smi

> <i_m_source_file_index>
3195

> <i_lp_mmshare_version>
43012

> <i_f3d_flags>
0

> <s_epik_input>
TzFbQ0gyXVtDSDJdW0NIMl1bQ0BAXTEoW0NIM10pQyg9TylbTkhdYzJuW2NIXVtjSF1bY0hdYzJbT0hd

> <s_epik_cmdline>
J2VwaWtfcHl0aG9uJywgJy1waCcsICc3LjAnLCAnLXRuJywgJzgnLCAnLW1hJywgJzIwMCcsICctbWV0YWxfYmluZGluZycsICctaW1hZScsICc8aW5maWxlLm1hZT4nLCAnLW9tYWUnLCAnPG91dGZpbGUubWFlPic=

> <r_epik_Ionization_Penalty>
4.16712

> <r_epik_Ionization_Penalty_Charging>
2.09898

> <r_epik_Ionization_Penalty_Neutral>
2.06814

> <r_epik_State_Penalty>
2.6848

> <r_epik_Charging_Adjusted_Penalty>
4.78378

> <i_epik_Tot_Q>
-1

> <i_epik_Tot_abs_Q>
1

> <r_epik_Metal_State_Penalty>
0.595229

> <b_epik_Metal_Only>
0

> <s_lp_Force_Field>
OPLS_2005

> <r_lp_Energy>
19.5699

> <b_lp_Chiralities_Consistent>
1

> <s_lp_Variant>
AV-unprocessed.smi:3195-8

> <Gold.Version>
5.8.1

> <Gold.Id.Protein>
6NUR|6NUR_protein|mol2

> <Gold.PLP.Fitness>
39.0971

> <Gold.PLP.PLP>
-30.8100

> <Gold.PLP.part.hbond>
-1.8968

> <Gold.PLP.part.metal>
0.0000

> <Gold.PLP.part.buried>
-3.2638

> <Gold.PLP.part.nonpolar>
-26.2138

> <Gold.PLP.part.repulsive>
0.6327

> <Gold.PLP.ligand.clash>
0.0000

> <Gold.PLP.ligand.torsion>
0.3730

> <Gold.PLP.Chemscore.Hbond>
3.0000

> <Gold.PLP.Chemscore.CHOScore>
0.0000

> <Gold.PLP.Chemscore.Metal>
0.0000

> <Gold.Chemscore.Hbonds>
donor molecule, donor type, donor heavy atom, donor atom, acceptor molecule, acceptor atom, score
      P1  H  7989  7998       L1    16  0.90
      P1  H  7997  8010       L1    12  2.00

> <Gold.PLP.Chemscore.Internal.Correction>
0.0332

> <Gold.Rescore>
     Score         DG    S(hbond)    S(metal)    S(lipo)     H(rot)  DE(clash)    DE(int)     intcor
     14.91     -16.91       1.67        0.00      71.87       1.00       0.00       2.00       ----

> <Gold.Chemscore.Fitness>
14.9137

> <Gold.Chemscore.DG>
-16.9119

> <Gold.Chemscore.ZeroCoef>
-5.4800

> <Gold.Chemscore.Hbond>
1.6716

> <Gold.Chemscore.Metal>
0.0000

> <Gold.Chemscore.Lipo>
71.8708

> <Gold.Chemscore.Internal_Hbond>
0.0000

> <Gold.Chemscore.DEClash>
0.0000

> <Gold.Chemscore.DEInternal>
1.9982

> <Gold.Chemscore.Rot>
1.0000

> <Gold.Chemscore.Internal.Correction>
   9.000000E+99

> <Gold.Chemscore.Hbonds>
donor molecule, donor type, donor heavy atom, donor atom, acceptor molecule, acceptor atom, score
      P1  H  7989  7998       L1    16  0.16
      P1  H  7997  8010       L1    12  0.55

> <Gold.Chemscore.Hbond.Weighted>
-5.5831

> <Gold.Chemscore.Metal.Weighted>
-0.0000

> <Gold.Chemscore.Lipo.Weighted>
-8.4089

> <Gold.Chemscore.Internal_Hbond.Weighted>
0.0000

> <Gold.Chemscore.DEClash.Weighted>
0.0000

> <Gold.Chemscore.DEInternal.Weighted>
1.9982

> <Gold.Chemscore.Rot.Weighted>
2.5600

> <Gold.Chemscore.Internal.Correction.Weighted>
   9.000000E+99

> <Gold.Protein.RotatedTorsions>
[ 6907 6896 6895 6894 ] final   28.36 input  -60.11 | X-H torsion
[ 7974 7965 7964 7962 ] final -124.85 input  175.53 | X-H torsion
[ 8008 7997 7996 7995 ] final   10.62 input   59.86 | X-H torsion
[ 10167 10162 10161 10158 ] final -151.83 input  -65.29 | X-H torsion
[ 10718 10713 10712 10709 ] final -146.63 input   66.30 | X-H torsion
[ 10763 10752 10751 10750 ] final -140.55 input  -60.55 | X-H torsion
[ 11005 11000 10999 10996 ] final  -10.73 input  -57.11 | X-H torsion

> <Gold.Protein.ActiveResidues>
 VAL166  LYS551  ARG553  GLY616  TRP617  ASP618  TYR619  PRO620  LYS621  CYS622 
 ASP623  PHE694  ASN695  SER759  ASP760  ASP761  ALA762  ILE779  LEU786  VAL792 
 PHE793  MET794  SER795  GLU796  ALA797  LYS798  CYS799  TRP800  GLU811  SER814 

> <Gold.Protein.RotatedAtoms>
  152.0158  134.9851  160.0569 H   0  0  0  0  0  0  0  0  0  0  0  0  # atno 6907 bound_to 6896
  152.1385  133.4445  159.4763 H   0  0  0  0  0  0  0  0  0  0  0  0  # atno 6908 bound_to 6896
  150.6863  134.2252  159.4456 H   0  0  0  0  0  0  0  0  0  0  0  0  # atno 6909 bound_to 6896
  145.0038  140.7844  143.4480 H   0  0  0  0  0  0  0  0  0  0  0  0  # atno 7974 bound_to 7965
  154.7959  140.2843  155.5957 H   0  0  0  0  0  0  0  0  0  0  0  0  # atno 8008 bound_to 7997
  156.2971  140.2596  156.2745 H   0  0  0  0  0  0  0  0  0  0  0  0  # atno 8009 bound_to 7997
  154.9615  140.0377  157.2182 H   0  0  0  0  0  0  0  0  0  0  0  0  # atno 8010 bound_to 7997
  139.7233  143.8922  152.2511 H   0  0  0  0  0  0  0  0  0  0  0  0  # atno 10167 bound_to 10162
  156.3974  130.7916  151.2124 H   0  0  0  0  0  0  0  0  0  0  0  0  # atno 10718 bound_to 10713
  154.8575  135.3550  154.5725 H   0  0  0  0  0  0  0  0  0  0  0  0  # atno 10763 bound_to 10752
  153.6337  135.7001  153.5271 H   0  0  0  0  0  0  0  0  0  0  0  0  # atno 10764 bound_to 10752
  153.3028  135.4201  155.1227 H   0  0  0  0  0  0  0  0  0  0  0  0  # atno 10765 bound_to 10752
  140.7478  133.8617  155.9020 H   0  0  0  0  0  0  0  0  0  0  0  0  # atno 11005 bound_to 11000
  145.2117  139.2201  143.5139 LP  0  0  0  0  0  0  0  0  0  0  0  0  # atno 17320 bound_to 7965
  146.3457  140.1956  142.8589 LP  0  0  0  0  0  0  0  0  0  0  0  0  # atno 17321 bound_to 7965
  139.8824  144.7010  150.8862 LP  0  0  0  0  0  0  0  0  0  0  0  0  # atno 17342 bound_to 10162
  140.7758  143.3650  151.1755 LP  0  0  0  0  0  0  0  0  0  0  0  0  # atno 17343 bound_to 10162
  157.7502  131.0297  150.4105 LP  0  0  0  0  0  0  0  0  0  0  0  0  # atno 17370 bound_to 10713
  156.4378  130.3985  149.6717 LP  0  0  0  0  0  0  0  0  0  0  0  0  # atno 17371 bound_to 10713
  140.9779  134.1445  157.4520 LP  0  0  0  0  0  0  0  0  0  0  0  0  # atno 17394 bound_to 11000
  139.8793  135.0000  156.5989 LP  0  0  0  0  0  0  0  0  0  0  0  0  # atno 17395 bound_to 11000

$$$$
