AV-unprocessed.smi:49|AV-procd|sdf|476|dock9
  -GOLD-   2262016343D 1   1.00000     0.00000
 Structure written by MMmdl.
 27 28  0  0  0  0  0  0  0  0  1 V2000
  138.9040  137.1677  154.0591 C   0  0  0  0  0  0  0  0  0  0  0  0
  140.3857  137.5442  154.1703 C   0  0  0  0  0  0  0  0  0  0  0  0
  141.2849  136.3712  153.9596 C   0  0  0  0  0  0  0  0  0  0  0  0
  142.4194  136.4370  153.1999 N   0  0  0  0  0  0  0  0  0  0  0  0
  142.8340  135.1758  153.2840 C   0  0  0  0  0  0  0  0  0  0  0  0
  144.0578  134.6111  152.6315 C   0  0  1  0  0  0  0  0  0  0  0  0
  143.7330  133.5363  151.5838 C   0  0  0  0  0  0  0  0  0  0  0  0
  144.8795  133.6751  150.5927 C   0  0  1  0  0  0  0  0  0  0  0  0
  144.5675  133.1679  149.3129 O   0  0  0  0  0  0  0  0  0  0  0  0
  145.1040  135.1838  150.5808 C   0  0  0  0  0  0  0  0  0  0  0  0
  144.8766  135.6244  151.9544 N   0  0  0  0  0  0  0  0  0  0  0  0
  142.0107  134.4187  154.0124 N   0  0  0  0  0  0  0  0  0  0  0  0
  140.9856  135.1736  154.4605 N   0  0  0  0  0  0  0  0  0  0  0  0
  144.6692  134.1504  153.4085 H   0  0  0  0  0  0  0  0  0  0  0  0
  145.7672  133.1696  150.9759 H   0  0  0  0  0  0  0  0  0  0  0  0
  142.0996  133.4333  154.2148 H   0  0  0  0  0  0  0  0  0  0  0  0
  138.2688  138.0385  154.2212 H   0  0  0  0  0  0  0  0  0  0  0  0
  138.6328  136.4148  154.7997 H   0  0  0  0  0  0  0  0  0  0  0  0
  138.6738  136.7660  153.0719 H   0  0  0  0  0  0  0  0  0  0  0  0
  140.6278  138.3138  153.4365 H   0  0  0  0  0  0  0  0  0  0  0  0
  140.5853  137.9784  155.1507 H   0  0  0  0  0  0  0  0  0  0  0  0
  143.6418  132.5371  152.0103 H   0  0  0  0  0  0  0  0  0  0  0  0
  142.7923  133.7738  151.0827 H   0  0  0  0  0  0  0  0  0  0  0  0
  145.2172  133.4764  148.7001 H   0  0  0  0  0  0  0  0  0  0  0  0
  146.0957  135.4593  150.2217 H   0  0  0  0  0  0  0  0  0  0  0  0
  144.3716  135.6586  149.9264 H   0  0  0  0  0  0  0  0  0  0  0  0
  145.7725  135.6812  152.4274 H   0  0  0  0  0  0  0  0  0  0  0  0
  1  2  1  0  0  0  0
  1 17  1  0  0  0  0
  1 18  1  0  0  0  0
  1 19  1  0  0  0  0
  2 20  1  0  0  0  0
  2 21  1  0  0  0  0
  2  3  1  0  0  0  0
  3  4  1  0  0  0  0
  3 13  2  0  0  0  0
  4  5  2  0  0  0  0
  5  6  1  0  0  0  0
  5 12  1  0  0  0  0
  6 14  1  0  0  0  0
  6 11  1  0  0  0  0
  6  7  1  0  0  0  0
  7  8  1  0  0  0  0
  7 22  1  0  0  0  0
  7 23  1  0  0  0  0
  8 15  1  0  0  0  0
  8  9  1  0  0  0  0
  8 10  1  0  0  0  0
  9 24  1  0  0  0  0
 10 11  1  0  0  0  0
 10 25  1  0  0  0  0
 10 26  1  0  0  0  0
 11 27  1  0  0  0  0
 12 13  1  0  0  0  0
 12 16  1  0  0  0  0
M  END
> <s_m_source_file>
AV-unprocessed.smi

> <i_m_source_file_index>
49

> <i_lp_mmshare_version>
43012

> <i_f3d_flags>
0

> <s_epik_input>
W0NIM11bQ0gyXWMxbmMobltuSF0xKVtDQEBIXTJbQ0gyXVtDQEBIXShbT0hdKVtDSDJdW05IXTI=

> <s_epik_cmdline>
J2VwaWtfcHl0aG9uJywgJy1waCcsICc3LjAnLCAnLXRuJywgJzgnLCAnLW1hJywgJzIwMCcsICctbWV0YWxfYmluZGluZycsICctaW1hZScsICc8aW5maWxlLm1hZT4nLCAnLW9tYWUnLCAnPG91dGZpbGUubWFlPic=

> <r_epik_Ionization_Penalty>
1.31544

> <r_epik_Ionization_Penalty_Charging>
0

> <r_epik_Ionization_Penalty_Neutral>
1.31544

> <r_epik_State_Penalty>
2.06074

> <r_epik_Charging_Adjusted_Penalty>
2.06074

> <i_epik_Tot_Q>
0

> <i_epik_Tot_abs_Q>
0

> <r_epik_Metal_State_Penalty>
2.32913

> <b_epik_Metal_Only>
0

> <s_lp_Force_Field>
OPLS_2005

> <r_lp_Energy>
18.1426

> <b_lp_Chiralities_Consistent>
1

> <s_lp_Variant>
AV-unprocessed.smi:49-14

> <Gold.Version>
5.8.1

> <Gold.Id.Protein>
6NUR|6NUR_protein|mol2

> <Gold.PLP.Fitness>
34.7089

> <Gold.PLP.PLP>
-26.2779

> <Gold.PLP.part.hbond>
-4.1126

> <Gold.PLP.part.metal>
0.0000

> <Gold.PLP.part.buried>
-5.5516

> <Gold.PLP.part.nonpolar>
-16.2749

> <Gold.PLP.part.repulsive>
0.4015

> <Gold.PLP.ligand.clash>
0.0000

> <Gold.PLP.ligand.torsion>
0.2890

> <Gold.PLP.Chemscore.Hbond>
3.0000

> <Gold.PLP.Chemscore.CHOScore>
0.0000

> <Gold.PLP.Chemscore.Metal>
0.0000

> <Gold.Chemscore.Hbonds>
donor molecule, donor type, donor heavy atom, donor atom, acceptor molecule, acceptor atom, score
      L1  H     9    24       P1  7921  1.00
      L1  H    12    16       P1 10957  1.00
      P1  H 11000 11005       L1    13  0.91

> <Gold.PLP.Chemscore.Internal.Correction>
0.0090

> <Gold.Rescore>
     Score         DG    S(hbond)    S(metal)    S(lipo)     H(rot)  DE(clash)    DE(int)     intcor
     14.48     -14.55       2.84        0.00      37.07       1.86       0.07       0.01       ----

> <Gold.Chemscore.Fitness>
14.4757

> <Gold.Chemscore.DG>
-14.5508

> <Gold.Chemscore.ZeroCoef>
-5.4800

> <Gold.Chemscore.Hbond>
2.8397

> <Gold.Chemscore.Metal>
0.0000

> <Gold.Chemscore.Lipo>
37.0681

> <Gold.Chemscore.Internal_Hbond>
0.0000

> <Gold.Chemscore.DEClash>
0.0678

> <Gold.Chemscore.DEInternal>
0.0073

> <Gold.Chemscore.Rot>
1.8558

> <Gold.Chemscore.Internal.Correction>
   9.000000E+99

> <Gold.Chemscore.Hbonds>
donor molecule, donor type, donor heavy atom, donor atom, acceptor molecule, acceptor atom, score
      L1  H     9    24       P1  7921  0.54
      L1  H    12    16       P1 10957  1.00
      P1  H 11000 11005       L1    13  0.31

> <Gold.Chemscore.Hbond.Weighted>
-9.4846

> <Gold.Chemscore.Metal.Weighted>
-0.0000

> <Gold.Chemscore.Lipo.Weighted>
-4.3370

> <Gold.Chemscore.Internal_Hbond.Weighted>
0.0000

> <Gold.Chemscore.DEClash.Weighted>
0.0678

> <Gold.Chemscore.DEInternal.Weighted>
0.0073

> <Gold.Chemscore.Rot.Weighted>
4.7507

> <Gold.Chemscore.Internal.Correction.Weighted>
   9.000000E+99

> <Gold.Protein.RotatedTorsions>
[ 6907 6896 6895 6894 ] final  -35.22 input  -60.11 | X-H torsion
[ 7974 7965 7964 7962 ] final  -72.71 input  175.53 | X-H torsion
[ 8008 7997 7996 7995 ] final -103.09 input   59.86 | X-H torsion
[ 10167 10162 10161 10158 ] final -145.91 input  -65.29 | X-H torsion
[ 10718 10713 10712 10709 ] final   58.51 input   66.30 | X-H torsion
[ 10763 10752 10751 10750 ] final   92.04 input  -60.55 | X-H torsion
[ 11005 11000 10999 10996 ] final   22.82 input  -57.11 | X-H torsion

> <Gold.Protein.ActiveResidues>
 VAL166  LYS551  ARG553  GLY616  TRP617  ASP618  TYR619  PRO620  LYS621  CYS622 
 ASP623  PHE694  ASN695  SER759  ASP760  ASP761  ALA762  ILE779  LEU786  VAL792 
 PHE793  MET794  SER795  GLU796  ALA797  LYS798  CYS799  TRP800  GLU811  SER814 

> <Gold.Protein.RotatedAtoms>
  151.0426  134.9617  159.8169 H   0  0  0  0  0  0  0  0  0  0  0  0  # atno 6907 bound_to 6896
  152.5367  134.2639  159.8956 H   0  0  0  0  0  0  0  0  0  0  0  0  # atno 6908 bound_to 6896
  151.2652  133.4239  159.2652 H   0  0  0  0  0  0  0  0  0  0  0  0  # atno 6909 bound_to 6896
  145.6616  140.9251  143.0931 H   0  0  0  0  0  0  0  0  0  0  0  0  # atno 7974 bound_to 7965
  154.8660  140.0425  157.1695 H   0  0  0  0  0  0  0  0  0  0  0  0  # atno 8008 bound_to 7997
  154.8790  140.2969  155.5416 H   0  0  0  0  0  0  0  0  0  0  0  0  # atno 8009 bound_to 7997
  156.2999  140.2415  156.3790 H   0  0  0  0  0  0  0  0  0  0  0  0  # atno 8010 bound_to 7997
  139.7762  143.8166  152.2632 H   0  0  0  0  0  0  0  0  0  0  0  0  # atno 10167 bound_to 10162
  157.5601  130.8829  149.9098 H   0  0  0  0  0  0  0  0  0  0  0  0  # atno 10718 bound_to 10713
  153.2148  135.4376  155.0421 H   0  0  0  0  0  0  0  0  0  0  0  0  # atno 10763 bound_to 10752
  154.8219  135.3342  154.7015 H   0  0  0  0  0  0  0  0  0  0  0  0  # atno 10764 bound_to 10752
  153.7450  135.7002  153.5014 H   0  0  0  0  0  0  0  0  0  0  0  0  # atno 10765 bound_to 10752
  140.3764  134.1968  155.7665 H   0  0  0  0  0  0  0  0  0  0  0  0  # atno 11005 bound_to 11000
  144.7087  139.8456  143.7421 LP  0  0  0  0  0  0  0  0  0  0  0  0  # atno 17320 bound_to 7965
  146.1121  139.4127  143.0281 LP  0  0  0  0  0  0  0  0  0  0  0  0  # atno 17321 bound_to 7965
  139.8215  144.7293  150.9566 LP  0  0  0  0  0  0  0  0  0  0  0  0  # atno 17342 bound_to 10162
  140.7816  143.4154  151.0926 LP  0  0  0  0  0  0  0  0  0  0  0  0  # atno 17343 bound_to 10162
  156.0655  130.3693  150.0888 LP  0  0  0  0  0  0  0  0  0  0  0  0  # atno 17370 bound_to 10713
  156.9052  130.9633  151.3571 LP  0  0  0  0  0  0  0  0  0  0  0  0  # atno 17371 bound_to 10713
  141.1938  133.8143  157.0784 LP  0  0  0  0  0  0  0  0  0  0  0  0  # atno 17394 bound_to 11000
  140.0512  134.9804  157.1140 LP  0  0  0  0  0  0  0  0  0  0  0  0  # atno 17395 bound_to 11000

$$$$
