AV-unprocessed.smi:3291|AV-procd|sdf|12620|dock5
  -GOLD-   2272018553D 1   1.00000     0.00000
 Structure written by MMmdl.
 43 45  0  0  0  0  0  0  0  0  2 V2000
  150.3378  135.3455  154.8970 C   0  0  0  0  0  0  0  0  0  0  0  0
  150.1463  134.0934  155.7043 C   0  0  0  0  0  0  0  0  0  0  0  0
  150.6023  134.0428  156.9433 N   0  0  0  0  0  0  0  0  0  0  0  0
  150.2770  132.7701  157.4181 O   0  0  0  0  0  0  0  0  0  0  0  0
  149.6293  132.0943  156.4357 C   0  0  0  0  0  0  0  0  0  0  0  0
  149.1987  130.7056  156.7732 C   0  0  0  0  0  0  0  0  0  0  0  0
  149.5057  132.8798  155.3182 C   0  0  0  0  0  0  0  0  0  0  0  0
  148.8569  132.5795  153.9833 C   0  0  1  0  0  0  0  0  0  0  0  0
  148.4090  131.1122  153.9105 C   0  0  0  0  0  0  0  0  0  0  0  0
  147.6923  133.5394  153.6780 C   0  0  0  0  0  0  0  0  0  0  0  0
  147.4685  133.6664  152.2219 N   0  3  0  0  0  0  0  0  0  0  0  0
  146.0546  133.6240  151.7931 C   0  0  0  0  0  0  0  0  0  0  0  0
  145.7298  132.2197  151.3171 C   0  0  0  0  0  0  0  0  0  0  0  0
  145.6258  131.8959  149.8446 C   0  0  0  0  0  0  0  0  0  0  0  0
  144.3862  131.8951  150.7072 C   0  0  0  0  0  0  0  0  0  0  0  0
  145.7970  134.6435  150.6931 C   0  0  0  0  0  0  0  0  0  0  0  0
  145.7157  136.1240  150.9914 C   0  0  0  0  0  0  0  0  0  0  0  0
  144.4728  135.3671  150.5950 C   0  0  0  0  0  0  0  0  0  0  0  0
  150.9472  135.1494  154.0148 H   0  0  0  0  0  0  0  0  0  0  0  0
  150.8328  136.1279  155.4733 H   0  0  0  0  0  0  0  0  0  0  0  0
  149.3804  135.7417  154.5587 H   0  0  0  0  0  0  0  0  0  0  0  0
  149.3532  130.0303  155.9325 H   0  0  0  0  0  0  0  0  0  0  0  0
  148.1417  130.6833  157.0369 H   0  0  0  0  0  0  0  0  0  0  0  0
  149.7635  130.3159  157.6203 H   0  0  0  0  0  0  0  0  0  0  0  0
  149.5910  132.7153  153.1881 H   0  0  0  0  0  0  0  0  0  0  0  0
  149.2517  130.4385  154.0693 H   0  0  0  0  0  0  0  0  0  0  0  0
  147.9839  130.8795  152.9339 H   0  0  0  0  0  0  0  0  0  0  0  0
  147.6538  130.8818  154.6619 H   0  0  0  0  0  0  0  0  0  0  0  0
  146.7761  133.1719  154.1421 H   0  0  0  0  0  0  0  0  0  0  0  0
  147.8920  134.5176  154.1125 H   0  0  0  0  0  0  0  0  0  0  0  0
  147.8764  134.5335  151.9023 H   0  0  0  0  0  0  0  0  0  0  0  0
  145.4160  133.8510  152.6488 H   0  0  0  0  0  0  0  0  0  0  0  0
  146.1700  131.4383  151.9347 H   0  0  0  0  0  0  0  0  0  0  0  0
  145.7317  132.7097  149.1302 H   0  0  0  0  0  0  0  0  0  0  0  0
  146.0104  130.9330  149.5143 H   0  0  0  0  0  0  0  0  0  0  0  0
  143.9437  130.9310  150.9503 H   0  0  0  0  0  0  0  0  0  0  0  0
  143.6795  132.7107  150.5672 H   0  0  0  0  0  0  0  0  0  0  0  0
  146.2442  134.3733  149.7378 H   0  0  0  0  0  0  0  0  0  0  0  0
  145.7980  136.4404  152.0294 H   0  0  0  0  0  0  0  0  0  0  0  0
  146.1456  136.8064  150.2610 H   0  0  0  0  0  0  0  0  0  0  0  0
  144.0710  135.5462  149.5997 H   0  0  0  0  0  0  0  0  0  0  0  0
  143.7311  135.1925  151.3716 H   0  0  0  0  0  0  0  0  0  0  0  0
  147.9522  132.9019  151.7728 H   0  0  0  0  0  0  0  0  0  0  0  0
  1  2  1  0  0  0  0
  1 19  1  0  0  0  0
  1 20  1  0  0  0  0
  1 21  1  0  0  0  0
  2  7  1  0  0  0  0
  2  3  2  0  0  0  0
  3  4  1  0  0  0  0
  4  5  1  0  0  0  0
  5  6  1  0  0  0  0
  5  7  2  0  0  0  0
  6 22  1  0  0  0  0
  6 23  1  0  0  0  0
  6 24  1  0  0  0  0
  7  8  1  0  0  0  0
  8  9  1  0  0  0  0
  8 10  1  0  0  0  0
  8 25  1  0  0  0  0
  9 26  1  0  0  0  0
  9 27  1  0  0  0  0
  9 28  1  0  0  0  0
 10 11  1  0  0  0  0
 10 29  1  0  0  0  0
 10 30  1  0  0  0  0
 11 12  1  0  0  0  0
 11 31  1  0  0  0  0
 11 43  1  0  0  0  0
 12 13  1  0  0  0  0
 12 16  1  0  0  0  0
 12 32  1  0  0  0  0
 13 15  1  0  0  0  0
 13 14  1  0  0  0  0
 13 33  1  0  0  0  0
 14 15  1  0  0  0  0
 14 34  1  0  0  0  0
 14 35  1  0  0  0  0
 15 36  1  0  0  0  0
 15 37  1  0  0  0  0
 16 18  1  0  0  0  0
 16 17  1  0  0  0  0
 16 38  1  0  0  0  0
 17 18  1  0  0  0  0
 17 39  1  0  0  0  0
 17 40  1  0  0  0  0
 18 41  1  0  0  0  0
 18 42  1  0  0  0  0
M  CHG  1  11   1
M  END
> <s_m_source_file>
AV-unprocessed.smi

> <i_m_source_file_index>
3291

> <i_lp_mmshare_version>
43012

> <i_f3d_flags>
0

> <s_epik_input>
W0NIM11jMW5vYyhbQ0gzXSljMVtDQEhdKFtDSDNdKVtDSDJdW05IXVtDSF0oW0NIXTJbQ0gyXVtDSDJdMilbQ0hdM1tDSDJdW0NIMl0z

> <s_epik_cmdline>
J2VwaWtfcHl0aG9uJywgJy1waCcsICc3LjAnLCAnLXRuJywgJzgnLCAnLW1hJywgJzIwMCcsICctbWV0YWxfYmluZGluZycsICctaW1hZScsICc8aW5maWxlLm1hZT4nLCAnLW9tYWUnLCAnPG91dGZpbGUubWFlPic=

> <r_lp_tautomer_probability>
1

> <r_epik_Ionization_Penalty>
0.000158108

> <r_epik_Ionization_Penalty_Charging>
0.000158108

> <r_epik_Ionization_Penalty_Neutral>
1.14678e-10

> <r_epik_State_Penalty>
-0

> <r_epik_Charging_Adjusted_Penalty>
0.000158108

> <i_epik_Tot_Q>
1

> <i_epik_Tot_abs_Q>
1

> <r_epik_Metal_State_Penalty>
-0

> <b_epik_Metal_Only>
0

> <s_lp_Force_Field>
OPLS_2005

> <r_lp_Energy>
24.4944

> <b_lp_Chiralities_Consistent>
1

> <s_lp_Variant>
AV-unprocessed.smi:3291-2

> <Gold.Version>
5.8.1

> <Gold.Id.Protein>
6NUR|6NUR_protein|mol2

> <Gold.PLP.Fitness>
43.3153

> <Gold.PLP.PLP>
-37.1516

> <Gold.PLP.part.hbond>
-2.4997

> <Gold.PLP.part.metal>
0.0000

> <Gold.PLP.part.buried>
-2.6440

> <Gold.PLP.part.nonpolar>
-31.2233

> <Gold.PLP.part.repulsive>
0.0283

> <Gold.PLP.ligand.clash>
0.0889

> <Gold.PLP.ligand.torsion>
2.3204

> <Gold.PLP.Chemscore.Hbond>
2.8960

> <Gold.PLP.Chemscore.CHOScore>
0.0000

> <Gold.PLP.Chemscore.Metal>
0.0000

> <Gold.Chemscore.Hbonds>
donor molecule, donor type, donor heavy atom, donor atom, acceptor molecule, acceptor atom, score
      L1  H    11    31       P1  7948  1.90
      P1  H  6896  6907       L1     4  0.18

> <Gold.PLP.Chemscore.Internal.Correction>
2.2054

> <Gold.Rescore>
     Score         DG    S(hbond)    S(metal)    S(lipo)     H(rot)  DE(clash)    DE(int)     intcor
     11.76     -15.34       0.94        0.00      90.29       1.50       0.01       3.57       ----

> <Gold.Chemscore.Fitness>
11.7631

> <Gold.Chemscore.DG>
-15.3379

> <Gold.Chemscore.ZeroCoef>
-5.4800

> <Gold.Chemscore.Hbond>
0.9393

> <Gold.Chemscore.Metal>
0.0000

> <Gold.Chemscore.Lipo>
90.2945

> <Gold.Chemscore.Internal_Hbond>
0.0000

> <Gold.Chemscore.DEClash>
0.0065

> <Gold.Chemscore.DEInternal>
3.5683

> <Gold.Chemscore.Rot>
1.5015

> <Gold.Chemscore.Internal.Correction>
   9.000000E+99

> <Gold.Chemscore.Hbonds>
donor molecule, donor type, donor heavy atom, donor atom, acceptor molecule, acceptor atom, score
      L1  H    11    31       P1  7948  0.21

> <Gold.Chemscore.Hbond.Weighted>
-3.1373

> <Gold.Chemscore.Metal.Weighted>
-0.0000

> <Gold.Chemscore.Lipo.Weighted>
-10.5645

> <Gold.Chemscore.Internal_Hbond.Weighted>
0.0000

> <Gold.Chemscore.DEClash.Weighted>
0.0065

> <Gold.Chemscore.DEInternal.Weighted>
3.5683

> <Gold.Chemscore.Rot.Weighted>
3.8438

> <Gold.Chemscore.Internal.Correction.Weighted>
   9.000000E+99

> <Gold.Protein.RotatedTorsions>
[ 6907 6896 6895 6894 ] final -157.09 input  -60.11 | X-H torsion
[ 7974 7965 7964 7962 ] final -116.72 input  175.53 | X-H torsion
[ 8008 7997 7996 7995 ] final    0.74 input   59.86 | X-H torsion
[ 10167 10162 10161 10158 ] final  -30.29 input  -65.29 | X-H torsion
[ 10718 10713 10712 10709 ] final  -23.58 input   66.30 | X-H torsion
[ 10763 10752 10751 10750 ] final -158.98 input  -60.55 | X-H torsion
[ 11005 11000 10999 10996 ] final  101.41 input  -57.11 | X-H torsion

> <Gold.Protein.ActiveResidues>
 VAL166  LYS551  ARG553  GLY616  TRP617  ASP618  TYR619  PRO620  LYS621  CYS622 
 ASP623  PHE694  ASN695  SER759  ASP760  ASP761  ALA762  ILE779  LEU786  VAL792 
 PHE793  MET794  SER795  GLU796  ALA797  LYS798  CYS799  TRP800  GLU811  SER814 

> <Gold.Protein.RotatedAtoms>
  151.2975  133.4137  159.2637 H   0  0  0  0  0  0  0  0  0  0  0  0  # atno 6907 bound_to 6896
  151.0224  134.9479  159.8077 H   0  0  0  0  0  0  0  0  0  0  0  0  # atno 6908 bound_to 6896
  152.5327  134.2938  159.9105 H   0  0  0  0  0  0  0  0  0  0  0  0  # atno 6909 bound_to 6896
  145.0935  140.8506  143.3968 H   0  0  0  0  0  0  0  0  0  0  0  0  # atno 7974 bound_to 7965
  154.6716  140.2613  155.7001 H   0  0  0  0  0  0  0  0  0  0  0  0  # atno 8008 bound_to 7997
  156.2661  140.2828  156.1149 H   0  0  0  0  0  0  0  0  0  0  0  0  # atno 8009 bound_to 7997
  155.1160  140.0376  157.2727 H   0  0  0  0  0  0  0  0  0  0  0  0  # atno 8010 bound_to 7997
  140.7251  143.3860  151.1514 H   0  0  0  0  0  0  0  0  0  0  0  0  # atno 10167 bound_to 10162
  156.4891  130.4562  149.6766 H   0  0  0  0  0  0  0  0  0  0  0  0  # atno 10718 bound_to 10713
  154.7513  135.3093  154.8553 H   0  0  0  0  0  0  0  0  0  0  0  0  # atno 10763 bound_to 10752
  153.9339  135.6782  153.4749 H   0  0  0  0  0  0  0  0  0  0  0  0  # atno 10764 bound_to 10752
  153.1109  135.4867  154.8961 H   0  0  0  0  0  0  0  0  0  0  0  0  # atno 10765 bound_to 10752
  139.8773  134.9182  156.4903 H   0  0  0  0  0  0  0  0  0  0  0  0  # atno 11005 bound_to 11000
  145.1038  139.2804  143.5673 LP  0  0  0  0  0  0  0  0  0  0  0  0  # atno 17320 bound_to 7965
  146.3531  140.0613  142.8629 LP  0  0  0  0  0  0  0  0  0  0  0  0  # atno 17321 bound_to 7965
  139.7457  143.8855  152.3063 LP  0  0  0  0  0  0  0  0  0  0  0  0  # atno 17342 bound_to 10162
  139.8692  144.7077  150.9008 LP  0  0  0  0  0  0  0  0  0  0  0  0  # atno 17343 bound_to 10162
  156.3444  130.7399  151.2349 LP  0  0  0  0  0  0  0  0  0  0  0  0  # atno 17370 bound_to 10713
  157.7475  131.0394  150.4551 LP  0  0  0  0  0  0  0  0  0  0  0  0  # atno 17371 bound_to 10713
  140.8663  133.8021  155.9318 LP  0  0  0  0  0  0  0  0  0  0  0  0  # atno 17394 bound_to 11000
  140.8998  134.2392  157.5048 LP  0  0  0  0  0  0  0  0  0  0  0  0  # atno 17395 bound_to 11000

$$$$
