AV-unprocessed.smi:157|AV-procd|sdf|1296|dock9
  -GOLD-   2262018583D 1   1.00000     0.00000
 Structure written by MMmdl.
 35 37  0  0  0  0  0  0  0  0  1 V2000
  147.4753  142.8587  154.2768 O   0  0  0  0  0  0  0  0  0  0  0  0
  147.1026  141.8186  155.1561 C   0  0  0  0  0  0  0  0  0  0  0  0
  148.3207  140.9441  155.5012 C   0  0  2  0  0  0  0  0  0  0  0  0
  149.2942  141.6904  156.2317 O   0  0  0  0  0  0  0  0  0  0  0  0
  150.5791  141.3486  155.8060 C   0  0  1  0  0  0  0  0  0  0  0  0
  151.4413  141.0802  157.0020 N   0  0  0  0  0  0  0  0  0  0  0  0
  152.1535  139.9637  157.1956 C   0  0  0  0  0  0  0  0  0  0  0  0
  152.8409  139.9361  158.3244 N   0  0  0  0  0  0  0  0  0  0  0  0
  152.5554  141.1623  158.9218 C   0  0  0  0  0  0  0  0  0  0  0  0
  151.6924  141.8925  158.1161 C   0  0  0  0  0  0  0  0  0  0  0  0
  151.0793  143.1287  158.1902 N   0  0  0  0  0  0  0  0  0  0  0  0
  151.5844  144.0121  158.9919 C   0  0  0  0  0  0  0  0  0  0  0  0
  152.6229  143.8999  159.9048 N   0  0  0  0  0  0  0  0  0  0  0  0
  152.7077  142.8213  160.8742 C   0  0  0  0  0  0  0  0  0  0  0  0
  153.1450  141.4826  160.2663 C   0  0  2  0  0  0  0  0  0  0  0  0
  154.5499  141.4774  160.1147 O   0  0  0  0  0  0  0  0  0  0  0  0
  150.4595  140.1128  154.9138 C   0  0  0  0  0  0  0  0  0  0  0  0
  149.0790  140.3078  154.3233 C   0  0  2  0  0  0  0  0  0  0  0  0
  149.1363  141.1549  153.1903 O   0  0  0  0  0  0  0  0  0  0  0  0
  147.9977  140.1419  156.1671 H   0  0  0  0  0  0  0  0  0  0  0  0
  151.0342  142.1993  155.2964 H   0  0  0  0  0  0  0  0  0  0  0  0
  152.9027  140.6889  160.9739 H   0  0  0  0  0  0  0  0  0  0  0  0
  148.6304  139.3613  154.0208 H   0  0  0  0  0  0  0  0  0  0  0  0
  147.9225  143.5262  154.7745 H   0  0  0  0  0  0  0  0  0  0  0  0
  146.6426  142.2364  156.0518 H   0  0  0  0  0  0  0  0  0  0  0  0
  146.3417  141.2132  154.6632 H   0  0  0  0  0  0  0  0  0  0  0  0
  152.1628  139.1445  156.4918 H   0  0  0  0  0  0  0  0  0  0  0  0
  151.1554  145.0151  158.9943 H   0  0  0  0  0  0  0  0  0  0  0  0
  153.0428  144.7459  160.2621 H   0  0  0  0  0  0  0  0  0  0  0  0
  153.3632  143.1091  161.6967 H   0  0  0  0  0  0  0  0  0  0  0  0
  151.7135  142.6996  161.3067 H   0  0  0  0  0  0  0  0  0  0  0  0
  154.9374  141.3466  160.9669 H   0  0  0  0  0  0  0  0  0  0  0  0
  151.2659  140.0684  154.1810 H   0  0  0  0  0  0  0  0  0  0  0  0
  150.4836  139.2077  155.5212 H   0  0  0  0  0  0  0  0  0  0  0  0
  148.9815  140.6310  152.4190 H   0  0  0  0  0  0  0  0  0  0  0  0
  1  2  1  0  0  0  0
  1 24  1  0  0  0  0
  2  3  1  0  0  0  0
  2 25  1  0  0  0  0
  2 26  1  0  0  0  0
  3 20  1  0  0  0  0
  3 18  1  0  0  0  0
  3  4  1  0  0  0  0
  4  5  1  0  0  0  0
  5 21  1  0  0  0  0
  5  6  1  0  0  0  0
  5 17  1  0  0  0  0
  6 10  1  0  0  0  0
  6  7  1  0  0  0  0
  7  8  2  0  0  0  0
  7 27  1  0  0  0  0
  8  9  1  0  0  0  0
  9 15  1  0  0  0  0
  9 10  2  0  0  0  0
 10 11  1  0  0  0  0
 11 12  2  0  0  0  0
 12 13  1  0  0  0  0
 12 28  1  0  0  0  0
 13 14  1  0  0  0  0
 13 29  1  0  0  0  0
 14 15  1  0  0  0  0
 14 30  1  0  0  0  0
 14 31  1  0  0  0  0
 15 22  1  0  0  0  0
 15 16  1  0  0  0  0
 16 32  1  0  0  0  0
 17 18  1  0  0  0  0
 17 33  1  0  0  0  0
 17 34  1  0  0  0  0
 18 23  1  0  0  0  0
 18 19  1  0  0  0  0
 19 35  1  0  0  0  0
M  END
> <s_m_source_file>
AV-unprocessed.smi

> <i_m_source_file_index>
157

> <i_lp_mmshare_version>
43012

> <i_f3d_flags>
0

> <s_epik_input>
W09IXVtDSDJdW0NASF0xT1tDQEhdKFtDSDJdW0NAQEhdMVtPSF0pbihbY0hdbjIpYyhjMjMpTj1bQ0hdW05IXVtDSDJdW0NASF0zW09IXQ==

> <s_epik_cmdline>
J2VwaWtfcHl0aG9uJywgJy1waCcsICc3LjAnLCAnLXRuJywgJzgnLCAnLW1hJywgJzIwMCcsICctbWV0YWxfYmluZGluZycsICctaW1hZScsICc8aW5maWxlLm1hZT4nLCAnLW9tYWUnLCAnPG91dGZpbGUubWFlPic=

> <r_lp_tautomer_probability>
1

> <r_epik_Ionization_Penalty>
0.0357149

> <r_epik_Ionization_Penalty_Charging>
0.0355056

> <r_epik_Ionization_Penalty_Neutral>
0.000209255

> <r_epik_State_Penalty>
0.0296046

> <r_epik_Charging_Adjusted_Penalty>
0.0651102

> <i_epik_Tot_Q>
0

> <i_epik_Tot_abs_Q>
0

> <r_epik_Metal_State_Penalty>
3.03559e-05

> <b_epik_Metal_Only>
0

> <s_epik_Chemistry_Notes>
This compound has an imine and may undergo hydrolysis. This compound contains an acetal/aminal-like group ( X-CH(R)-Y where X, Y are N, S, or O) that may be acid/base labile, releasing an aldehyde.

> <s_lp_Force_Field>
OPLS_2005

> <r_lp_Energy>
46.6241

> <b_lp_Chiralities_Consistent>
1

> <s_lp_Variant>
AV-unprocessed.smi:157-6

> <Gold.Version>
5.8.1

> <Gold.Id.Protein>
6NUR|6NUR_protein|mol2

> <Gold.PLP.Fitness>
44.5922

> <Gold.PLP.PLP>
-36.6307

> <Gold.PLP.part.hbond>
-4.6908

> <Gold.PLP.part.metal>
0.0000

> <Gold.PLP.part.buried>
-5.5395

> <Gold.PLP.part.nonpolar>
-27.8217

> <Gold.PLP.part.repulsive>
0.4648

> <Gold.PLP.ligand.clash>
0.0000

> <Gold.PLP.ligand.torsion>
0.1004

> <Gold.PLP.Chemscore.Hbond>
2.7200

> <Gold.PLP.Chemscore.CHOScore>
0.0000

> <Gold.PLP.Chemscore.Metal>
0.0000

> <Gold.Chemscore.Hbonds>
donor molecule, donor type, donor heavy atom, donor atom, acceptor molecule, acceptor atom, score
      L1  H     1    24       P1  8028  1.00
      L1  H    19    35       P1  7957  0.89
      P1  H  7997  8010       L1     8  0.07
      P1  H  8011  8017       L1    19  0.65

> <Gold.PLP.Chemscore.Internal.Correction>
0.0023

> <Gold.Rescore>
     Score         DG    S(hbond)    S(metal)    S(lipo)     H(rot)  DE(clash)    DE(int)     intcor
      8.66      -8.92       1.91        0.00      54.30       3.64       0.26       0.00       ----

> <Gold.Chemscore.Fitness>
8.6565

> <Gold.Chemscore.DG>
-8.9171

> <Gold.Chemscore.ZeroCoef>
-5.4800

> <Gold.Chemscore.Hbond>
1.9140

> <Gold.Chemscore.Metal>
0.0000

> <Gold.Chemscore.Lipo>
54.3006

> <Gold.Chemscore.Internal_Hbond>
0.0000

> <Gold.Chemscore.DEClash>
0.2583

> <Gold.Chemscore.DEInternal>
0.0023

> <Gold.Chemscore.Rot>
3.6362

> <Gold.Chemscore.Internal.Correction>
   9.000000E+99

> <Gold.Chemscore.Hbonds>
donor molecule, donor type, donor heavy atom, donor atom, acceptor molecule, acceptor atom, score
      L1  H     1    24       P1  8028  0.65
      L1  H    19    35       P1  7957  0.80
      P1  H  7997  8010       L1     8  0.01
      P1  H  8011  8017       L1    19  0.06

> <Gold.Chemscore.Hbond.Weighted>
-6.3927

> <Gold.Chemscore.Metal.Weighted>
-0.0000

> <Gold.Chemscore.Lipo.Weighted>
-6.3532

> <Gold.Chemscore.Internal_Hbond.Weighted>
0.0000

> <Gold.Chemscore.DEClash.Weighted>
0.2583

> <Gold.Chemscore.DEInternal.Weighted>
0.0023

> <Gold.Chemscore.Rot.Weighted>
9.3087

> <Gold.Chemscore.Internal.Correction.Weighted>
   9.000000E+99

> <Gold.Protein.RotatedTorsions>
[ 6907 6896 6895 6894 ] final  109.60 input  -60.11 | X-H torsion
[ 7974 7965 7964 7962 ] final   66.28 input  175.53 | X-H torsion
[ 8008 7997 7996 7995 ] final    6.21 input   59.86 | X-H torsion
[ 10167 10162 10161 10158 ] final   -1.09 input  -65.29 | X-H torsion
[ 10718 10713 10712 10709 ] final  110.18 input   66.30 | X-H torsion
[ 10763 10752 10751 10750 ] final  156.90 input  -60.55 | X-H torsion
[ 11005 11000 10999 10996 ] final  -94.51 input  -57.11 | X-H torsion

> <Gold.Protein.ActiveResidues>
 VAL166  LYS551  ARG553  GLY616  TRP617  ASP618  TYR619  PRO620  LYS621  CYS622 
 ASP623  PHE694  ASN695  SER759  ASP760  ASP761  ALA762  ILE779  LEU786  VAL792 
 PHE793  MET794  SER795  GLU796  ALA797  LYS798  CYS799  TRP800  GLU811  SER814 

> <Gold.Protein.RotatedAtoms>
  152.5059  133.8921  159.7398 H   0  0  0  0  0  0  0  0  0  0  0  0  # atno 6907 bound_to 6896
  150.9357  133.6706  159.2808 H   0  0  0  0  0  0  0  0  0  0  0  0  # atno 6908 bound_to 6896
  151.4035  135.0979  159.9616 H   0  0  0  0  0  0  0  0  0  0  0  0  # atno 6909 bound_to 6896
  145.8285  139.3125  143.1001 H   0  0  0  0  0  0  0  0  0  0  0  0  # atno 7974 bound_to 7965
  154.7382  140.2744  155.6396 H   0  0  0  0  0  0  0  0  0  0  0  0  # atno 8008 bound_to 7997
  156.2867  140.2702  156.2027 H   0  0  0  0  0  0  0  0  0  0  0  0  # atno 8009 bound_to 7997
  155.0293  140.0371  157.2457 H   0  0  0  0  0  0  0  0  0  0  0  0  # atno 8010 bound_to 7997
  140.6795  143.6817  150.8100 H   0  0  0  0  0  0  0  0  0  0  0  0  # atno 10167 bound_to 10162
  157.6506  131.0928  150.6564 H   0  0  0  0  0  0  0  0  0  0  0  0  # atno 10718 bound_to 10713
  154.1917  135.2794  155.3020 H   0  0  0  0  0  0  0  0  0  0  0  0  # atno 10763 bound_to 10752
  154.5924  135.5555  153.7295 H   0  0  0  0  0  0  0  0  0  0  0  0  # atno 10764 bound_to 10752
  153.0111  135.6371  154.2055 H   0  0  0  0  0  0  0  0  0  0  0  0  # atno 10765 bound_to 10752
  141.1468  133.7961  157.0308 H   0  0  0  0  0  0  0  0  0  0  0  0  # atno 11005 bound_to 11000
  145.9597  140.8845  143.0217 LP  0  0  0  0  0  0  0  0  0  0  0  0  # atno 17320 bound_to 7965
  144.6741  140.1795  143.7407 LP  0  0  0  0  0  0  0  0  0  0  0  0  # atno 17321 bound_to 7965
  140.0515  143.5245  152.2671 LP  0  0  0  0  0  0  0  0  0  0  0  0  # atno 17342 bound_to 10162
  139.6109  144.7608  151.2955 LP  0  0  0  0  0  0  0  0  0  0  0  0  # atno 17343 bound_to 10162
  156.6876  130.4585  149.5609 LP  0  0  0  0  0  0  0  0  0  0  0  0  # atno 17370 bound_to 10713
  156.1885  130.6544  151.1033 LP  0  0  0  0  0  0  0  0  0  0  0  0  # atno 17371 bound_to 10713
  140.0755  134.9678  157.1538 LP  0  0  0  0  0  0  0  0  0  0  0  0  # atno 17394 bound_to 11000
  140.3650  134.2452  155.7183 LP  0  0  0  0  0  0  0  0  0  0  0  0  # atno 17395 bound_to 11000

$$$$
