AV-unprocessed.smi:837|AV-procd|sdf|3893|dock6
  -GOLD-   22720 1353D 1   1.00000     0.00000
 Structure written by MMmdl.
 49 51  0  0  0  0  0  0  0  0  1 V2000
  147.9997  141.8129  154.1137 C   0  0  0  0  0  0  0  0  0  0  0  0
  149.1709  140.8161  154.2398 C   0  0  1  0  0  0  0  0  0  0  0  0
  150.0184  141.1246  155.4930 C   0  0  0  0  0  0  0  0  0  0  0  0
  151.2466  140.2060  155.5888 C   0  0  0  0  0  0  0  0  0  0  0  0
  150.8442  138.7246  155.5681 C   0  0  0  0  0  0  0  0  0  0  0  0
  149.9987  138.3951  154.3248 C   0  0  0  0  0  0  0  0  0  0  0  0
  148.7580  139.3114  154.1730 C   0  0  2  0  0  0  0  0  0  0  0  0
  148.0788  139.0077  152.9253 N   0  0  0  0  0  0  0  0  0  0  0  0
  146.8442  138.5206  153.1001 C   0  0  0  0  0  0  0  0  0  0  0  0
  146.0845  138.1729  152.1973 O   0  0  0  0  0  0  0  0  0  0  0  0
  146.5898  138.4792  154.4196 N   0  0  0  0  0  0  0  0  0  0  0  0
  145.3437  137.9694  155.0074 C   0  0  0  0  0  0  0  0  0  0  0  0
  145.0165  136.5281  154.5894 C   0  0  0  0  0  0  0  0  0  0  0  0
  145.6866  135.5785  154.9989 O   0  0  0  0  0  0  0  0  0  0  0  0
  143.9749  136.3831  153.7568 N   0  0  0  0  0  0  0  0  0  0  0  0
  143.4960  135.1100  153.2316 C   0  0  0  0  0  0  0  0  0  0  0  0
  143.5035  135.0946  151.6941 C   0  0  0  0  0  0  0  0  0  0  0  0
  144.3890  133.9961  151.1399 C   0  0  0  0  0  0  0  0  0  0  0  0
  145.7847  134.0245  151.3391 C   0  0  0  0  0  0  0  0  0  0  0  0
  146.5661  132.9789  150.8105 C   0  0  0  0  0  0  0  0  0  0  0  0
  145.9165  131.9472  150.1036 C   0  0  0  0  0  0  0  0  0  0  0  0
  144.5806  131.9095  149.9076 N   0  0  0  0  0  0  0  0  0  0  0  0
  143.8385  132.9159  150.4176 C   0  0  0  0  0  0  0  0  0  0  0  0
  147.6354  138.9163  155.1349 C   0  0  0  0  0  0  0  0  0  0  0  0
  147.7056  138.9918  156.3618 O   0  0  0  0  0  0  0  0  0  0  0  0
  147.3150  141.7430  154.9592 H   0  0  0  0  0  0  0  0  0  0  0  0
  147.4245  141.6465  153.2029 H   0  0  0  0  0  0  0  0  0  0  0  0
  148.3670  142.8388  154.0779 H   0  0  0  0  0  0  0  0  0  0  0  0
  149.8138  141.0000  153.3773 H   0  0  0  0  0  0  0  0  0  0  0  0
  150.3516  142.1628  155.4668 H   0  0  0  0  0  0  0  0  0  0  0  0
  149.4139  141.0260  156.3949 H   0  0  0  0  0  0  0  0  0  0  0  0
  151.9212  140.4118  154.7567 H   0  0  0  0  0  0  0  0  0  0  0  0
  151.8045  140.4254  156.4995 H   0  0  0  0  0  0  0  0  0  0  0  0
  151.7381  138.1006  155.5808 H   0  0  0  0  0  0  0  0  0  0  0  0
  150.2935  138.4801  156.4764 H   0  0  0  0  0  0  0  0  0  0  0  0
  150.6264  138.4905  153.4377 H   0  0  0  0  0  0  0  0  0  0  0  0
  149.6967  137.3470  154.3633 H   0  0  0  0  0  0  0  0  0  0  0  0
  148.5135  139.1382  152.0235 H   0  0  0  0  0  0  0  0  0  0  0  0
  145.4007  138.0178  156.0963 H   0  0  0  0  0  0  0  0  0  0  0  0
  144.5075  138.6116  154.7261 H   0  0  0  0  0  0  0  0  0  0  0  0
  143.4777  137.2131  153.4673 H   0  0  0  0  0  0  0  0  0  0  0  0
  144.1020  134.2919  153.6257 H   0  0  0  0  0  0  0  0  0  0  0  0
  142.4823  134.9510  153.6008 H   0  0  0  0  0  0  0  0  0  0  0  0
  142.4894  134.9590  151.3153 H   0  0  0  0  0  0  0  0  0  0  0  0
  143.8498  136.0539  151.3064 H   0  0  0  0  0  0  0  0  0  0  0  0
  146.2491  134.8305  151.8884 H   0  0  0  0  0  0  0  0  0  0  0  0
  147.6379  132.9676  150.9438 H   0  0  0  0  0  0  0  0  0  0  0  0
  146.4852  131.1300  149.6850 H   0  0  0  0  0  0  0  0  0  0  0  0
  142.7736  132.8553  150.2466 H   0  0  0  0  0  0  0  0  0  0  0  0
  1  2  1  0  0  0  0
  1 26  1  0  0  0  0
  1 27  1  0  0  0  0
  1 28  1  0  0  0  0
  2  7  1  0  0  0  0
  2  3  1  0  0  0  0
  2 29  1  0  0  0  0
  3  4  1  0  0  0  0
  3 30  1  0  0  0  0
  3 31  1  0  0  0  0
  4  5  1  0  0  0  0
  4 32  1  0  0  0  0
  4 33  1  0  0  0  0
  5  6  1  0  0  0  0
  5 34  1  0  0  0  0
  5 35  1  0  0  0  0
  6  7  1  0  0  0  0
  6 36  1  0  0  0  0
  6 37  1  0  0  0  0
  7 24  1  0  0  0  0
  7  8  1  0  0  0  0
  8  9  1  0  0  0  0
  8 38  1  0  0  0  0
  9 10  2  0  0  0  0
  9 11  1  0  0  0  0
 11 12  1  0  0  0  0
 11 24  1  0  0  0  0
 12 13  1  0  0  0  0
 12 39  1  0  0  0  0
 12 40  1  0  0  0  0
 13 14  2  0  0  0  0
 13 15  1  0  0  0  0
 15 16  1  0  0  0  0
 15 41  1  0  0  0  0
 16 17  1  0  0  0  0
 16 42  1  0  0  0  0
 16 43  1  0  0  0  0
 17 18  1  0  0  0  0
 17 44  1  0  0  0  0
 17 45  1  0  0  0  0
 18 23  1  0  0  0  0
 18 19  2  0  0  0  0
 19 20  1  0  0  0  0
 19 46  1  0  0  0  0
 20 21  2  0  0  0  0
 20 47  1  0  0  0  0
 21 22  1  0  0  0  0
 21 48  1  0  0  0  0
 22 23  2  0  0  0  0
 23 49  1  0  0  0  0
 24 25  2  0  0  0  0
M  END
> <s_m_source_file>
AV-unprocessed.smi

> <i_m_source_file_index>
837

> <i_lp_mmshare_version>
43012

> <i_f3d_flags>
0

> <s_epik_input>
W0NIMl0xW0NIMl1bQ0gyXVtDSDJdW0NAQEhdKFtDSDNdKVtDQEBdMTJbTkhdQyg9TylOKEMyPU8pW0NIMl1DKD1PKVtOSF1bQ0gyXVtDSDJdYzNbY0hdW2NIXVtjSF1uW2NIXTM=

> <s_epik_cmdline>
J2VwaWtfcHl0aG9uJywgJy1waCcsICc3LjAnLCAnLXRuJywgJzgnLCAnLW1hJywgJzIwMCcsICctbWV0YWxfYmluZGluZycsICctaW1hZScsICc8aW5maWxlLm1hZT4nLCAnLW9tYWUnLCAnPG91dGZpbGUubWFlPic=

> <r_lp_tautomer_probability>
1

> <r_epik_Ionization_Penalty>
0.0127837

> <r_epik_Ionization_Penalty_Charging>
0

> <r_epik_Ionization_Penalty_Neutral>
0.0127837

> <r_epik_State_Penalty>
0.00987657

> <r_epik_Charging_Adjusted_Penalty>
0.00987657

> <i_epik_Tot_Q>
0

> <i_epik_Tot_abs_Q>
0

> <r_epik_Metal_State_Penalty>
0.0309865

> <b_epik_Metal_Only>
0

> <s_lp_Force_Field>
OPLS_2005

> <r_lp_Energy>
18.239

> <b_lp_Chiralities_Consistent>
1

> <s_lp_Variant>
AV-unprocessed.smi:837-2

> <Gold.Version>
5.8.1

> <Gold.Id.Protein>
6NUR|6NUR_protein|mol2

> <Gold.PLP.Fitness>
47.1518

> <Gold.PLP.PLP>
-39.8658

> <Gold.PLP.part.hbond>
-2.1902

> <Gold.PLP.part.metal>
0.0000

> <Gold.PLP.part.buried>
-4.4260

> <Gold.PLP.part.nonpolar>
-34.4035

> <Gold.PLP.part.repulsive>
0.5554

> <Gold.PLP.ligand.clash>
0.0000

> <Gold.PLP.ligand.torsion>
0.5188

> <Gold.PLP.Chemscore.Hbond>
0.9440

> <Gold.PLP.Chemscore.CHOScore>
1.8198

> <Gold.PLP.Chemscore.Metal>
0.0000

> <Gold.Chemscore.Hbonds>
donor molecule, donor type, donor heavy atom, donor atom, acceptor molecule, acceptor atom, score
      L1  H     8    38       P1  7957  0.93
      L1  C    21    48       P1 10747  0.77
      L1  C    23    49       P1 10186  1.00

> <Gold.PLP.Chemscore.Internal.Correction>
0.0321

> <Gold.Rescore>
     Score         DG    S(hbond)    S(metal)    S(lipo)     H(rot)  DE(clash)    DE(int)     intcor
     16.85     -17.56       1.51        0.00     100.80       1.86       0.18       0.53       ----

> <Gold.Chemscore.Fitness>
16.8459

> <Gold.Chemscore.DG>
-17.5634

> <Gold.Chemscore.ZeroCoef>
-5.4800

> <Gold.Chemscore.Hbond>
1.5088

> <Gold.Chemscore.Metal>
0.0000

> <Gold.Chemscore.Lipo>
100.8013

> <Gold.Chemscore.Internal_Hbond>
0.0000

> <Gold.Chemscore.DEClash>
0.1843

> <Gold.Chemscore.DEInternal>
0.5331

> <Gold.Chemscore.Rot>
1.8553

> <Gold.Chemscore.Internal.Correction>
   9.000000E+99

> <Gold.Chemscore.Hbonds>
donor molecule, donor type, donor heavy atom, donor atom, acceptor molecule, acceptor atom, score
      L1  H     8    38       P1  7957  0.90

> <Gold.Chemscore.Hbond.Weighted>
-5.0393

> <Gold.Chemscore.Metal.Weighted>
-0.0000

> <Gold.Chemscore.Lipo.Weighted>
-11.7938

> <Gold.Chemscore.Internal_Hbond.Weighted>
0.0000

> <Gold.Chemscore.DEClash.Weighted>
0.1843

> <Gold.Chemscore.DEInternal.Weighted>
0.5331

> <Gold.Chemscore.Rot.Weighted>
4.7497

> <Gold.Chemscore.Internal.Correction.Weighted>
   9.000000E+99

> <Gold.Protein.RotatedTorsions>
[ 6907 6896 6895 6894 ] final -129.51 input  -60.11 | X-H torsion
[ 7974 7965 7964 7962 ] final  -13.94 input  175.53 | X-H torsion
[ 8008 7997 7996 7995 ] final   -7.49 input   59.86 | X-H torsion
[ 10167 10162 10161 10158 ] final  -25.95 input  -65.29 | X-H torsion
[ 10718 10713 10712 10709 ] final  -91.01 input   66.30 | X-H torsion
[ 10763 10752 10751 10750 ] final -174.15 input  -60.55 | X-H torsion
[ 11005 11000 10999 10996 ] final  -97.31 input  -57.11 | X-H torsion

> <Gold.Protein.ActiveResidues>
 VAL166  LYS551  ARG553  GLY616  TRP617  ASP618  TYR619  PRO620  LYS621  CYS622 
 ASP623  PHE694  ASN695  SER759  ASP760  ASP761  ALA762  ILE779  LEU786  VAL792 
 PHE793  MET794  SER795  GLU796  ALA797  LYS798  CYS799  TRP800  GLU811  SER814 

> <Gold.Protein.RotatedAtoms>
  150.9295  133.6784  159.2813 H   0  0  0  0  0  0  0  0  0  0  0  0  # atno 6907 bound_to 6896
  151.4210  135.0996  159.9623 H   0  0  0  0  0  0  0  0  0  0  0  0  # atno 6908 bound_to 6896
  152.5019  133.8747  159.7371 H   0  0  0  0  0  0  0  0  0  0  0  0  # atno 6909 bound_to 6896
  146.2094  140.3276  142.8396 H   0  0  0  0  0  0  0  0  0  0  0  0  # atno 7974 bound_to 7965
  154.5833  140.2405  155.8023 H   0  0  0  0  0  0  0  0  0  0  0  0  # atno 8008 bound_to 7997
  156.2195  140.3002  155.9874 H   0  0  0  0  0  0  0  0  0  0  0  0  # atno 8009 bound_to 7997
  155.2503  140.0410  157.2976 H   0  0  0  0  0  0  0  0  0  0  0  0  # atno 8010 bound_to 7997
  140.7285  143.4220  151.0936 H   0  0  0  0  0  0  0  0  0  0  0  0  # atno 10167 bound_to 10162
  155.9991  130.4932  150.5410 H   0  0  0  0  0  0  0  0  0  0  0  0  # atno 10718 bound_to 10713
  154.5996  135.2853  155.0550 H   0  0  0  0  0  0  0  0  0  0  0  0  # atno 10763 bound_to 10752
  154.1820  135.6455  153.5040 H   0  0  0  0  0  0  0  0  0  0  0  0  # atno 10764 bound_to 10752
  153.0151  135.5426  154.6710 H   0  0  0  0  0  0  0  0  0  0  0  0  # atno 10765 bound_to 10752
  141.1383  133.8161  157.0688 H   0  0  0  0  0  0  0  0  0  0  0  0  # atno 11005 bound_to 11000
  144.8875  140.7481  143.5947 LP  0  0  0  0  0  0  0  0  0  0  0  0  # atno 17320 bound_to 7965
  145.3198  139.1792  143.4594 LP  0  0  0  0  0  0  0  0  0  0  0  0  # atno 17321 bound_to 7965
  139.7867  143.8277  152.3146 LP  0  0  0  0  0  0  0  0  0  0  0  0  # atno 17342 bound_to 10162
  139.8247  144.7280  150.9527 LP  0  0  0  0  0  0  0  0  0  0  0  0  # atno 17343 bound_to 10162
  157.3346  131.0706  151.1834 LP  0  0  0  0  0  0  0  0  0  0  0  0  # atno 17370 bound_to 10713
  157.2703  130.6701  149.6016 LP  0  0  0  0  0  0  0  0  0  0  0  0  # atno 17371 bound_to 10713
  140.0524  134.9798  157.1160 LP  0  0  0  0  0  0  0  0  0  0  0  0  # atno 17394 bound_to 11000
  140.3970  134.2123  155.7164 LP  0  0  0  0  0  0  0  0  0  0  0  0  # atno 17395 bound_to 11000

$$$$
