AV-unprocessed.smi:946|AV-procd|sdf|4236|dock5
  -GOLD-   22720 2143D 1   1.00000     0.00000
 Structure written by MMmdl.
 42 43  0  0  0  0  0  0  0  0  1 V2000
  148.2254  137.6431  157.9551 C   0  0  0  0  0  0  0  0  0  0  0  0
  149.5398  136.8775  158.1641 C   0  0  2  0  0  0  0  0  0  0  0  0
  149.2436  135.7367  158.9639 O   0  0  0  0  0  0  0  0  0  0  0  0
  148.1387  134.9538  158.5279 C   0  0  0  0  0  0  0  0  0  0  0  0
  147.1790  134.7650  159.7099 C   0  0  1  0  0  0  0  0  0  0  0  0
  147.5551  133.5439  160.5718 C   0  0  0  0  0  0  0  0  0  0  0  0
  146.6280  133.4388  161.7885 C   0  0  0  0  0  0  0  0  0  0  0  0
  146.6250  134.7667  162.5529 C   0  0  0  0  0  0  0  0  0  0  0  0
  146.3140  135.9313  161.5993 C   0  0  0  0  0  0  0  0  0  0  0  0
  147.2439  135.9365  160.5207 O   0  0  0  0  0  0  0  0  0  0  0  0
  150.5891  137.7579  158.8611 C   0  0  0  0  0  0  0  0  0  0  0  0
  151.3120  137.2699  159.7306 O   0  0  0  0  0  0  0  0  0  0  0  0
  150.6489  139.0371  158.4451 N   0  0  0  0  0  0  0  0  0  0  0  0
  151.5011  140.0739  158.9086 C   0  0  0  0  0  0  0  0  0  0  0  0
  152.6948  139.6384  159.5248 C   0  0  0  0  0  0  0  0  0  0  0  0
  153.6087  140.5912  160.0136 C   0  0  0  0  0  0  0  0  0  0  0  0
  153.3055  141.9571  159.8751 C   0  0  0  0  0  0  0  0  0  0  0  0
  152.0914  142.3127  159.2499 C   0  0  0  0  0  0  0  0  0  0  0  0
  151.6854  143.7678  159.0620 C   0  0  0  0  0  0  0  0  0  0  0  0
  150.4893  143.8756  158.4819 F   0  0  0  0  0  0  0  0  0  0  0  0
  151.6358  144.3774  160.2465 F   0  0  0  0  0  0  0  0  0  0  0  0
  152.5826  144.3889  158.2960 F   0  0  0  0  0  0  0  0  0  0  0  0
  151.2172  141.3933  158.7816 N   0  0  0  0  0  0  0  0  0  0  0  0
  148.3789  138.5350  157.3466 H   0  0  0  0  0  0  0  0  0  0  0  0
  147.7864  137.9550  158.9038 H   0  0  0  0  0  0  0  0  0  0  0  0
  147.4920  137.0186  157.4444 H   0  0  0  0  0  0  0  0  0  0  0  0
  149.9084  136.5532  157.1890 H   0  0  0  0  0  0  0  0  0  0  0  0
  147.6309  135.4835  157.7206 H   0  0  0  0  0  0  0  0  0  0  0  0
  148.4512  133.9844  158.1378 H   0  0  0  0  0  0  0  0  0  0  0  0
  146.1648  134.6373  159.3266 H   0  0  0  0  0  0  0  0  0  0  0  0
  147.4966  132.6295  159.9804 H   0  0  0  0  0  0  0  0  0  0  0  0
  148.5891  133.6342  160.9073 H   0  0  0  0  0  0  0  0  0  0  0  0
  145.6154  133.2025  161.4592 H   0  0  0  0  0  0  0  0  0  0  0  0
  146.9442  132.6243  162.4407 H   0  0  0  0  0  0  0  0  0  0  0  0
  145.8949  134.7352  163.3621 H   0  0  0  0  0  0  0  0  0  0  0  0
  147.5996  134.9259  163.0160 H   0  0  0  0  0  0  0  0  0  0  0  0
  145.2955  135.8596  161.2148 H   0  0  0  0  0  0  0  0  0  0  0  0
  146.3871  136.8801  162.1310 H   0  0  0  0  0  0  0  0  0  0  0  0
  149.9976  139.3008  157.7205 H   0  0  0  0  0  0  0  0  0  0  0  0
  152.9144  138.5850  159.6214 H   0  0  0  0  0  0  0  0  0  0  0  0
  154.5282  140.2783  160.4862 H   0  0  0  0  0  0  0  0  0  0  0  0
  153.9926  142.7054  160.2414 H   0  0  0  0  0  0  0  0  0  0  0  0
  1  2  1  0  0  0  0
  1 24  1  0  0  0  0
  1 25  1  0  0  0  0
  1 26  1  0  0  0  0
  2  3  1  0  0  0  0
  2 11  1  0  0  0  0
  2 27  1  0  0  0  0
  3  4  1  0  0  0  0
  4  5  1  0  0  0  0
  4 28  1  0  0  0  0
  4 29  1  0  0  0  0
  5 10  1  0  0  0  0
  5  6  1  0  0  0  0
  5 30  1  0  0  0  0
  6  7  1  0  0  0  0
  6 31  1  0  0  0  0
  6 32  1  0  0  0  0
  7  8  1  0  0  0  0
  7 33  1  0  0  0  0
  7 34  1  0  0  0  0
  8  9  1  0  0  0  0
  8 35  1  0  0  0  0
  8 36  1  0  0  0  0
  9 10  1  0  0  0  0
  9 37  1  0  0  0  0
  9 38  1  0  0  0  0
 11 12  2  0  0  0  0
 11 13  1  0  0  0  0
 13 14  1  0  0  0  0
 13 39  1  0  0  0  0
 14 23  1  0  0  0  0
 14 15  2  0  0  0  0
 15 16  1  0  0  0  0
 15 40  1  0  0  0  0
 16 17  2  0  0  0  0
 16 41  1  0  0  0  0
 17 18  1  0  0  0  0
 17 42  1  0  0  0  0
 18 19  1  0  0  0  0
 18 23  2  0  0  0  0
 19 20  1  0  0  0  0
 19 21  1  0  0  0  0
 19 22  1  0  0  0  0
M  END
> <s_m_source_file>
AV-unprocessed.smi

> <i_m_source_file_index>
946

> <i_lp_mmshare_version>
43012

> <i_f3d_flags>
0

> <s_epik_input>
TzFbQ0gyXVtDSDJdW0NIMl1bQ0gyXVtDQEhdMVtDSDJdT1tDQEBIXShbQ0gzXSlDKD1PKVtOSF1jMltjSF1bY0hdW2NIXWMobjIpQyhGKShGKUY=

> <s_epik_cmdline>
J2VwaWtfcHl0aG9uJywgJy1waCcsICc3LjAnLCAnLXRuJywgJzgnLCAnLW1hJywgJzIwMCcsICctbWV0YWxfYmluZGluZycsICctaW1hZScsICc8aW5maWxlLm1hZT4nLCAnLW9tYWUnLCAnPG91dGZpbGUubWFlPic=

> <r_lp_tautomer_probability>
1

> <r_epik_Ionization_Penalty>
1.32683e-06

> <r_epik_Ionization_Penalty_Charging>
0

> <r_epik_Ionization_Penalty_Neutral>
1.32683e-06

> <r_epik_State_Penalty>
-0

> <r_epik_Charging_Adjusted_Penalty>
0

> <i_epik_Tot_Q>
0

> <i_epik_Tot_abs_Q>
0

> <r_epik_Metal_State_Penalty>
-0

> <b_epik_Metal_Only>
0

> <s_lp_Force_Field>
OPLS_2005

> <r_lp_Energy>
15.6569

> <b_lp_Chiralities_Consistent>
1

> <s_lp_Variant>
AV-unprocessed.smi:946-3

> <Gold.Version>
5.8.1

> <Gold.Id.Protein>
6NUR|6NUR_protein|mol2

> <Gold.PLP.Fitness>
50.0879

> <Gold.PLP.PLP>
-49.8386

> <Gold.PLP.part.hbond>
-1.0000

> <Gold.PLP.part.metal>
0.0000

> <Gold.PLP.part.buried>
-7.4727

> <Gold.PLP.part.nonpolar>
-42.7159

> <Gold.PLP.part.repulsive>
0.1560

> <Gold.PLP.ligand.clash>
0.0000

> <Gold.PLP.ligand.torsion>
1.4131

> <Gold.PLP.Chemscore.Hbond>
1.0000

> <Gold.PLP.Chemscore.CHOScore>
0.0000

> <Gold.PLP.Chemscore.Metal>
0.0000

> <Gold.Chemscore.Hbonds>
donor molecule, donor type, donor heavy atom, donor atom, acceptor molecule, acceptor atom, score
      P1  H  6896  6909       L1     3  1.00

> <Gold.PLP.Chemscore.Internal.Correction>
0.0755

> <Gold.Rescore>
     Score         DG    S(hbond)    S(metal)    S(lipo)     H(rot)  DE(clash)    DE(int)     intcor
     12.74     -15.58       0.87        0.00      99.95       1.76       0.03       2.80       ----

> <Gold.Chemscore.Fitness>
12.7413

> <Gold.Chemscore.DG>
-15.5755

> <Gold.Chemscore.ZeroCoef>
-5.4800

> <Gold.Chemscore.Hbond>
0.8670

> <Gold.Chemscore.Metal>
0.0000

> <Gold.Chemscore.Lipo>
99.9505

> <Gold.Chemscore.Internal_Hbond>
0.0000

> <Gold.Chemscore.DEClash>
0.0307

> <Gold.Chemscore.DEInternal>
2.8034

> <Gold.Chemscore.Rot>
1.7557

> <Gold.Chemscore.Internal.Correction>
   9.000000E+99

> <Gold.Chemscore.Hbonds>
donor molecule, donor type, donor heavy atom, donor atom, acceptor molecule, acceptor atom, score
      P1  H  6896  6909       L1     3  0.76

> <Gold.Chemscore.Hbond.Weighted>
-2.8959

> <Gold.Chemscore.Metal.Weighted>
-0.0000

> <Gold.Chemscore.Lipo.Weighted>
-11.6942

> <Gold.Chemscore.Internal_Hbond.Weighted>
0.0000

> <Gold.Chemscore.DEClash.Weighted>
0.0307

> <Gold.Chemscore.DEInternal.Weighted>
2.8034

> <Gold.Chemscore.Rot.Weighted>
4.4946

> <Gold.Chemscore.Internal.Correction.Weighted>
   9.000000E+99

> <Gold.Protein.RotatedTorsions>
[ 6907 6896 6895 6894 ] final   51.59 input  -60.11 | X-H torsion
[ 7974 7965 7964 7962 ] final   54.64 input  175.53 | X-H torsion
[ 8008 7997 7996 7995 ] final  114.81 input   59.86 | X-H torsion
[ 10167 10162 10161 10158 ] final   39.19 input  -65.29 | X-H torsion
[ 10718 10713 10712 10709 ] final   45.07 input   66.30 | X-H torsion
[ 10763 10752 10751 10750 ] final    1.73 input  -60.55 | X-H torsion
[ 11005 11000 10999 10996 ] final   48.00 input  -57.11 | X-H torsion

> <Gold.Protein.ActiveResidues>
 VAL166  LYS551  ARG553  GLY616  TRP617  ASP618  TYR619  PRO620  LYS621  CYS622 
 ASP623  PHE694  ASN695  SER759  ASP760  ASP761  ALA762  ILE779  LEU786  VAL792 
 PHE793  MET794  SER795  GLU796  ALA797  LYS798  CYS799  TRP800  GLU811  SER814 

> <Gold.Protein.RotatedAtoms>
  152.3142  134.7460  160.0328 H   0  0  0  0  0  0  0  0  0  0  0  0  # atno 6907 bound_to 6896
  151.7930  133.3356  159.3512 H   0  0  0  0  0  0  0  0  0  0  0  0  # atno 6908 bound_to 6896
  150.7336  134.5755  159.5956 H   0  0  0  0  0  0  0  0  0  0  0  0  # atno 6909 bound_to 6896
  145.9587  139.4039  143.0261 H   0  0  0  0  0  0  0  0  0  0  0  0  # atno 7974 bound_to 7965
  156.2344  140.2951  156.0273 H   0  0  0  0  0  0  0  0  0  0  0  0  # atno 8008 bound_to 7997
  155.2134  140.0413  157.2954 H   0  0  0  0  0  0  0  0  0  0  0  0  # atno 8009 bound_to 7997
  154.6052  140.2437  155.7747 H   0  0  0  0  0  0  0  0  0  0  0  0  # atno 8010 bound_to 7997
  140.3864  144.1911  150.6130 H   0  0  0  0  0  0  0  0  0  0  0  0  # atno 10167 bound_to 10162
  157.4336  130.8039  149.7627 H   0  0  0  0  0  0  0  0  0  0  0  0  # atno 10718 bound_to 10713
  153.3044  135.6958  153.7173 H   0  0  0  0  0  0  0  0  0  0  0  0  # atno 10763 bound_to 10752
  153.6075  135.3450  155.2968 H   0  0  0  0  0  0  0  0  0  0  0  0  # atno 10764 bound_to 10752
  154.8559  135.4355  154.2164 H   0  0  0  0  0  0  0  0  0  0  0  0  # atno 10765 bound_to 10752
  140.1229  134.4806  155.8583 H   0  0  0  0  0  0  0  0  0  0  0  0  # atno 11005 bound_to 11000
  145.8069  140.9744  143.0969 LP  0  0  0  0  0  0  0  0  0  0  0  0  # atno 17320 bound_to 7965
  144.6810  139.9872  143.7484 LP  0  0  0  0  0  0  0  0  0  0  0  0  # atno 17321 bound_to 7965
  140.4885  143.2355  151.8853 LP  0  0  0  0  0  0  0  0  0  0  0  0  # atno 17342 bound_to 10162
  139.4792  144.5192  151.8825 LP  0  0  0  0  0  0  0  0  0  0  0  0  # atno 17343 bound_to 10162
  155.9922  130.3932  150.2951 LP  0  0  0  0  0  0  0  0  0  0  0  0  # atno 17370 bound_to 10713
  157.1110  131.0221  151.3048 LP  0  0  0  0  0  0  0  0  0  0  0  0  # atno 17371 bound_to 10713
  141.2155  133.6767  156.6923 LP  0  0  0  0  0  0  0  0  0  0  0  0  # atno 17394 bound_to 11000
  140.2942  134.8216  157.4042 LP  0  0  0  0  0  0  0  0  0  0  0  0  # atno 17395 bound_to 11000

$$$$
