AV-unprocessed.smi:1157|AV-procd|sdf|4908|dock3
  -GOLD-   22720 3483D 1   1.00000     0.00000
 Structure written by MMmdl.
 55 57  0  0  0  0  0  0  0  0  2 V2000
  145.5042  137.1732  154.2396 C   0  0  0  0  0  0  0  0  0  0  0  0
  145.3801  136.8303  152.7354 C   0  0  0  0  0  0  0  0  0  0  0  0
  143.8834  136.9666  152.3550 C   0  0  0  0  0  0  0  0  0  0  0  0
  146.1306  137.9408  151.9456 C   0  0  0  0  0  0  0  0  0  0  0  0
  147.4417  138.2336  152.5199 N   0  0  0  0  0  0  0  0  0  0  0  0
  147.6839  139.1662  153.4497 C   0  0  0  0  0  0  0  0  0  0  0  0
  146.8107  139.8834  153.9374 O   0  0  0  0  0  0  0  0  0  0  0  0
  148.9857  139.1935  153.7835 N   0  0  0  0  0  0  0  0  0  0  0  0
  149.6469  140.0734  154.6825 C   0  0  0  0  0  0  0  0  0  0  0  0
  150.8269  139.6169  155.3066 C   0  0  0  0  0  0  0  0  0  0  0  0
  151.5268  140.4652  156.1893 C   0  0  0  0  0  0  0  0  0  0  0  0
  151.0437  141.7719  156.4358 C   0  0  0  0  0  0  0  0  0  0  0  0
  151.6943  142.6768  157.2954 N   0  0  0  0  0  0  0  0  0  0  0  0
  152.2353  142.2565  158.5800 C   0  0  0  0  0  0  0  0  0  0  0  0
  152.2332  143.5135  159.4583 C   0  0  0  0  0  0  0  0  0  0  0  0
  152.1859  144.6695  158.4588 C   0  0  0  0  0  0  0  0  0  0  0  0
  151.3704  144.0944  157.3017 C   0  0  0  0  0  0  0  0  0  0  0  0
  149.9160  142.1739  155.8027 N   0  3  0  0  0  0  0  0  0  0  0  0
  149.2139  141.3937  154.9527 C   0  0  0  0  0  0  0  0  0  0  0  0
  145.8960  135.4725  152.4019 N   0  0  0  0  0  0  0  0  0  0  0  0
  145.3606  134.3881  153.2337 C   0  0  0  0  0  0  0  0  0  0  0  0
  146.0247  133.0367  152.9200 C   0  0  0  0  0  0  0  0  0  0  0  0
  145.8648  132.7327  151.5399 O   0  0  0  0  0  0  0  0  0  0  0  0
  146.4233  133.7319  150.6960 C   0  0  0  0  0  0  0  0  0  0  0  0
  145.7629  135.0894  150.9915 C   0  0  0  0  0  0  0  0  0  0  0  0
  145.1082  138.1678  154.4478 H   0  0  0  0  0  0  0  0  0  0  0  0
  146.5401  137.1724  154.5781 H   0  0  0  0  0  0  0  0  0  0  0  0
  144.9490  136.4780  154.8688 H   0  0  0  0  0  0  0  0  0  0  0  0
  143.5427  137.9999  152.4327 H   0  0  0  0  0  0  0  0  0  0  0  0
  143.2352  136.3853  153.0104 H   0  0  0  0  0  0  0  0  0  0  0  0
  143.6957  136.6401  151.3315 H   0  0  0  0  0  0  0  0  0  0  0  0
  146.2457  137.6353  150.9037 H   0  0  0  0  0  0  0  0  0  0  0  0
  145.5524  138.8644  151.9076 H   0  0  0  0  0  0  0  0  0  0  0  0
  148.2156  137.6838  152.1759 H   0  0  0  0  0  0  0  0  0  0  0  0
  149.5655  138.4797  153.3670 H   0  0  0  0  0  0  0  0  0  0  0  0
  151.1968  138.6202  155.1140 H   0  0  0  0  0  0  0  0  0  0  0  0
  152.4305  140.1057  156.6591 H   0  0  0  0  0  0  0  0  0  0  0  0
  151.6471  141.4603  159.0371 H   0  0  0  0  0  0  0  0  0  0  0  0
  153.2517  141.8907  158.4314 H   0  0  0  0  0  0  0  0  0  0  0  0
  151.3319  143.5284  160.0727 H   0  0  0  0  0  0  0  0  0  0  0  0
  153.0935  143.5639  160.1262 H   0  0  0  0  0  0  0  0  0  0  0  0
  151.7506  145.5784  158.8748 H   0  0  0  0  0  0  0  0  0  0  0  0
  153.1957  144.9035  158.1192 H   0  0  0  0  0  0  0  0  0  0  0  0
  151.6234  144.5716  156.3543 H   0  0  0  0  0  0  0  0  0  0  0  0
  150.3023  144.2234  157.4820 H   0  0  0  0  0  0  0  0  0  0  0  0
  148.3468  141.8658  154.5158 H   0  0  0  0  0  0  0  0  0  0  0  0
  145.5150  134.5950  154.2910 H   0  0  0  0  0  0  0  0  0  0  0  0
  144.2852  134.2930  153.0830 H   0  0  0  0  0  0  0  0  0  0  0  0
  147.0852  133.0596  153.1756 H   0  0  0  0  0  0  0  0  0  0  0  0
  145.5693  132.2443  153.5139 H   0  0  0  0  0  0  0  0  0  0  0  0
  147.5023  133.7864  150.8484 H   0  0  0  0  0  0  0  0  0  0  0  0
  146.2612  133.4503  149.6554 H   0  0  0  0  0  0  0  0  0  0  0  0
  144.7105  135.0358  150.7126 H   0  0  0  0  0  0  0  0  0  0  0  0
  146.2260  135.8295  150.3413 H   0  0  0  0  0  0  0  0  0  0  0  0
  149.5778  143.1210  155.9739 H   0  0  0  0  0  0  0  0  0  0  0  0
  1  2  1  0  0  0  0
  1 26  1  0  0  0  0
  1 27  1  0  0  0  0
  1 28  1  0  0  0  0
  2  3  1  0  0  0  0
  2  4  1  0  0  0  0
  2 20  1  0  0  0  0
  3 29  1  0  0  0  0
  3 30  1  0  0  0  0
  3 31  1  0  0  0  0
  4  5  1  0  0  0  0
  4 32  1  0  0  0  0
  4 33  1  0  0  0  0
  5  6  1  0  0  0  0
  5 34  1  0  0  0  0
  6  7  2  0  0  0  0
  6  8  1  0  0  0  0
  8  9  1  0  0  0  0
  8 35  1  0  0  0  0
  9 19  1  0  0  0  0
  9 10  2  0  0  0  0
 10 11  1  0  0  0  0
 10 36  1  0  0  0  0
 11 12  2  0  0  0  0
 11 37  1  0  0  0  0
 12 13  1  0  0  0  0
 12 18  1  0  0  0  0
 13 17  1  0  0  0  0
 13 14  1  0  0  0  0
 14 15  1  0  0  0  0
 14 38  1  0  0  0  0
 14 39  1  0  0  0  0
 15 16  1  0  0  0  0
 15 40  1  0  0  0  0
 15 41  1  0  0  0  0
 16 17  1  0  0  0  0
 16 42  1  0  0  0  0
 16 43  1  0  0  0  0
 17 44  1  0  0  0  0
 17 45  1  0  0  0  0
 18 19  2  0  0  0  0
 18 55  1  0  0  0  0
 19 46  1  0  0  0  0
 20 25  1  0  0  0  0
 20 21  1  0  0  0  0
 21 22  1  0  0  0  0
 21 47  1  0  0  0  0
 21 48  1  0  0  0  0
 22 23  1  0  0  0  0
 22 49  1  0  0  0  0
 22 50  1  0  0  0  0
 23 24  1  0  0  0  0
 24 25  1  0  0  0  0
 24 51  1  0  0  0  0
 24 52  1  0  0  0  0
 25 53  1  0  0  0  0
 25 54  1  0  0  0  0
M  CHG  1  18   1
M  END
> <s_m_source_file>
AV-unprocessed.smi

> <i_m_source_file_index>
1157

> <i_lp_mmshare_version>
43012

> <i_f3d_flags>
0

> <s_epik_input>
W0NIMl0xW0NIMl1PW0NIMl1bQ0gyXU4xQyhbQ0gzXSkoW0NIM10pW0NIMl1bTkhdQyg9TylbTkhdYzJbY0hdW2NIXWMobltjSF0yKU4zW0NIMl1bQ0gyXVtDSDJdW0NIMl0z

> <s_epik_cmdline>
J2VwaWtfcHl0aG9uJywgJy1waCcsICc3LjAnLCAnLXRuJywgJzgnLCAnLW1hJywgJzIwMCcsICctbWV0YWxfYmluZGluZycsICctaW1hZScsICc8aW5maWxlLm1hZT4nLCAnLW9tYWUnLCAnPG91dGZpbGUubWFlPic=

> <r_epik_Ionization_Penalty>
1.36967

> <r_epik_Ionization_Penalty_Charging>
1.10366

> <r_epik_Ionization_Penalty_Neutral>
0.266011

> <r_epik_State_Penalty>
1.45237

> <r_epik_Charging_Adjusted_Penalty>
2.55603

> <i_epik_Tot_Q>
1

> <i_epik_Tot_abs_Q>
1

> <r_epik_Metal_State_Penalty>
1.53545

> <b_epik_Metal_Only>
0

> <s_lp_Force_Field>
OPLS_2005

> <r_lp_Energy>
74.6442

> <b_lp_Chiralities_Consistent>
1

> <s_lp_Variant>
AV-unprocessed.smi:1157-3

> <Gold.Version>
5.8.1

> <Gold.Id.Protein>
6NUR|6NUR_protein|mol2

> <Gold.PLP.Fitness>
53.1953

> <Gold.PLP.PLP>
-45.8697

> <Gold.PLP.part.hbond>
-3.6493

> <Gold.PLP.part.metal>
0.0000

> <Gold.PLP.part.buried>
-3.8766

> <Gold.PLP.part.nonpolar>
-39.4216

> <Gold.PLP.part.repulsive>
0.6627

> <Gold.PLP.ligand.clash>
0.0000

> <Gold.PLP.ligand.torsion>
0.9951

> <Gold.PLP.Chemscore.Hbond>
3.0000

> <Gold.PLP.Chemscore.CHOScore>
0.0000

> <Gold.PLP.Chemscore.Metal>
0.0000

> <Gold.Chemscore.Hbonds>
donor molecule, donor type, donor heavy atom, donor atom, acceptor molecule, acceptor atom, score
      L1  H     5    34       P1  7948  1.00
      L1  H    18    55       P1  8028  2.00

> <Gold.PLP.Chemscore.Internal.Correction>
0.3159

> <Gold.Rescore>
     Score         DG    S(hbond)    S(metal)    S(lipo)     H(rot)  DE(clash)    DE(int)     intcor
     19.29     -21.25       1.98        0.00     109.08       1.40       0.21       1.75       ----

> <Gold.Chemscore.Fitness>
19.2919

> <Gold.Chemscore.DG>
-21.2525

> <Gold.Chemscore.ZeroCoef>
-5.4800

> <Gold.Chemscore.Hbond>
1.9762

> <Gold.Chemscore.Metal>
0.0000

> <Gold.Chemscore.Lipo>
109.0825

> <Gold.Chemscore.Internal_Hbond>
0.0000

> <Gold.Chemscore.DEClash>
0.2102

> <Gold.Chemscore.DEInternal>
1.7505

> <Gold.Chemscore.Rot>
1.4027

> <Gold.Chemscore.Internal.Correction>
   9.000000E+99

> <Gold.Chemscore.Hbonds>
donor molecule, donor type, donor heavy atom, donor atom, acceptor molecule, acceptor atom, score
      L1  H     5    34       P1  7948  0.96
      L1  H    18    55       P1  8028  1.00

> <Gold.Chemscore.Hbond.Weighted>
-6.6006

> <Gold.Chemscore.Metal.Weighted>
-0.0000

> <Gold.Chemscore.Lipo.Weighted>
-12.7627

> <Gold.Chemscore.Internal_Hbond.Weighted>
0.0000

> <Gold.Chemscore.DEClash.Weighted>
0.2102

> <Gold.Chemscore.DEInternal.Weighted>
1.7505

> <Gold.Chemscore.Rot.Weighted>
3.5908

> <Gold.Chemscore.Internal.Correction.Weighted>
   9.000000E+99

> <Gold.Protein.RotatedTorsions>
[ 6907 6896 6895 6894 ] final   48.48 input  -60.11 | X-H torsion
[ 7974 7965 7964 7962 ] final   -9.08 input  175.53 | X-H torsion
[ 8008 7997 7996 7995 ] final -134.83 input   59.86 | X-H torsion
[ 10167 10162 10161 10158 ] final -158.74 input  -65.29 | X-H torsion
[ 10718 10713 10712 10709 ] final   20.27 input   66.30 | X-H torsion
[ 10763 10752 10751 10750 ] final   55.82 input  -60.55 | X-H torsion
[ 11005 11000 10999 10996 ] final  -70.27 input  -57.11 | X-H torsion

> <Gold.Protein.ActiveResidues>
 VAL166  LYS551  ARG553  GLY616  TRP617  ASP618  TYR619  PRO620  LYS621  CYS622 
 ASP623  PHE694  ASN695  SER759  ASP760  ASP761  ALA762  ILE779  LEU786  VAL792 
 PHE793  MET794  SER795  GLU796  ALA797  LYS798  CYS799  TRP800  GLU811  SER814 

> <Gold.Protein.RotatedAtoms>
  152.2799  134.7840  160.0398 H   0  0  0  0  0  0  0  0  0  0  0  0  # atno 6907 bound_to 6896
  151.8423  133.3420  159.3655 H   0  0  0  0  0  0  0  0  0  0  0  0  # atno 6908 bound_to 6896
  150.7185  134.5308  159.5743 H   0  0  0  0  0  0  0  0  0  0  0  0  # atno 6909 bound_to 6896
  146.2262  140.2563  142.8349 H   0  0  0  0  0  0  0  0  0  0  0  0  # atno 7974 bound_to 7965
  155.3686  140.0487  157.3046 H   0  0  0  0  0  0  0  0  0  0  0  0  # atno 8008 bound_to 7997
  154.5141  140.2202  155.9062 H   0  0  0  0  0  0  0  0  0  0  0  0  # atno 8009 bound_to 7997
  156.1616  140.3115  155.8823 H   0  0  0  0  0  0  0  0  0  0  0  0  # atno 8010 bound_to 7997
  139.6669  143.9813  152.2260 H   0  0  0  0  0  0  0  0  0  0  0  0  # atno 10167 bound_to 10162
  157.1221  130.6554  149.5927 H   0  0  0  0  0  0  0  0  0  0  0  0  # atno 10718 bound_to 10713
  152.9822  135.5697  154.5129 H   0  0  0  0  0  0  0  0  0  0  0  0  # atno 10763 bound_to 10752
  154.4630  135.2782  155.1701 H   0  0  0  0  0  0  0  0  0  0  0  0  # atno 10764 bound_to 10752
  154.3281  135.6255  153.5592 H   0  0  0  0  0  0  0  0  0  0  0  0  # atno 10765 bound_to 10752
  141.1571  133.6785  156.6727 H   0  0  0  0  0  0  0  0  0  0  0  0  # atno 11005 bound_to 11000
  144.9373  140.8040  143.5652 LP  0  0  0  0  0  0  0  0  0  0  0  0  # atno 17320 bound_to 7965
  145.2512  139.2031  143.4941 LP  0  0  0  0  0  0  0  0  0  0  0  0  # atno 17321 bound_to 7965
  139.9567  144.6584  150.8119 LP  0  0  0  0  0  0  0  0  0  0  0  0  # atno 17342 bound_to 10162
  140.7603  143.3147  151.2760 LP  0  0  0  0  0  0  0  0  0  0  0  0  # atno 17343 bound_to 10162
  155.9826  130.4841  150.6891 LP  0  0  0  0  0  0  0  0  0  0  0  0  # atno 17370 bound_to 10713
  157.4467  131.0868  151.0888 LP  0  0  0  0  0  0  0  0  0  0  0  0  # atno 17371 bound_to 10713
  140.3163  134.8045  157.4216 LP  0  0  0  0  0  0  0  0  0  0  0  0  # atno 17394 bound_to 11000
  140.1135  134.5313  155.8245 LP  0  0  0  0  0  0  0  0  0  0  0  0  # atno 17395 bound_to 11000

$$$$
