AV-unprocessed.smi:21|AV-procd|sdf|127|dock4
  -GOLD-   2262015303D 1   1.00000     0.00000
 Structure written by MMmdl.
 62 65  0  0  0  0  0  0  0  0  2 V2000
  140.1621  136.1499  154.2159 C   0  0  0  0  0  0  0  0  0  0  0  0
  141.1201  135.1346  153.9626 O   0  0  0  0  0  0  0  0  0  0  0  0
  142.2311  135.5735  153.1917 C   0  0  1  0  0  0  0  0  0  0  0  0
  143.1945  136.3272  154.0996 C   0  0  0  0  0  0  0  0  0  0  0  0
  143.9992  135.2239  154.8010 C   0  0  2  0  0  0  0  0  0  0  0  0
  145.4087  135.6825  155.2570 C   0  0  0  0  0  0  0  0  0  0  0  0
  145.4230  137.0439  155.7921 N   0  0  0  0  0  0  0  0  0  0  0  0
  144.5453  137.3462  156.9224 C   0  0  0  0  0  0  0  0  0  0  0  0
  146.4449  137.9035  155.4998 C   0  0  0  0  0  0  0  0  0  0  0  0
  147.1096  137.7332  154.3241 N   0  0  0  0  0  0  0  0  0  0  0  0
  148.1071  138.5468  153.9702 C   0  0  0  0  0  0  0  0  0  0  0  0
  148.6039  139.5897  154.6329 N   0  0  0  0  0  0  0  0  0  0  0  0
  147.9558  139.7720  155.8173 C   0  0  0  0  0  0  0  0  0  0  0  0
  146.8820  138.9850  156.3295 C   0  0  0  0  0  0  0  0  0  0  0  0
  146.5037  139.4864  157.5728 N   0  0  0  0  0  0  0  0  0  0  0  0
  147.2941  140.5038  157.7756 C   0  0  0  0  0  0  0  0  0  0  0  0
  148.1898  140.7529  156.7637 N   0  0  0  0  0  0  0  0  0  0  0  0
  149.1776  141.8153  156.7129 C   0  0  0  0  0  0  0  0  0  0  0  0
  150.5033  141.4739  157.4445 C   0  0  1  0  0  0  0  0  0  0  0  0
  151.4400  140.5892  156.5819 C   0  0  0  0  0  0  0  0  0  0  0  0
  152.4617  139.9852  157.3490 O   0  0  0  0  0  0  0  0  0  0  0  0
  151.2182  142.7749  157.8961 C   0  0  2  0  0  0  0  0  0  0  0  0
  152.3408  142.5790  158.9031 C   0  0  0  0  0  0  0  0  0  0  0  0
  152.4997  143.9741  159.4972 C   0  0  0  0  0  0  0  0  0  0  0  0
  151.2054  144.5620  159.4553 O   0  0  0  0  0  0  0  0  0  0  0  0
  150.3309  143.7556  158.6733 C   0  0  0  0  0  0  0  0  0  0  0  0
  143.9630  134.0495  153.8813 N   0  3  2  0  0  0  0  0  0  0  0  0
  145.2532  133.4451  153.4750 C   0  0  0  0  0  0  0  0  0  0  0  0
  143.0859  134.3870  152.7376 C   0  0  0  0  0  0  0  0  0  0  0  0
  141.9047  136.2003  152.3597 H   0  0  0  0  0  0  0  0  0  0  0  0
  143.4294  134.9066  155.6747 H   0  0  0  0  0  0  0  0  0  0  0  0
  139.3377  135.7348  154.7951 H   0  0  0  0  0  0  0  0  0  0  0  0
  139.7493  136.5591  153.2939 H   0  0  0  0  0  0  0  0  0  0  0  0
  140.5990  136.9651  154.7941 H   0  0  0  0  0  0  0  0  0  0  0  0
  143.8577  136.9387  153.4860 H   0  0  0  0  0  0  0  0  0  0  0  0
  142.6866  136.9918  154.7995 H   0  0  0  0  0  0  0  0  0  0  0  0
  145.8354  135.0097  155.9974 H   0  0  0  0  0  0  0  0  0  0  0  0
  146.0939  135.6344  154.4103 H   0  0  0  0  0  0  0  0  0  0  0  0
  144.0798  138.3246  156.7983 H   0  0  0  0  0  0  0  0  0  0  0  0
  145.1051  137.3447  157.8583 H   0  0  0  0  0  0  0  0  0  0  0  0
  143.7441  136.6125  157.0121 H   0  0  0  0  0  0  0  0  0  0  0  0
  148.5713  138.3321  153.0189 H   0  0  0  0  0  0  0  0  0  0  0  0
  147.2386  141.1093  158.6686 H   0  0  0  0  0  0  0  0  0  0  0  0
  149.3769  142.0554  155.6678 H   0  0  0  0  0  0  0  0  0  0  0  0
  148.7115  142.6998  157.1466 H   0  0  0  0  0  0  0  0  0  0  0  0
  150.2582  140.9158  158.3497 H   0  0  0  0  0  0  0  0  0  0  0  0
  150.8727  139.8198  156.0576 H   0  0  0  0  0  0  0  0  0  0  0  0
  151.9468  141.1774  155.8189 H   0  0  0  0  0  0  0  0  0  0  0  0
  152.3754  139.0469  157.2760 H   0  0  0  0  0  0  0  0  0  0  0  0
  151.6221  143.2899  157.0229 H   0  0  0  0  0  0  0  0  0  0  0  0
  152.0377  141.8749  159.6797 H   0  0  0  0  0  0  0  0  0  0  0  0
  153.2688  142.2193  158.4590 H   0  0  0  0  0  0  0  0  0  0  0  0
  152.8957  143.9516  160.5126 H   0  0  0  0  0  0  0  0  0  0  0  0
  153.1726  144.5747  158.8838 H   0  0  0  0  0  0  0  0  0  0  0  0
  149.7183  144.3756  158.0185 H   0  0  0  0  0  0  0  0  0  0  0  0
  149.6646  143.2201  159.3511 H   0  0  0  0  0  0  0  0  0  0  0  0
  145.8802  134.1596  152.9400 H   0  0  0  0  0  0  0  0  0  0  0  0
  145.0756  132.5958  152.8148 H   0  0  0  0  0  0  0  0  0  0  0  0
  145.8006  133.0709  154.3402 H   0  0  0  0  0  0  0  0  0  0  0  0
  142.5047  133.5254  152.4112 H   0  0  0  0  0  0  0  0  0  0  0  0
  143.7019  134.7034  151.8943 H   0  0  0  0  0  0  0  0  0  0  0  0
  143.4737  133.3329  154.3982 H   0  0  0  0  0  0  0  0  0  0  0  0
  1  2  1  0  0  0  0
  1 32  1  0  0  0  0
  1 33  1  0  0  0  0
  1 34  1  0  0  0  0
  2  3  1  0  0  0  0
  3 30  1  0  0  0  0
  3 29  1  0  0  0  0
  3  4  1  0  0  0  0
  4  5  1  0  0  0  0
  4 35  1  0  0  0  0
  4 36  1  0  0  0  0
  5 31  1  0  0  0  0
  5  6  1  0  0  0  0
  5 27  1  0  0  0  0
  6  7  1  0  0  0  0
  6 37  1  0  0  0  0
  6 38  1  0  0  0  0
  7  8  1  0  0  0  0
  7  9  1  0  0  0  0
  8 39  1  0  0  0  0
  8 40  1  0  0  0  0
  8 41  1  0  0  0  0
  9 14  1  0  0  0  0
  9 10  2  0  0  0  0
 10 11  1  0  0  0  0
 11 12  2  0  0  0  0
 11 42  1  0  0  0  0
 12 13  1  0  0  0  0
 13 17  1  0  0  0  0
 13 14  2  0  0  0  0
 14 15  1  0  0  0  0
 15 16  2  0  0  0  0
 16 17  1  0  0  0  0
 16 43  1  0  0  0  0
 17 18  1  0  0  0  0
 18 19  1  0  0  0  0
 18 44  1  0  0  0  0
 18 45  1  0  0  0  0
 19 20  1  0  0  0  0
 19 22  1  0  0  0  0
 19 46  1  0  0  0  0
 20 21  1  0  0  0  0
 20 47  1  0  0  0  0
 20 48  1  0  0  0  0
 21 49  1  0  0  0  0
 22 26  1  0  0  0  0
 22 23  1  0  0  0  0
 22 50  1  0  0  0  0
 23 24  1  0  0  0  0
 23 51  1  0  0  0  0
 23 52  1  0  0  0  0
 24 25  1  0  0  0  0
 24 53  1  0  0  0  0
 24 54  1  0  0  0  0
 25 26  1  0  0  0  0
 26 55  1  0  0  0  0
 26 56  1  0  0  0  0
 27 28  1  0  0  0  0
 27 29  1  0  0  0  0
 27 62  1  0  0  0  0
 28 57  1  0  0  0  0
 28 58  1  0  0  0  0
 28 59  1  0  0  0  0
 29 60  1  0  0  0  0
 29 61  1  0  0  0  0
M  CHG  1  27   1
M  END
> <s_m_source_file>
AV-unprocessed.smi

> <i_m_source_file_index>
21

> <i_lp_mmshare_version>
43012

> <i_f3d_flags>
0

> <s_epik_input>
W0NIM11PW0NASF0xW0NIMl1bQ0BIXShOKFtDSDNdKVtDSDJdMSlbQ0gyXU4oW0NIM10pYyhuW2NIXW4yKWMoYzIzKW5bY0hdbjNbQ0gyXVtDQEhdKFtDSDJdW09IXSlbQ0BASF00W0NIMl1bQ0gyXU9bQ0gyXTQ=

> <s_epik_cmdline>
J2VwaWtfcHl0aG9uJywgJy1waCcsICc3LjAnLCAnLXRuJywgJzgnLCAnLW1hJywgJzIwMCcsICctbWV0YWxfYmluZGluZycsICctaW1hZScsICc8aW5maWxlLm1hZT4nLCAnLW9tYWUnLCAnPG91dGZpbGUubWFlPic=

> <r_lp_tautomer_probability>
1

> <r_epik_Ionization_Penalty>
0.0157465

> <r_epik_Ionization_Penalty_Charging>
0.015354

> <r_epik_Ionization_Penalty_Neutral>
0.000392529

> <r_epik_State_Penalty>
0.0120612

> <r_epik_Charging_Adjusted_Penalty>
0.0274152

> <i_epik_Tot_Q>
1

> <i_epik_Tot_abs_Q>
1

> <r_epik_Metal_State_Penalty>
0.0121253

> <b_epik_Metal_Only>
0

> <s_lp_Force_Field>
OPLS_2005

> <r_lp_Energy>
61.4457

> <b_lp_Chiralities_Consistent>
1

> <s_lp_Variant>
AV-unprocessed.smi:21-7

> <Gold.Version>
5.8.1

> <Gold.Id.Protein>
6NUR|6NUR_protein|mol2

> <Gold.PLP.Fitness>
44.8931

> <Gold.PLP.PLP>
-30.8082

> <Gold.PLP.part.hbond>
-2.8759

> <Gold.PLP.part.metal>
0.0000

> <Gold.PLP.part.buried>
-6.0049

> <Gold.PLP.part.nonpolar>
-23.8211

> <Gold.PLP.part.repulsive>
0.4586

> <Gold.PLP.ligand.clash>
0.0000

> <Gold.PLP.ligand.torsion>
1.3893

> <Gold.PLP.Chemscore.Hbond>
3.3868

> <Gold.PLP.Chemscore.CHOScore>
1.9495

> <Gold.PLP.Chemscore.Metal>
0.0000

> <Gold.Chemscore.Hbonds>
donor molecule, donor type, donor heavy atom, donor atom, acceptor molecule, acceptor atom, score
      L1  H    27    62       P1 10957  2.00
      P1  H  7997  8009       L1    21  0.84
      P1  H 11000 11005       L1     2  0.17
      L1  C    11    42       P1  7948  1.00
      L1  C    11    42       P1  7957  0.55

> <Gold.PLP.Chemscore.Internal.Correction>
0.8546

> <Gold.Rescore>
     Score         DG    S(hbond)    S(metal)    S(lipo)     H(rot)  DE(clash)    DE(int)     intcor
     11.30     -14.24       2.00        0.00      85.21       3.08       0.13       2.81       ----

> <Gold.Chemscore.Fitness>
11.2972

> <Gold.Chemscore.DG>
-14.2400

> <Gold.Chemscore.ZeroCoef>
-5.4800

> <Gold.Chemscore.Hbond>
1.9955

> <Gold.Chemscore.Metal>
0.0000

> <Gold.Chemscore.Lipo>
85.2082

> <Gold.Chemscore.Internal_Hbond>
0.0000

> <Gold.Chemscore.DEClash>
0.1339

> <Gold.Chemscore.DEInternal>
2.8090

> <Gold.Chemscore.Rot>
3.0758

> <Gold.Chemscore.Internal.Correction>
   9.000000E+99

> <Gold.Chemscore.Hbonds>
donor molecule, donor type, donor heavy atom, donor atom, acceptor molecule, acceptor atom, score
      L1  H    27    62       P1 10957  1.00
      P1  H  7997  8009       L1    21  0.13

> <Gold.Chemscore.Hbond.Weighted>
-6.6648

> <Gold.Chemscore.Metal.Weighted>
-0.0000

> <Gold.Chemscore.Lipo.Weighted>
-9.9694

> <Gold.Chemscore.Internal_Hbond.Weighted>
0.0000

> <Gold.Chemscore.DEClash.Weighted>
0.1339

> <Gold.Chemscore.DEInternal.Weighted>
2.8090

> <Gold.Chemscore.Rot.Weighted>
7.8741

> <Gold.Chemscore.Internal.Correction.Weighted>
   9.000000E+99

> <Gold.Protein.RotatedTorsions>
[ 6907 6896 6895 6894 ] final  -80.57 input  -60.11 | X-H torsion
[ 7974 7965 7964 7962 ] final  -42.60 input  175.53 | X-H torsion
[ 8008 7997 7996 7995 ] final  178.60 input   59.86 | X-H torsion
[ 10167 10162 10161 10158 ] final -103.62 input  -65.29 | X-H torsion
[ 10718 10713 10712 10709 ] final -154.36 input   66.30 | X-H torsion
[ 10763 10752 10751 10750 ] final -144.33 input  -60.55 | X-H torsion
[ 11005 11000 10999 10996 ] final   27.82 input  -57.11 | X-H torsion

> <Gold.Protein.ActiveResidues>
 VAL166  LYS551  ARG553  GLY616  TRP617  ASP618  TYR619  PRO620  LYS621  CYS622 
 ASP623  PHE694  ASN695  SER759  ASP760  ASP761  ALA762  ILE779  LEU786  VAL792 
 PHE793  MET794  SER795  GLU796  ALA797  LYS798  CYS799  TRP800  GLU811  SER814 

> <Gold.Protein.RotatedAtoms>
  150.6927  134.3949  159.5092 H   0  0  0  0  0  0  0  0  0  0  0  0  # atno 6907 bound_to 6896
  152.1732  134.8814  160.0542 H   0  0  0  0  0  0  0  0  0  0  0  0  # atno 6908 bound_to 6896
  151.9832  133.3730  159.4152 H   0  0  0  0  0  0  0  0  0  0  0  0  # atno 6909 bound_to 6896
  146.0100  140.6975  142.9229 H   0  0  0  0  0  0  0  0  0  0  0  0  # atno 7974 bound_to 7965
  156.0528  140.1329  157.0031 H   0  0  0  0  0  0  0  0  0  0  0  0  # atno 8008 bound_to 7997
  154.4443  140.1007  156.6472 H   0  0  0  0  0  0  0  0  0  0  0  0  # atno 8009 bound_to 7997
  155.5497  140.3462  155.4468 H   0  0  0  0  0  0  0  0  0  0  0  0  # atno 8010 bound_to 7997
  140.2181  143.3696  152.0993 H   0  0  0  0  0  0  0  0  0  0  0  0  # atno 10167 bound_to 10162
  156.4983  130.8379  151.2599 H   0  0  0  0  0  0  0  0  0  0  0  0  # atno 10718 bound_to 10713
  154.8432  135.3443  154.6329 H   0  0  0  0  0  0  0  0  0  0  0  0  # atno 10763 bound_to 10752
  153.6939  135.6973  153.5087 H   0  0  0  0  0  0  0  0  0  0  0  0  # atno 10764 bound_to 10752
  153.2574  135.4334  155.0814 H   0  0  0  0  0  0  0  0  0  0  0  0  # atno 10765 bound_to 10752
  140.3222  134.2530  155.7715 H   0  0  0  0  0  0  0  0  0  0  0  0  # atno 11005 bound_to 11000
  144.6949  140.3382  143.7204 LP  0  0  0  0  0  0  0  0  0  0  0  0  # atno 17320 bound_to 7965
  145.7356  139.1749  143.2405 LP  0  0  0  0  0  0  0  0  0  0  0  0  # atno 17321 bound_to 7965
  139.5154  144.6963  151.5621 LP  0  0  0  0  0  0  0  0  0  0  0  0  # atno 17342 bound_to 10162
  140.6275  143.9140  150.6577 LP  0  0  0  0  0  0  0  0  0  0  0  0  # atno 17343 bound_to 10162
  157.7466  130.9990  150.2874 LP  0  0  0  0  0  0  0  0  0  0  0  0  # atno 17370 bound_to 10713
  156.3358  130.3807  149.7451 LP  0  0  0  0  0  0  0  0  0  0  0  0  # atno 17371 bound_to 10713
  141.2084  133.7779  157.0063 LP  0  0  0  0  0  0  0  0  0  0  0  0  # atno 17394 bound_to 11000
  140.0932  134.9580  157.1808 LP  0  0  0  0  0  0  0  0  0  0  0  0  # atno 17395 bound_to 11000

$$$$
