AV-unprocessed.smi:2387|AV-procd|sdf|9469|dock4
  -GOLD-   2272013 93D 1   1.00000     0.00000
 Structure written by MMmdl.
 47 49  0  0  0  0  0  0  0  0  1 V2000
  146.7111  133.0803  150.9266 C   0  0  0  0  0  0  0  0  0  0  0  0
  146.4380  134.5162  151.3229 C   0  0  0  0  0  0  0  0  0  0  0  0
  145.9602  135.4496  150.3803 C   0  0  0  0  0  0  0  0  0  0  0  0
  145.7251  136.7726  150.8019 C   0  0  0  0  0  0  0  0  0  0  0  0
  145.9844  137.1169  152.1506 C   0  0  0  0  0  0  0  0  0  0  0  0
  145.7717  138.4089  152.7030 N   0  0  0  0  0  0  0  0  0  0  0  0
  146.5319  139.0773  153.5867 C   0  0  0  0  0  0  0  0  0  0  0  0
  147.5675  138.6529  154.0984 O   0  0  0  0  0  0  0  0  0  0  0  0
  146.0067  140.2850  153.8582 N   0  0  0  0  0  0  0  0  0  0  0  0
  146.5180  141.3005  154.7968 C   0  0  0  0  0  0  0  0  0  0  0  0
  148.0666  141.4285  154.7669 C   0  0  0  0  0  0  0  0  0  0  0  0
  148.6371  141.7164  153.7137 O   0  0  0  0  0  0  0  0  0  0  0  0
  148.7437  141.1948  155.9043 N   0  0  0  0  0  0  0  0  0  0  0  0
  150.1920  141.2508  156.0491 C   0  0  0  0  0  0  0  0  0  0  0  0
  150.6922  142.2416  157.0830 C   0  0  0  0  0  0  0  0  0  0  0  0
  151.8154  141.8809  158.0263 C   0  0  0  0  0  0  0  0  0  0  0  0
  150.4069  142.0275  158.5507 C   0  0  0  0  0  0  0  0  0  0  0  0
  145.8847  142.6727  154.4275 C   0  0  0  0  0  0  0  0  0  0  0  0
  144.9856  143.0953  155.5935 C   0  0  0  0  0  0  0  0  0  0  0  0
  145.5600  142.3758  156.8051 C   0  0  0  0  0  0  0  0  0  0  0  0
  146.0040  141.0283  156.2403 C   0  0  0  0  0  0  0  0  0  0  0  0
  146.4472  136.0994  153.0112 C   0  0  0  0  0  0  0  0  0  0  0  0
  146.6757  134.8293  152.6149 N   0  0  0  0  0  0  0  0  0  0  0  0
  146.4524  132.9015  149.8826 H   0  0  0  0  0  0  0  0  0  0  0  0
  146.1256  132.3977  151.5433 H   0  0  0  0  0  0  0  0  0  0  0  0
  147.7672  132.8449  151.0605 H   0  0  0  0  0  0  0  0  0  0  0  0
  145.7726  135.1612  149.3565 H   0  0  0  0  0  0  0  0  0  0  0  0
  145.3407  137.4859  150.0896 H   0  0  0  0  0  0  0  0  0  0  0  0
  144.9067  138.8551  152.4348 H   0  0  0  0  0  0  0  0  0  0  0  0
  145.1527  140.5290  153.3788 H   0  0  0  0  0  0  0  0  0  0  0  0
  148.2117  140.9634  156.7304 H   0  0  0  0  0  0  0  0  0  0  0  0
  150.5727  140.2597  156.3009 H   0  0  0  0  0  0  0  0  0  0  0  0
  150.6179  141.5018  155.0769 H   0  0  0  0  0  0  0  0  0  0  0  0
  150.6593  143.2775  156.7501 H   0  0  0  0  0  0  0  0  0  0  0  0
  152.2264  140.8752  157.9653 H   0  0  0  0  0  0  0  0  0  0  0  0
  152.5301  142.6625  158.2766 H   0  0  0  0  0  0  0  0  0  0  0  0
  150.1828  142.9064  159.1519 H   0  0  0  0  0  0  0  0  0  0  0  0
  149.8821  141.1189  158.8390 H   0  0  0  0  0  0  0  0  0  0  0  0
  146.6459  143.4410  154.2785 H   0  0  0  0  0  0  0  0  0  0  0  0
  145.3132  142.6373  153.4987 H   0  0  0  0  0  0  0  0  0  0  0  0
  144.9498  144.1770  155.7260 H   0  0  0  0  0  0  0  0  0  0  0  0
  143.9668  142.7489  155.4145 H   0  0  0  0  0  0  0  0  0  0  0  0
  146.4215  142.9230  157.1896 H   0  0  0  0  0  0  0  0  0  0  0  0
  144.8378  142.2746  157.6156 H   0  0  0  0  0  0  0  0  0  0  0  0
  145.1370  140.3660  156.2222 H   0  0  0  0  0  0  0  0  0  0  0  0
  146.7438  140.5472  156.8824 H   0  0  0  0  0  0  0  0  0  0  0  0
  146.6461  136.3105  154.0519 H   0  0  0  0  0  0  0  0  0  0  0  0
  1  2  1  0  0  0  0
  1 24  1  0  0  0  0
  1 25  1  0  0  0  0
  1 26  1  0  0  0  0
  2 23  1  0  0  0  0
  2  3  2  0  0  0  0
  3  4  1  0  0  0  0
  3 27  1  0  0  0  0
  4  5  2  0  0  0  0
  4 28  1  0  0  0  0
  5  6  1  0  0  0  0
  5 22  1  0  0  0  0
  6  7  1  0  0  0  0
  6 29  1  0  0  0  0
  7  8  2  0  0  0  0
  7  9  1  0  0  0  0
  9 10  1  0  0  0  0
  9 30  1  0  0  0  0
 10 21  1  0  0  0  0
 10 11  1  0  0  0  0
 10 18  1  0  0  0  0
 11 12  2  0  0  0  0
 11 13  1  0  0  0  0
 13 14  1  0  0  0  0
 13 31  1  0  0  0  0
 14 15  1  0  0  0  0
 14 32  1  0  0  0  0
 14 33  1  0  0  0  0
 15 17  1  0  0  0  0
 15 16  1  0  0  0  0
 15 34  1  0  0  0  0
 16 17  1  0  0  0  0
 16 35  1  0  0  0  0
 16 36  1  0  0  0  0
 17 37  1  0  0  0  0
 17 38  1  0  0  0  0
 18 19  1  0  0  0  0
 18 39  1  0  0  0  0
 18 40  1  0  0  0  0
 19 20  1  0  0  0  0
 19 41  1  0  0  0  0
 19 42  1  0  0  0  0
 20 21  1  0  0  0  0
 20 43  1  0  0  0  0
 20 44  1  0  0  0  0
 21 45  1  0  0  0  0
 21 46  1  0  0  0  0
 22 23  2  0  0  0  0
 22 47  1  0  0  0  0
M  END
> <s_m_source_file>
AV-unprocessed.smi

> <i_m_source_file_index>
2387

> <i_lp_mmshare_version>
43012

> <i_f3d_flags>
0

> <s_epik_input>
W0NIM11jMVtjSF1bY0hdYyhbY0hdbjEpW05IXUMoPU8pW05IXUMyKFtDSDJdW0NIMl1bQ0gyXVtDSDJdMilDKD1PKVtOSF1bQ0gyXVtDSF0zW0NIMl1bQ0gyXTM=

> <s_epik_cmdline>
J2VwaWtfcHl0aG9uJywgJy1waCcsICc3LjAnLCAnLXRuJywgJzgnLCAnLW1hJywgJzIwMCcsICctbWV0YWxfYmluZGluZycsICctaW1hZScsICc8aW5maWxlLm1hZT4nLCAnLW9tYWUnLCAnPG91dGZpbGUubWFlPic=

> <r_epik_Ionization_Penalty>
0.0173464

> <r_epik_Ionization_Penalty_Charging>
0

> <r_epik_Ionization_Penalty_Neutral>
0.0173464

> <r_epik_State_Penalty>
0.0137159

> <r_epik_Charging_Adjusted_Penalty>
0.0137159

> <i_epik_Tot_Q>
0

> <i_epik_Tot_abs_Q>
0

> <r_epik_Metal_State_Penalty>
0.0133255

> <b_epik_Metal_Only>
0

> <s_lp_Force_Field>
OPLS_2005

> <r_lp_Energy>
29.6161

> <b_lp_Chiralities_Consistent>
1

> <s_lp_Variant>
AV-unprocessed.smi:2387-1

> <Gold.Version>
5.8.1

> <Gold.Id.Protein>
6NUR|6NUR_protein|mol2

> <Gold.PLP.Fitness>
43.2107

> <Gold.PLP.PLP>
-36.1181

> <Gold.PLP.part.hbond>
-3.8914

> <Gold.PLP.part.metal>
0.0000

> <Gold.PLP.part.buried>
-5.2219

> <Gold.PLP.part.nonpolar>
-29.4899

> <Gold.PLP.part.repulsive>
2.8352

> <Gold.PLP.ligand.clash>
0.0000

> <Gold.PLP.ligand.torsion>
1.0971

> <Gold.PLP.Chemscore.Hbond>
2.8880

> <Gold.PLP.Chemscore.CHOScore>
0.0000

> <Gold.PLP.Chemscore.Metal>
0.0000

> <Gold.Chemscore.Hbonds>
donor molecule, donor type, donor heavy atom, donor atom, acceptor molecule, acceptor atom, score
      L1  H     6    29       P1 10175  1.00
      L1  H     9    30       P1 10175  1.00
      P1  H  8011  8017       L1    12  0.61

> <Gold.PLP.Chemscore.Internal.Correction>
0.6227

> <Gold.Rescore>
     Score         DG    S(hbond)    S(metal)    S(lipo)     H(rot)  DE(clash)    DE(int)     intcor
     13.74     -20.52       2.79        0.00      83.81       1.59       1.64       5.15       ----

> <Gold.Chemscore.Fitness>
13.7388

> <Gold.Chemscore.DG>
-20.5231

> <Gold.Chemscore.ZeroCoef>
-5.4800

> <Gold.Chemscore.Hbond>
2.7900

> <Gold.Chemscore.Metal>
0.0000

> <Gold.Chemscore.Lipo>
83.8060

> <Gold.Chemscore.Internal_Hbond>
0.0000

> <Gold.Chemscore.DEClash>
1.6365

> <Gold.Chemscore.DEInternal>
5.1478

> <Gold.Chemscore.Rot>
1.5941

> <Gold.Chemscore.Internal.Correction>
   9.000000E+99

> <Gold.Chemscore.Hbonds>
donor molecule, donor type, donor heavy atom, donor atom, acceptor molecule, acceptor atom, score
      L1  H     6    29       P1 10175  0.90
      L1  H     9    30       P1 10175  0.98
      P1  H  8011  8017       L1    12  0.60

> <Gold.Chemscore.Hbond.Weighted>
-9.3188

> <Gold.Chemscore.Metal.Weighted>
-0.0000

> <Gold.Chemscore.Lipo.Weighted>
-9.8053

> <Gold.Chemscore.Internal_Hbond.Weighted>
0.0000

> <Gold.Chemscore.DEClash.Weighted>
1.6365

> <Gold.Chemscore.DEInternal.Weighted>
5.1478

> <Gold.Chemscore.Rot.Weighted>
4.0809

> <Gold.Chemscore.Internal.Correction.Weighted>
   9.000000E+99

> <Gold.Protein.RotatedTorsions>
[ 6907 6896 6895 6894 ] final  -86.73 input  -60.11 | X-H torsion
[ 7974 7965 7964 7962 ] final   46.46 input  175.53 | X-H torsion
[ 8008 7997 7996 7995 ] final -158.20 input   59.86 | X-H torsion
[ 10167 10162 10161 10158 ] final   97.80 input  -65.29 | X-H torsion
[ 10718 10713 10712 10709 ] final    6.39 input   66.30 | X-H torsion
[ 10763 10752 10751 10750 ] final -143.96 input  -60.55 | X-H torsion
[ 11005 11000 10999 10996 ] final   47.10 input  -57.11 | X-H torsion

> <Gold.Protein.ActiveResidues>
 VAL166  LYS551  ARG553  GLY616  TRP617  ASP618  TYR619  PRO620  LYS621  CYS622 
 ASP623  PHE694  ASN695  SER759  ASP760  ASP761  ALA762  ILE779  LEU786  VAL792 
 PHE793  MET794  SER795  GLU796  ALA797  LYS798  CYS799  TRP800  GLU811  SER814 

> <Gold.Protein.RotatedAtoms>
  150.6866  134.3005  159.4704 H   0  0  0  0  0  0  0  0  0  0  0  0  # atno 6907 bound_to 6896
  152.0901  134.9410  160.0581 H   0  0  0  0  0  0  0  0  0  0  0  0  # atno 6908 bound_to 6896
  152.0729  133.4081  159.4504 H   0  0  0  0  0  0  0  0  0  0  0  0  # atno 6909 bound_to 6896
  146.0388  139.4854  142.9791 H   0  0  0  0  0  0  0  0  0  0  0  0  # atno 7974 bound_to 7965
  155.7439  140.0818  157.2233 H   0  0  0  0  0  0  0  0  0  0  0  0  # atno 8008 bound_to 7997
  154.4019  140.1573  156.2703 H   0  0  0  0  0  0  0  0  0  0  0  0  # atno 8009 bound_to 7997
  155.8994  140.3410  155.6018 H   0  0  0  0  0  0  0  0  0  0  0  0  # atno 8010 bound_to 7997
  139.7768  144.6903  151.0079 H   0  0  0  0  0  0  0  0  0  0  0  0  # atno 10167 bound_to 10162
  156.9214  130.5792  149.5648 H   0  0  0  0  0  0  0  0  0  0  0  0  # atno 10718 bound_to 10713
  154.8448  135.3453  154.6270 H   0  0  0  0  0  0  0  0  0  0  0  0  # atno 10763 bound_to 10752
  153.6879  135.6976  153.5103 H   0  0  0  0  0  0  0  0  0  0  0  0  # atno 10764 bound_to 10752
  153.2618  135.4320  155.0856 H   0  0  0  0  0  0  0  0  0  0  0  0  # atno 10765 bound_to 10752
  140.1309  134.4707  155.8522 H   0  0  0  0  0  0  0  0  0  0  0  0  # atno 11005 bound_to 11000
  145.6919  141.0161  143.1550 LP  0  0  0  0  0  0  0  0  0  0  0  0  # atno 17320 bound_to 7965
  144.7064  139.8543  143.7428 LP  0  0  0  0  0  0  0  0  0  0  0  0  # atno 17321 bound_to 7965
  140.7817  143.4527  151.0389 LP  0  0  0  0  0  0  0  0  0  0  0  0  # atno 17342 bound_to 10162
  139.8209  143.7821  152.3177 LP  0  0  0  0  0  0  0  0  0  0  0  0  # atno 17343 bound_to 10162
  156.0489  130.5561  150.8944 LP  0  0  0  0  0  0  0  0  0  0  0  0  # atno 17370 bound_to 10713
  157.5905  131.0944  150.9126 LP  0  0  0  0  0  0  0  0  0  0  0  0  # atno 17371 bound_to 10713
  141.2170  133.6795  156.7067 LP  0  0  0  0  0  0  0  0  0  0  0  0  # atno 17394 bound_to 11000
  140.2843  134.8291  157.3961 LP  0  0  0  0  0  0  0  0  0  0  0  0  # atno 17395 bound_to 11000

$$$$
