AV-unprocessed.smi:3238|AV-procd|sdf|12376|dock8
  -GOLD-   2272018233D 1   1.00000     0.00000
 Structure written by MMmdl.
 37 39  0  0  0  0  0  0  0  0  1 V2000
  146.7531  138.5098  152.3824 C   0  0  0  0  0  0  0  0  0  0  0  0
  147.6030  139.6250  152.7711 N   0  0  0  0  0  0  0  0  0  0  0  0
  147.6188  140.1717  153.9954 C   0  0  0  0  0  0  0  0  0  0  0  0
  146.9085  139.7678  154.9179 O   0  0  0  0  0  0  0  0  0  0  0  0
  148.5919  141.3421  154.1920 C   0  0  0  0  0  0  0  0  0  0  0  0
  149.7428  140.9894  155.0833 C   0  0  0  0  0  0  0  0  0  0  0  0
  150.6954  140.1551  154.6823 N   0  0  0  0  0  0  0  0  0  0  0  0
  151.5646  140.1030  155.7813 O   0  0  0  0  0  0  0  0  0  0  0  0
  151.0241  140.9172  156.7195 C   0  0  0  0  0  0  0  0  0  0  0  0
  151.7435  141.1090  158.0143 C   0  0  0  0  0  0  0  0  0  0  0  0
  151.3329  142.3969  158.7569 C   0  0  1  0  0  0  0  0  0  0  0  0
  152.1855  142.6545  160.0206 C   0  0  0  0  0  0  0  0  0  0  0  0
  152.7230  144.0799  159.7978 C   0  0  2  0  0  0  0  0  0  0  0  0
  151.5682  145.0906  159.9211 C   0  0  0  0  0  0  0  0  0  0  0  0
  150.7636  144.8429  158.6311 C   0  0  0  0  0  0  0  0  0  0  0  0
  151.5487  143.7031  157.9539 C   0  0  1  0  0  0  0  0  0  0  0  0
  152.9864  144.0805  158.2978 C   0  0  0  0  0  0  0  0  0  0  0  0
  149.8978  141.5109  156.3325 N   0  0  0  0  0  0  0  0  0  0  0  0
  146.9089  138.2732  151.3300 H   0  0  0  0  0  0  0  0  0  0  0  0
  145.6998  138.7554  152.5239 H   0  0  0  0  0  0  0  0  0  0  0  0
  146.9857  137.6211  152.9704 H   0  0  0  0  0  0  0  0  0  0  0  0
  148.2179  140.0048  152.0661 H   0  0  0  0  0  0  0  0  0  0  0  0
  148.9660  141.6612  153.2184 H   0  0  0  0  0  0  0  0  0  0  0  0
  148.0585  142.1920  154.6204 H   0  0  0  0  0  0  0  0  0  0  0  0
  151.5361  140.2431  158.6440 H   0  0  0  0  0  0  0  0  0  0  0  0
  152.8170  141.0971  157.8233 H   0  0  0  0  0  0  0  0  0  0  0  0
  150.2830  142.3024  159.0392 H   0  0  0  0  0  0  0  0  0  0  0  0
  151.6020  142.5716  160.9383 H   0  0  0  0  0  0  0  0  0  0  0  0
  153.0131  141.9472  160.0928 H   0  0  0  0  0  0  0  0  0  0  0  0
  153.5864  144.3230  160.4176 H   0  0  0  0  0  0  0  0  0  0  0  0
  150.9737  144.9301  160.8214 H   0  0  0  0  0  0  0  0  0  0  0  0
  151.9463  146.1134  159.9467 H   0  0  0  0  0  0  0  0  0  0  0  0
  149.7254  144.5751  158.8307 H   0  0  0  0  0  0  0  0  0  0  0  0
  150.7614  145.7361  158.0049 H   0  0  0  0  0  0  0  0  0  0  0  0
  151.3384  143.6190  156.8880 H   0  0  0  0  0  0  0  0  0  0  0  0
  153.2823  145.0573  157.9111 H   0  0  0  0  0  0  0  0  0  0  0  0
  153.7218  143.3370  157.9865 H   0  0  0  0  0  0  0  0  0  0  0  0
  1  2  1  0  0  0  0
  1 19  1  0  0  0  0
  1 20  1  0  0  0  0
  1 21  1  0  0  0  0
  2  3  1  0  0  0  0
  2 22  1  0  0  0  0
  3  4  2  0  0  0  0
  3  5  1  0  0  0  0
  5  6  1  0  0  0  0
  5 23  1  0  0  0  0
  5 24  1  0  0  0  0
  6 18  1  0  0  0  0
  6  7  2  0  0  0  0
  7  8  1  0  0  0  0
  8  9  1  0  0  0  0
  9 10  1  0  0  0  0
  9 18  2  0  0  0  0
 10 11  1  0  0  0  0
 10 25  1  0  0  0  0
 10 26  1  0  0  0  0
 11 16  1  0  0  0  0
 11 12  1  0  0  0  0
 11 27  1  0  0  0  0
 12 13  1  0  0  0  0
 12 28  1  0  0  0  0
 12 29  1  0  0  0  0
 13 17  1  0  0  0  0
 13 14  1  0  0  0  0
 13 30  1  0  0  0  0
 14 15  1  0  0  0  0
 14 31  1  0  0  0  0
 14 32  1  0  0  0  0
 15 16  1  0  0  0  0
 15 33  1  0  0  0  0
 15 34  1  0  0  0  0
 16 17  1  0  0  0  0
 16 35  1  0  0  0  0
 17 36  1  0  0  0  0
 17 37  1  0  0  0  0
M  END
> <s_m_source_file>
AV-unprocessed.smi

> <i_m_source_file_index>
3238

> <i_lp_mmshare_version>
43012

> <i_f3d_flags>
0

> <s_epik_input>
W0NIM11bTkhdQyg9TylbQ0gyXWMxbm9jKG4xKVtDSDJdW0NASF0oW0NIMl1bQ0BIXTIzKVtDQEhdKFtDSDJdMylbQ0gyXVtDSDJdMg==

> <s_epik_cmdline>
J2VwaWtfcHl0aG9uJywgJy1waCcsICc3LjAnLCAnLXRuJywgJzgnLCAnLW1hJywgJzIwMCcsICctbWV0YWxfYmluZGluZycsICctaW1hZScsICc8aW5maWxlLm1hZT4nLCAnLW9tYWUnLCAnPG91dGZpbGUubWFlPic=

> <r_lp_tautomer_probability>
1

> <r_epik_Ionization_Penalty>
1.02915e-07

> <r_epik_Ionization_Penalty_Charging>
0

> <r_epik_Ionization_Penalty_Neutral>
1.02915e-07

> <r_epik_State_Penalty>
-0

> <r_epik_Charging_Adjusted_Penalty>
0

> <i_epik_Tot_Q>
0

> <i_epik_Tot_abs_Q>
0

> <r_epik_Metal_State_Penalty>
-0

> <b_epik_Metal_Only>
0

> <s_lp_Force_Field>
OPLS_2005

> <r_lp_Energy>
47.9986

> <b_lp_Chiralities_Consistent>
1

> <s_lp_Variant>
AV-unprocessed.smi:3238-2

> <Gold.Version>
5.8.1

> <Gold.Id.Protein>
6NUR|6NUR_protein|mol2

> <Gold.PLP.Fitness>
47.8210

> <Gold.PLP.PLP>
-42.7508

> <Gold.PLP.part.hbond>
-2.1854

> <Gold.PLP.part.metal>
0.0000

> <Gold.PLP.part.buried>
-4.3911

> <Gold.PLP.part.nonpolar>
-35.8135

> <Gold.PLP.part.repulsive>
0.3453

> <Gold.PLP.ligand.clash>
0.0000

> <Gold.PLP.ligand.torsion>
0.4603

> <Gold.PLP.Chemscore.Hbond>
1.9920

> <Gold.PLP.Chemscore.CHOScore>
0.0000

> <Gold.PLP.Chemscore.Metal>
0.0000

> <Gold.Chemscore.Hbonds>
donor molecule, donor type, donor heavy atom, donor atom, acceptor molecule, acceptor atom, score
      L1  H     2    22       P1  7957  1.00
      P1  H  7989  7998       L1     7  1.00

> <Gold.PLP.Chemscore.Internal.Correction>
0.0150

> <Gold.Rescore>
     Score         DG    S(hbond)    S(metal)    S(lipo)     H(rot)  DE(clash)    DE(int)     intcor
     17.99     -18.64       1.76        0.00     102.74       1.85       0.07       0.58       ----

> <Gold.Chemscore.Fitness>
17.9921

> <Gold.Chemscore.DG>
-18.6369

> <Gold.Chemscore.ZeroCoef>
-5.4800

> <Gold.Chemscore.Hbond>
1.7577

> <Gold.Chemscore.Metal>
0.0000

> <Gold.Chemscore.Lipo>
102.7364

> <Gold.Chemscore.Internal_Hbond>
0.0000

> <Gold.Chemscore.DEClash>
0.0690

> <Gold.Chemscore.DEInternal>
0.5757

> <Gold.Chemscore.Rot>
1.8492

> <Gold.Chemscore.Internal.Correction>
   9.000000E+99

> <Gold.Chemscore.Hbonds>
donor molecule, donor type, donor heavy atom, donor atom, acceptor molecule, acceptor atom, score
      L1  H     2    22       P1  7957  0.98
      P1  H  7989  7998       L1     7  0.29

> <Gold.Chemscore.Hbond.Weighted>
-5.8707

> <Gold.Chemscore.Metal.Weighted>
-0.0000

> <Gold.Chemscore.Lipo.Weighted>
-12.0202

> <Gold.Chemscore.Internal_Hbond.Weighted>
0.0000

> <Gold.Chemscore.DEClash.Weighted>
0.0690

> <Gold.Chemscore.DEInternal.Weighted>
0.5757

> <Gold.Chemscore.Rot.Weighted>
4.7340

> <Gold.Chemscore.Internal.Correction.Weighted>
   9.000000E+99

> <Gold.Protein.RotatedTorsions>
[ 6907 6896 6895 6894 ] final  -43.96 input  -60.11 | X-H torsion
[ 7974 7965 7964 7962 ] final -165.99 input  175.53 | X-H torsion
[ 8008 7997 7996 7995 ] final -177.65 input   59.86 | X-H torsion
[ 10167 10162 10161 10158 ] final  109.83 input  -65.29 | X-H torsion
[ 10718 10713 10712 10709 ] final  137.75 input   66.30 | X-H torsion
[ 10763 10752 10751 10750 ] final   45.91 input  -60.55 | X-H torsion
[ 11005 11000 10999 10996 ] final -124.75 input  -57.11 | X-H torsion

> <Gold.Protein.ActiveResidues>
 VAL166  LYS551  ARG553  GLY616  TRP617  ASP618  TYR619  PRO620  LYS621  CYS622 
 ASP623  PHE694  ASN695  SER759  ASP760  ASP761  ALA762  ILE779  LEU786  VAL792 
 PHE793  MET794  SER795  GLU796  ALA797  LYS798  CYS799  TRP800  GLU811  SER814 

> <Gold.Protein.RotatedAtoms>
  150.9381  134.8792  159.7594 H   0  0  0  0  0  0  0  0  0  0  0  0  # atno 6907 bound_to 6896
  152.5068  134.3981  159.9417 H   0  0  0  0  0  0  0  0  0  0  0  0  # atno 6908 bound_to 6896
  151.4004  133.3719  159.2766 H   0  0  0  0  0  0  0  0  0  0  0  0  # atno 6909 bound_to 6896
  144.7256  140.2733  143.6247 H   0  0  0  0  0  0  0  0  0  0  0  0  # atno 7974 bound_to 7965
  156.0095  140.1237  157.0468 H   0  0  0  0  0  0  0  0  0  0  0  0  # atno 8008 bound_to 7997
  154.4270  140.1090  156.5878 H   0  0  0  0  0  0  0  0  0  0  0  0  # atno 8009 bound_to 7997
  155.6100  140.3471  155.4621 H   0  0  0  0  0  0  0  0  0  0  0  0  # atno 8010 bound_to 7997
  139.6736  144.7124  151.1643 H   0  0  0  0  0  0  0  0  0  0  0  0  # atno 10167 bound_to 10162
  157.4327  131.1050  151.0232 H   0  0  0  0  0  0  0  0  0  0  0  0  # atno 10718 bound_to 10713
  152.9818  135.6025  154.3513 H   0  0  0  0  0  0  0  0  0  0  0  0  # atno 10763 bound_to 10752
  154.3202  135.2770  155.2525 H   0  0  0  0  0  0  0  0  0  0  0  0  # atno 10764 bound_to 10752
  154.4695  135.5945  153.6367 H   0  0  0  0  0  0  0  0  0  0  0  0  # atno 10765 bound_to 10752
  140.9816  134.0665  157.3758 H   0  0  0  0  0  0  0  0  0  0  0  0  # atno 11005 bound_to 11000
  145.8022  139.1969  143.2041 LP  0  0  0  0  0  0  0  0  0  0  0  0  # atno 17320 bound_to 7965
  146.0667  140.7913  142.9708 LP  0  0  0  0  0  0  0  0  0  0  0  0  # atno 17321 bound_to 7965
  140.7627  143.5806  150.8899 LP  0  0  0  0  0  0  0  0  0  0  0  0  # atno 17342 bound_to 10162
  139.9473  143.6312  152.3038 LP  0  0  0  0  0  0  0  0  0  0  0  0  # atno 17343 bound_to 10162
  157.1123  130.6027  149.5485 LP  0  0  0  0  0  0  0  0  0  0  0  0  # atno 17370 bound_to 10713
  155.9919  130.4975  150.7318 LP  0  0  0  0  0  0  0  0  0  0  0  0  # atno 17371 bound_to 10713
  139.8953  135.0140  156.6993 LP  0  0  0  0  0  0  0  0  0  0  0  0  # atno 17394 bound_to 11000
  140.7177  133.9167  155.8126 LP  0  0  0  0  0  0  0  0  0  0  0  0  # atno 17395 bound_to 11000

$$$$
