AV-unprocessed.smi:1047|AV-procd|sdf|4571|dock7
  -GOLD-   22720 3 23D 1   1.00000     0.00000
 Structure written by MMmdl.
 56 58  0  0  0  0  0  0  0  0  2 V2000
  146.6132  133.7477  151.0968 C   0  0  0  0  0  0  0  0  0  0  0  0
  147.0153  132.5184  151.9244 C   0  0  0  0  0  0  0  0  0  0  0  0
  148.3590  132.5738  152.4983 N   0  0  0  0  0  0  0  0  0  0  0  0
  148.6465  131.3710  153.2719 C   0  0  0  0  0  0  0  0  0  0  0  0
  150.0549  131.4082  153.8882 C   0  0  0  0  0  0  0  0  0  0  0  0
  150.1910  132.5775  154.6893 O   0  0  0  0  0  0  0  0  0  0  0  0
  149.9750  133.7818  153.9574 C   0  0  2  0  0  0  0  0  0  0  0  0
  150.1578  134.9663  154.9157 C   0  0  0  0  0  0  0  0  0  0  0  0
  150.4915  136.1996  154.1768 N   0  3  0  0  0  0  0  0  0  0  0  0
  150.3176  137.4371  154.9621 C   0  0  0  0  0  0  0  0  0  0  0  0
  150.8063  138.6702  154.1795 C   0  0  1  0  0  0  0  0  0  0  0  0
  150.0821  138.7544  152.9670 O   0  0  0  0  0  0  0  0  0  0  0  0
  150.6528  139.9967  154.9554 C   0  0  0  0  0  0  0  0  0  0  0  0
  151.6252  140.1612  156.0242 N   0  0  0  0  0  0  0  0  0  0  0  0
  152.6743  139.3604  156.2953 C   0  0  0  0  0  0  0  0  0  0  0  0
  153.4523  139.7007  157.3181 N   0  0  0  0  0  0  0  0  0  0  0  0
  152.8285  140.8491  157.7736 C   0  0  0  0  0  0  0  0  0  0  0  0
  153.1582  141.7076  158.8450 C   0  0  0  0  0  0  0  0  0  0  0  0
  152.3677  142.8425  159.1340 C   0  0  0  0  0  0  0  0  0  0  0  0
  152.7604  143.7392  160.2951 C   0  0  0  0  0  0  0  0  0  0  0  0
  151.2250  143.1319  158.3458 C   0  0  0  0  0  0  0  0  0  0  0  0
  150.3580  144.3430  158.6418 C   0  0  0  0  0  0  0  0  0  0  0  0
  150.8818  142.2854  157.2709 C   0  0  0  0  0  0  0  0  0  0  0  0
  151.6787  141.1610  156.9904 C   0  0  0  0  0  0  0  0  0  0  0  0
  148.5581  133.7441  153.3498 C   0  0  0  0  0  0  0  0  0  0  0  0
  145.6500  133.5850  150.6132 H   0  0  0  0  0  0  0  0  0  0  0  0
  147.3448  133.9515  150.3144 H   0  0  0  0  0  0  0  0  0  0  0  0
  146.5173  134.6415  151.7126 H   0  0  0  0  0  0  0  0  0  0  0  0
  146.2801  132.3541  152.7136 H   0  0  0  0  0  0  0  0  0  0  0  0
  146.9496  131.6490  151.2690 H   0  0  0  0  0  0  0  0  0  0  0  0
  147.9086  131.2577  154.0680 H   0  0  0  0  0  0  0  0  0  0  0  0
  148.5558  130.4900  152.6355 H   0  0  0  0  0  0  0  0  0  0  0  0
  150.2206  130.5283  154.5098 H   0  0  0  0  0  0  0  0  0  0  0  0
  150.8190  131.3997  153.1092 H   0  0  0  0  0  0  0  0  0  0  0  0
  150.7096  133.8529  153.1528 H   0  0  0  0  0  0  0  0  0  0  0  0
  149.2359  135.1338  155.4743 H   0  0  0  0  0  0  0  0  0  0  0  0
  150.9409  134.7483  155.6436 H   0  0  0  0  0  0  0  0  0  0  0  0
  151.4539  136.1412  153.8753 H   0  0  0  0  0  0  0  0  0  0  0  0
  149.2693  137.5450  155.2450 H   0  0  0  0  0  0  0  0  0  0  0  0
  150.8907  137.3386  155.8850 H   0  0  0  0  0  0  0  0  0  0  0  0
  151.8606  138.5421  153.9303 H   0  0  0  0  0  0  0  0  0  0  0  0
  149.8277  137.8821  152.7057 H   0  0  0  0  0  0  0  0  0  0  0  0
  150.7503  140.8402  154.2709 H   0  0  0  0  0  0  0  0  0  0  0  0
  149.6526  140.0687  155.3851 H   0  0  0  0  0  0  0  0  0  0  0  0
  152.8836  138.4823  155.7018 H   0  0  0  0  0  0  0  0  0  0  0  0
  154.0275  141.4857  159.4467 H   0  0  0  0  0  0  0  0  0  0  0  0
  151.9520  143.7983  161.0241 H   0  0  0  0  0  0  0  0  0  0  0  0
  152.9823  144.7463  159.9408 H   0  0  0  0  0  0  0  0  0  0  0  0
  153.6461  143.3628  160.8077 H   0  0  0  0  0  0  0  0  0  0  0  0
  149.5503  144.4422  157.9159 H   0  0  0  0  0  0  0  0  0  0  0  0
  150.9510  145.2572  158.6083 H   0  0  0  0  0  0  0  0  0  0  0  0
  149.9100  144.2569  159.6318 H   0  0  0  0  0  0  0  0  0  0  0  0
  150.0126  142.4956  156.6655 H   0  0  0  0  0  0  0  0  0  0  0  0
  148.4006  134.6569  152.7761 H   0  0  0  0  0  0  0  0  0  0  0  0
  147.8172  133.7470  154.1509 H   0  0  0  0  0  0  0  0  0  0  0  0
  149.9018  136.2572  153.3586 H   0  0  0  0  0  0  0  0  0  0  0  0
  1  2  1  0  0  0  0
  1 26  1  0  0  0  0
  1 27  1  0  0  0  0
  1 28  1  0  0  0  0
  2  3  1  0  0  0  0
  2 29  1  0  0  0  0
  2 30  1  0  0  0  0
  3 25  1  0  0  0  0
  3  4  1  0  0  0  0
  4  5  1  0  0  0  0
  4 31  1  0  0  0  0
  4 32  1  0  0  0  0
  5  6  1  0  0  0  0
  5 33  1  0  0  0  0
  5 34  1  0  0  0  0
  6  7  1  0  0  0  0
  7  8  1  0  0  0  0
  7 25  1  0  0  0  0
  7 35  1  0  0  0  0
  8  9  1  0  0  0  0
  8 36  1  0  0  0  0
  8 37  1  0  0  0  0
  9 10  1  0  0  0  0
  9 38  1  0  0  0  0
  9 56  1  0  0  0  0
 10 11  1  0  0  0  0
 10 39  1  0  0  0  0
 10 40  1  0  0  0  0
 11 12  1  0  0  0  0
 11 13  1  0  0  0  0
 11 41  1  0  0  0  0
 12 42  1  0  0  0  0
 13 14  1  0  0  0  0
 13 43  1  0  0  0  0
 13 44  1  0  0  0  0
 14 24  1  0  0  0  0
 14 15  1  0  0  0  0
 15 16  2  0  0  0  0
 15 45  1  0  0  0  0
 16 17  1  0  0  0  0
 17 24  2  0  0  0  0
 17 18  1  0  0  0  0
 18 19  2  0  0  0  0
 18 46  1  0  0  0  0
 19 20  1  0  0  0  0
 19 21  1  0  0  0  0
 20 47  1  0  0  0  0
 20 48  1  0  0  0  0
 20 49  1  0  0  0  0
 21 22  1  0  0  0  0
 21 23  2  0  0  0  0
 22 50  1  0  0  0  0
 22 51  1  0  0  0  0
 22 52  1  0  0  0  0
 23 24  1  0  0  0  0
 23 53  1  0  0  0  0
 25 54  1  0  0  0  0
 25 55  1  0  0  0  0
M  CHG  1   9   1
M  END
> <s_m_source_file>
AV-unprocessed.smi

> <i_m_source_file_index>
1047

> <i_lp_mmshare_version>
43012

> <i_f3d_flags>
0

> <s_epik_input>
W0NIM11bQ0gyXU4xW0NIMl1bQ0gyXU9bQ0BIXShbQ0gyXTEpW0NIMl1bTkhdW0NIMl1bQ0BIXShbT0hdKVtDSDJdbihbY0hdbjIpYyhjMjMpW2NIXWMoW0NIM10pYyhbY0hdMylbQ0gzXQ==

> <s_epik_cmdline>
J2VwaWtfcHl0aG9uJywgJy1waCcsICc3LjAnLCAnLXRuJywgJzgnLCAnLW1hJywgJzIwMCcsICctbWV0YWxfYmluZGluZycsICctaW1hZScsICc8aW5maWxlLm1hZT4nLCAnLW9tYWUnLCAnPG91dGZpbGUubWFlPic=

> <r_epik_Ionization_Penalty>
0.692425

> <r_epik_Ionization_Penalty_Charging>
0.0243549

> <r_epik_Ionization_Penalty_Neutral>
0.66807

> <r_epik_State_Penalty>
0.592789

> <r_epik_Charging_Adjusted_Penalty>
0.617144

> <i_epik_Tot_Q>
1

> <i_epik_Tot_abs_Q>
1

> <r_epik_Metal_State_Penalty>
0.508021

> <b_epik_Metal_Only>
0

> <s_lp_Force_Field>
OPLS_2005

> <r_lp_Energy>
28.1656

> <b_lp_Chiralities_Consistent>
1

> <s_lp_Variant>
AV-unprocessed.smi:1047-12

> <Gold.Version>
5.8.1

> <Gold.Id.Protein>
6NUR|6NUR_protein|mol2

> <Gold.PLP.Fitness>
59.6655

> <Gold.PLP.PLP>
-48.3437

> <Gold.PLP.part.hbond>
-4.7037

> <Gold.PLP.part.metal>
0.0000

> <Gold.PLP.part.buried>
-3.9257

> <Gold.PLP.part.nonpolar>
-39.2787

> <Gold.PLP.part.repulsive>
0.5738

> <Gold.PLP.ligand.clash>
0.0000

> <Gold.PLP.ligand.torsion>
0.4676

> <Gold.PLP.Chemscore.Hbond>
4.0000

> <Gold.PLP.Chemscore.CHOScore>
0.0000

> <Gold.PLP.Chemscore.Metal>
0.0000

> <Gold.Chemscore.Hbonds>
donor molecule, donor type, donor heavy atom, donor atom, acceptor molecule, acceptor atom, score
      L1  H     9    56       P1  7948  1.40
      L1  H    12    42       P1  7948  1.00
      P1  H  7997  8010       L1    16  0.33

> <Gold.PLP.Chemscore.Internal.Correction>
0.2570

> <Gold.Rescore>
     Score         DG    S(hbond)    S(metal)    S(lipo)     H(rot)  DE(clash)    DE(int)     intcor
     19.27     -19.90       2.23        0.00     116.47       2.60       0.00       0.63       ----

> <Gold.Chemscore.Fitness>
19.2739

> <Gold.Chemscore.DG>
-19.9029

> <Gold.Chemscore.ZeroCoef>
-5.4800

> <Gold.Chemscore.Hbond>
2.2349

> <Gold.Chemscore.Metal>
0.0000

> <Gold.Chemscore.Lipo>
116.4687

> <Gold.Chemscore.Internal_Hbond>
0.0000

> <Gold.Chemscore.DEClash>
0.0004

> <Gold.Chemscore.DEInternal>
0.6286

> <Gold.Chemscore.Rot>
2.6049

> <Gold.Chemscore.Internal.Correction>
   9.000000E+99

> <Gold.Chemscore.Hbonds>
donor molecule, donor type, donor heavy atom, donor atom, acceptor molecule, acceptor atom, score
      L1  H     9    38       P1  7949  0.01
      L1  H     9    56       P1  7948  0.07
      L1  H    12    42       P1  7948  0.33
      P1  H  7997  8010       L1    16  0.17

> <Gold.Chemscore.Hbond.Weighted>
-7.4645

> <Gold.Chemscore.Metal.Weighted>
-0.0000

> <Gold.Chemscore.Lipo.Weighted>
-13.6268

> <Gold.Chemscore.Internal_Hbond.Weighted>
0.0000

> <Gold.Chemscore.DEClash.Weighted>
0.0004

> <Gold.Chemscore.DEInternal.Weighted>
0.6286

> <Gold.Chemscore.Rot.Weighted>
6.6685

> <Gold.Chemscore.Internal.Correction.Weighted>
   9.000000E+99

> <Gold.Protein.RotatedTorsions>
[ 6907 6896 6895 6894 ] final   -5.22 input  -60.11 | X-H torsion
[ 7974 7965 7964 7962 ] final  169.66 input  175.53 | X-H torsion
[ 8008 7997 7996 7995 ] final   26.06 input   59.86 | X-H torsion
[ 10167 10162 10161 10158 ] final   80.43 input  -65.29 | X-H torsion
[ 10718 10713 10712 10709 ] final -173.14 input   66.30 | X-H torsion
[ 10763 10752 10751 10750 ] final    9.74 input  -60.55 | X-H torsion
[ 11005 11000 10999 10996 ] final  -45.43 input  -57.11 | X-H torsion

> <Gold.Protein.ActiveResidues>
 VAL166  LYS551  ARG553  GLY616  TRP617  ASP618  TYR619  PRO620  LYS621  CYS622 
 ASP623  PHE694  ASN695  SER759  ASP760  ASP761  ALA762  ILE779  LEU786  VAL792 
 PHE793  MET794  SER795  GLU796  ALA797  LYS798  CYS799  TRP800  GLU811  SER814 

> <Gold.Protein.RotatedAtoms>
  151.4851  135.1054  159.9787 H   0  0  0  0  0  0  0  0  0  0  0  0  # atno 6907 bound_to 6896
  152.4764  133.8144  159.7031 H   0  0  0  0  0  0  0  0  0  0  0  0  # atno 6908 bound_to 6896
  150.8804  133.7318  159.2960 H   0  0  0  0  0  0  0  0  0  0  0  0  # atno 6909 bound_to 6896
  144.7348  139.9088  143.6414 H   0  0  0  0  0  0  0  0  0  0  0  0  # atno 7974 bound_to 7965
  155.0214  140.3148  155.4792 H   0  0  0  0  0  0  0  0  0  0  0  0  # atno 8008 bound_to 7997
  156.2891  140.2196  156.5275 H   0  0  0  0  0  0  0  0  0  0  0  0  # atno 8009 bound_to 7997
  154.7448  140.0471  157.0830 H   0  0  0  0  0  0  0  0  0  0  0  0  # atno 8010 bound_to 7997
  139.9498  144.6033  150.8171 H   0  0  0  0  0  0  0  0  0  0  0  0  # atno 10167 bound_to 10162
  156.7659  130.9430  151.3119 H   0  0  0  0  0  0  0  0  0  0  0  0  # atno 10718 bound_to 10713
  153.2107  135.6868  153.8117 H   0  0  0  0  0  0  0  0  0  0  0  0  # atno 10763 bound_to 10752
  153.7351  135.3246  155.3294 H   0  0  0  0  0  0  0  0  0  0  0  0  # atno 10764 bound_to 10752
  154.8220  135.4645  154.0913 H   0  0  0  0  0  0  0  0  0  0  0  0  # atno 10765 bound_to 10752
  141.0515  133.6741  156.3012 H   0  0  0  0  0  0  0  0  0  0  0  0  # atno 11005 bound_to 11000
  146.1017  139.4013  143.0343 LP  0  0  0  0  0  0  0  0  0  0  0  0  # atno 17320 bound_to 7965
  145.7569  140.9950  143.1220 LP  0  0  0  0  0  0  0  0  0  0  0  0  # atno 17321 bound_to 7965
  140.7586  143.3111  151.2843 LP  0  0  0  0  0  0  0  0  0  0  0  0  # atno 17342 bound_to 10162
  139.6637  144.0143  152.2709 LP  0  0  0  0  0  0  0  0  0  0  0  0  # atno 17343 bound_to 10162
  157.6713  130.9054  150.0048 LP  0  0  0  0  0  0  0  0  0  0  0  0  # atno 17370 bound_to 10713
  156.1309  130.3643  149.9733 LP  0  0  0  0  0  0  0  0  0  0  0  0  # atno 17371 bound_to 10713
  140.6046  134.5520  157.5523 LP  0  0  0  0  0  0  0  0  0  0  0  0  # atno 17394 bound_to 11000
  139.9354  134.7885  156.0817 LP  0  0  0  0  0  0  0  0  0  0  0  0  # atno 17395 bound_to 11000

$$$$
