AV-unprocessed.smi:113|AV-procd|sdf|1098|dock7
  -GOLD-   2262018203D 1   1.00000     0.00000
 Structure written by MMmdl.
 52 55  0  0  0  0  0  0  0  0  1 V2000
  152.8142  139.0982  159.9338 C   0  0  0  0  0  0  0  0  0  0  0  0
  152.2745  140.3820  159.3386 C   0  0  0  0  0  0  0  0  0  0  0  0
  151.8275  140.4237  158.0060 C   0  0  0  0  0  0  0  0  0  0  0  0
  151.3308  141.6414  157.4874 C   0  0  0  0  0  0  0  0  0  0  0  0
  150.8241  141.7400  156.0443 C   0  0  0  0  0  0  0  0  0  0  0  0
  150.4485  140.4942  155.3905 N   0  0  0  0  0  0  0  0  0  0  0  0
  151.4778  139.5668  155.0981 C   0  0  0  0  0  0  0  0  0  0  0  0
  152.6548  139.7993  155.3823 O   0  0  0  0  0  0  0  0  0  0  0  0
  151.0392  138.3414  154.4262 C   0  0  0  0  0  0  0  0  0  0  0  0
  152.0905  137.2984  154.0808 C   0  0  0  0  0  0  0  0  0  0  0  0
  149.7290  138.1688  154.1281 C   0  0  0  0  0  0  0  0  0  0  0  0
  148.7418  139.0976  154.4181 N   0  0  0  0  0  0  0  0  0  0  0  0
  147.2883  138.8669  154.0518 C   0  0  1  0  0  0  0  0  0  0  0  0
  146.9832  139.4474  152.6707 C   0  0  0  0  0  0  0  0  0  0  0  0
  147.2641  138.2603  151.7734 C   0  0  2  0  0  0  0  0  0  0  0  0
  146.5938  138.3764  150.5342 O   0  0  0  0  0  0  0  0  0  0  0  0
  146.8273  137.0652  152.6404 C   0  0  2  0  0  0  0  0  0  0  0  0
  145.3474  136.6493  152.5153 C   0  0  0  0  0  0  0  0  0  0  0  0
  144.5153  137.5380  153.2313 O   0  0  0  0  0  0  0  0  0  0  0  0
  147.0266  137.4947  153.9903 O   0  0  0  0  0  0  0  0  0  0  0  0
  149.0894  140.3088  155.0519 C   0  0  0  0  0  0  0  0  0  0  0  0
  148.2370  141.1707  155.2807 O   0  0  0  0  0  0  0  0  0  0  0  0
  151.3149  142.7736  158.3466 C   0  0  0  0  0  0  0  0  0  0  0  0
  150.8374  144.0311  157.9040 C   0  0  0  0  0  0  0  0  0  0  0  0
  150.8287  145.1390  158.7702 C   0  0  0  0  0  0  0  0  0  0  0  0
  151.2975  145.0022  160.0871 C   0  0  0  0  0  0  0  0  0  0  0  0
  151.7745  143.7569  160.5343 C   0  0  0  0  0  0  0  0  0  0  0  0
  151.7923  142.6313  159.6830 C   0  0  0  0  0  0  0  0  0  0  0  0
  152.2592  141.4543  160.1546 N   0  0  0  0  0  0  0  0  0  0  0  0
  152.4445  138.2296  159.3883 H   0  0  0  0  0  0  0  0  0  0  0  0
  152.5112  138.9948  160.9764 H   0  0  0  0  0  0  0  0  0  0  0  0
  153.9035  139.0926  159.8895 H   0  0  0  0  0  0  0  0  0  0  0  0
  151.8698  139.5277  157.4049 H   0  0  0  0  0  0  0  0  0  0  0  0
  149.9576  142.4012  155.9937 H   0  0  0  0  0  0  0  0  0  0  0  0
  151.5718  142.2281  155.4173 H   0  0  0  0  0  0  0  0  0  0  0  0
  151.6544  136.4266  153.5921 H   0  0  0  0  0  0  0  0  0  0  0  0
  152.5979  136.9551  154.9831 H   0  0  0  0  0  0  0  0  0  0  0  0
  152.8370  137.7195  153.4062 H   0  0  0  0  0  0  0  0  0  0  0  0
  149.4538  137.2529  153.6280 H   0  0  0  0  0  0  0  0  0  0  0  0
  146.7016  139.3097  154.8581 H   0  0  0  0  0  0  0  0  0  0  0  0
  145.9277  139.7220  152.6402 H   0  0  0  0  0  0  0  0  0  0  0  0
  147.5838  140.3296  152.4460 H   0  0  0  0  0  0  0  0  0  0  0  0
  148.3367  138.1978  151.5849 H   0  0  0  0  0  0  0  0  0  0  0  0
  145.8897  137.7458  150.5134 H   0  0  0  0  0  0  0  0  0  0  0  0
  147.4641  136.1993  152.4530 H   0  0  0  0  0  0  0  0  0  0  0  0
  145.0395  136.6897  151.4701 H   0  0  0  0  0  0  0  0  0  0  0  0
  145.1876  135.6257  152.8552 H   0  0  0  0  0  0  0  0  0  0  0  0
  144.3265  138.2821  152.6800 H   0  0  0  0  0  0  0  0  0  0  0  0
  150.4712  144.1708  156.8986 H   0  0  0  0  0  0  0  0  0  0  0  0
  150.4622  146.0940  158.4234 H   0  0  0  0  0  0  0  0  0  0  0  0
  151.2918  145.8512  160.7548 H   0  0  0  0  0  0  0  0  0  0  0  0
  152.1330  143.6647  161.5493 H   0  0  0  0  0  0  0  0  0  0  0  0
  1  2  1  0  0  0  0
  1 30  1  0  0  0  0
  1 31  1  0  0  0  0
  1 32  1  0  0  0  0
  2 29  1  0  0  0  0
  2  3  2  0  0  0  0
  3  4  1  0  0  0  0
  3 33  1  0  0  0  0
  4  5  1  0  0  0  0
  4 23  2  0  0  0  0
  5  6  1  0  0  0  0
  5 34  1  0  0  0  0
  5 35  1  0  0  0  0
  6 21  1  0  0  0  0
  6  7  1  0  0  0  0
  7  8  2  0  0  0  0
  7  9  1  0  0  0  0
  9 10  1  0  0  0  0
  9 11  2  0  0  0  0
 10 36  1  0  0  0  0
 10 37  1  0  0  0  0
 10 38  1  0  0  0  0
 11 12  1  0  0  0  0
 11 39  1  0  0  0  0
 12 13  1  0  0  0  0
 12 21  1  0  0  0  0
 13 20  1  0  0  0  0
 13 14  1  0  0  0  0
 13 40  1  0  0  0  0
 14 15  1  0  0  0  0
 14 41  1  0  0  0  0
 14 42  1  0  0  0  0
 15 16  1  0  0  0  0
 15 17  1  0  0  0  0
 15 43  1  0  0  0  0
 16 44  1  0  0  0  0
 17 18  1  0  0  0  0
 17 20  1  0  0  0  0
 17 45  1  0  0  0  0
 18 19  1  0  0  0  0
 18 46  1  0  0  0  0
 18 47  1  0  0  0  0
 19 48  1  0  0  0  0
 21 22  2  0  0  0  0
 23 28  1  0  0  0  0
 23 24  1  0  0  0  0
 24 25  2  0  0  0  0
 24 49  1  0  0  0  0
 25 26  1  0  0  0  0
 25 50  1  0  0  0  0
 26 27  2  0  0  0  0
 26 51  1  0  0  0  0
 27 28  1  0  0  0  0
 27 52  1  0  0  0  0
 28 29  2  0  0  0  0
M  END
> <s_m_source_file>
AV-unprocessed.smi

> <i_m_source_file_index>
113

> <i_lp_mmshare_version>
43012

> <i_f3d_flags>
0

> <s_epik_input>
W2NIXTFbY0hdW2NIXVtjSF1jKGMxMiluYyhbQ0gzXSlbY0hdYzJbQ0gyXW4zYyg9TyljKFtDSDNdKVtjSF1uKGMzPU8pW0NAQEhdNFtDSDJdW0NAQEhdKFtPSF0pW0NASF0oTzQpW0NIMl1bT0hd

> <s_epik_cmdline>
J2VwaWtfcHl0aG9uJywgJy1waCcsICc3LjAnLCAnLXRuJywgJzgnLCAnLW1hJywgJzIwMCcsICctbWV0YWxfYmluZGluZycsICctaW1hZScsICc8aW5maWxlLm1hZT4nLCAnLW9tYWUnLCAnPG91dGZpbGUubWFlPic=

> <r_lp_tautomer_probability>
1

> <r_epik_Ionization_Penalty>
0.214728

> <r_epik_Ionization_Penalty_Charging>
3.04883e-08

> <r_epik_Ionization_Penalty_Neutral>
0.214728

> <r_epik_State_Penalty>
0.204913

> <r_epik_Charging_Adjusted_Penalty>
0.204913

> <i_epik_Tot_Q>
0

> <i_epik_Tot_abs_Q>
0

> <r_epik_Metal_State_Penalty>
0.000244761

> <b_epik_Metal_Only>
0

> <s_epik_Chemistry_Notes>
This compound contains an acetal/aminal-like group ( X-CH(R)-Y where X, Y are N, S, or O) that may be acid/base labile, releasing an aldehyde.

> <s_lp_Force_Field>
OPLS_2005

> <r_lp_Energy>
41.6677

> <b_lp_Chiralities_Consistent>
1

> <s_lp_Variant>
AV-unprocessed.smi:113-8

> <Gold.Version>
5.8.1

> <Gold.Id.Protein>
6NUR|6NUR_protein|mol2

> <Gold.PLP.Fitness>
65.1259

> <Gold.PLP.PLP>
-56.8115

> <Gold.PLP.part.hbond>
-4.3023

> <Gold.PLP.part.metal>
0.0000

> <Gold.PLP.part.buried>
0.3418

> <Gold.PLP.part.nonpolar>
-52.1529

> <Gold.PLP.part.repulsive>
0.5732

> <Gold.PLP.ligand.clash>
0.0000

> <Gold.PLP.ligand.torsion>
1.2256

> <Gold.PLP.Chemscore.Hbond>
2.5833

> <Gold.PLP.Chemscore.CHOScore>
1.0000

> <Gold.PLP.Chemscore.Metal>
0.0000

> <Gold.Chemscore.Hbonds>
donor molecule, donor type, donor heavy atom, donor atom, acceptor molecule, acceptor atom, score
      L1  H    16    44       P1 10171  0.10
      L1  H    19    48       P1 10175  0.40
      P1  H  7954  7966       L1    16  0.17
      P1  H  7997  8008       L1     8  1.00
      L1  C    11    39       P1  7948  1.00

> <Gold.PLP.Chemscore.Internal.Correction>
0.0158

> <Gold.Rescore>
     Score         DG    S(hbond)    S(metal)    S(lipo)     H(rot)  DE(clash)    DE(int)     intcor
     20.25     -25.69       2.85        0.00     155.96       2.95       3.42       2.01       ----

> <Gold.Chemscore.Fitness>
20.2535

> <Gold.Chemscore.DG>
-25.6875

> <Gold.Chemscore.ZeroCoef>
-5.4800

> <Gold.Chemscore.Hbond>
2.8454

> <Gold.Chemscore.Metal>
0.0000

> <Gold.Chemscore.Lipo>
155.9639

> <Gold.Chemscore.Internal_Hbond>
0.0000

> <Gold.Chemscore.DEClash>
3.4249

> <Gold.Chemscore.DEInternal>
2.0091

> <Gold.Chemscore.Rot>
2.9469

> <Gold.Chemscore.Internal.Correction>
   9.000000E+99

> <Gold.Chemscore.Hbonds>
donor molecule, donor type, donor heavy atom, donor atom, acceptor molecule, acceptor atom, score
      L1  H    16    44       P1 10171  0.10
      L1  H    19    48       P1 10175  0.37
      P1  H  7997  8008       L1     8  1.00

> <Gold.Chemscore.Hbond.Weighted>
-9.5036

> <Gold.Chemscore.Metal.Weighted>
-0.0000

> <Gold.Chemscore.Lipo.Weighted>
-18.2478

> <Gold.Chemscore.Internal_Hbond.Weighted>
0.0000

> <Gold.Chemscore.DEClash.Weighted>
3.4249

> <Gold.Chemscore.DEInternal.Weighted>
2.0091

> <Gold.Chemscore.Rot.Weighted>
7.5439

> <Gold.Chemscore.Internal.Correction.Weighted>
   9.000000E+99

> <Gold.Protein.RotatedTorsions>
[ 6907 6896 6895 6894 ] final  -94.57 input  -60.11 | X-H torsion
[ 7974 7965 7964 7962 ] final  101.69 input  175.53 | X-H torsion
[ 8008 7997 7996 7995 ] final  -17.73 input   59.86 | X-H torsion
[ 10167 10162 10161 10158 ] final  148.21 input  -65.29 | X-H torsion
[ 10718 10713 10712 10709 ] final  -77.11 input   66.30 | X-H torsion
[ 10763 10752 10751 10750 ] final   32.91 input  -60.55 | X-H torsion
[ 11005 11000 10999 10996 ] final  -61.21 input  -57.11 | X-H torsion

> <Gold.Protein.ActiveResidues>
 VAL166  LYS551  ARG553  GLY616  TRP617  ASP618  TYR619  PRO620  LYS621  CYS622 
 ASP623  PHE694  ASN695  SER759  ASP760  ASP761  ALA762  ILE779  LEU786  VAL792 
 PHE793  MET794  SER795  GLU796  ALA797  LYS798  CYS799  TRP800  GLU811  SER814 

> <Gold.Protein.RotatedAtoms>
  150.6945  134.1791  159.4241 H   0  0  0  0  0  0  0  0  0  0  0  0  # atno 6907 bound_to 6896
  151.9767  135.0047  160.0564 H   0  0  0  0  0  0  0  0  0  0  0  0  # atno 6908 bound_to 6896
  152.1793  133.4661  159.4986 H   0  0  0  0  0  0  0  0  0  0  0  0  # atno 6909 bound_to 6896
  145.3689  139.2402  143.3466 H   0  0  0  0  0  0  0  0  0  0  0  0  # atno 7974 bound_to 7965
  154.4957  140.2135  155.9452 H   0  0  0  0  0  0  0  0  0  0  0  0  # atno 8008 bound_to 7997
  156.1367  140.3187  155.8399 H   0  0  0  0  0  0  0  0  0  0  0  0  # atno 8009 bound_to 7997
  155.4197  140.0496  157.3017 H   0  0  0  0  0  0  0  0  0  0  0  0  # atno 8010 bound_to 7997
  139.4878  144.5697  151.7079 H   0  0  0  0  0  0  0  0  0  0  0  0  # atno 10167 bound_to 10162
  156.0154  130.4483  150.3295 H   0  0  0  0  0  0  0  0  0  0  0  0  # atno 10718 bound_to 10713
  153.0238  135.6401  154.1429 H   0  0  0  0  0  0  0  0  0  0  0  0  # atno 10763 bound_to 10752
  154.1160  135.2850  155.3221 H   0  0  0  0  0  0  0  0  0  0  0  0  # atno 10764 bound_to 10752
  154.6297  135.5496  153.7729 H   0  0  0  0  0  0  0  0  0  0  0  0  # atno 10765 bound_to 10752
  141.1316  133.6628  156.5341 H   0  0  0  0  0  0  0  0  0  0  0  0  # atno 11005 bound_to 11000
  146.2894  140.4337  142.8745 LP  0  0  0  0  0  0  0  0  0  0  0  0  # atno 17320 bound_to 7965
  144.8591  140.7113  143.6119 LP  0  0  0  0  0  0  0  0  0  0  0  0  # atno 17321 bound_to 7965
  140.5281  144.0773  150.6044 LP  0  0  0  0  0  0  0  0  0  0  0  0  # atno 17342 bound_to 10162
  140.3754  143.2832  152.0231 LP  0  0  0  0  0  0  0  0  0  0  0  0  # atno 17343 bound_to 10162
  157.1394  131.0292  151.2934 LP  0  0  0  0  0  0  0  0  0  0  0  0  # atno 17370 bound_to 10713
  157.4485  130.7584  149.7130 LP  0  0  0  0  0  0  0  0  0  0  0  0  # atno 17371 bound_to 10713
  140.4192  134.7203  157.4880 LP  0  0  0  0  0  0  0  0  0  0  0  0  # atno 17394 bound_to 11000
  140.0372  134.6320  155.9028 LP  0  0  0  0  0  0  0  0  0  0  0  0  # atno 17395 bound_to 11000

$$$$
