AV-unprocessed.smi:109|AV-procd|sdf|1046|dock7
  -GOLD-   2262018 83D 1   1.00000     0.00000
 Structure written by MMmdl.
 58 61  0  0  0  0  0  0  0  0  1 V2000
  148.6723  142.5496  153.9720 O   0  0  0  0  0  0  0  0  0  0  0  0
  149.2214  141.7392  154.9883 C   0  0  0  0  0  0  0  0  0  0  0  0
  150.1467  142.5777  155.8845 C   0  0  0  0  0  0  0  0  0  0  0  0
  150.8926  141.7280  156.9371 C   0  0  1  0  0  0  0  0  0  0  0  0
  151.7036  140.7125  156.2661 N   0  0  0  0  0  0  0  0  0  0  0  0
  151.1589  139.5778  155.7750 C   0  0  0  0  0  0  0  0  0  0  0  0
  150.9306  139.4191  154.4453 N   0  0  0  0  0  0  0  0  0  0  0  0
  150.4027  138.2797  153.9890 C   0  0  0  0  0  0  0  0  0  0  0  0
  150.0414  137.1946  154.6767 N   0  0  0  0  0  0  0  0  0  0  0  0
  150.2657  137.3490  156.0143 C   0  0  0  0  0  0  0  0  0  0  0  0
  150.8170  138.5037  156.6362 C   0  0  0  0  0  0  0  0  0  0  0  0
  150.9042  138.3049  158.0076 N   0  0  0  0  0  0  0  0  0  0  0  0
  150.4355  137.0986  158.1821 C   0  0  0  0  0  0  0  0  0  0  0  0
  150.0350  136.4485  157.0361 N   0  0  0  0  0  0  0  0  0  0  0  0
  149.4821  135.0613  156.9264 C   0  0  1  0  0  0  0  0  0  0  0  0
  149.4078  134.4885  158.1936 O   0  0  0  0  0  0  0  0  0  0  0  0
  148.2445  133.6698  158.3112 C   0  0  1  0  0  0  0  0  0  0  0  0
  147.4273  134.1875  159.5068 C   0  0  0  0  0  0  0  0  0  0  0  0
  147.1378  135.5604  159.3474 O   0  0  0  0  0  0  0  0  0  0  0  0
  147.4989  133.7759  156.9675 C   0  0  2  0  0  0  0  0  0  0  0  0
  147.7932  132.6384  156.1793 O   0  0  0  0  0  0  0  0  0  0  0  0
  148.0737  135.0248  156.3207 C   0  0  1  0  0  0  0  0  0  0  0  0
  147.2923  136.1652  156.6296 O   0  0  0  0  0  0  0  0  0  0  0  0
  151.7573  142.5552  157.9276 C   0  0  0  0  0  0  0  0  0  0  0  0
  152.0423  141.8035  159.2459 C   0  0  0  0  0  0  0  0  0  0  0  0
  152.9857  142.6062  160.1567 C   0  0  0  0  0  0  0  0  0  0  0  0
  152.4217  144.0065  160.4436 C   0  0  0  0  0  0  0  0  0  0  0  0
  152.1310  144.7645  159.1391 C   0  0  0  0  0  0  0  0  0  0  0  0
  151.1903  143.9620  158.2253 C   0  0  0  0  0  0  0  0  0  0  0  0
  150.2093  134.5104  156.3282 H   0  0  0  0  0  0  0  0  0  0  0  0
  148.5621  132.6452  158.5121 H   0  0  0  0  0  0  0  0  0  0  0  0
  146.4155  133.8281  157.0847 H   0  0  0  0  0  0  0  0  0  0  0  0
  148.1419  134.9480  155.2347 H   0  0  0  0  0  0  0  0  0  0  0  0
  148.5662  143.4252  154.3116 H   0  0  0  0  0  0  0  0  0  0  0  0
  148.4094  141.3057  155.5728 H   0  0  0  0  0  0  0  0  0  0  0  0
  149.7654  140.9160  154.5243 H   0  0  0  0  0  0  0  0  0  0  0  0
  150.8621  143.1191  155.2640 H   0  0  0  0  0  0  0  0  0  0  0  0
  149.5389  143.3343  156.3791 H   0  0  0  0  0  0  0  0  0  0  0  0
  150.1233  141.2216  157.5207 H   0  0  0  0  0  0  0  0  0  0  0  0
  152.6955  140.8996  156.2328 H   0  0  0  0  0  0  0  0  0  0  0  0
  150.2509  138.2287  152.9210 H   0  0  0  0  0  0  0  0  0  0  0  0
  150.3765  136.6419  159.1594 H   0  0  0  0  0  0  0  0  0  0  0  0
  146.4824  133.6478  159.5770 H   0  0  0  0  0  0  0  0  0  0  0  0
  147.9576  134.0301  160.4462 H   0  0  0  0  0  0  0  0  0  0  0  0
  147.2467  135.7858  158.4361 H   0  0  0  0  0  0  0  0  0  0  0  0
  148.6904  132.3885  156.3400 H   0  0  0  0  0  0  0  0  0  0  0  0
  147.5135  136.8522  156.0194 H   0  0  0  0  0  0  0  0  0  0  0  0
  152.7292  142.7007  157.4535 H   0  0  0  0  0  0  0  0  0  0  0  0
  151.1155  141.6102  159.7856 H   0  0  0  0  0  0  0  0  0  0  0  0
  152.4842  140.8297  159.0323 H   0  0  0  0  0  0  0  0  0  0  0  0
  153.1433  142.0702  161.0930 H   0  0  0  0  0  0  0  0  0  0  0  0
  153.9643  142.6956  159.6834 H   0  0  0  0  0  0  0  0  0  0  0  0
  151.5044  143.9179  161.0272 H   0  0  0  0  0  0  0  0  0  0  0  0
  153.1243  144.5729  161.0554 H   0  0  0  0  0  0  0  0  0  0  0  0
  151.6905  145.7362  159.3642 H   0  0  0  0  0  0  0  0  0  0  0  0
  153.0670  144.9632  158.6153 H   0  0  0  0  0  0  0  0  0  0  0  0
  151.0353  144.5126  157.2970 H   0  0  0  0  0  0  0  0  0  0  0  0
  150.2145  143.8817  158.7046 H   0  0  0  0  0  0  0  0  0  0  0  0
  1  2  1  0  0  0  0
  1 34  1  0  0  0  0
  2  3  1  0  0  0  0
  2 35  1  0  0  0  0
  2 36  1  0  0  0  0
  3  4  1  0  0  0  0
  3 37  1  0  0  0  0
  3 38  1  0  0  0  0
  4  5  1  0  0  0  0
  4 24  1  0  0  0  0
  4 39  1  0  0  0  0
  5  6  1  0  0  0  0
  5 40  1  0  0  0  0
  6 11  1  0  0  0  0
  6  7  2  0  0  0  0
  7  8  1  0  0  0  0
  8  9  2  0  0  0  0
  8 41  1  0  0  0  0
  9 10  1  0  0  0  0
 10 14  1  0  0  0  0
 10 11  2  0  0  0  0
 11 12  1  0  0  0  0
 12 13  2  0  0  0  0
 13 14  1  0  0  0  0
 13 42  1  0  0  0  0
 14 15  1  0  0  0  0
 15 30  1  0  0  0  0
 15 22  1  0  0  0  0
 15 16  1  0  0  0  0
 16 17  1  0  0  0  0
 17 31  1  0  0  0  0
 17 18  1  0  0  0  0
 17 20  1  0  0  0  0
 18 19  1  0  0  0  0
 18 43  1  0  0  0  0
 18 44  1  0  0  0  0
 19 45  1  0  0  0  0
 20 32  1  0  0  0  0
 20 21  1  0  0  0  0
 20 22  1  0  0  0  0
 21 46  1  0  0  0  0
 22 33  1  0  0  0  0
 22 23  1  0  0  0  0
 23 47  1  0  0  0  0
 24 29  1  0  0  0  0
 24 25  1  0  0  0  0
 24 48  1  0  0  0  0
 25 26  1  0  0  0  0
 25 49  1  0  0  0  0
 25 50  1  0  0  0  0
 26 27  1  0  0  0  0
 26 51  1  0  0  0  0
 26 52  1  0  0  0  0
 27 28  1  0  0  0  0
 27 53  1  0  0  0  0
 27 54  1  0  0  0  0
 28 29  1  0  0  0  0
 28 55  1  0  0  0  0
 28 56  1  0  0  0  0
 29 57  1  0  0  0  0
 29 58  1  0  0  0  0
M  END
> <s_m_source_file>
AV-unprocessed.smi

> <i_m_source_file_index>
109

> <i_lp_mmshare_version>
43012

> <i_f3d_flags>
0

> <s_epik_input>
W0NIMl0xW0NIMl1bQ0gyXVtDSDJdW0NIMl1bQ0hdMVtDQEhdKFtDSDJdW0NIMl1bT0hdKVtOSF1jKG5bY0hdbjIpYyhjMjMpbltjSF1uM1tDQEBIXTRPW0NASF0oW0NIMl1bT0hdKVtDQEBIXShbT0hdKVtDQEhdNFtPSF0=

> <s_epik_cmdline>
J2VwaWtfcHl0aG9uJywgJy1waCcsICc3LjAnLCAnLXRuJywgJzgnLCAnLW1hJywgJzIwMCcsICctbWV0YWxfYmluZGluZycsICctaW1hZScsICc8aW5maWxlLm1hZT4nLCAnLW9tYWUnLCAnPG91dGZpbGUubWFlPic=

> <r_lp_tautomer_probability>
1

> <r_epik_Ionization_Penalty>
0.000793976

> <r_epik_Ionization_Penalty_Charging>
0

> <r_epik_Ionization_Penalty_Neutral>
0.000793976

> <r_epik_State_Penalty>
-0

> <r_epik_Charging_Adjusted_Penalty>
0

> <i_epik_Tot_Q>
0

> <i_epik_Tot_abs_Q>
0

> <r_epik_Metal_State_Penalty>
-0

> <b_epik_Metal_Only>
0

> <s_epik_Chemistry_Notes>
This compound contains an acetal/aminal-like group ( X-CH(R)-Y where X, Y are N, S, or O) that may be acid/base labile, releasing an aldehyde.

> <s_lp_Force_Field>
OPLS_2005

> <r_lp_Energy>
52.4563

> <b_lp_Chiralities_Consistent>
1

> <s_lp_Variant>
AV-unprocessed.smi:109-16

> <Gold.Version>
5.8.1

> <Gold.Id.Protein>
6NUR|6NUR_protein|mol2

> <Gold.PLP.Fitness>
48.0599

> <Gold.PLP.PLP>
-36.3538

> <Gold.PLP.part.hbond>
-4.3425

> <Gold.PLP.part.metal>
0.0000

> <Gold.PLP.part.buried>
0.4455

> <Gold.PLP.part.nonpolar>
-32.6905

> <Gold.PLP.part.repulsive>
0.4763

> <Gold.PLP.ligand.clash>
0.0000

> <Gold.PLP.ligand.torsion>
1.5291

> <Gold.PLP.Chemscore.Hbond>
3.0983

> <Gold.PLP.Chemscore.CHOScore>
1.7702

> <Gold.PLP.Chemscore.Metal>
0.0000

> <Gold.Chemscore.Hbonds>
donor molecule, donor type, donor heavy atom, donor atom, acceptor molecule, acceptor atom, score
      L1  H     1    34       P1  8028  1.00
      P1  H  6896  6907       L1    16  1.00
      P1  H  7989  7998       L1     7  1.00
      P1  H  8011  8017       L1     1  0.11
      L1  C     8    41       P1  7948  0.69
      L1  C     8    41       P1  7949  0.08
      L1  C     8    41       P1  7957  0.81

> <Gold.PLP.Chemscore.Internal.Correction>
0.1591

> <Gold.Rescore>
     Score         DG    S(hbond)    S(metal)    S(lipo)     H(rot)  DE(clash)    DE(int)     intcor
      8.27     -13.53       3.03        0.00     101.78       5.47       1.43       3.83       ----

> <Gold.Chemscore.Fitness>
8.2668

> <Gold.Chemscore.DG>
-13.5285

> <Gold.Chemscore.ZeroCoef>
-5.4800

> <Gold.Chemscore.Hbond>
3.0339

> <Gold.Chemscore.Metal>
0.0000

> <Gold.Chemscore.Lipo>
101.7847

> <Gold.Chemscore.Internal_Hbond>
0.0000

> <Gold.Chemscore.DEClash>
1.4309

> <Gold.Chemscore.DEInternal>
3.8308

> <Gold.Chemscore.Rot>
5.4662

> <Gold.Chemscore.Internal.Correction>
   9.000000E+99

> <Gold.Chemscore.Hbonds>
donor molecule, donor type, donor heavy atom, donor atom, acceptor molecule, acceptor atom, score
      L1  H     1    34       P1  8028  0.96
      P1  H  6896  6907       L1    16  0.79
      P1  H  7989  7998       L1     7  0.78
      P1  H  8011  8017       L1     1  0.09

> <Gold.Chemscore.Hbond.Weighted>
-10.1332

> <Gold.Chemscore.Metal.Weighted>
-0.0000

> <Gold.Chemscore.Lipo.Weighted>
-11.9088

> <Gold.Chemscore.Internal_Hbond.Weighted>
0.0000

> <Gold.Chemscore.DEClash.Weighted>
1.4309

> <Gold.Chemscore.DEInternal.Weighted>
3.8308

> <Gold.Chemscore.Rot.Weighted>
13.9935

> <Gold.Chemscore.Internal.Correction.Weighted>
   9.000000E+99

> <Gold.Protein.RotatedTorsions>
[ 6907 6896 6895 6894 ] final -111.77 input  -60.11 | X-H torsion
[ 7974 7965 7964 7962 ] final  -55.04 input  175.53 | X-H torsion
[ 8008 7997 7996 7995 ] final  170.10 input   59.86 | X-H torsion
[ 10167 10162 10161 10158 ] final  148.03 input  -65.29 | X-H torsion
[ 10718 10713 10712 10709 ] final -120.90 input   66.30 | X-H torsion
[ 10763 10752 10751 10750 ] final  120.54 input  -60.55 | X-H torsion
[ 11005 11000 10999 10996 ] final -149.00 input  -57.11 | X-H torsion

> <Gold.Protein.ActiveResidues>
 VAL166  LYS551  ARG553  GLY616  TRP617  ASP618  TYR619  PRO620  LYS621  CYS622 
 ASP623  PHE694  ASN695  SER759  ASP760  ASP761  ALA762  ILE779  LEU786  VAL792 
 PHE793  MET794  SER795  GLU796  ALA797  LYS798  CYS799  TRP800  GLU811  SER814 

> <Gold.Protein.RotatedAtoms>
  150.7713  133.9186  159.3390 H   0  0  0  0  0  0  0  0  0  0  0  0  # atno 6907 bound_to 6896
  151.7072  135.0917  160.0271 H   0  0  0  0  0  0  0  0  0  0  0  0  # atno 6908 bound_to 6896
  152.3731  133.6408  159.6138 H   0  0  0  0  0  0  0  0  0  0  0  0  # atno 6909 bound_to 6896
  145.8787  140.8161  142.9851 H   0  0  0  0  0  0  0  0  0  0  0  0  # atno 7974 bound_to 7965
  156.1396  140.1547  156.8941 H   0  0  0  0  0  0  0  0  0  0  0  0  # atno 8008 bound_to 7997
  154.4976  140.0834  156.7769 H   0  0  0  0  0  0  0  0  0  0  0  0  # atno 8009 bound_to 7997
  155.4103  140.3418  155.4265 H   0  0  0  0  0  0  0  0  0  0  0  0  # atno 8010 bound_to 7997
  139.4881  144.5710  151.7054 H   0  0  0  0  0  0  0  0  0  0  0  0  # atno 10167 bound_to 10162
  156.1295  130.6384  150.9597 H   0  0  0  0  0  0  0  0  0  0  0  0  # atno 10718 bound_to 10713
  153.6001  135.3449  155.2942 H   0  0  0  0  0  0  0  0  0  0  0  0  # atno 10763 bound_to 10752
  154.8637  135.4225  154.2422 H   0  0  0  0  0  0  0  0  0  0  0  0  # atno 10764 bound_to 10752
  153.3249  135.7040  153.7070 H   0  0  0  0  0  0  0  0  0  0  0  0  # atno 10765 bound_to 10752
  140.7554  134.3359  157.5115 H   0  0  0  0  0  0  0  0  0  0  0  0  # atno 11005 bound_to 11000
  144.6727  140.1351  143.7441 LP  0  0  0  0  0  0  0  0  0  0  0  0  # atno 17320 bound_to 7965
  145.9049  139.2452  143.1471 LP  0  0  0  0  0  0  0  0  0  0  0  0  # atno 17321 bound_to 7965
  140.5298  144.0749  150.6049 LP  0  0  0  0  0  0  0  0  0  0  0  0  # atno 17342 bound_to 10162
  140.3735  143.2841  152.0251 LP  0  0  0  0  0  0  0  0  0  0  0  0  # atno 17343 bound_to 10162
  157.6474  131.0902  150.8124 LP  0  0  0  0  0  0  0  0  0  0  0  0  # atno 17370 bound_to 10713
  156.8211  130.4984  149.5343 LP  0  0  0  0  0  0  0  0  0  0  0  0  # atno 17371 bound_to 10713
  139.8780  134.9168  156.3163 LP  0  0  0  0  0  0  0  0  0  0  0  0  # atno 17394 bound_to 11000
  140.9713  133.7326  156.0538 LP  0  0  0  0  0  0  0  0  0  0  0  0  # atno 17395 bound_to 11000

$$$$
