AV-unprocessed.smi:830|AV-procd|sdf|3870|dock9
  -GOLD-   22720 1323D 1   1.00000     0.00000
 Structure written by MMmdl.
 52 54  0  0  0  0  0  0  0  0  1 V2000
  148.4737  132.8088  155.5253 C   0  0  0  0  0  0  0  0  0  0  0  0
  149.0595  133.1243  154.1387 C   0  0  2  0  0  0  0  0  0  0  0  0
  149.2201  134.5675  153.9710 N   0  0  0  0  0  0  0  0  0  0  0  0
  150.1514  135.3269  154.5643 C   0  0  0  0  0  0  0  0  0  0  0  0
  151.0094  134.8849  155.3288 O   0  0  0  0  0  0  0  0  0  0  0  0
  150.0047  136.6196  154.2314 N   0  0  0  0  0  0  0  0  0  0  0  0
  150.7329  137.7324  154.7354 C   0  0  0  0  0  0  0  0  0  0  0  0
  152.0618  137.5862  155.2018 C   0  0  0  0  0  0  0  0  0  0  0  0
  152.7730  138.7226  155.6235 C   0  0  0  0  0  0  0  0  0  0  0  0
  152.1341  139.9713  155.5486 C   0  0  0  0  0  0  0  0  0  0  0  0
  150.8744  140.1283  155.0950 N   0  0  0  0  0  0  0  0  0  0  0  0
  150.1687  139.0401  154.6988 C   0  0  0  0  0  0  0  0  0  0  0  0
  148.8460  139.2658  154.2514 N   0  0  0  0  0  0  0  0  0  0  0  0
  148.3828  140.6186  153.9594 C   0  0  0  0  0  0  0  0  0  0  0  0
  146.8615  140.5126  153.8992 C   0  0  0  0  0  0  0  0  0  0  0  0
  146.5659  139.4624  154.9652 C   0  0  0  0  0  0  0  0  0  0  0  0
  147.7631  138.5107  154.8756 C   0  0  0  0  0  0  0  0  0  0  0  0
  148.2569  132.5145  152.9830 C   0  0  0  0  0  0  0  0  0  0  0  0
  148.2045  131.2932  152.8288 O   0  0  0  0  0  0  0  0  0  0  0  0
  147.6413  133.3838  152.1667 N   0  0  0  0  0  0  0  0  0  0  0  0
  146.8219  133.0186  151.0150 C   0  0  0  0  0  0  0  0  0  0  0  0
  145.8601  134.1638  150.6518 C   0  0  0  0  0  0  0  0  0  0  0  0
  144.4733  133.7035  151.1007 C   0  0  0  0  0  0  0  0  0  0  0  0
  144.5105  132.1888  150.9225 C   0  0  0  0  0  0  0  0  0  0  0  0
  145.9347  131.7930  151.3180 C   0  0  0  0  0  0  0  0  0  0  0  0
  148.3578  131.7346  155.6721 H   0  0  0  0  0  0  0  0  0  0  0  0
  147.4936  133.2693  155.6551 H   0  0  0  0  0  0  0  0  0  0  0  0
  149.1218  133.1775  156.3210 H   0  0  0  0  0  0  0  0  0  0  0  0
  150.0509  132.6694  154.0875 H   0  0  0  0  0  0  0  0  0  0  0  0
  148.5616  135.0205  153.3540 H   0  0  0  0  0  0  0  0  0  0  0  0
  149.1986  136.8471  153.6678 H   0  0  0  0  0  0  0  0  0  0  0  0
  152.5509  136.6241  155.2202 H   0  0  0  0  0  0  0  0  0  0  0  0
  153.7879  138.6398  155.9833 H   0  0  0  0  0  0  0  0  0  0  0  0
  152.6493  140.8695  155.8558 H   0  0  0  0  0  0  0  0  0  0  0  0
  148.6659  141.3050  154.7581 H   0  0  0  0  0  0  0  0  0  0  0  0
  148.8007  140.9892  153.0230 H   0  0  0  0  0  0  0  0  0  0  0  0
  146.3614  141.4635  154.0839 H   0  0  0  0  0  0  0  0  0  0  0  0
  146.5498  140.1473  152.9196 H   0  0  0  0  0  0  0  0  0  0  0  0
  146.5457  139.9346  155.9482 H   0  0  0  0  0  0  0  0  0  0  0  0
  145.6109  138.9581  154.8149 H   0  0  0  0  0  0  0  0  0  0  0  0
  147.5143  137.6627  154.2372 H   0  0  0  0  0  0  0  0  0  0  0  0
  148.0398  138.1255  155.8581 H   0  0  0  0  0  0  0  0  0  0  0  0
  147.7409  134.3697  152.3616 H   0  0  0  0  0  0  0  0  0  0  0  0
  147.4660  132.8171  150.1568 H   0  0  0  0  0  0  0  0  0  0  0  0
  146.1390  135.1222  151.0921 H   0  0  0  0  0  0  0  0  0  0  0  0
  145.8571  134.2990  149.5695 H   0  0  0  0  0  0  0  0  0  0  0  0
  144.3270  133.9474  152.1537 H   0  0  0  0  0  0  0  0  0  0  0  0
  143.6705  134.1747  150.5333 H   0  0  0  0  0  0  0  0  0  0  0  0
  143.7524  131.6764  151.5155 H   0  0  0  0  0  0  0  0  0  0  0  0
  144.3381  131.9396  149.8747 H   0  0  0  0  0  0  0  0  0  0  0  0
  146.2708  130.9028  150.7856 H   0  0  0  0  0  0  0  0  0  0  0  0
  145.9548  131.5553  152.3831 H   0  0  0  0  0  0  0  0  0  0  0  0
  1  2  1  0  0  0  0
  1 26  1  0  0  0  0
  1 27  1  0  0  0  0
  1 28  1  0  0  0  0
  2  3  1  0  0  0  0
  2 18  1  0  0  0  0
  2 29  1  0  0  0  0
  3  4  1  0  0  0  0
  3 30  1  0  0  0  0
  4  5  2  0  0  0  0
  4  6  1  0  0  0  0
  6  7  1  0  0  0  0
  6 31  1  0  0  0  0
  7 12  1  0  0  0  0
  7  8  2  0  0  0  0
  8  9  1  0  0  0  0
  8 32  1  0  0  0  0
  9 10  2  0  0  0  0
  9 33  1  0  0  0  0
 10 11  1  0  0  0  0
 10 34  1  0  0  0  0
 11 12  2  0  0  0  0
 12 13  1  0  0  0  0
 13 17  1  0  0  0  0
 13 14  1  0  0  0  0
 14 15  1  0  0  0  0
 14 35  1  0  0  0  0
 14 36  1  0  0  0  0
 15 16  1  0  0  0  0
 15 37  1  0  0  0  0
 15 38  1  0  0  0  0
 16 17  1  0  0  0  0
 16 39  1  0  0  0  0
 16 40  1  0  0  0  0
 17 41  1  0  0  0  0
 17 42  1  0  0  0  0
 18 19  2  0  0  0  0
 18 20  1  0  0  0  0
 20 21  1  0  0  0  0
 20 43  1  0  0  0  0
 21 25  1  0  0  0  0
 21 22  1  0  0  0  0
 21 44  1  0  0  0  0
 22 23  1  0  0  0  0
 22 45  1  0  0  0  0
 22 46  1  0  0  0  0
 23 24  1  0  0  0  0
 23 47  1  0  0  0  0
 23 48  1  0  0  0  0
 24 25  1  0  0  0  0
 24 49  1  0  0  0  0
 24 50  1  0  0  0  0
 25 51  1  0  0  0  0
 25 52  1  0  0  0  0
M  END
> <s_m_source_file>
AV-unprocessed.smi

> <i_m_source_file_index>
830

> <i_lp_mmshare_version>
43012

> <i_f3d_flags>
0

> <s_epik_input>
W0NIMl0xW0NIMl1bQ0gyXVtDSDJdW0NIXTFbTkhdQyg9TylbQ0BIXShbQ0gzXSlbTkhdQyg9TylbTkhdYzJbY0hdW2NIXVtjSF1uYzJOM1tDSDJdW0NIMl1bQ0gyXVtDSDJdMw==

> <s_epik_cmdline>
J2VwaWtfcHl0aG9uJywgJy1waCcsICc3LjAnLCAnLXRuJywgJzgnLCAnLW1hJywgJzIwMCcsICctbWV0YWxfYmluZGluZycsICctaW1hZScsICc8aW5maWxlLm1hZT4nLCAnLW9tYWUnLCAnPG91dGZpbGUubWFlPic=

> <r_lp_tautomer_probability>
1

> <r_epik_Ionization_Penalty>
0.0827694

> <r_epik_Ionization_Penalty_Charging>
0

> <r_epik_Ionization_Penalty_Neutral>
0.0827694

> <r_epik_State_Penalty>
0.0729202

> <r_epik_Charging_Adjusted_Penalty>
0.0729202

> <i_epik_Tot_Q>
0

> <i_epik_Tot_abs_Q>
0

> <r_epik_Metal_State_Penalty>
0.0639723

> <b_epik_Metal_Only>
0

> <s_lp_Force_Field>
OPLS_2005

> <r_lp_Energy>
46.0812

> <b_lp_Chiralities_Consistent>
1

> <s_lp_Variant>
AV-unprocessed.smi:830-1

> <Gold.Version>
5.8.1

> <Gold.Id.Protein>
6NUR|6NUR_protein|mol2

> <Gold.PLP.Fitness>
45.6022

> <Gold.PLP.PLP>
-38.0427

> <Gold.PLP.part.hbond>
-5.4790

> <Gold.PLP.part.metal>
0.0000

> <Gold.PLP.part.buried>
2.5444

> <Gold.PLP.part.nonpolar>
-33.6194

> <Gold.PLP.part.repulsive>
1.3677

> <Gold.PLP.ligand.clash>
0.0000

> <Gold.PLP.ligand.torsion>
1.0107

> <Gold.PLP.Chemscore.Hbond>
3.0476

> <Gold.PLP.Chemscore.CHOScore>
0.0000

> <Gold.PLP.Chemscore.Metal>
0.0000

> <Gold.Chemscore.Hbonds>
donor molecule, donor type, donor heavy atom, donor atom, acceptor molecule, acceptor atom, score
      L1  H     3    30       P1  7948  0.53
      L1  H     6    31       P1  7948  0.45
      L1  H    20    43       P1  7948  0.43
      P1  H  7989  7998       L1    11  0.35
      P1  H 10752 10763       L1     5  0.62

> <Gold.PLP.Chemscore.Internal.Correction>
0.4379

> <Gold.Rescore>
     Score         DG    S(hbond)    S(metal)    S(lipo)     H(rot)  DE(clash)    DE(int)     intcor
     13.29     -18.44       2.05        0.00      87.95       1.64       1.43       3.72       ----

> <Gold.Chemscore.Fitness>
13.2885

> <Gold.Chemscore.DG>
-18.4396

> <Gold.Chemscore.ZeroCoef>
-5.4800

> <Gold.Chemscore.Hbond>
2.0547

> <Gold.Chemscore.Metal>
0.0000

> <Gold.Chemscore.Lipo>
87.9534

> <Gold.Chemscore.Internal_Hbond>
0.0000

> <Gold.Chemscore.DEClash>
1.4279

> <Gold.Chemscore.DEInternal>
3.7232

> <Gold.Chemscore.Rot>
1.6382

> <Gold.Chemscore.Internal.Correction>
   9.000000E+99

> <Gold.Chemscore.Hbonds>
donor molecule, donor type, donor heavy atom, donor atom, acceptor molecule, acceptor atom, score
      L1  H     3    30       P1  7948  0.42
      L1  H     6    31       P1  7948  0.43
      L1  H    20    43       P1  7948  0.21
      P1  H 10752 10763       L1     5  0.49

> <Gold.Chemscore.Hbond.Weighted>
-6.8627

> <Gold.Chemscore.Metal.Weighted>
-0.0000

> <Gold.Chemscore.Lipo.Weighted>
-10.2905

> <Gold.Chemscore.Internal_Hbond.Weighted>
0.0000

> <Gold.Chemscore.DEClash.Weighted>
1.4279

> <Gold.Chemscore.DEInternal.Weighted>
3.7232

> <Gold.Chemscore.Rot.Weighted>
4.1937

> <Gold.Chemscore.Internal.Correction.Weighted>
   9.000000E+99

> <Gold.Protein.RotatedTorsions>
[ 6907 6896 6895 6894 ] final   44.27 input  -60.11 | X-H torsion
[ 7974 7965 7964 7962 ] final -116.65 input  175.53 | X-H torsion
[ 8008 7997 7996 7995 ] final  162.65 input   59.86 | X-H torsion
[ 10167 10162 10161 10158 ] final   60.52 input  -65.29 | X-H torsion
[ 10718 10713 10712 10709 ] final  -54.51 input   66.30 | X-H torsion
[ 10763 10752 10751 10750 ] final   68.32 input  -60.55 | X-H torsion
[ 11005 11000 10999 10996 ] final   99.98 input  -57.11 | X-H torsion

> <Gold.Protein.ActiveResidues>
 VAL166  LYS551  ARG553  GLY616  TRP617  ASP618  TYR619  PRO620  LYS621  CYS622 
 ASP623  PHE694  ASN695  SER759  ASP760  ASP761  ALA762  ILE779  LEU786  VAL792 
 PHE793  MET794  SER795  GLU796  ALA797  LYS798  CYS799  TRP800  GLU811  SER814 

> <Gold.Protein.RotatedAtoms>
  152.2304  134.8327  160.0474 H   0  0  0  0  0  0  0  0  0  0  0  0  # atno 6907 bound_to 6896
  151.9078  133.3548  159.3861 H   0  0  0  0  0  0  0  0  0  0  0  0  # atno 6908 bound_to 6896
  150.7024  134.4688  159.5460 H   0  0  0  0  0  0  0  0  0  0  0  0  # atno 6909 bound_to 6896
  145.0943  140.8510  143.3964 H   0  0  0  0  0  0  0  0  0  0  0  0  # atno 7974 bound_to 7965
  156.2016  140.1744  156.7888 H   0  0  0  0  0  0  0  0  0  0  0  0  # atno 8008 bound_to 7997
  154.5599  140.0701  156.8833 H   0  0  0  0  0  0  0  0  0  0  0  0  # atno 8009 bound_to 7997
  155.2869  140.3352  155.4257 H   0  0  0  0  0  0  0  0  0  0  0  0  # atno 8010 bound_to 7997
  140.1647  144.4335  150.6691 H   0  0  0  0  0  0  0  0  0  0  0  0  # atno 10167 bound_to 10162
  156.1445  130.4153  150.0048 H   0  0  0  0  0  0  0  0  0  0  0  0  # atno 10718 bound_to 10713
  153.0229  135.5252  154.7115 H   0  0  0  0  0  0  0  0  0  0  0  0  # atno 10763 bound_to 10752
  154.6196  135.2887  155.0343 H   0  0  0  0  0  0  0  0  0  0  0  0  # atno 10764 bound_to 10752
  154.1334  135.6589  153.4979 H   0  0  0  0  0  0  0  0  0  0  0  0  # atno 10765 bound_to 10752
  139.8771  134.9120  156.4687 H   0  0  0  0  0  0  0  0  0  0  0  0  # atno 11005 bound_to 11000
  145.1029  139.2810  143.5677 LP  0  0  0  0  0  0  0  0  0  0  0  0  # atno 17320 bound_to 7965
  146.3531  140.0602  142.8630 LP  0  0  0  0  0  0  0  0  0  0  0  0  # atno 17321 bound_to 7965
  140.6620  143.2255  151.5833 LP  0  0  0  0  0  0  0  0  0  0  0  0  # atno 17342 bound_to 10162
  139.5365  144.2767  152.1261 LP  0  0  0  0  0  0  0  0  0  0  0  0  # atno 17343 bound_to 10162
  156.7924  130.9261  151.3646 LP  0  0  0  0  0  0  0  0  0  0  0  0  # atno 17370 bound_to 10713
  157.6604  130.8961  149.9818 LP  0  0  0  0  0  0  0  0  0  0  0  0  # atno 17371 bound_to 10713
  140.8811  133.7917  155.9468 LP  0  0  0  0  0  0  0  0  0  0  0  0  # atno 17394 bound_to 11000
  140.8852  134.2562  157.5123 LP  0  0  0  0  0  0  0  0  0  0  0  0  # atno 17395 bound_to 11000

$$$$
