AV-unprocessed.smi:1538|AV-procd|sdf|6192|dock9
  -GOLD-   22720 6353D 1   1.00000     0.00000
 Structure written by MMmdl.
 37 38  0  0  0  0  0  0  0  0  2 V2000
  148.8969  136.3407  155.3637 C   0  0  0  0  0  0  0  0  0  0  0  0
  149.7448  137.5342  155.3783 N   0  0  0  0  0  0  0  0  0  0  0  0
  149.0188  138.8097  155.3464 C   0  0  0  0  0  0  0  0  0  0  0  0
  149.8842  139.9855  154.8736 C   0  0  0  0  0  0  0  0  0  0  0  0
  151.2395  140.0299  155.5940 C   0  0  1  0  0  0  0  0  0  0  0  0
  151.1301  140.5163  157.0502 C   0  0  0  0  0  0  0  0  0  0  0  0
  150.0459  140.8757  157.5099 O   0  0  0  0  0  0  0  0  0  0  0  0
  152.2606  140.5118  157.7720 N   0  0  0  0  0  0  0  0  0  0  0  0
  152.3462  140.9322  159.1633 C   0  0  0  0  0  0  0  0  0  0  0  0
  153.0521  142.2899  159.2769 C   0  0  0  0  0  0  0  0  0  0  0  0
  152.1586  143.3951  158.9254 N   0  0  0  0  0  0  0  0  0  0  0  0
  151.8873  144.5135  159.6708 C   0  0  0  0  0  0  0  0  0  0  0  0
  151.0042  145.2656  158.9394 C   0  0  0  0  0  0  0  0  0  0  0  0
  150.7755  144.5756  157.7791 N   0  3  0  0  0  0  0  0  0  0  0  0
  151.4787  143.4383  157.7721 C   0  0  0  0  0  0  0  0  0  0  0  0
  151.9789  138.6764  155.4861 C   0  0  0  0  0  0  0  0  0  0  0  0
  151.0915  137.4169  155.4714 C   0  0  0  0  0  0  0  0  0  0  0  0
  151.6523  136.3223  155.5306 O   0  0  0  0  0  0  0  0  0  0  0  0
  149.1287  135.6865  156.2054 H   0  0  0  0  0  0  0  0  0  0  0  0
  149.0485  135.7777  154.4419 H   0  0  0  0  0  0  0  0  0  0  0  0
  147.8365  136.5871  155.4323 H   0  0  0  0  0  0  0  0  0  0  0  0
  148.1518  138.7291  154.6892 H   0  0  0  0  0  0  0  0  0  0  0  0
  148.6275  139.0059  156.3452 H   0  0  0  0  0  0  0  0  0  0  0  0
  150.0580  139.8907  153.8008 H   0  0  0  0  0  0  0  0  0  0  0  0
  149.3435  140.9231  155.0090 H   0  0  0  0  0  0  0  0  0  0  0  0
  151.8515  140.7650  155.0682 H   0  0  0  0  0  0  0  0  0  0  0  0
  153.1119  140.1985  157.3277 H   0  0  0  0  0  0  0  0  0  0  0  0
  151.3407  140.9958  159.5828 H   0  0  0  0  0  0  0  0  0  0  0  0
  152.8884  140.1781  159.7365 H   0  0  0  0  0  0  0  0  0  0  0  0
  153.4182  142.4554  160.2914 H   0  0  0  0  0  0  0  0  0  0  0  0
  153.9153  142.3332  158.6110 H   0  0  0  0  0  0  0  0  0  0  0  0
  152.3315  144.6873  160.6404 H   0  0  0  0  0  0  0  0  0  0  0  0
  150.5349  146.2151  159.1521 H   0  0  0  0  0  0  0  0  0  0  0  0
  151.4946  142.7018  156.9884 H   0  0  0  0  0  0  0  0  0  0  0  0
  152.5473  138.6666  154.5554 H   0  0  0  0  0  0  0  0  0  0  0  0
  152.7199  138.5734  156.2809 H   0  0  0  0  0  0  0  0  0  0  0  0
  150.1640  144.8803  157.0319 H   0  0  0  0  0  0  0  0  0  0  0  0
  1  2  1  0  0  0  0
  1 19  1  0  0  0  0
  1 20  1  0  0  0  0
  1 21  1  0  0  0  0
  2 17  1  0  0  0  0
  2  3  1  0  0  0  0
  3  4  1  0  0  0  0
  3 22  1  0  0  0  0
  3 23  1  0  0  0  0
  4  5  1  0  0  0  0
  4 24  1  0  0  0  0
  4 25  1  0  0  0  0
  5  6  1  0  0  0  0
  5 16  1  0  0  0  0
  5 26  1  0  0  0  0
  6  7  2  0  0  0  0
  6  8  1  0  0  0  0
  8  9  1  0  0  0  0
  8 27  1  0  0  0  0
  9 10  1  0  0  0  0
  9 28  1  0  0  0  0
  9 29  1  0  0  0  0
 10 11  1  0  0  0  0
 10 30  1  0  0  0  0
 10 31  1  0  0  0  0
 11 15  1  0  0  0  0
 11 12  1  0  0  0  0
 12 13  2  0  0  0  0
 12 32  1  0  0  0  0
 13 14  1  0  0  0  0
 13 33  1  0  0  0  0
 14 15  2  0  0  0  0
 14 37  1  0  0  0  0
 15 34  1  0  0  0  0
 16 17  1  0  0  0  0
 16 35  1  0  0  0  0
 16 36  1  0  0  0  0
 17 18  2  0  0  0  0
M  CHG  1  14   1
M  END
> <s_m_source_file>
AV-unprocessed.smi

> <i_m_source_file_index>
1538

> <i_lp_mmshare_version>
43012

> <i_f3d_flags>
0

> <s_epik_input>
W0NIM11OMVtDSDJdW0NIMl1bQ0BIXShbQ0gyXUMxPU8pQyg9TylbTkhdW0NIMl1bQ0gyXW4yW2NIXVtjSF1uW2NIXTI=

> <s_epik_cmdline>
J2VwaWtfcHl0aG9uJywgJy1waCcsICc3LjAnLCAnLXRuJywgJzgnLCAnLW1hJywgJzIwMCcsICctbWV0YWxfYmluZGluZycsICctaW1hZScsICc8aW5maWxlLm1hZT4nLCAnLW9tYWUnLCAnPG91dGZpbGUubWFlPic=

> <r_lp_tautomer_probability>
1

> <r_epik_Ionization_Penalty>
0.272873

> <r_epik_Ionization_Penalty_Charging>
0

> <r_epik_Ionization_Penalty_Neutral>
0.272873

> <r_epik_State_Penalty>
0.265096

> <r_epik_Charging_Adjusted_Penalty>
0.265096

> <i_epik_Tot_Q>
1

> <i_epik_Tot_abs_Q>
1

> <r_epik_Metal_State_Penalty>
0.549113

> <b_epik_Metal_Only>
0

> <s_lp_Force_Field>
OPLS_2005

> <r_lp_Energy>
17.3063

> <b_lp_Chiralities_Consistent>
1

> <s_lp_Variant>
AV-unprocessed.smi:1538-1

> <Gold.Version>
5.8.1

> <Gold.Id.Protein>
6NUR|6NUR_protein|mol2

> <Gold.PLP.Fitness>
45.4218

> <Gold.PLP.PLP>
-36.9876

> <Gold.PLP.part.hbond>
-2.1485

> <Gold.PLP.part.metal>
0.0000

> <Gold.PLP.part.buried>
-3.3160

> <Gold.PLP.part.nonpolar>
-31.6126

> <Gold.PLP.part.repulsive>
0.2721

> <Gold.PLP.ligand.clash>
0.0000

> <Gold.PLP.ligand.torsion>
0.3073

> <Gold.PLP.Chemscore.Hbond>
3.0000

> <Gold.PLP.Chemscore.CHOScore>
0.0000

> <Gold.PLP.Chemscore.Metal>
0.0000

> <Gold.Chemscore.Hbonds>
donor molecule, donor type, donor heavy atom, donor atom, acceptor molecule, acceptor atom, score
      L1  H    14    37       P1  8028  2.00
      P1  H 10752 10764       L1    18  1.00

> <Gold.PLP.Chemscore.Internal.Correction>
0.0488

> <Gold.Rescore>
     Score         DG    S(hbond)    S(metal)    S(lipo)     H(rot)  DE(clash)    DE(int)     intcor
     12.33     -13.51       1.46        0.00      71.66       2.05       0.11       1.07       ----

> <Gold.Chemscore.Fitness>
12.3325

> <Gold.Chemscore.DG>
-13.5117

> <Gold.Chemscore.ZeroCoef>
-5.4800

> <Gold.Chemscore.Hbond>
1.4642

> <Gold.Chemscore.Metal>
0.0000

> <Gold.Chemscore.Lipo>
71.6557

> <Gold.Chemscore.Internal_Hbond>
0.0000

> <Gold.Chemscore.DEClash>
0.1079

> <Gold.Chemscore.DEInternal>
1.0712

> <Gold.Chemscore.Rot>
2.0478

> <Gold.Chemscore.Internal.Correction>
   9.000000E+99

> <Gold.Chemscore.Hbonds>
donor molecule, donor type, donor heavy atom, donor atom, acceptor molecule, acceptor atom, score
      L1  H    14    37       P1  8028  0.25
      P1  H 10752 10764       L1    18  1.00

> <Gold.Chemscore.Hbond.Weighted>
-4.8903

> <Gold.Chemscore.Metal.Weighted>
-0.0000

> <Gold.Chemscore.Lipo.Weighted>
-8.3837

> <Gold.Chemscore.Internal_Hbond.Weighted>
0.0000

> <Gold.Chemscore.DEClash.Weighted>
0.1079

> <Gold.Chemscore.DEInternal.Weighted>
1.0712

> <Gold.Chemscore.Rot.Weighted>
5.2423

> <Gold.Chemscore.Internal.Correction.Weighted>
   9.000000E+99

> <Gold.Protein.RotatedTorsions>
[ 6907 6896 6895 6894 ] final  -42.32 input  -60.11 | X-H torsion
[ 7974 7965 7964 7962 ] final   33.07 input  175.53 | X-H torsion
[ 8008 7997 7996 7995 ] final  -43.98 input   59.86 | X-H torsion
[ 10167 10162 10161 10158 ] final  119.11 input  -65.29 | X-H torsion
[ 10718 10713 10712 10709 ] final -104.67 input   66.30 | X-H torsion
[ 10763 10752 10751 10750 ] final  -53.76 input  -60.55 | X-H torsion
[ 11005 11000 10999 10996 ] final   27.04 input  -57.11 | X-H torsion

> <Gold.Protein.ActiveResidues>
 VAL166  LYS551  ARG553  GLY616  TRP617  ASP618  TYR619  PRO620  LYS621  CYS622 
 ASP623  PHE694  ASN695  SER759  ASP760  ASP761  ALA762  ILE779  LEU786  VAL792 
 PHE793  MET794  SER795  GLU796  ALA797  LYS798  CYS799  TRP800  GLU811  SER814 

> <Gold.Protein.RotatedAtoms>
  150.9566  134.8959  159.7704 H   0  0  0  0  0  0  0  0  0  0  0  0  # atno 6907 bound_to 6896
  152.5140  134.3731  159.9335 H   0  0  0  0  0  0  0  0  0  0  0  0  # atno 6908 bound_to 6896
  151.3745  133.3802  159.2738 H   0  0  0  0  0  0  0  0  0  0  0  0  # atno 6909 bound_to 6896
  146.1445  139.6445  142.9140 H   0  0  0  0  0  0  0  0  0  0  0  0  # atno 7974 bound_to 7965
  154.3997  140.1434  156.3609 H   0  0  0  0  0  0  0  0  0  0  0  0  # atno 8008 bound_to 7997
  155.8182  140.3470  155.5477 H   0  0  0  0  0  0  0  0  0  0  0  0  # atno 8009 bound_to 7997
  155.8315  140.0913  157.1780 H   0  0  0  0  0  0  0  0  0  0  0  0  # atno 8010 bound_to 7997
  139.6067  144.7072  151.2937 H   0  0  0  0  0  0  0  0  0  0  0  0  # atno 10167 bound_to 10162
  156.0314  130.5526  150.7430 H   0  0  0  0  0  0  0  0  0  0  0  0  # atno 10718 bound_to 10713
  154.1640  135.6470  153.4993 H   0  0  0  0  0  0  0  0  0  0  0  0  # atno 10763 bound_to 10752
  153.0102  135.5367  154.6681 H   0  0  0  0  0  0  0  0  0  0  0  0  # atno 10764 bound_to 10752
  154.6003  135.2943  155.0515 H   0  0  0  0  0  0  0  0  0  0  0  0  # atno 10765 bound_to 10752
  140.3306  134.2442  155.7703 H   0  0  0  0  0  0  0  0  0  0  0  0  # atno 11005 bound_to 11000
  145.4969  141.0438  143.2562 LP  0  0  0  0  0  0  0  0  0  0  0  0  # atno 17320 bound_to 7965
  144.7830  139.6485  143.7146 LP  0  0  0  0  0  0  0  0  0  0  0  0  # atno 17321 bound_to 7965
  140.7290  143.6920  150.7914 LP  0  0  0  0  0  0  0  0  0  0  0  0  # atno 17342 bound_to 10162
  140.0507  143.5253  152.2675 LP  0  0  0  0  0  0  0  0  0  0  0  0  # atno 17343 bound_to 10162
  157.4994  131.0917  151.0333 LP  0  0  0  0  0  0  0  0  0  0  0  0  # atno 17370 bound_to 10713
  157.0718  130.5867  149.5404 LP  0  0  0  0  0  0  0  0  0  0  0  0  # atno 17371 bound_to 10713
  141.2064  133.7833  157.0177 LP  0  0  0  0  0  0  0  0  0  0  0  0  # atno 17394 bound_to 11000
  140.0864  134.9618  157.1707 LP  0  0  0  0  0  0  0  0  0  0  0  0  # atno 17395 bound_to 11000

$$$$
