AV-unprocessed.smi:2001|AV-procd|sdf|8107|dock1
  -GOLD-   2272010333D 1   1.00000     0.00000
 Structure written by MMmdl.
 51 52  0  0  0  0  0  0  0  0  2 V2000
  151.9534  144.1453  157.4175 C   0  0  0  0  0  0  0  0  0  0  0  0
  150.9677  143.2487  157.8983 O   0  0  0  0  0  0  0  0  0  0  0  0
  150.5848  142.2876  156.9286 C   0  0  0  0  0  0  0  0  0  0  0  0
  151.6340  141.1656  156.8607 C   0  0  0  0  0  0  0  0  0  0  0  0
  151.2893  140.1581  155.8510 N   0  0  0  0  0  0  0  0  0  0  0  0
  150.0378  140.3376  155.2845 N   0  0  0  0  0  0  0  0  0  0  0  0
  149.6141  139.5245  154.3716 C   0  0  0  0  0  0  0  0  0  0  0  0
  148.2732  139.6813  153.7420 C   0  0  0  0  0  0  0  0  0  0  0  0
  147.4802  140.5523  154.1037 O   0  0  0  0  0  0  0  0  0  0  0  0
  147.9943  138.8134  152.7544 N   0  0  0  0  0  0  0  0  0  0  0  0
  146.7548  138.8050  151.9907 C   0  0  0  0  0  0  0  0  0  0  0  0
  146.5436  137.4354  151.3260 C   0  0  0  0  0  0  0  0  0  0  0  0
  145.2593  136.8040  151.7193 N   0  3  1  0  0  0  0  0  0  0  0  0
  145.1826  135.3836  151.3071 C   0  0  0  0  0  0  0  0  0  0  0  0
  143.7960  134.8013  151.6331 C   0  0  1  0  0  0  0  0  0  0  0  0
  143.7098  133.3084  151.2974 C   0  0  0  0  0  0  0  0  0  0  0  0
  143.5338  134.9560  153.0255 O   0  0  0  0  0  0  0  0  0  0  0  0
  143.5838  136.3016  153.5000 C   0  0  2  0  0  0  0  0  0  0  0  0
  142.3830  137.1356  153.0189 C   0  0  0  0  0  0  0  0  0  0  0  0
  144.9479  136.9368  153.1641 C   0  0  0  0  0  0  0  0  0  0  0  0
  150.4370  138.4139  153.9239 C   0  0  0  0  0  0  0  0  0  0  0  0
  151.6554  138.2520  154.4847 C   0  0  0  0  0  0  0  0  0  0  0  0
  152.1600  139.1574  155.5182 C   0  0  0  0  0  0  0  0  0  0  0  0
  153.2675  139.0304  156.0392 O   0  0  0  0  0  0  0  0  0  0  0  0
  152.2102  144.8597  158.1998 H   0  0  0  0  0  0  0  0  0  0  0  0
  151.5900  144.7061  156.5553 H   0  0  0  0  0  0  0  0  0  0  0  0
  152.8633  143.6155  157.1330 H   0  0  0  0  0  0  0  0  0  0  0  0
  149.6180  141.8631  157.2034 H   0  0  0  0  0  0  0  0  0  0  0  0
  150.4655  142.7572  155.9506 H   0  0  0  0  0  0  0  0  0  0  0  0
  152.6262  141.5867  156.6889 H   0  0  0  0  0  0  0  0  0  0  0  0
  151.6966  140.6798  157.8360 H   0  0  0  0  0  0  0  0  0  0  0  0
  148.6926  138.1235  152.5159 H   0  0  0  0  0  0  0  0  0  0  0  0
  145.9323  139.0455  152.6646 H   0  0  0  0  0  0  0  0  0  0  0  0
  146.7919  139.5882  151.2316 H   0  0  0  0  0  0  0  0  0  0  0  0
  146.5496  137.5804  150.2445 H   0  0  0  0  0  0  0  0  0  0  0  0
  147.3718  136.7620  151.5527 H   0  0  0  0  0  0  0  0  0  0  0  0
  145.3694  135.2988  150.2358 H   0  0  0  0  0  0  0  0  0  0  0  0
  145.9636  134.8145  151.8143 H   0  0  0  0  0  0  0  0  0  0  0  0
  143.0334  135.3222  151.0535 H   0  0  0  0  0  0  0  0  0  0  0  0
  143.8958  133.1327  150.2375 H   0  0  0  0  0  0  0  0  0  0  0  0
  142.7208  132.9128  151.5304 H   0  0  0  0  0  0  0  0  0  0  0  0
  144.4411  132.7323  151.8654 H   0  0  0  0  0  0  0  0  0  0  0  0
  143.5065  136.2395  154.5860 H   0  0  0  0  0  0  0  0  0  0  0  0
  142.3708  138.1110  153.5061 H   0  0  0  0  0  0  0  0  0  0  0  0
  141.4435  136.6375  153.2587 H   0  0  0  0  0  0  0  0  0  0  0  0
  142.4038  137.3120  151.9438 H   0  0  0  0  0  0  0  0  0  0  0  0
  145.7317  136.4457  153.7432 H   0  0  0  0  0  0  0  0  0  0  0  0
  144.9445  137.9834  153.4669 H   0  0  0  0  0  0  0  0  0  0  0  0
  150.0908  137.7300  153.1626 H   0  0  0  0  0  0  0  0  0  0  0  0
  152.2779  137.4304  154.1619 H   0  0  0  0  0  0  0  0  0  0  0  0
  144.5312  137.2868  151.2120 H   0  0  0  0  0  0  0  0  0  0  0  0
  1  2  1  0  0  0  0
  1 25  1  0  0  0  0
  1 26  1  0  0  0  0
  1 27  1  0  0  0  0
  2  3  1  0  0  0  0
  3  4  1  0  0  0  0
  3 28  1  0  0  0  0
  3 29  1  0  0  0  0
  4  5  1  0  0  0  0
  4 30  1  0  0  0  0
  4 31  1  0  0  0  0
  5 23  1  0  0  0  0
  5  6  1  0  0  0  0
  6  7  2  0  0  0  0
  7  8  1  0  0  0  0
  7 21  1  0  0  0  0
  8  9  2  0  0  0  0
  8 10  1  0  0  0  0
 10 11  1  0  0  0  0
 10 32  1  0  0  0  0
 11 12  1  0  0  0  0
 11 33  1  0  0  0  0
 11 34  1  0  0  0  0
 12 13  1  0  0  0  0
 12 35  1  0  0  0  0
 12 36  1  0  0  0  0
 13 20  1  0  0  0  0
 13 14  1  0  0  0  0
 13 51  1  0  0  0  0
 14 15  1  0  0  0  0
 14 37  1  0  0  0  0
 14 38  1  0  0  0  0
 15 16  1  0  0  0  0
 15 17  1  0  0  0  0
 15 39  1  0  0  0  0
 16 40  1  0  0  0  0
 16 41  1  0  0  0  0
 16 42  1  0  0  0  0
 17 18  1  0  0  0  0
 18 19  1  0  0  0  0
 18 20  1  0  0  0  0
 18 43  1  0  0  0  0
 19 44  1  0  0  0  0
 19 45  1  0  0  0  0
 19 46  1  0  0  0  0
 20 47  1  0  0  0  0
 20 48  1  0  0  0  0
 21 22  2  0  0  0  0
 21 49  1  0  0  0  0
 22 23  1  0  0  0  0
 22 50  1  0  0  0  0
 23 24  2  0  0  0  0
M  CHG  1  13   1
M  END
> <s_m_source_file>
AV-unprocessed.smi

> <i_m_source_file_index>
2001

> <i_lp_mmshare_version>
43012

> <i_f3d_flags>
0

> <s_epik_input>
W0NIM11PW0NIMl1bQ0gyXW4xbmMoW2NIXVtjSF1jMT1PKUMoPU8pW05IXVtDSDJdW0NIMl1OMltDSDJdW0NAQEhdKFtDSDNdKU9bQ0BASF0oW0NIM10pW0NIMl0y

> <s_epik_cmdline>
J2VwaWtfcHl0aG9uJywgJy1waCcsICc3LjAnLCAnLXRuJywgJzgnLCAnLW1hJywgJzIwMCcsICctbWV0YWxfYmluZGluZycsICctaW1hZScsICc8aW5maWxlLm1hZT4nLCAnLW9tYWUnLCAnPG91dGZpbGUubWFlPic=

> <r_lp_tautomer_probability>
1

> <r_epik_Ionization_Penalty>
0.724354

> <r_epik_Ionization_Penalty_Charging>
0.724348

> <r_epik_Ionization_Penalty_Neutral>
6.1656e-06

> <r_epik_State_Penalty>
0.749058

> <r_epik_Charging_Adjusted_Penalty>
1.47341

> <i_epik_Tot_Q>
1

> <i_epik_Tot_abs_Q>
1

> <r_epik_Metal_State_Penalty>
0.750779

> <b_epik_Metal_Only>
0

> <s_lp_Force_Field>
OPLS_2005

> <r_lp_Energy>
40.2428

> <b_lp_Chiralities_Consistent>
1

> <s_lp_Variant>
AV-unprocessed.smi:2001-6

> <Gold.Version>
5.8.1

> <Gold.Id.Protein>
6NUR|6NUR_protein|mol2

> <Gold.PLP.Fitness>
51.5102

> <Gold.PLP.PLP>
-45.5012

> <Gold.PLP.part.hbond>
-3.9241

> <Gold.PLP.part.metal>
0.0000

> <Gold.PLP.part.buried>
-2.9149

> <Gold.PLP.part.nonpolar>
-40.3012

> <Gold.PLP.part.repulsive>
0.5009

> <Gold.PLP.ligand.clash>
0.4500

> <Gold.PLP.ligand.torsion>
0.7718

> <Gold.PLP.Chemscore.Hbond>
2.4525

> <Gold.PLP.Chemscore.CHOScore>
0.0000

> <Gold.PLP.Chemscore.Metal>
0.0000

> <Gold.Chemscore.Hbonds>
donor molecule, donor type, donor heavy atom, donor atom, acceptor molecule, acceptor atom, score
      L1  H    10    32       P1  7948  0.90
      L1  H    13    51       P1 10171  1.00
      P1  H  7997  8010       L1    24  0.61

> <Gold.PLP.Chemscore.Internal.Correction>
0.6451

> <Gold.Rescore>
     Score         DG    S(hbond)    S(metal)    S(lipo)     H(rot)  DE(clash)    DE(int)     intcor
     17.68     -19.98       2.62        0.00      94.42       2.07       1.48       0.82       ----

> <Gold.Chemscore.Fitness>
17.6784

> <Gold.Chemscore.DG>
-19.9791

> <Gold.Chemscore.ZeroCoef>
-5.4800

> <Gold.Chemscore.Hbond>
2.6218

> <Gold.Chemscore.Metal>
0.0000

> <Gold.Chemscore.Lipo>
94.4197

> <Gold.Chemscore.Internal_Hbond>
0.0000

> <Gold.Chemscore.DEClash>
1.4794

> <Gold.Chemscore.DEInternal>
0.8213

> <Gold.Chemscore.Rot>
2.0721

> <Gold.Chemscore.Internal.Correction>
   9.000000E+99

> <Gold.Chemscore.Hbonds>
donor molecule, donor type, donor heavy atom, donor atom, acceptor molecule, acceptor atom, score
      L1  H    10    32       P1  7948  0.86
      L1  H    13    51       P1 10171  0.92
      P1  H  7997  8010       L1    24  0.60

> <Gold.Chemscore.Hbond.Weighted>
-8.7567

> <Gold.Chemscore.Metal.Weighted>
-0.0000

> <Gold.Chemscore.Lipo.Weighted>
-11.0471

> <Gold.Chemscore.Internal_Hbond.Weighted>
0.0000

> <Gold.Chemscore.DEClash.Weighted>
1.4794

> <Gold.Chemscore.DEInternal.Weighted>
0.8213

> <Gold.Chemscore.Rot.Weighted>
5.3047

> <Gold.Chemscore.Internal.Correction.Weighted>
   9.000000E+99

> <Gold.Protein.RotatedTorsions>
[ 6907 6896 6895 6894 ] final  -32.91 input  -60.11 | X-H torsion
[ 7974 7965 7964 7962 ] final   39.54 input  175.53 | X-H torsion
[ 8008 7997 7996 7995 ] final   47.54 input   59.86 | X-H torsion
[ 10167 10162 10161 10158 ] final   94.77 input  -65.29 | X-H torsion
[ 10718 10713 10712 10709 ] final  -63.21 input   66.30 | X-H torsion
[ 10763 10752 10751 10750 ] final  -50.72 input  -60.55 | X-H torsion
[ 11005 11000 10999 10996 ] final  -20.37 input  -57.11 | X-H torsion

> <Gold.Protein.ActiveResidues>
 VAL166  LYS551  ARG553  GLY616  TRP617  ASP618  TYR619  PRO620  LYS621  CYS622 
 ASP623  PHE694  ASN695  SER759  ASP760  ASP761  ALA762  ILE779  LEU786  VAL792 
 PHE793  MET794  SER795  GLU796  ALA797  LYS798  CYS799  TRP800  GLU811  SER814 

> <Gold.Protein.RotatedAtoms>
  151.0725  134.9807  159.8315 H   0  0  0  0  0  0  0  0  0  0  0  0  # atno 6907 bound_to 6896
  152.5410  134.2282  159.8824 H   0  0  0  0  0  0  0  0  0  0  0  0  # atno 6908 bound_to 6896
  151.2307  133.4408  159.2637 H   0  0  0  0  0  0  0  0  0  0  0  0  # atno 6909 bound_to 6896
  146.0976  139.5640  142.9435 H   0  0  0  0  0  0  0  0  0  0  0  0  # atno 7974 bound_to 7965
  155.3707  140.3423  155.4243 H   0  0  0  0  0  0  0  0  0  0  0  0  # atno 8008 bound_to 7997
  156.1664  140.1617  156.8558 H   0  0  0  0  0  0  0  0  0  0  0  0  # atno 8009 bound_to 7997
  154.5189  140.0771  156.8117 H   0  0  0  0  0  0  0  0  0  0  0  0  # atno 8010 bound_to 7997
  139.8052  144.6797  150.9712 H   0  0  0  0  0  0  0  0  0  0  0  0  # atno 10167 bound_to 10162
  156.0806  130.4218  150.1244 H   0  0  0  0  0  0  0  0  0  0  0  0  # atno 10718 bound_to 10713
  154.1149  135.6543  153.4892 H   0  0  0  0  0  0  0  0  0  0  0  0  # atno 10763 bound_to 10752
  153.0244  135.5256  154.7155 H   0  0  0  0  0  0  0  0  0  0  0  0  # atno 10764 bound_to 10752
  154.6346  135.2980  155.0146 H   0  0  0  0  0  0  0  0  0  0  0  0  # atno 10765 bound_to 10752
  140.8458  133.7893  155.9911 H   0  0  0  0  0  0  0  0  0  0  0  0  # atno 11005 bound_to 11000
  145.5917  141.0368  143.2066 LP  0  0  0  0  0  0  0  0  0  0  0  0  # atno 17320 bound_to 7965
  144.7408  139.7455  143.7311 LP  0  0  0  0  0  0  0  0  0  0  0  0  # atno 17321 bound_to 7965
  140.7819  143.4241  151.0796 LP  0  0  0  0  0  0  0  0  0  0  0  0  # atno 17342 bound_to 10162
  139.7911  143.8218  152.3151 LP  0  0  0  0  0  0  0  0  0  0  0  0  # atno 17343 bound_to 10162
  156.9276  130.9703  151.3538 LP  0  0  0  0  0  0  0  0  0  0  0  0  # atno 17370 bound_to 10713
  157.5921  130.8451  149.8674 LP  0  0  0  0  0  0  0  0  0  0  0  0  # atno 17371 bound_to 10713
  140.8845  134.2571  157.5127 LP  0  0  0  0  0  0  0  0  0  0  0  0  # atno 17394 bound_to 11000
  139.8703  134.9631  156.4451 LP  0  0  0  0  0  0  0  0  0  0  0  0  # atno 17395 bound_to 11000

$$$$
