AV-unprocessed.smi:1791|AV-procd|sdf|7218|dock8
  -GOLD-   22720 8463D 1   1.00000     0.00000
 Structure written by MMmdl.
 38 39  0  0  0  0  0  0  0  0  1 V2000
  152.2356  140.4177  158.6323 C   0  0  0  0  0  0  0  0  0  0  0  0
  152.6803  140.1213  157.3128 O   0  0  0  0  0  0  0  0  0  0  0  0
  151.9965  139.1642  156.5910 C   0  0  0  0  0  0  0  0  0  0  0  0
  152.2201  139.0784  155.2025 C   0  0  0  0  0  0  0  0  0  0  0  0
  151.5199  138.1100  154.4572 C   0  0  0  0  0  0  0  0  0  0  0  0
  150.6085  137.2588  155.1273 C   0  0  0  0  0  0  0  0  0  0  0  0
  149.8429  136.2385  154.4998 N   0  0  0  0  0  0  0  0  0  0  0  0
  149.4669  135.0430  154.9854 C   0  0  0  0  0  0  0  0  0  0  0  0
  149.6990  134.6275  156.1200 O   0  0  0  0  0  0  0  0  0  0  0  0
  148.8001  134.3401  154.0583 N   0  0  0  0  0  0  0  0  0  0  0  0
  148.2534  132.9946  154.2259 C   0  0  2  0  0  0  0  0  0  0  0  0
  149.3855  132.0494  154.6538 C   0  0  0  0  0  0  0  0  0  0  0  0
  147.5795  132.5286  152.9203 C   0  0  2  0  0  0  0  0  0  0  0  0
  146.6072  133.5344  152.3000 C   0  0  0  0  0  0  0  0  0  0  0  0
  145.6496  132.6645  151.5001 C   0  0  0  0  0  0  0  0  0  0  0  0
  145.9224  131.2449  152.0045 C   0  0  0  0  0  0  0  0  0  0  0  0
  146.7357  131.4125  153.1566 O   0  0  0  0  0  0  0  0  0  0  0  0
  150.4700  137.4158  156.5217 C   0  0  0  0  0  0  0  0  0  0  0  0
  151.1376  138.3416  157.2416 N   0  0  0  0  0  0  0  0  0  0  0  0
  152.8665  141.1967  159.0598 H   0  0  0  0  0  0  0  0  0  0  0  0
  152.3037  139.5435  159.2814 H   0  0  0  0  0  0  0  0  0  0  0  0
  151.2088  140.7861  158.6344 H   0  0  0  0  0  0  0  0  0  0  0  0
  152.9182  139.7440  154.7164 H   0  0  0  0  0  0  0  0  0  0  0  0
  151.7054  138.0384  153.3974 H   0  0  0  0  0  0  0  0  0  0  0  0
  149.6125  136.4101  153.5320 H   0  0  0  0  0  0  0  0  0  0  0  0
  148.6614  134.7692  153.1553 H   0  0  0  0  0  0  0  0  0  0  0  0
  147.5048  132.9904  155.0201 H   0  0  0  0  0  0  0  0  0  0  0  0
  149.0148  131.0362  154.8119 H   0  0  0  0  0  0  0  0  0  0  0  0
  149.8400  132.3801  155.5882 H   0  0  0  0  0  0  0  0  0  0  0  0
  150.1712  132.0012  153.8990 H   0  0  0  0  0  0  0  0  0  0  0  0
  148.3351  132.2465  152.1839 H   0  0  0  0  0  0  0  0  0  0  0  0
  146.0555  134.0570  153.0829 H   0  0  0  0  0  0  0  0  0  0  0  0
  147.1109  134.2835  151.6884 H   0  0  0  0  0  0  0  0  0  0  0  0
  144.6159  132.9631  151.6775 H   0  0  0  0  0  0  0  0  0  0  0  0
  145.8407  132.7358  150.4289 H   0  0  0  0  0  0  0  0  0  0  0  0
  145.0083  130.7012  152.2434 H   0  0  0  0  0  0  0  0  0  0  0  0
  146.4740  130.6722  151.2576 H   0  0  0  0  0  0  0  0  0  0  0  0
  149.7962  136.7823  157.0801 H   0  0  0  0  0  0  0  0  0  0  0  0
  1  2  1  0  0  0  0
  1 20  1  0  0  0  0
  1 21  1  0  0  0  0
  1 22  1  0  0  0  0
  2  3  1  0  0  0  0
  3 19  1  0  0  0  0
  3  4  2  0  0  0  0
  4  5  1  0  0  0  0
  4 23  1  0  0  0  0
  5  6  2  0  0  0  0
  5 24  1  0  0  0  0
  6  7  1  0  0  0  0
  6 18  1  0  0  0  0
  7  8  1  0  0  0  0
  7 25  1  0  0  0  0
  8  9  2  0  0  0  0
  8 10  1  0  0  0  0
 10 11  1  0  0  0  0
 10 26  1  0  0  0  0
 11 12  1  0  0  0  0
 11 13  1  0  0  0  0
 11 27  1  0  0  0  0
 12 28  1  0  0  0  0
 12 29  1  0  0  0  0
 12 30  1  0  0  0  0
 13 17  1  0  0  0  0
 13 14  1  0  0  0  0
 13 31  1  0  0  0  0
 14 15  1  0  0  0  0
 14 32  1  0  0  0  0
 14 33  1  0  0  0  0
 15 16  1  0  0  0  0
 15 34  1  0  0  0  0
 15 35  1  0  0  0  0
 16 17  1  0  0  0  0
 16 36  1  0  0  0  0
 16 37  1  0  0  0  0
 18 19  2  0  0  0  0
 18 38  1  0  0  0  0
M  END
> <s_m_source_file>
AV-unprocessed.smi

> <i_m_source_file_index>
1791

> <i_lp_mmshare_version>
43012

> <i_f3d_flags>
0

> <s_epik_input>
W0NIM11PYzFbY0hdW2NIXWMoW2NIXW4xKVtOSF1DKD1PKVtOSF1bQ0BIXShbQ0gzXSlbQ0BASF0yW0NIMl1bQ0gyXVtDSDJdTzI=

> <s_epik_cmdline>
J2VwaWtfcHl0aG9uJywgJy1waCcsICc3LjAnLCAnLXRuJywgJzgnLCAnLW1hJywgJzIwMCcsICctbWV0YWxfYmluZGluZycsICctaW1hZScsICc8aW5maWxlLm1hZT4nLCAnLW9tYWUnLCAnPG91dGZpbGUubWFlPic=

> <r_lp_tautomer_probability>
1

> <r_epik_Ionization_Penalty>
9.18737e-05

> <r_epik_Ionization_Penalty_Charging>
0

> <r_epik_Ionization_Penalty_Neutral>
9.18737e-05

> <r_epik_State_Penalty>
-0

> <r_epik_Charging_Adjusted_Penalty>
0

> <i_epik_Tot_Q>
0

> <i_epik_Tot_abs_Q>
0

> <r_epik_Metal_State_Penalty>
-0

> <b_epik_Metal_Only>
0

> <s_lp_Force_Field>
OPLS_2005

> <r_lp_Energy>
20.7661

> <b_lp_Chiralities_Consistent>
1

> <s_lp_Variant>
AV-unprocessed.smi:1791-1

> <Gold.Version>
5.8.1

> <Gold.Id.Protein>
6NUR|6NUR_protein|mol2

> <Gold.PLP.Fitness>
38.6992

> <Gold.PLP.PLP>
-30.8487

> <Gold.PLP.part.hbond>
-3.3366

> <Gold.PLP.part.metal>
0.0000

> <Gold.PLP.part.buried>
-4.0247

> <Gold.PLP.part.nonpolar>
-24.7294

> <Gold.PLP.part.repulsive>
0.2038

> <Gold.PLP.ligand.clash>
0.0000

> <Gold.PLP.ligand.torsion>
0.5850

> <Gold.PLP.Chemscore.Hbond>
3.0000

> <Gold.PLP.Chemscore.CHOScore>
0.0000

> <Gold.PLP.Chemscore.Metal>
0.0000

> <Gold.Chemscore.Hbonds>
donor molecule, donor type, donor heavy atom, donor atom, acceptor molecule, acceptor atom, score
      L1  H     7    25       P1  7948  1.00
      L1  H    10    26       P1  7948  1.00
      P1  H  7997  8009       L1     2  1.00

> <Gold.PLP.Chemscore.Internal.Correction>
0.0205

> <Gold.Rescore>
     Score         DG    S(hbond)    S(metal)    S(lipo)     H(rot)  DE(clash)    DE(int)     intcor
     14.75     -17.49       2.52        0.00      62.76       1.47       0.02       2.72       ----

> <Gold.Chemscore.Fitness>
14.7480

> <Gold.Chemscore.DG>
-17.4896

> <Gold.Chemscore.ZeroCoef>
-5.4800

> <Gold.Chemscore.Hbond>
2.5235

> <Gold.Chemscore.Metal>
0.0000

> <Gold.Chemscore.Lipo>
62.7552

> <Gold.Chemscore.Internal_Hbond>
0.0000

> <Gold.Chemscore.DEClash>
0.0201

> <Gold.Chemscore.DEInternal>
2.7216

> <Gold.Chemscore.Rot>
1.4693

> <Gold.Chemscore.Internal.Correction>
   9.000000E+99

> <Gold.Chemscore.Hbonds>
donor molecule, donor type, donor heavy atom, donor atom, acceptor molecule, acceptor atom, score
      L1  H     7    25       P1  7948  0.50
      L1  H    10    26       P1  7948  0.33
      P1  H  7997  8009       L1     2  0.59

> <Gold.Chemscore.Hbond.Weighted>
-8.4286

> <Gold.Chemscore.Metal.Weighted>
-0.0000

> <Gold.Chemscore.Lipo.Weighted>
-7.3424

> <Gold.Chemscore.Internal_Hbond.Weighted>
0.0000

> <Gold.Chemscore.DEClash.Weighted>
0.0201

> <Gold.Chemscore.DEInternal.Weighted>
2.7216

> <Gold.Chemscore.Rot.Weighted>
3.7613

> <Gold.Chemscore.Internal.Correction.Weighted>
   9.000000E+99

> <Gold.Protein.RotatedTorsions>
[ 6907 6896 6895 6894 ] final -104.23 input  -60.11 | X-H torsion
[ 7974 7965 7964 7962 ] final -118.54 input  175.53 | X-H torsion
[ 8008 7997 7996 7995 ] final  173.76 input   59.86 | X-H torsion
[ 10167 10162 10161 10158 ] final  108.23 input  -65.29 | X-H torsion
[ 10718 10713 10712 10709 ] final  -66.17 input   66.30 | X-H torsion
[ 10763 10752 10751 10750 ] final -118.43 input  -60.55 | X-H torsion
[ 11005 11000 10999 10996 ] final  137.74 input  -57.11 | X-H torsion

> <Gold.Protein.ActiveResidues>
 VAL166  LYS551  ARG553  GLY616  TRP617  ASP618  TYR619  PRO620  LYS621  CYS622 
 ASP623  PHE694  ASN695  SER759  ASP760  ASP761  ALA762  ILE779  LEU786  VAL792 
 PHE793  MET794  SER795  GLU796  ALA797  LYS798  CYS799  TRP800  GLU811  SER814 

> <Gold.Protein.RotatedAtoms>
  150.7277  134.0310  159.3733 H   0  0  0  0  0  0  0  0  0  0  0  0  # atno 6907 bound_to 6896
  151.8279  135.0629  160.0442 H   0  0  0  0  0  0  0  0  0  0  0  0  # atno 6908 bound_to 6896
  152.2955  133.5567  159.5621 H   0  0  0  0  0  0  0  0  0  0  0  0  # atno 6909 bound_to 6896
  145.0726  140.8370  143.4086 H   0  0  0  0  0  0  0  0  0  0  0  0  # atno 7974 bound_to 7965
  156.1042  140.1452  156.9426 H   0  0  0  0  0  0  0  0  0  0  0  0  # atno 8008 bound_to 7997
  154.4723  140.0906  156.7220 H   0  0  0  0  0  0  0  0  0  0  0  0  # atno 8009 bound_to 7997
  155.4707  140.3441  155.4327 H   0  0  0  0  0  0  0  0  0  0  0  0  # atno 8010 bound_to 7997
  139.6863  144.7113  151.1426 H   0  0  0  0  0  0  0  0  0  0  0  0  # atno 10167 bound_to 10162
  156.0628  130.4258  150.1669 H   0  0  0  0  0  0  0  0  0  0  0  0  # atno 10718 bound_to 10713
  154.8587  135.4274  154.2137 H   0  0  0  0  0  0  0  0  0  0  0  0  # atno 10763 bound_to 10752
  153.3157  135.6979  153.7081 H   0  0  0  0  0  0  0  0  0  0  0  0  # atno 10764 bound_to 10752
  153.6156  135.3511  155.2967 H   0  0  0  0  0  0  0  0  0  0  0  0  # atno 10765 bound_to 10752
  140.0135  134.9429  157.0327 H   0  0  0  0  0  0  0  0  0  0  0  0  # atno 11005 bound_to 11000
  145.1274  139.2654  143.5557 LP  0  0  0  0  0  0  0  0  0  0  0  0  # atno 17320 bound_to 7965
  146.3529  140.0915  142.8612 LP  0  0  0  0  0  0  0  0  0  0  0  0  # atno 17321 bound_to 7965
  140.7669  143.5624  150.9084 LP  0  0  0  0  0  0  0  0  0  0  0  0  # atno 17342 bound_to 10162
  139.9299  143.6505  152.3078 LP  0  0  0  0  0  0  0  0  0  0  0  0  # atno 17343 bound_to 10162
  156.9735  130.9842  151.3453 LP  0  0  0  0  0  0  0  0  0  0  0  0  # atno 17370 bound_to 10713
  157.5648  130.8270  149.8313 LP  0  0  0  0  0  0  0  0  0  0  0  0  # atno 17371 bound_to 10713
  140.4513  134.1580  155.7182 LP  0  0  0  0  0  0  0  0  0  0  0  0  # atno 17394 bound_to 11000
  141.1727  133.8577  157.1520 LP  0  0  0  0  0  0  0  0  0  0  0  0  # atno 17395 bound_to 11000

$$$$
