AV-unprocessed.smi:1437|AV-procd|sdf|5864|dock3
  -GOLD-   22720 5533D 1   1.00000     0.00000
 Structure written by MMmdl.
 36 37  0  0  0  0  0  0  0  0  2 V2000
  153.8515  137.7354  157.0450 C   0  0  0  0  0  0  0  0  0  0  0  0
  152.7617  138.1579  156.1205 C   0  0  0  0  0  0  0  0  0  0  0  0
  151.7352  137.4818  155.5230 C   0  0  0  0  0  0  0  0  0  0  0  0
  151.0820  138.4932  154.7699 C   0  0  0  0  0  0  0  0  0  0  0  0
  149.9393  138.1930  153.9853 N   0  0  0  0  0  0  0  0  0  0  0  0
  148.7703  138.8555  153.9563 C   0  0  0  0  0  0  0  0  0  0  0  0
  148.5009  139.8506  154.6292 O   0  0  0  0  0  0  0  0  0  0  0  0
  147.9122  138.2938  153.0921 N   0  0  0  0  0  0  0  0  0  0  0  0
  146.5629  138.7811  152.8059 C   0  0  2  0  0  0  0  0  0  0  0  0
  145.4844  137.9552  153.5370 C   0  0  0  0  0  0  0  0  0  0  0  0
  145.3388  136.5428  152.9436 C   0  0  0  0  0  0  0  0  0  0  0  0
  145.0615  136.6037  151.4870 N   0  3  2  0  0  0  0  0  0  0  0  0
  144.7904  135.2701  150.9087 C   0  0  0  0  0  0  0  0  0  0  0  0
  146.1215  137.3335  150.7481 C   0  0  0  0  0  0  0  0  0  0  0  0
  146.2937  138.7644  151.2904 C   0  0  0  0  0  0  0  0  0  0  0  0
  151.6568  139.6794  154.8965 N   0  0  0  0  0  0  0  0  0  0  0  0
  152.7367  139.4706  155.7623 O   0  0  0  0  0  0  0  0  0  0  0  0
  153.5884  136.8107  157.5589 H   0  0  0  0  0  0  0  0  0  0  0  0
  154.0392  138.4991  157.8001 H   0  0  0  0  0  0  0  0  0  0  0  0
  154.7777  137.5659  156.4958 H   0  0  0  0  0  0  0  0  0  0  0  0
  151.4951  136.4327  155.6122 H   0  0  0  0  0  0  0  0  0  0  0  0
  150.0249  137.3919  153.3779 H   0  0  0  0  0  0  0  0  0  0  0  0
  148.2224  137.4812  152.5796 H   0  0  0  0  0  0  0  0  0  0  0  0
  146.5029  139.8165  153.1468 H   0  0  0  0  0  0  0  0  0  0  0  0
  145.7025  137.8929  154.6037 H   0  0  0  0  0  0  0  0  0  0  0  0
  144.5270  138.4722  153.4579 H   0  0  0  0  0  0  0  0  0  0  0  0
  146.2449  135.9612  153.1213 H   0  0  0  0  0  0  0  0  0  0  0  0
  144.5248  136.0210  153.4484 H   0  0  0  0  0  0  0  0  0  0  0  0
  145.6655  134.6237  150.9881 H   0  0  0  0  0  0  0  0  0  0  0  0
  144.5224  135.3550  149.8550 H   0  0  0  0  0  0  0  0  0  0  0  0
  143.9595  134.7873  151.4243 H   0  0  0  0  0  0  0  0  0  0  0  0
  147.0618  136.7846  150.8199 H   0  0  0  0  0  0  0  0  0  0  0  0
  145.8627  137.3775  149.6895 H   0  0  0  0  0  0  0  0  0  0  0  0
  145.3860  139.3332  151.0837 H   0  0  0  0  0  0  0  0  0  0  0  0
  147.0969  139.2741  150.7567 H   0  0  0  0  0  0  0  0  0  0  0  0
  144.2123  137.1403  151.3785 H   0  0  0  0  0  0  0  0  0  0  0  0
  1  2  1  0  0  0  0
  1 18  1  0  0  0  0
  1 19  1  0  0  0  0
  1 20  1  0  0  0  0
  2 17  1  0  0  0  0
  2  3  2  0  0  0  0
  3  4  1  0  0  0  0
  3 21  1  0  0  0  0
  4  5  1  0  0  0  0
  4 16  2  0  0  0  0
  5  6  1  0  0  0  0
  5 22  1  0  0  0  0
  6  7  2  0  0  0  0
  6  8  1  0  0  0  0
  8  9  1  0  0  0  0
  8 23  1  0  0  0  0
  9 15  1  0  0  0  0
  9 10  1  0  0  0  0
  9 24  1  0  0  0  0
 10 11  1  0  0  0  0
 10 25  1  0  0  0  0
 10 26  1  0  0  0  0
 11 12  1  0  0  0  0
 11 27  1  0  0  0  0
 11 28  1  0  0  0  0
 12 13  1  0  0  0  0
 12 14  1  0  0  0  0
 12 36  1  0  0  0  0
 13 29  1  0  0  0  0
 13 30  1  0  0  0  0
 13 31  1  0  0  0  0
 14 15  1  0  0  0  0
 14 32  1  0  0  0  0
 14 33  1  0  0  0  0
 15 34  1  0  0  0  0
 15 35  1  0  0  0  0
 16 17  1  0  0  0  0
M  CHG  1  12   1
M  END
> <s_m_source_file>
AV-unprocessed.smi

> <i_m_source_file_index>
1437

> <i_lp_mmshare_version>
43012

> <i_f3d_flags>
0

> <s_epik_input>
W0NIM11jMVtjSF1jKG5vMSlbTkhdQyg9TylbTkhdW0NIXTJbQ0gyXVtDSDJdTihbQ0gzXSlbQ0gyXVtDSDJdMg==

> <s_epik_cmdline>
J2VwaWtfcHl0aG9uJywgJy1waCcsICc3LjAnLCAnLXRuJywgJzgnLCAnLW1hJywgJzIwMCcsICctbWV0YWxfYmluZGluZycsICctaW1hZScsICc8aW5maWxlLm1hZT4nLCAnLW9tYWUnLCAnPG91dGZpbGUubWFlPic=

> <r_epik_Ionization_Penalty>
0.00408962

> <r_epik_Ionization_Penalty_Charging>
0.00405645

> <r_epik_Ionization_Penalty_Neutral>
3.31706e-05

> <r_epik_State_Penalty>
0.00290716

> <r_epik_Charging_Adjusted_Penalty>
0.00696361

> <i_epik_Tot_Q>
1

> <i_epik_Tot_abs_Q>
1

> <r_epik_Metal_State_Penalty>
0.0142111

> <b_epik_Metal_Only>
0

> <s_lp_Force_Field>
OPLS_2005

> <r_lp_Energy>
12.346

> <b_lp_Chiralities_Consistent>
1

> <s_lp_Variant>
AV-unprocessed.smi:1437-2

> <Gold.Version>
5.8.1

> <Gold.Id.Protein>
6NUR|6NUR_protein|mol2

> <Gold.PLP.Fitness>
36.8437

> <Gold.PLP.PLP>
-25.0703

> <Gold.PLP.part.hbond>
-6.2484

> <Gold.PLP.part.metal>
0.0000

> <Gold.PLP.part.buried>
7.7288

> <Gold.PLP.part.nonpolar>
-26.6819

> <Gold.PLP.part.repulsive>
0.3351

> <Gold.PLP.ligand.clash>
0.0000

> <Gold.PLP.ligand.torsion>
0.6503

> <Gold.PLP.Chemscore.Hbond>
4.3567

> <Gold.PLP.Chemscore.CHOScore>
0.0000

> <Gold.PLP.Chemscore.Metal>
0.0000

> <Gold.Chemscore.Hbonds>
donor molecule, donor type, donor heavy atom, donor atom, acceptor molecule, acceptor atom, score
      L1  H     5    22       P1  7948  0.63
      L1  H     8    23       P1  7948  1.00
      L1  H    12    36       P1 10171  0.34
      P1  H  7989  7998       L1    16  1.00
      P1  H  7997  8008       L1    17  1.00

> <Gold.PLP.Chemscore.Internal.Correction>
0.0039

> <Gold.Rescore>
     Score         DG    S(hbond)    S(metal)    S(lipo)     H(rot)  DE(clash)    DE(int)     intcor
     18.28     -23.47       3.90        0.00      64.21       1.00       4.44       0.74       ----

> <Gold.Chemscore.Fitness>
18.2813

> <Gold.Chemscore.DG>
-23.4657

> <Gold.Chemscore.ZeroCoef>
-5.4800

> <Gold.Chemscore.Hbond>
3.9021

> <Gold.Chemscore.Metal>
0.0000

> <Gold.Chemscore.Lipo>
64.2102

> <Gold.Chemscore.Internal_Hbond>
0.0000

> <Gold.Chemscore.DEClash>
4.4411

> <Gold.Chemscore.DEInternal>
0.7433

> <Gold.Chemscore.Rot>
1.0000

> <Gold.Chemscore.Internal.Correction>
   9.000000E+99

> <Gold.Chemscore.Hbonds>
donor molecule, donor type, donor heavy atom, donor atom, acceptor molecule, acceptor atom, score
      L1  H     5    22       P1  7948  0.21
      L1  H     8    23       P1  7948  0.99
      L1  H    12    36       P1 10171  0.34
      P1  H  7989  7998       L1    16  0.95
      P1  H  7997  8008       L1    17  0.45

> <Gold.Chemscore.Hbond.Weighted>
-13.0331

> <Gold.Chemscore.Metal.Weighted>
-0.0000

> <Gold.Chemscore.Lipo.Weighted>
-7.5126

> <Gold.Chemscore.Internal_Hbond.Weighted>
0.0000

> <Gold.Chemscore.DEClash.Weighted>
4.4411

> <Gold.Chemscore.DEInternal.Weighted>
0.7433

> <Gold.Chemscore.Rot.Weighted>
2.5600

> <Gold.Chemscore.Internal.Correction.Weighted>
   9.000000E+99

> <Gold.Protein.RotatedTorsions>
[ 6907 6896 6895 6894 ] final -138.83 input  -60.11 | X-H torsion
[ 7974 7965 7964 7962 ] final   -0.97 input  175.53 | X-H torsion
[ 8008 7997 7996 7995 ] final  -42.94 input   59.86 | X-H torsion
[ 10167 10162 10161 10158 ] final   45.01 input  -65.29 | X-H torsion
[ 10718 10713 10712 10709 ] final -167.48 input   66.30 | X-H torsion
[ 10763 10752 10751 10750 ] final   48.22 input  -60.55 | X-H torsion
[ 11005 11000 10999 10996 ] final -128.45 input  -57.11 | X-H torsion

> <Gold.Protein.ActiveResidues>
 VAL166  LYS551  ARG553  GLY616  TRP617  ASP618  TYR619  PRO620  LYS621  CYS622 
 ASP623  PHE694  ASN695  SER759  ASP760  ASP761  ALA762  ILE779  LEU786  VAL792 
 PHE793  MET794  SER795  GLU796  ALA797  LYS798  CYS799  TRP800  GLU811  SER814 

> <Gold.Protein.RotatedAtoms>
  151.0400  133.5715  159.2651 H   0  0  0  0  0  0  0  0  0  0  0  0  # atno 6907 bound_to 6896
  151.2765  135.0700  159.9163 H   0  0  0  0  0  0  0  0  0  0  0  0  # atno 6908 bound_to 6896
  152.5362  134.0121  159.7997 H   0  0  0  0  0  0  0  0  0  0  0  0  # atno 6909 bound_to 6896
  146.2422  140.1350  142.8337 H   0  0  0  0  0  0  0  0  0  0  0  0  # atno 7974 bound_to 7965
  154.3997  140.1460  156.3436 H   0  0  0  0  0  0  0  0  0  0  0  0  # atno 8008 bound_to 7997
  155.8333  140.3465  155.5565 H   0  0  0  0  0  0  0  0  0  0  0  0  # atno 8009 bound_to 7997
  155.8165  140.0891  157.1864 H   0  0  0  0  0  0  0  0  0  0  0  0  # atno 8010 bound_to 7997
  140.3285  144.2618  150.6171 H   0  0  0  0  0  0  0  0  0  0  0  0  # atno 10167 bound_to 10162
  156.6830  130.9129  151.3059 H   0  0  0  0  0  0  0  0  0  0  0  0  # atno 10718 bound_to 10713
  152.9793  135.5951  154.3889 H   0  0  0  0  0  0  0  0  0  0  0  0  # atno 10763 bound_to 10752
  154.3547  135.2767  155.2355 H   0  0  0  0  0  0  0  0  0  0  0  0  # atno 10764 bound_to 10752
  154.4379  135.6020  153.6165 H   0  0  0  0  0  0  0  0  0  0  0  0  # atno 10765 bound_to 10752
  140.9515  134.1059  157.4057 H   0  0  0  0  0  0  0  0  0  0  0  0  # atno 11005 bound_to 11000
  145.0294  140.8859  143.5118 LP  0  0  0  0  0  0  0  0  0  0  0  0  # atno 17320 bound_to 7965
  145.1412  139.2571  143.5489 LP  0  0  0  0  0  0  0  0  0  0  0  0  # atno 17321 bound_to 7965
  140.5419  143.2222  151.8070 LP  0  0  0  0  0  0  0  0  0  0  0  0  # atno 17342 bound_to 10162
  139.4861  144.4589  151.9565 LP  0  0  0  0  0  0  0  0  0  0  0  0  # atno 17343 bound_to 10162
  157.7037  130.9361  150.0863 LP  0  0  0  0  0  0  0  0  0  0  0  0  # atno 17370 bound_to 10713
  156.1853  130.3652  149.8980 LP  0  0  0  0  0  0  0  0  0  0  0  0  # atno 17371 bound_to 10713
  139.8849  135.0067  156.6399 LP  0  0  0  0  0  0  0  0  0  0  0  0  # atno 17394 bound_to 11000
  140.7596  133.8829  155.8408 LP  0  0  0  0  0  0  0  0  0  0  0  0  # atno 17395 bound_to 11000

$$$$
