AV-unprocessed.smi:1359|AV-procd|sdf|5550|dock9
  -GOLD-   22720 5143D 1   1.00000     0.00000
 Structure written by MMmdl.
 34 35  0  0  0  0  0  0  0  0  1 V2000
  146.9750  142.3395  154.0498 C   0  0  0  0  0  0  0  0  0  0  0  0
  146.5747  140.8729  154.2414 C   0  0  0  0  0  0  0  0  0  0  0  0
  147.4615  139.9113  153.4337 C   0  0  0  0  0  0  0  0  0  0  0  0
  148.8563  139.9882  153.8521 N   0  0  0  0  0  0  0  0  0  0  0  0
  149.3096  139.6975  155.0820 C   0  0  0  0  0  0  0  0  0  0  0  0
  148.5790  139.3433  156.0071 O   0  0  0  0  0  0  0  0  0  0  0  0
  150.8171  139.8298  155.3075 C   0  0  0  0  0  0  0  0  0  0  0  0
  151.1078  140.8775  156.3440 C   0  0  0  0  0  0  0  0  0  0  0  0
  150.6970  142.1884  156.3319 C   0  0  0  0  0  0  0  0  0  0  0  0
  151.2562  143.0623  157.7314 S   0  0  0  0  0  0  0  0  0  0  0  0
  152.0542  141.5891  158.2902 C   0  0  0  0  0  0  0  0  0  0  0  0
  152.8250  141.4439  159.4819 N   0  0  0  0  0  0  0  0  0  0  0  0
  152.6616  142.3482  160.6160 C   0  0  0  0  0  0  0  0  0  0  0  0
  153.6492  141.8195  161.6514 C   0  0  0  0  0  0  0  0  0  0  0  0
  154.2396  140.6967  160.9619 N   0  0  0  0  0  0  0  0  0  0  0  0
  153.7564  140.5023  159.7329 C   0  0  0  0  0  0  0  0  0  0  0  0
  154.1283  139.6019  158.9827 O   0  0  0  0  0  0  0  0  0  0  0  0
  151.8814  140.5521  157.4633 N   0  0  0  0  0  0  0  0  0  0  0  0
  146.3320  142.9971  154.6350 H   0  0  0  0  0  0  0  0  0  0  0  0
  146.8928  142.6374  153.0041 H   0  0  0  0  0  0  0  0  0  0  0  0
  148.0037  142.5108  154.3681 H   0  0  0  0  0  0  0  0  0  0  0  0
  146.6296  140.6265  155.3024 H   0  0  0  0  0  0  0  0  0  0  0  0
  145.5320  140.7432  153.9492 H   0  0  0  0  0  0  0  0  0  0  0  0
  147.1220  138.8851  153.5767 H   0  0  0  0  0  0  0  0  0  0  0  0
  147.3795  140.1194  152.3656 H   0  0  0  0  0  0  0  0  0  0  0  0
  149.5286  140.2706  153.1532 H   0  0  0  0  0  0  0  0  0  0  0  0
  151.2170  138.8594  155.6053 H   0  0  0  0  0  0  0  0  0  0  0  0
  151.3025  140.0854  154.3647 H   0  0  0  0  0  0  0  0  0  0  0  0
  150.0962  142.6897  155.5874 H   0  0  0  0  0  0  0  0  0  0  0  0
  152.8970  143.3741  160.3289 H   0  0  0  0  0  0  0  0  0  0  0  0
  151.6373  142.3170  160.9902 H   0  0  0  0  0  0  0  0  0  0  0  0
  154.4104  142.5572  161.9074 H   0  0  0  0  0  0  0  0  0  0  0  0
  153.1507  141.4903  162.5637 H   0  0  0  0  0  0  0  0  0  0  0  0
  154.9537  140.1190  161.3818 H   0  0  0  0  0  0  0  0  0  0  0  0
  1  2  1  0  0  0  0
  1 19  1  0  0  0  0
  1 20  1  0  0  0  0
  1 21  1  0  0  0  0
  2  3  1  0  0  0  0
  2 22  1  0  0  0  0
  2 23  1  0  0  0  0
  3  4  1  0  0  0  0
  3 24  1  0  0  0  0
  3 25  1  0  0  0  0
  4  5  1  0  0  0  0
  4 26  1  0  0  0  0
  5  6  2  0  0  0  0
  5  7  1  0  0  0  0
  7  8  1  0  0  0  0
  7 27  1  0  0  0  0
  7 28  1  0  0  0  0
  8 18  1  0  0  0  0
  8  9  2  0  0  0  0
  9 10  1  0  0  0  0
  9 29  1  0  0  0  0
 10 11  1  0  0  0  0
 11 12  1  0  0  0  0
 11 18  2  0  0  0  0
 12 16  1  0  0  0  0
 12 13  1  0  0  0  0
 13 14  1  0  0  0  0
 13 30  1  0  0  0  0
 13 31  1  0  0  0  0
 14 15  1  0  0  0  0
 14 32  1  0  0  0  0
 14 33  1  0  0  0  0
 15 16  1  0  0  0  0
 15 34  1  0  0  0  0
 16 17  2  0  0  0  0
M  END
> <s_m_source_file>
AV-unprocessed.smi

> <i_m_source_file_index>
1359

> <i_lp_mmshare_version>
43012

> <i_f3d_flags>
0

> <s_epik_input>
W0NIM11bQ0gyXVtDSDJdW05IXUMoPU8pW0NIMl1jMVtjSF1zYyhuMSlOMltDSDJdW0NIMl1bTkhdQzI9Tw==

> <s_epik_cmdline>
J2VwaWtfcHl0aG9uJywgJy1waCcsICc3LjAnLCAnLXRuJywgJzgnLCAnLW1hJywgJzIwMCcsICctbWV0YWxfYmluZGluZycsICctaW1hZScsICc8aW5maWxlLm1hZT4nLCAnLW9tYWUnLCAnPG91dGZpbGUubWFlPic=

> <r_lp_tautomer_probability>
1

> <r_epik_Ionization_Penalty>
0.000119828

> <r_epik_Ionization_Penalty_Charging>
0

> <r_epik_Ionization_Penalty_Neutral>
0.000119828

> <r_epik_State_Penalty>
-0

> <r_epik_Charging_Adjusted_Penalty>
0

> <i_epik_Tot_Q>
0

> <i_epik_Tot_abs_Q>
0

> <r_epik_Metal_State_Penalty>
-0

> <b_epik_Metal_Only>
0

> <s_lp_Force_Field>
OPLS_2005

> <r_lp_Energy>
29.9012

> <b_lp_Chiralities_Consistent>
1

> <s_lp_Variant>
AV-unprocessed.smi:1359-1

> <Gold.Version>
5.8.1

> <Gold.Id.Protein>
6NUR|6NUR_protein|mol2

> <Gold.PLP.Fitness>
43.9869

> <Gold.PLP.PLP>
-36.3492

> <Gold.PLP.part.hbond>
-2.0000

> <Gold.PLP.part.metal>
0.0000

> <Gold.PLP.part.buried>
-4.1006

> <Gold.PLP.part.nonpolar>
-30.9907

> <Gold.PLP.part.repulsive>
0.1398

> <Gold.PLP.ligand.clash>
0.0000

> <Gold.PLP.ligand.torsion>
0.2401

> <Gold.PLP.Chemscore.Hbond>
1.7040

> <Gold.PLP.Chemscore.CHOScore>
1.0000

> <Gold.PLP.Chemscore.Metal>
0.0000

> <Gold.Chemscore.Hbonds>
donor molecule, donor type, donor heavy atom, donor atom, acceptor molecule, acceptor atom, score
      L1  H     4    26       P1  7957  0.67
      P1  H  7997  8010       L1    17  1.00
      L1  C     9    29       P1  8028  1.00

> <Gold.PLP.Chemscore.Internal.Correction>
0.0059

> <Gold.Rescore>
     Score         DG    S(hbond)    S(metal)    S(lipo)     H(rot)  DE(clash)    DE(int)     intcor
     13.86     -15.48       1.90        0.00      70.69       1.81       0.04       1.59       ----

> <Gold.Chemscore.Fitness>
13.8567

> <Gold.Chemscore.DG>
-15.4777

> <Gold.Chemscore.ZeroCoef>
-5.4800

> <Gold.Chemscore.Hbond>
1.9010

> <Gold.Chemscore.Metal>
0.0000

> <Gold.Chemscore.Lipo>
70.6917

> <Gold.Chemscore.Internal_Hbond>
0.0000

> <Gold.Chemscore.DEClash>
0.0354

> <Gold.Chemscore.DEInternal>
1.5856

> <Gold.Chemscore.Rot>
1.8057

> <Gold.Chemscore.Internal.Correction>
   9.000000E+99

> <Gold.Chemscore.Hbonds>
donor molecule, donor type, donor heavy atom, donor atom, acceptor molecule, acceptor atom, score
      L1  H     4    26       P1  7957  0.63
      P1  H  7997  8010       L1    17  0.97

> <Gold.Chemscore.Hbond.Weighted>
-6.3493

> <Gold.Chemscore.Metal.Weighted>
-0.0000

> <Gold.Chemscore.Lipo.Weighted>
-8.2709

> <Gold.Chemscore.Internal_Hbond.Weighted>
0.0000

> <Gold.Chemscore.DEClash.Weighted>
0.0354

> <Gold.Chemscore.DEInternal.Weighted>
1.5856

> <Gold.Chemscore.Rot.Weighted>
4.6226

> <Gold.Chemscore.Internal.Correction.Weighted>
   9.000000E+99

> <Gold.Protein.RotatedTorsions>
[ 6907 6896 6895 6894 ] final -176.66 input  -60.11 | X-H torsion
[ 7974 7965 7964 7962 ] final -152.71 input  175.53 | X-H torsion
[ 8008 7997 7996 7995 ] final    9.98 input   59.86 | X-H torsion
[ 10167 10162 10161 10158 ] final -110.87 input  -65.29 | X-H torsion
[ 10718 10713 10712 10709 ] final -107.54 input   66.30 | X-H torsion
[ 10763 10752 10751 10750 ] final  -41.46 input  -60.55 | X-H torsion
[ 11005 11000 10999 10996 ] final  -20.85 input  -57.11 | X-H torsion

> <Gold.Protein.ActiveResidues>
 VAL166  LYS551  ARG553  GLY616  TRP617  ASP618  TYR619  PRO620  LYS621  CYS622 
 ASP623  PHE694  ASN695  SER759  ASP760  ASP761  ALA762  ILE779  LEU786  VAL792 
 PHE793  MET794  SER795  GLU796  ALA797  LYS798  CYS799  TRP800  GLU811  SER814 

> <Gold.Protein.RotatedAtoms>
  151.6084  133.3349  159.3061 H   0  0  0  0  0  0  0  0  0  0  0  0  # atno 6907 bound_to 6896
  150.8170  134.7360  159.6750 H   0  0  0  0  0  0  0  0  0  0  0  0  # atno 6908 bound_to 6896
  152.4265  134.5863  160.0013 H   0  0  0  0  0  0  0  0  0  0  0  0  # atno 6909 bound_to 6896
  144.7779  140.4625  143.5860 H   0  0  0  0  0  0  0  0  0  0  0  0  # atno 7974 bound_to 7965
  154.7873  140.2829  155.6018 H   0  0  0  0  0  0  0  0  0  0  0  0  # atno 8008 bound_to 7997
  156.2959  140.2611  156.2640 H   0  0  0  0  0  0  0  0  0  0  0  0  # atno 8009 bound_to 7997
  154.9713  140.0376  157.2225 H   0  0  0  0  0  0  0  0  0  0  0  0  # atno 8010 bound_to 7997
  140.1398  143.4289  152.1570 H   0  0  0  0  0  0  0  0  0  0  0  0  # atno 10167 bound_to 10162
  156.0441  130.5667  150.7835 H   0  0  0  0  0  0  0  0  0  0  0  0  # atno 10718 bound_to 10713
  153.9628  135.6737  153.4745 H   0  0  0  0  0  0  0  0  0  0  0  0  # atno 10763 bound_to 10752
  153.0830  135.4913  154.8537 H   0  0  0  0  0  0  0  0  0  0  0  0  # atno 10764 bound_to 10752
  154.7263  135.3128  154.8926 H   0  0  0  0  0  0  0  0  0  0  0  0  # atno 10765 bound_to 10752
  140.8504  133.7861  155.9959 H   0  0  0  0  0  0  0  0  0  0  0  0  # atno 11005 bound_to 11000
  145.6132  139.1515  143.3064 LP  0  0  0  0  0  0  0  0  0  0  0  0  # atno 17320 bound_to 7965
  146.1971  140.6247  142.9119 LP  0  0  0  0  0  0  0  0  0  0  0  0  # atno 17321 bound_to 7965
  139.5478  144.7313  151.4530 LP  0  0  0  0  0  0  0  0  0  0  0  0  # atno 17342 bound_to 10162
  140.6767  143.8173  150.7068 LP  0  0  0  0  0  0  0  0  0  0  0  0  # atno 17343 bound_to 10162
  157.5296  131.0936  150.9972 LP  0  0  0  0  0  0  0  0  0  0  0  0  # atno 17370 bound_to 10713
  157.0282  130.5701  149.5340 LP  0  0  0  0  0  0  0  0  0  0  0  0  # atno 17371 bound_to 10713
  140.8796  134.2627  157.5150 LP  0  0  0  0  0  0  0  0  0  0  0  0  # atno 17394 bound_to 11000
  139.8704  134.9608  156.4377 LP  0  0  0  0  0  0  0  0  0  0  0  0  # atno 17395 bound_to 11000

$$$$
