AV-unprocessed.smi:396|AV-procd|sdf|2487|dock2
  -GOLD-   2262022433D 1   1.00000     0.00000
 Structure written by MMmdl.
 40 42  0  0  0  0  0  0  0  0  1 V2000
  155.2412  140.6573  161.7462 N   0  0  0  0  0  0  0  0  0  0  0  0
  154.4465  141.0228  160.9883 C   0  0  0  0  0  0  0  0  0  0  0  0
  153.4793  141.5016  160.0573 C   0  0  0  0  0  0  0  0  0  0  0  0
  152.8734  142.6966  160.2133 C   0  0  0  0  0  0  0  0  0  0  0  0
  151.9458  143.1796  159.3163 N   0  0  0  0  0  0  0  0  0  0  0  0
  151.2158  144.3894  159.5709 C   0  0  0  0  0  0  0  0  0  0  0  0
  151.8775  145.7386  159.3667 C   0  0  0  0  0  0  0  0  0  0  0  0
  151.5974  145.2399  160.7631 C   0  0  0  0  0  0  0  0  0  0  0  0
  151.5291  142.3831  158.2275 C   0  0  0  0  0  0  0  0  0  0  0  0
  150.6410  142.7642  157.4607 O   0  0  0  0  0  0  0  0  0  0  0  0
  152.1636  141.1307  158.0419 N   0  0  0  0  0  0  0  0  0  0  0  0
  151.7887  140.3160  156.8652 C   0  0  0  0  0  0  0  0  0  0  0  0
  150.2765  140.0716  156.7487 C   0  0  0  0  0  0  0  0  0  0  0  0
  149.6373  139.5791  157.6800 O   0  0  0  0  0  0  0  0  0  0  0  0
  149.7140  140.4336  155.5861 N   0  0  0  0  0  0  0  0  0  0  0  0
  148.2964  140.2948  155.2633 C   0  0  0  0  0  0  0  0  0  0  0  0
  147.9805  140.9586  153.9106 C   0  0  0  0  0  0  0  0  0  0  0  0
  147.1827  142.2212  154.2377 C   0  0  0  0  0  0  0  0  0  0  0  0
  146.4189  141.8589  155.5073 C   0  0  0  0  0  0  0  0  0  0  0  0
  147.4000  140.9977  156.3043 C   0  0  0  0  0  0  0  0  0  0  0  0
  153.1644  140.6407  158.9195 C   0  0  0  0  0  0  0  0  0  0  0  0
  153.7164  139.5586  158.7129 O   0  0  0  0  0  0  0  0  0  0  0  0
  153.1297  143.3048  161.0689 H   0  0  0  0  0  0  0  0  0  0  0  0
  150.1520  144.3453  159.3438 H   0  0  0  0  0  0  0  0  0  0  0  0
  152.9176  145.7595  159.0467 H   0  0  0  0  0  0  0  0  0  0  0  0
  151.2573  146.5474  158.9862 H   0  0  0  0  0  0  0  0  0  0  0  0
  150.7913  145.7178  161.3158 H   0  0  0  0  0  0  0  0  0  0  0  0
  152.4527  144.9315  161.3613 H   0  0  0  0  0  0  0  0  0  0  0  0
  152.1336  140.7782  155.9389 H   0  0  0  0  0  0  0  0  0  0  0  0
  152.2983  139.3511  156.8825 H   0  0  0  0  0  0  0  0  0  0  0  0
  150.3081  140.8320  154.8735 H   0  0  0  0  0  0  0  0  0  0  0  0
  148.0434  139.2345  155.2017 H   0  0  0  0  0  0  0  0  0  0  0  0
  148.8683  141.1765  153.3153 H   0  0  0  0  0  0  0  0  0  0  0  0
  147.3574  140.2864  153.3188 H   0  0  0  0  0  0  0  0  0  0  0  0
  147.8662  143.0464  154.4427 H   0  0  0  0  0  0  0  0  0  0  0  0
  146.5251  142.5255  153.4230 H   0  0  0  0  0  0  0  0  0  0  0  0
  146.0832  142.7356  156.0619 H   0  0  0  0  0  0  0  0  0  0  0  0
  145.5379  141.2697  155.2491 H   0  0  0  0  0  0  0  0  0  0  0  0
  146.8856  140.2858  156.9504 H   0  0  0  0  0  0  0  0  0  0  0  0
  147.9950  141.6456  156.9506 H   0  0  0  0  0  0  0  0  0  0  0  0
  1  2  3  0  0  0  0
  2  3  1  0  0  0  0
  3 21  1  0  0  0  0
  3  4  2  0  0  0  0
  4  5  1  0  0  0  0
  4 23  1  0  0  0  0
  5  6  1  0  0  0  0
  5  9  1  0  0  0  0
  6  8  1  0  0  0  0
  6  7  1  0  0  0  0
  6 24  1  0  0  0  0
  7  8  1  0  0  0  0
  7 25  1  0  0  0  0
  7 26  1  0  0  0  0
  8 27  1  0  0  0  0
  8 28  1  0  0  0  0
  9 10  2  0  0  0  0
  9 11  1  0  0  0  0
 11 12  1  0  0  0  0
 11 21  1  0  0  0  0
 12 13  1  0  0  0  0
 12 29  1  0  0  0  0
 12 30  1  0  0  0  0
 13 14  2  0  0  0  0
 13 15  1  0  0  0  0
 15 16  1  0  0  0  0
 15 31  1  0  0  0  0
 16 20  1  0  0  0  0
 16 17  1  0  0  0  0
 16 32  1  0  0  0  0
 17 18  1  0  0  0  0
 17 33  1  0  0  0  0
 17 34  1  0  0  0  0
 18 19  1  0  0  0  0
 18 35  1  0  0  0  0
 18 36  1  0  0  0  0
 19 20  1  0  0  0  0
 19 37  1  0  0  0  0
 19 38  1  0  0  0  0
 20 39  1  0  0  0  0
 20 40  1  0  0  0  0
 21 22  2  0  0  0  0
M  END
> <s_m_source_file>
AV-unprocessed.smi

> <i_m_source_file_index>
396

> <i_lp_mmshare_version>
43012

> <i_f3d_flags>
0

> <s_epik_input>
TiNDYzFbY0hdbihbQ0hdMltDSDJdW0NIMl0yKWMoPU8pbihjMT1PKVtDSDJdQyg9TylbTkhdW0NIXTNbQ0gyXVtDSDJdW0NIMl1bQ0gyXTM=

> <s_epik_cmdline>
J2VwaWtfcHl0aG9uJywgJy1waCcsICc3LjAnLCAnLXRuJywgJzgnLCAnLW1hJywgJzIwMCcsICctbWV0YWxfYmluZGluZycsICctaW1hZScsICc8aW5maWxlLm1hZT4nLCAnLW9tYWUnLCAnPG91dGZpbGUubWFlPic=

> <r_lp_tautomer_probability>
1

> <r_epik_Ionization_Penalty>
1.93885e-08

> <r_epik_Ionization_Penalty_Charging>
8.67893e-11

> <r_epik_Ionization_Penalty_Neutral>
1.93017e-08

> <r_epik_State_Penalty>
-0

> <r_epik_Charging_Adjusted_Penalty>
8.67893e-11

> <i_epik_Tot_Q>
0

> <i_epik_Tot_abs_Q>
0

> <r_epik_Metal_State_Penalty>
-0

> <b_epik_Metal_Only>
0

> <s_lp_Force_Field>
OPLS_2005

> <r_lp_Energy>
43.3866

> <b_lp_Chiralities_Consistent>
1

> <s_lp_Variant>
AV-unprocessed.smi:396-1

> <Gold.Version>
5.8.1

> <Gold.Id.Protein>
6NUR|6NUR_protein|mol2

> <Gold.PLP.Fitness>
45.9826

> <Gold.PLP.PLP>
-43.3575

> <Gold.PLP.part.hbond>
-2.0000

> <Gold.PLP.part.metal>
0.0000

> <Gold.PLP.part.buried>
-3.0980

> <Gold.PLP.part.nonpolar>
-39.2228

> <Gold.PLP.part.repulsive>
0.2390

> <Gold.PLP.ligand.clash>
0.0000

> <Gold.PLP.ligand.torsion>
0.2876

> <Gold.PLP.Chemscore.Hbond>
1.0000

> <Gold.PLP.Chemscore.CHOScore>
0.0000

> <Gold.PLP.Chemscore.Metal>
0.0000

> <Gold.Chemscore.Hbonds>
donor molecule, donor type, donor heavy atom, donor atom, acceptor molecule, acceptor atom, score
      P1  H  7997  8009       L1    22  1.00

> <Gold.PLP.Chemscore.Internal.Correction>
0.2002

> <Gold.Rescore>
     Score         DG    S(hbond)    S(metal)    S(lipo)     H(rot)  DE(clash)    DE(int)     intcor
      9.87     -11.69       0.12        0.00      88.33       1.76       0.31       1.52       ----

> <Gold.Chemscore.Fitness>
9.8687

> <Gold.Chemscore.DG>
-11.6925

> <Gold.Chemscore.ZeroCoef>
-5.4800

> <Gold.Chemscore.Hbond>
0.1170

> <Gold.Chemscore.Metal>
0.0000

> <Gold.Chemscore.Lipo>
88.3277

> <Gold.Chemscore.Internal_Hbond>
0.0000

> <Gold.Chemscore.DEClash>
0.3061

> <Gold.Chemscore.DEInternal>
1.5177

> <Gold.Chemscore.Rot>
1.7627

> <Gold.Chemscore.Internal.Correction>
   9.000000E+99

> <Gold.Chemscore.Hbonds>
donor molecule, donor type, donor heavy atom, donor atom, acceptor molecule, acceptor atom, score
      P1  H  7997  8009       L1    22  0.34

> <Gold.Chemscore.Hbond.Weighted>
-0.3907

> <Gold.Chemscore.Metal.Weighted>
-0.0000

> <Gold.Chemscore.Lipo.Weighted>
-10.3343

> <Gold.Chemscore.Internal_Hbond.Weighted>
0.0000

> <Gold.Chemscore.DEClash.Weighted>
0.3061

> <Gold.Chemscore.DEInternal.Weighted>
1.5177

> <Gold.Chemscore.Rot.Weighted>
4.5126

> <Gold.Chemscore.Internal.Correction.Weighted>
   9.000000E+99

> <Gold.Protein.RotatedTorsions>
[ 6907 6896 6895 6894 ] final   55.87 input  -60.11 | X-H torsion
[ 7974 7965 7964 7962 ] final  -28.96 input  175.53 | X-H torsion
[ 8008 7997 7996 7995 ] final  127.76 input   59.86 | X-H torsion
[ 10167 10162 10161 10158 ] final   16.52 input  -65.29 | X-H torsion
[ 10718 10713 10712 10709 ] final -110.32 input   66.30 | X-H torsion
[ 10763 10752 10751 10750 ] final   81.81 input  -60.55 | X-H torsion
[ 11005 11000 10999 10996 ] final  145.70 input  -57.11 | X-H torsion

> <Gold.Protein.ActiveResidues>
 VAL166  LYS551  ARG553  GLY616  TRP617  ASP618  TYR619  PRO620  LYS621  CYS622 
 ASP623  PHE694  ASN695  SER759  ASP760  ASP761  ALA762  ILE779  LEU786  VAL792 
 PHE793  MET794  SER795  GLU796  ALA797  LYS798  CYS799  TRP800  GLU811  SER814 

> <Gold.Protein.RotatedAtoms>
  152.3581  134.6911  160.0215 H   0  0  0  0  0  0  0  0  0  0  0  0  # atno 6907 bound_to 6896
  151.7243  133.3310  159.3331 H   0  0  0  0  0  0  0  0  0  0  0  0  # atno 6908 bound_to 6896
  150.7585  134.6354  159.6253 H   0  0  0  0  0  0  0  0  0  0  0  0  # atno 6909 bound_to 6896
  146.1251  140.5350  142.8718 H   0  0  0  0  0  0  0  0  0  0  0  0  # atno 7974 bound_to 7965
  156.2898  140.2661  156.2325 H   0  0  0  0  0  0  0  0  0  0  0  0  # atno 8008 bound_to 7997
  155.0058  140.0387  157.2397 H   0  0  0  0  0  0  0  0  0  0  0  0  # atno 8009 bound_to 7997
  154.7561  140.2752  155.6257 H   0  0  0  0  0  0  0  0  0  0  0  0  # atno 8010 bound_to 7997
  140.5791  143.9015  150.6775 H   0  0  0  0  0  0  0  0  0  0  0  0  # atno 10167 bound_to 10162
  156.0584  130.5809  150.8220 H   0  0  0  0  0  0  0  0  0  0  0  0  # atno 10718 bound_to 10713
  153.1148  135.4752  154.9097 H   0  0  0  0  0  0  0  0  0  0  0  0  # atno 10763 bound_to 10752
  154.7517  135.3108  154.8547 H   0  0  0  0  0  0  0  0  0  0  0  0  # atno 10764 bound_to 10752
  153.9126  135.6863  153.4804 H   0  0  0  0  0  0  0  0  0  0  0  0  # atno 10765 bound_to 10752
  140.0733  134.9139  157.1381 H   0  0  0  0  0  0  0  0  0  0  0  0  # atno 11005 bound_to 11000
  144.7634  140.5475  143.6720 LP  0  0  0  0  0  0  0  0  0  0  0  0  # atno 17320 bound_to 7965
  145.5383  139.1475  143.3461 LP  0  0  0  0  0  0  0  0  0  0  0  0  # atno 17321 bound_to 7965
  140.2510  143.3593  152.1405 LP  0  0  0  0  0  0  0  0  0  0  0  0  # atno 17342 bound_to 10162
  139.5159  144.6970  151.5602 LP  0  0  0  0  0  0  0  0  0  0  0  0  # atno 17343 bound_to 10162
  157.5573  131.0945  150.9610 LP  0  0  0  0  0  0  0  0  0  0  0  0  # atno 17370 bound_to 10713
  156.9855  130.5543  149.5299 LP  0  0  0  0  0  0  0  0  0  0  0  0  # atno 17371 bound_to 10713
  140.3595  134.2510  155.7189 LP  0  0  0  0  0  0  0  0  0  0  0  0  # atno 17394 bound_to 11000
  141.2020  133.7949  157.0413 LP  0  0  0  0  0  0  0  0  0  0  0  0  # atno 17395 bound_to 11000

$$$$
