AV-unprocessed.smi:1446|AV-procd|sdf|5890|dock8
  -GOLD-   22720 5573D 1   1.00000     0.00000
 Structure written by MMmdl.
 47 48  0  0  0  0  0  0  0  0  1 V2000
  152.5090  130.2219  155.4335 C   0  0  0  0  0  0  0  0  0  0  0  0
  151.1249  130.8178  155.6650 C   0  0  0  0  0  0  0  0  0  0  0  0
  150.1620  130.0820  155.8796 O   0  0  0  0  0  0  0  0  0  0  0  0
  151.0400  132.1565  155.6164 N   0  0  0  0  0  0  0  0  0  0  0  0
  149.8181  132.9390  155.8168 C   0  0  1  0  0  0  0  0  0  0  0  0
  150.1161  134.0880  156.8001 C   0  0  0  0  0  0  0  0  0  0  0  0
  149.8009  133.9800  157.9867 O   0  0  0  0  0  0  0  0  0  0  0  0
  150.7397  135.1573  156.2701 N   0  0  0  0  0  0  0  0  0  0  0  0
  151.1798  136.3362  156.9274 C   0  0  0  0  0  0  0  0  0  0  0  0
  151.5630  137.3904  156.0721 C   0  0  0  0  0  0  0  0  0  0  0  0
  152.0284  138.5977  156.6262 C   0  0  0  0  0  0  0  0  0  0  0  0
  152.1089  138.7386  158.0299 C   0  0  0  0  0  0  0  0  0  0  0  0
  152.5792  139.9392  158.6054 N   0  0  0  0  0  0  0  0  0  0  0  0
  151.6730  141.0830  158.6509 C   0  0  0  0  0  0  0  0  0  0  0  0
  152.4421  142.3618  159.0241 C   0  0  0  0  0  0  0  0  0  0  0  0
  153.1363  142.1627  160.2509 O   0  0  0  0  0  0  0  0  0  0  0  0
  154.0952  141.1151  160.1514 C   0  0  0  0  0  0  0  0  0  0  0  0
  153.3888  139.7905  159.8127 C   0  0  0  0  0  0  0  0  0  0  0  0
  151.6918  137.6275  158.8029 C   0  0  0  0  0  0  0  0  0  0  0  0
  151.2467  136.4686  158.2736 N   0  0  0  0  0  0  0  0  0  0  0  0
  149.3611  133.5170  154.4442 C   0  0  0  0  0  0  0  0  0  0  0  0
  148.1847  134.5084  154.5645 C   0  0  0  0  0  0  0  0  0  0  0  0
  148.9779  132.4015  153.4516 C   0  0  0  0  0  0  0  0  0  0  0  0
  153.2188  130.6120  156.1634 H   0  0  0  0  0  0  0  0  0  0  0  0
  152.8680  130.4702  154.4343 H   0  0  0  0  0  0  0  0  0  0  0  0
  152.4847  129.1359  155.5278 H   0  0  0  0  0  0  0  0  0  0  0  0
  151.8866  132.6780  155.4409 H   0  0  0  0  0  0  0  0  0  0  0  0
  149.0319  132.2963  156.2191 H   0  0  0  0  0  0  0  0  0  0  0  0
  150.9308  135.1148  155.2798 H   0  0  0  0  0  0  0  0  0  0  0  0
  151.5030  137.2807  154.9991 H   0  0  0  0  0  0  0  0  0  0  0  0
  152.3075  139.4060  155.9667 H   0  0  0  0  0  0  0  0  0  0  0  0
  151.1914  141.2222  157.6828 H   0  0  0  0  0  0  0  0  0  0  0  0
  150.8895  140.8946  159.3860 H   0  0  0  0  0  0  0  0  0  0  0  0
  153.1449  142.6373  158.2358 H   0  0  0  0  0  0  0  0  0  0  0  0
  151.7500  143.1960  159.1391 H   0  0  0  0  0  0  0  0  0  0  0  0
  154.8419  141.3615  159.3946 H   0  0  0  0  0  0  0  0  0  0  0  0
  154.6232  141.0262  161.1008 H   0  0  0  0  0  0  0  0  0  0  0  0
  152.7388  139.4945  160.6372 H   0  0  0  0  0  0  0  0  0  0  0  0
  154.1385  139.0080  159.7037 H   0  0  0  0  0  0  0  0  0  0  0  0
  151.7220  137.6422  159.8817 H   0  0  0  0  0  0  0  0  0  0  0  0
  150.1974  134.0626  154.0032 H   0  0  0  0  0  0  0  0  0  0  0  0
  147.3247  134.0434  155.0473 H   0  0  0  0  0  0  0  0  0  0  0  0
  147.8638  134.8558  153.5821 H   0  0  0  0  0  0  0  0  0  0  0  0
  148.4500  135.3969  155.1377 H   0  0  0  0  0  0  0  0  0  0  0  0
  148.1669  131.7869  153.8437 H   0  0  0  0  0  0  0  0  0  0  0  0
  149.8182  131.7430  153.2319 H   0  0  0  0  0  0  0  0  0  0  0  0
  148.6463  132.8183  152.5001 H   0  0  0  0  0  0  0  0  0  0  0  0
  1  2  1  0  0  0  0
  1 24  1  0  0  0  0
  1 25  1  0  0  0  0
  1 26  1  0  0  0  0
  2  3  2  0  0  0  0
  2  4  1  0  0  0  0
  4  5  1  0  0  0  0
  4 27  1  0  0  0  0
  5  6  1  0  0  0  0
  5 21  1  0  0  0  0
  5 28  1  0  0  0  0
  6  7  2  0  0  0  0
  6  8  1  0  0  0  0
  8  9  1  0  0  0  0
  8 29  1  0  0  0  0
  9 20  1  0  0  0  0
  9 10  2  0  0  0  0
 10 11  1  0  0  0  0
 10 30  1  0  0  0  0
 11 12  2  0  0  0  0
 11 31  1  0  0  0  0
 12 13  1  0  0  0  0
 12 19  1  0  0  0  0
 13 18  1  0  0  0  0
 13 14  1  0  0  0  0
 14 15  1  0  0  0  0
 14 32  1  0  0  0  0
 14 33  1  0  0  0  0
 15 16  1  0  0  0  0
 15 34  1  0  0  0  0
 15 35  1  0  0  0  0
 16 17  1  0  0  0  0
 17 18  1  0  0  0  0
 17 36  1  0  0  0  0
 17 37  1  0  0  0  0
 18 38  1  0  0  0  0
 18 39  1  0  0  0  0
 19 20  2  0  0  0  0
 19 40  1  0  0  0  0
 21 22  1  0  0  0  0
 21 23  1  0  0  0  0
 21 41  1  0  0  0  0
 22 42  1  0  0  0  0
 22 43  1  0  0  0  0
 22 44  1  0  0  0  0
 23 45  1  0  0  0  0
 23 46  1  0  0  0  0
 23 47  1  0  0  0  0
M  END
> <s_m_source_file>
AV-unprocessed.smi

> <i_m_source_file_index>
1446

> <i_lp_mmshare_version>
43012

> <i_f3d_flags>
0

> <s_epik_input>
W0NIM11DKD1PKVtOSF1bQ0BASF0oW0NIXShbQ0gzXSlbQ0gzXSlDKD1PKVtOSF1jMVtjSF1bY0hdYyhbY0hdbjEpTjJbQ0gyXVtDSDJdT1tDSDJdW0NIMl0y

> <s_epik_cmdline>
J2VwaWtfcHl0aG9uJywgJy1waCcsICc3LjAnLCAnLXRuJywgJzgnLCAnLW1hJywgJzIwMCcsICctbWV0YWxfYmluZGluZycsICctaW1hZScsICc8aW5maWxlLm1hZT4nLCAnLW9tYWUnLCAnPG91dGZpbGUubWFlPic=

> <r_lp_tautomer_probability>
1

> <r_epik_Ionization_Penalty>
0.00298315

> <r_epik_Ionization_Penalty_Charging>
0

> <r_epik_Ionization_Penalty_Neutral>
0.00298315

> <r_epik_State_Penalty>
0.0038483

> <r_epik_Charging_Adjusted_Penalty>
0.0038483

> <i_epik_Tot_Q>
0

> <i_epik_Tot_abs_Q>
0

> <r_epik_Metal_State_Penalty>
-0

> <b_epik_Metal_Only>
0

> <s_lp_Force_Field>
OPLS_2005

> <r_lp_Energy>
27.8209

> <b_lp_Chiralities_Consistent>
1

> <s_lp_Variant>
AV-unprocessed.smi:1446-2

> <Gold.Version>
5.8.1

> <Gold.Id.Protein>
6NUR|6NUR_protein|mol2

> <Gold.PLP.Fitness>
34.6587

> <Gold.PLP.PLP>
-32.6669

> <Gold.PLP.part.hbond>
-2.0000

> <Gold.PLP.part.metal>
0.0000

> <Gold.PLP.part.buried>
-5.8322

> <Gold.PLP.part.nonpolar>
-25.6382

> <Gold.PLP.part.repulsive>
0.1791

> <Gold.PLP.ligand.clash>
0.0000

> <Gold.PLP.ligand.torsion>
1.3398

> <Gold.PLP.Chemscore.Hbond>
1.4319

> <Gold.PLP.Chemscore.CHOScore>
0.0000

> <Gold.PLP.Chemscore.Metal>
0.0000

> <Gold.Chemscore.Hbonds>
donor molecule, donor type, donor heavy atom, donor atom, acceptor molecule, acceptor atom, score
      P1  H  6896  6907       L1    20  0.43
      P1  H  6896  6909       L1     7  0.99

> <Gold.PLP.Chemscore.Internal.Correction>
0.3757

> <Gold.Rescore>
     Score         DG    S(hbond)    S(metal)    S(lipo)     H(rot)  DE(clash)    DE(int)     intcor
     12.00     -14.60       1.24        0.00      80.57       1.74       0.00       2.60       ----

> <Gold.Chemscore.Fitness>
11.9990

> <Gold.Chemscore.DG>
-14.5970

> <Gold.Chemscore.ZeroCoef>
-5.4800

> <Gold.Chemscore.Hbond>
1.2405

> <Gold.Chemscore.Metal>
0.0000

> <Gold.Chemscore.Lipo>
80.5694

> <Gold.Chemscore.Internal_Hbond>
0.0000

> <Gold.Chemscore.DEClash>
0.0000

> <Gold.Chemscore.DEInternal>
2.5981

> <Gold.Chemscore.Rot>
1.7394

> <Gold.Chemscore.Internal.Correction>
   9.000000E+99

> <Gold.Chemscore.Hbonds>
donor molecule, donor type, donor heavy atom, donor atom, acceptor molecule, acceptor atom, score
      P1  H  6896  6907       L1    20  0.13
      P1  H  6896  6909       L1     7  0.93

> <Gold.Chemscore.Hbond.Weighted>
-4.1432

> <Gold.Chemscore.Metal.Weighted>
-0.0000

> <Gold.Chemscore.Lipo.Weighted>
-9.4266

> <Gold.Chemscore.Internal_Hbond.Weighted>
0.0000

> <Gold.Chemscore.DEClash.Weighted>
0.0000

> <Gold.Chemscore.DEInternal.Weighted>
2.5981

> <Gold.Chemscore.Rot.Weighted>
4.4528

> <Gold.Chemscore.Internal.Correction.Weighted>
   9.000000E+99

> <Gold.Protein.RotatedTorsions>
[ 6907 6896 6895 6894 ] final   -5.82 input  -60.11 | X-H torsion
[ 7974 7965 7964 7962 ] final -169.96 input  175.53 | X-H torsion
[ 8008 7997 7996 7995 ] final   44.70 input   59.86 | X-H torsion
[ 10167 10162 10161 10158 ] final   28.98 input  -65.29 | X-H torsion
[ 10718 10713 10712 10709 ] final  -65.42 input   66.30 | X-H torsion
[ 10763 10752 10751 10750 ] final   21.39 input  -60.55 | X-H torsion
[ 11005 11000 10999 10996 ] final   74.03 input  -57.11 | X-H torsion

> <Gold.Protein.ActiveResidues>
 VAL166  LYS551  ARG553  GLY616  TRP617  ASP618  TYR619  PRO620  LYS621  CYS622 
 ASP623  PHE694  ASN695  SER759  ASP760  ASP761  ALA762  ILE779  LEU786  VAL792 
 PHE793  MET794  SER795  GLU796  ALA797  LYS798  CYS799  TRP800  GLU811  SER814 

> <Gold.Protein.RotatedAtoms>
  151.4754  135.1048  159.9762 H   0  0  0  0  0  0  0  0  0  0  0  0  # atno 6907 bound_to 6896
  152.4800  133.8227  159.7072 H   0  0  0  0  0  0  0  0  0  0  0  0  # atno 6908 bound_to 6896
  150.8865  133.7240  159.2943 H   0  0  0  0  0  0  0  0  0  0  0  0  # atno 6909 bound_to 6896
  144.7177  140.2143  143.6323 H   0  0  0  0  0  0  0  0  0  0  0  0  # atno 7974 bound_to 7965
  155.3237  140.3398  155.4240 H   0  0  0  0  0  0  0  0  0  0  0  0  # atno 8008 bound_to 7997
  156.1896  140.1693  156.8155 H   0  0  0  0  0  0  0  0  0  0  0  0  # atno 8009 bound_to 7997
  154.5426  140.0721  156.8519 H   0  0  0  0  0  0  0  0  0  0  0  0  # atno 8010 bound_to 7997
  140.4806  144.0622  150.6264 H   0  0  0  0  0  0  0  0  0  0  0  0  # atno 10167 bound_to 10162
  156.0670  130.4247  150.1562 H   0  0  0  0  0  0  0  0  0  0  0  0  # atno 10718 bound_to 10713
  153.0999  135.6670  153.9692 H   0  0  0  0  0  0  0  0  0  0  0  0  # atno 10763 bound_to 10752
  153.9266  135.3008  155.3448 H   0  0  0  0  0  0  0  0  0  0  0  0  # atno 10764 bound_to 10752
  154.7419  135.5075  153.9213 H   0  0  0  0  0  0  0  0  0  0  0  0  # atno 10765 bound_to 10752
  139.9411  134.7398  156.1098 H   0  0  0  0  0  0  0  0  0  0  0  0  # atno 11005 bound_to 11000
  145.8561  139.2199  143.1744 LP  0  0  0  0  0  0  0  0  0  0  0  0  # atno 17320 bound_to 7965
  146.0216  140.8342  142.9920 LP  0  0  0  0  0  0  0  0  0  0  0  0  # atno 17321 bound_to 7965
  140.3863  143.2776  152.0112 LP  0  0  0  0  0  0  0  0  0  0  0  0  # atno 17342 bound_to 10162
  139.4833  144.6114  151.7427 LP  0  0  0  0  0  0  0  0  0  0  0  0  # atno 17343 bound_to 10162
  156.9620  130.9808  151.3477 LP  0  0  0  0  0  0  0  0  0  0  0  0  # atno 17370 bound_to 10713
  157.5718  130.8316  149.8402 LP  0  0  0  0  0  0  0  0  0  0  0  0  # atno 17371 bound_to 10713
  141.1045  133.6665  156.2832 LP  0  0  0  0  0  0  0  0  0  0  0  0  # atno 17394 bound_to 11000
  140.5950  134.5612  157.5507 LP  0  0  0  0  0  0  0  0  0  0  0  0  # atno 17395 bound_to 11000

$$$$
