AV-unprocessed.smi:2787|AV-procd|sdf|10756|dock3
  -GOLD-   2272015183D 1   1.00000     0.00000
 Structure written by MMmdl.
 35 36  0  0  0  0  0  0  0  0  1 V2000
  150.2540  140.0886  153.8398 O   0  0  0  0  0  0  0  0  0  0  0  0
  149.5314  139.6372  154.9662 C   0  0  0  0  0  0  0  0  0  0  0  0
  149.7188  140.6008  156.1465 C   0  0  0  0  0  0  0  0  0  0  0  0
  151.1899  140.7642  156.5654 C   0  0  0  0  0  0  0  0  0  0  0  0
  151.3867  141.8600  157.5716 C   0  0  0  0  0  0  0  0  0  0  0  0
  151.0508  143.1203  157.2939 N   0  0  0  0  0  0  0  0  0  0  0  0
  151.3705  143.7872  158.4594 C   0  0  0  0  0  0  0  0  0  0  0  0
  151.2453  145.1534  158.7983 C   0  0  0  0  0  0  0  0  0  0  0  0
  151.6423  145.6121  160.0713 C   0  0  0  0  0  0  0  0  0  0  0  0
  152.1679  144.7131  161.0216 C   0  0  0  0  0  0  0  0  0  0  0  0
  152.3015  143.3478  160.7035 C   0  0  0  0  0  0  0  0  0  0  0  0
  151.9052  142.8945  159.4305 C   0  0  0  0  0  0  0  0  0  0  0  0
  151.9038  141.6474  158.8104 N   0  0  0  0  0  0  0  0  0  0  0  0
  152.3770  140.4002  159.4010 C   0  0  0  0  0  0  0  0  0  0  0  0
  153.9137  140.2685  159.3840 C   0  0  2  0  0  0  0  0  0  0  0  0
  154.2885  139.2095  158.5229 O   0  0  0  0  0  0  0  0  0  0  0  0
  154.5090  140.0238  160.7838 C   0  0  0  0  0  0  0  0  0  0  0  0
  154.1000  138.8467  161.2578 F   0  0  0  0  0  0  0  0  0  0  0  0
  155.8391  139.9935  160.6996 F   0  0  0  0  0  0  0  0  0  0  0  0
  154.1579  140.9929  161.6300 F   0  0  0  0  0  0  0  0  0  0  0  0
  149.6949  140.0281  153.0802 H   0  0  0  0  0  0  0  0  0  0  0  0
  148.4764  139.5381  154.7085 H   0  0  0  0  0  0  0  0  0  0  0  0
  149.8934  138.6440  155.2330 H   0  0  0  0  0  0  0  0  0  0  0  0
  149.3210  141.5772  155.8675 H   0  0  0  0  0  0  0  0  0  0  0  0
  149.1186  140.2637  156.9916 H   0  0  0  0  0  0  0  0  0  0  0  0
  151.5771  139.8219  156.9479 H   0  0  0  0  0  0  0  0  0  0  0  0
  151.7942  140.9964  155.6876 H   0  0  0  0  0  0  0  0  0  0  0  0
  150.8428  145.8495  158.0775 H   0  0  0  0  0  0  0  0  0  0  0  0
  151.5420  146.6586  160.3198 H   0  0  0  0  0  0  0  0  0  0  0  0
  152.4682  145.0722  161.9951 H   0  0  0  0  0  0  0  0  0  0  0  0
  152.7019  142.6582  161.4317 H   0  0  0  0  0  0  0  0  0  0  0  0
  151.9908  140.3185  160.4163 H   0  0  0  0  0  0  0  0  0  0  0  0
  151.9299  139.5698  158.8542 H   0  0  0  0  0  0  0  0  0  0  0  0
  154.3478  141.1840  158.9843 H   0  0  0  0  0  0  0  0  0  0  0  0
  154.8405  138.6128  159.0049 H   0  0  0  0  0  0  0  0  0  0  0  0
  1  2  1  0  0  0  0
  1 21  1  0  0  0  0
  2  3  1  0  0  0  0
  2 22  1  0  0  0  0
  2 23  1  0  0  0  0
  3  4  1  0  0  0  0
  3 24  1  0  0  0  0
  3 25  1  0  0  0  0
  4  5  1  0  0  0  0
  4 26  1  0  0  0  0
  4 27  1  0  0  0  0
  5 13  1  0  0  0  0
  5  6  2  0  0  0  0
  6  7  1  0  0  0  0
  7 12  2  0  0  0  0
  7  8  1  0  0  0  0
  8  9  2  0  0  0  0
  8 28  1  0  0  0  0
  9 10  1  0  0  0  0
  9 29  1  0  0  0  0
 10 11  2  0  0  0  0
 10 30  1  0  0  0  0
 11 12  1  0  0  0  0
 11 31  1  0  0  0  0
 12 13  1  0  0  0  0
 13 14  1  0  0  0  0
 14 15  1  0  0  0  0
 14 32  1  0  0  0  0
 14 33  1  0  0  0  0
 15 16  1  0  0  0  0
 15 17  1  0  0  0  0
 15 34  1  0  0  0  0
 16 35  1  0  0  0  0
 17 18  1  0  0  0  0
 17 19  1  0  0  0  0
 17 20  1  0  0  0  0
M  END
> <s_m_source_file>
AV-unprocessed.smi

> <i_m_source_file_index>
2787

> <i_lp_mmshare_version>
43012

> <i_f3d_flags>
0

> <s_epik_input>
W09IXVtDSDJdW0NIMl1bQ0gyXWMobjEpbihbQ0gyXVtDQEhdKFtPSF0pQyhGKShGKUYpYyhjMTIpW2NIXVtjSF1bY0hdW2NIXTI=

> <s_epik_cmdline>
J2VwaWtfcHl0aG9uJywgJy1waCcsICc3LjAnLCAnLXRuJywgJzgnLCAnLW1hJywgJzIwMCcsICctbWV0YWxfYmluZGluZycsICctaW1hZScsICc8aW5maWxlLm1hZT4nLCAnLW9tYWUnLCAnPG91dGZpbGUubWFlPic=

> <r_epik_Ionization_Penalty>
0.137914

> <r_epik_Ionization_Penalty_Charging>
0

> <r_epik_Ionization_Penalty_Neutral>
0.137914

> <r_epik_State_Penalty>
0.107668

> <r_epik_Charging_Adjusted_Penalty>
0.107668

> <i_epik_Tot_Q>
0

> <i_epik_Tot_abs_Q>
0

> <r_epik_Metal_State_Penalty>
0.000111872

> <b_epik_Metal_Only>
0

> <s_lp_Force_Field>
OPLS_2005

> <r_lp_Energy>
10.5181

> <b_lp_Chiralities_Consistent>
1

> <s_lp_Variant>
AV-unprocessed.smi:2787-1

> <Gold.Version>
5.8.1

> <Gold.Id.Protein>
6NUR|6NUR_protein|mol2

> <Gold.PLP.Fitness>
51.8518

> <Gold.PLP.PLP>
-44.8483

> <Gold.PLP.part.hbond>
-2.8495

> <Gold.PLP.part.metal>
0.0000

> <Gold.PLP.part.buried>
-4.1111

> <Gold.PLP.part.nonpolar>
-37.5138

> <Gold.PLP.part.repulsive>
0.1277

> <Gold.PLP.ligand.clash>
0.0000

> <Gold.PLP.ligand.torsion>
1.0281

> <Gold.PLP.Chemscore.Hbond>
2.9920

> <Gold.PLP.Chemscore.CHOScore>
0.0000

> <Gold.PLP.Chemscore.Metal>
0.0000

> <Gold.Chemscore.Hbonds>
donor molecule, donor type, donor heavy atom, donor atom, acceptor molecule, acceptor atom, score
      L1  H     1    21       P1  7957  0.91
      P1  H  7989  7998       L1     1  0.88
      P1  H  7997  8009       L1    16  1.00

> <Gold.PLP.Chemscore.Internal.Correction>
0.0837

> <Gold.Rescore>
     Score         DG    S(hbond)    S(metal)    S(lipo)     H(rot)  DE(clash)    DE(int)     intcor
     16.88     -18.15       2.55        0.00     110.59       3.44       0.47       0.79       ----

> <Gold.Chemscore.Fitness>
16.8818

> <Gold.Chemscore.DG>
-18.1472

> <Gold.Chemscore.ZeroCoef>
-5.4800

> <Gold.Chemscore.Hbond>
2.5528

> <Gold.Chemscore.Metal>
0.0000

> <Gold.Chemscore.Lipo>
110.5908

> <Gold.Chemscore.Internal_Hbond>
0.0000

> <Gold.Chemscore.DEClash>
0.4715

> <Gold.Chemscore.DEInternal>
0.7939

> <Gold.Chemscore.Rot>
3.4369

> <Gold.Chemscore.Internal.Correction>
   9.000000E+99

> <Gold.Chemscore.Hbonds>
donor molecule, donor type, donor heavy atom, donor atom, acceptor molecule, acceptor atom, score
      L1  H     1    21       P1  7957  0.88
      P1  H  7989  7998       L1     1  0.63
      P1  H  7997  8009       L1    16  0.29

> <Gold.Chemscore.Hbond.Weighted>
-8.5265

> <Gold.Chemscore.Metal.Weighted>
-0.0000

> <Gold.Chemscore.Lipo.Weighted>
-12.9391

> <Gold.Chemscore.Internal_Hbond.Weighted>
0.0000

> <Gold.Chemscore.DEClash.Weighted>
0.4715

> <Gold.Chemscore.DEInternal.Weighted>
0.7939

> <Gold.Chemscore.Rot.Weighted>
8.7984

> <Gold.Chemscore.Internal.Correction.Weighted>
   9.000000E+99

> <Gold.Protein.RotatedTorsions>
[ 6907 6896 6895 6894 ] final  145.05 input  -60.11 | X-H torsion
[ 7974 7965 7964 7962 ] final  176.14 input  175.53 | X-H torsion
[ 8008 7997 7996 7995 ] final  121.20 input   59.86 | X-H torsion
[ 10167 10162 10161 10158 ] final  146.39 input  -65.29 | X-H torsion
[ 10718 10713 10712 10709 ] final  -27.07 input   66.30 | X-H torsion
[ 10763 10752 10751 10750 ] final  -35.95 input  -60.55 | X-H torsion
[ 11005 11000 10999 10996 ] final  -88.80 input  -57.11 | X-H torsion

> <Gold.Protein.ActiveResidues>
 VAL166  LYS551  ARG553  GLY616  TRP617  ASP618  TYR619  PRO620  LYS621  CYS622 
 ASP623  PHE694  ASN695  SER759  ASP760  ASP761  ALA762  ILE779  LEU786  VAL792 
 PHE793  MET794  SER795  GLU796  ALA797  LYS798  CYS799  TRP800  GLU811  SER814 

> <Gold.Protein.RotatedAtoms>
  152.1858  133.4739  159.4981 H   0  0  0  0  0  0  0  0  0  0  0  0  # atno 6907 bound_to 6896
  150.6942  134.1775  159.4245 H   0  0  0  0  0  0  0  0  0  0  0  0  # atno 6908 bound_to 6896
  151.9688  135.0087  160.0602 H   0  0  0  0  0  0  0  0  0  0  0  0  # atno 6909 bound_to 6896
  144.7189  140.0052  143.6440 H   0  0  0  0  0  0  0  0  0  0  0  0  # atno 7974 bound_to 7965
  156.2676  140.2813  156.1271 H   0  0  0  0  0  0  0  0  0  0  0  0  # atno 8008 bound_to 7997
  155.1094  140.0390  157.2737 H   0  0  0  0  0  0  0  0  0  0  0  0  # atno 8009 bound_to 7997
  154.6754  140.2597  155.6969 H   0  0  0  0  0  0  0  0  0  0  0  0  # atno 8010 bound_to 7997
  139.4908  144.5833  151.6829 H   0  0  0  0  0  0  0  0  0  0  0  0  # atno 10167 bound_to 10162
  156.4429  130.4468  149.7041 H   0  0  0  0  0  0  0  0  0  0  0  0  # atno 10718 bound_to 10713
  153.8717  135.6830  153.4774 H   0  0  0  0  0  0  0  0  0  0  0  0  # atno 10763 bound_to 10752
  153.1283  135.4709  154.9306 H   0  0  0  0  0  0  0  0  0  0  0  0  # atno 10764 bound_to 10752
  154.7711  135.3239  154.8138 H   0  0  0  0  0  0  0  0  0  0  0  0  # atno 10765 bound_to 10752
  141.1596  133.7591  156.9503 H   0  0  0  0  0  0  0  0  0  0  0  0  # atno 11005 bound_to 11000
  146.0303  139.3329  143.0759 LP  0  0  0  0  0  0  0  0  0  0  0  0  # atno 17320 bound_to 7965
  145.8461  140.9554  143.0774 LP  0  0  0  0  0  0  0  0  0  0  0  0  # atno 17321 bound_to 7965
  140.5443  144.0528  150.6101 LP  0  0  0  0  0  0  0  0  0  0  0  0  # atno 17342 bound_to 10162
  140.3561  143.2935  152.0435 LP  0  0  0  0  0  0  0  0  0  0  0  0  # atno 17343 bound_to 10162
  156.3898  130.7621  151.2621 LP  0  0  0  0  0  0  0  0  0  0  0  0  # atno 17370 bound_to 10713
  157.7505  131.0271  150.3991 LP  0  0  0  0  0  0  0  0  0  0  0  0  # atno 17371 bound_to 10713
  140.1262  134.9385  157.2273 LP  0  0  0  0  0  0  0  0  0  0  0  0  # atno 17394 bound_to 11000
  140.3010  134.3131  155.7290 LP  0  0  0  0  0  0  0  0  0  0  0  0  # atno 17395 bound_to 11000

$$$$
