AV-unprocessed.smi:2451|AV-procd|sdf|9669|dock5
  -GOLD-   2272013303D 1   1.00000     0.00000
 Structure written by MMmdl.
 38 39  0  0  0  0  0  0  0  0  1 V2000
  151.3129  145.3495  160.2332 C   0  0  0  0  0  0  0  0  0  0  0  0
  151.7600  143.8768  160.2326 C   0  0  2  0  0  0  0  0  0  0  0  0
  152.4775  143.5454  161.5568 C   0  0  0  0  0  0  0  0  0  0  0  0
  152.9099  142.0748  161.6236 C   0  0  0  0  0  0  0  0  0  0  0  0
  153.8087  141.7006  160.4360 C   0  0  0  0  0  0  0  0  0  0  0  0
  153.1564  142.0501  159.0864 C   0  0  1  0  0  0  0  0  0  0  0  0
  152.0727  141.1033  158.7934 N   0  0  0  0  0  0  0  0  0  0  0  0
  152.4584  139.4370  158.5737 S   0  0  0  0  0  0  0  0  0  0  0  0
  153.4408  139.3512  157.4825 O   0  0  0  0  0  0  0  0  0  0  0  0
  152.7781  138.8754  159.8954 O   0  0  0  0  0  0  0  0  0  0  0  0
  150.8568  138.7264  158.0049 C   0  0  0  0  0  0  0  0  0  0  0  0
  151.0411  138.0818  156.6606 C   0  0  0  0  0  0  0  0  0  0  0  0
  150.4983  138.4779  155.4068 C   0  0  0  0  0  0  0  0  0  0  0  0
  150.9861  137.5443  154.5386 C   0  0  0  0  0  0  0  0  0  0  0  0
  151.7682  136.6496  155.1934 O   0  0  0  0  0  0  0  0  0  0  0  0
  151.7985  137.0019  156.5475 N   0  0  0  0  0  0  0  0  0  0  0  0
  152.6602  143.5170  159.0196 C   0  0  1  0  0  0  0  0  0  0  0  0
  152.0231  143.8368  157.6526 C   0  0  0  0  0  0  0  0  0  0  0  0
  152.1685  146.0250  160.2132 H   0  0  0  0  0  0  0  0  0  0  0  0
  150.7299  145.5807  161.1253 H   0  0  0  0  0  0  0  0  0  0  0  0
  150.6815  145.5804  159.3755 H   0  0  0  0  0  0  0  0  0  0  0  0
  150.8580  143.2652  160.1809 H   0  0  0  0  0  0  0  0  0  0  0  0
  153.3526  144.1864  161.6732 H   0  0  0  0  0  0  0  0  0  0  0  0
  151.8224  143.7649  162.4007 H   0  0  0  0  0  0  0  0  0  0  0  0
  153.4358  141.8842  162.5595 H   0  0  0  0  0  0  0  0  0  0  0  0
  152.0269  141.4347  161.6325 H   0  0  0  0  0  0  0  0  0  0  0  0
  154.7516  142.2415  160.5246 H   0  0  0  0  0  0  0  0  0  0  0  0
  154.0632  140.6406  160.4741 H   0  0  0  0  0  0  0  0  0  0  0  0
  153.9199  141.9265  158.3167 H   0  0  0  0  0  0  0  0  0  0  0  0
  151.4804  141.4485  158.0384 H   0  0  0  0  0  0  0  0  0  0  0  0
  150.5177  138.0020  158.7454 H   0  0  0  0  0  0  0  0  0  0  0  0
  150.1208  139.5298  157.9634 H   0  0  0  0  0  0  0  0  0  0  0  0
  149.8491  139.3112  155.1823 H   0  0  0  0  0  0  0  0  0  0  0  0
  150.8738  137.3881  153.4759 H   0  0  0  0  0  0  0  0  0  0  0  0
  153.5510  144.1434  159.0928 H   0  0  0  0  0  0  0  0  0  0  0  0
  151.0552  143.3485  157.5358 H   0  0  0  0  0  0  0  0  0  0  0  0
  152.6638  143.5026  156.8360 H   0  0  0  0  0  0  0  0  0  0  0  0
  151.8737  144.9076  157.5185 H   0  0  0  0  0  0  0  0  0  0  0  0
  1  2  1  0  0  0  0
  1 19  1  0  0  0  0
  1 20  1  0  0  0  0
  1 21  1  0  0  0  0
  2 17  1  0  0  0  0
  2  3  1  0  0  0  0
  2 22  1  0  0  0  0
  3  4  1  0  0  0  0
  3 23  1  0  0  0  0
  3 24  1  0  0  0  0
  4  5  1  0  0  0  0
  4 25  1  0  0  0  0
  4 26  1  0  0  0  0
  5  6  1  0  0  0  0
  5 27  1  0  0  0  0
  5 28  1  0  0  0  0
  6  7  1  0  0  0  0
  6 17  1  0  0  0  0
  6 29  1  0  0  0  0
  7  8  1  0  0  0  0
  7 30  1  0  0  0  0
  8  9  2  0  0  0  0
  8 10  2  0  0  0  0
  8 11  1  0  0  0  0
 11 12  1  0  0  0  0
 11 31  1  0  0  0  0
 11 32  1  0  0  0  0
 12 16  2  0  0  0  0
 12 13  1  0  0  0  0
 13 14  2  0  0  0  0
 13 33  1  0  0  0  0
 14 15  1  0  0  0  0
 14 34  1  0  0  0  0
 15 16  1  0  0  0  0
 17 18  1  0  0  0  0
 17 35  1  0  0  0  0
 18 36  1  0  0  0  0
 18 37  1  0  0  0  0
 18 38  1  0  0  0  0
M  END
> <s_m_source_file>
AV-unprocessed.smi

> <i_m_source_file_index>
2451

> <i_lp_mmshare_version>
43012

> <i_f3d_flags>
0

> <s_epik_input>
W0NIM11bQ0BASF0xW0NIMl1bQ0gyXVtDSDJdW0NASF0oW0NASF0xW0NIM10pW05IXVMoPU8pKD1PKVtDSDJdYzJbY0hdW2NIXW9uMg==

> <s_epik_cmdline>
J2VwaWtfcHl0aG9uJywgJy1waCcsICc3LjAnLCAnLXRuJywgJzgnLCAnLW1hJywgJzIwMCcsICctbWV0YWxfYmluZGluZycsICctaW1hZScsICc8aW5maWxlLm1hZT4nLCAnLW9tYWUnLCAnPG91dGZpbGUubWFlPic=

> <r_lp_tautomer_probability>
1

> <r_epik_Ionization_Penalty>
8.73668e-05

> <r_epik_Ionization_Penalty_Charging>
0

> <r_epik_Ionization_Penalty_Neutral>
8.73668e-05

> <r_epik_State_Penalty>
-0

> <r_epik_Charging_Adjusted_Penalty>
0

> <i_epik_Tot_Q>
0

> <i_epik_Tot_abs_Q>
0

> <r_epik_Metal_State_Penalty>
0.0716439

> <b_epik_Metal_Only>
0

> <s_lp_Force_Field>
OPLS_2005

> <r_lp_Energy>
9.22722

> <b_lp_Chiralities_Consistent>
1

> <s_lp_Variant>
AV-unprocessed.smi:2451-1

> <Gold.Version>
5.8.1

> <Gold.Id.Protein>
6NUR|6NUR_protein|mol2

> <Gold.PLP.Fitness>
46.6406

> <Gold.PLP.PLP>
-37.5307

> <Gold.PLP.part.hbond>
-1.7210

> <Gold.PLP.part.metal>
0.0000

> <Gold.PLP.part.buried>
-5.2145

> <Gold.PLP.part.nonpolar>
-32.2440

> <Gold.PLP.part.repulsive>
0.1167

> <Gold.PLP.ligand.clash>
0.0000

> <Gold.PLP.ligand.torsion>
0.2218

> <Gold.PLP.Chemscore.Hbond>
1.9833

> <Gold.PLP.Chemscore.CHOScore>
1.1531

> <Gold.PLP.Chemscore.Metal>
0.0000

> <Gold.Chemscore.Hbonds>
donor molecule, donor type, donor heavy atom, donor atom, acceptor molecule, acceptor atom, score
      P1  H  7997  8008       L1     9  0.80
      P1  H 10752 10763       L1    15  1.00
      L1  C    14    34       P1  7948  0.19
      L1  C    14    34       P1  7949  0.93

> <Gold.PLP.Chemscore.Internal.Correction>
0.1443

> <Gold.Rescore>
     Score         DG    S(hbond)    S(metal)    S(lipo)     H(rot)  DE(clash)    DE(int)     intcor
     19.56     -20.75       1.91        0.00     112.29       1.66       0.07       1.12       ----

> <Gold.Chemscore.Fitness>
19.5634

> <Gold.Chemscore.DG>
-20.7520

> <Gold.Chemscore.ZeroCoef>
-5.4800

> <Gold.Chemscore.Hbond>
1.9103

> <Gold.Chemscore.Metal>
0.0000

> <Gold.Chemscore.Lipo>
112.2923

> <Gold.Chemscore.Internal_Hbond>
0.0000

> <Gold.Chemscore.DEClash>
0.0723

> <Gold.Chemscore.DEInternal>
1.1163

> <Gold.Chemscore.Rot>
1.6588

> <Gold.Chemscore.Internal.Correction>
   9.000000E+99

> <Gold.Chemscore.Hbonds>
donor molecule, donor type, donor heavy atom, donor atom, acceptor molecule, acceptor atom, score
      P1  H  7997  8008       L1     9  0.77
      P1  H 10752 10763       L1    15  0.96

> <Gold.Chemscore.Hbond.Weighted>
-6.3803

> <Gold.Chemscore.Metal.Weighted>
-0.0000

> <Gold.Chemscore.Lipo.Weighted>
-13.1382

> <Gold.Chemscore.Internal_Hbond.Weighted>
0.0000

> <Gold.Chemscore.DEClash.Weighted>
0.0723

> <Gold.Chemscore.DEInternal.Weighted>
1.1163

> <Gold.Chemscore.Rot.Weighted>
4.2466

> <Gold.Chemscore.Internal.Correction.Weighted>
   9.000000E+99

> <Gold.Protein.RotatedTorsions>
[ 6907 6896 6895 6894 ] final -149.41 input  -60.11 | X-H torsion
[ 7974 7965 7964 7962 ] final -140.41 input  175.53 | X-H torsion
[ 8008 7997 7996 7995 ] final  -92.16 input   59.86 | X-H torsion
[ 10167 10162 10161 10158 ] final  166.49 input  -65.29 | X-H torsion
[ 10718 10713 10712 10709 ] final  -40.19 input   66.30 | X-H torsion
[ 10763 10752 10751 10750 ] final   49.95 input  -60.55 | X-H torsion
[ 11005 11000 10999 10996 ] final  -17.97 input  -57.11 | X-H torsion

> <Gold.Protein.ActiveResidues>
 VAL166  LYS551  ARG553  GLY616  TRP617  ASP618  TYR619  PRO620  LYS621  CYS622 
 ASP623  PHE694  ASN695  SER759  ASP760  ASP761  ALA762  ILE779  LEU786  VAL792 
 PHE793  MET794  SER795  GLU796  ALA797  LYS798  CYS799  TRP800  GLU811  SER814 

> <Gold.Protein.RotatedAtoms>
  151.1838  133.4709  159.2594 H   0  0  0  0  0  0  0  0  0  0  0  0  # atno 6907 bound_to 6896
  151.1233  135.0091  159.8558 H   0  0  0  0  0  0  0  0  0  0  0  0  # atno 6908 bound_to 6896
  152.5457  134.1747  159.8664 H   0  0  0  0  0  0  0  0  0  0  0  0  # atno 6909 bound_to 6896
  144.8599  140.6203  143.5335 H   0  0  0  0  0  0  0  0  0  0  0  0  # atno 7974 bound_to 7965
  154.7196  140.0512  157.0627 H   0  0  0  0  0  0  0  0  0  0  0  0  # atno 8008 bound_to 7997
  155.0445  140.3172  155.4694 H   0  0  0  0  0  0  0  0  0  0  0  0  # atno 8009 bound_to 7997
  156.2813  140.2127  156.5569 H   0  0  0  0  0  0  0  0  0  0  0  0  # atno 8010 bound_to 7997
  139.4926  144.4021  151.9397 H   0  0  0  0  0  0  0  0  0  0  0  0  # atno 10167 bound_to 10162
  156.2841  130.4220  149.8306 H   0  0  0  0  0  0  0  0  0  0  0  0  # atno 10718 bound_to 10713
  152.9785  135.5895  154.4173 H   0  0  0  0  0  0  0  0  0  0  0  0  # atno 10763 bound_to 10752
  154.3802  135.2767  155.2218 H   0  0  0  0  0  0  0  0  0  0  0  0  # atno 10764 bound_to 10752
  154.4135  135.6076  153.6021 H   0  0  0  0  0  0  0  0  0  0  0  0  # atno 10765 bound_to 10752
  140.8221  133.8060  155.9670 H   0  0  0  0  0  0  0  0  0  0  0  0  # atno 11005 bound_to 11000
  145.4332  139.1546  143.4011 LP  0  0  0  0  0  0  0  0  0  0  0  0  # atno 17320 bound_to 7965
  146.2852  140.4450  142.8760 LP  0  0  0  0  0  0  0  0  0  0  0  0  # atno 17321 bound_to 7965
  140.3461  144.3145  150.5958 LP  0  0  0  0  0  0  0  0  0  0  0  0  # atno 17342 bound_to 10162
  140.5525  143.2204  151.7903 LP  0  0  0  0  0  0  0  0  0  0  0  0  # atno 17343 bound_to 10162
  156.5742  130.8438  151.3365 LP  0  0  0  0  0  0  0  0  0  0  0  0  # atno 17370 bound_to 10713
  157.7323  130.9713  150.1923 LP  0  0  0  0  0  0  0  0  0  0  0  0  # atno 17371 bound_to 10713
  140.9088  134.2287  157.4998 LP  0  0  0  0  0  0  0  0  0  0  0  0  # atno 17394 bound_to 11000
  139.8708  134.9740  156.4831 LP  0  0  0  0  0  0  0  0  0  0  0  0  # atno 17395 bound_to 11000

$$$$
