AV-unprocessed.smi:1948|AV-procd|sdf|7874|dock3
  -GOLD-   2272010 23D 1   1.00000     0.00000
 Structure written by MMmdl.
 30 31  0  0  0  0  0  0  0  0  1 V2000
  150.6643  140.6227  156.3535 O   0  0  0  0  0  0  0  0  0  0  0  0
  150.0933  141.7126  156.3071 C   0  0  0  0  0  0  0  0  0  0  0  0
  149.0213  141.9973  155.5466 N   0  0  0  0  0  0  0  0  0  0  0  0
  148.3202  141.1403  154.6574 C   0  0  0  0  0  0  0  0  0  0  0  0
  148.6840  139.8735  154.4017 N   0  0  0  0  0  0  0  0  0  0  0  0
  147.8269  139.2588  153.4979 N   0  0  0  0  0  0  0  0  0  0  0  0
  146.8515  140.0847  153.1084 C   0  0  0  0  0  0  0  0  0  0  0  0
  146.8838  141.6939  153.8086 S   0  0  0  0  0  0  0  0  0  0  0  0
  150.4791  142.7805  157.0210 N   0  0  0  0  0  0  0  0  0  0  0  0
  151.6123  142.8142  157.9410 C   0  0  2  0  0  0  0  0  0  0  0  0
  151.6107  141.5446  158.8115 C   0  0  0  0  0  0  0  0  0  0  0  0
  152.7659  141.5567  159.8281 C   0  0  0  0  0  0  0  0  0  0  0  0
  152.7620  142.8260  160.7010 C   0  0  2  0  0  0  0  0  0  0  0  0
  151.6656  142.7963  161.5933 O   0  0  0  0  0  0  0  0  0  0  0  0
  152.7112  144.1041  159.8429 C   0  0  0  0  0  0  0  0  0  0  0  0
  151.5594  144.0785  158.8226 C   0  0  0  0  0  0  0  0  0  0  0  0
  148.6670  142.9403  155.6077 H   0  0  0  0  0  0  0  0  0  0  0  0
  146.1071  139.7432  152.4045 H   0  0  0  0  0  0  0  0  0  0  0  0
  149.9528  143.6360  156.9202 H   0  0  0  0  0  0  0  0  0  0  0  0
  152.5387  142.8253  157.3632 H   0  0  0  0  0  0  0  0  0  0  0  0
  150.6608  141.4587  159.3412 H   0  0  0  0  0  0  0  0  0  0  0  0
  151.6908  140.6589  158.1801 H   0  0  0  0  0  0  0  0  0  0  0  0
  152.7229  140.6659  160.4557 H   0  0  0  0  0  0  0  0  0  0  0  0
  153.7117  141.5012  159.2875 H   0  0  0  0  0  0  0  0  0  0  0  0
  153.6663  142.8413  161.3105 H   0  0  0  0  0  0  0  0  0  0  0  0
  151.4224  143.6857  161.8001 H   0  0  0  0  0  0  0  0  0  0  0  0
  152.6281  144.9856  160.4798 H   0  0  0  0  0  0  0  0  0  0  0  0
  153.6542  144.2071  159.3048 H   0  0  0  0  0  0  0  0  0  0  0  0
  151.6070  144.9733  158.2010 H   0  0  0  0  0  0  0  0  0  0  0  0
  150.6049  144.1224  159.3493 H   0  0  0  0  0  0  0  0  0  0  0  0
  1  2  2  0  0  0  0
  2  3  1  0  0  0  0
  2  9  1  0  0  0  0
  3  4  1  0  0  0  0
  3 17  1  0  0  0  0
  4  8  1  0  0  0  0
  4  5  2  0  0  0  0
  5  6  1  0  0  0  0
  6  7  2  0  0  0  0
  7  8  1  0  0  0  0
  7 18  1  0  0  0  0
  9 10  1  0  0  0  0
  9 19  1  0  0  0  0
 10 16  1  0  0  0  0
 10 11  1  0  0  0  0
 10 20  1  0  0  0  0
 11 12  1  0  0  0  0
 11 21  1  0  0  0  0
 11 22  1  0  0  0  0
 12 13  1  0  0  0  0
 12 23  1  0  0  0  0
 12 24  1  0  0  0  0
 13 14  1  0  0  0  0
 13 15  1  0  0  0  0
 13 25  1  0  0  0  0
 14 26  1  0  0  0  0
 15 16  1  0  0  0  0
 15 27  1  0  0  0  0
 15 28  1  0  0  0  0
 16 29  1  0  0  0  0
 16 30  1  0  0  0  0
M  END
> <s_m_source_file>
AV-unprocessed.smi

> <i_m_source_file_index>
1948

> <i_lp_mmshare_version>
43012

> <i_f3d_flags>
0

> <s_epik_input>
czFbY0hdbm5jMVtOSF1DKD1PKVtOSF1bQ0BASF0yW0NIMl1bQ0gyXVtDQEBIXShbT0hdKVtDSDJdW0NIMl0y

> <s_epik_cmdline>
J2VwaWtfcHl0aG9uJywgJy1waCcsICc3LjAnLCAnLXRuJywgJzgnLCAnLW1hJywgJzIwMCcsICctbWV0YWxfYmluZGluZycsICctaW1hZScsICc8aW5maWxlLm1hZT4nLCAnLW9tYWUnLCAnPG91dGZpbGUubWFlPic=

> <r_lp_tautomer_probability>
1

> <r_epik_Ionization_Penalty>
0.000336938

> <r_epik_Ionization_Penalty_Charging>
0

> <r_epik_Ionization_Penalty_Neutral>
0.000336938

> <r_epik_State_Penalty>
-0

> <r_epik_Charging_Adjusted_Penalty>
0

> <i_epik_Tot_Q>
0

> <i_epik_Tot_abs_Q>
0

> <r_epik_Metal_State_Penalty>
0.175756

> <b_epik_Metal_Only>
0

> <s_lp_Force_Field>
OPLS_2005

> <r_lp_Energy>
9.37087

> <b_lp_Chiralities_Consistent>
1

> <s_lp_Variant>
AV-unprocessed.smi:1948-2

> <Gold.Version>
5.8.1

> <Gold.Id.Protein>
6NUR|6NUR_protein|mol2

> <Gold.PLP.Fitness>
43.4064

> <Gold.PLP.PLP>
-33.5287

> <Gold.PLP.part.hbond>
-3.2864

> <Gold.PLP.part.metal>
0.0000

> <Gold.PLP.part.buried>
-6.8591

> <Gold.PLP.part.nonpolar>
-25.3713

> <Gold.PLP.part.repulsive>
1.1479

> <Gold.PLP.ligand.clash>
0.0000

> <Gold.PLP.ligand.torsion>
0.1809

> <Gold.PLP.Chemscore.Hbond>
2.5360

> <Gold.PLP.Chemscore.CHOScore>
0.8762

> <Gold.PLP.Chemscore.Metal>
0.0000

> <Gold.Chemscore.Hbonds>
donor molecule, donor type, donor heavy atom, donor atom, acceptor molecule, acceptor atom, score
      L1  H     3    17       P1  8028  1.00
      L1  H     9    19       P1  8028  0.90
      P1  H  6933  6945       L1    14  0.62
      L1  C     7    18       P1 10175  0.88

> <Gold.PLP.Chemscore.Internal.Correction>
0.0030

> <Gold.Rescore>
     Score         DG    S(hbond)    S(metal)    S(lipo)     H(rot)  DE(clash)    DE(int)     intcor
     15.70     -18.64       2.39        0.00      78.24       1.55       0.05       2.89       ----

> <Gold.Chemscore.Fitness>
15.7022

> <Gold.Chemscore.DG>
-18.6437

> <Gold.Chemscore.ZeroCoef>
-5.4800

> <Gold.Chemscore.Hbond>
2.3852

> <Gold.Chemscore.Metal>
0.0000

> <Gold.Chemscore.Lipo>
78.2395

> <Gold.Chemscore.Internal_Hbond>
0.0000

> <Gold.Chemscore.DEClash>
0.0484

> <Gold.Chemscore.DEInternal>
2.8932

> <Gold.Chemscore.Rot>
1.5456

> <Gold.Chemscore.Internal.Correction>
   9.000000E+99

> <Gold.Chemscore.Hbonds>
donor molecule, donor type, donor heavy atom, donor atom, acceptor molecule, acceptor atom, score
      L1  H     3    17       P1  8028  0.97
      L1  H     9    19       P1  8028  0.86
      P1  H  6933  6945       L1    14  0.20

> <Gold.Chemscore.Hbond.Weighted>
-7.9665

> <Gold.Chemscore.Metal.Weighted>
-0.0000

> <Gold.Chemscore.Lipo.Weighted>
-9.1540

> <Gold.Chemscore.Internal_Hbond.Weighted>
0.0000

> <Gold.Chemscore.DEClash.Weighted>
0.0484

> <Gold.Chemscore.DEInternal.Weighted>
2.8932

> <Gold.Chemscore.Rot.Weighted>
3.9568

> <Gold.Chemscore.Internal.Correction.Weighted>
   9.000000E+99

> <Gold.Protein.RotatedTorsions>
[ 6907 6896 6895 6894 ] final   38.62 input  -60.11 | X-H torsion
[ 7974 7965 7964 7962 ] final  -77.17 input  175.53 | X-H torsion
[ 8008 7997 7996 7995 ] final -139.74 input   59.86 | X-H torsion
[ 10167 10162 10161 10158 ] final -137.24 input  -65.29 | X-H torsion
[ 10718 10713 10712 10709 ] final   97.45 input   66.30 | X-H torsion
[ 10763 10752 10751 10750 ] final  -44.62 input  -60.55 | X-H torsion
[ 11005 11000 10999 10996 ] final   59.96 input  -57.11 | X-H torsion

> <Gold.Protein.ActiveResidues>
 VAL166  LYS551  ARG553  GLY616  TRP617  ASP618  TYR619  PRO620  LYS621  CYS622 
 ASP623  PHE694  ASN695  SER759  ASP760  ASP761  ALA762  ILE779  LEU786  VAL792 
 PHE793  MET794  SER795  GLU796  ALA797  LYS798  CYS799  TRP800  GLU811  SER814 

> <Gold.Protein.RotatedAtoms>
  152.1588  134.8929  160.0542 H   0  0  0  0  0  0  0  0  0  0  0  0  # atno 6907 bound_to 6896
  151.9933  133.3794  159.4161 H   0  0  0  0  0  0  0  0  0  0  0  0  # atno 6908 bound_to 6896
  150.6885  134.3836  159.5089 H   0  0  0  0  0  0  0  0  0  0  0  0  # atno 6909 bound_to 6896
  145.6032  140.9404  143.1229 H   0  0  0  0  0  0  0  0  0  0  0  0  # atno 7974 bound_to 7965
  155.4498  140.0538  157.3002 H   0  0  0  0  0  0  0  0  0  0  0  0  # atno 8008 bound_to 7997
  154.4782  140.2070  155.9783 H   0  0  0  0  0  0  0  0  0  0  0  0  # atno 8009 bound_to 7997
  156.1165  140.3195  155.8151 H   0  0  0  0  0  0  0  0  0  0  0  0  # atno 8010 bound_to 7997
  139.8597  143.7093  152.2651 H   0  0  0  0  0  0  0  0  0  0  0  0  # atno 10167 bound_to 10162
  157.6912  131.0610  150.4645 H   0  0  0  0  0  0  0  0  0  0  0  0  # atno 10718 bound_to 10713
  154.0150  135.6676  153.4768 H   0  0  0  0  0  0  0  0  0  0  0  0  # atno 10763 bound_to 10752
  153.0604  135.5031  154.8077 H   0  0  0  0  0  0  0  0  0  0  0  0  # atno 10764 bound_to 10752
  154.6972  135.3072  154.9358 H   0  0  0  0  0  0  0  0  0  0  0  0  # atno 10765 bound_to 10752
  140.0266  134.6073  155.9564 H   0  0  0  0  0  0  0  0  0  0  0  0  # atno 11005 bound_to 11000
  144.7301  139.7752  143.7350 LP  0  0  0  0  0  0  0  0  0  0  0  0  # atno 17320 bound_to 7965
  146.1560  139.4659  143.0018 LP  0  0  0  0  0  0  0  0  0  0  0  0  # atno 17321 bound_to 7965
  139.7385  144.7565  151.0689 LP  0  0  0  0  0  0  0  0  0  0  0  0  # atno 17342 bound_to 10162
  140.7776  143.5001  150.9783 LP  0  0  0  0  0  0  0  0  0  0  0  0  # atno 17343 bound_to 10162
  156.4987  130.4112  149.6365 LP  0  0  0  0  0  0  0  0  0  0  0  0  # atno 17370 bound_to 10713
  156.3348  130.7351  151.2286 LP  0  0  0  0  0  0  0  0  0  0  0  0  # atno 17371 bound_to 10713
  141.1806  133.6546  156.5006 LP  0  0  0  0  0  0  0  0  0  0  0  0  # atno 17394 bound_to 11000
  140.4296  134.7114  157.4934 LP  0  0  0  0  0  0  0  0  0  0  0  0  # atno 17395 bound_to 11000

$$$$
