AV-unprocessed.smi:1613|AV-procd|sdf|6479|dock9
  -GOLD-   22720 7143D 1   1.00000     0.00000
 Structure written by MMmdl.
 53 55  0  0  0  0  0  0  0  0  2 V2000
  146.5500  139.4689  152.1369 O   0  0  0  0  0  0  0  0  0  0  0  0
  146.2919  139.0485  153.2636 C   0  0  0  0  0  0  0  0  0  0  0  0
  146.1056  137.5370  153.4868 C   0  0  0  0  0  0  0  0  0  0  0  0
  145.1502  136.8961  152.5621 N   0  0  0  0  0  0  0  0  0  0  0  0
  145.5705  136.6863  151.2377 C   0  0  0  0  0  0  0  0  0  0  0  0
  144.7483  136.1339  150.3340 C   0  0  0  0  0  0  0  0  0  0  0  0
  143.4067  135.7696  150.8080 C   0  0  0  0  0  0  0  0  0  0  0  0
  143.0212  135.9585  152.0142 N   0  0  0  0  0  0  0  0  0  0  0  0
  143.8863  136.5355  152.9623 C   0  0  0  0  0  0  0  0  0  0  0  0
  143.5178  136.7277  154.1210 O   0  0  0  0  0  0  0  0  0  0  0  0
  146.1882  139.8493  154.3361 N   0  0  0  0  0  0  0  0  0  0  0  0
  146.4473  141.2850  154.3828 C   0  0  2  0  0  0  0  0  0  0  0  0
  147.7296  141.6478  153.6072 C   0  0  0  0  0  0  0  0  0  0  0  0
  148.9806  141.0396  154.2669 C   0  0  0  0  0  0  0  0  0  0  0  0
  149.0905  141.4507  155.6903 N   0  3  2  0  0  0  0  0  0  0  0  0
  150.3614  141.0459  156.3496 C   0  0  0  0  0  0  0  0  0  0  0  0
  150.6573  141.7523  157.7006 C   0  0  0  0  0  0  0  0  0  0  0  0
  151.2303  143.1663  157.4706 C   0  0  0  0  0  0  0  0  0  0  0  0
  151.5235  143.8867  158.7965 C   0  0  0  0  0  0  0  0  0  0  0  0
  152.4802  143.0675  159.6747 C   0  0  0  0  0  0  0  0  0  0  0  0
  151.9356  141.6517  159.9117 C   0  0  0  0  0  0  0  0  0  0  0  0
  151.6338  140.9400  158.5827 C   0  0  0  0  0  0  0  0  0  0  0  0
  147.8762  141.1263  156.4862 C   0  0  0  0  0  0  0  0  0  0  0  0
  146.6110  141.7307  155.8462 C   0  0  0  0  0  0  0  0  0  0  0  0
  147.0847  137.0619  153.4108 H   0  0  0  0  0  0  0  0  0  0  0  0
  145.7901  137.3738  154.5190 H   0  0  0  0  0  0  0  0  0  0  0  0
  146.5787  137.0021  151.0115 H   0  0  0  0  0  0  0  0  0  0  0  0
  145.0064  135.9470  149.3022 H   0  0  0  0  0  0  0  0  0  0  0  0
  142.7502  135.3228  150.0571 H   0  0  0  0  0  0  0  0  0  0  0  0
  145.9563  139.4063  155.2134 H   0  0  0  0  0  0  0  0  0  0  0  0
  145.5948  141.8074  153.9452 H   0  0  0  0  0  0  0  0  0  0  0  0
  147.6587  141.3176  152.5702 H   0  0  0  0  0  0  0  0  0  0  0  0
  147.8336  142.7329  153.5702 H   0  0  0  0  0  0  0  0  0  0  0  0
  148.9399  139.9530  154.1934 H   0  0  0  0  0  0  0  0  0  0  0  0
  149.8704  141.3627  153.7260 H   0  0  0  0  0  0  0  0  0  0  0  0
  150.3576  139.9636  156.4838 H   0  0  0  0  0  0  0  0  0  0  0  0
  151.1672  141.2384  155.6400 H   0  0  0  0  0  0  0  0  0  0  0  0
  149.7302  141.8797  158.2578 H   0  0  0  0  0  0  0  0  0  0  0  0
  152.1456  143.1031  156.8805 H   0  0  0  0  0  0  0  0  0  0  0  0
  150.5276  143.7626  156.8874 H   0  0  0  0  0  0  0  0  0  0  0  0
  151.9519  144.8699  158.5987 H   0  0  0  0  0  0  0  0  0  0  0  0
  150.5905  144.0596  159.3338 H   0  0  0  0  0  0  0  0  0  0  0  0
  153.4575  143.0077  159.1940 H   0  0  0  0  0  0  0  0  0  0  0  0
  152.6349  143.5722  160.6287 H   0  0  0  0  0  0  0  0  0  0  0  0
  152.6549  141.0701  160.4891 H   0  0  0  0  0  0  0  0  0  0  0  0
  151.0297  141.7047  160.5154 H   0  0  0  0  0  0  0  0  0  0  0  0
  151.2325  139.9503  158.7953 H   0  0  0  0  0  0  0  0  0  0  0  0
  152.5689  140.7788  158.0444 H   0  0  0  0  0  0  0  0  0  0  0  0
  147.7617  140.0466  156.5830 H   0  0  0  0  0  0  0  0  0  0  0  0
  147.9888  141.5185  157.4975 H   0  0  0  0  0  0  0  0  0  0  0  0
  146.6701  142.8190  155.8880 H   0  0  0  0  0  0  0  0  0  0  0  0
  145.7304  141.4526  156.4267 H   0  0  0  0  0  0  0  0  0  0  0  0
  149.1235  142.4601  155.6692 H   0  0  0  0  0  0  0  0  0  0  0  0
  1  2  2  0  0  0  0
  2  3  1  0  0  0  0
  2 11  1  0  0  0  0
  3  4  1  0  0  0  0
  3 25  1  0  0  0  0
  3 26  1  0  0  0  0
  4  9  1  0  0  0  0
  4  5  1  0  0  0  0
  5  6  2  0  0  0  0
  5 27  1  0  0  0  0
  6  7  1  0  0  0  0
  6 28  1  0  0  0  0
  7  8  2  0  0  0  0
  7 29  1  0  0  0  0
  8  9  1  0  0  0  0
  9 10  2  0  0  0  0
 11 12  1  0  0  0  0
 11 30  1  0  0  0  0
 12 24  1  0  0  0  0
 12 13  1  0  0  0  0
 12 31  1  0  0  0  0
 13 14  1  0  0  0  0
 13 32  1  0  0  0  0
 13 33  1  0  0  0  0
 14 15  1  0  0  0  0
 14 34  1  0  0  0  0
 14 35  1  0  0  0  0
 15 16  1  0  0  0  0
 15 23  1  0  0  0  0
 15 53  1  0  0  0  0
 16 17  1  0  0  0  0
 16 36  1  0  0  0  0
 16 37  1  0  0  0  0
 17 22  1  0  0  0  0
 17 18  1  0  0  0  0
 17 38  1  0  0  0  0
 18 19  1  0  0  0  0
 18 39  1  0  0  0  0
 18 40  1  0  0  0  0
 19 20  1  0  0  0  0
 19 41  1  0  0  0  0
 19 42  1  0  0  0  0
 20 21  1  0  0  0  0
 20 43  1  0  0  0  0
 20 44  1  0  0  0  0
 21 22  1  0  0  0  0
 21 45  1  0  0  0  0
 21 46  1  0  0  0  0
 22 47  1  0  0  0  0
 22 48  1  0  0  0  0
 23 24  1  0  0  0  0
 23 49  1  0  0  0  0
 23 50  1  0  0  0  0
 24 51  1  0  0  0  0
 24 52  1  0  0  0  0
M  CHG  1  15   1
M  END
> <s_m_source_file>
AV-unprocessed.smi

> <i_m_source_file_index>
1613

> <i_lp_mmshare_version>
43012

> <i_f3d_flags>
0

> <s_epik_input>
Tz1jMW5bY0hdW2NIXVtjSF1uMVtDSDJdQyg9TylbTkhdW0NIXTJbQ0gyXVtDSDJdTihbQ0gyXVtDSDJdMilbQ0gyXVtDSF0zW0NIMl1bQ0gyXVtDSDJdW0NIMl1bQ0gyXTM=

> <s_epik_cmdline>
J2VwaWtfcHl0aG9uJywgJy1waCcsICc3LjAnLCAnLXRuJywgJzgnLCAnLW1hJywgJzIwMCcsICctbWV0YWxfYmluZGluZycsICctaW1hZScsICc8aW5maWxlLm1hZT4nLCAnLW9tYWUnLCAnPG91dGZpbGUubWFlPic=

> <r_lp_tautomer_probability>
1

> <r_epik_Ionization_Penalty>
0.00530026

> <r_epik_Ionization_Penalty_Charging>
0.00529416

> <r_epik_Ionization_Penalty_Neutral>
6.10215e-06

> <r_epik_State_Penalty>
0.00386377

> <r_epik_Charging_Adjusted_Penalty>
0.00915793

> <i_epik_Tot_Q>
1

> <i_epik_Tot_abs_Q>
1

> <r_epik_Metal_State_Penalty>
-0

> <b_epik_Metal_Only>
0

> <s_lp_Force_Field>
OPLS_2005

> <r_lp_Energy>
26.8521

> <b_lp_Chiralities_Consistent>
1

> <s_lp_Variant>
AV-unprocessed.smi:1613-2

> <Gold.Version>
5.8.1

> <Gold.Id.Protein>
6NUR|6NUR_protein|mol2

> <Gold.PLP.Fitness>
51.6280

> <Gold.PLP.PLP>
-41.7169

> <Gold.PLP.part.hbond>
-1.0000

> <Gold.PLP.part.metal>
0.0000

> <Gold.PLP.part.buried>
-3.0552

> <Gold.PLP.part.nonpolar>
-38.2472

> <Gold.PLP.part.repulsive>
0.5577

> <Gold.PLP.ligand.clash>
0.0000

> <Gold.PLP.ligand.torsion>
0.7452

> <Gold.PLP.Chemscore.Hbond>
2.0000

> <Gold.PLP.Chemscore.CHOScore>
1.7790

> <Gold.PLP.Chemscore.Metal>
0.0000

> <Gold.Chemscore.Hbonds>
donor molecule, donor type, donor heavy atom, donor atom, acceptor molecule, acceptor atom, score
      L1  H    15    53       P1  8028  0.81
      L1  C     5    27       P1  7948  0.84
      L1  C     7    29       P1 10186  0.57

> <Gold.PLP.Chemscore.Internal.Correction>
0.0644

> <Gold.Rescore>
     Score         DG    S(hbond)    S(metal)    S(lipo)     H(rot)  DE(clash)    DE(int)     intcor
     16.02     -18.24       1.00        0.00     120.81       1.84       0.18       2.04       ----

> <Gold.Chemscore.Fitness>
16.0196

> <Gold.Chemscore.DG>
-18.2395

> <Gold.Chemscore.ZeroCoef>
-5.4800

> <Gold.Chemscore.Hbond>
0.9998

> <Gold.Chemscore.Metal>
0.0000

> <Gold.Chemscore.Lipo>
120.8092

> <Gold.Chemscore.Internal_Hbond>
0.0000

> <Gold.Chemscore.DEClash>
0.1783

> <Gold.Chemscore.DEInternal>
2.0416

> <Gold.Chemscore.Rot>
1.8417

> <Gold.Chemscore.Internal.Correction>
   9.000000E+99

> <Gold.Chemscore.Hbonds>
donor molecule, donor type, donor heavy atom, donor atom, acceptor molecule, acceptor atom, score
      L1  H    15    53       P1  8028  0.41

> <Gold.Chemscore.Hbond.Weighted>
-3.3395

> <Gold.Chemscore.Metal.Weighted>
-0.0000

> <Gold.Chemscore.Lipo.Weighted>
-14.1347

> <Gold.Chemscore.Internal_Hbond.Weighted>
0.0000

> <Gold.Chemscore.DEClash.Weighted>
0.1783

> <Gold.Chemscore.DEInternal.Weighted>
2.0416

> <Gold.Chemscore.Rot.Weighted>
4.7147

> <Gold.Chemscore.Internal.Correction.Weighted>
   9.000000E+99

> <Gold.Protein.RotatedTorsions>
[ 6907 6896 6895 6894 ] final  156.01 input  -60.11 | X-H torsion
[ 7974 7965 7964 7962 ] final  152.92 input  175.53 | X-H torsion
[ 8008 7997 7996 7995 ] final -155.72 input   59.86 | X-H torsion
[ 10167 10162 10161 10158 ] final -160.81 input  -65.29 | X-H torsion
[ 10718 10713 10712 10709 ] final   14.37 input   66.30 | X-H torsion
[ 10763 10752 10751 10750 ] final  176.09 input  -60.55 | X-H torsion
[ 11005 11000 10999 10996 ] final  -48.72 input  -57.11 | X-H torsion

> <Gold.Protein.ActiveResidues>
 VAL166  LYS551  ARG553  GLY616  TRP617  ASP618  TYR619  PRO620  LYS621  CYS622 
 ASP623  PHE694  ASN695  SER759  ASP760  ASP761  ALA762  ILE779  LEU786  VAL792 
 PHE793  MET794  SER795  GLU796  ALA797  LYS798  CYS799  TRP800  GLU811  SER814 

> <Gold.Protein.RotatedAtoms>
  152.0359  133.3957  159.4316 H   0  0  0  0  0  0  0  0  0  0  0  0  # atno 6907 bound_to 6896
  150.6879  134.3469  159.4901 H   0  0  0  0  0  0  0  0  0  0  0  0  # atno 6908 bound_to 6896
  152.1261  134.9169  160.0611 H   0  0  0  0  0  0  0  0  0  0  0  0  # atno 6909 bound_to 6896
  144.8189  139.6732  143.6109 H   0  0  0  0  0  0  0  0  0  0  0  0  # atno 7974 bound_to 7965
  155.7062  140.0772  157.2390 H   0  0  0  0  0  0  0  0  0  0  0  0  # atno 8008 bound_to 7997
  154.4065  140.1638  156.2299 H   0  0  0  0  0  0  0  0  0  0  0  0  # atno 8009 bound_to 7997
  155.9324  140.3390  155.6262 H   0  0  0  0  0  0  0  0  0  0  0  0  # atno 8010 bound_to 7997
  139.6512  144.0081  152.2163 H   0  0  0  0  0  0  0  0  0  0  0  0  # atno 10167 bound_to 10162
  157.0381  130.6220  149.5746 H   0  0  0  0  0  0  0  0  0  0  0  0  # atno 10718 bound_to 10713
  154.4764  135.2773  155.1604 H   0  0  0  0  0  0  0  0  0  0  0  0  # atno 10763 bound_to 10752
  154.3332  135.6185  153.5565 H   0  0  0  0  0  0  0  0  0  0  0  0  # atno 10764 bound_to 10752
  152.9870  135.5770  154.5156 H   0  0  0  0  0  0  0  0  0  0  0  0  # atno 10765 bound_to 10752
  141.0717  133.6677  156.3482 H   0  0  0  0  0  0  0  0  0  0  0  0  # atno 11005 bound_to 11000
  146.2494  139.6167  142.9437 LP  0  0  0  0  0  0  0  0  0  0  0  0  # atno 17320 bound_to 7965
  145.5149  141.0434  143.2467 LP  0  0  0  0  0  0  0  0  0  0  0  0  # atno 17321 bound_to 7965
  139.9795  144.6438  150.7913 LP  0  0  0  0  0  0  0  0  0  0  0  0  # atno 17342 bound_to 10162
  140.7538  143.3016  151.3067 LP  0  0  0  0  0  0  0  0  0  0  0  0  # atno 17343 bound_to 10162
  156.0047  130.5132  150.7788 LP  0  0  0  0  0  0  0  0  0  0  0  0  # atno 17370 bound_to 10713
  157.5125  131.0926  151.0180 LP  0  0  0  0  0  0  0  0  0  0  0  0  # atno 17371 bound_to 10713
  140.5659  134.5889  157.5445 LP  0  0  0  0  0  0  0  0  0  0  0  0  # atno 17394 bound_to 11000
  139.9530  134.7583  156.0404 LP  0  0  0  0  0  0  0  0  0  0  0  0  # atno 17395 bound_to 11000

$$$$
