AV-unprocessed.smi:435|AV-procd|sdf|2557|dock8
  -GOLD-   2262022523D 1   1.00000     0.00000
 Structure written by MMmdl.
 44 45  0  0  0  0  0  0  0  0  1 V2000
  151.3840  143.9916  160.8873 C   0  0  0  0  0  0  0  0  0  0  0  0
  151.8971  142.8312  160.0780 C   0  0  0  0  0  0  0  0  0  0  0  0
  151.3879  142.6748  158.9003 N   0  0  0  0  0  0  0  0  0  0  0  0
  151.7839  141.6382  158.0772 N   0  0  0  0  0  0  0  0  0  0  0  0
  151.0926  141.6014  156.7802 C   0  0  0  0  0  0  0  0  0  0  0  0
  149.8135  140.7526  156.8048 C   0  0  0  0  0  0  0  0  0  0  0  0
  149.7767  139.6917  157.4296 O   0  0  0  0  0  0  0  0  0  0  0  0
  148.7632  141.2514  156.1355 N   0  0  0  0  0  0  0  0  0  0  0  0
  147.4444  140.6290  156.0345 C   0  0  2  0  0  0  0  0  0  0  0  0
  147.0719  140.4040  154.5564 C   0  0  0  0  0  0  0  0  0  0  0  0
  146.7780  141.7231  153.8195 C   0  0  0  0  0  0  0  0  0  0  0  0
  145.6924  142.5481  154.5368 C   0  0  2  0  0  0  0  0  0  0  0  0
  145.4113  143.8646  153.7989 C   0  0  0  0  0  0  0  0  0  0  0  0
  146.0874  142.7970  156.0052 C   0  0  0  0  0  0  0  0  0  0  0  0
  146.3726  141.4791  156.7475 C   0  0  0  0  0  0  0  0  0  0  0  0
  152.7253  140.7054  158.4013 C   0  0  0  0  0  0  0  0  0  0  0  0
  153.0521  139.7994  157.6327 O   0  0  0  0  0  0  0  0  0  0  0  0
  153.2986  140.8893  159.7363 C   0  0  0  0  0  0  0  0  0  0  0  0
  154.2843  139.9298  160.1174 C   0  0  0  0  0  0  0  0  0  0  0  0
  155.0786  139.1544  160.4459 N   0  0  0  0  0  0  0  0  0  0  0  0
  152.9173  141.9022  160.5541 C   0  0  0  0  0  0  0  0  0  0  0  0
  153.4820  142.1357  161.9487 C   0  0  0  0  0  0  0  0  0  0  0  0
  152.1783  144.7150  161.0719 H   0  0  0  0  0  0  0  0  0  0  0  0
  151.0025  143.6538  161.8511 H   0  0  0  0  0  0  0  0  0  0  0  0
  150.5724  144.5148  160.3788 H   0  0  0  0  0  0  0  0  0  0  0  0
  150.8186  142.6106  156.4675 H   0  0  0  0  0  0  0  0  0  0  0  0
  151.7704  141.2310  156.0086 H   0  0  0  0  0  0  0  0  0  0  0  0
  148.8845  142.1324  155.6571 H   0  0  0  0  0  0  0  0  0  0  0  0
  147.4880  139.6504  156.5160 H   0  0  0  0  0  0  0  0  0  0  0  0
  147.8671  139.8598  154.0452 H   0  0  0  0  0  0  0  0  0  0  0  0
  146.1890  139.7657  154.5054 H   0  0  0  0  0  0  0  0  0  0  0  0
  147.6938  142.3101  153.7381 H   0  0  0  0  0  0  0  0  0  0  0  0
  146.4642  141.5049  152.7982 H   0  0  0  0  0  0  0  0  0  0  0  0
  144.7698  141.9657  154.5315 H   0  0  0  0  0  0  0  0  0  0  0  0
  146.2982  144.4982  153.7666 H   0  0  0  0  0  0  0  0  0  0  0  0
  144.6174  144.4283  154.2892 H   0  0  0  0  0  0  0  0  0  0  0  0
  145.0966  143.6790  152.7716 H   0  0  0  0  0  0  0  0  0  0  0  0
  146.9682  143.4394  156.0476 H   0  0  0  0  0  0  0  0  0  0  0  0
  145.2910  143.3371  156.5185 H   0  0  0  0  0  0  0  0  0  0  0  0
  145.4487  140.9033  156.8149 H   0  0  0  0  0  0  0  0  0  0  0  0
  146.6721  141.6864  157.7755 H   0  0  0  0  0  0  0  0  0  0  0  0
  154.2955  141.4503  162.1845 H   0  0  0  0  0  0  0  0  0  0  0  0
  152.7053  141.9972  162.7015 H   0  0  0  0  0  0  0  0  0  0  0  0
  153.8752  143.1486  162.0415 H   0  0  0  0  0  0  0  0  0  0  0  0
  1  2  1  0  0  0  0
  1 23  1  0  0  0  0
  1 24  1  0  0  0  0
  1 25  1  0  0  0  0
  2 21  1  0  0  0  0
  2  3  2  0  0  0  0
  3  4  1  0  0  0  0
  4  5  1  0  0  0  0
  4 16  1  0  0  0  0
  5  6  1  0  0  0  0
  5 26  1  0  0  0  0
  5 27  1  0  0  0  0
  6  7  2  0  0  0  0
  6  8  1  0  0  0  0
  8  9  1  0  0  0  0
  8 28  1  0  0  0  0
  9 15  1  0  0  0  0
  9 10  1  0  0  0  0
  9 29  1  0  0  0  0
 10 11  1  0  0  0  0
 10 30  1  0  0  0  0
 10 31  1  0  0  0  0
 11 12  1  0  0  0  0
 11 32  1  0  0  0  0
 11 33  1  0  0  0  0
 12 13  1  0  0  0  0
 12 14  1  0  0  0  0
 12 34  1  0  0  0  0
 13 35  1  0  0  0  0
 13 36  1  0  0  0  0
 13 37  1  0  0  0  0
 14 15  1  0  0  0  0
 14 38  1  0  0  0  0
 14 39  1  0  0  0  0
 15 40  1  0  0  0  0
 15 41  1  0  0  0  0
 16 17  2  0  0  0  0
 16 18  1  0  0  0  0
 18 19  1  0  0  0  0
 18 21  2  0  0  0  0
 19 20  3  0  0  0  0
 21 22  1  0  0  0  0
 22 42  1  0  0  0  0
 22 43  1  0  0  0  0
 22 44  1  0  0  0  0
M  END
> <s_m_source_file>
AV-unprocessed.smi

> <i_m_source_file_index>
435

> <i_lp_mmshare_version>
43012

> <i_f3d_flags>
0

> <s_epik_input>
TiNDYyhjMVtDSDNdKWMoPU8pbihuYzFbQ0gzXSlbQ0gyXUMoPU8pW05IXVtDQEBIXTJbQ0gyXVtDSDJdW0NAQEhdKFtDSDNdKVtDSDJdW0NIMl0y

> <s_epik_cmdline>
J2VwaWtfcHl0aG9uJywgJy1waCcsICc3LjAnLCAnLXRuJywgJzgnLCAnLW1hJywgJzIwMCcsICctbWV0YWxfYmluZGluZycsICctaW1hZScsICc8aW5maWxlLm1hZT4nLCAnLW9tYWUnLCAnPG91dGZpbGUubWFlPic=

> <r_lp_tautomer_probability>
1

> <r_epik_Ionization_Penalty>
1.90703e-08

> <r_epik_Ionization_Penalty_Charging>
2.32563e-11

> <r_epik_Ionization_Penalty_Neutral>
1.90471e-08

> <r_epik_State_Penalty>
-0

> <r_epik_Charging_Adjusted_Penalty>
2.32563e-11

> <i_epik_Tot_Q>
0

> <i_epik_Tot_abs_Q>
0

> <r_epik_Metal_State_Penalty>
-0

> <b_epik_Metal_Only>
0

> <s_lp_Force_Field>
OPLS_2005

> <r_lp_Energy>
22.9488

> <b_lp_Chiralities_Consistent>
1

> <s_lp_Variant>
AV-unprocessed.smi:435-2

> <Gold.Version>
5.8.1

> <Gold.Id.Protein>
6NUR|6NUR_protein|mol2

> <Gold.PLP.Fitness>
43.4288

> <Gold.PLP.PLP>
-41.7764

> <Gold.PLP.part.hbond>
-1.0000

> <Gold.PLP.part.metal>
0.0000

> <Gold.PLP.part.buried>
-6.6475

> <Gold.PLP.part.nonpolar>
-33.1628

> <Gold.PLP.part.repulsive>
0.0543

> <Gold.PLP.ligand.clash>
0.0000

> <Gold.PLP.ligand.torsion>
0.6777

> <Gold.PLP.Chemscore.Hbond>
1.0000

> <Gold.PLP.Chemscore.CHOScore>
0.0000

> <Gold.PLP.Chemscore.Metal>
0.0000

> <Gold.Chemscore.Hbonds>
donor molecule, donor type, donor heavy atom, donor atom, acceptor molecule, acceptor atom, score
      P1  H  7997  8009       L1    17  1.00

> <Gold.PLP.Chemscore.Internal.Correction>
0.0078

> <Gold.Rescore>
     Score         DG    S(hbond)    S(metal)    S(lipo)     H(rot)  DE(clash)    DE(int)     intcor
     15.12     -15.78       0.96        0.00      92.50       1.46       0.02       0.64       ----

> <Gold.Chemscore.Fitness>
15.1186

> <Gold.Chemscore.DG>
-15.7809

> <Gold.Chemscore.ZeroCoef>
-5.4800

> <Gold.Chemscore.Hbond>
0.9639

> <Gold.Chemscore.Metal>
0.0000

> <Gold.Chemscore.Lipo>
92.5041

> <Gold.Chemscore.Internal_Hbond>
0.0000

> <Gold.Chemscore.DEClash>
0.0215

> <Gold.Chemscore.DEInternal>
0.6408

> <Gold.Chemscore.Rot>
1.4615

> <Gold.Chemscore.Internal.Correction>
   9.000000E+99

> <Gold.Chemscore.Hbonds>
donor molecule, donor type, donor heavy atom, donor atom, acceptor molecule, acceptor atom, score
      P1  H  7997  8009       L1    17  0.75

> <Gold.Chemscore.Hbond.Weighted>
-3.2193

> <Gold.Chemscore.Metal.Weighted>
-0.0000

> <Gold.Chemscore.Lipo.Weighted>
-10.8230

> <Gold.Chemscore.Internal_Hbond.Weighted>
0.0000

> <Gold.Chemscore.DEClash.Weighted>
0.0215

> <Gold.Chemscore.DEInternal.Weighted>
0.6408

> <Gold.Chemscore.Rot.Weighted>
3.7414

> <Gold.Chemscore.Internal.Correction.Weighted>
   9.000000E+99

> <Gold.Protein.RotatedTorsions>
[ 6907 6896 6895 6894 ] final  -85.49 input  -60.11 | X-H torsion
[ 7974 7965 7964 7962 ] final  130.79 input  175.53 | X-H torsion
[ 8008 7997 7996 7995 ] final  151.36 input   59.86 | X-H torsion
[ 10167 10162 10161 10158 ] final   97.69 input  -65.29 | X-H torsion
[ 10718 10713 10712 10709 ] final   56.10 input   66.30 | X-H torsion
[ 10763 10752 10751 10750 ] final -166.17 input  -60.55 | X-H torsion
[ 11005 11000 10999 10996 ] final   18.91 input  -57.11 | X-H torsion

> <Gold.Protein.ActiveResidues>
 VAL166  LYS551  ARG553  GLY616  TRP617  ASP618  TYR619  PRO620  LYS621  CYS622 
 ASP623  PHE694  ASN695  SER759  ASP760  ASP761  ALA762  ILE779  LEU786  VAL792 
 PHE793  MET794  SER795  GLU796  ALA797  LYS798  CYS799  TRP800  GLU811  SER814 

> <Gold.Protein.RotatedAtoms>
  150.6870  134.3197  159.4781 H   0  0  0  0  0  0  0  0  0  0  0  0  # atno 6907 bound_to 6896
  152.1074  134.9296  160.0577 H   0  0  0  0  0  0  0  0  0  0  0  0  # atno 6908 bound_to 6896
  152.0552  133.4002  159.4431 H   0  0  0  0  0  0  0  0  0  0  0  0  # atno 6909 bound_to 6896
  145.0142  139.4192  143.5230 H   0  0  0  0  0  0  0  0  0  0  0  0  # atno 7974 bound_to 7965
  156.2677  140.2050  156.6163 H   0  0  0  0  0  0  0  0  0  0  0  0  # atno 8008 bound_to 7997
  154.6792  140.0542  157.0272 H   0  0  0  0  0  0  0  0  0  0  0  0  # atno 8009 bound_to 7997
  155.1025  140.3207  155.4546 H   0  0  0  0  0  0  0  0  0  0  0  0  # atno 8010 bound_to 7997
  139.7778  144.6899  151.0065 H   0  0  0  0  0  0  0  0  0  0  0  0  # atno 10167 bound_to 10162
  157.5402  130.8692  149.8811 H   0  0  0  0  0  0  0  0  0  0  0  0  # atno 10718 bound_to 10713
  154.6859  135.2962  154.9548 H   0  0  0  0  0  0  0  0  0  0  0  0  # atno 10763 bound_to 10752
  154.0527  135.6642  153.4806 H   0  0  0  0  0  0  0  0  0  0  0  0  # atno 10764 bound_to 10752
  153.0579  135.5133  154.7926 H   0  0  0  0  0  0  0  0  0  0  0  0  # atno 10765 bound_to 10752
  140.4195  134.1533  155.7672 H   0  0  0  0  0  0  0  0  0  0  0  0  # atno 11005 bound_to 11000
  146.3475  139.9603  142.8718 LP  0  0  0  0  0  0  0  0  0  0  0  0  # atno 17320 bound_to 7965
  145.1982  140.9843  143.4171 LP  0  0  0  0  0  0  0  0  0  0  0  0  # atno 17321 bound_to 7965
  140.7817  143.4517  151.0404 LP  0  0  0  0  0  0  0  0  0  0  0  0  # atno 17342 bound_to 10162
  139.8198  143.7835  152.3176 LP  0  0  0  0  0  0  0  0  0  0  0  0  # atno 17343 bound_to 10162
  156.0490  130.3721  150.1246 LP  0  0  0  0  0  0  0  0  0  0  0  0  # atno 17370 bound_to 10713
  156.9426  130.9749  151.3513 LP  0  0  0  0  0  0  0  0  0  0  0  0  # atno 17371 bound_to 10713
  141.1789  133.8455  157.1325 LP  0  0  0  0  0  0  0  0  0  0  0  0  # atno 17394 bound_to 11000
  140.0210  134.9946  157.0591 LP  0  0  0  0  0  0  0  0  0  0  0  0  # atno 17395 bound_to 11000

$$$$
