AV-unprocessed.smi:2721|AV-procd|sdf|10503|dock3
  -GOLD-   2272014543D 1   1.00000     0.00000
 Structure written by MMmdl.
 29 30  0  0  0  0  0  0  0  0  2 V2000
  151.9113  145.5683  159.0148 C   0  0  0  0  0  0  0  0  0  0  0  0
  151.8864  144.1333  158.8282 N   0  0  0  0  0  0  0  0  0  0  0  0
  151.3836  143.4120  157.7671 C   0  0  0  0  0  0  0  0  0  0  0  0
  151.5885  142.0874  158.0370 C   0  0  0  0  0  0  0  0  0  0  0  0
  151.2063  140.8848  157.2143 C   0  0  2  0  0  0  0  0  0  0  0  0
  152.3773  140.1610  156.8405 O   0  0  0  0  0  0  0  0  0  0  0  0
  152.1129  138.9501  156.1402 C   0  0  0  0  0  0  0  0  0  0  0  0
  151.4056  139.2637  154.8146 C   0  0  0  0  0  0  0  0  0  0  0  0
  150.1236  140.0595  155.0759 C   0  0  0  0  0  0  0  0  0  0  0  0
  150.4370  141.2948  155.9339 C   0  0  1  0  0  0  0  0  0  0  0  0
  149.1934  142.0200  156.2570 N   0  3  0  0  0  0  0  0  0  0  0  0
  152.2324  142.1066  159.3074 C   0  0  0  0  0  0  0  0  0  0  0  0
  152.4081  143.3299  159.7775 N   0  0  0  0  0  0  0  0  0  0  0  0
  150.5781  140.2208  157.8114 H   0  0  0  0  0  0  0  0  0  0  0  0
  151.0627  141.9717  155.3500 H   0  0  0  0  0  0  0  0  0  0  0  0
  151.2788  146.0529  158.2706 H   0  0  0  0  0  0  0  0  0  0  0  0
  152.9324  145.9350  158.9068 H   0  0  0  0  0  0  0  0  0  0  0  0
  151.5429  145.8209  160.0097 H   0  0  0  0  0  0  0  0  0  0  0  0
  150.9247  143.8943  156.9162 H   0  0  0  0  0  0  0  0  0  0  0  0
  153.0577  138.4409  155.9493 H   0  0  0  0  0  0  0  0  0  0  0  0
  151.5104  138.2820  156.7575 H   0  0  0  0  0  0  0  0  0  0  0  0
  152.0729  139.8400  154.1723 H   0  0  0  0  0  0  0  0  0  0  0  0
  151.1762  138.3412  154.2807 H   0  0  0  0  0  0  0  0  0  0  0  0
  149.6676  140.3542  154.1300 H   0  0  0  0  0  0  0  0  0  0  0  0
  149.4007  139.4225  155.5882 H   0  0  0  0  0  0  0  0  0  0  0  0
  148.3953  141.4583  155.9965 H   0  0  0  0  0  0  0  0  0  0  0  0
  149.1701  142.8932  155.7500 H   0  0  0  0  0  0  0  0  0  0  0  0
  152.5711  141.2703  159.9007 H   0  0  0  0  0  0  0  0  0  0  0  0
  149.1628  142.2077  157.2492 H   0  0  0  0  0  0  0  0  0  0  0  0
  1  2  1  0  0  0  0
  1 16  1  0  0  0  0
  1 17  1  0  0  0  0
  1 18  1  0  0  0  0
  2 13  1  0  0  0  0
  2  3  1  0  0  0  0
  3  4  2  0  0  0  0
  3 19  1  0  0  0  0
  4  5  1  0  0  0  0
  4 12  1  0  0  0  0
  5 14  1  0  0  0  0
  5 10  1  0  0  0  0
  5  6  1  0  0  0  0
  6  7  1  0  0  0  0
  7  8  1  0  0  0  0
  7 20  1  0  0  0  0
  7 21  1  0  0  0  0
  8  9  1  0  0  0  0
  8 22  1  0  0  0  0
  8 23  1  0  0  0  0
  9 10  1  0  0  0  0
  9 24  1  0  0  0  0
  9 25  1  0  0  0  0
 10 15  1  0  0  0  0
 10 11  1  0  0  0  0
 11 26  1  0  0  0  0
 11 27  1  0  0  0  0
 11 29  1  0  0  0  0
 12 13  2  0  0  0  0
 12 28  1  0  0  0  0
M  CHG  1  11   1
M  END
> <s_m_source_file>
AV-unprocessed.smi

> <i_m_source_file_index>
2721

> <i_lp_mmshare_version>
43012

> <i_f3d_flags>
0

> <s_epik_input>
W0NIM11uMVtjSF1jKFtjSF1uMSlbQ0BIXTJPW0NIMl1bQ0gyXVtDSDJdW0NAQEhdMltOSDJd

> <s_epik_cmdline>
J2VwaWtfcHl0aG9uJywgJy1waCcsICc3LjAnLCAnLXRuJywgJzgnLCAnLW1hJywgJzIwMCcsICctbWV0YWxfYmluZGluZycsICctaW1hZScsICc8aW5maWxlLm1hZT4nLCAnLW9tYWUnLCAnPG91dGZpbGUubWFlPic=

> <r_lp_tautomer_probability>
1

> <r_epik_Ionization_Penalty>
0.0061467

> <r_epik_Ionization_Penalty_Charging>
0.00611941

> <r_epik_Ionization_Penalty_Neutral>
2.72888e-05

> <r_epik_State_Penalty>
0.00451057

> <r_epik_Charging_Adjusted_Penalty>
0.01063

> <i_epik_Tot_Q>
1

> <i_epik_Tot_abs_Q>
1

> <r_epik_Metal_State_Penalty>
-0

> <b_epik_Metal_Only>
0

> <s_lp_Force_Field>
OPLS_2005

> <r_lp_Energy>
11.0235

> <b_lp_Chiralities_Consistent>
1

> <s_lp_Variant>
AV-unprocessed.smi:2721-4

> <Gold.Version>
5.8.1

> <Gold.Id.Protein>
6NUR|6NUR_protein|mol2

> <Gold.PLP.Fitness>
42.2015

> <Gold.PLP.PLP>
-30.5288

> <Gold.PLP.part.hbond>
-2.0000

> <Gold.PLP.part.metal>
0.0000

> <Gold.PLP.part.buried>
-0.2541

> <Gold.PLP.part.nonpolar>
-27.2808

> <Gold.PLP.part.repulsive>
0.0629

> <Gold.PLP.ligand.clash>
0.0000

> <Gold.PLP.ligand.torsion>
0.0155

> <Gold.PLP.Chemscore.Hbond>
2.9000

> <Gold.PLP.Chemscore.CHOScore>
1.0000

> <Gold.PLP.Chemscore.Metal>
0.0000

> <Gold.Chemscore.Hbonds>
donor molecule, donor type, donor heavy atom, donor atom, acceptor molecule, acceptor atom, score
      L1  H    11    27       P1  8028  2.00
      P1  H  7997  8008       L1     6  0.85
      L1  C     3    19       P1  8028  1.00

> <Gold.PLP.Chemscore.Internal.Correction>
0.0037

> <Gold.Rescore>
     Score         DG    S(hbond)    S(metal)    S(lipo)     H(rot)  DE(clash)    DE(int)     intcor
     14.92     -16.11       1.28        0.00      76.28       1.00       0.13       1.05       ----

> <Gold.Chemscore.Fitness>
14.9245

> <Gold.Chemscore.DG>
-16.1096

> <Gold.Chemscore.ZeroCoef>
-5.4800

> <Gold.Chemscore.Hbond>
1.2768

> <Gold.Chemscore.Metal>
0.0000

> <Gold.Chemscore.Lipo>
76.2821

> <Gold.Chemscore.Internal_Hbond>
0.0000

> <Gold.Chemscore.DEClash>
0.1342

> <Gold.Chemscore.DEInternal>
1.0508

> <Gold.Chemscore.Rot>
1.0000

> <Gold.Chemscore.Internal.Correction>
   9.000000E+99

> <Gold.Chemscore.Hbonds>
donor molecule, donor type, donor heavy atom, donor atom, acceptor molecule, acceptor atom, score
      L1  H    11    27       P1  8028  0.96
      P1  H  7997  8008       L1     6  0.13

> <Gold.Chemscore.Hbond.Weighted>
-4.2646

> <Gold.Chemscore.Metal.Weighted>
-0.0000

> <Gold.Chemscore.Lipo.Weighted>
-8.9250

> <Gold.Chemscore.Internal_Hbond.Weighted>
0.0000

> <Gold.Chemscore.DEClash.Weighted>
0.1342

> <Gold.Chemscore.DEInternal.Weighted>
1.0508

> <Gold.Chemscore.Rot.Weighted>
2.5600

> <Gold.Chemscore.Internal.Correction.Weighted>
   9.000000E+99

> <Gold.Protein.RotatedTorsions>
[ 6907 6896 6895 6894 ] final  111.48 input  -60.11 | X-H torsion
[ 7974 7965 7964 7962 ] final -115.89 input  175.53 | X-H torsion
[ 8008 7997 7996 7995 ] final  -61.39 input   59.86 | X-H torsion
[ 10167 10162 10161 10158 ] final   56.25 input  -65.29 | X-H torsion
[ 10718 10713 10712 10709 ] final -172.55 input   66.30 | X-H torsion
[ 10763 10752 10751 10750 ] final    4.07 input  -60.55 | X-H torsion
[ 11005 11000 10999 10996 ] final   33.74 input  -57.11 | X-H torsion

> <Gold.Protein.ActiveResidues>
 VAL166  LYS551  ARG553  GLY616  TRP617  ASP618  TYR619  PRO620  LYS621  CYS622 
 ASP623  PHE694  ASN695  SER759  ASP760  ASP761  ALA762  ILE779  LEU786  VAL792 
 PHE793  MET794  SER795  GLU796  ALA797  LYS798  CYS799  TRP800  GLU811  SER814 

> <Gold.Protein.RotatedAtoms>
  152.4967  133.8652  159.7269 H   0  0  0  0  0  0  0  0  0  0  0  0  # atno 6907 bound_to 6896
  150.9153  133.6938  159.2851 H   0  0  0  0  0  0  0  0  0  0  0  0  # atno 6908 bound_to 6896
  151.4334  135.1016  159.9701 H   0  0  0  0  0  0  0  0  0  0  0  0  # atno 6909 bound_to 6896
  145.1031  140.8564  143.3914 H   0  0  0  0  0  0  0  0  0  0  0  0  # atno 7974 bound_to 7965
  154.4445  140.1019  156.6423 H   0  0  0  0  0  0  0  0  0  0  0  0  # atno 8008 bound_to 7997
  155.5488  140.3485  155.4445 H   0  0  0  0  0  0  0  0  0  0  0  0  # atno 8009 bound_to 7997
  156.0544  140.1311  157.0003 H   0  0  0  0  0  0  0  0  0  0  0  0  # atno 8010 bound_to 7997
  140.2107  144.3892  150.6490 H   0  0  0  0  0  0  0  0  0  0  0  0  # atno 10167 bound_to 10162
  156.7572  130.9400  151.3117 H   0  0  0  0  0  0  0  0  0  0  0  0  # atno 10718 bound_to 10713
  153.2756  135.6936  153.7436 H   0  0  0  0  0  0  0  0  0  0  0  0  # atno 10763 bound_to 10752
  153.6443  135.3388  155.3081 H   0  0  0  0  0  0  0  0  0  0  0  0  # atno 10764 bound_to 10752
  154.8478  135.4439  154.1793 H   0  0  0  0  0  0  0  0  0  0  0  0  # atno 10765 bound_to 10752
  140.2600  134.3203  155.7861 H   0  0  0  0  0  0  0  0  0  0  0  0  # atno 11005 bound_to 11000
  145.0932  139.2875  143.5724 LP  0  0  0  0  0  0  0  0  0  0  0  0  # atno 17320 bound_to 7965
  146.3529  140.0476  142.8638 LP  0  0  0  0  0  0  0  0  0  0  0  0  # atno 17321 bound_to 7965
  140.6325  143.2190  151.6464 LP  0  0  0  0  0  0  0  0  0  0  0  0  # atno 17342 bound_to 10162
  139.5181  144.3295  152.0839 LP  0  0  0  0  0  0  0  0  0  0  0  0  # atno 17343 bound_to 10162
  157.6751  130.9087  150.0130 LP  0  0  0  0  0  0  0  0  0  0  0  0  # atno 17370 bound_to 10713
  156.1362  130.3642  149.9653 LP  0  0  0  0  0  0  0  0  0  0  0  0  # atno 17371 bound_to 10713
  141.2191  133.7404  156.9172 LP  0  0  0  0  0  0  0  0  0  0  0  0  # atno 17394 bound_to 11000
  140.1474  134.9253  157.2547 LP  0  0  0  0  0  0  0  0  0  0  0  0  # atno 17395 bound_to 11000

$$$$
