AV-unprocessed.smi:3338|AV-procd|sdf|12873|dock10
  -GOLD-   2272019273D 1   1.00000     0.00000
 Structure written by MMmdl.
 44 45  0  0  0  0  0  0  0  0  2 V2000
  145.0118  133.0788  149.9738 C   0  0  0  0  0  0  0  0  0  0  0  0
  146.0383  133.6630  150.9546 C   0  0  2  0  0  0  0  0  0  0  0  0
  146.4785  132.6188  151.9948 C   0  0  0  0  0  0  0  0  0  0  0  0
  147.4774  133.2368  152.9814 C   0  0  0  0  0  0  0  0  0  0  0  0
  146.8981  134.5033  153.6316 C   0  0  0  0  0  0  0  0  0  0  0  0
  146.4929  135.4939  152.6014 N   0  3  2  0  0  0  0  0  0  0  0  0
  146.0579  136.7820  153.1964 C   0  0  0  0  0  0  0  0  0  0  0  0
  146.1634  137.9507  152.1975 C   0  0  0  0  0  0  0  0  0  0  0  0
  147.3059  138.8031  152.5020 N   0  0  0  0  0  0  0  0  0  0  0  0
  147.6870  139.1560  153.7401 C   0  0  0  0  0  0  0  0  0  0  0  0
  147.0759  138.8085  154.7516 O   0  0  0  0  0  0  0  0  0  0  0  0
  148.9533  140.0214  153.8441 C   0  0  1  0  0  0  0  0  0  0  0  0
  148.7142  141.3399  154.6066 C   0  0  0  0  0  0  0  0  0  0  0  0
  150.0502  139.2523  154.4208 N   0  0  0  0  0  0  0  0  0  0  0  0
  150.1425  137.8831  154.5694 C   0  0  0  0  0  0  0  0  0  0  0  0
  151.3353  137.6149  155.1775 C   0  0  0  0  0  0  0  0  0  0  0  0
  151.9108  138.9007  155.3742 C   0  0  0  0  0  0  0  0  0  0  0  0
  151.1385  139.8775  154.9280 N   0  0  0  0  0  0  0  0  0  0  0  0
  145.4933  134.9220  151.6590 C   0  0  0  0  0  0  0  0  0  0  0  0
  144.1045  132.7623  150.4898 H   0  0  0  0  0  0  0  0  0  0  0  0
  145.4171  132.2114  149.4518 H   0  0  0  0  0  0  0  0  0  0  0  0
  144.7266  133.8127  149.2197 H   0  0  0  0  0  0  0  0  0  0  0  0
  146.9161  133.9554  150.3761 H   0  0  0  0  0  0  0  0  0  0  0  0
  145.6096  132.2460  152.5393 H   0  0  0  0  0  0  0  0  0  0  0  0
  146.9297  131.7575  151.5001 H   0  0  0  0  0  0  0  0  0  0  0  0
  147.7391  132.5092  153.7505 H   0  0  0  0  0  0  0  0  0  0  0  0
  148.4032  133.4832  152.4598 H   0  0  0  0  0  0  0  0  0  0  0  0
  146.0382  134.2499  154.2538 H   0  0  0  0  0  0  0  0  0  0  0  0
  147.6496  134.9405  154.2903 H   0  0  0  0  0  0  0  0  0  0  0  0
  145.0427  136.6813  153.5837 H   0  0  0  0  0  0  0  0  0  0  0  0
  146.6891  137.0188  154.0543 H   0  0  0  0  0  0  0  0  0  0  0  0
  146.2878  137.5645  151.1853 H   0  0  0  0  0  0  0  0  0  0  0  0
  145.2552  138.5544  152.1877 H   0  0  0  0  0  0  0  0  0  0  0  0
  147.8558  139.1332  151.7217 H   0  0  0  0  0  0  0  0  0  0  0  0
  149.2457  140.2880  152.8270 H   0  0  0  0  0  0  0  0  0  0  0  0
  147.9221  141.9269  154.1402 H   0  0  0  0  0  0  0  0  0  0  0  0
  149.6153  141.9541  154.6106 H   0  0  0  0  0  0  0  0  0  0  0  0
  148.4299  141.1673  155.6453 H   0  0  0  0  0  0  0  0  0  0  0  0
  149.3608  137.2189  154.2316 H   0  0  0  0  0  0  0  0  0  0  0  0
  151.7357  136.6474  155.4421 H   0  0  0  0  0  0  0  0  0  0  0  0
  152.8588  139.1522  155.8268 H   0  0  0  0  0  0  0  0  0  0  0  0
  145.2243  135.6620  150.9056 H   0  0  0  0  0  0  0  0  0  0  0  0
  144.5775  134.6830  152.2025 H   0  0  0  0  0  0  0  0  0  0  0  0
  147.3245  135.6941  152.0645 H   0  0  0  0  0  0  0  0  0  0  0  0
  1  2  1  0  0  0  0
  1 20  1  0  0  0  0
  1 21  1  0  0  0  0
  1 22  1  0  0  0  0
  2 19  1  0  0  0  0
  2  3  1  0  0  0  0
  2 23  1  0  0  0  0
  3  4  1  0  0  0  0
  3 24  1  0  0  0  0
  3 25  1  0  0  0  0
  4  5  1  0  0  0  0
  4 26  1  0  0  0  0
  4 27  1  0  0  0  0
  5  6  1  0  0  0  0
  5 28  1  0  0  0  0
  5 29  1  0  0  0  0
  6  7  1  0  0  0  0
  6 19  1  0  0  0  0
  6 44  1  0  0  0  0
  7  8  1  0  0  0  0
  7 30  1  0  0  0  0
  7 31  1  0  0  0  0
  8  9  1  0  0  0  0
  8 32  1  0  0  0  0
  8 33  1  0  0  0  0
  9 10  1  0  0  0  0
  9 34  1  0  0  0  0
 10 11  2  0  0  0  0
 10 12  1  0  0  0  0
 12 13  1  0  0  0  0
 12 14  1  0  0  0  0
 12 35  1  0  0  0  0
 13 36  1  0  0  0  0
 13 37  1  0  0  0  0
 13 38  1  0  0  0  0
 14 18  1  0  0  0  0
 14 15  1  0  0  0  0
 15 16  2  0  0  0  0
 15 39  1  0  0  0  0
 16 17  1  0  0  0  0
 16 40  1  0  0  0  0
 17 18  2  0  0  0  0
 17 41  1  0  0  0  0
 19 42  1  0  0  0  0
 19 43  1  0  0  0  0
M  CHG  1   6   1
M  END
> <s_m_source_file>
AV-unprocessed.smi

> <i_m_source_file_index>
3338

> <i_lp_mmshare_version>
43012

> <i_f3d_flags>
0

> <s_epik_input>
W0NIM11bQ0BASF0xW0NIMl1bQ0gyXVtDSDJdTihbQ0gyXTEpW0NIMl1bQ0gyXVtOSF1DKD1PKVtDQEhdKFtDSDNdKW4yW2NIXVtjSF1bY0hdbjI=

> <s_epik_cmdline>
J2VwaWtfcHl0aG9uJywgJy1waCcsICc3LjAnLCAnLXRuJywgJzgnLCAnLW1hJywgJzIwMCcsICctbWV0YWxfYmluZGluZycsICctaW1hZScsICc8aW5maWxlLm1hZT4nLCAnLW9tYWUnLCAnPG91dGZpbGUubWFlPic=

> <r_lp_tautomer_probability>
1

> <r_epik_Ionization_Penalty>
0.00225707

> <r_epik_Ionization_Penalty_Charging>
0.00223709

> <r_epik_Ionization_Penalty_Neutral>
1.99775e-05

> <r_epik_State_Penalty>
0.00153978

> <r_epik_Charging_Adjusted_Penalty>
0.00377687

> <i_epik_Tot_Q>
1

> <i_epik_Tot_abs_Q>
1

> <r_epik_Metal_State_Penalty>
-0

> <b_epik_Metal_Only>
0

> <s_lp_Force_Field>
OPLS_2005

> <r_lp_Energy>
19.822

> <b_lp_Chiralities_Consistent>
1

> <s_lp_Variant>
AV-unprocessed.smi:3338-5

> <Gold.Version>
5.8.1

> <Gold.Id.Protein>
6NUR|6NUR_protein|mol2

> <Gold.PLP.Fitness>
47.3379

> <Gold.PLP.PLP>
-35.0850

> <Gold.PLP.part.hbond>
-4.0000

> <Gold.PLP.part.metal>
0.0000

> <Gold.PLP.part.buried>
1.5747

> <Gold.PLP.part.nonpolar>
-32.9319

> <Gold.PLP.part.repulsive>
0.2206

> <Gold.PLP.ligand.clash>
0.0045

> <Gold.PLP.ligand.torsion>
1.2715

> <Gold.PLP.Chemscore.Hbond>
3.8960

> <Gold.PLP.Chemscore.CHOScore>
1.0000

> <Gold.PLP.Chemscore.Metal>
0.0000

> <Gold.Chemscore.Hbonds>
donor molecule, donor type, donor heavy atom, donor atom, acceptor molecule, acceptor atom, score
      L1  H     6    44       P1  7948  2.00
      L1  H     9    34       P1  7957  0.94
      P1  H  7989  7998       L1    18  1.00
      L1  C    15    39       P1  7948  0.85

> <Gold.PLP.Chemscore.Internal.Correction>
0.1125

> <Gold.Rescore>
     Score         DG    S(hbond)    S(metal)    S(lipo)     H(rot)  DE(clash)    DE(int)     intcor
     14.57     -18.85       2.34        0.00      85.84       1.76       1.85       2.43       ----

> <Gold.Chemscore.Fitness>
14.5703

> <Gold.Chemscore.DG>
-18.8536

> <Gold.Chemscore.ZeroCoef>
-5.4800

> <Gold.Chemscore.Hbond>
2.3439

> <Gold.Chemscore.Metal>
0.0000

> <Gold.Chemscore.Lipo>
85.8378

> <Gold.Chemscore.Internal_Hbond>
0.0000

> <Gold.Chemscore.DEClash>
1.8534

> <Gold.Chemscore.DEInternal>
2.4299

> <Gold.Chemscore.Rot>
1.7570

> <Gold.Chemscore.Internal.Correction>
   9.000000E+99

> <Gold.Chemscore.Hbonds>
donor molecule, donor type, donor heavy atom, donor atom, acceptor molecule, acceptor atom, score
      L1  H     6    44       P1  7948  0.98
      L1  H     9    34       P1  7957  0.83
      P1  H  7989  7998       L1    18  0.25

> <Gold.Chemscore.Hbond.Weighted>
-7.8285

> <Gold.Chemscore.Metal.Weighted>
-0.0000

> <Gold.Chemscore.Lipo.Weighted>
-10.0430

> <Gold.Chemscore.Internal_Hbond.Weighted>
0.0000

> <Gold.Chemscore.DEClash.Weighted>
1.8534

> <Gold.Chemscore.DEInternal.Weighted>
2.4299

> <Gold.Chemscore.Rot.Weighted>
4.4979

> <Gold.Chemscore.Internal.Correction.Weighted>
   9.000000E+99

> <Gold.Protein.RotatedTorsions>
[ 6907 6896 6895 6894 ] final   93.88 input  -60.11 | X-H torsion
[ 7974 7965 7964 7962 ] final  141.77 input  175.53 | X-H torsion
[ 8008 7997 7996 7995 ] final  112.47 input   59.86 | X-H torsion
[ 10167 10162 10161 10158 ] final -133.18 input  -65.29 | X-H torsion
[ 10718 10713 10712 10709 ] final   83.49 input   66.30 | X-H torsion
[ 10763 10752 10751 10750 ] final  -37.12 input  -60.55 | X-H torsion
[ 11005 11000 10999 10996 ] final  118.24 input  -57.11 | X-H torsion

> <Gold.Protein.ActiveResidues>
 VAL166  LYS551  ARG553  GLY616  TRP617  ASP618  TYR619  PRO620  LYS621  CYS622 
 ASP623  PHE694  ASN695  SER759  ASP760  ASP761  ALA762  ILE779  LEU786  VAL792 
 PHE793  MET794  SER795  GLU796  ALA797  LYS798  CYS799  TRP800  GLU811  SER814 

> <Gold.Protein.RotatedAtoms>
  152.5451  134.1280  159.8426 H   0  0  0  0  0  0  0  0  0  0  0  0  # atno 6907 bound_to 6896
  151.1328  133.5017  159.2606 H   0  0  0  0  0  0  0  0  0  0  0  0  # atno 6908 bound_to 6896
  151.1656  135.0304  159.8784 H   0  0  0  0  0  0  0  0  0  0  0  0  # atno 6909 bound_to 6896
  144.9067  139.5348  143.5728 H   0  0  0  0  0  0  0  0  0  0  0  0  # atno 7974 bound_to 7965
  156.2194  140.2999  155.9917 H   0  0  0  0  0  0  0  0  0  0  0  0  # atno 8008 bound_to 7997
  155.2521  140.0426  157.3005 H   0  0  0  0  0  0  0  0  0  0  0  0  # atno 8009 bound_to 7997
  154.5817  140.2377  155.8052 H   0  0  0  0  0  0  0  0  0  0  0  0  # atno 8010 bound_to 7997
  139.9009  143.6608  152.2595 H   0  0  0  0  0  0  0  0  0  0  0  0  # atno 10167 bound_to 10162
  157.6880  131.0093  150.2531 H   0  0  0  0  0  0  0  0  0  0  0  0  # atno 10718 bound_to 10713
  153.8910  135.6812  153.4760 H   0  0  0  0  0  0  0  0  0  0  0  0  # atno 10763 bound_to 10752
  153.1181  135.4752  154.9147 H   0  0  0  0  0  0  0  0  0  0  0  0  # atno 10764 bound_to 10752
  154.7622  135.3214  154.8308 H   0  0  0  0  0  0  0  0  0  0  0  0  # atno 10765 bound_to 10752
  139.9102  134.9618  156.7473 H   0  0  0  0  0  0  0  0  0  0  0  0  # atno 11005 bound_to 11000
  146.3137  139.7841  142.9000 LP  0  0  0  0  0  0  0  0  0  0  0  0  # atno 17320 bound_to 7965
  145.3524  141.0310  143.3331 LP  0  0  0  0  0  0  0  0  0  0  0  0  # atno 17321 bound_to 7965
  139.7026  144.7633  151.1247 LP  0  0  0  0  0  0  0  0  0  0  0  0  # atno 17342 bound_to 10162
  140.7707  143.5437  150.9283 LP  0  0  0  0  0  0  0  0  0  0  0  0  # atno 17343 bound_to 10162
  156.3124  130.3774  149.7649 LP  0  0  0  0  0  0  0  0  0  0  0  0  # atno 17370 bound_to 10713
  156.5245  130.8230  151.3215 LP  0  0  0  0  0  0  0  0  0  0  0  0  # atno 17371 bound_to 10713
  140.6802  133.9482  155.7906 LP  0  0  0  0  0  0  0  0  0  0  0  0  # atno 17394 bound_to 11000
  141.0516  134.0477  157.3776 LP  0  0  0  0  0  0  0  0  0  0  0  0  # atno 17395 bound_to 11000

$$$$
