AV-unprocessed.smi:3067|AV-procd|sdf|11694|dock2
  -GOLD-   2272017 93D 1   1.00000     0.00000
 Structure written by MMmdl.
 34 35  0  0  0  0  0  0  0  0  1 V2000
  145.5464  136.4407  151.6632 C   0  0  0  0  0  0  0  0  0  0  0  0
  145.9753  135.1686  152.1228 O   0  0  0  0  0  0  0  0  0  0  0  0
  145.7011  134.0979  151.2259 C   0  0  2  0  0  0  0  0  0  0  0  0
  144.1731  133.9336  151.0749 C   0  0  0  0  0  0  0  0  0  0  0  0
  143.8130  132.6958  150.2407 C   0  0  0  0  0  0  0  0  0  0  0  0
  144.4429  131.4294  150.8358 C   0  0  0  0  0  0  0  0  0  0  0  0
  145.9643  131.5848  150.9705 C   0  0  0  0  0  0  0  0  0  0  0  0
  146.3380  132.8207  151.8177 C   0  0  1  0  0  0  0  0  0  0  0  0
  147.7870  132.9696  151.8950 N   0  0  0  0  0  0  0  0  0  0  0  0
  148.5055  132.7489  153.0800 C   0  0  0  0  0  0  0  0  0  0  0  0
  148.9701  131.4786  153.4944 C   0  0  0  0  0  0  0  0  0  0  0  0
  149.6787  131.3712  154.7065 C   0  0  0  0  0  0  0  0  0  0  0  0
  149.8998  132.5379  155.4679 C   0  0  0  0  0  0  0  0  0  0  0  0
  150.6268  132.4479  156.7226 C   0  0  0  0  0  0  0  0  0  0  0  0
  151.2053  132.3762  157.7224 N   0  0  0  0  0  0  0  0  0  0  0  0
  149.4607  133.7551  155.0815 N   0  0  0  0  0  0  0  0  0  0  0  0
  148.7827  133.8497  153.9178 C   0  0  0  0  0  0  0  0  0  0  0  0
  145.8223  137.2007  152.3940 H   0  0  0  0  0  0  0  0  0  0  0  0
  144.4654  136.4839  151.5336 H   0  0  0  0  0  0  0  0  0  0  0  0
  146.0235  136.6998  150.7175 H   0  0  0  0  0  0  0  0  0  0  0  0
  146.1492  134.2943  150.2494 H   0  0  0  0  0  0  0  0  0  0  0  0
  143.7174  133.8482  152.0623 H   0  0  0  0  0  0  0  0  0  0  0  0
  143.7353  134.8161  150.6094 H   0  0  0  0  0  0  0  0  0  0  0  0
  142.7295  132.5837  150.1904 H   0  0  0  0  0  0  0  0  0  0  0  0
  144.1589  132.8312  149.2151 H   0  0  0  0  0  0  0  0  0  0  0  0
  144.0068  131.2267  151.8147 H   0  0  0  0  0  0  0  0  0  0  0  0
  144.2108  130.5687  150.2078 H   0  0  0  0  0  0  0  0  0  0  0  0
  146.3803  130.6777  151.4088 H   0  0  0  0  0  0  0  0  0  0  0  0
  146.4066  131.6725  149.9769 H   0  0  0  0  0  0  0  0  0  0  0  0
  145.9403  132.6953  152.8252 H   0  0  0  0  0  0  0  0  0  0  0  0
  148.2682  133.3473  151.0912 H   0  0  0  0  0  0  0  0  0  0  0  0
  148.7987  130.5889  152.9080 H   0  0  0  0  0  0  0  0  0  0  0  0
  150.0421  130.4100  155.0405 H   0  0  0  0  0  0  0  0  0  0  0  0
  148.4491  134.8412  153.6483 H   0  0  0  0  0  0  0  0  0  0  0  0
  1  2  1  0  0  0  0
  1 18  1  0  0  0  0
  1 19  1  0  0  0  0
  1 20  1  0  0  0  0
  2  3  1  0  0  0  0
  3  8  1  0  0  0  0
  3  4  1  0  0  0  0
  3 21  1  0  0  0  0
  4  5  1  0  0  0  0
  4 22  1  0  0  0  0
  4 23  1  0  0  0  0
  5  6  1  0  0  0  0
  5 24  1  0  0  0  0
  5 25  1  0  0  0  0
  6  7  1  0  0  0  0
  6 26  1  0  0  0  0
  6 27  1  0  0  0  0
  7  8  1  0  0  0  0
  7 28  1  0  0  0  0
  7 29  1  0  0  0  0
  8  9  1  0  0  0  0
  8 30  1  0  0  0  0
  9 10  1  0  0  0  0
  9 31  1  0  0  0  0
 10 17  1  0  0  0  0
 10 11  2  0  0  0  0
 11 12  1  0  0  0  0
 11 32  1  0  0  0  0
 12 13  2  0  0  0  0
 12 33  1  0  0  0  0
 13 14  1  0  0  0  0
 13 16  1  0  0  0  0
 14 15  3  0  0  0  0
 16 17  2  0  0  0  0
 17 34  1  0  0  0  0
M  END
> <s_m_source_file>
AV-unprocessed.smi

> <i_m_source_file_index>
3067

> <i_lp_mmshare_version>
43012

> <i_f3d_flags>
0

> <s_epik_input>
W0NIM11PW0NAQEhdMVtDSDJdW0NIMl1bQ0gyXVtDSDJdW0NASF0xW05IXWMyW2NIXVtjSF1jKEMjTiluW2NIXTI=

> <s_epik_cmdline>
J2VwaWtfcHl0aG9uJywgJy1waCcsICc3LjAnLCAnLXRuJywgJzgnLCAnLW1hJywgJzIwMCcsICctbWV0YWxfYmluZGluZycsICctaW1hZScsICc8aW5maWxlLm1hZT4nLCAnLW9tYWUnLCAnPG91dGZpbGUubWFlPic=

> <r_lp_tautomer_probability>
1

> <r_epik_Ionization_Penalty>
2.01011e-07

> <r_epik_Ionization_Penalty_Charging>
0

> <r_epik_Ionization_Penalty_Neutral>
2.01011e-07

> <r_epik_State_Penalty>
-0

> <r_epik_Charging_Adjusted_Penalty>
0

> <i_epik_Tot_Q>
0

> <i_epik_Tot_abs_Q>
0

> <r_epik_Metal_State_Penalty>
-0

> <b_epik_Metal_Only>
0

> <s_lp_Force_Field>
OPLS_2005

> <r_lp_Energy>
16.9027

> <b_lp_Chiralities_Consistent>
1

> <s_lp_Variant>
AV-unprocessed.smi:3067-1

> <Gold.Version>
5.8.1

> <Gold.Id.Protein>
6NUR|6NUR_protein|mol2

> <Gold.PLP.Fitness>
38.3705

> <Gold.PLP.PLP>
-34.0190

> <Gold.PLP.part.hbond>
-2.0000

> <Gold.PLP.part.metal>
0.0000

> <Gold.PLP.part.buried>
-3.3192

> <Gold.PLP.part.nonpolar>
-28.6158

> <Gold.PLP.part.repulsive>
0.2960

> <Gold.PLP.ligand.clash>
0.0000

> <Gold.PLP.ligand.torsion>
0.8277

> <Gold.PLP.Chemscore.Hbond>
1.0000

> <Gold.PLP.Chemscore.CHOScore>
1.0000

> <Gold.PLP.Chemscore.Metal>
0.0000

> <Gold.Chemscore.Hbonds>
donor molecule, donor type, donor heavy atom, donor atom, acceptor molecule, acceptor atom, score
      P1  H  6896  6908       L1    15  1.00
      L1  C    17    34       P1  7948  1.00

> <Gold.PLP.Chemscore.Internal.Correction>
0.0068

> <Gold.Rescore>
     Score         DG    S(hbond)    S(metal)    S(lipo)     H(rot)  DE(clash)    DE(int)     intcor
     14.57     -15.42       1.00        0.00      82.69       1.20       0.05       0.80       ----

> <Gold.Chemscore.Fitness>
14.5690

> <Gold.Chemscore.DG>
-15.4199

> <Gold.Chemscore.ZeroCoef>
-5.4800

> <Gold.Chemscore.Hbond>
0.9999

> <Gold.Chemscore.Metal>
0.0000

> <Gold.Chemscore.Lipo>
82.6929

> <Gold.Chemscore.Internal_Hbond>
0.0000

> <Gold.Chemscore.DEClash>
0.0462

> <Gold.Chemscore.DEInternal>
0.8048

> <Gold.Chemscore.Rot>
1.2012

> <Gold.Chemscore.Internal.Correction>
   9.000000E+99

> <Gold.Chemscore.Hbonds>
donor molecule, donor type, donor heavy atom, donor atom, acceptor molecule, acceptor atom, score
      P1  H  6896  6908       L1    15  1.00

> <Gold.Chemscore.Hbond.Weighted>
-3.3398

> <Gold.Chemscore.Metal.Weighted>
-0.0000

> <Gold.Chemscore.Lipo.Weighted>
-9.6751

> <Gold.Chemscore.Internal_Hbond.Weighted>
0.0000

> <Gold.Chemscore.DEClash.Weighted>
0.0462

> <Gold.Chemscore.DEInternal.Weighted>
0.8048

> <Gold.Chemscore.Rot.Weighted>
3.0750

> <Gold.Chemscore.Internal.Correction.Weighted>
   9.000000E+99

> <Gold.Protein.RotatedTorsions>
[ 6907 6896 6895 6894 ] final   73.11 input  -60.11 | X-H torsion
[ 7974 7965 7964 7962 ] final  174.23 input  175.53 | X-H torsion
[ 8008 7997 7996 7995 ] final -106.35 input   59.86 | X-H torsion
[ 10167 10162 10161 10158 ] final    8.48 input  -65.29 | X-H torsion
[ 10718 10713 10712 10709 ] final  -25.62 input   66.30 | X-H torsion
[ 10763 10752 10751 10750 ] final   39.34 input  -60.55 | X-H torsion
[ 11005 11000 10999 10996 ] final   -3.10 input  -57.11 | X-H torsion

> <Gold.Protein.ActiveResidues>
 VAL166  LYS551  ARG553  GLY616  TRP617  ASP618  TYR619  PRO620  LYS621  CYS622 
 ASP623  PHE694  ASN695  SER759  ASP760  ASP761  ALA762  ILE779  LEU786  VAL792 
 PHE793  MET794  SER795  GLU796  ALA797  LYS798  CYS799  TRP800  GLU811  SER814 

> <Gold.Protein.RotatedAtoms>
  152.4905  134.4470  159.9561 H   0  0  0  0  0  0  0  0  0  0  0  0  # atno 6907 bound_to 6896
  151.4458  133.3625  159.2796 H   0  0  0  0  0  0  0  0  0  0  0  0  # atno 6908 bound_to 6896
  150.9056  134.8494  159.7450 H   0  0  0  0  0  0  0  0  0  0  0  0  # atno 6909 bound_to 6896
  144.7226  139.9766  143.6438 H   0  0  0  0  0  0  0  0  0  0  0  0  # atno 7974 bound_to 7965
  154.9132  140.0409  157.1957 H   0  0  0  0  0  0  0  0  0  0  0  0  # atno 8008 bound_to 7997
  154.8327  140.2902  155.5690 H   0  0  0  0  0  0  0  0  0  0  0  0  # atno 8009 bound_to 7997
  156.2988  140.2497  156.3256 H   0  0  0  0  0  0  0  0  0  0  0  0  # atno 8010 bound_to 7997
  140.6311  143.7990  150.7297 H   0  0  0  0  0  0  0  0  0  0  0  0  # atno 10167 bound_to 10162
  156.4620  130.4506  149.6923 H   0  0  0  0  0  0  0  0  0  0  0  0  # atno 10718 bound_to 10713
  152.9970  135.6223  154.2449 H   0  0  0  0  0  0  0  0  0  0  0  0  # atno 10763 bound_to 10752
  154.2189  135.2796  155.2933 H   0  0  0  0  0  0  0  0  0  0  0  0  # atno 10764 bound_to 10752
  154.5545  135.5723  153.7010 H   0  0  0  0  0  0  0  0  0  0  0  0  # atno 10765 bound_to 10752
  140.6656  133.9282  155.8463 H   0  0  0  0  0  0  0  0  0  0  0  0  # atno 11005 bound_to 11000
  146.0521  139.3521  143.0633 LP  0  0  0  0  0  0  0  0  0  0  0  0  # atno 17320 bound_to 7965
  145.8202  140.9683  143.0903 LP  0  0  0  0  0  0  0  0  0  0  0  0  # atno 17321 bound_to 7965
  140.1602  143.4282  152.2072 LP  0  0  0  0  0  0  0  0  0  0  0  0  # atno 17342 bound_to 10162
  139.5526  144.7349  151.4390 LP  0  0  0  0  0  0  0  0  0  0  0  0  # atno 17343 bound_to 10162
  156.3707  130.7529  151.2512 LP  0  0  0  0  0  0  0  0  0  0  0  0  # atno 17370 bound_to 10713
  157.7497  131.0324  150.4224 LP  0  0  0  0  0  0  0  0  0  0  0  0  # atno 17371 bound_to 10713
  141.0432  134.0592  157.3877 LP  0  0  0  0  0  0  0  0  0  0  0  0  # atno 17394 bound_to 11000
  139.8998  135.0160  156.7214 LP  0  0  0  0  0  0  0  0  0  0  0  0  # atno 17395 bound_to 11000

$$$$
