AV-unprocessed.smi:1419|AV-procd|sdf|5776|dock5
  -GOLD-   22720 5423D 1   1.00000     0.00000
 Structure written by MMmdl.
 42 43  0  0  0  0  0  0  0  0  2 V2000
  150.4416  133.6634  155.2863 C   0  0  0  0  0  0  0  0  0  0  0  0
  149.2550  134.6057  155.0451 C   0  0  2  0  0  0  0  0  0  0  0  0
  148.2785  134.0215  154.0021 C   0  0  0  0  0  0  0  0  0  0  0  0
  147.2009  133.2316  154.6084 N   0  0  0  0  0  0  0  0  0  0  0  0
  147.3323  132.1408  155.4291 C   0  0  0  0  0  0  0  0  0  0  0  0
  146.0618  131.7439  155.7582 C   0  0  0  0  0  0  0  0  0  0  0  0
  145.2091  132.6029  155.1182 N   0  3  0  0  0  0  0  0  0  0  0  0
  145.9034  133.5045  154.4160 C   0  0  0  0  0  0  0  0  0  0  0  0
  149.7645  135.9058  154.6113 N   0  0  0  0  0  0  0  0  0  0  0  0
  150.7852  136.5815  155.1676 C   0  0  0  0  0  0  0  0  0  0  0  0
  151.4324  136.1324  156.1145 O   0  0  0  0  0  0  0  0  0  0  0  0
  151.0411  137.7862  154.6008 N   0  0  0  0  0  0  0  0  0  0  0  0
  150.0666  138.6884  153.9741 C   0  0  0  0  0  0  0  0  0  0  0  0
  149.8369  139.8781  154.9261 C   0  0  2  0  0  0  0  0  0  0  0  0
  148.8750  140.9136  154.3339 C   0  0  0  0  0  0  0  0  0  0  0  0
  151.0835  140.5303  155.1828 O   0  0  0  0  0  0  0  0  0  0  0  0
  152.1320  139.6966  155.6874 C   0  0  1  0  0  0  0  0  0  0  0  0
  151.8942  139.3329  157.1641 C   0  0  0  0  0  0  0  0  0  0  0  0
  152.3233  138.4762  154.7607 C   0  0  0  0  0  0  0  0  0  0  0  0
  150.1032  132.6887  155.6389 H   0  0  0  0  0  0  0  0  0  0  0  0
  151.1172  134.0679  156.0408 H   0  0  0  0  0  0  0  0  0  0  0  0
  151.0176  133.5053  154.3737 H   0  0  0  0  0  0  0  0  0  0  0  0
  148.7316  134.7119  155.9971 H   0  0  0  0  0  0  0  0  0  0  0  0
  147.8349  134.8143  153.3969 H   0  0  0  0  0  0  0  0  0  0  0  0
  148.8101  133.3611  153.3157 H   0  0  0  0  0  0  0  0  0  0  0  0
  148.2952  131.7444  155.7176 H   0  0  0  0  0  0  0  0  0  0  0  0
  145.7103  130.9358  156.3833 H   0  0  0  0  0  0  0  0  0  0  0  0
  145.4954  134.3022  153.8210 H   0  0  0  0  0  0  0  0  0  0  0  0
  149.2964  136.3342  153.8258 H   0  0  0  0  0  0  0  0  0  0  0  0
  150.4643  139.0406  153.0210 H   0  0  0  0  0  0  0  0  0  0  0  0
  149.1155  138.2133  153.7342 H   0  0  0  0  0  0  0  0  0  0  0  0
  149.4130  139.5188  155.8646 H   0  0  0  0  0  0  0  0  0  0  0  0
  147.8987  140.4729  154.1308 H   0  0  0  0  0  0  0  0  0  0  0  0
  149.2603  141.3203  153.3984 H   0  0  0  0  0  0  0  0  0  0  0  0
  148.7270  141.7453  155.0232 H   0  0  0  0  0  0  0  0  0  0  0  0
  153.0443  140.2925  155.6478 H   0  0  0  0  0  0  0  0  0  0  0  0
  152.7354  138.7656  157.5627 H   0  0  0  0  0  0  0  0  0  0  0  0
  150.9998  138.7285  157.3031 H   0  0  0  0  0  0  0  0  0  0  0  0
  151.7845  140.2314  157.7713 H   0  0  0  0  0  0  0  0  0  0  0  0
  153.1108  137.8269  155.1467 H   0  0  0  0  0  0  0  0  0  0  0  0
  152.6711  138.8076  153.7811 H   0  0  0  0  0  0  0  0  0  0  0  0
  144.1986  132.5641  155.1683 H   0  0  0  0  0  0  0  0  0  0  0  0
  1  2  1  0  0  0  0
  1 20  1  0  0  0  0
  1 21  1  0  0  0  0
  1 22  1  0  0  0  0
  2  3  1  0  0  0  0
  2  9  1  0  0  0  0
  2 23  1  0  0  0  0
  3  4  1  0  0  0  0
  3 24  1  0  0  0  0
  3 25  1  0  0  0  0
  4  8  1  0  0  0  0
  4  5  1  0  0  0  0
  5  6  2  0  0  0  0
  5 26  1  0  0  0  0
  6  7  1  0  0  0  0
  6 27  1  0  0  0  0
  7  8  2  0  0  0  0
  7 42  1  0  0  0  0
  8 28  1  0  0  0  0
  9 10  1  0  0  0  0
  9 29  1  0  0  0  0
 10 11  2  0  0  0  0
 10 12  1  0  0  0  0
 12 19  1  0  0  0  0
 12 13  1  0  0  0  0
 13 14  1  0  0  0  0
 13 30  1  0  0  0  0
 13 31  1  0  0  0  0
 14 15  1  0  0  0  0
 14 16  1  0  0  0  0
 14 32  1  0  0  0  0
 15 33  1  0  0  0  0
 15 34  1  0  0  0  0
 15 35  1  0  0  0  0
 16 17  1  0  0  0  0
 17 18  1  0  0  0  0
 17 19  1  0  0  0  0
 17 36  1  0  0  0  0
 18 37  1  0  0  0  0
 18 38  1  0  0  0  0
 18 39  1  0  0  0  0
 19 40  1  0  0  0  0
 19 41  1  0  0  0  0
M  CHG  1   7   1
M  END
> <s_m_source_file>
AV-unprocessed.smi

> <i_m_source_file_index>
1419

> <i_lp_mmshare_version>
43012

> <i_f3d_flags>
0

> <s_epik_input>
W2NIXTFuW2NIXVtjSF1uMVtDSDJdW0NAQEhdKFtDSDNdKVtOSF1DKD1PKU4yW0NIMl1bQ0BASF0oW0NIM10pT1tDQEBIXShbQ0gzXSlbQ0gyXTI=

> <s_epik_cmdline>
J2VwaWtfcHl0aG9uJywgJy1waCcsICc3LjAnLCAnLXRuJywgJzgnLCAnLW1hJywgJzIwMCcsICctbWV0YWxfYmluZGluZycsICctaW1hZScsICc8aW5maWxlLm1hZT4nLCAnLW9tYWUnLCAnPG91dGZpbGUubWFlPic=

> <r_lp_tautomer_probability>
1

> <r_epik_Ionization_Penalty>
0.253607

> <r_epik_Ionization_Penalty_Charging>
0

> <r_epik_Ionization_Penalty_Neutral>
0.253607

> <r_epik_State_Penalty>
0.245018

> <r_epik_Charging_Adjusted_Penalty>
0.245018

> <i_epik_Tot_Q>
1

> <i_epik_Tot_abs_Q>
1

> <r_epik_Metal_State_Penalty>
0.535379

> <b_epik_Metal_Only>
0

> <s_lp_Force_Field>
OPLS_2005

> <r_lp_Energy>
31.3779

> <b_lp_Chiralities_Consistent>
1

> <s_lp_Variant>
AV-unprocessed.smi:1419-3

> <Gold.Version>
5.8.1

> <Gold.Id.Protein>
6NUR|6NUR_protein|mol2

> <Gold.PLP.Fitness>
43.0057

> <Gold.PLP.PLP>
-30.4156

> <Gold.PLP.part.hbond>
-4.0000

> <Gold.PLP.part.metal>
0.0000

> <Gold.PLP.part.buried>
-1.9580

> <Gold.PLP.part.nonpolar>
-24.2954

> <Gold.PLP.part.repulsive>
0.1122

> <Gold.PLP.ligand.clash>
0.0000

> <Gold.PLP.ligand.torsion>
0.8687

> <Gold.PLP.Chemscore.Hbond>
4.7580

> <Gold.PLP.Chemscore.CHOScore>
0.0000

> <Gold.PLP.Chemscore.Metal>
0.0000

> <Gold.Chemscore.Hbonds>
donor molecule, donor type, donor heavy atom, donor atom, acceptor molecule, acceptor atom, score
      L1  H     7    42       P1 10957  1.98
      L1  H     9    29       P1  7948  0.88
      P1  H  7989  7998       L1    16  0.96
      P1  H 10752 10764       L1    11  0.69

> <Gold.PLP.Chemscore.Internal.Correction>
0.0536

> <Gold.Rescore>
     Score         DG    S(hbond)    S(metal)    S(lipo)     H(rot)  DE(clash)    DE(int)     intcor
     13.97     -16.69       2.48        0.00      60.57       1.63       0.12       2.60       ----

> <Gold.Chemscore.Fitness>
13.9684

> <Gold.Chemscore.DG>
-16.6935

> <Gold.Chemscore.ZeroCoef>
-5.4800

> <Gold.Chemscore.Hbond>
2.4829

> <Gold.Chemscore.Metal>
0.0000

> <Gold.Chemscore.Lipo>
60.5686

> <Gold.Chemscore.Internal_Hbond>
0.0000

> <Gold.Chemscore.DEClash>
0.1229

> <Gold.Chemscore.DEInternal>
2.6023

> <Gold.Chemscore.Rot>
1.6273

> <Gold.Chemscore.Internal.Correction>
   9.000000E+99

> <Gold.Chemscore.Hbonds>
donor molecule, donor type, donor heavy atom, donor atom, acceptor molecule, acceptor atom, score
      L1  H     7    42       P1 10957  0.94
      L1  H     9    29       P1  7948  0.77
      P1  H  7989  7998       L1    16  0.11
      P1  H 10752 10764       L1    11  0.12

> <Gold.Chemscore.Hbond.Weighted>
-8.2928

> <Gold.Chemscore.Metal.Weighted>
-0.0000

> <Gold.Chemscore.Lipo.Weighted>
-7.0865

> <Gold.Chemscore.Internal_Hbond.Weighted>
0.0000

> <Gold.Chemscore.DEClash.Weighted>
0.1229

> <Gold.Chemscore.DEInternal.Weighted>
2.6023

> <Gold.Chemscore.Rot.Weighted>
4.1658

> <Gold.Chemscore.Internal.Correction.Weighted>
   9.000000E+99

> <Gold.Protein.RotatedTorsions>
[ 6907 6896 6895 6894 ] final -162.98 input  -60.11 | X-H torsion
[ 7974 7965 7964 7962 ] final   96.30 input  175.53 | X-H torsion
[ 8008 7997 7996 7995 ] final  -71.64 input   59.86 | X-H torsion
[ 10167 10162 10161 10158 ] final   54.14 input  -65.29 | X-H torsion
[ 10718 10713 10712 10709 ] final   -0.22 input   66.30 | X-H torsion
[ 10763 10752 10751 10750 ] final  -33.51 input  -60.55 | X-H torsion
[ 11005 11000 10999 10996 ] final -169.83 input  -57.11 | X-H torsion

> <Gold.Protein.ActiveResidues>
 VAL166  LYS551  ARG553  GLY616  TRP617  ASP618  TYR619  PRO620  LYS621  CYS622 
 ASP623  PHE694  ASN695  SER759  ASP760  ASP761  ALA762  ILE779  LEU786  VAL792 
 PHE793  MET794  SER795  GLU796  ALA797  LYS798  CYS799  TRP800  GLU811  SER814 

> <Gold.Protein.RotatedAtoms>
  151.3888  133.3796  159.2718 H   0  0  0  0  0  0  0  0  0  0  0  0  # atno 6907 bound_to 6896
  150.9521  134.8921  159.7689 H   0  0  0  0  0  0  0  0  0  0  0  0  # atno 6908 bound_to 6896
  152.5116  134.3843  159.9414 H   0  0  0  0  0  0  0  0  0  0  0  0  # atno 6909 bound_to 6896
  145.4406  139.2301  143.3094 H   0  0  0  0  0  0  0  0  0  0  0  0  # atno 7974 bound_to 7965
  154.5103  140.0812  156.7977 H   0  0  0  0  0  0  0  0  0  0  0  0  # atno 8008 bound_to 7997
  155.3799  140.3427  155.4228 H   0  0  0  0  0  0  0  0  0  0  0  0  # atno 8009 bound_to 7997
  156.1565  140.1575  156.8671 H   0  0  0  0  0  0  0  0  0  0  0  0  # atno 8010 bound_to 7997
  140.2332  144.3664  150.6406 H   0  0  0  0  0  0  0  0  0  0  0  0  # atno 10167 bound_to 10162
  156.8236  130.5465  149.5694 H   0  0  0  0  0  0  0  0  0  0  0  0  # atno 10718 bound_to 10713
  153.8314  135.6866  153.4814 H   0  0  0  0  0  0  0  0  0  0  0  0  # atno 10763 bound_to 10752
  153.1509  135.4618  154.9633 H   0  0  0  0  0  0  0  0  0  0  0  0  # atno 10764 bound_to 10752
  154.7885  135.3293  154.7777 H   0  0  0  0  0  0  0  0  0  0  0  0  # atno 10765 bound_to 10752
  140.5264  134.5659  157.5062 H   0  0  0  0  0  0  0  0  0  0  0  0  # atno 11005 bound_to 11000
  146.2558  140.5154  142.8874 LP  0  0  0  0  0  0  0  0  0  0  0  0  # atno 17320 bound_to 7965
  144.8124  140.6408  143.6407 LP  0  0  0  0  0  0  0  0  0  0  0  0  # atno 17321 bound_to 7965
  140.6169  143.2173  151.6773 LP  0  0  0  0  0  0  0  0  0  0  0  0  # atno 17342 bound_to 10162
  139.5102  144.3549  152.0617 LP  0  0  0  0  0  0  0  0  0  0  0  0  # atno 17343 bound_to 10162
  156.0974  130.5943  150.9837 LP  0  0  0  0  0  0  0  0  0  0  0  0  # atno 17370 bound_to 10713
  157.6444  131.0906  150.8185 LP  0  0  0  0  0  0  0  0  0  0  0  0  # atno 17371 bound_to 10713
  139.9578  134.7505  156.0303 LP  0  0  0  0  0  0  0  0  0  0  0  0  # atno 17394 bound_to 11000
  141.1306  133.6587  156.3454 LP  0  0  0  0  0  0  0  0  0  0  0  0  # atno 17395 bound_to 11000

$$$$
