AV-unprocessed.smi:244|AV-procd|sdf|1870|dock3
  -GOLD-   2262020513D 1   1.00000     0.00000
 Structure written by MMmdl.
 57 61  0  0  0  0  0  0  0  0  2 V2000
  149.4767  143.6363  159.1186 C   0  0  0  0  0  0  0  0  0  0  0  0
  150.2872  143.3818  157.9052 N   0  3  1  0  0  0  0  0  0  0  0  0
  151.7452  143.5848  158.1103 C   0  0  0  0  0  0  0  0  0  0  0  0
  152.3962  142.4089  158.8628 C   0  0  0  0  0  0  0  0  0  0  0  0
  152.1055  141.0844  158.1460 C   0  0  1  0  0  0  0  0  0  0  0  0
  152.6649  140.0043  158.8849 O   0  0  0  0  0  0  0  0  0  0  0  0
  152.4754  138.7586  158.2209 C   0  0  0  0  0  0  0  0  0  0  0  0
  150.9705  138.4845  158.0673 C   0  0  0  0  0  0  0  0  0  0  0  0
  150.3184  139.5918  157.3738 N   0  0  0  0  0  0  0  0  0  0  0  0
  149.0138  139.3386  157.1254 C   0  0  0  0  0  0  0  0  0  0  0  0
  148.1128  139.3377  158.1433 N   0  0  0  0  0  0  0  0  0  0  0  0
  146.8195  139.1180  157.8865 C   0  0  0  0  0  0  0  0  0  0  0  0
  146.2279  138.8962  156.7102 N   0  0  0  0  0  0  0  0  0  0  0  0
  147.1327  138.9036  155.6892 C   0  0  0  0  0  0  0  0  0  0  0  0
  148.5347  139.1089  155.8104 C   0  0  0  0  0  0  0  0  0  0  0  0
  149.1389  139.0482  154.5620 N   0  0  0  0  0  0  0  0  0  0  0  0
  148.1473  138.8160  153.7454 C   0  0  0  0  0  0  0  0  0  0  0  0
  146.9046  138.7362  154.3346 N   0  0  0  0  0  0  0  0  0  0  0  0
  145.6351  138.5045  153.6631 C   0  0  0  0  0  0  0  0  0  0  0  0
  145.6234  137.2705  152.7246 C   0  0  0  0  0  0  0  0  0  0  0  0
  146.3972  137.6479  151.6003 O   0  0  0  0  0  0  0  0  0  0  0  0
  146.2701  136.0227  153.3639 C   0  0  0  0  0  0  0  0  0  0  0  0
  146.1623  134.7884  152.4507 C   0  0  0  0  0  0  0  0  0  0  0  0
  144.7999  134.5473  152.1183 O   0  0  0  0  0  0  0  0  0  0  0  0
  144.2127  135.6149  151.3836 C   0  0  0  0  0  0  0  0  0  0  0  0
  144.2067  136.8975  152.2349 C   0  0  0  0  0  0  0  0  0  0  0  0
  150.5811  140.8838  158.0121 C   0  0  2  0  0  0  0  0  0  0  0  0
  149.9759  142.0873  157.2444 C   0  0  0  0  0  0  0  0  0  0  0  0
  149.6950  142.9219  159.9123 H   0  0  0  0  0  0  0  0  0  0  0  0
  148.4130  143.5709  158.8882 H   0  0  0  0  0  0  0  0  0  0  0  0
  149.6690  144.6384  159.5029 H   0  0  0  0  0  0  0  0  0  0  0  0
  152.2149  143.6913  157.1315 H   0  0  0  0  0  0  0  0  0  0  0  0
  151.9228  144.5227  158.6379 H   0  0  0  0  0  0  0  0  0  0  0  0
  153.4731  142.5652  158.9320 H   0  0  0  0  0  0  0  0  0  0  0  0
  152.0265  142.3666  159.8877 H   0  0  0  0  0  0  0  0  0  0  0  0
  152.5670  141.1137  157.1565 H   0  0  0  0  0  0  0  0  0  0  0  0
  152.9701  138.7708  157.2485 H   0  0  0  0  0  0  0  0  0  0  0  0
  152.9443  137.9679  158.8067 H   0  0  0  0  0  0  0  0  0  0  0  0
  150.8167  137.5571  157.5135 H   0  0  0  0  0  0  0  0  0  0  0  0
  150.5233  138.3490  159.0532 H   0  0  0  0  0  0  0  0  0  0  0  0
  146.1643  139.1249  158.7452 H   0  0  0  0  0  0  0  0  0  0  0  0
  148.2932  138.7101  152.6799 H   0  0  0  0  0  0  0  0  0  0  0  0
  144.8659  138.3995  154.4296 H   0  0  0  0  0  0  0  0  0  0  0  0
  145.3801  139.4049  153.1018 H   0  0  0  0  0  0  0  0  0  0  0  0
  147.2420  137.2290  151.6631 H   0  0  0  0  0  0  0  0  0  0  0  0
  147.3140  136.2169  153.6137 H   0  0  0  0  0  0  0  0  0  0  0  0
  145.7690  135.7855  154.3021 H   0  0  0  0  0  0  0  0  0  0  0  0
  146.7536  134.9151  151.5426 H   0  0  0  0  0  0  0  0  0  0  0  0
  146.5575  133.9111  152.9629 H   0  0  0  0  0  0  0  0  0  0  0  0
  144.7482  135.7649  150.4450 H   0  0  0  0  0  0  0  0  0  0  0  0
  143.1915  135.3380  151.1215 H   0  0  0  0  0  0  0  0  0  0  0  0
  143.5527  136.7221  153.0886 H   0  0  0  0  0  0  0  0  0  0  0  0
  143.7649  137.7212  151.6729 H   0  0  0  0  0  0  0  0  0  0  0  0
  150.1486  140.8481  159.0133 H   0  0  0  0  0  0  0  0  0  0  0  0
  148.8936  141.9975  157.1450 H   0  0  0  0  0  0  0  0  0  0  0  0
  150.3748  142.1128  156.2292 H   0  0  0  0  0  0  0  0  0  0  0  0
  150.0016  144.0968  157.2513 H   0  0  0  0  0  0  0  0  0  0  0  0
  1  2  1  0  0  0  0
  1 29  1  0  0  0  0
  1 30  1  0  0  0  0
  1 31  1  0  0  0  0
  2 28  1  0  0  0  0
  2  3  1  0  0  0  0
  2 57  1  0  0  0  0
  3  4  1  0  0  0  0
  3 32  1  0  0  0  0
  3 33  1  0  0  0  0
  4  5  1  0  0  0  0
  4 34  1  0  0  0  0
  4 35  1  0  0  0  0
  5 27  1  0  0  0  0
  5  6  1  0  0  0  0
  5 36  1  0  0  0  0
  6  7  1  0  0  0  0
  7  8  1  0  0  0  0
  7 37  1  0  0  0  0
  7 38  1  0  0  0  0
  8  9  1  0  0  0  0
  8 39  1  0  0  0  0
  8 40  1  0  0  0  0
  9 10  1  0  0  0  0
  9 27  1  0  0  0  0
 10 15  1  0  0  0  0
 10 11  2  0  0  0  0
 11 12  1  0  0  0  0
 12 13  2  0  0  0  0
 12 41  1  0  0  0  0
 13 14  1  0  0  0  0
 14 18  1  0  0  0  0
 14 15  2  0  0  0  0
 15 16  1  0  0  0  0
 16 17  2  0  0  0  0
 17 18  1  0  0  0  0
 17 42  1  0  0  0  0
 18 19  1  0  0  0  0
 19 20  1  0  0  0  0
 19 43  1  0  0  0  0
 19 44  1  0  0  0  0
 20 26  1  0  0  0  0
 20 21  1  0  0  0  0
 20 22  1  0  0  0  0
 21 45  1  0  0  0  0
 22 23  1  0  0  0  0
 22 46  1  0  0  0  0
 22 47  1  0  0  0  0
 23 24  1  0  0  0  0
 23 48  1  0  0  0  0
 23 49  1  0  0  0  0
 24 25  1  0  0  0  0
 25 26  1  0  0  0  0
 25 50  1  0  0  0  0
 25 51  1  0  0  0  0
 26 52  1  0  0  0  0
 26 53  1  0  0  0  0
 27 28  1  0  0  0  0
 27 54  1  0  0  0  0
 28 55  1  0  0  0  0
 28 56  1  0  0  0  0
M  CHG  1   2   1
M  END
> <s_m_source_file>
AV-unprocessed.smi

> <i_m_source_file_index>
244

> <i_lp_mmshare_version>
43012

> <i_f3d_flags>
0

> <s_epik_input>
W0NIMl0xW0NIMl1OKFtDSDNdKVtDSDJdW0NAQEhdKFtDQEhdMTIpTihbQ0gyXVtDSDJdTzIpYyhuW2NIXW4zKWMoYzM0KW5bY0hdbjRbQ0gyXUM1KFtPSF0pW0NIMl1bQ0gyXU9bQ0gyXVtDSDJdNQ==

> <s_epik_cmdline>
J2VwaWtfcHl0aG9uJywgJy1waCcsICc3LjAnLCAnLXRuJywgJzgnLCAnLW1hJywgJzIwMCcsICctbWV0YWxfYmluZGluZycsICctaW1hZScsICc8aW5maWxlLm1hZT4nLCAnLW9tYWUnLCAnPG91dGZpbGUubWFlPic=

> <r_lp_tautomer_probability>
1

> <r_epik_Ionization_Penalty>
0.0136215

> <r_epik_Ionization_Penalty_Charging>
0.0131385

> <r_epik_Ionization_Penalty_Neutral>
0.000483022

> <r_epik_State_Penalty>
0.0104001

> <r_epik_Charging_Adjusted_Penalty>
0.0235387

> <i_epik_Tot_Q>
1

> <i_epik_Tot_abs_Q>
1

> <r_epik_Metal_State_Penalty>
0.0104469

> <b_epik_Metal_Only>
0

> <s_lp_Force_Field>
OPLS_2005

> <r_lp_Energy>
43.6006

> <b_lp_Chiralities_Consistent>
1

> <s_lp_Variant>
AV-unprocessed.smi:244-7

> <Gold.Version>
5.8.1

> <Gold.Id.Protein>
6NUR|6NUR_protein|mol2

> <Gold.PLP.Fitness>
41.1823

> <Gold.PLP.PLP>
-27.3025

> <Gold.PLP.part.hbond>
-3.0000

> <Gold.PLP.part.metal>
0.0000

> <Gold.PLP.part.buried>
-1.3634

> <Gold.PLP.part.nonpolar>
-23.0737

> <Gold.PLP.part.repulsive>
0.2400

> <Gold.PLP.ligand.clash>
0.0000

> <Gold.PLP.ligand.torsion>
0.2950

> <Gold.PLP.Chemscore.Hbond>
3.0000

> <Gold.PLP.Chemscore.CHOScore>
1.7864

> <Gold.PLP.Chemscore.Metal>
0.0000

> <Gold.Chemscore.Hbonds>
donor molecule, donor type, donor heavy atom, donor atom, acceptor molecule, acceptor atom, score
      L1  H     2    57       P1  8028  2.00
      L1  H    21    45       P1  7948  1.00
      L1  C    17    42       P1  7948  0.48
      L1  C    17    42       P1  7957  1.00

> <Gold.PLP.Chemscore.Internal.Correction>
0.1106

> <Gold.Rescore>
     Score         DG    S(hbond)    S(metal)    S(lipo)     H(rot)  DE(clash)    DE(int)     intcor
     14.68     -15.22       1.93        0.00      74.01       2.09       0.19       0.35       ----

> <Gold.Chemscore.Fitness>
14.6813

> <Gold.Chemscore.DG>
-15.2176

> <Gold.Chemscore.ZeroCoef>
-5.4800

> <Gold.Chemscore.Hbond>
1.9255

> <Gold.Chemscore.Metal>
0.0000

> <Gold.Chemscore.Lipo>
74.0130

> <Gold.Chemscore.Internal_Hbond>
0.0000

> <Gold.Chemscore.DEClash>
0.1907

> <Gold.Chemscore.DEInternal>
0.3456

> <Gold.Chemscore.Rot>
2.0911

> <Gold.Chemscore.Internal.Correction>
   9.000000E+99

> <Gold.Chemscore.Hbonds>
donor molecule, donor type, donor heavy atom, donor atom, acceptor molecule, acceptor atom, score
      L1  H     2    57       P1  8028  0.68
      L1  H    21    45       P1  7948  0.99

> <Gold.Chemscore.Hbond.Weighted>
-6.4312

> <Gold.Chemscore.Metal.Weighted>
-0.0000

> <Gold.Chemscore.Lipo.Weighted>
-8.6595

> <Gold.Chemscore.Internal_Hbond.Weighted>
0.0000

> <Gold.Chemscore.DEClash.Weighted>
0.1907

> <Gold.Chemscore.DEInternal.Weighted>
0.3456

> <Gold.Chemscore.Rot.Weighted>
5.3531

> <Gold.Chemscore.Internal.Correction.Weighted>
   9.000000E+99

> <Gold.Protein.RotatedTorsions>
[ 6907 6896 6895 6894 ] final -151.14 input  -60.11 | X-H torsion
[ 7974 7965 7964 7962 ] final -174.54 input  175.53 | X-H torsion
[ 8008 7997 7996 7995 ] final  -44.89 input   59.86 | X-H torsion
[ 10167 10162 10161 10158 ] final  166.64 input  -65.29 | X-H torsion
[ 10718 10713 10712 10709 ] final -109.82 input   66.30 | X-H torsion
[ 10763 10752 10751 10750 ] final -124.10 input  -60.55 | X-H torsion
[ 11005 11000 10999 10996 ] final  -93.13 input  -57.11 | X-H torsion

> <Gold.Protein.ActiveResidues>
 VAL166  LYS551  ARG553  GLY616  TRP617  ASP618  TYR619  PRO620  LYS621  CYS622 
 ASP623  PHE694  ASN695  SER759  ASP760  ASP761  ALA762  ILE779  LEU786  VAL792 
 PHE793  MET794  SER795  GLU796  ALA797  LYS798  CYS799  TRP800  GLU811  SER814 

> <Gold.Protein.RotatedAtoms>
  151.2088  133.4568  159.2597 H   0  0  0  0  0  0  0  0  0  0  0  0  # atno 6907 bound_to 6896
  151.0996  134.9965  159.8452 H   0  0  0  0  0  0  0  0  0  0  0  0  # atno 6908 bound_to 6896
  152.5442  134.2016  159.8767 H   0  0  0  0  0  0  0  0  0  0  0  0  # atno 6909 bound_to 6896
  144.7131  140.1456  143.6388 H   0  0  0  0  0  0  0  0  0  0  0  0  # atno 7974 bound_to 7965
  154.3999  140.1410  156.3757 H   0  0  0  0  0  0  0  0  0  0  0  0  # atno 8008 bound_to 7997
  155.8051  140.3474  155.5404 H   0  0  0  0  0  0  0  0  0  0  0  0  # atno 8009 bound_to 7997
  155.8444  140.0931  157.1705 H   0  0  0  0  0  0  0  0  0  0  0  0  # atno 8010 bound_to 7997
  139.4929  144.4006  151.9414 H   0  0  0  0  0  0  0  0  0  0  0  0  # atno 10167 bound_to 10162
  156.0557  130.5783  150.8152 H   0  0  0  0  0  0  0  0  0  0  0  0  # atno 10718 bound_to 10713
  154.8718  135.4075  154.3051 H   0  0  0  0  0  0  0  0  0  0  0  0  # atno 10763 bound_to 10752
  153.3904  135.7014  153.6505 H   0  0  0  0  0  0  0  0  0  0  0  0  # atno 10764 bound_to 10752
  153.5290  135.3671  155.2638 H   0  0  0  0  0  0  0  0  0  0  0  0  # atno 10765 bound_to 10752
  141.1505  133.7867  157.0117 H   0  0  0  0  0  0  0  0  0  0  0  0  # atno 11005 bound_to 11000
  145.9162  139.2517  143.1408 LP  0  0  0  0  0  0  0  0  0  0  0  0  # atno 17320 bound_to 7965
  145.9666  140.8794  143.0184 LP  0  0  0  0  0  0  0  0  0  0  0  0  # atno 17321 bound_to 7965
  140.3445  144.3163  150.5961 LP  0  0  0  0  0  0  0  0  0  0  0  0  # atno 17342 bound_to 10162
  140.5537  143.2202  151.7883 LP  0  0  0  0  0  0  0  0  0  0  0  0  # atno 17343 bound_to 10162
  157.5525  131.0944  150.9676 LP  0  0  0  0  0  0  0  0  0  0  0  0  # atno 17370 bound_to 10713
  156.9932  130.5571  149.5305 LP  0  0  0  0  0  0  0  0  0  0  0  0  # atno 17371 bound_to 10713
  140.0873  134.9613  157.1720 LP  0  0  0  0  0  0  0  0  0  0  0  0  # atno 17394 bound_to 11000
  140.3494  134.2616  155.7200 LP  0  0  0  0  0  0  0  0  0  0  0  0  # atno 17395 bound_to 11000

$$$$
