AV-unprocessed.smi:3235|AV-procd|sdf|12360|dock5
  -GOLD-   2272018223D 1   1.00000     0.00000
 Structure written by MMmdl.
 41 42  0  0  0  0  0  0  0  0  2 V2000
  154.1670  140.6920  161.1984 C   0  0  0  0  0  0  0  0  0  0  0  0
  153.5181  141.9757  160.7673 C   0  0  0  0  0  0  0  0  0  0  0  0
  152.7486  142.8734  161.5608 C   0  0  0  0  0  0  0  0  0  0  0  0
  152.3139  143.9199  160.8776 N   0  0  0  0  0  0  0  0  0  0  0  0
  152.7865  143.7270  159.6282 N   0  0  0  0  0  0  0  0  0  0  0  0
  152.4949  144.6984  158.5921 C   0  0  0  0  0  0  0  0  0  0  0  0
  150.9981  145.0365  158.5364 C   0  0  0  0  0  0  0  0  0  0  0  0
  150.2228  143.9275  157.9479 N   0  3  0  0  0  0  0  0  0  0  0  0
  151.0570  142.8282  157.4249 C   0  0  0  0  0  0  0  0  0  0  0  0
  150.2810  141.5053  157.4038 C   0  0  0  0  0  0  0  0  0  0  0  0
  151.2136  140.2823  157.3818 C   0  0  0  0  0  0  0  0  0  0  0  0
  151.2994  139.6880  156.0503 N   0  0  0  0  0  0  0  0  0  0  0  0
  150.2336  139.8803  155.0811 C   0  0  0  0  0  0  0  0  0  0  0  0
  150.6018  138.9732  153.8980 C   0  0  0  0  0  0  0  0  0  0  0  0
  152.0632  138.5687  154.1213 C   0  0  0  0  0  0  0  0  0  0  0  0
  152.3299  138.9916  155.5559 C   0  0  0  0  0  0  0  0  0  0  0  0
  153.3692  138.7135  156.1524 O   0  0  0  0  0  0  0  0  0  0  0  0
  153.5206  142.5635  159.5339 C   0  0  0  0  0  0  0  0  0  0  0  0
  153.5199  140.1165  161.8606 H   0  0  0  0  0  0  0  0  0  0  0  0
  155.0977  140.8735  161.7360 H   0  0  0  0  0  0  0  0  0  0  0  0
  154.4054  140.0523  160.3485 H   0  0  0  0  0  0  0  0  0  0  0  0
  152.4940  142.7946  162.6075 H   0  0  0  0  0  0  0  0  0  0  0  0
  153.0850  145.5962  158.7835 H   0  0  0  0  0  0  0  0  0  0  0  0
  152.8300  144.2961  157.6350 H   0  0  0  0  0  0  0  0  0  0  0  0
  150.6250  145.2435  159.5406 H   0  0  0  0  0  0  0  0  0  0  0  0
  150.8377  145.9366  157.9412 H   0  0  0  0  0  0  0  0  0  0  0  0
  149.6093  143.5539  158.6580 H   0  0  0  0  0  0  0  0  0  0  0  0
  151.3933  143.0798  156.4183 H   0  0  0  0  0  0  0  0  0  0  0  0
  151.9472  142.7277  158.0474 H   0  0  0  0  0  0  0  0  0  0  0  0
  149.6304  141.4573  158.2781 H   0  0  0  0  0  0  0  0  0  0  0  0
  149.6281  141.4790  156.5304 H   0  0  0  0  0  0  0  0  0  0  0  0
  152.2123  140.5714  157.7119 H   0  0  0  0  0  0  0  0  0  0  0  0
  150.8634  139.5281  158.0882 H   0  0  0  0  0  0  0  0  0  0  0  0
  149.2614  139.6211  155.5025 H   0  0  0  0  0  0  0  0  0  0  0  0
  150.2072  140.9276  154.7768 H   0  0  0  0  0  0  0  0  0  0  0  0
  149.9681  138.0853  153.8949 H   0  0  0  0  0  0  0  0  0  0  0  0
  150.4603  139.4795  152.9426 H   0  0  0  0  0  0  0  0  0  0  0  0
  152.2204  137.4983  153.9848 H   0  0  0  0  0  0  0  0  0  0  0  0
  152.7328  139.1105  153.4528 H   0  0  0  0  0  0  0  0  0  0  0  0
  153.9776  142.2507  158.6067 H   0  0  0  0  0  0  0  0  0  0  0  0
  149.6598  144.2924  157.1931 H   0  0  0  0  0  0  0  0  0  0  0  0
  1  2  1  0  0  0  0
  1 19  1  0  0  0  0
  1 20  1  0  0  0  0
  1 21  1  0  0  0  0
  2 18  2  0  0  0  0
  2  3  1  0  0  0  0
  3  4  2  0  0  0  0
  3 22  1  0  0  0  0
  4  5  1  0  0  0  0
  5  6  1  0  0  0  0
  5 18  1  0  0  0  0
  6  7  1  0  0  0  0
  6 23  1  0  0  0  0
  6 24  1  0  0  0  0
  7  8  1  0  0  0  0
  7 25  1  0  0  0  0
  7 26  1  0  0  0  0
  8  9  1  0  0  0  0
  8 27  1  0  0  0  0
  8 41  1  0  0  0  0
  9 10  1  0  0  0  0
  9 28  1  0  0  0  0
  9 29  1  0  0  0  0
 10 11  1  0  0  0  0
 10 30  1  0  0  0  0
 10 31  1  0  0  0  0
 11 12  1  0  0  0  0
 11 32  1  0  0  0  0
 11 33  1  0  0  0  0
 12 16  1  0  0  0  0
 12 13  1  0  0  0  0
 13 14  1  0  0  0  0
 13 34  1  0  0  0  0
 13 35  1  0  0  0  0
 14 15  1  0  0  0  0
 14 36  1  0  0  0  0
 14 37  1  0  0  0  0
 15 16  1  0  0  0  0
 15 38  1  0  0  0  0
 15 39  1  0  0  0  0
 16 17  2  0  0  0  0
 18 40  1  0  0  0  0
M  CHG  1   8   1
M  END
> <s_m_source_file>
AV-unprocessed.smi

> <i_m_source_file_index>
3235

> <i_lp_mmshare_version>
43012

> <i_f3d_flags>
0

> <s_epik_input>
W0NIM11jMVtjSF1ubihbY0hdMSlbQ0gyXVtDSDJdW05IXVtDSDJdW0NIMl1bQ0gyXU4yW0NIMl1bQ0gyXVtDSDJdQzI9Tw==

> <s_epik_cmdline>
J2VwaWtfcHl0aG9uJywgJy1waCcsICc3LjAnLCAnLXRuJywgJzgnLCAnLW1hJywgJzIwMCcsICctbWV0YWxfYmluZGluZycsICctaW1hZScsICc8aW5maWxlLm1hZT4nLCAnLW9tYWUnLCAnPG91dGZpbGUubWFlPic=

> <r_lp_tautomer_probability>
1

> <r_epik_Ionization_Penalty>
0.00490609

> <r_epik_Ionization_Penalty_Charging>
0.00490019

> <r_epik_Ionization_Penalty_Neutral>
5.89696e-06

> <r_epik_State_Penalty>
-0

> <r_epik_Charging_Adjusted_Penalty>
0.00490019

> <i_epik_Tot_Q>
1

> <i_epik_Tot_abs_Q>
1

> <r_epik_Metal_State_Penalty>
-0

> <b_epik_Metal_Only>
0

> <s_lp_Force_Field>
OPLS_2005

> <r_lp_Energy>
17.6896

> <b_lp_Chiralities_Consistent>
1

> <s_lp_Variant>
AV-unprocessed.smi:3235-1

> <Gold.Version>
5.8.1

> <Gold.Id.Protein>
6NUR|6NUR_protein|mol2

> <Gold.PLP.Fitness>
51.4986

> <Gold.PLP.PLP>
-49.3970

> <Gold.PLP.part.hbond>
-2.7296

> <Gold.PLP.part.metal>
0.0000

> <Gold.PLP.part.buried>
-6.0408

> <Gold.PLP.part.nonpolar>
-41.3620

> <Gold.PLP.part.repulsive>
0.1544

> <Gold.PLP.ligand.clash>
4.1979

> <Gold.PLP.ligand.torsion>
1.4115

> <Gold.PLP.Chemscore.Hbond>
2.9920

> <Gold.PLP.Chemscore.CHOScore>
0.0000

> <Gold.PLP.Chemscore.Metal>
0.0000

> <Gold.Chemscore.Hbonds>
donor molecule, donor type, donor heavy atom, donor atom, acceptor molecule, acceptor atom, score
      L1  H     8    41       P1  8028  2.00
      P1  H  7997  8010       L1    17  0.88

> <Gold.PLP.Chemscore.Internal.Correction>
0.1465

> <Gold.Rescore>
     Score         DG    S(hbond)    S(metal)    S(lipo)     H(rot)  DE(clash)    DE(int)     intcor
     17.49     -18.95       1.68        0.00     114.48       2.16       0.04       1.42       ----

> <Gold.Chemscore.Fitness>
17.4940

> <Gold.Chemscore.DG>
-18.9527

> <Gold.Chemscore.ZeroCoef>
-5.4800

> <Gold.Chemscore.Hbond>
1.6790

> <Gold.Chemscore.Metal>
0.0000

> <Gold.Chemscore.Lipo>
114.4772

> <Gold.Chemscore.Internal_Hbond>
0.0000

> <Gold.Chemscore.DEClash>
0.0402

> <Gold.Chemscore.DEInternal>
1.4186

> <Gold.Chemscore.Rot>
2.1598

> <Gold.Chemscore.Internal.Correction>
   9.000000E+99

> <Gold.Chemscore.Hbonds>
donor molecule, donor type, donor heavy atom, donor atom, acceptor molecule, acceptor atom, score
      L1  H     8    41       P1  8028  0.35
      P1  H  7997  8010       L1    17  0.80

> <Gold.Chemscore.Hbond.Weighted>
-5.6080

> <Gold.Chemscore.Metal.Weighted>
-0.0000

> <Gold.Chemscore.Lipo.Weighted>
-13.3938

> <Gold.Chemscore.Internal_Hbond.Weighted>
0.0000

> <Gold.Chemscore.DEClash.Weighted>
0.0402

> <Gold.Chemscore.DEInternal.Weighted>
1.4186

> <Gold.Chemscore.Rot.Weighted>
5.5291

> <Gold.Chemscore.Internal.Correction.Weighted>
   9.000000E+99

> <Gold.Protein.RotatedTorsions>
[ 6907 6896 6895 6894 ] final -112.03 input  -60.11 | X-H torsion
[ 7974 7965 7964 7962 ] final   -4.99 input  175.53 | X-H torsion
[ 8008 7997 7996 7995 ] final   63.12 input   59.86 | X-H torsion
[ 10167 10162 10161 10158 ] final  -91.00 input  -65.29 | X-H torsion
[ 10718 10713 10712 10709 ] final  100.35 input   66.30 | X-H torsion
[ 10763 10752 10751 10750 ] final  138.54 input  -60.55 | X-H torsion
[ 11005 11000 10999 10996 ] final  168.53 input  -57.11 | X-H torsion

> <Gold.Protein.ActiveResidues>
 VAL166  LYS551  ARG553  GLY616  TRP617  ASP618  TYR619  PRO620  LYS621  CYS622 
 ASP623  PHE694  ASN695  SER759  ASP760  ASP761  ALA762  ILE779  LEU786  VAL792 
 PHE793  MET794  SER795  GLU796  ALA797  LYS798  CYS799  TRP800  GLU811  SER814 

> <Gold.Protein.RotatedAtoms>
  150.7731  133.9148  159.3380 H   0  0  0  0  0  0  0  0  0  0  0  0  # atno 6907 bound_to 6896
  151.7030  135.0925  160.0263 H   0  0  0  0  0  0  0  0  0  0  0  0  # atno 6908 bound_to 6896
  152.3756  133.6438  159.6156 H   0  0  0  0  0  0  0  0  0  0  0  0  # atno 6909 bound_to 6896
  146.2361  140.1955  142.8333 H   0  0  0  0  0  0  0  0  0  0  0  0  # atno 7974 bound_to 7965
  155.6252  140.3496  155.4665 H   0  0  0  0  0  0  0  0  0  0  0  0  # atno 8008 bound_to 7997
  156.0047  140.1220  157.0537 H   0  0  0  0  0  0  0  0  0  0  0  0  # atno 8009 bound_to 7997
  154.4260  140.1093  156.5732 H   0  0  0  0  0  0  0  0  0  0  0  0  # atno 8010 bound_to 7997
  140.3493  143.2900  151.9745 H   0  0  0  0  0  0  0  0  0  0  0  0  # atno 10167 bound_to 10162
  157.6856  131.0696  150.5087 H   0  0  0  0  0  0  0  0  0  0  0  0  # atno 10718 bound_to 10713
  153.8913  135.3033  155.3447 H   0  0  0  0  0  0  0  0  0  0  0  0  # atno 10763 bound_to 10752
  154.7715  135.4883  153.9661 H   0  0  0  0  0  0  0  0  0  0  0  0  # atno 10764 bound_to 10752
  153.1296  135.6801  153.9298 H   0  0  0  0  0  0  0  0  0  0  0  0  # atno 10765 bound_to 10752
  140.2882  134.7695  157.3816 H   0  0  0  0  0  0  0  0  0  0  0  0  # atno 11005 bound_to 11000
  144.9824  140.8471  143.5389 LP  0  0  0  0  0  0  0  0  0  0  0  0  # atno 17320 bound_to 7965
  145.1950  139.2281  143.5223 LP  0  0  0  0  0  0  0  0  0  0  0  0  # atno 17321 bound_to 7965
  139.4829  144.6090  151.7469 LP  0  0  0  0  0  0  0  0  0  0  0  0  # atno 17342 bound_to 10162
  140.5234  144.0843  150.6030 LP  0  0  0  0  0  0  0  0  0  0  0  0  # atno 17343 bound_to 10162
  156.5405  130.4207  149.6156 LP  0  0  0  0  0  0  0  0  0  0  0  0  # atno 17370 bound_to 10713
  156.2989  130.7166  151.2033 LP  0  0  0  0  0  0  0  0  0  0  0  0  # atno 17371 bound_to 10713
  140.1220  134.5207  155.8176 LP  0  0  0  0  0  0  0  0  0  0  0  0  # atno 17394 bound_to 11000
  141.2151  133.6759  156.6883 LP  0  0  0  0  0  0  0  0  0  0  0  0  # atno 17395 bound_to 11000

$$$$
