AV-unprocessed.smi:1749|AV-procd|sdf|7051|dock9
  -GOLD-   22720 8263D 1   1.00000     0.00000
 Structure written by MMmdl.
 31 32  0  0  0  0  0  0  0  0  2 V2000
  153.4665  142.1332  162.0029 C   0  0  0  0  0  0  0  0  0  0  0  0
  152.5819  142.6675  160.8676 C   0  0  1  0  0  0  0  0  0  0  0  0
  152.1045  144.1041  161.1538 C   0  0  0  0  0  0  0  0  0  0  0  0
  151.2230  144.6442  160.0166 C   0  0  0  0  0  0  0  0  0  0  0  0
  151.9509  144.5739  158.6635 C   0  0  0  0  0  0  0  0  0  0  0  0
  152.4515  143.1485  158.3499 C   0  0  2  0  0  0  0  0  0  0  0  0
  151.3348  142.2431  158.0881 N   0  0  0  0  0  0  0  0  0  0  0  0
  151.4087  140.9641  157.6716 C   0  0  0  0  0  0  0  0  0  0  0  0
  152.5155  140.4572  157.4936 O   0  0  0  0  0  0  0  0  0  0  0  0
  150.2410  140.2990  157.4674 N   0  5  0  0  0  0  0  0  0  0  0  0
  149.9156  139.7599  156.2774 C   0  0  0  0  0  0  0  0  0  0  0  0
  148.6442  139.5173  155.9204 N   0  0  0  0  0  0  0  0  0  0  0  0
  148.5305  138.9462  154.6602 N   0  0  0  0  0  0  0  0  0  0  0  0
  149.7244  138.7826  154.0915 C   0  0  0  0  0  0  0  0  0  0  0  0
  151.0957  139.3095  155.0439 S   0  0  0  0  0  0  0  0  0  0  0  0
  153.3095  142.6008  159.5077 C   0  0  0  0  0  0  0  0  0  0  0  0
  154.3715  142.7309  162.1153 H   0  0  0  0  0  0  0  0  0  0  0  0
  153.7687  141.1030  161.8127 H   0  0  0  0  0  0  0  0  0  0  0  0
  152.9354  142.1500  162.9550 H   0  0  0  0  0  0  0  0  0  0  0  0
  151.7010  142.0258  160.8150 H   0  0  0  0  0  0  0  0  0  0  0  0
  151.5475  144.1329  162.0908 H   0  0  0  0  0  0  0  0  0  0  0  0
  152.9662  144.7596  161.2868 H   0  0  0  0  0  0  0  0  0  0  0  0
  150.2963  144.0706  159.9670 H   0  0  0  0  0  0  0  0  0  0  0  0
  150.9346  145.6741  160.2281 H   0  0  0  0  0  0  0  0  0  0  0  0
  151.2960  144.9322  157.8685 H   0  0  0  0  0  0  0  0  0  0  0  0
  152.8025  145.2547  158.6823 H   0  0  0  0  0  0  0  0  0  0  0  0
  153.0796  143.1855  157.4580 H   0  0  0  0  0  0  0  0  0  0  0  0
  150.4107  142.6273  158.2192 H   0  0  0  0  0  0  0  0  0  0  0  0
  149.7980  138.3501  153.1050 H   0  0  0  0  0  0  0  0  0  0  0  0
  154.2339  143.1772  159.5661 H   0  0  0  0  0  0  0  0  0  0  0  0
  153.6074  141.5736  159.2926 H   0  0  0  0  0  0  0  0  0  0  0  0
  1  2  1  0  0  0  0
  1 17  1  0  0  0  0
  1 18  1  0  0  0  0
  1 19  1  0  0  0  0
  2 16  1  0  0  0  0
  2  3  1  0  0  0  0
  2 20  1  0  0  0  0
  3  4  1  0  0  0  0
  3 21  1  0  0  0  0
  3 22  1  0  0  0  0
  4  5  1  0  0  0  0
  4 23  1  0  0  0  0
  4 24  1  0  0  0  0
  5  6  1  0  0  0  0
  5 25  1  0  0  0  0
  5 26  1  0  0  0  0
  6  7  1  0  0  0  0
  6 16  1  0  0  0  0
  6 27  1  0  0  0  0
  7  8  1  0  0  0  0
  7 28  1  0  0  0  0
  8  9  2  0  0  0  0
  8 10  1  0  0  0  0
 10 11  1  0  0  0  0
 11 15  1  0  0  0  0
 11 12  2  0  0  0  0
 12 13  1  0  0  0  0
 13 14  2  0  0  0  0
 14 15  1  0  0  0  0
 14 29  1  0  0  0  0
 16 30  1  0  0  0  0
 16 31  1  0  0  0  0
M  CHG  1  10  -1
M  END
> <s_m_source_file>
AV-unprocessed.smi

> <i_m_source_file_index>
1749

> <i_lp_mmshare_version>
43012

> <i_f3d_flags>
0

> <s_epik_input>
W0NIM11bQ0BASF0xW0NIMl1bQ0gyXVtDSDJdW0NASF0oW0NIMl0xKVtOSF1DKD1PKVtOSF1jMm5uW2NIXXMy

> <s_epik_cmdline>
J2VwaWtfcHl0aG9uJywgJy1waCcsICc3LjAnLCAnLXRuJywgJzgnLCAnLW1hJywgJzIwMCcsICctbWV0YWxfYmluZGluZycsICctaW1hZScsICc8aW5maWxlLm1hZT4nLCAnLW9tYWUnLCAnPG91dGZpbGUubWFlPic=

> <r_lp_tautomer_probability>
1

> <r_epik_Ionization_Penalty>
4.55442

> <r_epik_Ionization_Penalty_Charging>
4.5081

> <r_epik_Ionization_Penalty_Neutral>
0.0463156

> <r_epik_State_Penalty>
4.50781

> <r_epik_Charging_Adjusted_Penalty>
9.01591

> <i_epik_Tot_Q>
-1

> <i_epik_Tot_abs_Q>
1

> <r_epik_Metal_State_Penalty>
0.823335

> <b_epik_Metal_Only>
1

> <s_lp_Force_Field>
OPLS_2005

> <r_lp_Energy>
7.79441

> <b_lp_Chiralities_Consistent>
1

> <s_lp_Variant>
AV-unprocessed.smi:1749-8

> <Gold.Version>
5.8.1

> <Gold.Id.Protein>
6NUR|6NUR_protein|mol2

> <Gold.PLP.Fitness>
41.4772

> <Gold.PLP.PLP>
-35.5932

> <Gold.PLP.part.hbond>
-1.0000

> <Gold.PLP.part.metal>
0.0000

> <Gold.PLP.part.buried>
-2.1842

> <Gold.PLP.part.nonpolar>
-31.0863

> <Gold.PLP.part.repulsive>
0.1745

> <Gold.PLP.ligand.clash>
0.0000

> <Gold.PLP.ligand.torsion>
0.6847

> <Gold.PLP.Chemscore.Hbond>
0.8154

> <Gold.PLP.Chemscore.CHOScore>
1.5991

> <Gold.PLP.Chemscore.Metal>
0.0000

> <Gold.Chemscore.Hbonds>
donor molecule, donor type, donor heavy atom, donor atom, acceptor molecule, acceptor atom, score
      P1  H  7997  8010       L1     9  0.82
      L1  C    14    29       P1  7948  0.94
      L1  C    14    29       P1  7957  0.66

> <Gold.PLP.Chemscore.Internal.Correction>
0.0099

> <Gold.Rescore>
     Score         DG    S(hbond)    S(metal)    S(lipo)     H(rot)  DE(clash)    DE(int)     intcor
     14.58     -16.88       0.78        0.00      97.13       1.00       0.21       2.09       ----

> <Gold.Chemscore.Fitness>
14.5849

> <Gold.Chemscore.DG>
-16.8824

> <Gold.Chemscore.ZeroCoef>
-5.4800

> <Gold.Chemscore.Hbond>
0.7781

> <Gold.Chemscore.Metal>
0.0000

> <Gold.Chemscore.Lipo>
97.1252

> <Gold.Chemscore.Internal_Hbond>
0.0000

> <Gold.Chemscore.DEClash>
0.2098

> <Gold.Chemscore.DEInternal>
2.0877

> <Gold.Chemscore.Rot>
1.0000

> <Gold.Chemscore.Internal.Correction>
   9.000000E+99

> <Gold.Chemscore.Hbonds>
donor molecule, donor type, donor heavy atom, donor atom, acceptor molecule, acceptor atom, score
      P1  H  7997  8010       L1     9  0.75

> <Gold.Chemscore.Hbond.Weighted>
-2.5988

> <Gold.Chemscore.Metal.Weighted>
-0.0000

> <Gold.Chemscore.Lipo.Weighted>
-11.3636

> <Gold.Chemscore.Internal_Hbond.Weighted>
0.0000

> <Gold.Chemscore.DEClash.Weighted>
0.2098

> <Gold.Chemscore.DEInternal.Weighted>
2.0877

> <Gold.Chemscore.Rot.Weighted>
2.5600

> <Gold.Chemscore.Internal.Correction.Weighted>
   9.000000E+99

> <Gold.Protein.RotatedTorsions>
[ 6907 6896 6895 6894 ] final  -47.49 input  -60.11 | X-H torsion
[ 7974 7965 7964 7962 ] final  117.99 input  175.53 | X-H torsion
[ 8008 7997 7996 7995 ] final   54.67 input   59.86 | X-H torsion
[ 10167 10162 10161 10158 ] final  170.96 input  -65.29 | X-H torsion
[ 10718 10713 10712 10709 ] final  -14.60 input   66.30 | X-H torsion
[ 10763 10752 10751 10750 ] final -107.76 input  -60.55 | X-H torsion
[ 11005 11000 10999 10996 ] final  -52.05 input  -57.11 | X-H torsion

> <Gold.Protein.ActiveResidues>
 VAL166  LYS551  ARG553  GLY616  TRP617  ASP618  TYR619  PRO620  LYS621  CYS622 
 ASP623  PHE694  ASN695  SER759  ASP760  ASP761  ALA762  ILE779  LEU786  VAL792 
 PHE793  MET794  SER795  GLU796  ALA797  LYS798  CYS799  TRP800  GLU811  SER814 

> <Gold.Protein.RotatedAtoms>
  150.9003  134.8414  159.7354 H   0  0  0  0  0  0  0  0  0  0  0  0  # atno 6907 bound_to 6896
  152.4888  134.4513  159.9585 H   0  0  0  0  0  0  0  0  0  0  0  0  # atno 6908 bound_to 6896
  151.4566  133.3564  159.2838 H   0  0  0  0  0  0  0  0  0  0  0  0  # atno 6909 bound_to 6896
  145.1606  139.3157  143.4519 H   0  0  0  0  0  0  0  0  0  0  0  0  # atno 7974 bound_to 7965
  155.4885  140.3470  155.4351 H   0  0  0  0  0  0  0  0  0  0  0  0  # atno 8008 bound_to 7997
  156.0992  140.1431  156.9518 H   0  0  0  0  0  0  0  0  0  0  0  0  # atno 8009 bound_to 7997
  154.4683  140.0909  156.7056 H   0  0  0  0  0  0  0  0  0  0  0  0  # atno 8010 bound_to 7997
  139.5033  144.3539  151.9894 H   0  0  0  0  0  0  0  0  0  0  0  0  # atno 10167 bound_to 10162
  156.6137  130.4856  149.6191 H   0  0  0  0  0  0  0  0  0  0  0  0  # atno 10718 bound_to 10713
  154.8095  135.4663  154.0479 H   0  0  0  0  0  0  0  0  0  0  0  0  # atno 10763 bound_to 10752
  153.1921  135.6856  153.8346 H   0  0  0  0  0  0  0  0  0  0  0  0  # atno 10764 bound_to 10752
  153.7860  135.3250  155.3349 H   0  0  0  0  0  0  0  0  0  0  0  0  # atno 10765 bound_to 10752
  141.0904  133.6634  156.3968 H   0  0  0  0  0  0  0  0  0  0  0  0  # atno 11005 bound_to 11000
  146.3483  140.1715  142.8589 LP  0  0  0  0  0  0  0  0  0  0  0  0  # atno 17320 bound_to 7965
  145.0335  140.8889  143.5095 LP  0  0  0  0  0  0  0  0  0  0  0  0  # atno 17321 bound_to 7965
  140.2976  144.3684  150.6070 LP  0  0  0  0  0  0  0  0  0  0  0  0  # atno 17342 bound_to 10162
  140.5899  143.2168  151.7273 LP  0  0  0  0  0  0  0  0  0  0  0  0  # atno 17343 bound_to 10162
  156.2369  130.6828  151.1518 LP  0  0  0  0  0  0  0  0  0  0  0  0  # atno 17370 bound_to 10713
  157.7247  131.0658  150.5984 LP  0  0  0  0  0  0  0  0  0  0  0  0  # atno 17371 bound_to 10713
  140.5265  134.6253  157.5336 LP  0  0  0  0  0  0  0  0  0  0  0  0  # atno 17394 bound_to 11000
  139.9729  134.7263  156.0006 LP  0  0  0  0  0  0  0  0  0  0  0  0  # atno 17395 bound_to 11000

$$$$
