AV-unprocessed.smi:291|AV-procd|sdf|2248|dock4
  -GOLD-   2262022133D 1   1.00000     0.00000
 Structure written by MMmdl.
 35 36  0  0  0  0  0  0  0  0  1 V2000
  153.5368  142.1857  161.6131 C   0  0  0  0  0  0  0  0  0  0  0  0
  152.9717  143.2791  160.6954 C   0  0  2  0  0  0  0  0  0  0  0  0
  151.4517  143.4432  160.8864 C   0  0  0  0  0  0  0  0  0  0  0  0
  150.8781  144.5338  159.9639 C   0  0  0  0  0  0  0  0  0  0  0  0
  151.2161  144.2824  158.4824 C   0  0  2  0  0  0  0  0  0  0  0  0
  150.4734  143.1251  157.9893 N   0  0  0  0  0  0  0  0  0  0  0  0
  149.2052  142.8126  158.2997 C   0  0  0  0  0  0  0  0  0  0  0  0
  148.5030  143.4886  159.0509 O   0  0  0  0  0  0  0  0  0  0  0  0
  148.6351  141.5481  157.6528 C   0  0  0  0  0  0  0  0  0  0  0  0
  149.5702  140.9626  156.7077 N   0  0  0  0  0  0  0  0  0  0  0  0
  150.0438  141.4335  155.5491 C   0  0  0  0  0  0  0  0  0  0  0  0
  150.8846  140.6099  154.9353 N   0  0  0  0  0  0  0  0  0  0  0  0
  150.8769  139.5873  155.8391 C   0  0  0  0  0  0  0  0  0  0  0  0
  151.6647  138.3842  155.6313 C   0  0  0  0  0  0  0  0  0  0  0  0
  152.2922  137.4261  155.4654 N   0  0  0  0  0  0  0  0  0  0  0  0
  150.1124  139.7379  156.9186 N   0  0  0  0  0  0  0  0  0  0  0  0
  152.7343  144.0899  158.2907 C   0  0  0  0  0  0  0  0  0  0  0  0
  153.3031  142.9998  159.2167 C   0  0  0  0  0  0  0  0  0  0  0  0
  153.1048  141.2116  161.3822 H   0  0  0  0  0  0  0  0  0  0  0  0
  153.3257  142.4040  162.6603 H   0  0  0  0  0  0  0  0  0  0  0  0
  154.6188  142.1041  161.5057 H   0  0  0  0  0  0  0  0  0  0  0  0
  153.4479  144.2202  160.9745 H   0  0  0  0  0  0  0  0  0  0  0  0
  150.9497  142.4943  160.6911 H   0  0  0  0  0  0  0  0  0  0  0  0
  151.2328  143.6955  161.9244 H   0  0  0  0  0  0  0  0  0  0  0  0
  149.7978  144.6055  160.0973 H   0  0  0  0  0  0  0  0  0  0  0  0
  151.2842  145.5010  160.2627 H   0  0  0  0  0  0  0  0  0  0  0  0
  150.9028  145.1615  157.9165 H   0  0  0  0  0  0  0  0  0  0  0  0
  150.9668  142.5086  157.3596 H   0  0  0  0  0  0  0  0  0  0  0  0
  148.4045  140.8064  158.4186 H   0  0  0  0  0  0  0  0  0  0  0  0
  147.7006  141.7861  157.1422 H   0  0  0  0  0  0  0  0  0  0  0  0
  149.7634  142.3954  155.1453 H   0  0  0  0  0  0  0  0  0  0  0  0
  152.9590  143.8510  157.2505 H   0  0  0  0  0  0  0  0  0  0  0  0
  153.2418  145.0326  158.4988 H   0  0  0  0  0  0  0  0  0  0  0  0
  154.3836  142.9375  159.0828 H   0  0  0  0  0  0  0  0  0  0  0  0
  152.9031  142.0274  158.9261 H   0  0  0  0  0  0  0  0  0  0  0  0
  1  2  1  0  0  0  0
  1 19  1  0  0  0  0
  1 20  1  0  0  0  0
  1 21  1  0  0  0  0
  2 18  1  0  0  0  0
  2  3  1  0  0  0  0
  2 22  1  0  0  0  0
  3  4  1  0  0  0  0
  3 23  1  0  0  0  0
  3 24  1  0  0  0  0
  4  5  1  0  0  0  0
  4 25  1  0  0  0  0
  4 26  1  0  0  0  0
  5  6  1  0  0  0  0
  5 17  1  0  0  0  0
  5 27  1  0  0  0  0
  6  7  1  0  0  0  0
  6 28  1  0  0  0  0
  7  8  2  0  0  0  0
  7  9  1  0  0  0  0
  9 10  1  0  0  0  0
  9 29  1  0  0  0  0
  9 30  1  0  0  0  0
 10 16  1  0  0  0  0
 10 11  1  0  0  0  0
 11 12  2  0  0  0  0
 11 31  1  0  0  0  0
 12 13  1  0  0  0  0
 13 14  1  0  0  0  0
 13 16  2  0  0  0  0
 14 15  3  0  0  0  0
 17 18  1  0  0  0  0
 17 32  1  0  0  0  0
 17 33  1  0  0  0  0
 18 34  1  0  0  0  0
 18 35  1  0  0  0  0
M  END
> <s_m_source_file>
AV-unprocessed.smi

> <i_m_source_file_index>
291

> <i_lp_mmshare_version>
43012

> <i_f3d_flags>
0

> <s_epik_input>
W0NIM11bQ0BASF0xW0NIMl1bQ0gyXVtDQEhdKFtDSDJdW0NIMl0xKVtOSF1DKD1PKVtDSDJdbjJbY0hdbmMobjIpQyNO

> <s_epik_cmdline>
J2VwaWtfcHl0aG9uJywgJy1waCcsICc3LjAnLCAnLXRuJywgJzgnLCAnLW1hJywgJzIwMCcsICctbWV0YWxfYmluZGluZycsICctaW1hZScsICc8aW5maWxlLm1hZT4nLCAnLW9tYWUnLCAnPG91dGZpbGUubWFlPic=

> <r_lp_tautomer_probability>
1

> <r_epik_Ionization_Penalty>
5.31112e-08

> <r_epik_Ionization_Penalty_Charging>
0

> <r_epik_Ionization_Penalty_Neutral>
5.31112e-08

> <r_epik_State_Penalty>
-0

> <r_epik_Charging_Adjusted_Penalty>
0

> <i_epik_Tot_Q>
0

> <i_epik_Tot_abs_Q>
0

> <r_epik_Metal_State_Penalty>
-0

> <b_epik_Metal_Only>
0

> <s_lp_Force_Field>
OPLS_2005

> <r_lp_Energy>
11.449

> <b_lp_Chiralities_Consistent>
1

> <s_lp_Variant>
AV-unprocessed.smi:291-2

> <Gold.Version>
5.8.1

> <Gold.Id.Protein>
6NUR|6NUR_protein|mol2

> <Gold.PLP.Fitness>
41.3386

> <Gold.PLP.PLP>
-34.2303

> <Gold.PLP.part.hbond>
-2.3534

> <Gold.PLP.part.metal>
0.0000

> <Gold.PLP.part.buried>
-3.3550

> <Gold.PLP.part.nonpolar>
-29.0870

> <Gold.PLP.part.repulsive>
0.5744

> <Gold.PLP.ligand.clash>
0.0000

> <Gold.PLP.ligand.torsion>
0.3251

> <Gold.PLP.Chemscore.Hbond>
1.5860

> <Gold.PLP.Chemscore.CHOScore>
0.9982

> <Gold.PLP.Chemscore.Metal>
0.0000

> <Gold.Chemscore.Hbonds>
donor molecule, donor type, donor heavy atom, donor atom, acceptor molecule, acceptor atom, score
      P1  H  7989  7998       L1    12  0.98
      P1  H 10752 10764       L1    15  0.61
      L1  C    11    31       P1  8028  1.00

> <Gold.PLP.Chemscore.Internal.Correction>
0.0062

> <Gold.Rescore>
     Score         DG    S(hbond)    S(metal)    S(lipo)     H(rot)  DE(clash)    DE(int)     intcor
     14.63     -16.99       2.03        0.00      83.12       1.95       0.15       2.22       ----

> <Gold.Chemscore.Fitness>
14.6269

> <Gold.Chemscore.DG>
-16.9929

> <Gold.Chemscore.ZeroCoef>
-5.4800

> <Gold.Chemscore.Hbond>
2.0278

> <Gold.Chemscore.Metal>
0.0000

> <Gold.Chemscore.Lipo>
83.1216

> <Gold.Chemscore.Internal_Hbond>
0.0000

> <Gold.Chemscore.DEClash>
0.1497

> <Gold.Chemscore.DEInternal>
2.2162

> <Gold.Chemscore.Rot>
1.9474

> <Gold.Chemscore.Internal.Correction>
   9.000000E+99

> <Gold.Chemscore.Hbonds>
donor molecule, donor type, donor heavy atom, donor atom, acceptor molecule, acceptor atom, score
      P1  H  7989  7998       L1    12  0.92
      P1  H 10752 10764       L1    15  0.59

> <Gold.Chemscore.Hbond.Weighted>
-6.7729

> <Gold.Chemscore.Metal.Weighted>
-0.0000

> <Gold.Chemscore.Lipo.Weighted>
-9.7252

> <Gold.Chemscore.Internal_Hbond.Weighted>
0.0000

> <Gold.Chemscore.DEClash.Weighted>
0.1497

> <Gold.Chemscore.DEInternal.Weighted>
2.2162

> <Gold.Chemscore.Rot.Weighted>
4.9852

> <Gold.Chemscore.Internal.Correction.Weighted>
   9.000000E+99

> <Gold.Protein.RotatedTorsions>
[ 6907 6896 6895 6894 ] final  108.33 input  -60.11 | X-H torsion
[ 7974 7965 7964 7962 ] final  -59.33 input  175.53 | X-H torsion
[ 8008 7997 7996 7995 ] final  -51.85 input   59.86 | X-H torsion
[ 10167 10162 10161 10158 ] final  -48.23 input  -65.29 | X-H torsion
[ 10718 10713 10712 10709 ] final  149.16 input   66.30 | X-H torsion
[ 10763 10752 10751 10750 ] final  -51.68 input  -60.55 | X-H torsion
[ 11005 11000 10999 10996 ] final -114.72 input  -57.11 | X-H torsion

> <Gold.Protein.ActiveResidues>
 VAL166  LYS551  ARG553  GLY616  TRP617  ASP618  TYR619  PRO620  LYS621  CYS622 
 ASP623  PHE694  ASN695  SER759  ASP760  ASP761  ALA762  ILE779  LEU786  VAL792 
 PHE793  MET794  SER795  GLU796  ALA797  LYS798  CYS799  TRP800  GLU811  SER814 

> <Gold.Protein.RotatedAtoms>
  152.5116  133.9104  159.7484 H   0  0  0  0  0  0  0  0  0  0  0  0  # atno 6907 bound_to 6896
  150.9499  133.6553  159.2781 H   0  0  0  0  0  0  0  0  0  0  0  0  # atno 6908 bound_to 6896
  151.3835  135.0949  159.9556 H   0  0  0  0  0  0  0  0  0  0  0  0  # atno 6909 bound_to 6896
  145.8288  140.8493  143.0094 H   0  0  0  0  0  0  0  0  0  0  0  0  # atno 7974 bound_to 7965
  154.4092  140.1238  156.4896 H   0  0  0  0  0  0  0  0  0  0  0  0  # atno 8008 bound_to 7997
  155.7003  140.3495  155.4911 H   0  0  0  0  0  0  0  0  0  0  0  0  # atno 8009 bound_to 7997
  155.9391  140.1083  157.1061 H   0  0  0  0  0  0  0  0  0  0  0  0  # atno 8010 bound_to 7997
  140.6740  143.2749  151.4041 H   0  0  0  0  0  0  0  0  0  0  0  0  # atno 10167 bound_to 10162
  157.2995  131.0868  151.1401 H   0  0  0  0  0  0  0  0  0  0  0  0  # atno 10718 bound_to 10713
  154.1305  135.6521  153.4921 H   0  0  0  0  0  0  0  0  0  0  0  0  # atno 10763 bound_to 10752
  153.0197  135.5291  154.7006 H   0  0  0  0  0  0  0  0  0  0  0  0  # atno 10764 bound_to 10752
  154.6239  135.2968  155.0265 H   0  0  0  0  0  0  0  0  0  0  0  0  # atno 10765 bound_to 10752
  141.0534  133.9651  157.2797 H   0  0  0  0  0  0  0  0  0  0  0  0  # atno 11005 bound_to 11000
  144.6741  140.0641  143.7475 LP  0  0  0  0  0  0  0  0  0  0  0  0  # atno 17320 bound_to 7965
  145.9594  139.2790  143.1164 LP  0  0  0  0  0  0  0  0  0  0  0  0  # atno 17321 bound_to 7965
  139.6023  144.1270  152.2211 LP  0  0  0  0  0  0  0  0  0  0  0  0  # atno 17342 bound_to 10162
  140.0658  144.5819  150.7228 LP  0  0  0  0  0  0  0  0  0  0  0  0  # atno 17343 bound_to 10162
  157.2765  130.6729  149.6045 LP  0  0  0  0  0  0  0  0  0  0  0  0  # atno 17370 bound_to 10713
  155.9671  130.4463  150.5535 LP  0  0  0  0  0  0  0  0  0  0  0  0  # atno 17371 bound_to 10713
  139.9369  135.0195  156.8585 LP  0  0  0  0  0  0  0  0  0  0  0  0  # atno 17394 bound_to 11000
  140.6012  134.0170  155.7538 LP  0  0  0  0  0  0  0  0  0  0  0  0  # atno 17395 bound_to 11000

$$$$
