AV-unprocessed.smi:414|AV-procd|sdf|2516|dock10
  -GOLD-   2262022463D 1   1.00000     0.00000
 Structure written by MMmdl.
 37 38  0  0  0  0  0  0  0  0  2 V2000
  152.1967  145.0550  160.5698 C   0  0  0  0  0  0  0  0  0  0  0  0
  151.5032  144.1637  159.5299 C   0  0  2  0  0  0  0  0  0  0  0  0
  151.8917  142.6835  159.7078 C   0  0  0  0  0  0  0  0  0  0  0  0
  151.1995  141.7889  158.6669 C   0  0  0  0  0  0  0  0  0  0  0  0
  151.5093  142.2532  157.2323 C   0  0  1  0  0  0  0  0  0  0  0  0
  150.7902  141.4124  156.2805 N   0  0  0  0  0  0  0  0  0  0  0  0
  151.3506  140.5046  155.4668 C   0  0  0  0  0  0  0  0  0  0  0  0
  152.5638  140.2989  155.4166 O   0  0  0  0  0  0  0  0  0  0  0  0
  150.3913  139.7372  154.5475 C   0  0  0  0  0  0  0  0  0  0  0  0
  150.5117  138.2779  154.6929 N   0  0  0  0  0  0  0  0  0  0  0  0
  149.3876  137.5695  155.1530 C   0  0  0  0  0  0  0  0  0  0  0  0
  149.4072  136.2326  155.3131 C   0  0  0  0  0  0  0  0  0  0  0  0
  150.6370  135.5173  154.9957 C   0  0  0  0  0  0  0  0  0  0  0  0
  150.6748  134.2969  155.1401 O   0  0  0  0  0  0  0  0  0  0  0  0
  151.6992  136.2489  154.5482 N   0  5  0  0  0  0  0  0  0  0  0  0
  151.6638  137.6081  154.3871 C   0  0  0  0  0  0  0  0  0  0  0  0
  152.6332  138.2487  153.9784 O   0  0  0  0  0  0  0  0  0  0  0  0
  151.1270  143.7353  157.0464 C   0  0  0  0  0  0  0  0  0  0  0  0
  151.8113  144.6290  158.0938 C   0  0  0  0  0  0  0  0  0  0  0  0
  153.2815  145.0128  160.4677 H   0  0  0  0  0  0  0  0  0  0  0  0
  151.9451  144.7441  161.5840 H   0  0  0  0  0  0  0  0  0  0  0  0
  151.8920  146.0961  160.4600 H   0  0  0  0  0  0  0  0  0  0  0  0
  150.4271  144.2506  159.6882 H   0  0  0  0  0  0  0  0  0  0  0  0
  152.9732  142.5721  159.6190 H   0  0  0  0  0  0  0  0  0  0  0  0
  151.6287  142.3460  160.7108 H   0  0  0  0  0  0  0  0  0  0  0  0
  151.5194  140.7550  158.8021 H   0  0  0  0  0  0  0  0  0  0  0  0
  150.1219  141.8038  158.8374 H   0  0  0  0  0  0  0  0  0  0  0  0
  152.5828  142.1418  157.0664 H   0  0  0  0  0  0  0  0  0  0  0  0
  149.7862  141.5139  156.2510 H   0  0  0  0  0  0  0  0  0  0  0  0
  149.3618  140.0491  154.7344 H   0  0  0  0  0  0  0  0  0  0  0  0
  150.5982  140.0363  153.5191 H   0  0  0  0  0  0  0  0  0  0  0  0
  148.5155  138.1727  155.3586 H   0  0  0  0  0  0  0  0  0  0  0  0
  148.5341  135.7026  155.6639 H   0  0  0  0  0  0  0  0  0  0  0  0
  151.4016  144.0724  156.0462 H   0  0  0  0  0  0  0  0  0  0  0  0
  150.0450  143.8510  157.1243 H   0  0  0  0  0  0  0  0  0  0  0  0
  151.4870  145.6616  157.9589 H   0  0  0  0  0  0  0  0  0  0  0  0
  152.8893  144.6205  157.9271 H   0  0  0  0  0  0  0  0  0  0  0  0
  1  2  1  0  0  0  0
  1 20  1  0  0  0  0
  1 21  1  0  0  0  0
  1 22  1  0  0  0  0
  2 19  1  0  0  0  0
  2  3  1  0  0  0  0
  2 23  1  0  0  0  0
  3  4  1  0  0  0  0
  3 24  1  0  0  0  0
  3 25  1  0  0  0  0
  4  5  1  0  0  0  0
  4 26  1  0  0  0  0
  4 27  1  0  0  0  0
  5  6  1  0  0  0  0
  5 18  1  0  0  0  0
  5 28  1  0  0  0  0
  6  7  1  0  0  0  0
  6 29  1  0  0  0  0
  7  8  2  0  0  0  0
  7  9  1  0  0  0  0
  9 10  1  0  0  0  0
  9 30  1  0  0  0  0
  9 31  1  0  0  0  0
 10 16  1  0  0  0  0
 10 11  1  0  0  0  0
 11 12  2  0  0  0  0
 11 32  1  0  0  0  0
 12 13  1  0  0  0  0
 12 33  1  0  0  0  0
 13 14  2  0  0  0  0
 13 15  1  0  0  0  0
 15 16  1  0  0  0  0
 16 17  2  0  0  0  0
 18 19  1  0  0  0  0
 18 34  1  0  0  0  0
 18 35  1  0  0  0  0
 19 36  1  0  0  0  0
 19 37  1  0  0  0  0
M  CHG  1  15  -1
M  END
> <s_m_source_file>
AV-unprocessed.smi

> <i_m_source_file_index>
414

> <i_lp_mmshare_version>
43012

> <i_f3d_flags>
0

> <s_epik_input>
W0NIM11bQ0BASF0xW0NIMl1bQ0gyXVtDQEhdKFtDSDJdW0NIMl0xKVtOSF1DKD1PKVtDSDJdbjJbY0hdW2NIXWMoPU8pW25IXWMyPU8=

> <s_epik_cmdline>
J2VwaWtfcHl0aG9uJywgJy1waCcsICc3LjAnLCAnLXRuJywgJzgnLCAnLW1hJywgJzIwMCcsICctbWV0YWxfYmluZGluZycsICctaW1hZScsICc8aW5maWxlLm1hZT4nLCAnLW9tYWUnLCAnPG91dGZpbGUubWFlPic=

> <r_lp_tautomer_probability>
0.999537

> <r_epik_Ionization_Penalty>
3.11551

> <r_epik_Ionization_Penalty_Charging>
2.90498e-08

> <r_epik_Ionization_Penalty_Neutral>
3.11551

> <r_epik_State_Penalty>
3.11459

> <r_epik_Charging_Adjusted_Penalty>
3.11459

> <i_epik_Tot_Q>
-1

> <i_epik_Tot_abs_Q>
1

> <r_epik_Metal_State_Penalty>
0.463083

> <b_epik_Metal_Only>
1

> <s_lp_Force_Field>
OPLS_2005

> <r_lp_Energy>
17.7967

> <b_lp_Chiralities_Consistent>
1

> <s_lp_Variant>
AV-unprocessed.smi:414-3

> <Gold.Version>
5.8.1

> <Gold.Id.Protein>
6NUR|6NUR_protein|mol2

> <Gold.PLP.Fitness>
43.0329

> <Gold.PLP.PLP>
-34.2670

> <Gold.PLP.part.hbond>
-3.4615

> <Gold.PLP.part.metal>
0.0000

> <Gold.PLP.part.buried>
-0.4314

> <Gold.PLP.part.nonpolar>
-29.1517

> <Gold.PLP.part.repulsive>
0.3873

> <Gold.PLP.ligand.clash>
0.0000

> <Gold.PLP.ligand.torsion>
0.1195

> <Gold.PLP.Chemscore.Hbond>
3.0000

> <Gold.PLP.Chemscore.CHOScore>
0.0000

> <Gold.PLP.Chemscore.Metal>
0.0000

> <Gold.Chemscore.Hbonds>
donor molecule, donor type, donor heavy atom, donor atom, acceptor molecule, acceptor atom, score
      P1  H  7997  8009       L1     8  0.90
      P1  H 10752 10764       L1    15  1.56

> <Gold.PLP.Chemscore.Internal.Correction>
0.0050

> <Gold.Rescore>
     Score         DG    S(hbond)    S(metal)    S(lipo)     H(rot)  DE(clash)    DE(int)     intcor
     12.00     -16.77       1.71        0.00      84.05       1.65       1.02       3.76       ----

> <Gold.Chemscore.Fitness>
11.9955

> <Gold.Chemscore.DG>
-16.7741

> <Gold.Chemscore.ZeroCoef>
-5.4800

> <Gold.Chemscore.Hbond>
1.7057

> <Gold.Chemscore.Metal>
0.0000

> <Gold.Chemscore.Lipo>
84.0473

> <Gold.Chemscore.Internal_Hbond>
0.0000

> <Gold.Chemscore.DEClash>
1.0215

> <Gold.Chemscore.DEInternal>
3.7570

> <Gold.Chemscore.Rot>
1.6549

> <Gold.Chemscore.Internal.Correction>
   9.000000E+99

> <Gold.Chemscore.Hbonds>
donor molecule, donor type, donor heavy atom, donor atom, acceptor molecule, acceptor atom, score
      P1  H  7997  8009       L1     8  0.85
      P1  H 10752 10764       L1    15  0.57

> <Gold.Chemscore.Hbond.Weighted>
-5.6970

> <Gold.Chemscore.Metal.Weighted>
-0.0000

> <Gold.Chemscore.Lipo.Weighted>
-9.8335

> <Gold.Chemscore.Internal_Hbond.Weighted>
0.0000

> <Gold.Chemscore.DEClash.Weighted>
1.0215

> <Gold.Chemscore.DEInternal.Weighted>
3.7570

> <Gold.Chemscore.Rot.Weighted>
4.2364

> <Gold.Chemscore.Internal.Correction.Weighted>
   9.000000E+99

> <Gold.Protein.RotatedTorsions>
[ 6907 6896 6895 6894 ] final    2.65 input  -60.11 | X-H torsion
[ 7974 7965 7964 7962 ] final  -34.76 input  175.53 | X-H torsion
[ 8008 7997 7996 7995 ] final -163.61 input   59.86 | X-H torsion
[ 10167 10162 10161 10158 ] final  118.63 input  -65.29 | X-H torsion
[ 10718 10713 10712 10709 ] final -167.66 input   66.30 | X-H torsion
[ 10763 10752 10751 10750 ] final  -42.75 input  -60.55 | X-H torsion
[ 11005 11000 10999 10996 ] final -122.08 input  -57.11 | X-H torsion

> <Gold.Protein.ActiveResidues>
 VAL166  LYS551  ARG553  GLY616  TRP617  ASP618  TYR619  PRO620  LYS621  CYS622 
 ASP623  PHE694  ASN695  SER759  ASP760  ASP761  ALA762  ILE779  LEU786  VAL792 
 PHE793  MET794  SER795  GLU796  ALA797  LYS798  CYS799  TRP800  GLU811  SER814 

> <Gold.Protein.RotatedAtoms>
  151.6123  135.1039  160.0083 H   0  0  0  0  0  0  0  0  0  0  0  0  # atno 6907 bound_to 6896
  152.4202  133.7099  159.6483 H   0  0  0  0  0  0  0  0  0  0  0  0  # atno 6908 bound_to 6896
  150.8089  133.8385  159.3213 H   0  0  0  0  0  0  0  0  0  0  0  0  # atno 6909 bound_to 6896
  146.0802  140.6078  142.8911 H   0  0  0  0  0  0  0  0  0  0  0  0  # atno 7974 bound_to 7965
  155.8237  140.0923  157.1834 H   0  0  0  0  0  0  0  0  0  0  0  0  # atno 8008 bound_to 7997
  154.3979  140.1432  156.3591 H   0  0  0  0  0  0  0  0  0  0  0  0  # atno 8009 bound_to 7997
  155.8239  140.3445  155.5533 H   0  0  0  0  0  0  0  0  0  0  0  0  # atno 8010 bound_to 7997
  139.6099  144.7079  151.2868 H   0  0  0  0  0  0  0  0  0  0  0  0  # atno 10167 bound_to 10162
  156.6856  130.9139  151.3062 H   0  0  0  0  0  0  0  0  0  0  0  0  # atno 10718 bound_to 10713
  153.9842  135.6713  153.4751 H   0  0  0  0  0  0  0  0  0  0  0  0  # atno 10763 bound_to 10752
  153.0734  135.4962  154.8350 H   0  0  0  0  0  0  0  0  0  0  0  0  # atno 10764 bound_to 10752
  154.7147  135.3104  154.9105 H   0  0  0  0  0  0  0  0  0  0  0  0  # atno 10765 bound_to 10752
  141.0022  134.0386  157.3523 H   0  0  0  0  0  0  0  0  0  0  0  0  # atno 11005 bound_to 11000
  144.7288  140.4609  143.6953 LP  0  0  0  0  0  0  0  0  0  0  0  0  # atno 17320 bound_to 7965
  145.6231  139.1526  143.3011 LP  0  0  0  0  0  0  0  0  0  0  0  0  # atno 17321 bound_to 7965
  140.7311  143.6860  150.7962 LP  0  0  0  0  0  0  0  0  0  0  0  0  # atno 17342 bound_to 10162
  140.0452  143.5305  152.2699 LP  0  0  0  0  0  0  0  0  0  0  0  0  # atno 17343 bound_to 10162
  157.7028  130.9351  150.0836 LP  0  0  0  0  0  0  0  0  0  0  0  0  # atno 17370 bound_to 10713
  156.1835  130.3651  149.9003 LP  0  0  0  0  0  0  0  0  0  0  0  0  # atno 17371 bound_to 10713
  139.9045  135.0175  156.7421 LP  0  0  0  0  0  0  0  0  0  0  0  0  # atno 17394 bound_to 11000
  140.6870  133.9423  155.7944 LP  0  0  0  0  0  0  0  0  0  0  0  0  # atno 17395 bound_to 11000

$$$$
