AV-unprocessed.smi:157|AV-procd|sdf|1315|dock3
  -GOLD-   2262019 03D 1   1.00000     0.00000
 Structure written by MMmdl.
 36 38  0  0  0  0  0  0  0  0  2 V2000
  150.9755  136.9663  154.3581 O   0  0  0  0  0  0  0  0  0  0  0  0
  150.9743  138.3774  154.4109 C   0  0  0  0  0  0  0  0  0  0  0  0
  149.6505  138.9028  155.0021 C   0  0  1  0  0  0  0  0  0  0  0  0
  149.8406  139.0069  156.4157 O   0  0  0  0  0  0  0  0  0  0  0  0
  149.6570  140.3241  156.8341 C   0  0  1  0  0  0  0  0  0  0  0  0
  150.6854  140.6416  157.8691 N   0  0  0  0  0  0  0  0  0  0  0  0
  151.3778  139.7452  158.6027 C   0  0  0  0  0  0  0  0  0  0  0  0
  152.2369  140.2830  159.4518 N   0  3  0  0  0  0  0  0  0  0  0  0
  152.1372  141.6493  159.2953 C   0  0  0  0  0  0  0  0  0  0  0  0
  151.1625  141.8528  158.3147 C   0  0  0  0  0  0  0  0  0  0  0  0
  150.6692  143.0501  157.7737 N   0  0  0  0  0  0  0  0  0  0  0  0
  150.8497  144.2022  158.3335 C   0  0  0  0  0  0  0  0  0  0  0  0
  151.5958  144.5204  159.4563 N   0  0  0  0  0  0  0  0  0  0  0  0
  152.9459  144.0318  159.6735 C   0  0  0  0  0  0  0  0  0  0  0  0
  153.0069  142.5603  160.1043 C   0  0  1  0  0  0  0  0  0  0  0  0
  152.7330  142.4835  161.4880 O   0  0  0  0  0  0  0  0  0  0  0  0
  149.8437  141.2009  155.6043 C   0  0  0  0  0  0  0  0  0  0  0  0
  149.2205  140.3138  154.5502 C   0  0  1  0  0  0  0  0  0  0  0  0
  149.6444  140.6831  153.2537 O   0  0  0  0  0  0  0  0  0  0  0  0
  148.8533  138.1827  154.8123 H   0  0  0  0  0  0  0  0  0  0  0  0
  148.6847  140.4399  157.3143 H   0  0  0  0  0  0  0  0  0  0  0  0
  154.0376  142.2248  159.9838 H   0  0  0  0  0  0  0  0  0  0  0  0
  148.1339  140.3967  154.6052 H   0  0  0  0  0  0  0  0  0  0  0  0
  150.5335  136.6938  153.5683 H   0  0  0  0  0  0  0  0  0  0  0  0
  151.8080  138.6786  155.0460 H   0  0  0  0  0  0  0  0  0  0  0  0
  151.1625  138.7921  153.4203 H   0  0  0  0  0  0  0  0  0  0  0  0
  151.2395  138.6838  158.4985 H   0  0  0  0  0  0  0  0  0  0  0  0
  150.3751  145.0816  157.8956 H   0  0  0  0  0  0  0  0  0  0  0  0
  151.4547  145.4211  159.8914 H   0  0  0  0  0  0  0  0  0  0  0  0
  153.4893  144.1478  158.7344 H   0  0  0  0  0  0  0  0  0  0  0  0
  153.4549  144.6689  160.3975 H   0  0  0  0  0  0  0  0  0  0  0  0
  153.5433  142.5757  161.9651 H   0  0  0  0  0  0  0  0  0  0  0  0
  149.3522  142.1668  155.7237 H   0  0  0  0  0  0  0  0  0  0  0  0
  150.9075  141.3536  155.4128 H   0  0  0  0  0  0  0  0  0  0  0  0
  149.1801  140.1528  152.6236 H   0  0  0  0  0  0  0  0  0  0  0  0
  152.8501  139.7840  160.0837 H   0  0  0  0  0  0  0  0  0  0  0  0
  1  2  1  0  0  0  0
  1 24  1  0  0  0  0
  2  3  1  0  0  0  0
  2 25  1  0  0  0  0
  2 26  1  0  0  0  0
  3 20  1  0  0  0  0
  3 18  1  0  0  0  0
  3  4  1  0  0  0  0
  4  5  1  0  0  0  0
  5 21  1  0  0  0  0
  5  6  1  0  0  0  0
  5 17  1  0  0  0  0
  6 10  1  0  0  0  0
  6  7  1  0  0  0  0
  7  8  2  0  0  0  0
  7 27  1  0  0  0  0
  8  9  1  0  0  0  0
  8 36  1  0  0  0  0
  9 15  1  0  0  0  0
  9 10  2  0  0  0  0
 10 11  1  0  0  0  0
 11 12  2  0  0  0  0
 12 13  1  0  0  0  0
 12 28  1  0  0  0  0
 13 14  1  0  0  0  0
 13 29  1  0  0  0  0
 14 15  1  0  0  0  0
 14 30  1  0  0  0  0
 14 31  1  0  0  0  0
 15 22  1  0  0  0  0
 15 16  1  0  0  0  0
 16 32  1  0  0  0  0
 17 18  1  0  0  0  0
 17 33  1  0  0  0  0
 17 34  1  0  0  0  0
 18 23  1  0  0  0  0
 18 19  1  0  0  0  0
 19 35  1  0  0  0  0
M  CHG  1   8   1
M  END
> <s_m_source_file>
AV-unprocessed.smi

> <i_m_source_file_index>
157

> <i_lp_mmshare_version>
43012

> <i_f3d_flags>
0

> <s_epik_input>
W09IXVtDSDJdW0NASF0xT1tDQEhdKFtDSDJdW0NAQEhdMVtPSF0pbihbY0hdbjIpYyhjMjMpTj1bQ0hdW05IXVtDSDJdW0NASF0zW09IXQ==

> <s_epik_cmdline>
J2VwaWtfcHl0aG9uJywgJy1waCcsICc3LjAnLCAnLXRuJywgJzgnLCAnLW1hJywgJzIwMCcsICctbWV0YWxfYmluZGluZycsICctaW1hZScsICc8aW5maWxlLm1hZT4nLCAnLW9tYWUnLCAnPG91dGZpbGUubWFlPic=

> <r_epik_Ionization_Penalty>
1.68594

> <r_epik_Ionization_Penalty_Charging>
0

> <r_epik_Ionization_Penalty_Neutral>
1.68594

> <r_epik_State_Penalty>
1.79006

> <r_epik_Charging_Adjusted_Penalty>
1.79006

> <i_epik_Tot_Q>
1

> <i_epik_Tot_abs_Q>
1

> <r_epik_Metal_State_Penalty>
5.85324

> <b_epik_Metal_Only>
0

> <s_epik_Chemistry_Notes>
This compound has an imine and may undergo hydrolysis. This compound contains an acetal/aminal-like group ( X-CH(R)-Y where X, Y are N, S, or O) that may be acid/base labile, releasing an aldehyde.

> <s_lp_Force_Field>
OPLS_2005

> <r_lp_Energy>
55.0394

> <b_lp_Chiralities_Consistent>
1

> <s_lp_Variant>
AV-unprocessed.smi:157-25

> <Gold.Version>
5.8.1

> <Gold.Id.Protein>
6NUR|6NUR_protein|mol2

> <Gold.PLP.Fitness>
47.1031

> <Gold.PLP.PLP>
-33.8131

> <Gold.PLP.part.hbond>
-4.0795

> <Gold.PLP.part.metal>
0.0000

> <Gold.PLP.part.buried>
-7.7532

> <Gold.PLP.part.nonpolar>
-23.3009

> <Gold.PLP.part.repulsive>
0.3881

> <Gold.PLP.ligand.clash>
0.0000

> <Gold.PLP.ligand.torsion>
0.8582

> <Gold.PLP.Chemscore.Hbond>
3.9067

> <Gold.PLP.Chemscore.CHOScore>
1.0907

> <Gold.PLP.Chemscore.Metal>
0.0000

> <Gold.Chemscore.Hbonds>
donor molecule, donor type, donor heavy atom, donor atom, acceptor molecule, acceptor atom, score
      L1  H     1    24       P1  7949  0.12
      L1  H    19    35       P1  7957  0.46
      P1  H  7989  7998       L1    19  0.29
      P1  H  8011  8017       L1    19  1.00
      P1  H 10752 10764       L1     1  0.18
      L1  C    12    28       P1  8028  0.30
      L1  C    12    28       P1  8029  0.34

> <Gold.PLP.Chemscore.Internal.Correction>
0.0142

> <Gold.Rescore>
     Score         DG    S(hbond)    S(metal)    S(lipo)     H(rot)  DE(clash)    DE(int)     intcor
     12.62     -13.47       3.14        0.00      58.88       3.67       0.21       0.65       ----

> <Gold.Chemscore.Fitness>
12.6197

> <Gold.Chemscore.DG>
-13.4748

> <Gold.Chemscore.ZeroCoef>
-5.4800

> <Gold.Chemscore.Hbond>
3.1408

> <Gold.Chemscore.Metal>
0.0000

> <Gold.Chemscore.Lipo>
58.8847

> <Gold.Chemscore.Internal_Hbond>
0.0000

> <Gold.Chemscore.DEClash>
0.2079

> <Gold.Chemscore.DEInternal>
0.6472

> <Gold.Chemscore.Rot>
3.6659

> <Gold.Chemscore.Internal.Correction>
   9.000000E+99

> <Gold.Chemscore.Hbonds>
donor molecule, donor type, donor heavy atom, donor atom, acceptor molecule, acceptor atom, score
      L1  H    19    35       P1  7957  0.43
      P1  H  7989  7998       L1    19  0.13
      P1  H  8011  8017       L1    19  0.34
      P1  H 10752 10764       L1     1  0.08

> <Gold.Chemscore.Hbond.Weighted>
-10.4901

> <Gold.Chemscore.Metal.Weighted>
-0.0000

> <Gold.Chemscore.Lipo.Weighted>
-6.8895

> <Gold.Chemscore.Internal_Hbond.Weighted>
0.0000

> <Gold.Chemscore.DEClash.Weighted>
0.2079

> <Gold.Chemscore.DEInternal.Weighted>
0.6472

> <Gold.Chemscore.Rot.Weighted>
9.3848

> <Gold.Chemscore.Internal.Correction.Weighted>
   9.000000E+99

> <Gold.Protein.RotatedTorsions>
[ 6907 6896 6895 6894 ] final  108.39 input  -60.11 | X-H torsion
[ 7974 7965 7964 7962 ] final   -9.03 input  175.53 | X-H torsion
[ 8008 7997 7996 7995 ] final  168.67 input   59.86 | X-H torsion
[ 10167 10162 10161 10158 ] final   -1.46 input  -65.29 | X-H torsion
[ 10718 10713 10712 10709 ] final -120.27 input   66.30 | X-H torsion
[ 10763 10752 10751 10750 ] final  -72.89 input  -60.55 | X-H torsion
[ 11005 11000 10999 10996 ] final   -3.85 input  -57.11 | X-H torsion

> <Gold.Protein.ActiveResidues>
 VAL166  LYS551  ARG553  GLY616  TRP617  ASP618  TYR619  PRO620  LYS621  CYS622 
 ASP623  PHE694  ASN695  SER759  ASP760  ASP761  ALA762  ILE779  LEU786  VAL792 
 PHE793  MET794  SER795  GLU796  ALA797  LYS798  CYS799  TRP800  GLU811  SER814 

> <Gold.Protein.RotatedAtoms>
  152.5114  133.9095  159.7480 H   0  0  0  0  0  0  0  0  0  0  0  0  # atno 6907 bound_to 6896
  150.9492  133.6560  159.2782 H   0  0  0  0  0  0  0  0  0  0  0  0  # atno 6908 bound_to 6896
  151.3844  135.0950  159.9559 H   0  0  0  0  0  0  0  0  0  0  0  0  # atno 6909 bound_to 6896
  146.2263  140.2556  142.8349 H   0  0  0  0  0  0  0  0  0  0  0  0  # atno 7974 bound_to 7965
  156.1526  140.1584  156.8744 H   0  0  0  0  0  0  0  0  0  0  0  0  # atno 8008 bound_to 7997
  154.5085  140.0807  156.7980 H   0  0  0  0  0  0  0  0  0  0  0  0  # atno 8009 bound_to 7997
  155.3865  140.3408  155.4251 H   0  0  0  0  0  0  0  0  0  0  0  0  # atno 8010 bound_to 7997
  140.6811  143.6772  150.8135 H   0  0  0  0  0  0  0  0  0  0  0  0  # atno 10167 bound_to 10162
  156.1245  130.6348  150.9520 H   0  0  0  0  0  0  0  0  0  0  0  0  # atno 10718 bound_to 10713
  154.4519  135.5915  153.6197 H   0  0  0  0  0  0  0  0  0  0  0  0  # atno 10763 bound_to 10752
  152.9814  135.6023  154.3594 H   0  0  0  0  0  0  0  0  0  0  0  0  # atno 10764 bound_to 10752
  154.3456  135.2841  155.2378 H   0  0  0  0  0  0  0  0  0  0  0  0  # atno 10765 bound_to 10752
  140.6739  133.9213  155.8512 H   0  0  0  0  0  0  0  0  0  0  0  0  # atno 11005 bound_to 11000
  144.9378  140.8045  143.5649 LP  0  0  0  0  0  0  0  0  0  0  0  0  # atno 17320 bound_to 7965
  145.2505  139.2033  143.4945 LP  0  0  0  0  0  0  0  0  0  0  0  0  # atno 17321 bound_to 7965
  140.0473  143.5285  152.2690 LP  0  0  0  0  0  0  0  0  0  0  0  0  # atno 17342 bound_to 10162
  139.6134  144.7614  151.2900 LP  0  0  0  0  0  0  0  0  0  0  0  0  # atno 17343 bound_to 10162
  157.6427  131.0908  150.8217 LP  0  0  0  0  0  0  0  0  0  0  0  0  # atno 17370 bound_to 10713
  156.8309  130.5015  149.5331 LP  0  0  0  0  0  0  0  0  0  0  0  0  # atno 17371 bound_to 10713
  141.0371  134.0674  157.3946 LP  0  0  0  0  0  0  0  0  0  0  0  0  # atno 17394 bound_to 11000
  139.8973  135.0149  156.7093 LP  0  0  0  0  0  0  0  0  0  0  0  0  # atno 17395 bound_to 11000

$$$$
