AV-unprocessed.smi:2157|AV-procd|sdf|8786|dock1
  -GOLD-   2272011563D 1   1.00000     0.00000
 Structure written by MMmdl.
 41 42  0  0  0  0  0  0  0  0  1 V2000
  149.7628  138.6854  154.1159 C   0  0  0  0  0  0  0  0  0  0  0  0
  149.2596  140.0440  154.6238 C   0  0  1  0  0  0  0  0  0  0  0  0
  148.2930  140.6981  153.6179 C   0  0  0  0  0  0  0  0  0  0  0  0
  147.7858  142.0577  154.1237 C   0  0  0  0  0  0  0  0  0  0  0  0
  147.1254  141.9305  155.5075 C   0  0  0  0  0  0  0  0  0  0  0  0
  148.0573  141.2643  156.5381 C   0  0  2  0  0  0  0  0  0  0  0  0
  149.1492  142.1699  156.8921 N   0  0  0  0  0  0  0  0  0  0  0  0
  150.2315  141.8428  157.6139 C   0  0  0  0  0  0  0  0  0  0  0  0
  150.4298  140.7121  158.0608 O   0  0  0  0  0  0  0  0  0  0  0  0
  151.2513  142.9674  157.8383 C   0  0  0  0  0  0  0  0  0  0  0  0
  151.7723  143.0111  159.2107 N   0  0  0  0  0  0  0  0  0  0  0  0
  151.4362  144.0681  160.0369 C   0  0  0  0  0  0  0  0  0  0  0  0
  151.8837  144.1935  161.3052 C   0  0  0  0  0  0  0  0  0  0  0  0
  152.7662  143.1913  161.8895 C   0  0  0  0  0  0  0  0  0  0  0  0
  153.2164  143.2752  163.0329 O   0  0  0  0  0  0  0  0  0  0  0  0
  153.0811  142.1125  161.0298 N   0  0  0  0  0  0  0  0  0  0  0  0
  153.9713  141.0865  161.5326 C   0  0  0  0  0  0  0  0  0  0  0  0
  152.6263  141.9974  159.6962 C   0  0  0  0  0  0  0  0  0  0  0  0
  152.9590  141.0585  158.9686 O   0  0  0  0  0  0  0  0  0  0  0  0
  148.5905  139.9149  156.0082 C   0  0  0  0  0  0  0  0  0  0  0  0
  148.9409  137.9803  153.9883 H   0  0  0  0  0  0  0  0  0  0  0  0
  150.4746  138.2446  154.8144 H   0  0  0  0  0  0  0  0  0  0  0  0
  150.2661  138.7880  153.1542 H   0  0  0  0  0  0  0  0  0  0  0  0
  150.1298  140.6941  154.7259 H   0  0  0  0  0  0  0  0  0  0  0  0
  148.7885  140.8290  152.6552 H   0  0  0  0  0  0  0  0  0  0  0  0
  147.4431  140.0377  153.4398 H   0  0  0  0  0  0  0  0  0  0  0  0
  148.6163  142.7627  154.1731 H   0  0  0  0  0  0  0  0  0  0  0  0
  147.0731  142.4744  153.4117 H   0  0  0  0  0  0  0  0  0  0  0  0
  146.8073  142.9114  155.8628 H   0  0  0  0  0  0  0  0  0  0  0  0
  146.2166  141.3347  155.4124 H   0  0  0  0  0  0  0  0  0  0  0  0
  147.4720  141.0758  157.4401 H   0  0  0  0  0  0  0  0  0  0  0  0
  149.0733  143.1207  156.5609 H   0  0  0  0  0  0  0  0  0  0  0  0
  152.0720  142.8257  157.1339 H   0  0  0  0  0  0  0  0  0  0  0  0
  150.8035  143.9284  157.5779 H   0  0  0  0  0  0  0  0  0  0  0  0
  150.7877  144.8396  159.6481 H   0  0  0  0  0  0  0  0  0  0  0  0
  151.5874  145.0487  161.8946 H   0  0  0  0  0  0  0  0  0  0  0  0
  153.7360  140.1329  161.0584 H   0  0  0  0  0  0  0  0  0  0  0  0
  153.8241  140.9707  162.6073 H   0  0  0  0  0  0  0  0  0  0  0  0
  154.9875  141.4082  161.3004 H   0  0  0  0  0  0  0  0  0  0  0  0
  147.7590  139.2121  155.9386 H   0  0  0  0  0  0  0  0  0  0  0  0
  149.2892  139.4792  156.7236 H   0  0  0  0  0  0  0  0  0  0  0  0
  1  2  1  0  0  0  0
  1 21  1  0  0  0  0
  1 22  1  0  0  0  0
  1 23  1  0  0  0  0
  2 20  1  0  0  0  0
  2  3  1  0  0  0  0
  2 24  1  0  0  0  0
  3  4  1  0  0  0  0
  3 25  1  0  0  0  0
  3 26  1  0  0  0  0
  4  5  1  0  0  0  0
  4 27  1  0  0  0  0
  4 28  1  0  0  0  0
  5  6  1  0  0  0  0
  5 29  1  0  0  0  0
  5 30  1  0  0  0  0
  6  7  1  0  0  0  0
  6 20  1  0  0  0  0
  6 31  1  0  0  0  0
  7  8  1  0  0  0  0
  7 32  1  0  0  0  0
  8  9  2  0  0  0  0
  8 10  1  0  0  0  0
 10 11  1  0  0  0  0
 10 33  1  0  0  0  0
 10 34  1  0  0  0  0
 11 18  1  0  0  0  0
 11 12  1  0  0  0  0
 12 13  2  0  0  0  0
 12 35  1  0  0  0  0
 13 14  1  0  0  0  0
 13 36  1  0  0  0  0
 14 15  2  0  0  0  0
 14 16  1  0  0  0  0
 16 17  1  0  0  0  0
 16 18  1  0  0  0  0
 17 37  1  0  0  0  0
 17 38  1  0  0  0  0
 17 39  1  0  0  0  0
 18 19  2  0  0  0  0
 20 40  1  0  0  0  0
 20 41  1  0  0  0  0
M  END
> <s_m_source_file>
AV-unprocessed.smi

> <i_m_source_file_index>
2157

> <i_lp_mmshare_version>
43012

> <i_f3d_flags>
0

> <s_epik_input>
W0NIM11bQ0BASF0xW0NIMl1bQ0gyXVtDSDJdW0NASF0oW0NIMl0xKVtOSF1DKD1PKVtDSDJdbjJbY0hdW2NIXWMoPU8pbihbQ0gzXSljMj1P

> <s_epik_cmdline>
J2VwaWtfcHl0aG9uJywgJy1waCcsICc3LjAnLCAnLXRuJywgJzgnLCAnLW1hJywgJzIwMCcsICctbWV0YWxfYmluZGluZycsICctaW1hZScsICc8aW5maWxlLm1hZT4nLCAnLW9tYWUnLCAnPG91dGZpbGUubWFlPic=

> <r_lp_tautomer_probability>
1

> <r_epik_Ionization_Penalty>
3.1838e-08

> <r_epik_Ionization_Penalty_Charging>
1.27911e-08

> <r_epik_Ionization_Penalty_Neutral>
1.90469e-08

> <r_epik_State_Penalty>
-0

> <r_epik_Charging_Adjusted_Penalty>
1.27911e-08

> <i_epik_Tot_Q>
0

> <i_epik_Tot_abs_Q>
0

> <r_epik_Metal_State_Penalty>
-0

> <b_epik_Metal_Only>
0

> <s_lp_Force_Field>
OPLS_2005

> <r_lp_Energy>
16.1054

> <b_lp_Chiralities_Consistent>
1

> <s_lp_Variant>
AV-unprocessed.smi:2157-4

> <Gold.Version>
5.8.1

> <Gold.Id.Protein>
6NUR|6NUR_protein|mol2

> <Gold.PLP.Fitness>
44.5530

> <Gold.PLP.PLP>
-42.3896

> <Gold.PLP.part.hbond>
-1.0000

> <Gold.PLP.part.metal>
0.0000

> <Gold.PLP.part.buried>
-1.3342

> <Gold.PLP.part.nonpolar>
-39.0234

> <Gold.PLP.part.repulsive>
0.1307

> <Gold.PLP.ligand.clash>
0.0000

> <Gold.PLP.ligand.torsion>
0.4240

> <Gold.PLP.Chemscore.Hbond>
1.0000

> <Gold.PLP.Chemscore.CHOScore>
0.0000

> <Gold.PLP.Chemscore.Metal>
0.0000

> <Gold.Chemscore.Hbonds>
donor molecule, donor type, donor heavy atom, donor atom, acceptor molecule, acceptor atom, score
      L1  H     7    32       P1  8028  1.00

> <Gold.PLP.Chemscore.Internal.Correction>
0.0113

> <Gold.Rescore>
     Score         DG    S(hbond)    S(metal)    S(lipo)     H(rot)  DE(clash)    DE(int)     intcor
     10.25     -14.49       1.00        0.00      81.87       1.52       1.19       3.05       ----

> <Gold.Chemscore.Fitness>
10.2450

> <Gold.Chemscore.DG>
-14.4912

> <Gold.Chemscore.ZeroCoef>
-5.4800

> <Gold.Chemscore.Hbond>
0.9985

> <Gold.Chemscore.Metal>
0.0000

> <Gold.Chemscore.Lipo>
81.8651

> <Gold.Chemscore.Internal_Hbond>
0.0000

> <Gold.Chemscore.DEClash>
1.1949

> <Gold.Chemscore.DEInternal>
3.0512

> <Gold.Chemscore.Rot>
1.5242

> <Gold.Chemscore.Internal.Correction>
   9.000000E+99

> <Gold.Chemscore.Hbonds>
donor molecule, donor type, donor heavy atom, donor atom, acceptor molecule, acceptor atom, score
      L1  H     7    32       P1  8028  0.99

> <Gold.Chemscore.Hbond.Weighted>
-3.3348

> <Gold.Chemscore.Metal.Weighted>
-0.0000

> <Gold.Chemscore.Lipo.Weighted>
-9.5782

> <Gold.Chemscore.Internal_Hbond.Weighted>
0.0000

> <Gold.Chemscore.DEClash.Weighted>
1.1949

> <Gold.Chemscore.DEInternal.Weighted>
3.0512

> <Gold.Chemscore.Rot.Weighted>
3.9019

> <Gold.Chemscore.Internal.Correction.Weighted>
   9.000000E+99

> <Gold.Protein.RotatedTorsions>
[ 6907 6896 6895 6894 ] final -102.32 input  -60.11 | X-H torsion
[ 7974 7965 7964 7962 ] final  117.30 input  175.53 | X-H torsion
[ 8008 7997 7996 7995 ] final  101.18 input   59.86 | X-H torsion
[ 10167 10162 10161 10158 ] final -156.33 input  -65.29 | X-H torsion
[ 10718 10713 10712 10709 ] final   52.77 input   66.30 | X-H torsion
[ 10763 10752 10751 10750 ] final  133.36 input  -60.55 | X-H torsion
[ 11005 11000 10999 10996 ] final  -50.00 input  -57.11 | X-H torsion

> <Gold.Protein.ActiveResidues>
 VAL166  LYS551  ARG553  GLY616  TRP617  ASP618  TYR619  PRO620  LYS621  CYS622 
 ASP623  PHE694  ASN695  SER759  ASP760  ASP761  ALA762  ILE779  LEU786  VAL792 
 PHE793  MET794  SER795  GLU796  ALA797  LYS798  CYS799  TRP800  GLU811  SER814 

> <Gold.Protein.RotatedAtoms>
  150.7191  134.0599  159.3827 H   0  0  0  0  0  0  0  0  0  0  0  0  # atno 6907 bound_to 6896
  151.8578  135.0533  160.0475 H   0  0  0  0  0  0  0  0  0  0  0  0  # atno 6908 bound_to 6896
  152.2741  133.5373  159.5493 H   0  0  0  0  0  0  0  0  0  0  0  0  # atno 6909 bound_to 6896
  145.1690  139.3112  143.4477 H   0  0  0  0  0  0  0  0  0  0  0  0  # atno 7974 bound_to 7965
  156.1275  140.3201  155.8299 H   0  0  0  0  0  0  0  0  0  0  0  0  # atno 8008 bound_to 7997
  155.4393  140.0524  157.3029 H   0  0  0  0  0  0  0  0  0  0  0  0  # atno 8009 bound_to 7997
  154.4873  140.2078  155.9639 H   0  0  0  0  0  0  0  0  0  0  0  0  # atno 8010 bound_to 7997
  139.6859  143.9503  152.2360 H   0  0  0  0  0  0  0  0  0  0  0  0  # atno 10167 bound_to 10162
  157.5105  130.8498  149.8429 H   0  0  0  0  0  0  0  0  0  0  0  0  # atno 10718 bound_to 10713
  153.8058  135.3135  155.3395 H   0  0  0  0  0  0  0  0  0  0  0  0  # atno 10763 bound_to 10752
  154.8071  135.4691  154.0423 H   0  0  0  0  0  0  0  0  0  0  0  0  # atno 10764 bound_to 10752
  153.1785  135.6889  153.8598 H   0  0  0  0  0  0  0  0  0  0  0  0  # atno 10765 bound_to 10752
  141.0791  133.6658  156.3667 H   0  0  0  0  0  0  0  0  0  0  0  0  # atno 11005 bound_to 11000
  146.3471  140.1828  142.8589 LP  0  0  0  0  0  0  0  0  0  0  0  0  # atno 17320 bound_to 7965
  145.0252  140.8826  143.5142 LP  0  0  0  0  0  0  0  0  0  0  0  0  # atno 17321 bound_to 7965
  139.9305  144.6744  150.8367 LP  0  0  0  0  0  0  0  0  0  0  0  0  # atno 17342 bound_to 10162
  140.7667  143.3312  151.2407 LP  0  0  0  0  0  0  0  0  0  0  0  0  # atno 17343 bound_to 10162
  156.0286  130.3771  150.1751 LP  0  0  0  0  0  0  0  0  0  0  0  0  # atno 17370 bound_to 10713
  156.9941  130.9902  151.3407 LP  0  0  0  0  0  0  0  0  0  0  0  0  # atno 17371 bound_to 10713
  140.5508  134.6030  157.5407 LP  0  0  0  0  0  0  0  0  0  0  0  0  # atno 17394 bound_to 11000
  139.9604  134.7462  156.0249 LP  0  0  0  0  0  0  0  0  0  0  0  0  # atno 17395 bound_to 11000

$$$$
