AV-unprocessed.smi:895|AV-procd|sdf|4074|dock4
  -GOLD-   22720 1563D 1   1.00000     0.00000
 Structure written by MMmdl.
 44 45  0  0  0  0  0  0  0  0  1 V2000
  143.9531  135.1183  152.0339 C   0  0  0  0  0  0  0  0  0  0  0  0
  145.4734  135.2305  152.2596 C   0  0  0  0  0  0  0  0  0  0  0  0
  146.1423  133.8551  152.0997 C   0  0  0  0  0  0  0  0  0  0  0  0
  146.0135  136.0548  151.2453 O   0  0  0  0  0  0  0  0  0  0  0  0
  145.8480  135.8482  153.6259 C   0  0  0  0  0  0  0  0  0  0  0  0
  147.1704  136.4621  153.6151 N   0  0  0  0  0  0  0  0  0  0  0  0
  147.7148  137.1044  154.6552 C   0  0  0  0  0  0  0  0  0  0  0  0
  147.1579  137.2494  155.7436 O   0  0  0  0  0  0  0  0  0  0  0  0
  148.9372  137.5685  154.3645 N   0  0  0  0  0  0  0  0  0  0  0  0
  149.8054  138.3128  155.2754 C   0  0  1  0  0  0  0  0  0  0  0  0
  151.1386  138.6765  154.5870 C   0  0  0  0  0  0  0  0  0  0  0  0
  152.0492  139.4834  155.5251 C   0  0  0  0  0  0  0  0  0  0  0  0
  151.3473  140.7459  156.0478 C   0  0  0  0  0  0  0  0  0  0  0  0
  150.0111  140.4040  156.7332 C   0  0  0  0  0  0  0  0  0  0  0  0
  149.0649  139.5462  155.8606 C   0  0  1  0  0  0  0  0  0  0  0  0
  148.3416  140.3390  154.8634 N   0  0  0  0  0  0  0  0  0  0  0  0
  148.4192  141.7033  154.6649 C   0  0  0  0  0  0  0  0  0  0  0  0
  147.5709  142.0241  153.6445 C   0  0  0  0  0  0  0  0  0  0  0  0
  147.0068  140.7737  153.2720 C   0  0  0  0  0  0  0  0  0  0  0  0
  147.4675  139.7718  154.0015 N   0  0  0  0  0  0  0  0  0  0  0  0
  143.4840  134.5217  152.8167 H   0  0  0  0  0  0  0  0  0  0  0  0
  143.7305  134.6407  151.0791 H   0  0  0  0  0  0  0  0  0  0  0  0
  143.4670  136.0942  152.0244 H   0  0  0  0  0  0  0  0  0  0  0  0
  145.7725  133.1493  152.8441 H   0  0  0  0  0  0  0  0  0  0  0  0
  147.2244  133.9210  152.2192 H   0  0  0  0  0  0  0  0  0  0  0  0
  145.9448  133.4267  151.1161 H   0  0  0  0  0  0  0  0  0  0  0  0
  146.9065  136.2648  151.4725 H   0  0  0  0  0  0  0  0  0  0  0  0
  145.1233  136.6225  153.8834 H   0  0  0  0  0  0  0  0  0  0  0  0
  145.7947  135.0968  154.4160 H   0  0  0  0  0  0  0  0  0  0  0  0
  147.7032  136.3861  152.7611 H   0  0  0  0  0  0  0  0  0  0  0  0
  149.3042  137.3883  153.4414 H   0  0  0  0  0  0  0  0  0  0  0  0
  150.0465  137.6667  156.1220 H   0  0  0  0  0  0  0  0  0  0  0  0
  151.6568  137.7674  154.2801 H   0  0  0  0  0  0  0  0  0  0  0  0
  150.9593  139.2408  153.6722 H   0  0  0  0  0  0  0  0  0  0  0  0
  152.3469  138.8584  156.3678 H   0  0  0  0  0  0  0  0  0  0  0  0
  152.9675  139.7575  155.0051 H   0  0  0  0  0  0  0  0  0  0  0  0
  151.9987  141.2594  156.7554 H   0  0  0  0  0  0  0  0  0  0  0  0
  151.1890  141.4459  155.2283 H   0  0  0  0  0  0  0  0  0  0  0  0
  150.2291  139.8539  157.6494 H   0  0  0  0  0  0  0  0  0  0  0  0
  149.5075  141.3187  157.0482 H   0  0  0  0  0  0  0  0  0  0  0  0
  148.2978  139.1576  156.5325 H   0  0  0  0  0  0  0  0  0  0  0  0
  149.0647  142.3292  155.2634 H   0  0  0  0  0  0  0  0  0  0  0  0
  147.3820  143.0024  153.2286 H   0  0  0  0  0  0  0  0  0  0  0  0
  146.2807  140.5656  152.5000 H   0  0  0  0  0  0  0  0  0  0  0  0
  1  2  1  0  0  0  0
  1 21  1  0  0  0  0
  1 22  1  0  0  0  0
  1 23  1  0  0  0  0
  2  3  1  0  0  0  0
  2  4  1  0  0  0  0
  2  5  1  0  0  0  0
  3 24  1  0  0  0  0
  3 25  1  0  0  0  0
  3 26  1  0  0  0  0
  4 27  1  0  0  0  0
  5  6  1  0  0  0  0
  5 28  1  0  0  0  0
  5 29  1  0  0  0  0
  6  7  1  0  0  0  0
  6 30  1  0  0  0  0
  7  8  2  0  0  0  0
  7  9  1  0  0  0  0
  9 10  1  0  0  0  0
  9 31  1  0  0  0  0
 10 15  1  0  0  0  0
 10 11  1  0  0  0  0
 10 32  1  0  0  0  0
 11 12  1  0  0  0  0
 11 33  1  0  0  0  0
 11 34  1  0  0  0  0
 12 13  1  0  0  0  0
 12 35  1  0  0  0  0
 12 36  1  0  0  0  0
 13 14  1  0  0  0  0
 13 37  1  0  0  0  0
 13 38  1  0  0  0  0
 14 15  1  0  0  0  0
 14 39  1  0  0  0  0
 14 40  1  0  0  0  0
 15 16  1  0  0  0  0
 15 41  1  0  0  0  0
 16 20  1  0  0  0  0
 16 17  1  0  0  0  0
 17 18  2  0  0  0  0
 17 42  1  0  0  0  0
 18 19  1  0  0  0  0
 18 43  1  0  0  0  0
 19 20  2  0  0  0  0
 19 44  1  0  0  0  0
M  END
> <s_m_source_file>
AV-unprocessed.smi

> <i_m_source_file_index>
895

> <i_lp_mmshare_version>
43012

> <i_f3d_flags>
0

> <s_epik_input>
W0NIM11DKFtDSDNdKShbT0hdKVtDSDJdW05IXUMoPU8pW05IXVtDQEBIXTFbQ0gyXVtDSDJdW0NIMl1bQ0gyXVtDQEhdMW4yW2NIXVtjSF1bY0hdbjI=

> <s_epik_cmdline>
J2VwaWtfcHl0aG9uJywgJy1waCcsICc3LjAnLCAnLXRuJywgJzgnLCAnLW1hJywgJzIwMCcsICctbWV0YWxfYmluZGluZycsICctaW1hZScsICc8aW5maWxlLm1hZT4nLCAnLW9tYWUnLCAnPG91dGZpbGUubWFlPic=

> <r_lp_tautomer_probability>
1

> <r_epik_Ionization_Penalty>
0.000440451

> <r_epik_Ionization_Penalty_Charging>
0

> <r_epik_Ionization_Penalty_Neutral>
0.000440451

> <r_epik_State_Penalty>
-0

> <r_epik_Charging_Adjusted_Penalty>
0

> <i_epik_Tot_Q>
0

> <i_epik_Tot_abs_Q>
0

> <r_epik_Metal_State_Penalty>
-0

> <b_epik_Metal_Only>
0

> <s_lp_Force_Field>
OPLS_2005

> <r_lp_Energy>
15.0391

> <b_lp_Chiralities_Consistent>
1

> <s_lp_Variant>
AV-unprocessed.smi:895-2

> <Gold.Version>
5.8.1

> <Gold.Id.Protein>
6NUR|6NUR_protein|mol2

> <Gold.PLP.Fitness>
42.1401

> <Gold.PLP.PLP>
-28.5588

> <Gold.PLP.part.hbond>
-2.8948

> <Gold.PLP.part.metal>
0.0000

> <Gold.PLP.part.buried>
-3.9277

> <Gold.PLP.part.nonpolar>
-22.2126

> <Gold.PLP.part.repulsive>
0.1796

> <Gold.PLP.ligand.clash>
0.0000

> <Gold.PLP.ligand.torsion>
0.4545

> <Gold.PLP.Chemscore.Hbond>
2.8160

> <Gold.PLP.Chemscore.CHOScore>
1.9809

> <Gold.PLP.Chemscore.Metal>
0.0000

> <Gold.Chemscore.Hbonds>
donor molecule, donor type, donor heavy atom, donor atom, acceptor molecule, acceptor atom, score
      L1  H     4    27       P1  7948  0.96
      L1  H     6    30       P1  7948  1.00
      L1  H     9    31       P1  7948  0.83
      L1  C    17    42       P1  8028  0.95
      L1  C    19    44       P1 10175  0.86

> <Gold.PLP.Chemscore.Internal.Correction>
0.0995

> <Gold.Rescore>
     Score         DG    S(hbond)    S(metal)    S(lipo)     H(rot)  DE(clash)    DE(int)     intcor
     13.49     -17.11       2.67        0.00      71.16       2.19       0.39       3.23       ----

> <Gold.Chemscore.Fitness>
13.4940

> <Gold.Chemscore.DG>
-17.1148

> <Gold.Chemscore.ZeroCoef>
-5.4800

> <Gold.Chemscore.Hbond>
2.6708

> <Gold.Chemscore.Metal>
0.0000

> <Gold.Chemscore.Lipo>
71.1595

> <Gold.Chemscore.Internal_Hbond>
0.0000

> <Gold.Chemscore.DEClash>
0.3884

> <Gold.Chemscore.DEInternal>
3.2325

> <Gold.Chemscore.Rot>
2.1919

> <Gold.Chemscore.Internal.Correction>
   9.000000E+99

> <Gold.Chemscore.Hbonds>
donor molecule, donor type, donor heavy atom, donor atom, acceptor molecule, acceptor atom, score
      L1  H     4    27       P1  7948  0.91
      L1  H     6    30       P1  7948  0.94
      L1  H     9    31       P1  7948  0.79

> <Gold.Chemscore.Hbond.Weighted>
-8.9205

> <Gold.Chemscore.Metal.Weighted>
-0.0000

> <Gold.Chemscore.Lipo.Weighted>
-8.3257

> <Gold.Chemscore.Internal_Hbond.Weighted>
0.0000

> <Gold.Chemscore.DEClash.Weighted>
0.3884

> <Gold.Chemscore.DEInternal.Weighted>
3.2325

> <Gold.Chemscore.Rot.Weighted>
5.6113

> <Gold.Chemscore.Internal.Correction.Weighted>
   9.000000E+99

> <Gold.Protein.RotatedTorsions>
[ 6907 6896 6895 6894 ] final  -96.82 input  -60.11 | X-H torsion
[ 7974 7965 7964 7962 ] final  174.13 input  175.53 | X-H torsion
[ 8008 7997 7996 7995 ] final  -48.79 input   59.86 | X-H torsion
[ 10167 10162 10161 10158 ] final -143.86 input  -65.29 | X-H torsion
[ 10718 10713 10712 10709 ] final  -21.92 input   66.30 | X-H torsion
[ 10763 10752 10751 10750 ] final   79.64 input  -60.55 | X-H torsion
[ 11005 11000 10999 10996 ] final -128.39 input  -57.11 | X-H torsion

> <Gold.Protein.ActiveResidues>
 VAL166  LYS551  ARG553  GLY616  TRP617  ASP618  TYR619  PRO620  LYS621  CYS622 
 ASP623  PHE694  ASN695  SER759  ASP760  ASP761  ALA762  ILE779  LEU786  VAL792 
 PHE793  MET794  SER795  GLU796  ALA797  LYS798  CYS799  TRP800  GLU811  SER814 

> <Gold.Protein.RotatedAtoms>
  150.6999  134.1443  159.4116 H   0  0  0  0  0  0  0  0  0  0  0  0  # atno 6907 bound_to 6896
  151.9427  135.0203  160.0546 H   0  0  0  0  0  0  0  0  0  0  0  0  # atno 6908 bound_to 6896
  152.2079  133.4854  159.5131 H   0  0  0  0  0  0  0  0  0  0  0  0  # atno 6909 bound_to 6896
  144.7228  139.9751  143.6438 H   0  0  0  0  0  0  0  0  0  0  0  0  # atno 7974 bound_to 7965
  154.4034  140.1313  156.4396 H   0  0  0  0  0  0  0  0  0  0  0  0  # atno 8008 bound_to 7997
  155.7472  140.3489  155.5112 H   0  0  0  0  0  0  0  0  0  0  0  0  # atno 8009 bound_to 7997
  155.8984  140.1015  157.1358 H   0  0  0  0  0  0  0  0  0  0  0  0  # atno 8010 bound_to 7997
  139.7954  143.7908  152.2654 H   0  0  0  0  0  0  0  0  0  0  0  0  # atno 10167 bound_to 10162
  156.5115  130.4611  149.6645 H   0  0  0  0  0  0  0  0  0  0  0  0  # atno 10718 bound_to 10713
  153.0969  135.4832  154.8794 H   0  0  0  0  0  0  0  0  0  0  0  0  # atno 10763 bound_to 10752
  154.7334  135.3065  154.8855 H   0  0  0  0  0  0  0  0  0  0  0  0  # atno 10764 bound_to 10752
  153.9484  135.6826  153.4797 H   0  0  0  0  0  0  0  0  0  0  0  0  # atno 10765 bound_to 10752
  140.9520  134.1053  157.4053 H   0  0  0  0  0  0  0  0  0  0  0  0  # atno 11005 bound_to 11000
  146.0532  139.3531  143.0627 LP  0  0  0  0  0  0  0  0  0  0  0  0  # atno 17320 bound_to 7965
  145.8188  140.9689  143.0910 LP  0  0  0  0  0  0  0  0  0  0  0  0  # atno 17321 bound_to 7965
  139.8012  144.7373  150.9823 LP  0  0  0  0  0  0  0  0  0  0  0  0  # atno 17342 bound_to 10162
  140.7820  143.4343  151.0646 LP  0  0  0  0  0  0  0  0  0  0  0  0  # atno 17343 bound_to 10162
  156.3235  130.7293  151.2210 LP  0  0  0  0  0  0  0  0  0  0  0  0  # atno 17370 bound_to 10713
  157.7450  131.0449  150.4817 LP  0  0  0  0  0  0  0  0  0  0  0  0  # atno 17371 bound_to 10713
  139.8850  135.0068  156.6408 LP  0  0  0  0  0  0  0  0  0  0  0  0  # atno 17394 bound_to 11000
  140.7589  133.8834  155.8403 LP  0  0  0  0  0  0  0  0  0  0  0  0  # atno 17395 bound_to 11000

$$$$
