AV-unprocessed.smi:1995|AV-procd|sdf|8082|dock5
  -GOLD-   2272010293D 1   1.00000     0.00000
 Structure written by MMmdl.
 42 43  0  0  0  0  0  0  0  0  3 V2000
  152.3317  138.4493  154.7042 C   0  0  0  0  0  0  0  0  0  0  0  0
  150.8549  138.2327  154.3292 C   0  0  0  0  0  0  0  0  0  0  0  0
  150.0631  137.2108  155.2011 C   0  0  1  0  0  0  0  0  0  0  0  0
  150.8131  135.8513  155.2076 C   0  0  0  0  0  0  0  0  0  0  0  0
  149.9945  137.6987  156.6800 C   0  0  0  0  0  0  0  0  0  0  0  0
  149.6510  136.6168  157.6050 N   0  0  0  0  0  0  0  0  0  0  0  0
  149.1000  136.7442  158.8205 C   0  0  0  0  0  0  0  0  0  0  0  0
  148.9349  137.8622  159.3121 O   0  0  0  0  0  0  0  0  0  0  0  0
  148.7458  135.5662  159.3781 N   0  5  0  0  0  0  0  0  0  0  0  0
  148.1257  135.5504  160.5690 C   0  0  0  0  0  0  0  0  0  0  0  0
  148.0879  136.6111  161.3840 N   0  0  0  0  0  0  0  0  0  0  0  0
  147.3908  136.3740  162.5702 C   0  0  0  0  0  0  0  0  0  0  0  0
  146.8805  135.1059  162.6564 C   0  0  0  0  0  0  0  0  0  0  0  0
  147.2634  134.1655  161.2428 S   0  0  0  0  0  0  0  0  0  0  0  0
  148.6565  137.0383  154.6800 N   0  3  0  0  0  0  0  0  0  0  0  0
  147.8860  135.9089  155.2699 C   0  0  0  0  0  0  0  0  0  0  0  0
  146.6093  135.6610  154.4539 C   0  0  0  0  0  0  0  0  0  0  0  0
  145.8149  136.8393  154.4741 O   0  0  0  0  0  0  0  0  0  0  0  0
  146.4872  137.9398  153.8757 C   0  0  0  0  0  0  0  0  0  0  0  0
  147.7907  138.2494  154.6355 C   0  0  0  0  0  0  0  0  0  0  0  0
  152.7786  139.2045  154.0574 H   0  0  0  0  0  0  0  0  0  0  0  0
  152.9209  137.5405  154.5862 H   0  0  0  0  0  0  0  0  0  0  0  0
  152.4438  138.7983  155.7301 H   0  0  0  0  0  0  0  0  0  0  0  0
  150.3731  139.2094  154.3713 H   0  0  0  0  0  0  0  0  0  0  0  0
  150.8161  137.9251  153.2839 H   0  0  0  0  0  0  0  0  0  0  0  0
  151.7437  135.9064  155.7728 H   0  0  0  0  0  0  0  0  0  0  0  0
  151.0788  135.5262  154.2012 H   0  0  0  0  0  0  0  0  0  0  0  0
  150.2175  135.0623  155.6687 H   0  0  0  0  0  0  0  0  0  0  0  0
  150.9621  138.0864  156.9979 H   0  0  0  0  0  0  0  0  0  0  0  0
  149.3065  138.5373  156.7904 H   0  0  0  0  0  0  0  0  0  0  0  0
  149.7854  135.6759  157.2642 H   0  0  0  0  0  0  0  0  0  0  0  0
  147.3051  137.1670  163.2982 H   0  0  0  0  0  0  0  0  0  0  0  0
  146.3053  134.6698  163.4592 H   0  0  0  0  0  0  0  0  0  0  0  0
  148.4752  134.9945  155.2982 H   0  0  0  0  0  0  0  0  0  0  0  0
  147.6094  136.1376  156.2997 H   0  0  0  0  0  0  0  0  0  0  0  0
  146.8464  135.3757  153.4272 H   0  0  0  0  0  0  0  0  0  0  0  0
  146.0368  134.8424  154.8899 H   0  0  0  0  0  0  0  0  0  0  0  0
  146.6949  137.7220  152.8265 H   0  0  0  0  0  0  0  0  0  0  0  0
  145.8273  138.8072  153.8941 H   0  0  0  0  0  0  0  0  0  0  0  0
  147.5692  138.5868  155.6488 H   0  0  0  0  0  0  0  0  0  0  0  0
  148.2713  139.0767  154.1167 H   0  0  0  0  0  0  0  0  0  0  0  0
  148.7911  136.7878  153.7097 H   0  0  0  0  0  0  0  0  0  0  0  0
  1  2  1  0  0  0  0
  1 21  1  0  0  0  0
  1 22  1  0  0  0  0
  1 23  1  0  0  0  0
  2  3  1  0  0  0  0
  2 24  1  0  0  0  0
  2 25  1  0  0  0  0
  3  4  1  0  0  0  0
  3  5  1  0  0  0  0
  3 15  1  0  0  0  0
  4 26  1  0  0  0  0
  4 27  1  0  0  0  0
  4 28  1  0  0  0  0
  5  6  1  0  0  0  0
  5 29  1  0  0  0  0
  5 30  1  0  0  0  0
  6  7  1  0  0  0  0
  6 31  1  0  0  0  0
  7  8  2  0  0  0  0
  7  9  1  0  0  0  0
  9 10  1  0  0  0  0
 10 14  1  0  0  0  0
 10 11  2  0  0  0  0
 11 12  1  0  0  0  0
 12 13  2  0  0  0  0
 12 32  1  0  0  0  0
 13 14  1  0  0  0  0
 13 33  1  0  0  0  0
 15 20  1  0  0  0  0
 15 16  1  0  0  0  0
 15 42  1  0  0  0  0
 16 17  1  0  0  0  0
 16 34  1  0  0  0  0
 16 35  1  0  0  0  0
 17 18  1  0  0  0  0
 17 36  1  0  0  0  0
 17 37  1  0  0  0  0
 18 19  1  0  0  0  0
 19 20  1  0  0  0  0
 19 38  1  0  0  0  0
 19 39  1  0  0  0  0
 20 40  1  0  0  0  0
 20 41  1  0  0  0  0
M  CHG  1   9  -1
M  CHG  1  15   1
M  END
> <s_m_source_file>
AV-unprocessed.smi

> <i_m_source_file_index>
1995

> <i_lp_mmshare_version>
43012

> <i_f3d_flags>
0

> <s_epik_input>
W0NIMl0xW0NIMl1PW0NIMl1bQ0gyXU4xW0NAQF0oW0NIM10pKFtDSDJdW0NIM10pW0NIMl1bTkhdQyg9TylbTkhdYzJuW2NIXVtjSF1zMg==

> <s_epik_cmdline>
J2VwaWtfcHl0aG9uJywgJy1waCcsICc3LjAnLCAnLXRuJywgJzgnLCAnLW1hJywgJzIwMCcsICctbWV0YWxfYmluZGluZycsICctaW1hZScsICc8aW5maWxlLm1hZT4nLCAnLW9tYWUnLCAnPG91dGZpbGUubWFlPic=

> <r_lp_tautomer_probability>
0.999

> <r_epik_Ionization_Penalty>
8.09417

> <r_epik_Ionization_Penalty_Charging>
6.70334

> <r_epik_Ionization_Penalty_Neutral>
1.39083

> <r_epik_State_Penalty>
6.86521

> <r_epik_Charging_Adjusted_Penalty>
13.5685

> <i_epik_Tot_Q>
0

> <i_epik_Tot_abs_Q>
2

> <r_epik_Metal_State_Penalty>
2.79608

> <b_epik_Metal_Only>
1

> <s_lp_Force_Field>
OPLS_2005

> <r_lp_Energy>
20.9753

> <b_lp_Chiralities_Consistent>
1

> <s_lp_Variant>
AV-unprocessed.smi:1995-7

> <Gold.Version>
5.8.1

> <Gold.Id.Protein>
6NUR|6NUR_protein|mol2

> <Gold.PLP.Fitness>
44.8647

> <Gold.PLP.PLP>
-30.6879

> <Gold.PLP.part.hbond>
-4.9726

> <Gold.PLP.part.metal>
0.0000

> <Gold.PLP.part.buried>
-3.9739

> <Gold.PLP.part.nonpolar>
-22.6237

> <Gold.PLP.part.repulsive>
0.1100

> <Gold.PLP.ligand.clash>
0.0000

> <Gold.PLP.ligand.torsion>
0.5310

> <Gold.PLP.Chemscore.Hbond>
5.0000

> <Gold.PLP.Chemscore.CHOScore>
0.0000

> <Gold.PLP.Chemscore.Metal>
0.0000

> <Gold.Chemscore.Hbonds>
donor molecule, donor type, donor heavy atom, donor atom, acceptor molecule, acceptor atom, score
      L1  H    15    42       P1  7948  2.00
      P1  H  6896  6908       L1     9  1.33
      P1  H  6931  6943       L1    11  0.95

> <Gold.PLP.Chemscore.Internal.Correction>
0.2388

> <Gold.Rescore>
     Score         DG    S(hbond)    S(metal)    S(lipo)     H(rot)  DE(clash)    DE(int)     intcor
     14.05     -16.59       2.47        0.00      62.66       1.75       0.01       2.53       ----

> <Gold.Chemscore.Fitness>
14.0537

> <Gold.Chemscore.DG>
-16.5913

> <Gold.Chemscore.ZeroCoef>
-5.4800

> <Gold.Chemscore.Hbond>
2.4750

> <Gold.Chemscore.Metal>
0.0000

> <Gold.Chemscore.Lipo>
62.6557

> <Gold.Chemscore.Internal_Hbond>
0.0000

> <Gold.Chemscore.DEClash>
0.0089

> <Gold.Chemscore.DEInternal>
2.5287

> <Gold.Chemscore.Rot>
1.7523

> <Gold.Chemscore.Internal.Correction>
   9.000000E+99

> <Gold.Chemscore.Hbonds>
donor molecule, donor type, donor heavy atom, donor atom, acceptor molecule, acceptor atom, score
      L1  H    15    42       P1  7948  1.00
      P1  H  6896  6908       L1     9  0.14
      P1  H  6931  6943       L1    11  0.21

> <Gold.Chemscore.Hbond.Weighted>
-8.2664

> <Gold.Chemscore.Metal.Weighted>
-0.0000

> <Gold.Chemscore.Lipo.Weighted>
-7.3307

> <Gold.Chemscore.Internal_Hbond.Weighted>
0.0000

> <Gold.Chemscore.DEClash.Weighted>
0.0089

> <Gold.Chemscore.DEInternal.Weighted>
2.5287

> <Gold.Chemscore.Rot.Weighted>
4.4858

> <Gold.Chemscore.Internal.Correction.Weighted>
   9.000000E+99

> <Gold.Protein.RotatedTorsions>
[ 6907 6896 6895 6894 ] final  170.63 input  -60.11 | X-H torsion
[ 7974 7965 7964 7962 ] final   55.55 input  175.53 | X-H torsion
[ 8008 7997 7996 7995 ] final  -26.34 input   59.86 | X-H torsion
[ 10167 10162 10161 10158 ] final  -13.64 input  -65.29 | X-H torsion
[ 10718 10713 10712 10709 ] final   51.77 input   66.30 | X-H torsion
[ 10763 10752 10751 10750 ] final  177.55 input  -60.55 | X-H torsion
[ 11005 11000 10999 10996 ] final   31.21 input  -57.11 | X-H torsion

> <Gold.Protein.ActiveResidues>
 VAL166  LYS551  ARG553  GLY616  TRP617  ASP618  TYR619  PRO620  LYS621  CYS622 
 ASP623  PHE694  ASN695  SER759  ASP760  ASP761  ALA762  ILE779  LEU786  VAL792 
 PHE793  MET794  SER795  GLU796  ALA797  LYS798  CYS799  TRP800  GLU811  SER814 

> <Gold.Protein.RotatedAtoms>
  151.8131  133.3384  159.3560 H   0  0  0  0  0  0  0  0  0  0  0  0  # atno 6907 bound_to 6896
  150.7319  134.5645  159.5868 H   0  0  0  0  0  0  0  0  0  0  0  0  # atno 6908 bound_to 6896
  152.3061  134.7555  160.0398 H   0  0  0  0  0  0  0  0  0  0  0  0  # atno 6909 bound_to 6896
  145.9492  139.3957  143.0316 H   0  0  0  0  0  0  0  0  0  0  0  0  # atno 7974 bound_to 7965
  154.4430  140.1902  156.0761 H   0  0  0  0  0  0  0  0  0  0  0  0  # atno 8008 bound_to 7997
  156.0474  140.3312  155.7286 H   0  0  0  0  0  0  0  0  0  0  0  0  # atno 8009 bound_to 7997
  155.5608  140.0603  157.2820 H   0  0  0  0  0  0  0  0  0  0  0  0  # atno 8010 bound_to 7997
  140.7186  143.5405  150.9415 H   0  0  0  0  0  0  0  0  0  0  0  0  # atno 10167 bound_to 10162
  157.5012  130.8439  149.8319 H   0  0  0  0  0  0  0  0  0  0  0  0  # atno 10718 bound_to 10713
  154.4960  135.2781  155.1459 H   0  0  0  0  0  0  0  0  0  0  0  0  # atno 10763 bound_to 10752
  154.3112  135.6228  153.5470 H   0  0  0  0  0  0  0  0  0  0  0  0  # atno 10764 bound_to 10752
  152.9895  135.5720  154.5392 H   0  0  0  0  0  0  0  0  0  0  0  0  # atno 10765 bound_to 10752
  140.2863  134.2916  155.7787 H   0  0  0  0  0  0  0  0  0  0  0  0  # atno 11005 bound_to 11000
  145.8194  140.9686  143.0907 LP  0  0  0  0  0  0  0  0  0  0  0  0  # atno 17320 bound_to 7965
  144.6793  140.0022  143.7484 LP  0  0  0  0  0  0  0  0  0  0  0  0  # atno 17321 bound_to 7965
  139.9127  143.6700  152.3112 LP  0  0  0  0  0  0  0  0  0  0  0  0  # atno 17342 bound_to 10162
  139.7089  144.7623  151.1146 LP  0  0  0  0  0  0  0  0  0  0  0  0  # atno 17343 bound_to 10162
  156.0230  130.3789  150.1905 LP  0  0  0  0  0  0  0  0  0  0  0  0  # atno 17370 bound_to 10713
  157.0094  130.9946  151.3370 LP  0  0  0  0  0  0  0  0  0  0  0  0  # atno 17371 bound_to 10713
  141.2154  133.7556  156.9556 LP  0  0  0  0  0  0  0  0  0  0  0  0  # atno 17394 bound_to 11000
  140.1237  134.9400  157.2239 LP  0  0  0  0  0  0  0  0  0  0  0  0  # atno 17395 bound_to 11000

$$$$
