AV-unprocessed.smi:104|AV-procd|sdf|1007|dock2
  -GOLD-   2262018 03D 1   1.00000     0.00000
 Structure written by MMmdl.
 47 49  0  0  0  0  0  0  0  0  1 V2000
  151.9141  144.2009  157.9981 C   0  0  0  0  0  0  0  0  0  0  0  0
  151.1875  142.8941  158.2861 C   0  0  0  0  0  0  0  0  0  0  0  0
  150.6315  142.6922  159.3660 O   0  0  0  0  0  0  0  0  0  0  0  0
  151.2339  142.0441  157.2487 O   0  0  0  0  0  0  0  0  0  0  0  0
  150.9987  140.6614  157.4595 C   0  0  0  0  0  0  0  0  0  0  0  0
  151.6253  139.8577  156.3063 C   0  0  2  0  0  0  0  0  0  0  0  0
  150.7716  139.9888  155.1666 O   0  0  0  0  0  0  0  0  0  0  0  0
  150.2273  138.7547  154.8081 C   0  0  2  0  0  0  0  0  0  0  0  0
  148.7960  138.9311  154.4003 N   0  0  0  0  0  0  0  0  0  0  0  0
  148.1452  140.0960  154.0671 C   0  0  0  0  0  0  0  0  0  0  0  0
  149.0284  141.7828  154.0766 Br  0  0  0  0  0  0  0  0  0  0  0  0
  146.8940  140.0029  153.7146 N   0  0  0  0  0  0  0  0  0  0  0  0
  146.6550  138.6369  153.7996 C   0  0  0  0  0  0  0  0  0  0  0  0
  145.5244  137.8189  153.5496 C   0  0  0  0  0  0  0  0  0  0  0  0
  144.3448  138.3069  153.1420 N   0  0  0  0  0  0  0  0  0  0  0  0
  145.6404  136.4819  153.7257 N   0  0  0  0  0  0  0  0  0  0  0  0
  146.8073  135.9693  154.1283 C   0  0  0  0  0  0  0  0  0  0  0  0
  147.9474  136.6067  154.4038 N   0  0  0  0  0  0  0  0  0  0  0  0
  147.8321  137.9554  154.2281 C   0  0  0  0  0  0  0  0  0  0  0  0
  150.3962  137.8178  156.0099 C   0  0  2  0  0  0  0  0  0  0  0  0
  149.3325  137.9724  156.9498 O   0  0  0  0  0  0  0  0  0  0  0  0
  149.2126  137.1426  158.0006 C   0  0  0  0  0  0  0  0  0  0  0  0
  147.9195  137.3708  158.7709 C   0  0  0  0  0  0  0  0  0  0  0  0
  150.0123  136.2674  158.3307 O   0  0  0  0  0  0  0  0  0  0  0  0
  151.7089  138.3415  156.5600 C   0  0  2  0  0  0  0  0  0  0  0  0
  151.9069  137.9534  157.9154 O   0  0  0  0  0  0  0  0  0  0  0  0
  152.8900  138.5112  158.6417 C   0  0  0  0  0  0  0  0  0  0  0  0
  152.9770  137.9271  160.0451 C   0  0  0  0  0  0  0  0  0  0  0  0
  153.6543  139.3995  158.2651 O   0  0  0  0  0  0  0  0  0  0  0  0
  151.3861  144.7643  157.2287 H   0  0  0  0  0  0  0  0  0  0  0  0
  152.9279  144.0029  157.6497 H   0  0  0  0  0  0  0  0  0  0  0  0
  151.9715  144.8142  158.8975 H   0  0  0  0  0  0  0  0  0  0  0  0
  151.4511  140.3814  158.4111 H   0  0  0  0  0  0  0  0  0  0  0  0
  149.9318  140.4513  157.5354 H   0  0  0  0  0  0  0  0  0  0  0  0
  152.6172  140.2511  156.0818 H   0  0  0  0  0  0  0  0  0  0  0  0
  150.7393  138.3917  153.9165 H   0  0  0  0  0  0  0  0  0  0  0  0
  144.2335  139.3007  152.9998 H   0  0  0  0  0  0  0  0  0  0  0  0
  143.5695  137.6809  152.9789 H   0  0  0  0  0  0  0  0  0  0  0  0
  146.8324  134.8961  154.2475 H   0  0  0  0  0  0  0  0  0  0  0  0
  150.4934  136.7861  155.6689 H   0  0  0  0  0  0  0  0  0  0  0  0
  147.6861  138.4345  158.8210 H   0  0  0  0  0  0  0  0  0  0  0  0
  148.0076  136.9891  159.7883 H   0  0  0  0  0  0  0  0  0  0  0  0
  147.0941  136.8575  158.2776 H   0  0  0  0  0  0  0  0  0  0  0  0
  152.5059  137.9295  155.9381 H   0  0  0  0  0  0  0  0  0  0  0  0
  153.2582  136.8750  159.9999 H   0  0  0  0  0  0  0  0  0  0  0  0
  152.0144  138.0083  160.5503 H   0  0  0  0  0  0  0  0  0  0  0  0
  153.7223  138.4596  160.6361 H   0  0  0  0  0  0  0  0  0  0  0  0
  1  2  1  0  0  0  0
  1 30  1  0  0  0  0
  1 31  1  0  0  0  0
  1 32  1  0  0  0  0
  2  3  2  0  0  0  0
  2  4  1  0  0  0  0
  4  5  1  0  0  0  0
  5  6  1  0  0  0  0
  5 33  1  0  0  0  0
  5 34  1  0  0  0  0
  6 25  1  0  0  0  0
  6  7  1  0  0  0  0
  6 35  1  0  0  0  0
  7  8  1  0  0  0  0
  8  9  1  0  0  0  0
  8 20  1  0  0  0  0
  8 36  1  0  0  0  0
  9 19  1  0  0  0  0
  9 10  1  0  0  0  0
 10 11  1  0  0  0  0
 10 12  2  0  0  0  0
 12 13  1  0  0  0  0
 13 19  2  0  0  0  0
 13 14  1  0  0  0  0
 14 15  1  0  0  0  0
 14 16  2  0  0  0  0
 15 37  1  0  0  0  0
 15 38  1  0  0  0  0
 16 17  1  0  0  0  0
 17 18  2  0  0  0  0
 17 39  1  0  0  0  0
 18 19  1  0  0  0  0
 20 21  1  0  0  0  0
 20 25  1  0  0  0  0
 20 40  1  0  0  0  0
 21 22  1  0  0  0  0
 22 23  1  0  0  0  0
 22 24  2  0  0  0  0
 23 41  1  0  0  0  0
 23 42  1  0  0  0  0
 23 43  1  0  0  0  0
 25 26  1  0  0  0  0
 25 44  1  0  0  0  0
 26 27  1  0  0  0  0
 27 28  1  0  0  0  0
 27 29  2  0  0  0  0
 28 45  1  0  0  0  0
 28 46  1  0  0  0  0
 28 47  1  0  0  0  0
M  END
> <s_m_source_file>
AV-unprocessed.smi

> <i_m_source_file_index>
104

> <i_lp_mmshare_version>
43012

> <i_f3d_flags>
0

> <s_epik_input>
W0NIM11DKD1PKU9bQ0gyXVtDQEBIXTFPW0NASF0oW0NAQEhdKE9DKD1PKVtDSDNdKVtDQEhdMU9DKD1PKVtDSDNdKW4oYyhCciluMiljKGMyMyluW2NIXW5jM1tOSDJd

> <s_epik_cmdline>
J2VwaWtfcHl0aG9uJywgJy1waCcsICc3LjAnLCAnLXRuJywgJzgnLCAnLW1hJywgJzIwMCcsICctbWV0YWxfYmluZGluZycsICctaW1hZScsICc8aW5maWxlLm1hZT4nLCAnLW9tYWUnLCAnPG91dGZpbGUubWFlPic=

> <r_lp_tautomer_probability>
1

> <r_epik_Ionization_Penalty>
7.36622e-05

> <r_epik_Ionization_Penalty_Charging>
0

> <r_epik_Ionization_Penalty_Neutral>
7.36622e-05

> <r_epik_State_Penalty>
-0

> <r_epik_Charging_Adjusted_Penalty>
0

> <i_epik_Tot_Q>
0

> <i_epik_Tot_abs_Q>
0

> <r_epik_Metal_State_Penalty>
-0

> <b_epik_Metal_Only>
0

> <s_epik_Chemistry_Notes>
This compound has an ester and may undergo hydrolysis at high or low pH. This compound contains an acetal/aminal-like group ( X-CH(R)-Y where X, Y are N, S, or O) that may be acid/base labile, releasing an aldehyde.

> <s_lp_Force_Field>
OPLS_2005

> <r_lp_Energy>
19.209

> <b_lp_Chiralities_Consistent>
1

> <s_lp_Variant>
AV-unprocessed.smi:104-15

> <Gold.Version>
5.8.1

> <Gold.Id.Protein>
6NUR|6NUR_protein|mol2

> <Gold.PLP.Fitness>
40.6050

> <Gold.PLP.PLP>
-30.8666

> <Gold.PLP.part.hbond>
-4.4959

> <Gold.PLP.part.metal>
0.0000

> <Gold.PLP.part.buried>
-2.9311

> <Gold.PLP.part.nonpolar>
-24.9816

> <Gold.PLP.part.repulsive>
1.7556

> <Gold.PLP.ligand.clash>
0.0000

> <Gold.PLP.ligand.torsion>
1.0458

> <Gold.PLP.Chemscore.Hbond>
3.8288

> <Gold.PLP.Chemscore.CHOScore>
0.0000

> <Gold.PLP.Chemscore.Metal>
0.0000

> <Gold.Chemscore.Hbonds>
donor molecule, donor type, donor heavy atom, donor atom, acceptor molecule, acceptor atom, score
      L1  H    15    37       P1 10175  0.65
      P1  H  6896  6909       L1    24  0.78
      P1  H  7989  7998       L1     7  0.89
      P1  H  7997  8008       L1    29  1.00

> <Gold.PLP.Chemscore.Internal.Correction>
0.3437

> <Gold.Rescore>
     Score         DG    S(hbond)    S(metal)    S(lipo)     H(rot)  DE(clash)    DE(int)     intcor
      4.45     -10.89       3.15        0.00      50.45       4.31       0.08       6.36       ----

> <Gold.Chemscore.Fitness>
4.4464

> <Gold.Chemscore.DG>
-10.8865

> <Gold.Chemscore.ZeroCoef>
-5.4800

> <Gold.Chemscore.Hbond>
3.1527

> <Gold.Chemscore.Metal>
0.0000

> <Gold.Chemscore.Lipo>
50.4480

> <Gold.Chemscore.Internal_Hbond>
0.0000

> <Gold.Chemscore.DEClash>
0.0826

> <Gold.Chemscore.DEInternal>
6.3576

> <Gold.Chemscore.Rot>
4.3070

> <Gold.Chemscore.Internal.Correction>
   9.000000E+99

> <Gold.Chemscore.Hbonds>
donor molecule, donor type, donor heavy atom, donor atom, acceptor molecule, acceptor atom, score
      L1  H    15    37       P1 10175  0.64
      P1  H  6896  6909       L1    24  0.74
      P1  H  7989  7998       L1     7  0.59
      P1  H  7997  8008       L1    29  1.00

> <Gold.Chemscore.Hbond.Weighted>
-10.5300

> <Gold.Chemscore.Metal.Weighted>
-0.0000

> <Gold.Chemscore.Lipo.Weighted>
-5.9024

> <Gold.Chemscore.Internal_Hbond.Weighted>
0.0000

> <Gold.Chemscore.DEClash.Weighted>
0.0826

> <Gold.Chemscore.DEInternal.Weighted>
6.3576

> <Gold.Chemscore.Rot.Weighted>
11.0259

> <Gold.Chemscore.Internal.Correction.Weighted>
   9.000000E+99

> <Gold.Protein.RotatedTorsions>
[ 6907 6896 6895 6894 ] final   69.47 input  -60.11 | X-H torsion
[ 7974 7965 7964 7962 ] final   -0.15 input  175.53 | X-H torsion
[ 8008 7997 7996 7995 ] final  -92.63 input   59.86 | X-H torsion
[ 10167 10162 10161 10158 ] final  151.88 input  -65.29 | X-H torsion
[ 10718 10713 10712 10709 ] final  142.80 input   66.30 | X-H torsion
[ 10763 10752 10751 10750 ] final  124.04 input  -60.55 | X-H torsion
[ 11005 11000 10999 10996 ] final -123.06 input  -57.11 | X-H torsion

> <Gold.Protein.ActiveResidues>
 VAL166  LYS551  ARG553  GLY616  TRP617  ASP618  TYR619  PRO620  LYS621  CYS622 
 ASP623  PHE694  ASN695  SER759  ASP760  ASP761  ALA762  ILE779  LEU786  VAL792 
 PHE793  MET794  SER795  GLU796  ALA797  LYS798  CYS799  TRP800  GLU811  SER814 

> <Gold.Protein.RotatedAtoms>
  152.4688  134.5011  159.9724 H   0  0  0  0  0  0  0  0  0  0  0  0  # atno 6907 bound_to 6896
  151.5043  133.3492  159.2882 H   0  0  0  0  0  0  0  0  0  0  0  0  # atno 6908 bound_to 6896
  150.8686  134.8083  159.7199 H   0  0  0  0  0  0  0  0  0  0  0  0  # atno 6909 bound_to 6896
  146.2430  140.1227  142.8340 H   0  0  0  0  0  0  0  0  0  0  0  0  # atno 7974 bound_to 7965
  154.7255  140.0507  157.0678 H   0  0  0  0  0  0  0  0  0  0  0  0  # atno 8008 bound_to 7997
  155.0371  140.3164  155.4718 H   0  0  0  0  0  0  0  0  0  0  0  0  # atno 8009 bound_to 7997
  156.2828  140.2139  156.5494 H   0  0  0  0  0  0  0  0  0  0  0  0  # atno 8010 bound_to 7997
  139.4837  144.5404  151.7574 H   0  0  0  0  0  0  0  0  0  0  0  0  # atno 10167 bound_to 10162
  157.3764  131.0986  151.0780 H   0  0  0  0  0  0  0  0  0  0  0  0  # atno 10718 bound_to 10713
  153.6551  135.3356  155.3111 H   0  0  0  0  0  0  0  0  0  0  0  0  # atno 10763 bound_to 10752
  154.8528  135.4350  154.1864 H   0  0  0  0  0  0  0  0  0  0  0  0  # atno 10764 bound_to 10752
  153.2816  135.7009  153.7455 H   0  0  0  0  0  0  0  0  0  0  0  0  # atno 10765 bound_to 10752
  140.9948  134.0487  157.3611 H   0  0  0  0  0  0  0  0  0  0  0  0  # atno 11005 bound_to 11000
  145.0393  140.8932  143.5062 LP  0  0  0  0  0  0  0  0  0  0  0  0  # atno 17320 bound_to 7965
  145.1305  139.2635  143.5542 LP  0  0  0  0  0  0  0  0  0  0  0  0  # atno 17321 bound_to 7965
  140.4943  144.1264  150.5957 LP  0  0  0  0  0  0  0  0  0  0  0  0  # atno 17342 bound_to 10162
  140.4136  143.2645  151.9803 LP  0  0  0  0  0  0  0  0  0  0  0  0  # atno 17343 bound_to 10162
  157.1865  130.6333  149.5689 LP  0  0  0  0  0  0  0  0  0  0  0  0  # atno 17370 bound_to 10713
  155.9766  130.4736  150.6540 LP  0  0  0  0  0  0  0  0  0  0  0  0  # atno 17371 bound_to 10713
  139.9009  135.0164  156.7265 LP  0  0  0  0  0  0  0  0  0  0  0  0  # atno 17394 bound_to 11000
  140.6983  133.9329  155.8008 LP  0  0  0  0  0  0  0  0  0  0  0  0  # atno 17395 bound_to 11000

$$$$
