AV-unprocessed.smi:54|AV-procd|sdf|545|dock6
  -GOLD-   2262016433D 1   1.00000     0.00000
 Structure written by MMmdl.
 43 45  0  0  0  0  0  0  0  0  2 V2000
  145.4123  136.1876  161.3925 C   0  0  0  0  0  0  0  0  0  0  0  0
  146.6815  135.3692  161.1032 C   0  0  0  0  0  0  0  0  0  0  0  0
  147.3847  134.9518  162.4057 C   0  0  0  0  0  0  0  0  0  0  0  0
  147.6387  136.1547  160.1952 C   0  0  0  0  0  0  0  0  0  0  0  0
  148.1274  137.2079  160.6099 O   0  0  0  0  0  0  0  0  0  0  0  0
  147.8759  135.5962  158.9869 N   0  0  0  0  0  0  0  0  0  0  0  0
  148.6977  136.0457  157.9458 C   0  0  0  0  0  0  0  0  0  0  0  0
  148.0699  136.8224  157.0958 N   0  0  0  0  0  0  0  0  0  0  0  0
  148.8911  137.2685  156.0783 C   0  0  0  0  0  0  0  0  0  0  0  0
  150.2192  136.9996  155.8931 C   0  0  0  0  0  0  0  0  0  0  0  0
  150.7134  137.6323  154.7588 N   0  0  0  0  0  0  0  0  0  0  0  0
  149.6348  138.2665  154.3028 C   0  0  0  0  0  0  0  0  0  0  0  0
  148.5118  138.1006  155.0319 N   0  0  0  0  0  0  0  0  0  0  0  0
  147.1568  138.6870  154.7906 C   0  0  2  0  0  0  0  0  0  0  0  0
  146.2776  137.6363  154.5074 O   0  0  0  0  0  0  0  0  0  0  0  0
  145.7418  137.7539  153.1894 C   0  0  2  0  0  0  0  0  0  0  0  0
  145.5788  136.3603  152.5633 C   0  0  0  0  0  0  0  0  0  0  0  0
  145.2462  136.4802  151.1972 O   0  0  0  0  0  0  0  0  0  0  0  0
  146.7560  138.6374  152.4607 C   0  0  1  0  0  0  0  0  0  0  0  0
  146.2115  139.3048  151.3381 O   0  0  0  0  0  0  0  0  0  0  0  0
  147.2088  139.5927  153.5558 C   0  0  1  0  0  0  0  0  0  0  0  0
  146.3523  140.7088  153.7124 O   0  0  0  0  0  0  0  0  0  0  0  0
  150.8701  136.1244  156.8952 C   0  0  0  0  0  0  0  0  0  0  0  0
  152.0633  135.8565  156.7707 O   0  0  0  0  0  0  0  0  0  0  0  0
  150.0588  135.6816  157.9018 N   0  5  0  0  0  0  0  0  0  0  0  0
  146.9050  139.1961  155.7219 H   0  0  0  0  0  0  0  0  0  0  0  0
  144.7844  138.2752  153.2472 H   0  0  0  0  0  0  0  0  0  0  0  0
  147.6064  138.0350  152.1371 H   0  0  0  0  0  0  0  0  0  0  0  0
  148.2200  139.9652  153.3846 H   0  0  0  0  0  0  0  0  0  0  0  0
  144.9104  136.4793  160.4691 H   0  0  0  0  0  0  0  0  0  0  0  0
  145.6388  137.0972  161.9505 H   0  0  0  0  0  0  0  0  0  0  0  0
  144.7012  135.6079  161.9813 H   0  0  0  0  0  0  0  0  0  0  0  0
  146.3798  134.4591  160.5819 H   0  0  0  0  0  0  0  0  0  0  0  0
  148.2923  134.3825  162.2008 H   0  0  0  0  0  0  0  0  0  0  0  0
  146.7348  134.3226  163.0142 H   0  0  0  0  0  0  0  0  0  0  0  0
  147.6633  135.8177  163.0080 H   0  0  0  0  0  0  0  0  0  0  0  0
  147.4290  134.7031  158.8414 H   0  0  0  0  0  0  0  0  0  0  0  0
  149.6677  138.8744  153.4114 H   0  0  0  0  0  0  0  0  0  0  0  0
  146.5180  135.8097  152.6243 H   0  0  0  0  0  0  0  0  0  0  0  0
  144.8248  135.7723  153.0866 H   0  0  0  0  0  0  0  0  0  0  0  0
  144.9054  137.3484  151.0455 H   0  0  0  0  0  0  0  0  0  0  0  0
  145.3855  139.6883  151.5911 H   0  0  0  0  0  0  0  0  0  0  0  0
  145.5715  140.5588  153.2014 H   0  0  0  0  0  0  0  0  0  0  0  0
  1  2  1  0  0  0  0
  1 30  1  0  0  0  0
  1 31  1  0  0  0  0
  1 32  1  0  0  0  0
  2  3  1  0  0  0  0
  2  4  1  0  0  0  0
  2 33  1  0  0  0  0
  3 34  1  0  0  0  0
  3 35  1  0  0  0  0
  3 36  1  0  0  0  0
  4  5  2  0  0  0  0
  4  6  1  0  0  0  0
  6 37  1  0  0  0  0
  6  7  1  0  0  0  0
  7 25  1  0  0  0  0
  7  8  2  0  0  0  0
  8  9  1  0  0  0  0
  9 13  1  0  0  0  0
  9 10  2  0  0  0  0
 10 11  1  0  0  0  0
 10 23  1  0  0  0  0
 11 12  2  0  0  0  0
 12 13  1  0  0  0  0
 12 38  1  0  0  0  0
 13 14  1  0  0  0  0
 14 26  1  0  0  0  0
 14 21  1  0  0  0  0
 14 15  1  0  0  0  0
 15 16  1  0  0  0  0
 16 27  1  0  0  0  0
 16 17  1  0  0  0  0
 16 19  1  0  0  0  0
 17 18  1  0  0  0  0
 17 39  1  0  0  0  0
 17 40  1  0  0  0  0
 18 41  1  0  0  0  0
 19 28  1  0  0  0  0
 19 20  1  0  0  0  0
 19 21  1  0  0  0  0
 20 42  1  0  0  0  0
 21 29  1  0  0  0  0
 21 22  1  0  0  0  0
 22 43  1  0  0  0  0
 23 24  2  0  0  0  0
 23 25  1  0  0  0  0
M  CHG  1  25  -1
M  END
> <s_m_source_file>
AV-unprocessed.smi

> <i_m_source_file_index>
54

> <i_lp_mmshare_version>
43012

> <i_f3d_flags>
0

> <s_epik_input>
W0NIM11bQ0hdKFtDSDNdKUMoPU8pW05IXWMobjEpW25IXWMoPU8pYyhjMTIpbltjSF1uMltDQEBIXTNPW0NASF0oW0NIMl1bT0hdKVtDQEBIXShbT0hdKVtDQEhdM1tPSF0=

> <s_epik_cmdline>
J2VwaWtfcHl0aG9uJywgJy1waCcsICc3LjAnLCAnLXRuJywgJzgnLCAnLW1hJywgJzIwMCcsICctbWV0YWxfYmluZGluZycsICctaW1hZScsICc8aW5maWxlLm1hZT4nLCAnLW9tYWUnLCAnPG91dGZpbGUubWFlPic=

> <r_lp_tautomer_probability>
0.85571

> <r_epik_Ionization_Penalty>
1.75936

> <r_epik_Ionization_Penalty_Charging>
4.55893e-11

> <r_epik_Ionization_Penalty_Neutral>
1.75936

> <r_epik_State_Penalty>
1.72072

> <r_epik_Charging_Adjusted_Penalty>
1.72072

> <i_epik_Tot_Q>
-1

> <i_epik_Tot_abs_Q>
1

> <r_epik_Metal_State_Penalty>
0.400338

> <b_epik_Metal_Only>
1

> <s_epik_Chemistry_Notes>
This compound contains an acetal/aminal-like group ( X-CH(R)-Y where X, Y are N, S, or O) that may be acid/base labile, releasing an aldehyde.

> <s_lp_Force_Field>
OPLS_2005

> <r_lp_Energy>
58.3918

> <b_lp_Chiralities_Consistent>
1

> <s_lp_Variant>
AV-unprocessed.smi:54-17

> <Gold.Version>
5.8.1

> <Gold.Id.Protein>
6NUR|6NUR_protein|mol2

> <Gold.PLP.Fitness>
52.1304

> <Gold.PLP.PLP>
-30.1195

> <Gold.PLP.part.hbond>
-8.0000

> <Gold.PLP.part.metal>
0.0000

> <Gold.PLP.part.buried>
-6.2818

> <Gold.PLP.part.nonpolar>
-17.9870

> <Gold.PLP.part.repulsive>
0.3089

> <Gold.PLP.ligand.clash>
0.0000

> <Gold.PLP.ligand.torsion>
0.8226

> <Gold.PLP.Chemscore.Hbond>
6.8730

> <Gold.PLP.Chemscore.CHOScore>
1.0000

> <Gold.PLP.Chemscore.Metal>
0.0000

> <Gold.Chemscore.Hbonds>
donor molecule, donor type, donor heavy atom, donor atom, acceptor molecule, acceptor atom, score
      L1  H    18    41       P1 10171  0.94
      L1  H    20    42       P1 10175  0.96
      L1  H    22    43       P1 10175  1.00
      P1  H  6896  6909       L1    25  1.51
      P1  H  6931  6943       L1     5  0.78
      P1  H  6934  6947       L1     5  0.64
      P1  H 10752 10763       L1    24  0.96
      L1  C    12    38       P1  7957  1.00

> <Gold.PLP.Chemscore.Internal.Correction>
0.0371

> <Gold.Rescore>
     Score         DG    S(hbond)    S(metal)    S(lipo)     H(rot)  DE(clash)    DE(int)     intcor
     17.88     -18.68       5.45        0.00      45.24       4.02       0.00       0.80       ----

> <Gold.Chemscore.Fitness>
17.8784

> <Gold.Chemscore.DG>
-18.6799

> <Gold.Chemscore.ZeroCoef>
-5.4800

> <Gold.Chemscore.Hbond>
5.4478

> <Gold.Chemscore.Metal>
0.0000

> <Gold.Chemscore.Lipo>
45.2433

> <Gold.Chemscore.Internal_Hbond>
0.0000

> <Gold.Chemscore.DEClash>
0.0000

> <Gold.Chemscore.DEInternal>
0.8015

> <Gold.Chemscore.Rot>
4.0192

> <Gold.Chemscore.Internal.Correction>
   9.000000E+99

> <Gold.Chemscore.Hbonds>
donor molecule, donor type, donor heavy atom, donor atom, acceptor molecule, acceptor atom, score
      L1  H    18    41       P1 10171  0.84
      L1  H    20    42       P1 10175  0.46
      L1  H    22    43       P1 10175  0.83
      P1  H  6896  6909       L1    25  0.65
      P1  H  6931  6943       L1     5  0.79
      P1  H  6934  6947       L1     5  0.62
      P1  H 10752 10763       L1    24  0.91

> <Gold.Chemscore.Hbond.Weighted>
-18.1957

> <Gold.Chemscore.Metal.Weighted>
-0.0000

> <Gold.Chemscore.Lipo.Weighted>
-5.2935

> <Gold.Chemscore.Internal_Hbond.Weighted>
0.0000

> <Gold.Chemscore.DEClash.Weighted>
0.0000

> <Gold.Chemscore.DEInternal.Weighted>
0.8015

> <Gold.Chemscore.Rot.Weighted>
10.2893

> <Gold.Chemscore.Internal.Correction.Weighted>
   9.000000E+99

> <Gold.Protein.RotatedTorsions>
[ 6907 6896 6895 6894 ] final   48.80 input  -60.11 | X-H torsion
[ 7974 7965 7964 7962 ] final  -99.52 input  175.53 | X-H torsion
[ 8008 7997 7996 7995 ] final -114.30 input   59.86 | X-H torsion
[ 10167 10162 10161 10158 ] final  -48.42 input  -65.29 | X-H torsion
[ 10718 10713 10712 10709 ] final  178.28 input   66.30 | X-H torsion
[ 10763 10752 10751 10750 ] final  107.17 input  -60.55 | X-H torsion
[ 11005 11000 10999 10996 ] final   56.75 input  -57.11 | X-H torsion

> <Gold.Protein.ActiveResidues>
 VAL166  LYS551  ARG553  GLY616  TRP617  ASP618  TYR619  PRO620  LYS621  CYS622 
 ASP623  PHE694  ASN695  SER759  ASP760  ASP761  ALA762  ILE779  LEU786  VAL792 
 PHE793  MET794  SER795  GLU796  ALA797  LYS798  CYS799  TRP800  GLU811  SER814 

> <Gold.Protein.RotatedAtoms>
  152.2836  134.7801  160.0391 H   0  0  0  0  0  0  0  0  0  0  0  0  # atno 6907 bound_to 6896
  151.8371  133.3412  159.3639 H   0  0  0  0  0  0  0  0  0  0  0  0  # atno 6908 bound_to 6896
  150.7200  134.5355  159.5766 H   0  0  0  0  0  0  0  0  0  0  0  0  # atno 6909 bound_to 6896
  145.3065  140.9390  143.2794 H   0  0  0  0  0  0  0  0  0  0  0  0  # atno 7974 bound_to 7965
  155.0341  140.0393  157.2485 H   0  0  0  0  0  0  0  0  0  0  0  0  # atno 8008 bound_to 7997
  154.7271  140.2723  155.6465 H   0  0  0  0  0  0  0  0  0  0  0  0  # atno 8009 bound_to 7997
  156.2832  140.2691  156.1960 H   0  0  0  0  0  0  0  0  0  0  0  0  # atno 8010 bound_to 7997
  140.6731  143.2741  151.4069 H   0  0  0  0  0  0  0  0  0  0  0  0  # atno 10167 bound_to 10162
  156.8929  130.9853  151.3047 H   0  0  0  0  0  0  0  0  0  0  0  0  # atno 10718 bound_to 10713
  153.4030  135.3853  155.2000 H   0  0  0  0  0  0  0  0  0  0  0  0  # atno 10763 bound_to 10752
  154.8731  135.3776  154.4595 H   0  0  0  0  0  0  0  0  0  0  0  0  # atno 10764 bound_to 10752
  153.5094  135.7087  153.5851 H   0  0  0  0  0  0  0  0  0  0  0  0  # atno 10765 bound_to 10752
  140.0505  134.5744  155.9270 H   0  0  0  0  0  0  0  0  0  0  0  0  # atno 11005 bound_to 11000
  144.9051  139.4600  143.6614 LP  0  0  0  0  0  0  0  0  0  0  0  0  # atno 17320 bound_to 7965
  146.3133  139.7827  142.9003 LP  0  0  0  0  0  0  0  0  0  0  0  0  # atno 17321 bound_to 7965
  139.6010  144.1296  152.2197 LP  0  0  0  0  0  0  0  0  0  0  0  0  # atno 17342 bound_to 10162
  140.0680  144.5802  150.7213 LP  0  0  0  0  0  0  0  0  0  0  0  0  # atno 17343 bound_to 10162
  157.6073  130.8556  149.8895 LP  0  0  0  0  0  0  0  0  0  0  0  0  # atno 17370 bound_to 10713
  156.0620  130.3698  150.0961 LP  0  0  0  0  0  0  0  0  0  0  0  0  # atno 17371 bound_to 10713
  141.1928  133.6576  156.5518 LP  0  0  0  0  0  0  0  0  0  0  0  0  # atno 17394 bound_to 11000
  140.3925  134.7428  157.4730 LP  0  0  0  0  0  0  0  0  0  0  0  0  # atno 17395 bound_to 11000

$$$$
