AV-unprocessed.smi:67|AV-procd|sdf|636|dock9
  -GOLD-   2262016533D 1   1.00000     0.00000
 Structure written by MMmdl.
 48 50  0  0  0  0  0  0  0  0  2 V2000
  146.9884  135.1402  152.9913 O   0  0  0  0  0  0  0  0  0  0  0  0
  145.8100  135.7872  152.5514 C   0  0  2  0  0  0  0  0  0  0  0  0
  145.6526  137.1101  153.3403 C   0  0  0  0  0  0  0  0  0  0  0  0
  146.9507  137.8124  153.5230 N   0  3  2  0  0  0  0  0  0  0  0  0
  147.5956  137.5163  154.8287 C   0  0  0  0  0  0  0  0  0  0  0  0
  149.0231  138.0853  154.8843 C   0  0  0  0  0  0  0  0  0  0  0  0
  149.0231  139.5921  154.5536 C   0  0  1  0  0  0  0  0  0  0  0  0
  150.2934  140.2352  154.6845 O   0  0  0  0  0  0  0  0  0  0  0  0
  150.9354  140.4166  155.8950 C   0  0  0  0  0  0  0  0  0  0  0  0
  151.5987  139.4135  156.6454 C   0  0  0  0  0  0  0  0  0  0  0  0
  152.2200  139.7287  157.8686 C   0  0  0  0  0  0  0  0  0  0  0  0
  152.1870  141.0447  158.3631 C   0  0  0  0  0  0  0  0  0  0  0  0
  151.5264  142.0557  157.6357 C   0  0  0  0  0  0  0  0  0  0  0  0
  151.4915  143.4847  158.1577 C   0  0  0  0  0  0  0  0  0  0  0  0
  151.9211  144.3099  157.2040 F   0  0  0  0  0  0  0  0  0  0  0  0
  150.2509  143.8331  158.5007 F   0  0  0  0  0  0  0  0  0  0  0  0
  152.2735  143.6225  159.2289 F   0  0  0  0  0  0  0  0  0  0  0  0
  150.9131  141.7314  156.4063 C   0  0  0  0  0  0  0  0  0  0  0  0
  148.2613  139.9184  153.2524 C   0  0  0  0  0  0  0  0  0  0  0  0
  146.8652  139.2743  153.2673 C   0  0  0  0  0  0  0  0  0  0  0  0
  144.5911  134.8626  152.6455 C   0  0  0  0  0  0  0  0  0  0  0  0
  143.6798  135.3918  151.5420 C   0  0  0  0  0  0  0  0  0  0  0  0
  144.5732  135.8311  150.4761 N   0  0  0  0  0  0  0  0  0  0  0  0
  145.9061  136.0517  151.0381 C   0  0  0  0  0  0  0  0  0  0  0  0
  147.7246  135.7128  152.8374 H   0  0  0  0  0  0  0  0  0  0  0  0
  144.9342  137.7650  152.8439 H   0  0  0  0  0  0  0  0  0  0  0  0
  145.2093  136.8912  154.3131 H   0  0  0  0  0  0  0  0  0  0  0  0
  146.9897  137.9299  155.6366 H   0  0  0  0  0  0  0  0  0  0  0  0
  147.6373  136.4371  154.9832 H   0  0  0  0  0  0  0  0  0  0  0  0
  149.4405  137.9280  155.8792 H   0  0  0  0  0  0  0  0  0  0  0  0
  149.6503  137.5143  154.2047 H   0  0  0  0  0  0  0  0  0  0  0  0
  148.4397  140.0586  155.3489 H   0  0  0  0  0  0  0  0  0  0  0  0
  151.6569  138.3904  156.3185 H   0  0  0  0  0  0  0  0  0  0  0  0
  152.7256  138.9568  158.4299 H   0  0  0  0  0  0  0  0  0  0  0  0
  152.6718  141.2730  159.3008 H   0  0  0  0  0  0  0  0  0  0  0  0
  150.4148  142.5049  155.8403 H   0  0  0  0  0  0  0  0  0  0  0  0
  148.1629  140.9993  153.1469 H   0  0  0  0  0  0  0  0  0  0  0  0
  148.7909  139.5804  152.3656 H   0  0  0  0  0  0  0  0  0  0  0  0
  146.3759  139.4567  152.3102 H   0  0  0  0  0  0  0  0  0  0  0  0
  146.2440  139.7416  154.0329 H   0  0  0  0  0  0  0  0  0  0  0  0
  144.8771  133.8362  152.4092 H   0  0  0  0  0  0  0  0  0  0  0  0
  144.1108  134.8510  153.6240 H   0  0  0  0  0  0  0  0  0  0  0  0
  142.9692  134.6426  151.1922 H   0  0  0  0  0  0  0  0  0  0  0  0
  143.1072  136.2415  151.9147 H   0  0  0  0  0  0  0  0  0  0  0  0
  144.2179  136.6756  150.0387 H   0  0  0  0  0  0  0  0  0  0  0  0
  146.2713  137.0549  150.8169 H   0  0  0  0  0  0  0  0  0  0  0  0
  146.6012  135.3514  150.5731 H   0  0  0  0  0  0  0  0  0  0  0  0
  147.5641  137.4332  152.8154 H   0  0  0  0  0  0  0  0  0  0  0  0
  1  2  1  0  0  0  0
  1 25  1  0  0  0  0
  2 24  1  0  0  0  0
  2  3  1  0  0  0  0
  2 21  1  0  0  0  0
  3  4  1  0  0  0  0
  3 26  1  0  0  0  0
  3 27  1  0  0  0  0
  4 20  1  0  0  0  0
  4  5  1  0  0  0  0
  4 48  1  0  0  0  0
  5  6  1  0  0  0  0
  5 28  1  0  0  0  0
  5 29  1  0  0  0  0
  6  7  1  0  0  0  0
  6 30  1  0  0  0  0
  6 31  1  0  0  0  0
  7  8  1  0  0  0  0
  7 19  1  0  0  0  0
  7 32  1  0  0  0  0
  8  9  1  0  0  0  0
  9 18  1  0  0  0  0
  9 10  2  0  0  0  0
 10 11  1  0  0  0  0
 10 33  1  0  0  0  0
 11 12  2  0  0  0  0
 11 34  1  0  0  0  0
 12 13  1  0  0  0  0
 12 35  1  0  0  0  0
 13 14  1  0  0  0  0
 13 18  2  0  0  0  0
 14 15  1  0  0  0  0
 14 16  1  0  0  0  0
 14 17  1  0  0  0  0
 18 36  1  0  0  0  0
 19 20  1  0  0  0  0
 19 37  1  0  0  0  0
 19 38  1  0  0  0  0
 20 39  1  0  0  0  0
 20 40  1  0  0  0  0
 21 22  1  0  0  0  0
 21 41  1  0  0  0  0
 21 42  1  0  0  0  0
 22 23  1  0  0  0  0
 22 43  1  0  0  0  0
 22 44  1  0  0  0  0
 23 24  1  0  0  0  0
 23 45  1  0  0  0  0
 24 46  1  0  0  0  0
 24 47  1  0  0  0  0
M  CHG  1   4   1
M  END
> <s_m_source_file>
AV-unprocessed.smi

> <i_m_source_file_index>
67

> <i_lp_mmshare_version>
43012

> <i_f3d_flags>
0

> <s_epik_input>
W0NIMl0xW05IXVtDSDJdW0NIMl1bQ0BAXTEoW09IXSlbQ0gyXU4yW0NIMl1bQ0gyXVtDSF0oW0NIMl1bQ0gyXTIpT2MzW2NIXVtjSF1bY0hdYyhDKEYpKEYpRilbY0hdMw==

> <s_epik_cmdline>
J2VwaWtfcHl0aG9uJywgJy1waCcsICc3LjAnLCAnLXRuJywgJzgnLCAnLW1hJywgJzIwMCcsICctbWV0YWxfYmluZGluZycsICctaW1hZScsICc8aW5maWxlLm1hZT4nLCAnLW9tYWUnLCAnPG91dGZpbGUubWFlPic=

> <r_epik_Ionization_Penalty>
2.37709

> <r_epik_Ionization_Penalty_Charging>
0.0305656

> <r_epik_Ionization_Penalty_Neutral>
2.34653

> <r_epik_State_Penalty>
2.56959

> <r_epik_Charging_Adjusted_Penalty>
2.60016

> <i_epik_Tot_Q>
1

> <i_epik_Tot_abs_Q>
1

> <r_epik_Metal_State_Penalty>
2.56925

> <b_epik_Metal_Only>
0

> <s_lp_Force_Field>
OPLS_2005

> <r_lp_Energy>
55.6007

> <b_lp_Chiralities_Consistent>
1

> <s_lp_Variant>
AV-unprocessed.smi:67-8

> <Gold.Version>
5.8.1

> <Gold.Id.Protein>
6NUR|6NUR_protein|mol2

> <Gold.PLP.Fitness>
53.1501

> <Gold.PLP.PLP>
-40.1187

> <Gold.PLP.part.hbond>
-3.5175

> <Gold.PLP.part.metal>
0.0000

> <Gold.PLP.part.buried>
-1.4992

> <Gold.PLP.part.nonpolar>
-35.7986

> <Gold.PLP.part.repulsive>
0.0928

> <Gold.PLP.ligand.clash>
1.0586

> <Gold.PLP.ligand.torsion>
1.2651

> <Gold.PLP.Chemscore.Hbond>
4.9833

> <Gold.PLP.Chemscore.CHOScore>
0.0000

> <Gold.PLP.Chemscore.Metal>
0.0000

> <Gold.Chemscore.Hbonds>
donor molecule, donor type, donor heavy atom, donor atom, acceptor molecule, acceptor atom, score
      L1  H     1    25       P1  7948  0.98
      L1  H     4    48       P1  7948  1.85
      L1  H    23    45       P1 10171  1.00
      P1  H  7989  7998       L1     8  1.00

> <Gold.PLP.Chemscore.Internal.Correction>
1.6702

> <Gold.Rescore>
     Score         DG    S(hbond)    S(metal)    S(lipo)     H(rot)  DE(clash)    DE(int)     intcor
     19.39     -22.15       3.39        0.00      93.35       2.17       1.53       1.23       ----

> <Gold.Chemscore.Fitness>
19.3854

> <Gold.Chemscore.DG>
-22.1464

> <Gold.Chemscore.ZeroCoef>
-5.4800

> <Gold.Chemscore.Hbond>
3.3858

> <Gold.Chemscore.Metal>
0.0000

> <Gold.Chemscore.Lipo>
93.3497

> <Gold.Chemscore.Internal_Hbond>
0.0000

> <Gold.Chemscore.DEClash>
1.5339

> <Gold.Chemscore.DEInternal>
1.2271

> <Gold.Chemscore.Rot>
2.1734

> <Gold.Chemscore.Internal.Correction>
   9.000000E+99

> <Gold.Chemscore.Hbonds>
donor molecule, donor type, donor heavy atom, donor atom, acceptor molecule, acceptor atom, score
      L1  H     1    25       P1  7948  0.93
      L1  H     4    48       P1  7948  0.88
      L1  H    23    45       P1 10171  0.99
      P1  H  7989  7998       L1     8  0.29

> <Gold.Chemscore.Hbond.Weighted>
-11.3085

> <Gold.Chemscore.Metal.Weighted>
-0.0000

> <Gold.Chemscore.Lipo.Weighted>
-10.9219

> <Gold.Chemscore.Internal_Hbond.Weighted>
0.0000

> <Gold.Chemscore.DEClash.Weighted>
1.5339

> <Gold.Chemscore.DEInternal.Weighted>
1.2271

> <Gold.Chemscore.Rot.Weighted>
5.5640

> <Gold.Chemscore.Internal.Correction.Weighted>
   9.000000E+99

> <Gold.Protein.RotatedTorsions>
[ 6907 6896 6895 6894 ] final  -54.52 input  -60.11 | X-H torsion
[ 7974 7965 7964 7962 ] final  -16.72 input  175.53 | X-H torsion
[ 8008 7997 7996 7995 ] final   94.95 input   59.86 | X-H torsion
[ 10167 10162 10161 10158 ] final   42.58 input  -65.29 | X-H torsion
[ 10718 10713 10712 10709 ] final  178.55 input   66.30 | X-H torsion
[ 10763 10752 10751 10750 ] final  -38.47 input  -60.55 | X-H torsion
[ 11005 11000 10999 10996 ] final -163.09 input  -57.11 | X-H torsion

> <Gold.Protein.ActiveResidues>
 VAL166  LYS551  ARG553  GLY616  TRP617  ASP618  TYR619  PRO620  LYS621  CYS622 
 ASP623  PHE694  ASN695  SER759  ASP760  ASP761  ALA762  ILE779  LEU786  VAL792 
 PHE793  MET794  SER795  GLU796  ALA797  LYS798  CYS799  TRP800  GLU811  SER814 

> <Gold.Protein.RotatedAtoms>
  150.8331  134.7592  159.6869 H   0  0  0  0  0  0  0  0  0  0  0  0  # atno 6907 bound_to 6896
  152.4432  134.5545  159.9886 H   0  0  0  0  0  0  0  0  0  0  0  0  # atno 6908 bound_to 6896
  151.5701  133.3353  159.3024 H   0  0  0  0  0  0  0  0  0  0  0  0  # atno 6909 bound_to 6896
  146.1974  140.3677  142.8435 H   0  0  0  0  0  0  0  0  0  0  0  0  # atno 7974 bound_to 7965
  156.0635  140.3293  155.7490 H   0  0  0  0  0  0  0  0  0  0  0  0  # atno 8008 bound_to 7997
  155.5418  140.0602  157.2886 H   0  0  0  0  0  0  0  0  0  0  0  0  # atno 8009 bound_to 7997
  154.4493  140.1909  156.0586 H   0  0  0  0  0  0  0  0  0  0  0  0  # atno 8010 bound_to 7997
  140.3529  144.2327  150.6144 H   0  0  0  0  0  0  0  0  0  0  0  0  # atno 10167 bound_to 10162
  156.8889  130.9840  151.3052 H   0  0  0  0  0  0  0  0  0  0  0  0  # atno 10718 bound_to 10713
  153.9133  135.6790  153.4750 H   0  0  0  0  0  0  0  0  0  0  0  0  # atno 10763 bound_to 10752
  153.1067  135.4802  154.8960 H   0  0  0  0  0  0  0  0  0  0  0  0  # atno 10764 bound_to 10752
  154.7515  135.3186  154.8503 H   0  0  0  0  0  0  0  0  0  0  0  0  # atno 10765 bound_to 10752
  140.6020  134.4938  157.5206 H   0  0  0  0  0  0  0  0  0  0  0  0  # atno 11005 bound_to 11000
  144.8610  140.7139  143.6107 LP  0  0  0  0  0  0  0  0  0  0  0  0  # atno 17320 bound_to 7965
  145.3597  139.1685  143.4390 LP  0  0  0  0  0  0  0  0  0  0  0  0  # atno 17321 bound_to 7965
  140.5201  143.2268  151.8402 LP  0  0  0  0  0  0  0  0  0  0  0  0  # atno 17342 bound_to 10162
  139.4824  144.4847  151.9262 LP  0  0  0  0  0  0  0  0  0  0  0  0  # atno 17343 bound_to 10162
  157.6096  130.8573  149.8930 LP  0  0  0  0  0  0  0  0  0  0  0  0  # atno 17370 bound_to 10713
  156.0639  130.3695  150.0921 LP  0  0  0  0  0  0  0  0  0  0  0  0  # atno 17371 bound_to 10713
  139.9228  134.8114  156.1158 LP  0  0  0  0  0  0  0  0  0  0  0  0  # atno 17394 bound_to 11000
  141.0866  133.6731  156.2449 LP  0  0  0  0  0  0  0  0  0  0  0  0  # atno 17395 bound_to 11000

$$$$
