AV-unprocessed.smi:2307|AV-procd|sdf|9251|dock1
  -GOLD-   2272012473D 1   1.00000     0.00000
 Structure written by MMmdl.
 38 39  0  0  0  0  0  0  0  0  1 V2000
  152.5890  143.4300  161.5878 C   0  0  0  0  0  0  0  0  0  0  0  0
  152.2379  142.8917  160.2121 C   0  0  0  0  0  0  0  0  0  0  0  0
  151.3914  143.6986  159.4461 N   0  0  0  0  0  0  0  0  0  0  0  0
  151.0409  143.3221  158.2599 C   0  0  0  0  0  0  0  0  0  0  0  0
  151.4915  142.1127  157.7069 N   0  0  0  0  0  0  0  0  0  0  0  0
  151.0207  141.8017  156.3469 C   0  0  0  0  0  0  0  0  0  0  0  0
  149.5073  141.4951  156.3068 C   0  0  1  0  0  0  0  0  0  0  0  0
  148.9100  142.2917  155.3024 O   0  0  0  0  0  0  0  0  0  0  0  0
  149.2598  140.0145  156.0618 C   0  0  0  0  0  0  0  0  0  0  0  0
  148.5192  139.2625  156.9961 C   0  0  0  0  0  0  0  0  0  0  0  0
  148.2941  137.8892  156.7831 C   0  0  0  0  0  0  0  0  0  0  0  0
  148.8029  137.2409  155.6392 C   0  0  0  0  0  0  0  0  0  0  0  0
  148.5310  135.8935  155.5147 O   0  0  0  0  0  0  0  0  0  0  0  0
  149.5177  134.9625  155.6226 C   0  0  0  0  0  0  0  0  0  0  0  0
  150.4000  135.1219  154.6068 F   0  0  0  0  0  0  0  0  0  0  0  0
  150.2177  135.0973  156.7770 F   0  0  0  0  0  0  0  0  0  0  0  0
  149.0341  133.6982  155.5299 F   0  0  0  0  0  0  0  0  0  0  0  0
  149.5520  137.9996  154.7045 C   0  0  0  0  0  0  0  0  0  0  0  0
  149.7788  139.3732  154.9171 C   0  0  0  0  0  0  0  0  0  0  0  0
  152.3112  141.2615  158.3895 C   0  0  0  0  0  0  0  0  0  0  0  0
  152.6880  140.1949  157.8998 O   0  0  0  0  0  0  0  0  0  0  0  0
  152.7040  141.7045  159.7370 C   0  0  0  0  0  0  0  0  0  0  0  0
  153.6279  140.7844  160.5252 C   0  0  0  0  0  0  0  0  0  0  0  0
  153.6666  143.5673  161.6806 H   0  0  0  0  0  0  0  0  0  0  0  0
  152.2566  142.7405  162.3642 H   0  0  0  0  0  0  0  0  0  0  0  0
  152.1126  144.3939  161.7713 H   0  0  0  0  0  0  0  0  0  0  0  0
  150.3785  143.9122  157.6241 H   0  0  0  0  0  0  0  0  0  0  0  0
  151.2741  142.5832  155.6274 H   0  0  0  0  0  0  0  0  0  0  0  0
  151.5722  140.9271  155.9959 H   0  0  0  0  0  0  0  0  0  0  0  0
  149.0419  141.7629  157.2563 H   0  0  0  0  0  0  0  0  0  0  0  0
  149.1126  143.1977  155.4800 H   0  0  0  0  0  0  0  0  0  0  0  0
  148.1227  139.7351  157.8828 H   0  0  0  0  0  0  0  0  0  0  0  0
  147.7242  137.3263  157.5076 H   0  0  0  0  0  0  0  0  0  0  0  0
  149.9659  137.5504  153.8151 H   0  0  0  0  0  0  0  0  0  0  0  0
  150.3570  139.9327  154.1964 H   0  0  0  0  0  0  0  0  0  0  0  0
  153.1586  139.8101  160.6664 H   0  0  0  0  0  0  0  0  0  0  0  0
  153.8818  141.1716  161.5106 H   0  0  0  0  0  0  0  0  0  0  0  0
  154.5612  140.6347  159.9815 H   0  0  0  0  0  0  0  0  0  0  0  0
  1  2  1  0  0  0  0
  1 24  1  0  0  0  0
  1 25  1  0  0  0  0
  1 26  1  0  0  0  0
  2 22  2  0  0  0  0
  2  3  1  0  0  0  0
  3  4  2  0  0  0  0
  4  5  1  0  0  0  0
  4 27  1  0  0  0  0
  5  6  1  0  0  0  0
  5 20  1  0  0  0  0
  6  7  1  0  0  0  0
  6 28  1  0  0  0  0
  6 29  1  0  0  0  0
  7  8  1  0  0  0  0
  7  9  1  0  0  0  0
  7 30  1  0  0  0  0
  8 31  1  0  0  0  0
  9 19  1  0  0  0  0
  9 10  2  0  0  0  0
 10 11  1  0  0  0  0
 10 32  1  0  0  0  0
 11 12  2  0  0  0  0
 11 33  1  0  0  0  0
 12 13  1  0  0  0  0
 12 18  1  0  0  0  0
 13 14  1  0  0  0  0
 14 15  1  0  0  0  0
 14 16  1  0  0  0  0
 14 17  1  0  0  0  0
 18 19  2  0  0  0  0
 18 34  1  0  0  0  0
 19 35  1  0  0  0  0
 20 21  2  0  0  0  0
 20 22  1  0  0  0  0
 22 23  1  0  0  0  0
 23 36  1  0  0  0  0
 23 37  1  0  0  0  0
 23 38  1  0  0  0  0
M  END
> <s_m_source_file>
AV-unprocessed.smi

> <i_m_source_file_index>
2307

> <i_lp_mmshare_version>
43012

> <i_f3d_flags>
0

> <s_epik_input>
W0NIM11jMW5bY0hdbihjKD1PKWMxW0NIM10pW0NIMl1bQ0BIXShbT0hdKWMyW2NIXVtjSF1jKE9DKEYpKEYpRilbY0hdW2NIXTI=

> <s_epik_cmdline>
J2VwaWtfcHl0aG9uJywgJy1waCcsICc3LjAnLCAnLXRuJywgJzgnLCAnLW1hJywgJzIwMCcsICctbWV0YWxfYmluZGluZycsICctaW1hZScsICc8aW5maWxlLm1hZT4nLCAnLW9tYWUnLCAnPG91dGZpbGUubWFlPic=

> <r_lp_tautomer_probability>
1

> <r_epik_Ionization_Penalty>
5.07003e-05

> <r_epik_Ionization_Penalty_Charging>
7.56727e-08

> <r_epik_Ionization_Penalty_Neutral>
5.06246e-05

> <r_epik_State_Penalty>
-0

> <r_epik_Charging_Adjusted_Penalty>
7.56727e-08

> <i_epik_Tot_Q>
0

> <i_epik_Tot_abs_Q>
0

> <r_epik_Metal_State_Penalty>
-0

> <b_epik_Metal_Only>
0

> <s_lp_Force_Field>
OPLS_2005

> <r_lp_Energy>
18.0652

> <b_lp_Chiralities_Consistent>
1

> <s_lp_Variant>
AV-unprocessed.smi:2307-2

> <Gold.Version>
5.8.1

> <Gold.Id.Protein>
6NUR|6NUR_protein|mol2

> <Gold.PLP.Fitness>
43.6620

> <Gold.PLP.PLP>
-36.1650

> <Gold.PLP.part.hbond>
-1.8469

> <Gold.PLP.part.metal>
0.0000

> <Gold.PLP.part.buried>
-5.8836

> <Gold.PLP.part.nonpolar>
-28.3304

> <Gold.PLP.part.repulsive>
0.1215

> <Gold.PLP.ligand.clash>
0.0000

> <Gold.PLP.ligand.torsion>
0.8740

> <Gold.PLP.Chemscore.Hbond>
1.9516

> <Gold.PLP.Chemscore.CHOScore>
1.0000

> <Gold.PLP.Chemscore.Metal>
0.0000

> <Gold.Chemscore.Hbonds>
donor molecule, donor type, donor heavy atom, donor atom, acceptor molecule, acceptor atom, score
      L1  H     8    31       P1  8028  1.00
      P1  H  7997  8009       L1    21  0.93
      L1  C     4    27       P1  8028  0.89

> <Gold.PLP.Chemscore.Internal.Correction>
0.3902

> <Gold.Rescore>
     Score         DG    S(hbond)    S(metal)    S(lipo)     H(rot)  DE(clash)    DE(int)     intcor
     13.23     -14.20       1.93        0.00      78.21       2.69       0.02       0.94       ----

> <Gold.Chemscore.Fitness>
13.2298

> <Gold.Chemscore.DG>
-14.1963

> <Gold.Chemscore.ZeroCoef>
-5.4800

> <Gold.Chemscore.Hbond>
1.9285

> <Gold.Chemscore.Metal>
0.0000

> <Gold.Chemscore.Lipo>
78.2075

> <Gold.Chemscore.Internal_Hbond>
0.0000

> <Gold.Chemscore.DEClash>
0.0218

> <Gold.Chemscore.DEInternal>
0.9447

> <Gold.Chemscore.Rot>
2.6856

> <Gold.Chemscore.Internal.Correction>
   9.000000E+99

> <Gold.Chemscore.Hbonds>
donor molecule, donor type, donor heavy atom, donor atom, acceptor molecule, acceptor atom, score
      L1  H     8    31       P1  8028  0.94
      P1  H  7997  8009       L1    21  0.82

> <Gold.Chemscore.Hbond.Weighted>
-6.4412

> <Gold.Chemscore.Metal.Weighted>
-0.0000

> <Gold.Chemscore.Lipo.Weighted>
-9.1503

> <Gold.Chemscore.Internal_Hbond.Weighted>
0.0000

> <Gold.Chemscore.DEClash.Weighted>
0.0218

> <Gold.Chemscore.DEInternal.Weighted>
0.9447

> <Gold.Chemscore.Rot.Weighted>
6.8751

> <Gold.Chemscore.Internal.Correction.Weighted>
   9.000000E+99

> <Gold.Protein.RotatedTorsions>
[ 6907 6896 6895 6894 ] final  -25.39 input  -60.11 | X-H torsion
[ 7974 7965 7964 7962 ] final   25.94 input  175.53 | X-H torsion
[ 8008 7997 7996 7995 ] final  167.53 input   59.86 | X-H torsion
[ 10167 10162 10161 10158 ] final  -15.96 input  -65.29 | X-H torsion
[ 10718 10713 10712 10709 ] final   63.61 input   66.30 | X-H torsion
[ 10763 10752 10751 10750 ] final  171.83 input  -60.55 | X-H torsion
[ 11005 11000 10999 10996 ] final  144.05 input  -57.11 | X-H torsion

> <Gold.Protein.ActiveResidues>
 VAL166  LYS551  ARG553  GLY616  TRP617  ASP618  TYR619  PRO620  LYS621  CYS622 
 ASP623  PHE694  ASN695  SER759  ASP760  ASP761  ALA762  ILE779  LEU786  VAL792 
 PHE793  MET794  SER795  GLU796  ALA797  LYS798  CYS799  TRP800  GLU811  SER814 

> <Gold.Protein.RotatedAtoms>
  151.1759  135.0339  159.8771 H   0  0  0  0  0  0  0  0  0  0  0  0  # atno 6907 bound_to 6896
  152.5447  134.1118  159.8372 H   0  0  0  0  0  0  0  0  0  0  0  0  # atno 6908 bound_to 6896
  151.1229  133.5044  159.2634 H   0  0  0  0  0  0  0  0  0  0  0  0  # atno 6909 bound_to 6896
  146.1863  139.7397  142.8864 H   0  0  0  0  0  0  0  0  0  0  0  0  # atno 7974 bound_to 7965
  156.1626  140.1614  156.8586 H   0  0  0  0  0  0  0  0  0  0  0  0  # atno 8008 bound_to 7997
  154.5176  140.0786  156.8145 H   0  0  0  0  0  0  0  0  0  0  0  0  # atno 8009 bound_to 7997
  155.3676  140.3398  155.4244 H   0  0  0  0  0  0  0  0  0  0  0  0  # atno 8010 bound_to 7997
  140.7226  143.5165  150.9686 H   0  0  0  0  0  0  0  0  0  0  0  0  # atno 10167 bound_to 10162
  157.5983  130.9114  149.9738 H   0  0  0  0  0  0  0  0  0  0  0  0  # atno 10718 bound_to 10713
  154.4175  135.2757  155.1997 H   0  0  0  0  0  0  0  0  0  0  0  0  # atno 10763 bound_to 10752
  154.3957  135.6056  153.5872 H   0  0  0  0  0  0  0  0  0  0  0  0  # atno 10764 bound_to 10752
  152.9832  135.5914  154.4466 H   0  0  0  0  0  0  0  0  0  0  0  0  # atno 10765 bound_to 10752
  140.0602  134.9209  157.1171 H   0  0  0  0  0  0  0  0  0  0  0  0  # atno 11005 bound_to 11000
  145.3928  141.0375  143.3114 LP  0  0  0  0  0  0  0  0  0  0  0  0  # atno 17320 bound_to 7965
  144.8403  139.5482  143.6903 LP  0  0  0  0  0  0  0  0  0  0  0  0  # atno 17321 bound_to 7965
  139.8880  143.6988  152.3149 LP  0  0  0  0  0  0  0  0  0  0  0  0  # atno 17342 bound_to 10162
  139.7294  144.7585  151.0826 LP  0  0  0  0  0  0  0  0  0  0  0  0  # atno 17343 bound_to 10162
  156.1050  130.3653  150.0150 LP  0  0  0  0  0  0  0  0  0  0  0  0  # atno 17370 bound_to 10713
  156.8258  130.9375  151.3639 LP  0  0  0  0  0  0  0  0  0  0  0  0  # atno 17371 bound_to 10713
  140.3782  134.2316  155.7173 LP  0  0  0  0  0  0  0  0  0  0  0  0  # atno 17394 bound_to 11000
  141.1970  133.8070  157.0648 LP  0  0  0  0  0  0  0  0  0  0  0  0  # atno 17395 bound_to 11000

$$$$
