AV-unprocessed.smi:1046|AV-procd|sdf|4549|dock4
  -GOLD-   22720 2573D 1   1.00000     0.00000
 Structure written by MMmdl.
 53 55  0  0  0  0  0  0  0  0  2 V2000
  152.2456  142.8730  160.3518 C   0  0  0  0  0  0  0  0  0  0  0  0
  151.8114  142.2207  159.0511 C   0  0  0  0  0  0  0  0  0  0  0  0
  152.5930  141.1735  158.5137 C   0  0  0  0  0  0  0  0  0  0  0  0
  152.2226  140.5394  157.3079 C   0  0  0  0  0  0  0  0  0  0  0  0
  152.8280  139.5067  156.6126 N   0  0  0  0  0  0  0  0  0  0  0  0
  152.0090  139.3657  155.5749 C   0  0  0  0  0  0  0  0  0  0  0  0
  150.9410  140.1845  155.5158 N   0  0  0  0  0  0  0  0  0  0  0  0
  149.9184  140.2113  154.4852 C   0  0  0  0  0  0  0  0  0  0  0  0
  148.9384  139.0255  154.5992 C   0  0  1  0  0  0  0  0  0  0  0  0
  148.5114  138.9003  155.9408 O   0  0  0  0  0  0  0  0  0  0  0  0
  147.6811  139.1962  153.7213 C   0  0  0  0  0  0  0  0  0  0  0  0
  147.2332  137.9306  153.0856 N   0  3  0  0  0  0  0  0  0  0  0  0
  146.3148  138.1675  151.9422 C   0  0  0  0  0  0  0  0  0  0  0  0
  145.9460  136.8325  151.2629 C   0  0  0  0  0  0  0  0  0  0  0  0
  145.3445  135.8638  152.1790 N   0  0  0  0  0  0  0  0  0  0  0  0
  143.9768  136.2215  152.5683 C   0  0  0  0  0  0  0  0  0  0  0  0
  143.2917  135.2203  153.5123 C   0  0  0  0  0  0  0  0  0  0  0  0
  143.4887  133.9101  153.0286 O   0  0  0  0  0  0  0  0  0  0  0  0
  146.2616  135.6526  153.3017 C   0  0  0  0  0  0  0  0  0  0  0  0
  146.6395  136.9542  154.0380 C   0  0  0  0  0  0  0  0  0  0  0  0
  151.0403  140.9862  156.6481 C   0  0  0  0  0  0  0  0  0  0  0  0
  150.2550  142.0276  157.1727 C   0  0  0  0  0  0  0  0  0  0  0  0
  150.6390  142.6498  158.3789 C   0  0  0  0  0  0  0  0  0  0  0  0
  149.7836  143.7727  158.9384 C   0  0  0  0  0  0  0  0  0  0  0  0
  153.1532  142.4137  160.7444 H   0  0  0  0  0  0  0  0  0  0  0  0
  151.4666  142.7732  161.1078 H   0  0  0  0  0  0  0  0  0  0  0  0
  152.4465  143.9335  160.1982 H   0  0  0  0  0  0  0  0  0  0  0  0
  153.4862  140.8467  159.0255 H   0  0  0  0  0  0  0  0  0  0  0  0
  152.1951  138.6220  154.8137 H   0  0  0  0  0  0  0  0  0  0  0  0
  149.3835  141.1602  154.5458 H   0  0  0  0  0  0  0  0  0  0  0  0
  150.4198  140.1998  153.5168 H   0  0  0  0  0  0  0  0  0  0  0  0
  149.4536  138.0991  154.3473 H   0  0  0  0  0  0  0  0  0  0  0  0
  148.7358  139.6929  156.4054 H   0  0  0  0  0  0  0  0  0  0  0  0
  146.8590  139.6112  154.3070 H   0  0  0  0  0  0  0  0  0  0  0  0
  147.9016  139.9290  152.9432 H   0  0  0  0  0  0  0  0  0  0  0  0
  145.4213  138.6915  152.2839 H   0  0  0  0  0  0  0  0  0  0  0  0
  146.7997  138.8173  151.2127 H   0  0  0  0  0  0  0  0  0  0  0  0
  145.2742  137.0165  150.4236 H   0  0  0  0  0  0  0  0  0  0  0  0
  146.8477  136.3979  150.8292 H   0  0  0  0  0  0  0  0  0  0  0  0
  143.9516  137.2147  153.0162 H   0  0  0  0  0  0  0  0  0  0  0  0
  143.3679  136.2895  151.6658 H   0  0  0  0  0  0  0  0  0  0  0  0
  143.7054  135.2940  154.5184 H   0  0  0  0  0  0  0  0  0  0  0  0
  142.2197  135.4018  153.5812 H   0  0  0  0  0  0  0  0  0  0  0  0
  143.1294  133.3004  153.6551 H   0  0  0  0  0  0  0  0  0  0  0  0
  145.8459  134.9331  154.0061 H   0  0  0  0  0  0  0  0  0  0  0  0
  147.1749  135.1897  152.9251 H   0  0  0  0  0  0  0  0  0  0  0  0
  147.3544  136.7109  154.8227 H   0  0  0  0  0  0  0  0  0  0  0  0
  145.7701  137.3909  154.5311 H   0  0  0  0  0  0  0  0  0  0  0  0
  149.3626  142.3432  156.6525 H   0  0  0  0  0  0  0  0  0  0  0  0
  148.9361  143.9902  158.2877 H   0  0  0  0  0  0  0  0  0  0  0  0
  150.3700  144.6862  159.0394 H   0  0  0  0  0  0  0  0  0  0  0  0
  149.3922  143.5015  159.9191 H   0  0  0  0  0  0  0  0  0  0  0  0
  148.0569  137.4956  152.6957 H   0  0  0  0  0  0  0  0  0  0  0  0
  1  2  1  0  0  0  0
  1 25  1  0  0  0  0
  1 26  1  0  0  0  0
  1 27  1  0  0  0  0
  2 23  1  0  0  0  0
  2  3  2  0  0  0  0
  3  4  1  0  0  0  0
  3 28  1  0  0  0  0
  4 21  2  0  0  0  0
  4  5  1  0  0  0  0
  5  6  2  0  0  0  0
  6  7  1  0  0  0  0
  6 29  1  0  0  0  0
  7  8  1  0  0  0  0
  7 21  1  0  0  0  0
  8  9  1  0  0  0  0
  8 30  1  0  0  0  0
  8 31  1  0  0  0  0
  9 10  1  0  0  0  0
  9 11  1  0  0  0  0
  9 32  1  0  0  0  0
 10 33  1  0  0  0  0
 11 12  1  0  0  0  0
 11 34  1  0  0  0  0
 11 35  1  0  0  0  0
 12 20  1  0  0  0  0
 12 13  1  0  0  0  0
 12 53  1  0  0  0  0
 13 14  1  0  0  0  0
 13 36  1  0  0  0  0
 13 37  1  0  0  0  0
 14 15  1  0  0  0  0
 14 38  1  0  0  0  0
 14 39  1  0  0  0  0
 15 16  1  0  0  0  0
 15 19  1  0  0  0  0
 16 17  1  0  0  0  0
 16 40  1  0  0  0  0
 16 41  1  0  0  0  0
 17 18  1  0  0  0  0
 17 42  1  0  0  0  0
 17 43  1  0  0  0  0
 18 44  1  0  0  0  0
 19 20  1  0  0  0  0
 19 45  1  0  0  0  0
 19 46  1  0  0  0  0
 20 47  1  0  0  0  0
 20 48  1  0  0  0  0
 21 22  1  0  0  0  0
 22 23  2  0  0  0  0
 22 49  1  0  0  0  0
 23 24  1  0  0  0  0
 24 50  1  0  0  0  0
 24 51  1  0  0  0  0
 24 52  1  0  0  0  0
M  CHG  1  12   1
M  END
> <s_m_source_file>
AV-unprocessed.smi

> <i_m_source_file_index>
1046

> <i_lp_mmshare_version>
43012

> <i_f3d_flags>
0

> <s_epik_input>
W0NIM11jKFtjSF0xKWMoW0NIM10pW2NIXWMoYzEyKW4oW2NIXW4yKVtDSDJdW0NASF0oW09IXSlbQ0gyXU4zW0NIMl1bQ0gyXU4oW0NIMl1bQ0gyXTMpW0NIMl1bQ0gyXVtPSF0=

> <s_epik_cmdline>
J2VwaWtfcHl0aG9uJywgJy1waCcsICc3LjAnLCAnLXRuJywgJzgnLCAnLW1hJywgJzIwMCcsICctbWV0YWxfYmluZGluZycsICctaW1hZScsICc8aW5maWxlLm1hZT4nLCAnLW9tYWUnLCAnPG91dGZpbGUubWFlPic=

> <r_epik_Ionization_Penalty>
0.131947

> <r_epik_Ionization_Penalty_Charging>
0.00213896

> <r_epik_Ionization_Penalty_Neutral>
0.129808

> <r_epik_State_Penalty>
0.319681

> <r_epik_Charging_Adjusted_Penalty>
0.32182

> <i_epik_Tot_Q>
1

> <i_epik_Tot_abs_Q>
1

> <r_epik_Metal_State_Penalty>
0.225417

> <b_epik_Metal_Only>
0

> <s_lp_Force_Field>
OPLS_2005

> <r_lp_Energy>
33.7571

> <b_lp_Chiralities_Consistent>
1

> <s_lp_Variant>
AV-unprocessed.smi:1046-2

> <Gold.Version>
5.8.1

> <Gold.Id.Protein>
6NUR|6NUR_protein|mol2

> <Gold.PLP.Fitness>
49.8927

> <Gold.PLP.PLP>
-39.6402

> <Gold.PLP.part.hbond>
-3.0000

> <Gold.PLP.part.metal>
0.0000

> <Gold.PLP.part.buried>
-0.8281

> <Gold.PLP.part.nonpolar>
-36.1901

> <Gold.PLP.part.repulsive>
0.1682

> <Gold.PLP.ligand.clash>
0.0000

> <Gold.PLP.ligand.torsion>
0.9426

> <Gold.PLP.Chemscore.Hbond>
4.0000

> <Gold.PLP.Chemscore.CHOScore>
0.0000

> <Gold.PLP.Chemscore.Metal>
0.0000

> <Gold.Chemscore.Hbonds>
donor molecule, donor type, donor heavy atom, donor atom, acceptor molecule, acceptor atom, score
      L1  H    12    53       P1  7948  2.00
      L1  H    18    44       P1 10957  1.00
      P1  H  7997  8009       L1     5  1.00

> <Gold.PLP.Chemscore.Internal.Correction>
0.1377

> <Gold.Rescore>
     Score         DG    S(hbond)    S(metal)    S(lipo)     H(rot)  DE(clash)    DE(int)     intcor
     16.52     -17.65       2.68        0.00      97.57       3.21       0.10       1.03       ----

> <Gold.Chemscore.Fitness>
16.5195

> <Gold.Chemscore.DG>
-17.6486

> <Gold.Chemscore.ZeroCoef>
-5.4800

> <Gold.Chemscore.Hbond>
2.6824

> <Gold.Chemscore.Metal>
0.0000

> <Gold.Chemscore.Lipo>
97.5743

> <Gold.Chemscore.Internal_Hbond>
0.0000

> <Gold.Chemscore.DEClash>
0.0951

> <Gold.Chemscore.DEInternal>
1.0341

> <Gold.Chemscore.Rot>
3.2058

> <Gold.Chemscore.Internal.Correction>
   9.000000E+99

> <Gold.Chemscore.Hbonds>
donor molecule, donor type, donor heavy atom, donor atom, acceptor molecule, acceptor atom, score
      L1  H    12    53       P1  7948  0.99
      L1  H    18    44       P1 10957  0.98
      P1  H  7997  8009       L1     5  0.33

> <Gold.Chemscore.Hbond.Weighted>
-8.9592

> <Gold.Chemscore.Metal.Weighted>
-0.0000

> <Gold.Chemscore.Lipo.Weighted>
-11.4162

> <Gold.Chemscore.Internal_Hbond.Weighted>
0.0000

> <Gold.Chemscore.DEClash.Weighted>
0.0951

> <Gold.Chemscore.DEInternal.Weighted>
1.0341

> <Gold.Chemscore.Rot.Weighted>
8.2067

> <Gold.Chemscore.Internal.Correction.Weighted>
   9.000000E+99

> <Gold.Protein.RotatedTorsions>
[ 6907 6896 6895 6894 ] final   99.45 input  -60.11 | X-H torsion
[ 7974 7965 7964 7962 ] final -107.42 input  175.53 | X-H torsion
[ 8008 7997 7996 7995 ] final -162.06 input   59.86 | X-H torsion
[ 10167 10162 10161 10158 ] final   19.90 input  -65.29 | X-H torsion
[ 10718 10713 10712 10709 ] final   -0.29 input   66.30 | X-H torsion
[ 10763 10752 10751 10750 ] final  158.53 input  -60.55 | X-H torsion
[ 11005 11000 10999 10996 ] final  -15.55 input  -57.11 | X-H torsion

> <Gold.Protein.ActiveResidues>
 VAL166  LYS551  ARG553  GLY616  TRP617  ASP618  TYR619  PRO620  LYS621  CYS622 
 ASP623  PHE694  ASN695  SER759  ASP760  ASP761  ALA762  ILE779  LEU786  VAL792 
 PHE793  MET794  SER795  GLU796  ALA797  LYS798  CYS799  TRP800  GLU811  SER814 

> <Gold.Protein.RotatedAtoms>
  152.5392  134.0427  159.8074 H   0  0  0  0  0  0  0  0  0  0  0  0  # atno 6907 bound_to 6896
  151.0581  133.5560  159.2644 H   0  0  0  0  0  0  0  0  0  0  0  0  # atno 6908 bound_to 6896
  151.2469  135.0616  159.9100 H   0  0  0  0  0  0  0  0  0  0  0  0  # atno 6909 bound_to 6896
  145.2055  140.9074  143.3344 H   0  0  0  0  0  0  0  0  0  0  0  0  # atno 7974 bound_to 7965
  155.8013  140.0892  157.1955 H   0  0  0  0  0  0  0  0  0  0  0  0  # atno 8008 bound_to 7997
  154.3982  140.1472  156.3337 H   0  0  0  0  0  0  0  0  0  0  0  0  # atno 8009 bound_to 7997
  155.8459  140.3437  155.5664 H   0  0  0  0  0  0  0  0  0  0  0  0  # atno 8010 bound_to 7997
  140.5544  143.9451  150.6599 H   0  0  0  0  0  0  0  0  0  0  0  0  # atno 10167 bound_to 10162
  156.8227  130.5461  149.5695 H   0  0  0  0  0  0  0  0  0  0  0  0  # atno 10718 bound_to 10713
  154.2175  135.2783  155.2936 H   0  0  0  0  0  0  0  0  0  0  0  0  # atno 10763 bound_to 10752
  154.5728  135.5613  153.7115 H   0  0  0  0  0  0  0  0  0  0  0  0  # atno 10764 bound_to 10752
  153.0049  135.6325  154.2315 H   0  0  0  0  0  0  0  0  0  0  0  0  # atno 10765 bound_to 10752
  140.7978  133.8238  155.9440 H   0  0  0  0  0  0  0  0  0  0  0  0  # atno 11005 bound_to 11000
  144.9906  139.3693  143.6217 LP  0  0  0  0  0  0  0  0  0  0  0  0  # atno 17320 bound_to 7965
  146.3409  139.9087  142.8783 LP  0  0  0  0  0  0  0  0  0  0  0  0  # atno 17321 bound_to 7965
  140.2885  143.3340  152.1085 LP  0  0  0  0  0  0  0  0  0  0  0  0  # atno 17342 bound_to 10162
  139.5041  144.6769  151.6105 LP  0  0  0  0  0  0  0  0  0  0  0  0  # atno 17343 bound_to 10162
  156.0980  130.5947  150.9845 LP  0  0  0  0  0  0  0  0  0  0  0  0  # atno 17370 bound_to 10713
  157.6448  131.0905  150.8175 LP  0  0  0  0  0  0  0  0  0  0  0  0  # atno 17371 bound_to 10713
  140.9325  134.2003  157.4854 LP  0  0  0  0  0  0  0  0  0  0  0  0  # atno 17394 bound_to 11000
  139.8724  134.9839  156.5216 LP  0  0  0  0  0  0  0  0  0  0  0  0  # atno 17395 bound_to 11000

$$$$
