AV-unprocessed.smi:1388|AV-procd|sdf|5643|dock2
  -GOLD-   22720 5263D 1   1.00000     0.00000
 Structure written by MMmdl.
 46 47  0  0  0  0  0  0  0  0  2 V2000
  146.2242  133.9404  152.3208 C   0  0  0  0  0  0  0  0  0  0  0  0
  146.7384  135.1905  152.8596 N   0  0  0  0  0  0  0  0  0  0  0  0
  146.4203  135.6782  154.0667 C   0  0  0  0  0  0  0  0  0  0  0  0
  145.6487  135.1114  154.8414 O   0  0  0  0  0  0  0  0  0  0  0  0
  147.0592  137.0184  154.4452 C   0  0  0  0  0  0  0  0  0  0  0  0
  148.5423  137.0031  154.3561 N   0  3  2  0  0  0  0  0  0  0  0  0
  149.1612  136.1262  155.3825 C   0  0  0  0  0  0  0  0  0  0  0  0
  150.6832  136.0141  155.1778 C   0  0  0  0  0  0  0  0  0  0  0  0
  151.3674  137.3917  155.1512 C   0  0  2  0  0  0  0  0  0  0  0  0
  151.3789  137.9842  156.4884 N   0  0  0  0  0  0  0  0  0  0  0  0
  151.9258  139.1670  156.8060 C   0  0  0  0  0  0  0  0  0  0  0  0
  152.4831  139.8969  155.9860 O   0  0  0  0  0  0  0  0  0  0  0  0
  151.7717  139.4375  158.1143 N   0  0  0  0  0  0  0  0  0  0  0  0
  152.2220  140.5752  158.8419 C   0  0  0  0  0  0  0  0  0  0  0  0
  151.7756  141.8306  158.5862 N   0  0  0  0  0  0  0  0  0  0  0  0
  152.2489  142.8654  159.3100 C   0  0  0  0  0  0  0  0  0  0  0  0
  153.1974  142.7141  160.3358 C   0  0  0  0  0  0  0  0  0  0  0  0
  153.6699  141.4202  160.6143 C   0  0  0  0  0  0  0  0  0  0  0  0
  153.1812  140.3314  159.8614 C   0  0  0  0  0  0  0  0  0  0  0  0
  153.6912  138.9312  160.1619 C   0  0  0  0  0  0  0  0  0  0  0  0
  150.6608  138.3029  154.1280 C   0  0  0  0  0  0  0  0  0  0  0  0
  149.1417  138.3645  154.3650 C   0  0  0  0  0  0  0  0  0  0  0  0
  146.6530  133.7555  151.3360 H   0  0  0  0  0  0  0  0  0  0  0  0
  145.1389  133.9788  152.2183 H   0  0  0  0  0  0  0  0  0  0  0  0
  146.4838  133.1014  152.9675 H   0  0  0  0  0  0  0  0  0  0  0  0
  147.3720  135.7171  152.2753 H   0  0  0  0  0  0  0  0  0  0  0  0
  146.6555  137.8236  153.8292 H   0  0  0  0  0  0  0  0  0  0  0  0
  146.7550  137.2268  155.4717 H   0  0  0  0  0  0  0  0  0  0  0  0
  148.9375  136.5145  156.3774 H   0  0  0  0  0  0  0  0  0  0  0  0
  148.7225  135.1291  155.3271 H   0  0  0  0  0  0  0  0  0  0  0  0
  151.1215  135.3884  155.9564 H   0  0  0  0  0  0  0  0  0  0  0  0
  150.8767  135.5020  154.2342 H   0  0  0  0  0  0  0  0  0  0  0  0
  152.4030  137.2469  154.8377 H   0  0  0  0  0  0  0  0  0  0  0  0
  150.9481  137.4493  157.2281 H   0  0  0  0  0  0  0  0  0  0  0  0
  151.2727  138.7498  158.6586 H   0  0  0  0  0  0  0  0  0  0  0  0
  151.8594  143.8421  159.0637 H   0  0  0  0  0  0  0  0  0  0  0  0
  153.5525  143.5678  160.8936 H   0  0  0  0  0  0  0  0  0  0  0  0
  154.3990  141.2691  161.3967 H   0  0  0  0  0  0  0  0  0  0  0  0
  154.4005  138.9363  160.9899 H   0  0  0  0  0  0  0  0  0  0  0  0
  154.1962  138.5143  159.2904 H   0  0  0  0  0  0  0  0  0  0  0  0
  152.8654  138.2735  160.4333 H   0  0  0  0  0  0  0  0  0  0  0  0
  151.0842  139.3077  154.1497 H   0  0  0  0  0  0  0  0  0  0  0  0
  150.8471  137.9217  153.1230 H   0  0  0  0  0  0  0  0  0  0  0  0
  148.6869  138.9804  153.5888 H   0  0  0  0  0  0  0  0  0  0  0  0
  148.9275  138.8536  155.3165 H   0  0  0  0  0  0  0  0  0  0  0  0
  148.7635  136.5912  153.4603 H   0  0  0  0  0  0  0  0  0  0  0  0
  1  2  1  0  0  0  0
  1 23  1  0  0  0  0
  1 24  1  0  0  0  0
  1 25  1  0  0  0  0
  2  3  1  0  0  0  0
  2 26  1  0  0  0  0
  3  4  2  0  0  0  0
  3  5  1  0  0  0  0
  5  6  1  0  0  0  0
  5 27  1  0  0  0  0
  5 28  1  0  0  0  0
  6 22  1  0  0  0  0
  6  7  1  0  0  0  0
  6 46  1  0  0  0  0
  7  8  1  0  0  0  0
  7 29  1  0  0  0  0
  7 30  1  0  0  0  0
  8  9  1  0  0  0  0
  8 31  1  0  0  0  0
  8 32  1  0  0  0  0
  9 10  1  0  0  0  0
  9 21  1  0  0  0  0
  9 33  1  0  0  0  0
 10 11  1  0  0  0  0
 10 34  1  0  0  0  0
 11 12  2  0  0  0  0
 11 13  1  0  0  0  0
 13 14  1  0  0  0  0
 13 35  1  0  0  0  0
 14 19  1  0  0  0  0
 14 15  2  0  0  0  0
 15 16  1  0  0  0  0
 16 17  2  0  0  0  0
 16 36  1  0  0  0  0
 17 18  1  0  0  0  0
 17 37  1  0  0  0  0
 18 19  2  0  0  0  0
 18 38  1  0  0  0  0
 19 20  1  0  0  0  0
 20 39  1  0  0  0  0
 20 40  1  0  0  0  0
 20 41  1  0  0  0  0
 21 22  1  0  0  0  0
 21 42  1  0  0  0  0
 21 43  1  0  0  0  0
 22 44  1  0  0  0  0
 22 45  1  0  0  0  0
M  CHG  1   6   1
M  END
> <s_m_source_file>
AV-unprocessed.smi

> <i_m_source_file_index>
1388

> <i_lp_mmshare_version>
43012

> <i_f3d_flags>
0

> <s_epik_input>
W0NIM11bTkhdQyg9TylbQ0gyXU4xW0NIMl1bQ0gyXVtDSF0oW0NIMl1bQ0gyXTEpW05IXUMoPU8pW05IXWMybltjSF1bY0hdW2NIXWMyW0NIM10=

> <s_epik_cmdline>
J2VwaWtfcHl0aG9uJywgJy1waCcsICc3LjAnLCAnLXRuJywgJzgnLCAnLW1hJywgJzIwMCcsICctbWV0YWxfYmluZGluZycsICctaW1hZScsICc8aW5maWxlLm1hZT4nLCAnLW9tYWUnLCAnPG91dGZpbGUubWFlPic=

> <r_epik_Ionization_Penalty>
0.83891

> <r_epik_Ionization_Penalty_Charging>
0.838844

> <r_epik_Ionization_Penalty_Neutral>
6.58477e-05

> <r_epik_State_Penalty>
0.8734

> <r_epik_Charging_Adjusted_Penalty>
1.71224

> <i_epik_Tot_Q>
1

> <i_epik_Tot_abs_Q>
1

> <r_epik_Metal_State_Penalty>
0.877924

> <b_epik_Metal_Only>
0

> <s_lp_Force_Field>
OPLS_2005

> <r_lp_Energy>
16.2558

> <b_lp_Chiralities_Consistent>
1

> <s_lp_Variant>
AV-unprocessed.smi:1388-3

> <Gold.Version>
5.8.1

> <Gold.Id.Protein>
6NUR|6NUR_protein|mol2

> <Gold.PLP.Fitness>
44.3632

> <Gold.PLP.PLP>
-33.7635

> <Gold.PLP.part.hbond>
-3.0000

> <Gold.PLP.part.metal>
0.0000

> <Gold.PLP.part.buried>
-4.3246

> <Gold.PLP.part.nonpolar>
-26.6589

> <Gold.PLP.part.repulsive>
0.1732

> <Gold.PLP.ligand.clash>
0.0000

> <Gold.PLP.ligand.torsion>
0.6999

> <Gold.PLP.Chemscore.Hbond>
3.9920

> <Gold.PLP.Chemscore.CHOScore>
0.0000

> <Gold.PLP.Chemscore.Metal>
0.0000

> <Gold.Chemscore.Hbonds>
donor molecule, donor type, donor heavy atom, donor atom, acceptor molecule, acceptor atom, score
      L1  H     2    26       P1  7948  1.00
      L1  H     6    46       P1  7948  2.00
      P1  H  7997  8008       L1    12  1.00

> <Gold.PLP.Chemscore.Internal.Correction>
0.0234

> <Gold.Rescore>
     Score         DG    S(hbond)    S(metal)    S(lipo)     H(rot)  DE(clash)    DE(int)     intcor
     20.20     -20.86       2.97        0.00      83.60       1.69       0.03       0.63       ----

> <Gold.Chemscore.Fitness>
20.2030

> <Gold.Chemscore.DG>
-20.8604

> <Gold.Chemscore.ZeroCoef>
-5.4800

> <Gold.Chemscore.Hbond>
2.9679

> <Gold.Chemscore.Metal>
0.0000

> <Gold.Chemscore.Lipo>
83.6044

> <Gold.Chemscore.Internal_Hbond>
0.0000

> <Gold.Chemscore.DEClash>
0.0263

> <Gold.Chemscore.DEInternal>
0.6311

> <Gold.Chemscore.Rot>
1.6853

> <Gold.Chemscore.Internal.Correction>
   9.000000E+99

> <Gold.Chemscore.Hbonds>
donor molecule, donor type, donor heavy atom, donor atom, acceptor molecule, acceptor atom, score
      L1  H     2    26       P1  7948  0.96
      L1  H     6    46       P1  7948  1.00
      P1  H  7997  8008       L1    12  0.94

> <Gold.Chemscore.Hbond.Weighted>
-9.9129

> <Gold.Chemscore.Metal.Weighted>
-0.0000

> <Gold.Chemscore.Lipo.Weighted>
-9.7817

> <Gold.Chemscore.Internal_Hbond.Weighted>
0.0000

> <Gold.Chemscore.DEClash.Weighted>
0.0263

> <Gold.Chemscore.DEInternal.Weighted>
0.6311

> <Gold.Chemscore.Rot.Weighted>
4.3143

> <Gold.Chemscore.Internal.Correction.Weighted>
   9.000000E+99

> <Gold.Protein.RotatedTorsions>
[ 6907 6896 6895 6894 ] final -165.48 input  -60.11 | X-H torsion
[ 7974 7965 7964 7962 ] final  -68.26 input  175.53 | X-H torsion
[ 8008 7997 7996 7995 ] final  -20.27 input   59.86 | X-H torsion
[ 10167 10162 10161 10158 ] final  128.77 input  -65.29 | X-H torsion
[ 10718 10713 10712 10709 ] final -151.29 input   66.30 | X-H torsion
[ 10763 10752 10751 10750 ] final  -53.42 input  -60.55 | X-H torsion
[ 11005 11000 10999 10996 ] final   87.87 input  -57.11 | X-H torsion

> <Gold.Protein.ActiveResidues>
 VAL166  LYS551  ARG553  GLY616  TRP617  ASP618  TYR619  PRO620  LYS621  CYS622 
 ASP623  PHE694  ASN695  SER759  ASP760  ASP761  ALA762  ILE779  LEU786  VAL792 
 PHE793  MET794  SER795  GLU796  ALA797  LYS798  CYS799  TRP800  GLU811  SER814 

> <Gold.Protein.RotatedAtoms>
  151.4283  133.3677  159.2765 H   0  0  0  0  0  0  0  0  0  0  0  0  # atno 6907 bound_to 6896
  150.9243  134.8662  159.7520 H   0  0  0  0  0  0  0  0  0  0  0  0  # atno 6908 bound_to 6896
  152.4997  134.4224  159.9537 H   0  0  0  0  0  0  0  0  0  0  0  0  # atno 6909 bound_to 6896
  145.7188  140.9047  143.0641 H   0  0  0  0  0  0  0  0  0  0  0  0  # atno 7974 bound_to 7965
  154.4781  140.2066  155.9830 H   0  0  0  0  0  0  0  0  0  0  0  0  # atno 8008 bound_to 7997
  156.1121  140.3227  155.8057 H   0  0  0  0  0  0  0  0  0  0  0  0  # atno 8009 bound_to 7997
  155.4616  140.0524  157.2981 H   0  0  0  0  0  0  0  0  0  0  0  0  # atno 8010 bound_to 7997
  139.5510  144.6813  151.4323 H   0  0  0  0  0  0  0  0  0  0  0  0  # atno 10167 bound_to 10162
  156.4573  130.8196  151.2427 H   0  0  0  0  0  0  0  0  0  0  0  0  # atno 10718 bound_to 10713
  154.1586  135.6478  153.4980 H   0  0  0  0  0  0  0  0  0  0  0  0  # atno 10763 bound_to 10752
  153.0117  135.5355  154.6734 H   0  0  0  0  0  0  0  0  0  0  0  0  # atno 10764 bound_to 10752
  154.6042  135.2947  155.0475 H   0  0  0  0  0  0  0  0  0  0  0  0  # atno 10765 bound_to 10752
  139.8909  134.8451  156.2921 H   0  0  0  0  0  0  0  0  0  0  0  0  # atno 11005 bound_to 11000
  144.6922  139.9174  143.7466 LP  0  0  0  0  0  0  0  0  0  0  0  0  # atno 17320 bound_to 7965
  146.0645  139.3637  143.0561 LP  0  0  0  0  0  0  0  0  0  0  0  0  # atno 17321 bound_to 7965
  140.6773  143.8161  150.7075 LP  0  0  0  0  0  0  0  0  0  0  0  0  # atno 17342 bound_to 10162
  140.1604  143.4280  152.2071 LP  0  0  0  0  0  0  0  0  0  0  0  0  # atno 17343 bound_to 10162
  157.7500  131.0118  150.3361 LP  0  0  0  0  0  0  0  0  0  0  0  0  # atno 17370 bound_to 10713
  156.3753  130.3871  149.7144 LP  0  0  0  0  0  0  0  0  0  0  0  0  # atno 17371 bound_to 10713
  140.9969  133.7174  156.0900 LP  0  0  0  0  0  0  0  0  0  0  0  0  # atno 17394 bound_to 11000
  140.7550  134.4003  157.5535 LP  0  0  0  0  0  0  0  0  0  0  0  0  # atno 17395 bound_to 11000

$$$$
