AV-unprocessed.smi:943|AV-procd|sdf|4229|dock7
  -GOLD-   22720 2133D 1   1.00000     0.00000
 Structure written by MMmdl.
 43 44  0  0  0  0  0  0  0  0  1 V2000
  151.3027  139.6165  154.7617 C   0  0  0  0  0  0  0  0  0  0  0  0
  150.5736  140.8474  155.3276 C   0  0  2  0  0  0  0  0  0  0  0  0
  150.5053  140.7853  156.8726 C   0  0  0  0  0  0  0  0  0  0  0  0
  151.6322  141.5170  157.6426 C   0  0  0  0  0  0  0  0  0  0  0  0
  151.9544  140.8561  159.0017 C   0  0  0  0  0  0  0  0  0  0  0  0
  153.0390  141.6273  159.7710 C   0  0  0  0  0  0  0  0  0  0  0  0
  152.6523  143.0997  159.9647 C   0  0  0  0  0  0  0  0  0  0  0  0
  152.3522  143.7668  158.6152 C   0  0  0  0  0  0  0  0  0  0  0  0
  151.2620  143.0010  157.8491 C   0  0  0  0  0  0  0  0  0  0  0  0
  149.1800  140.9730  154.6956 C   0  0  0  0  0  0  0  0  0  0  0  0
  148.7698  142.0658  154.3036 O   0  0  0  0  0  0  0  0  0  0  0  0
  148.4699  139.8414  154.5907 N   0  0  0  0  0  0  0  0  0  0  0  0
  147.1532  139.7458  153.9742 C   0  0  0  0  0  0  0  0  0  0  0  0
  147.2412  139.8331  152.4417 C   0  0  0  0  0  0  0  0  0  0  0  0
  146.6615  138.6370  151.7432 C   0  0  0  0  0  0  0  0  0  0  0  0
  146.0943  137.5328  152.3339 C   0  0  0  0  0  0  0  0  0  0  0  0
  145.5415  136.3715  151.1573 S   0  0  0  0  0  0  0  0  0  0  0  0
  146.1149  137.4488  149.8956 C   0  0  0  0  0  0  0  0  0  0  0  0
  146.6688  138.5749  150.3456 N   0  0  0  0  0  0  0  0  0  0  0  0
  151.3431  139.6440  153.6719 H   0  0  0  0  0  0  0  0  0  0  0  0
  150.8105  138.6876  155.0531 H   0  0  0  0  0  0  0  0  0  0  0  0
  152.3303  139.5721  155.1233 H   0  0  0  0  0  0  0  0  0  0  0  0
  151.1612  141.7205  155.0410 H   0  0  0  0  0  0  0  0  0  0  0  0
  149.5435  141.1875  157.1949 H   0  0  0  0  0  0  0  0  0  0  0  0
  150.4980  139.7383  157.1789 H   0  0  0  0  0  0  0  0  0  0  0  0
  152.5392  141.4969  157.0369 H   0  0  0  0  0  0  0  0  0  0  0  0
  151.0492  140.7977  159.6076 H   0  0  0  0  0  0  0  0  0  0  0  0
  152.2965  139.8316  158.8558 H   0  0  0  0  0  0  0  0  0  0  0  0
  153.2115  141.1582  160.7399 H   0  0  0  0  0  0  0  0  0  0  0  0
  153.9816  141.5687  159.2259 H   0  0  0  0  0  0  0  0  0  0  0  0
  151.7765  143.1674  160.6113 H   0  0  0  0  0  0  0  0  0  0  0  0
  153.4563  143.6321  160.4737 H   0  0  0  0  0  0  0  0  0  0  0  0
  152.0395  144.7993  158.7730 H   0  0  0  0  0  0  0  0  0  0  0  0
  153.2626  143.8069  158.0156 H   0  0  0  0  0  0  0  0  0  0  0  0
  151.0954  143.4810  156.8840 H   0  0  0  0  0  0  0  0  0  0  0  0
  150.3199  143.0732  158.3942 H   0  0  0  0  0  0  0  0  0  0  0  0
  148.8810  138.9853  154.9335 H   0  0  0  0  0  0  0  0  0  0  0  0
  146.6792  138.8082  154.2678 H   0  0  0  0  0  0  0  0  0  0  0  0
  146.5242  140.5539  154.3519 H   0  0  0  0  0  0  0  0  0  0  0  0
  146.7299  140.7370  152.1085 H   0  0  0  0  0  0  0  0  0  0  0  0
  148.2845  139.9633  152.1516 H   0  0  0  0  0  0  0  0  0  0  0  0
  145.9675  137.3334  153.3875 H   0  0  0  0  0  0  0  0  0  0  0  0
  146.0464  137.2538  148.8356 H   0  0  0  0  0  0  0  0  0  0  0  0
  1  2  1  0  0  0  0
  1 20  1  0  0  0  0
  1 21  1  0  0  0  0
  1 22  1  0  0  0  0
  2  3  1  0  0  0  0
  2 10  1  0  0  0  0
  2 23  1  0  0  0  0
  3  4  1  0  0  0  0
  3 24  1  0  0  0  0
  3 25  1  0  0  0  0
  4  9  1  0  0  0  0
  4  5  1  0  0  0  0
  4 26  1  0  0  0  0
  5  6  1  0  0  0  0
  5 27  1  0  0  0  0
  5 28  1  0  0  0  0
  6  7  1  0  0  0  0
  6 29  1  0  0  0  0
  6 30  1  0  0  0  0
  7  8  1  0  0  0  0
  7 31  1  0  0  0  0
  7 32  1  0  0  0  0
  8  9  1  0  0  0  0
  8 33  1  0  0  0  0
  8 34  1  0  0  0  0
  9 35  1  0  0  0  0
  9 36  1  0  0  0  0
 10 11  2  0  0  0  0
 10 12  1  0  0  0  0
 12 13  1  0  0  0  0
 12 37  1  0  0  0  0
 13 14  1  0  0  0  0
 13 38  1  0  0  0  0
 13 39  1  0  0  0  0
 14 15  1  0  0  0  0
 14 40  1  0  0  0  0
 14 41  1  0  0  0  0
 15 19  1  0  0  0  0
 15 16  2  0  0  0  0
 16 17  1  0  0  0  0
 16 42  1  0  0  0  0
 17 18  1  0  0  0  0
 18 19  2  0  0  0  0
 18 43  1  0  0  0  0
M  END
> <s_m_source_file>
AV-unprocessed.smi

> <i_m_source_file_index>
943

> <i_lp_mmshare_version>
43012

> <i_f3d_flags>
0

> <s_epik_input>
W0NIMl0xW0NIMl1bQ0gyXVtDSDJdW0NIMl1bQ0hdMVtDSDJdW0NAQEhdKFtDSDNdKUMoPU8pW05IXVtDSDJdW0NIMl1jMltjSF1zW2NIXW4y

> <s_epik_cmdline>
J2VwaWtfcHl0aG9uJywgJy1waCcsICc3LjAnLCAnLXRuJywgJzgnLCAnLW1hJywgJzIwMCcsICctbWV0YWxfYmluZGluZycsICctaW1hZScsICc8aW5maWxlLm1hZT4nLCAnLW9tYWUnLCAnPG91dGZpbGUubWFlPic=

> <r_lp_tautomer_probability>
1

> <r_epik_Ionization_Penalty>
0.000194757

> <r_epik_Ionization_Penalty_Charging>
0

> <r_epik_Ionization_Penalty_Neutral>
0.000194757

> <r_epik_State_Penalty>
-0

> <r_epik_Charging_Adjusted_Penalty>
0

> <i_epik_Tot_Q>
0

> <i_epik_Tot_abs_Q>
0

> <r_epik_Metal_State_Penalty>
-0

> <b_epik_Metal_Only>
0

> <s_lp_Force_Field>
OPLS_2005

> <r_lp_Energy>
6.00362

> <b_lp_Chiralities_Consistent>
1

> <s_lp_Variant>
AV-unprocessed.smi:943-1

> <Gold.Version>
5.8.1

> <Gold.Id.Protein>
6NUR|6NUR_protein|mol2

> <Gold.PLP.Fitness>
44.8914

> <Gold.PLP.PLP>
-41.0517

> <Gold.PLP.part.hbond>
-2.0000

> <Gold.PLP.part.metal>
0.0000

> <Gold.PLP.part.buried>
0.3420

> <Gold.PLP.part.nonpolar>
-43.1107

> <Gold.PLP.part.repulsive>
2.2116

> <Gold.PLP.ligand.clash>
0.0000

> <Gold.PLP.ligand.torsion>
1.7654

> <Gold.PLP.Chemscore.Hbond>
1.4160

> <Gold.PLP.Chemscore.CHOScore>
1.0000

> <Gold.PLP.Chemscore.Metal>
0.0000

> <Gold.Chemscore.Hbonds>
donor molecule, donor type, donor heavy atom, donor atom, acceptor molecule, acceptor atom, score
      P1  H  7954  7966       L1    19  0.21
      P1  H  8011  8017       L1    11  0.17
      L1  C    18    43       P1  7921  0.62

> <Gold.PLP.Chemscore.Internal.Correction>
0.1225

> <Gold.Rescore>
     Score         DG    S(hbond)    S(metal)    S(lipo)     H(rot)  DE(clash)    DE(int)     intcor
     15.03     -20.21       1.45        0.00     119.08       1.58       2.85       2.32       ----

> <Gold.Chemscore.Fitness>
15.0350

> <Gold.Chemscore.DG>
-20.2051

> <Gold.Chemscore.ZeroCoef>
-5.4800

> <Gold.Chemscore.Hbond>
1.4475

> <Gold.Chemscore.Metal>
0.0000

> <Gold.Chemscore.Lipo>
119.0792

> <Gold.Chemscore.Internal_Hbond>
0.0000

> <Gold.Chemscore.DEClash>
2.8510

> <Gold.Chemscore.DEInternal>
2.3192

> <Gold.Chemscore.Rot>
1.5789

> <Gold.Chemscore.Internal.Correction>
   9.000000E+99

> <Gold.Chemscore.Hbonds>
donor molecule, donor type, donor heavy atom, donor atom, acceptor molecule, acceptor atom, score
      P1  H  8011  8017       L1    11  0.09

> <Gold.Chemscore.Hbond.Weighted>
-4.8347

> <Gold.Chemscore.Metal.Weighted>
-0.0000

> <Gold.Chemscore.Lipo.Weighted>
-13.9323

> <Gold.Chemscore.Internal_Hbond.Weighted>
0.0000

> <Gold.Chemscore.DEClash.Weighted>
2.8510

> <Gold.Chemscore.DEInternal.Weighted>
2.3192

> <Gold.Chemscore.Rot.Weighted>
4.0419

> <Gold.Chemscore.Internal.Correction.Weighted>
   9.000000E+99

> <Gold.Protein.RotatedTorsions>
[ 6907 6896 6895 6894 ] final  -58.46 input  -60.11 | X-H torsion
[ 7974 7965 7964 7962 ] final  133.26 input  175.53 | X-H torsion
[ 8008 7997 7996 7995 ] final   25.28 input   59.86 | X-H torsion
[ 10167 10162 10161 10158 ] final   16.60 input  -65.29 | X-H torsion
[ 10718 10713 10712 10709 ] final  127.56 input   66.30 | X-H torsion
[ 10763 10752 10751 10750 ] final -167.20 input  -60.55 | X-H torsion
[ 11005 11000 10999 10996 ] final  -79.57 input  -57.11 | X-H torsion

> <Gold.Protein.ActiveResidues>
 VAL166  LYS551  ARG553  GLY616  TRP617  ASP618  TYR619  PRO620  LYS621  CYS622 
 ASP623  PHE694  ASN695  SER759  ASP760  ASP761  ALA762  ILE779  LEU786  VAL792 
 PHE793  MET794  SER795  GLU796  ALA797  LYS798  CYS799  TRP800  GLU811  SER814 

> <Gold.Protein.RotatedAtoms>
  150.8005  134.7096  159.6595 H   0  0  0  0  0  0  0  0  0  0  0  0  # atno 6907 bound_to 6896
  152.4122  134.6101  160.0033 H   0  0  0  0  0  0  0  0  0  0  0  0  # atno 6908 bound_to 6896
  151.6341  133.3293  159.3151 H   0  0  0  0  0  0  0  0  0  0  0  0  # atno 6909 bound_to 6896
  144.9883  139.4432  143.5352 H   0  0  0  0  0  0  0  0  0  0  0  0  # atno 7974 bound_to 7965
  155.0093  140.3134  155.4836 H   0  0  0  0  0  0  0  0  0  0  0  0  # atno 8008 bound_to 7997
  156.2912  140.2217  156.5148 H   0  0  0  0  0  0  0  0  0  0  0  0  # atno 8009 bound_to 7997
  154.7548  140.0463  157.0912 H   0  0  0  0  0  0  0  0  0  0  0  0  # atno 8010 bound_to 7997
  140.5786  143.9025  150.6770 H   0  0  0  0  0  0  0  0  0  0  0  0  # atno 10167 bound_to 10162
  157.5322  131.1098  150.8991 H   0  0  0  0  0  0  0  0  0  0  0  0  # atno 10718 bound_to 10713
  154.6756  135.2946  154.9683 H   0  0  0  0  0  0  0  0  0  0  0  0  # atno 10763 bound_to 10752
  154.0695  135.6620  153.4826 H   0  0  0  0  0  0  0  0  0  0  0  0  # atno 10764 bound_to 10752
  153.0514  135.5171  154.7773 H   0  0  0  0  0  0  0  0  0  0  0  0  # atno 10765 bound_to 10752
  141.1667  133.7112  156.8143 H   0  0  0  0  0  0  0  0  0  0  0  0  # atno 11005 bound_to 11000
  146.3425  139.9199  142.8768 LP  0  0  0  0  0  0  0  0  0  0  0  0  # atno 17320 bound_to 7965
  145.2321  140.9977  143.3984 LP  0  0  0  0  0  0  0  0  0  0  0  0  # atno 17321 bound_to 7965
  140.2518  143.3587  152.1399 LP  0  0  0  0  0  0  0  0  0  0  0  0  # atno 17342 bound_to 10162
  139.5157  144.6966  151.5613 LP  0  0  0  0  0  0  0  0  0  0  0  0  # atno 17343 bound_to 10162
  156.9569  130.5440  149.5284 LP  0  0  0  0  0  0  0  0  0  0  0  0  # atno 17370 bound_to 10713
  156.0431  130.5511  150.8818 LP  0  0  0  0  0  0  0  0  0  0  0  0  # atno 17371 bound_to 10713
  140.2165  134.8789  157.3331 LP  0  0  0  0  0  0  0  0  0  0  0  0  # atno 17394 bound_to 11000
  140.2032  134.4229  155.7651 LP  0  0  0  0  0  0  0  0  0  0  0  0  # atno 17395 bound_to 11000

$$$$
