AV-unprocessed.smi:1748|AV-procd|sdf|7041|dock10
  -GOLD-   22720 8263D 1   1.00000     0.00000
 Structure written by MMmdl.
 39 40  0  0  0  0  0  0  0  0  3 V2000
  146.8007  138.7718  152.0150 C   0  0  0  0  0  0  0  0  0  0  0  0
  146.5436  137.3173  152.0789 N   0  3  2  0  0  0  0  0  0  0  0  0
  145.8101  136.8173  150.8890 C   0  0  0  0  0  0  0  0  0  0  0  0
  145.6701  135.2852  150.9256 C   0  0  0  0  0  0  0  0  0  0  0  0
  145.0266  134.8119  152.2409 C   0  0  0  0  0  0  0  0  0  0  0  0
  145.7809  135.3769  153.4585 C   0  0  1  0  0  0  0  0  0  0  0  0
  147.1034  134.7589  153.5527 N   0  0  0  0  0  0  0  0  0  0  0  0
  147.5414  134.0105  154.5747 C   0  0  0  0  0  0  0  0  0  0  0  0
  146.8510  133.7429  155.5577 O   0  0  0  0  0  0  0  0  0  0  0  0
  148.8207  133.6442  154.3833 N   0  0  0  0  0  0  0  0  0  0  0  0
  149.6566  132.8856  155.2184 C   0  0  0  0  0  0  0  0  0  0  0  0
  150.4059  131.8262  154.8063 C   0  0  0  0  0  0  0  0  0  0  0  0
  151.2644  131.0780  155.7160 C   0  0  0  0  0  0  0  0  0  0  0  0
  152.1736  129.9453  155.2727 C   0  0  0  0  0  0  0  0  0  0  0  0
  152.0178  128.8708  156.0467 F   0  0  0  0  0  0  0  0  0  0  0  0
  151.8889  129.5997  154.0179 F   0  0  0  0  0  0  0  0  0  0  0  0
  153.4531  130.3158  155.3210 F   0  0  0  0  0  0  0  0  0  0  0  0
  151.2393  131.5891  156.9995 C   0  0  0  0  0  0  0  0  0  0  0  0
  150.5216  132.6241  157.4894 N   0  5  0  0  0  0  0  0  0  0  0  0
  149.7192  133.3139  156.6306 C   0  0  0  0  0  0  0  0  0  0  0  0
  149.0484  134.2764  157.0055 O   0  0  0  0  0  0  0  0  0  0  0  0
  145.8783  136.9147  153.3435 C   0  0  0  0  0  0  0  0  0  0  0  0
  145.8675  139.3359  152.0334 H   0  0  0  0  0  0  0  0  0  0  0  0
  147.3382  139.0278  151.1015 H   0  0  0  0  0  0  0  0  0  0  0  0
  147.4114  139.0914  152.8602 H   0  0  0  0  0  0  0  0  0  0  0  0
  144.8240  137.2828  150.8465 H   0  0  0  0  0  0  0  0  0  0  0  0
  146.3392  137.1118  149.9818 H   0  0  0  0  0  0  0  0  0  0  0  0
  145.0736  134.9464  150.0781 H   0  0  0  0  0  0  0  0  0  0  0  0
  146.6528  134.8268  150.8086 H   0  0  0  0  0  0  0  0  0  0  0  0
  143.9884  135.1452  152.2734 H   0  0  0  0  0  0  0  0  0  0  0  0
  144.9990  133.7221  152.2787 H   0  0  0  0  0  0  0  0  0  0  0  0
  145.2211  135.1215  154.3598 H   0  0  0  0  0  0  0  0  0  0  0  0
  147.7371  134.9204  152.7832 H   0  0  0  0  0  0  0  0  0  0  0  0
  149.2776  134.0065  153.5591 H   0  0  0  0  0  0  0  0  0  0  0  0
  150.3994  131.5156  153.7743 H   0  0  0  0  0  0  0  0  0  0  0  0
  151.9004  131.0963  157.7440 H   0  0  0  0  0  0  0  0  0  0  0  0
  146.4276  137.3233  154.1928 H   0  0  0  0  0  0  0  0  0  0  0  0
  144.8808  137.3555  153.3834 H   0  0  0  0  0  0  0  0  0  0  0  0
  147.4478  136.8667  152.0749 H   0  0  0  0  0  0  0  0  0  0  0  0
  1  2  1  0  0  0  0
  1 23  1  0  0  0  0
  1 24  1  0  0  0  0
  1 25  1  0  0  0  0
  2 22  1  0  0  0  0
  2  3  1  0  0  0  0
  2 39  1  0  0  0  0
  3  4  1  0  0  0  0
  3 26  1  0  0  0  0
  3 27  1  0  0  0  0
  4  5  1  0  0  0  0
  4 28  1  0  0  0  0
  4 29  1  0  0  0  0
  5  6  1  0  0  0  0
  5 30  1  0  0  0  0
  5 31  1  0  0  0  0
  6  7  1  0  0  0  0
  6 22  1  0  0  0  0
  6 32  1  0  0  0  0
  7  8  1  0  0  0  0
  7 33  1  0  0  0  0
  8  9  2  0  0  0  0
  8 10  1  0  0  0  0
 10 11  1  0  0  0  0
 10 34  1  0  0  0  0
 11 20  1  0  0  0  0
 11 12  2  0  0  0  0
 12 13  1  0  0  0  0
 12 35  1  0  0  0  0
 13 14  1  0  0  0  0
 13 18  2  0  0  0  0
 14 15  1  0  0  0  0
 14 16  1  0  0  0  0
 14 17  1  0  0  0  0
 18 19  1  0  0  0  0
 18 36  1  0  0  0  0
 19 20  1  0  0  0  0
 20 21  2  0  0  0  0
 22 37  1  0  0  0  0
 22 38  1  0  0  0  0
M  CHG  1   2   1
M  CHG  1  19  -1
M  END
> <s_m_source_file>
AV-unprocessed.smi

> <i_m_source_file_index>
1748

> <i_lp_mmshare_version>
43012

> <i_f3d_flags>
0

> <s_epik_input>
W0NIM11OMVtDSDJdW0NIMl1bQ0gyXVtDQEhdKFtDSDJdMSlbTkhdQyg9TylbTkhdYzJbY0hdYyhDKEYpKEYpRilbY0hdW25IXWMyPU8=

> <s_epik_cmdline>
J2VwaWtfcHl0aG9uJywgJy1waCcsICc3LjAnLCAnLXRuJywgJzgnLCAnLW1hJywgJzIwMCcsICctbWV0YWxfYmluZGluZycsICctaW1hZScsICc8aW5maWxlLm1hZT4nLCAnLW9tYWUnLCAnPG91dGZpbGUubWFlPic=

> <r_lp_tautomer_probability>
1

> <r_epik_Ionization_Penalty>
3.00907

> <r_epik_Ionization_Penalty_Charging>
0.148702

> <r_epik_Ionization_Penalty_Neutral>
2.86036

> <r_epik_State_Penalty>
2.85557

> <r_epik_Charging_Adjusted_Penalty>
3.00428

> <i_epik_Tot_Q>
0

> <i_epik_Tot_abs_Q>
2

> <r_epik_Metal_State_Penalty>
0.443779

> <b_epik_Metal_Only>
1

> <s_lp_Force_Field>
OPLS_2005

> <r_lp_Energy>
32.6678

> <b_lp_Chiralities_Consistent>
1

> <s_lp_Variant>
AV-unprocessed.smi:1748-6

> <Gold.Version>
5.8.1

> <Gold.Id.Protein>
6NUR|6NUR_protein|mol2

> <Gold.PLP.Fitness>
41.8513

> <Gold.PLP.PLP>
-28.3133

> <Gold.PLP.part.hbond>
-3.0000

> <Gold.PLP.part.metal>
0.0000

> <Gold.PLP.part.buried>
0.5225

> <Gold.PLP.part.nonpolar>
-26.5186

> <Gold.PLP.part.repulsive>
0.0943

> <Gold.PLP.ligand.clash>
0.0000

> <Gold.PLP.ligand.torsion>
0.6491

> <Gold.PLP.Chemscore.Hbond>
4.9280

> <Gold.PLP.Chemscore.CHOScore>
0.0000

> <Gold.PLP.Chemscore.Metal>
0.0000

> <Gold.Chemscore.Hbonds>
donor molecule, donor type, donor heavy atom, donor atom, acceptor molecule, acceptor atom, score
      L1  H     2    39       P1  7948  2.00
      L1  H     7    33       P1  7948  0.96
      P1  H  6896  6909       L1    19  2.00

> <Gold.PLP.Chemscore.Internal.Correction>
0.0523

> <Gold.Rescore>
     Score         DG    S(hbond)    S(metal)    S(lipo)     H(rot)  DE(clash)    DE(int)     intcor
     13.99     -18.58       2.70        0.00      56.77       1.00       1.40       3.19       ----

> <Gold.Chemscore.Fitness>
13.9887

> <Gold.Chemscore.DG>
-18.5840

> <Gold.Chemscore.ZeroCoef>
-5.4800

> <Gold.Chemscore.Hbond>
2.7013

> <Gold.Chemscore.Metal>
0.0000

> <Gold.Chemscore.Lipo>
56.7663

> <Gold.Chemscore.Internal_Hbond>
0.0000

> <Gold.Chemscore.DEClash>
1.4041

> <Gold.Chemscore.DEInternal>
3.1911

> <Gold.Chemscore.Rot>
1.0000

> <Gold.Chemscore.Internal.Correction>
   9.000000E+99

> <Gold.Chemscore.Hbonds>
donor molecule, donor type, donor heavy atom, donor atom, acceptor molecule, acceptor atom, score
      L1  H     2    39       P1  7948  0.99
      L1  H     7    33       P1  7948  0.87
      P1  H  6896  6909       L1    19  0.90

> <Gold.Chemscore.Hbond.Weighted>
-9.0223

> <Gold.Chemscore.Metal.Weighted>
-0.0000

> <Gold.Chemscore.Lipo.Weighted>
-6.6417

> <Gold.Chemscore.Internal_Hbond.Weighted>
0.0000

> <Gold.Chemscore.DEClash.Weighted>
1.4041

> <Gold.Chemscore.DEInternal.Weighted>
3.1911

> <Gold.Chemscore.Rot.Weighted>
2.5600

> <Gold.Chemscore.Internal.Correction.Weighted>
   9.000000E+99

> <Gold.Protein.RotatedTorsions>
[ 6907 6896 6895 6894 ] final  -30.38 input  -60.11 | X-H torsion
[ 7974 7965 7964 7962 ] final -137.14 input  175.53 | X-H torsion
[ 8008 7997 7996 7995 ] final  -41.77 input   59.86 | X-H torsion
[ 10167 10162 10161 10158 ] final  147.18 input  -65.29 | X-H torsion
[ 10718 10713 10712 10709 ] final  131.18 input   66.30 | X-H torsion
[ 10763 10752 10751 10750 ] final  -66.65 input  -60.55 | X-H torsion
[ 11005 11000 10999 10996 ] final  147.22 input  -57.11 | X-H torsion

> <Gold.Protein.ActiveResidues>
 VAL166  LYS551  ARG553  GLY616  TRP617  ASP618  TYR619  PRO620  LYS621  CYS622 
 ASP623  PHE694  ASN695  SER759  ASP760  ASP761  ALA762  ILE779  LEU786  VAL792 
 PHE793  MET794  SER795  GLU796  ALA797  LYS798  CYS799  TRP800  GLU811  SER814 

> <Gold.Protein.RotatedAtoms>
  151.1064  135.0001  159.8472 H   0  0  0  0  0  0  0  0  0  0  0  0  # atno 6907 bound_to 6896
  152.5440  134.1889  159.8676 H   0  0  0  0  0  0  0  0  0  0  0  0  # atno 6908 bound_to 6896
  151.1935  133.4608  159.2628 H   0  0  0  0  0  0  0  0  0  0  0  0  # atno 6909 bound_to 6896
  144.8867  140.6585  143.5171 H   0  0  0  0  0  0  0  0  0  0  0  0  # atno 7974 bound_to 7965
  154.4002  140.1491  156.3246 H   0  0  0  0  0  0  0  0  0  0  0  0  # atno 8008 bound_to 7997
  155.8499  140.3458  155.5665 H   0  0  0  0  0  0  0  0  0  0  0  0  # atno 8009 bound_to 7997
  155.7996  140.0868  157.1955 H   0  0  0  0  0  0  0  0  0  0  0  0  # atno 8010 bound_to 7997
  139.4894  144.5775  151.6937 H   0  0  0  0  0  0  0  0  0  0  0  0  # atno 10167 bound_to 10162
  157.4992  131.1093  150.9451 H   0  0  0  0  0  0  0  0  0  0  0  0  # atno 10718 bound_to 10713
  154.3630  135.6112  153.5700 H   0  0  0  0  0  0  0  0  0  0  0  0  # atno 10763 bound_to 10752
  152.9793  135.5819  154.4611 H   0  0  0  0  0  0  0  0  0  0  0  0  # atno 10764 bound_to 10752
  154.4352  135.2849  155.1863 H   0  0  0  0  0  0  0  0  0  0  0  0  # atno 10765 bound_to 10752
  140.0858  134.9070  157.1572 H   0  0  0  0  0  0  0  0  0  0  0  0  # atno 11005 bound_to 11000
  145.3856  139.1627  143.4257 LP  0  0  0  0  0  0  0  0  0  0  0  0  # atno 17320 bound_to 7965
  146.3029  140.3941  142.8698 LP  0  0  0  0  0  0  0  0  0  0  0  0  # atno 17321 bound_to 7965
  140.5374  144.0634  150.6075 LP  0  0  0  0  0  0  0  0  0  0  0  0  # atno 17342 bound_to 10162
  140.3644  143.2889  152.0348 LP  0  0  0  0  0  0  0  0  0  0  0  0  # atno 17343 bound_to 10162
  157.0127  130.5643  149.5322 LP  0  0  0  0  0  0  0  0  0  0  0  0  # atno 17370 bound_to 10713
  156.0219  130.5313  150.8299 LP  0  0  0  0  0  0  0  0  0  0  0  0  # atno 17371 bound_to 10713
  140.3423  134.2690  155.7210 LP  0  0  0  0  0  0  0  0  0  0  0  0  # atno 17394 bound_to 11000
  141.2062  133.7840  157.0191 LP  0  0  0  0  0  0  0  0  0  0  0  0  # atno 17395 bound_to 11000

$$$$
