AV-unprocessed.smi:360|AV-procd|sdf|2419|dock5
  -GOLD-   2262022353D 1   1.00000     0.00000
 Structure written by MMmdl.
 37 38  0  0  0  0  0  0  0  0  1 V2000
  146.2948  138.0311  152.6390 C   0  0  0  0  0  0  0  0  0  0  0  0
  146.8331  138.8286  151.7046 C   0  0  0  0  0  0  0  0  0  0  0  0
  147.0213  140.3208  151.8632 C   0  0  0  0  0  0  0  0  0  0  0  0
  146.5174  140.8017  153.1381 N   0  0  0  0  0  0  0  0  0  0  0  0
  147.2308  141.0216  154.3093 C   0  0  0  0  0  0  0  0  0  0  0  0
  148.6614  140.7804  154.4107 C   0  0  0  0  0  0  0  0  0  0  0  0
  149.3289  140.9858  155.4930 N   0  0  0  0  0  0  0  0  0  0  0  0
  148.6780  141.4548  156.6165 N   0  0  0  0  0  0  0  0  0  0  0  0
  149.5552  141.6374  157.7791 C   0  0  0  0  0  0  0  0  0  0  0  0
  150.6509  142.6815  157.5104 C   0  0  0  0  0  0  0  0  0  0  0  0
  151.9105  142.1641  157.9174 O   0  0  0  0  0  0  0  0  0  0  0  0
  152.3061  142.3554  159.2233 C   0  0  0  0  0  0  0  0  0  0  0  0
  151.7937  143.4899  159.8858 C   0  0  0  0  0  0  0  0  0  0  0  0
  152.1456  143.7657  161.2211 C   0  0  0  0  0  0  0  0  0  0  0  0
  153.0180  142.9032  161.9105 C   0  0  0  0  0  0  0  0  0  0  0  0
  153.4511  143.2379  163.5468 Cl  0  0  0  0  0  0  0  0  0  0  0  0
  153.5368  141.7669  161.2617 C   0  0  0  0  0  0  0  0  0  0  0  0
  153.1851  141.4921  159.9255 C   0  0  0  0  0  0  0  0  0  0  0  0
  147.3398  141.7222  156.6851 C   0  0  0  0  0  0  0  0  0  0  0  0
  146.7987  142.1312  157.7131 O   0  0  0  0  0  0  0  0  0  0  0  0
  146.6122  141.4778  155.4311 C   0  0  0  0  0  0  0  0  0  0  0  0
  144.9092  141.7951  155.4224 Cl  0  0  0  0  0  0  0  0  0  0  0  0
  145.9597  138.4247  153.5877 H   0  0  0  0  0  0  0  0  0  0  0  0
  146.1828  136.9709  152.4657 H   0  0  0  0  0  0  0  0  0  0  0  0
  147.1546  138.4003  150.7662 H   0  0  0  0  0  0  0  0  0  0  0  0
  148.0847  140.5498  151.7915 H   0  0  0  0  0  0  0  0  0  0  0  0
  146.5172  140.8412  151.0482 H   0  0  0  0  0  0  0  0  0  0  0  0
  145.5209  140.9649  153.1717 H   0  0  0  0  0  0  0  0  0  0  0  0
  149.1500  140.4104  153.5098 H   0  0  0  0  0  0  0  0  0  0  0  0
  148.9537  141.9670  158.6280 H   0  0  0  0  0  0  0  0  0  0  0  0
  150.0025  140.6943  158.0973 H   0  0  0  0  0  0  0  0  0  0  0  0
  150.6635  142.9458  156.4516 H   0  0  0  0  0  0  0  0  0  0  0  0
  150.4280  143.5852  158.0794 H   0  0  0  0  0  0  0  0  0  0  0  0
  151.1226  144.1564  159.3637 H   0  0  0  0  0  0  0  0  0  0  0  0
  151.7446  144.6393  161.7137 H   0  0  0  0  0  0  0  0  0  0  0  0
  154.2075  141.1034  161.7877 H   0  0  0  0  0  0  0  0  0  0  0  0
  153.6047  140.6127  159.4615 H   0  0  0  0  0  0  0  0  0  0  0  0
  1  2  2  0  0  0  0
  1 23  1  0  0  0  0
  1 24  1  0  0  0  0
  2  3  1  0  0  0  0
  2 25  1  0  0  0  0
  3  4  1  0  0  0  0
  3 26  1  0  0  0  0
  3 27  1  0  0  0  0
  4  5  1  0  0  0  0
  4 28  1  0  0  0  0
  5 21  2  0  0  0  0
  5  6  1  0  0  0  0
  6  7  2  0  0  0  0
  6 29  1  0  0  0  0
  7  8  1  0  0  0  0
  8  9  1  0  0  0  0
  8 19  1  0  0  0  0
  9 10  1  0  0  0  0
  9 30  1  0  0  0  0
  9 31  1  0  0  0  0
 10 11  1  0  0  0  0
 10 32  1  0  0  0  0
 10 33  1  0  0  0  0
 11 12  1  0  0  0  0
 12 18  1  0  0  0  0
 12 13  2  0  0  0  0
 13 14  1  0  0  0  0
 13 34  1  0  0  0  0
 14 15  2  0  0  0  0
 14 35  1  0  0  0  0
 15 16  1  0  0  0  0
 15 17  1  0  0  0  0
 17 18  2  0  0  0  0
 17 36  1  0  0  0  0
 18 37  1  0  0  0  0
 19 20  2  0  0  0  0
 19 21  1  0  0  0  0
 21 22  1  0  0  0  0
M  END
> <s_m_source_file>
AV-unprocessed.smi

> <i_m_source_file_index>
360

> <i_lp_mmshare_version>
43012

> <i_f3d_flags>
0

> <s_epik_input>
W0NIMl09W0NIXVtDSDJdW05IXWMxW2NIXW5uKGMoPU8pYzFDbClbQ0gyXVtDSDJdT2MyW2NIXVtjSF1jKENsKVtjSF1bY0hdMg==

> <s_epik_cmdline>
J2VwaWtfcHl0aG9uJywgJy1waCcsICc3LjAnLCAnLXRuJywgJzgnLCAnLW1hJywgJzIwMCcsICctbWV0YWxfYmluZGluZycsICctaW1hZScsICc8aW5maWxlLm1hZT4nLCAnLW9tYWUnLCAnPG91dGZpbGUubWFlPic=

> <r_lp_tautomer_probability>
1

> <r_epik_Ionization_Penalty>
1.57681e-05

> <r_epik_Ionization_Penalty_Charging>
9.79356e-10

> <r_epik_Ionization_Penalty_Neutral>
1.57671e-05

> <r_epik_State_Penalty>
-0

> <r_epik_Charging_Adjusted_Penalty>
9.79356e-10

> <i_epik_Tot_Q>
0

> <i_epik_Tot_abs_Q>
0

> <r_epik_Metal_State_Penalty>
-0

> <b_epik_Metal_Only>
0

> <s_lp_Force_Field>
OPLS_2005

> <r_lp_Energy>
29.545

> <b_lp_Chiralities_Consistent>
1

> <s_lp_Variant>
AV-unprocessed.smi:360-1

> <Gold.Version>
5.8.1

> <Gold.Id.Protein>
6NUR|6NUR_protein|mol2

> <Gold.PLP.Fitness>
49.7987

> <Gold.PLP.PLP>
-45.9366

> <Gold.PLP.part.hbond>
-1.0000

> <Gold.PLP.part.metal>
0.0000

> <Gold.PLP.part.buried>
-1.0296

> <Gold.PLP.part.nonpolar>
-43.4800

> <Gold.PLP.part.repulsive>
0.2631

> <Gold.PLP.ligand.clash>
0.0000

> <Gold.PLP.ligand.torsion>
1.0500

> <Gold.PLP.Chemscore.Hbond>
0.9516

> <Gold.PLP.Chemscore.CHOScore>
1.0000

> <Gold.PLP.Chemscore.Metal>
0.0000

> <Gold.Chemscore.Hbonds>
donor molecule, donor type, donor heavy atom, donor atom, acceptor molecule, acceptor atom, score
      L1  H     4    28       P1 10175  0.96
      L1  C     6    29       P1  7957  1.00

> <Gold.PLP.Chemscore.Internal.Correction>
0.1073

> <Gold.Rescore>
     Score         DG    S(hbond)    S(metal)    S(lipo)     H(rot)  DE(clash)    DE(int)     intcor
     16.15     -18.96       0.65        0.00     134.55       1.73       1.64       1.16       ----

> <Gold.Chemscore.Fitness>
16.1515

> <Gold.Chemscore.DG>
-18.9590

> <Gold.Chemscore.ZeroCoef>
-5.4800

> <Gold.Chemscore.Hbond>
0.6520

> <Gold.Chemscore.Metal>
0.0000

> <Gold.Chemscore.Lipo>
134.5498

> <Gold.Chemscore.Internal_Hbond>
0.0000

> <Gold.Chemscore.DEClash>
1.6442

> <Gold.Chemscore.DEInternal>
1.1633

> <Gold.Chemscore.Rot>
1.7348

> <Gold.Chemscore.Internal.Correction>
   9.000000E+99

> <Gold.Chemscore.Hbonds>
donor molecule, donor type, donor heavy atom, donor atom, acceptor molecule, acceptor atom, score
      L1  H     4    28       P1 10175  0.39

> <Gold.Chemscore.Hbond.Weighted>
-2.1777

> <Gold.Chemscore.Metal.Weighted>
-0.0000

> <Gold.Chemscore.Lipo.Weighted>
-15.7423

> <Gold.Chemscore.Internal_Hbond.Weighted>
0.0000

> <Gold.Chemscore.DEClash.Weighted>
1.6442

> <Gold.Chemscore.DEInternal.Weighted>
1.1633

> <Gold.Chemscore.Rot.Weighted>
4.4410

> <Gold.Chemscore.Internal.Correction.Weighted>
   9.000000E+99

> <Gold.Protein.RotatedTorsions>
[ 6907 6896 6895 6894 ] final  142.07 input  -60.11 | X-H torsion
[ 7974 7965 7964 7962 ] final  -60.06 input  175.53 | X-H torsion
[ 8008 7997 7996 7995 ] final  121.71 input   59.86 | X-H torsion
[ 10167 10162 10161 10158 ] final   -9.65 input  -65.29 | X-H torsion
[ 10718 10713 10712 10709 ] final   75.23 input   66.30 | X-H torsion
[ 10763 10752 10751 10750 ] final  -62.66 input  -60.55 | X-H torsion
[ 11005 11000 10999 10996 ] final  144.59 input  -57.11 | X-H torsion

> <Gold.Protein.ActiveResidues>
 VAL166  LYS551  ARG553  GLY616  TRP617  ASP618  TYR619  PRO620  LYS621  CYS622 
 ASP623  PHE694  ASN695  SER759  ASP760  ASP761  ALA762  ILE779  LEU786  VAL792 
 PHE793  MET794  SER795  GLU796  ALA797  LYS798  CYS799  TRP800  GLU811  SER814 

> <Gold.Protein.RotatedAtoms>
  152.2232  133.4999  159.5173 H   0  0  0  0  0  0  0  0  0  0  0  0  # atno 6907 bound_to 6896
  150.7018  134.1315  159.4080 H   0  0  0  0  0  0  0  0  0  0  0  0  # atno 6908 bound_to 6896
  151.9236  135.0287  160.0574 H   0  0  0  0  0  0  0  0  0  0  0  0  # atno 6909 bound_to 6896
  145.8200  140.8546  143.0138 H   0  0  0  0  0  0  0  0  0  0  0  0  # atno 7974 bound_to 7965
  156.2698  140.2802  156.1352 H   0  0  0  0  0  0  0  0  0  0  0  0  # atno 8008 bound_to 7997
  155.1012  140.0389  157.2715 H   0  0  0  0  0  0  0  0  0  0  0  0  # atno 8009 bound_to 7997
  154.6814  140.2609  155.6910 H   0  0  0  0  0  0  0  0  0  0  0  0  # atno 8010 bound_to 7997
  140.7093  143.5834  150.8968 H   0  0  0  0  0  0  0  0  0  0  0  0  # atno 10167 bound_to 10162
  157.6625  130.9716  150.1324 H   0  0  0  0  0  0  0  0  0  0  0  0  # atno 10718 bound_to 10713
  154.3033  135.6230  153.5434 H   0  0  0  0  0  0  0  0  0  0  0  0  # atno 10763 bound_to 10752
  152.9838  135.5683  154.5259 H   0  0  0  0  0  0  0  0  0  0  0  0  # atno 10764 bound_to 10752
  154.4894  135.2866  155.1484 H   0  0  0  0  0  0  0  0  0  0  0  0  # atno 10765 bound_to 10752
  140.0644  134.9186  157.1240 H   0  0  0  0  0  0  0  0  0  0  0  0  # atno 11005 bound_to 11000
  144.6748  140.0519  143.7478 LP  0  0  0  0  0  0  0  0  0  0  0  0  # atno 17320 bound_to 7965
  145.9685  139.2852  143.1113 LP  0  0  0  0  0  0  0  0  0  0  0  0  # atno 17321 bound_to 7965
  139.9560  143.6217  152.3016 LP  0  0  0  0  0  0  0  0  0  0  0  0  # atno 17342 bound_to 10162
  139.6753  144.7659  151.1707 LP  0  0  0  0  0  0  0  0  0  0  0  0  # atno 17343 bound_to 10162
  156.2167  130.3671  149.8605 LP  0  0  0  0  0  0  0  0  0  0  0  0  # atno 17370 bound_to 10713
  156.6469  130.8727  151.3524 LP  0  0  0  0  0  0  0  0  0  0  0  0  # atno 17371 bound_to 10713
  140.3721  134.2379  155.7177 LP  0  0  0  0  0  0  0  0  0  0  0  0  # atno 17394 bound_to 11000
  141.1987  133.8030  157.0572 LP  0  0  0  0  0  0  0  0  0  0  0  0  # atno 17395 bound_to 11000

$$$$
