AV-unprocessed.smi:2044|AV-procd|sdf|8307|dock7
  -GOLD-   2272010573D 1   1.00000     0.00000
 Structure written by MMmdl.
 39 40  0  0  0  0  0  0  0  0  3 V2000
  146.8728  134.8469  162.3641 C   0  0  0  0  0  0  0  0  0  0  0  0
  147.1546  135.9291  161.3785 C   0  0  0  0  0  0  0  0  0  0  0  0
  148.1997  136.1618  160.5295 C   0  0  0  0  0  0  0  0  0  0  0  0
  147.8253  137.3692  159.8822 C   0  0  0  0  0  0  0  0  0  0  0  0
  148.6646  137.9538  158.8975 N   0  0  0  0  0  0  0  0  0  0  0  0
  149.9500  137.6748  158.6161 C   0  0  0  0  0  0  0  0  0  0  0  0
  150.5379  136.7655  159.2141 O   0  0  0  0  0  0  0  0  0  0  0  0
  150.4626  138.4995  157.6610 N   0  5  0  0  0  0  0  0  0  0  0  0
  151.4211  139.5825  157.9085 C   0  0  0  0  0  0  0  0  0  0  0  0
  150.8078  140.9794  157.6114 C   0  0  1  0  0  0  0  0  0  0  0  0
  149.3289  141.1312  158.0476 C   0  0  0  0  0  0  0  0  0  0  0  0
  151.7116  142.0766  158.0841 N   0  3  0  0  0  0  0  0  0  0  0  0
  151.3006  143.4342  157.6516 C   0  0  0  0  0  0  0  0  0  0  0  0
  152.4057  144.4505  157.9880 C   0  0  0  0  0  0  0  0  0  0  0  0
  152.6970  144.4080  159.3800 O   0  0  0  0  0  0  0  0  0  0  0  0
  153.1633  143.1274  159.7891 C   0  0  0  0  0  0  0  0  0  0  0  0
  152.0693  142.0814  159.5281 C   0  0  0  0  0  0  0  0  0  0  0  0
  146.6525  137.8280  160.2943 N   0  0  0  0  0  0  0  0  0  0  0  0
  146.2185  136.9096  161.2575 O   0  0  0  0  0  0  0  0  0  0  0  0
  147.1668  133.8755  161.9663 H   0  0  0  0  0  0  0  0  0  0  0  0
  145.8108  134.8038  162.6069 H   0  0  0  0  0  0  0  0  0  0  0  0
  147.4248  135.0150  163.2888 H   0  0  0  0  0  0  0  0  0  0  0  0
  149.0891  135.5640  160.3956 H   0  0  0  0  0  0  0  0  0  0  0  0
  148.2459  138.6906  158.3494 H   0  0  0  0  0  0  0  0  0  0  0  0
  151.7869  139.5752  158.9363 H   0  0  0  0  0  0  0  0  0  0  0  0
  152.3127  139.4572  157.2941 H   0  0  0  0  0  0  0  0  0  0  0  0
  150.7824  141.0369  156.5222 H   0  0  0  0  0  0  0  0  0  0  0  0
  148.6911  140.3802  157.5777 H   0  0  0  0  0  0  0  0  0  0  0  0
  148.9347  142.1021  157.7465 H   0  0  0  0  0  0  0  0  0  0  0  0
  149.1924  141.0396  159.1263 H   0  0  0  0  0  0  0  0  0  0  0  0
  151.1179  143.4456  156.5763 H   0  0  0  0  0  0  0  0  0  0  0  0
  150.3662  143.7085  158.1433 H   0  0  0  0  0  0  0  0  0  0  0  0
  153.3093  144.2450  157.4114 H   0  0  0  0  0  0  0  0  0  0  0  0
  152.0824  145.4577  157.7248 H   0  0  0  0  0  0  0  0  0  0  0  0
  154.0829  142.8707  159.2601 H   0  0  0  0  0  0  0  0  0  0  0  0
  153.4054  143.1617  160.8514 H   0  0  0  0  0  0  0  0  0  0  0  0
  151.1929  142.3113  160.1352 H   0  0  0  0  0  0  0  0  0  0  0  0
  152.4301  141.1000  159.8361 H   0  0  0  0  0  0  0  0  0  0  0  0
  152.5796  141.8959  157.5981 H   0  0  0  0  0  0  0  0  0  0  0  0
  1  2  1  0  0  0  0
  1 20  1  0  0  0  0
  1 21  1  0  0  0  0
  1 22  1  0  0  0  0
  2 19  1  0  0  0  0
  2  3  2  0  0  0  0
  3  4  1  0  0  0  0
  3 23  1  0  0  0  0
  4  5  1  0  0  0  0
  4 18  2  0  0  0  0
  5  6  1  0  0  0  0
  5 24  1  0  0  0  0
  6  7  2  0  0  0  0
  6  8  1  0  0  0  0
  8  9  1  0  0  0  0
  9 10  1  0  0  0  0
  9 25  1  0  0  0  0
  9 26  1  0  0  0  0
 10 11  1  0  0  0  0
 10 12  1  0  0  0  0
 10 27  1  0  0  0  0
 11 28  1  0  0  0  0
 11 29  1  0  0  0  0
 11 30  1  0  0  0  0
 12 17  1  0  0  0  0
 12 13  1  0  0  0  0
 12 39  1  0  0  0  0
 13 14  1  0  0  0  0
 13 31  1  0  0  0  0
 13 32  1  0  0  0  0
 14 15  1  0  0  0  0
 14 33  1  0  0  0  0
 14 34  1  0  0  0  0
 15 16  1  0  0  0  0
 16 17  1  0  0  0  0
 16 35  1  0  0  0  0
 16 36  1  0  0  0  0
 17 37  1  0  0  0  0
 17 38  1  0  0  0  0
 18 19  1  0  0  0  0
M  CHG  1   8  -1
M  CHG  1  12   1
M  END
> <s_m_source_file>
AV-unprocessed.smi

> <i_m_source_file_index>
2044

> <i_lp_mmshare_version>
43012

> <i_f3d_flags>
0

> <s_epik_input>
W0NIM11jMVtjSF1jKG5vMSlbTkhdQyg9TylbTkhdW0NIMl1bQ0BIXShbQ0gzXSlOMltDSDJdW0NIMl1PW0NIMl1bQ0gyXTI=

> <s_epik_cmdline>
J2VwaWtfcHl0aG9uJywgJy1waCcsICc3LjAnLCAnLXRuJywgJzgnLCAnLW1hJywgJzIwMCcsICctbWV0YWxfYmluZGluZycsICctaW1hZScsICc8aW5maWxlLm1hZT4nLCAnLW9tYWUnLCAnPG91dGZpbGUubWFlPic=

> <r_epik_Ionization_Penalty>
6.79272

> <r_epik_Ionization_Penalty_Charging>
6.79272

> <r_epik_Ionization_Penalty_Neutral>
5.6208e-06

> <r_epik_State_Penalty>
7.45901

> <r_epik_Charging_Adjusted_Penalty>
14.2517

> <i_epik_Tot_Q>
0

> <i_epik_Tot_abs_Q>
2

> <r_epik_Metal_State_Penalty>
3.38639

> <b_epik_Metal_Only>
1

> <s_lp_Force_Field>
OPLS_2005

> <r_lp_Energy>
15.3215

> <b_lp_Chiralities_Consistent>
1

> <s_lp_Variant>
AV-unprocessed.smi:2044-10

> <Gold.Version>
5.8.1

> <Gold.Id.Protein>
6NUR|6NUR_protein|mol2

> <Gold.PLP.Fitness>
37.7320

> <Gold.PLP.PLP>
-33.3675

> <Gold.PLP.part.hbond>
-2.0000

> <Gold.PLP.part.metal>
0.0000

> <Gold.PLP.part.buried>
-5.3778

> <Gold.PLP.part.nonpolar>
-27.1808

> <Gold.PLP.part.repulsive>
0.2591

> <Gold.PLP.ligand.clash>
0.0051

> <Gold.PLP.ligand.torsion>
0.9339

> <Gold.PLP.Chemscore.Hbond>
2.0000

> <Gold.PLP.Chemscore.CHOScore>
0.0000

> <Gold.PLP.Chemscore.Metal>
0.0000

> <Gold.Chemscore.Hbonds>
donor molecule, donor type, donor heavy atom, donor atom, acceptor molecule, acceptor atom, score
      P1  H  6896  6908       L1     7  1.00
      P1  H  6934  6947       L1    18  0.62

> <Gold.PLP.Chemscore.Internal.Correction>
0.2374

> <Gold.Rescore>
     Score         DG    S(hbond)    S(metal)    S(lipo)     H(rot)  DE(clash)    DE(int)     intcor
     15.00     -17.45       1.89        0.00      83.13       1.59       0.07       2.38       ----

> <Gold.Chemscore.Fitness>
14.9970

> <Gold.Chemscore.DG>
-17.4455

> <Gold.Chemscore.ZeroCoef>
-5.4800

> <Gold.Chemscore.Hbond>
1.8916

> <Gold.Chemscore.Metal>
0.0000

> <Gold.Chemscore.Lipo>
83.1251

> <Gold.Chemscore.Internal_Hbond>
0.0000

> <Gold.Chemscore.DEClash>
0.0717

> <Gold.Chemscore.DEInternal>
2.3769

> <Gold.Chemscore.Rot>
1.5930

> <Gold.Chemscore.Internal.Correction>
   9.000000E+99

> <Gold.Chemscore.Hbonds>
donor molecule, donor type, donor heavy atom, donor atom, acceptor molecule, acceptor atom, score
      P1  H  6896  6908       L1     7  1.00
      P1  H  6934  6947       L1    18  0.07

> <Gold.Chemscore.Hbond.Weighted>
-6.3180

> <Gold.Chemscore.Metal.Weighted>
-0.0000

> <Gold.Chemscore.Lipo.Weighted>
-9.7256

> <Gold.Chemscore.Internal_Hbond.Weighted>
0.0000

> <Gold.Chemscore.DEClash.Weighted>
0.0717

> <Gold.Chemscore.DEInternal.Weighted>
2.3769

> <Gold.Chemscore.Rot.Weighted>
4.0781

> <Gold.Chemscore.Internal.Correction.Weighted>
   9.000000E+99

> <Gold.Protein.RotatedTorsions>
[ 6907 6896 6895 6894 ] final -153.43 input  -60.11 | X-H torsion
[ 7974 7965 7964 7962 ] final  -45.45 input  175.53 | X-H torsion
[ 8008 7997 7996 7995 ] final  -40.72 input   59.86 | X-H torsion
[ 10167 10162 10161 10158 ] final   20.57 input  -65.29 | X-H torsion
[ 10718 10713 10712 10709 ] final  151.70 input   66.30 | X-H torsion
[ 10763 10752 10751 10750 ] final   55.74 input  -60.55 | X-H torsion
[ 11005 11000 10999 10996 ] final  -53.63 input  -57.11 | X-H torsion

> <Gold.Protein.ActiveResidues>
 VAL166  LYS551  ARG553  GLY616  TRP617  ASP618  TYR619  PRO620  LYS621  CYS622 
 ASP623  PHE694  ASN695  SER759  ASP760  ASP761  ALA762  ILE779  LEU786  VAL792 
 PHE793  MET794  SER795  GLU796  ALA797  LYS798  CYS799  TRP800  GLU811  SER814 

> <Gold.Protein.RotatedAtoms>
  151.2425  133.4392  159.2607 H   0  0  0  0  0  0  0  0  0  0  0  0  # atno 6907 bound_to 6896
  151.0692  134.9788  159.8310 H   0  0  0  0  0  0  0  0  0  0  0  0  # atno 6908 bound_to 6896
  152.5410  134.2371  159.8900 H   0  0  0  0  0  0  0  0  0  0  0  0  # atno 6909 bound_to 6896
  145.9819  140.7274  142.9359 H   0  0  0  0  0  0  0  0  0  0  0  0  # atno 7974 bound_to 7965
  154.4009  140.1518  156.3073 H   0  0  0  0  0  0  0  0  0  0  0  0  # atno 8008 bound_to 7997
  155.8647  140.3452  155.5758 H   0  0  0  0  0  0  0  0  0  0  0  0  # atno 8009 bound_to 7997
  155.7841  140.0847  157.2034 H   0  0  0  0  0  0  0  0  0  0  0  0  # atno 8010 bound_to 7997
  140.5493  143.9537  150.6568 H   0  0  0  0  0  0  0  0  0  0  0  0  # atno 10167 bound_to 10162
  157.2674  131.0810  151.1624 H   0  0  0  0  0  0  0  0  0  0  0  0  # atno 10718 bound_to 10713
  152.9821  135.5700  154.5116 H   0  0  0  0  0  0  0  0  0  0  0  0  # atno 10763 bound_to 10752
  154.4619  135.2782  155.1708 H   0  0  0  0  0  0  0  0  0  0  0  0  # atno 10764 bound_to 10752
  154.3292  135.6253  153.5597 H   0  0  0  0  0  0  0  0  0  0  0  0  # atno 10765 bound_to 10752
  141.0986  133.6621  156.4201 H   0  0  0  0  0  0  0  0  0  0  0  0  # atno 11005 bound_to 11000
  144.6864  140.2922  143.7276 LP  0  0  0  0  0  0  0  0  0  0  0  0  # atno 17320 bound_to 7965
  145.7757  139.1873  143.2186 LP  0  0  0  0  0  0  0  0  0  0  0  0  # atno 17321 bound_to 7965
  140.2959  143.3293  152.1018 LP  0  0  0  0  0  0  0  0  0  0  0  0  # atno 17342 bound_to 10162
  139.5020  144.6727  151.6204 LP  0  0  0  0  0  0  0  0  0  0  0  0  # atno 17343 bound_to 10162
  157.3109  130.6889  149.6215 LP  0  0  0  0  0  0  0  0  0  0  0  0  # atno 17370 bound_to 10713
  155.9663  130.4364  150.5131 LP  0  0  0  0  0  0  0  0  0  0  0  0  # atno 17371 bound_to 10713
  140.5079  134.6423  157.5273 LP  0  0  0  0  0  0  0  0  0  0  0  0  # atno 17394 bound_to 11000
  139.9830  134.7107  155.9825 LP  0  0  0  0  0  0  0  0  0  0  0  0  # atno 17395 bound_to 11000

$$$$
