AV-unprocessed.smi:1626|AV-procd|sdf|6509|dock2
  -GOLD-   22720 7173D 1   1.00000     0.00000
 Structure written by MMmdl.
 48 50  0  0  0  0  0  0  0  0  2 V2000
  153.0379  141.3677  159.1455 C   0  0  0  0  0  0  0  0  0  0  0  0
  152.0299  141.2914  158.0124 C   0  0  0  0  0  0  0  0  0  0  0  0
  152.1669  140.2769  157.0383 C   0  0  0  0  0  0  0  0  0  0  0  0
  151.2494  140.1698  155.9706 C   0  0  0  0  0  0  0  0  0  0  0  0
  151.1915  139.2683  154.9215 N   0  0  0  0  0  0  0  0  0  0  0  0
  150.1116  139.6860  154.2678 C   0  0  0  0  0  0  0  0  0  0  0  0
  149.4664  140.7588  154.7657 N   0  0  0  0  0  0  0  0  0  0  0  0
  148.2770  141.3953  154.2289 C   0  0  0  0  0  0  0  0  0  0  0  0
  147.0390  140.4798  154.2917 C   0  0  1  0  0  0  0  0  0  0  0  0
  145.8682  141.2736  154.2504 O   0  0  0  0  0  0  0  0  0  0  0  0
  147.0043  139.4887  153.1116 C   0  0  0  0  0  0  0  0  0  0  0  0
  145.8215  138.5904  153.1546 N   0  3  2  0  0  0  0  0  0  0  0  0
  145.4697  138.1437  154.5288 C   0  0  0  0  0  0  0  0  0  0  0  0
  144.1574  137.3377  154.5350 C   0  0  0  0  0  0  0  0  0  0  0  0
  144.2071  136.1490  153.5606 C   0  0  2  0  0  0  0  0  0  0  0  0
  145.0917  135.1581  154.0441 O   0  0  0  0  0  0  0  0  0  0  0  0
  144.6533  136.6185  152.1661 C   0  0  0  0  0  0  0  0  0  0  0  0
  145.9536  137.4397  152.2246 C   0  0  0  0  0  0  0  0  0  0  0  0
  150.1838  141.1145  155.9023 C   0  0  0  0  0  0  0  0  0  0  0  0
  150.0374  142.1293  156.8642 C   0  0  0  0  0  0  0  0  0  0  0  0
  150.9624  142.2210  157.9253 C   0  0  0  0  0  0  0  0  0  0  0  0
  150.7957  143.3189  158.9611 C   0  0  0  0  0  0  0  0  0  0  0  0
  153.7829  140.5750  159.0704 H   0  0  0  0  0  0  0  0  0  0  0  0
  152.5382  141.2659  160.1092 H   0  0  0  0  0  0  0  0  0  0  0  0
  153.5628  142.3230  159.1259 H   0  0  0  0  0  0  0  0  0  0  0  0
  152.9801  139.5688  157.1042 H   0  0  0  0  0  0  0  0  0  0  0  0
  149.7725  139.1864  153.3719 H   0  0  0  0  0  0  0  0  0  0  0  0
  148.0984  142.3206  154.7789 H   0  0  0  0  0  0  0  0  0  0  0  0
  148.4822  141.6816  153.1965 H   0  0  0  0  0  0  0  0  0  0  0  0
  147.0522  139.9432  155.2399 H   0  0  0  0  0  0  0  0  0  0  0  0
  145.3320  140.9801  153.5288 H   0  0  0  0  0  0  0  0  0  0  0  0
  146.9975  140.0630  152.1835 H   0  0  0  0  0  0  0  0  0  0  0  0
  147.9139  138.8866  153.0874 H   0  0  0  0  0  0  0  0  0  0  0  0
  146.2835  137.5418  154.9359 H   0  0  0  0  0  0  0  0  0  0  0  0
  145.3564  139.0018  155.1900 H   0  0  0  0  0  0  0  0  0  0  0  0
  143.9330  136.9912  155.5447 H   0  0  0  0  0  0  0  0  0  0  0  0
  143.3359  137.9971  154.2515 H   0  0  0  0  0  0  0  0  0  0  0  0
  143.2187  135.6934  153.4901 H   0  0  0  0  0  0  0  0  0  0  0  0
  144.6728  134.3142  153.9652 H   0  0  0  0  0  0  0  0  0  0  0  0
  144.7772  135.7638  151.4999 H   0  0  0  0  0  0  0  0  0  0  0  0
  143.8659  137.2328  151.7272 H   0  0  0  0  0  0  0  0  0  0  0  0
  146.1882  137.8000  151.2222 H   0  0  0  0  0  0  0  0  0  0  0  0
  146.7885  136.8103  152.5371 H   0  0  0  0  0  0  0  0  0  0  0  0
  149.2196  142.8302  156.7867 H   0  0  0  0  0  0  0  0  0  0  0  0
  149.9324  143.9474  158.7407 H   0  0  0  0  0  0  0  0  0  0  0  0
  151.6779  143.9587  158.9848 H   0  0  0  0  0  0  0  0  0  0  0  0
  150.6520  142.8895  159.9530 H   0  0  0  0  0  0  0  0  0  0  0  0
  145.0452  139.1386  152.8117 H   0  0  0  0  0  0  0  0  0  0  0  0
  1  2  1  0  0  0  0
  1 23  1  0  0  0  0
  1 24  1  0  0  0  0
  1 25  1  0  0  0  0
  2 21  1  0  0  0  0
  2  3  2  0  0  0  0
  3  4  1  0  0  0  0
  3 26  1  0  0  0  0
  4 19  2  0  0  0  0
  4  5  1  0  0  0  0
  5  6  2  0  0  0  0
  6  7  1  0  0  0  0
  6 27  1  0  0  0  0
  7  8  1  0  0  0  0
  7 19  1  0  0  0  0
  8  9  1  0  0  0  0
  8 28  1  0  0  0  0
  8 29  1  0  0  0  0
  9 10  1  0  0  0  0
  9 11  1  0  0  0  0
  9 30  1  0  0  0  0
 10 31  1  0  0  0  0
 11 12  1  0  0  0  0
 11 32  1  0  0  0  0
 11 33  1  0  0  0  0
 12 18  1  0  0  0  0
 12 13  1  0  0  0  0
 12 48  1  0  0  0  0
 13 14  1  0  0  0  0
 13 34  1  0  0  0  0
 13 35  1  0  0  0  0
 14 15  1  0  0  0  0
 14 36  1  0  0  0  0
 14 37  1  0  0  0  0
 15 16  1  0  0  0  0
 15 17  1  0  0  0  0
 15 38  1  0  0  0  0
 16 39  1  0  0  0  0
 17 18  1  0  0  0  0
 17 40  1  0  0  0  0
 17 41  1  0  0  0  0
 18 42  1  0  0  0  0
 18 43  1  0  0  0  0
 19 20  1  0  0  0  0
 20 21  2  0  0  0  0
 20 44  1  0  0  0  0
 21 22  1  0  0  0  0
 22 45  1  0  0  0  0
 22 46  1  0  0  0  0
 22 47  1  0  0  0  0
M  CHG  1  12   1
M  END
> <s_m_source_file>
AV-unprocessed.smi

> <i_m_source_file_index>
1626

> <i_lp_mmshare_version>
43012

> <i_f3d_flags>
0

> <s_epik_input>
W0NIM11jKFtjSF0xKWMoW0NIM10pW2NIXWMoYzEyKW4oW2NIXW4yKVtDSDJdW0NASF0oW09IXSlbQ0gyXU4zW0NIMl1bQ0gyXVtDSF0oW09IXSlbQ0gyXVtDSDJdMw==

> <s_epik_cmdline>
J2VwaWtfcHl0aG9uJywgJy1waCcsICc3LjAnLCAnLXRuJywgJzgnLCAnLW1hJywgJzIwMCcsICctbWV0YWxfYmluZGluZycsICctaW1hZScsICc8aW5maWxlLm1hZT4nLCAnLW9tYWUnLCAnPG91dGZpbGUubWFlPic=

> <r_epik_Ionization_Penalty>
0.106584

> <r_epik_Ionization_Penalty_Charging>
0.0185694

> <r_epik_Ionization_Penalty_Neutral>
0.0880147

> <r_epik_State_Penalty>
0.0908428

> <r_epik_Charging_Adjusted_Penalty>
0.109412

> <i_epik_Tot_Q>
1

> <i_epik_Tot_abs_Q>
1

> <r_epik_Metal_State_Penalty>
0.0153739

> <b_epik_Metal_Only>
0

> <s_lp_Force_Field>
OPLS_2005

> <r_lp_Energy>
22.63

> <b_lp_Chiralities_Consistent>
1

> <s_lp_Variant>
AV-unprocessed.smi:1626-4

> <Gold.Version>
5.8.1

> <Gold.Id.Protein>
6NUR|6NUR_protein|mol2

> <Gold.PLP.Fitness>
46.5136

> <Gold.PLP.PLP>
-35.5959

> <Gold.PLP.part.hbond>
-2.0000

> <Gold.PLP.part.metal>
0.0000

> <Gold.PLP.part.buried>
-0.5032

> <Gold.PLP.part.nonpolar>
-32.7966

> <Gold.PLP.part.repulsive>
0.0476

> <Gold.PLP.ligand.clash>
0.0000

> <Gold.PLP.ligand.torsion>
0.4053

> <Gold.PLP.Chemscore.Hbond>
3.0000

> <Gold.PLP.Chemscore.CHOScore>
0.8907

> <Gold.PLP.Chemscore.Metal>
0.0000

> <Gold.Chemscore.Hbonds>
donor molecule, donor type, donor heavy atom, donor atom, acceptor molecule, acceptor atom, score
      L1  H    10    31       P1 10175  1.00
      L1  H    12    48       P1 10175  2.00
      L1  C     6    27       P1  7957  0.98

> <Gold.PLP.Chemscore.Internal.Correction>
0.0563

> <Gold.Rescore>
     Score         DG    S(hbond)    S(metal)    S(lipo)     H(rot)  DE(clash)    DE(int)     intcor
     14.71     -15.37       1.63        0.00      96.49       2.67       0.35       0.31       ----

> <Gold.Chemscore.Fitness>
14.7068

> <Gold.Chemscore.DG>
-15.3699

> <Gold.Chemscore.ZeroCoef>
-5.4800

> <Gold.Chemscore.Hbond>
1.6284

> <Gold.Chemscore.Metal>
0.0000

> <Gold.Chemscore.Lipo>
96.4910

> <Gold.Chemscore.Internal_Hbond>
0.0000

> <Gold.Chemscore.DEClash>
0.3542

> <Gold.Chemscore.DEInternal>
0.3089

> <Gold.Chemscore.Rot>
2.6712

> <Gold.Chemscore.Internal.Correction>
   9.000000E+99

> <Gold.Chemscore.Hbonds>
donor molecule, donor type, donor heavy atom, donor atom, acceptor molecule, acceptor atom, score
      L1  H    10    31       P1 10175  0.66
      L1  H    12    48       P1 10175  0.99

> <Gold.Chemscore.Hbond.Weighted>
-5.4388

> <Gold.Chemscore.Metal.Weighted>
-0.0000

> <Gold.Chemscore.Lipo.Weighted>
-11.2894

> <Gold.Chemscore.Internal_Hbond.Weighted>
0.0000

> <Gold.Chemscore.DEClash.Weighted>
0.3542

> <Gold.Chemscore.DEInternal.Weighted>
0.3089

> <Gold.Chemscore.Rot.Weighted>
6.8383

> <Gold.Chemscore.Internal.Correction.Weighted>
   9.000000E+99

> <Gold.Protein.RotatedTorsions>
[ 6907 6896 6895 6894 ] final  -93.39 input  -60.11 | X-H torsion
[ 7974 7965 7964 7962 ] final  172.87 input  175.53 | X-H torsion
[ 8008 7997 7996 7995 ] final -169.97 input   59.86 | X-H torsion
[ 10167 10162 10161 10158 ] final  -21.64 input  -65.29 | X-H torsion
[ 10718 10713 10712 10709 ] final  159.13 input   66.30 | X-H torsion
[ 10763 10752 10751 10750 ] final   68.92 input  -60.55 | X-H torsion
[ 11005 11000 10999 10996 ] final -170.02 input  -57.11 | X-H torsion

> <Gold.Protein.ActiveResidues>
 VAL166  LYS551  ARG553  GLY616  TRP617  ASP618  TYR619  PRO620  LYS621  CYS622 
 ASP623  PHE694  ASN695  SER759  ASP760  ASP761  ALA762  ILE779  LEU786  VAL792 
 PHE793  MET794  SER795  GLU796  ALA797  LYS798  CYS799  TRP800  GLU811  SER814 

> <Gold.Protein.RotatedAtoms>
  150.6922  134.1975  159.4308 H   0  0  0  0  0  0  0  0  0  0  0  0  # atno 6907 bound_to 6896
  151.9943  134.9960  160.0572 H   0  0  0  0  0  0  0  0  0  0  0  0  # atno 6908 bound_to 6896
  152.1638  133.4564  159.4911 H   0  0  0  0  0  0  0  0  0  0  0  0  # atno 6909 bound_to 6896
  144.7257  139.9562  143.6433 H   0  0  0  0  0  0  0  0  0  0  0  0  # atno 7974 bound_to 7965
  155.9121  140.1059  157.1271 H   0  0  0  0  0  0  0  0  0  0  0  0  # atno 8008 bound_to 7997
  154.4041  140.1272  156.4636 H   0  0  0  0  0  0  0  0  0  0  0  0  # atno 8009 bound_to 7997
  155.7297  140.3468  155.5056 H   0  0  0  0  0  0  0  0  0  0  0  0  # atno 8010 bound_to 7997
  140.7283  143.4609  151.0381 H   0  0  0  0  0  0  0  0  0  0  0  0  # atno 10167 bound_to 10162
  157.1685  131.0604  151.2195 H   0  0  0  0  0  0  0  0  0  0  0  0  # atno 10718 bound_to 10713
  153.0260  135.5229  154.7209 H   0  0  0  0  0  0  0  0  0  0  0  0  # atno 10763 bound_to 10752
  154.6265  135.2895  155.0269 H   0  0  0  0  0  0  0  0  0  0  0  0  # atno 10764 bound_to 10752
  154.1236  135.6604  153.4960 H   0  0  0  0  0  0  0  0  0  0  0  0  # atno 10765 bound_to 10752
  140.5242  134.5680  157.5056 H   0  0  0  0  0  0  0  0  0  0  0  0  # atno 11005 bound_to 11000
  146.0673  139.3663  143.0545 LP  0  0  0  0  0  0  0  0  0  0  0  0  # atno 17320 bound_to 7965
  145.8015  140.9769  143.0996 LP  0  0  0  0  0  0  0  0  0  0  0  0  # atno 17321 bound_to 7965
  139.8293  143.7713  152.3179 LP  0  0  0  0  0  0  0  0  0  0  0  0  # atno 17342 bound_to 10162
  139.7823  144.7440  151.0071 LP  0  0  0  0  0  0  0  0  0  0  0  0  # atno 17343 bound_to 10162
  157.4066  130.7362  149.6807 LP  0  0  0  0  0  0  0  0  0  0  0  0  # atno 17370 bound_to 10713
  155.9742  130.4106  150.3941 LP  0  0  0  0  0  0  0  0  0  0  0  0  # atno 17371 bound_to 10713
  139.9589  134.7486  156.0280 LP  0  0  0  0  0  0  0  0  0  0  0  0  # atno 17394 bound_to 11000
  141.1317  133.6585  156.3484 LP  0  0  0  0  0  0  0  0  0  0  0  0  # atno 17395 bound_to 11000

$$$$
