AV-unprocessed.smi:113|AV-procd|sdf|1103|dock9
  -GOLD-   2262018213D 1   1.00000     0.00000
 Structure written by MMmdl.
 53 56  0  0  0  0  0  0  0  0  2 V2000
  148.6630  141.5382  155.0646 C   0  0  0  0  0  0  0  0  0  0  0  0
  149.8001  141.3732  156.0505 C   0  0  0  0  0  0  0  0  0  0  0  0
  150.3248  140.1110  156.3899 C   0  0  0  0  0  0  0  0  0  0  0  0
  151.3899  140.0144  157.3196 C   0  0  0  0  0  0  0  0  0  0  0  0
  151.9777  138.6546  157.7119 C   0  0  0  0  0  0  0  0  0  0  0  0
  151.0557  137.5288  157.7677 N   0  0  0  0  0  0  0  0  0  0  0  0
  150.2223  137.4154  158.9069 C   0  0  0  0  0  0  0  0  0  0  0  0
  150.2688  138.2390  159.8231 O   0  0  0  0  0  0  0  0  0  0  0  0
  149.3018  136.2762  158.8934 C   0  0  0  0  0  0  0  0  0  0  0  0
  148.3688  136.0943  160.0803 C   0  0  0  0  0  0  0  0  0  0  0  0
  149.2970  135.4279  157.8370 C   0  0  0  0  0  0  0  0  0  0  0  0
  150.1284  135.5571  156.7382 N   0  0  0  0  0  0  0  0  0  0  0  0
  149.9999  134.5835  155.5865 C   0  0  2  0  0  0  0  0  0  0  0  0
  148.5888  134.5364  154.9761 C   0  0  0  0  0  0  0  0  0  0  0  0
  148.1801  133.0822  155.1623 C   0  0  1  0  0  0  0  0  0  0  0  0
  147.4676  132.6151  154.0351 O   0  0  0  0  0  0  0  0  0  0  0  0
  149.5204  132.3605  155.3420 C   0  0  2  0  0  0  0  0  0  0  0  0
  149.4454  131.0567  156.1513 C   0  0  0  0  0  0  0  0  0  0  0  0
  148.7174  130.0750  155.4445 O   0  0  0  0  0  0  0  0  0  0  0  0
  150.3084  133.3066  156.0510 O   0  0  0  0  0  0  0  0  0  0  0  0
  151.0190  136.6502  156.6618 C   0  0  0  0  0  0  0  0  0  0  0  0
  151.7187  136.8373  155.6643 O   0  0  0  0  0  0  0  0  0  0  0  0
  151.9039  141.2148  157.8829 C   0  0  0  0  0  0  0  0  0  0  0  0
  152.9697  141.2152  158.8145 C   0  0  0  0  0  0  0  0  0  0  0  0
  153.4499  142.4259  159.3519 C   0  0  0  0  0  0  0  0  0  0  0  0
  152.8742  143.6511  158.9674 C   0  0  0  0  0  0  0  0  0  0  0  0
  151.8145  143.6693  158.0419 C   0  0  0  0  0  0  0  0  0  0  0  0
  151.3331  142.4596  157.5026 C   0  0  0  0  0  0  0  0  0  0  0  0
  150.3179  142.4836  156.6134 N   0  3  0  0  0  0  0  0  0  0  0  0
  148.2779  140.5703  154.7425 H   0  0  0  0  0  0  0  0  0  0  0  0
  149.0028  142.0809  154.1821 H   0  0  0  0  0  0  0  0  0  0  0  0
  147.8434  142.0961  155.5184 H   0  0  0  0  0  0  0  0  0  0  0  0
  149.9017  139.2298  155.9311 H   0  0  0  0  0  0  0  0  0  0  0  0
  152.7847  138.3841  157.0292 H   0  0  0  0  0  0  0  0  0  0  0  0
  152.4624  138.7207  158.6872 H   0  0  0  0  0  0  0  0  0  0  0  0
  147.7434  135.2079  159.9732 H   0  0  0  0  0  0  0  0  0  0  0  0
  147.7099  136.9573  160.1827 H   0  0  0  0  0  0  0  0  0  0  0  0
  148.9411  135.9883  161.0027 H   0  0  0  0  0  0  0  0  0  0  0  0
  148.6005  134.6017  157.8577 H   0  0  0  0  0  0  0  0  0  0  0  0
  150.7451  134.8816  154.8483 H   0  0  0  0  0  0  0  0  0  0  0  0
  147.9020  135.2364  155.4528 H   0  0  0  0  0  0  0  0  0  0  0  0
  148.6699  134.8031  153.9213 H   0  0  0  0  0  0  0  0  0  0  0  0
  147.5644  132.9780  156.0559 H   0  0  0  0  0  0  0  0  0  0  0  0
  146.7599  132.0648  154.3362 H   0  0  0  0  0  0  0  0  0  0  0  0
  149.9980  132.1895  154.3751 H   0  0  0  0  0  0  0  0  0  0  0  0
  150.4491  130.6722  156.3334 H   0  0  0  0  0  0  0  0  0  0  0  0
  148.9841  131.2263  157.1248 H   0  0  0  0  0  0  0  0  0  0  0  0
  148.3155  129.4907  156.0696 H   0  0  0  0  0  0  0  0  0  0  0  0
  153.4372  140.2958  159.1329 H   0  0  0  0  0  0  0  0  0  0  0  0
  154.2635  142.4139  160.0626 H   0  0  0  0  0  0  0  0  0  0  0  0
  153.2466  144.5763  159.3825 H   0  0  0  0  0  0  0  0  0  0  0  0
  151.3764  144.6131  157.7501 H   0  0  0  0  0  0  0  0  0  0  0  0
  149.9228  143.3873  156.3535 H   0  0  0  0  0  0  0  0  0  0  0  0
  1  2  1  0  0  0  0
  1 30  1  0  0  0  0
  1 31  1  0  0  0  0
  1 32  1  0  0  0  0
  2 29  1  0  0  0  0
  2  3  2  0  0  0  0
  3  4  1  0  0  0  0
  3 33  1  0  0  0  0
  4  5  1  0  0  0  0
  4 23  2  0  0  0  0
  5  6  1  0  0  0  0
  5 34  1  0  0  0  0
  5 35  1  0  0  0  0
  6 21  1  0  0  0  0
  6  7  1  0  0  0  0
  7  8  2  0  0  0  0
  7  9  1  0  0  0  0
  9 10  1  0  0  0  0
  9 11  2  0  0  0  0
 10 36  1  0  0  0  0
 10 37  1  0  0  0  0
 10 38  1  0  0  0  0
 11 12  1  0  0  0  0
 11 39  1  0  0  0  0
 12 13  1  0  0  0  0
 12 21  1  0  0  0  0
 13 20  1  0  0  0  0
 13 14  1  0  0  0  0
 13 40  1  0  0  0  0
 14 15  1  0  0  0  0
 14 41  1  0  0  0  0
 14 42  1  0  0  0  0
 15 16  1  0  0  0  0
 15 17  1  0  0  0  0
 15 43  1  0  0  0  0
 16 44  1  0  0  0  0
 17 18  1  0  0  0  0
 17 20  1  0  0  0  0
 17 45  1  0  0  0  0
 18 19  1  0  0  0  0
 18 46  1  0  0  0  0
 18 47  1  0  0  0  0
 19 48  1  0  0  0  0
 21 22  2  0  0  0  0
 23 28  1  0  0  0  0
 23 24  1  0  0  0  0
 24 25  2  0  0  0  0
 24 49  1  0  0  0  0
 25 26  1  0  0  0  0
 25 50  1  0  0  0  0
 26 27  2  0  0  0  0
 26 51  1  0  0  0  0
 27 28  1  0  0  0  0
 27 52  1  0  0  0  0
 28 29  2  0  0  0  0
 29 53  1  0  0  0  0
M  CHG  1  29   1
M  END
> <s_m_source_file>
AV-unprocessed.smi

> <i_m_source_file_index>
113

> <i_lp_mmshare_version>
43012

> <i_f3d_flags>
0

> <s_epik_input>
W2NIXTFbY0hdW2NIXVtjSF1jKGMxMiluYyhbQ0gzXSlbY0hdYzJbQ0gyXW4zYyg9TyljKFtDSDNdKVtjSF1uKGMzPU8pW0NAQEhdNFtDSDJdW0NAQEhdKFtPSF0pW0NASF0oTzQpW0NIMl1bT0hd

> <s_epik_cmdline>
J2VwaWtfcHl0aG9uJywgJy1waCcsICc3LjAnLCAnLXRuJywgJzgnLCAnLW1hJywgJzIwMCcsICctbWV0YWxfYmluZGluZycsICctaW1hZScsICc8aW5maWxlLm1hZT4nLCAnLW9tYWUnLCAnPG91dGZpbGUubWFlPic=

> <r_lp_tautomer_probability>
1

> <r_epik_Ionization_Penalty>
0.705471

> <r_epik_Ionization_Penalty_Charging>
0.70547

> <r_epik_Ionization_Penalty_Neutral>
1.19947e-07

> <r_epik_State_Penalty>
0.728574

> <r_epik_Charging_Adjusted_Penalty>
1.43404

> <i_epik_Tot_Q>
1

> <i_epik_Tot_abs_Q>
1

> <r_epik_Metal_State_Penalty>
4.61665

> <b_epik_Metal_Only>
0

> <s_epik_Chemistry_Notes>
This compound contains an acetal/aminal-like group ( X-CH(R)-Y where X, Y are N, S, or O) that may be acid/base labile, releasing an aldehyde.

> <s_lp_Force_Field>
OPLS_2005

> <r_lp_Energy>
37.5737

> <b_lp_Chiralities_Consistent>
1

> <s_lp_Variant>
AV-unprocessed.smi:113-13

> <Gold.Version>
5.8.1

> <Gold.Id.Protein>
6NUR|6NUR_protein|mol2

> <Gold.PLP.Fitness>
56.0885

> <Gold.PLP.PLP>
-48.3938

> <Gold.PLP.part.hbond>
-3.0000

> <Gold.PLP.part.metal>
0.0000

> <Gold.PLP.part.buried>
-4.5769

> <Gold.PLP.part.nonpolar>
-39.7559

> <Gold.PLP.part.repulsive>
0.1292

> <Gold.PLP.ligand.clash>
0.0000

> <Gold.PLP.ligand.torsion>
0.6557

> <Gold.PLP.Chemscore.Hbond>
2.9920

> <Gold.PLP.Chemscore.CHOScore>
0.0000

> <Gold.PLP.Chemscore.Metal>
0.0000

> <Gold.Chemscore.Hbonds>
donor molecule, donor type, donor heavy atom, donor atom, acceptor molecule, acceptor atom, score
      L1  H    29    53       P1  8028  2.00
      P1  H 10752 10763       L1    22  1.00

> <Gold.PLP.Chemscore.Internal.Correction>
0.0301

> <Gold.Rescore>
     Score         DG    S(hbond)    S(metal)    S(lipo)     H(rot)  DE(clash)    DE(int)     intcor
     17.69     -18.28       1.96        0.00     119.40       3.01       0.04       0.55       ----

> <Gold.Chemscore.Fitness>
17.6897

> <Gold.Chemscore.DG>
-18.2814

> <Gold.Chemscore.ZeroCoef>
-5.4800

> <Gold.Chemscore.Hbond>
1.9588

> <Gold.Chemscore.Metal>
0.0000

> <Gold.Chemscore.Lipo>
119.3994

> <Gold.Chemscore.Internal_Hbond>
0.0000

> <Gold.Chemscore.DEClash>
0.0382

> <Gold.Chemscore.DEInternal>
0.5535

> <Gold.Chemscore.Rot>
3.0120

> <Gold.Chemscore.Internal.Correction>
   9.000000E+99

> <Gold.Chemscore.Hbonds>
donor molecule, donor type, donor heavy atom, donor atom, acceptor molecule, acceptor atom, score
      L1  H    29    53       P1  8028  1.00
      P1  H 10752 10763       L1    22  0.95

> <Gold.Chemscore.Hbond.Weighted>
-6.5425

> <Gold.Chemscore.Metal.Weighted>
-0.0000

> <Gold.Chemscore.Lipo.Weighted>
-13.9697

> <Gold.Chemscore.Internal_Hbond.Weighted>
0.0000

> <Gold.Chemscore.DEClash.Weighted>
0.0382

> <Gold.Chemscore.DEInternal.Weighted>
0.5535

> <Gold.Chemscore.Rot.Weighted>
7.7108

> <Gold.Chemscore.Internal.Correction.Weighted>
   9.000000E+99

> <Gold.Protein.RotatedTorsions>
[ 6907 6896 6895 6894 ] final   -5.06 input  -60.11 | X-H torsion
[ 7974 7965 7964 7962 ] final   87.10 input  175.53 | X-H torsion
[ 8008 7997 7996 7995 ] final  -88.97 input   59.86 | X-H torsion
[ 10167 10162 10161 10158 ] final -145.97 input  -65.29 | X-H torsion
[ 10718 10713 10712 10709 ] final -132.36 input   66.30 | X-H torsion
[ 10763 10752 10751 10750 ] final   73.74 input  -60.55 | X-H torsion
[ 11005 11000 10999 10996 ] final -178.50 input  -57.11 | X-H torsion

> <Gold.Protein.ActiveResidues>
 VAL166  LYS551  ARG553  GLY616  TRP617  ASP618  TYR619  PRO620  LYS621  CYS622 
 ASP623  PHE694  ASN695  SER759  ASP760  ASP761  ALA762  ILE779  LEU786  VAL792 
 PHE793  MET794  SER795  GLU796  ALA797  LYS798  CYS799  TRP800  GLU811  SER814 

> <Gold.Protein.RotatedAtoms>
  151.4876  135.1056  159.9794 H   0  0  0  0  0  0  0  0  0  0  0  0  # atno 6907 bound_to 6896
  152.4754  133.8122  159.7020 H   0  0  0  0  0  0  0  0  0  0  0  0  # atno 6908 bound_to 6896
  150.8789  133.7338  159.2964 H   0  0  0  0  0  0  0  0  0  0  0  0  # atno 6909 bound_to 6896
  145.5634  139.2306  143.2446 H   0  0  0  0  0  0  0  0  0  0  0  0  # atno 7974 bound_to 7965
  154.6811  140.0547  157.0267 H   0  0  0  0  0  0  0  0  0  0  0  0  # atno 8008 bound_to 7997
  155.0950  140.3223  155.4544 H   0  0  0  0  0  0  0  0  0  0  0  0  # atno 8009 bound_to 7997
  156.2694  140.2041  156.6077 H   0  0  0  0  0  0  0  0  0  0  0  0  # atno 8010 bound_to 7997
  139.7756  143.8174  152.2631 H   0  0  0  0  0  0  0  0  0  0  0  0  # atno 10167 bound_to 10162
  156.2338  130.7054  151.0886 H   0  0  0  0  0  0  0  0  0  0  0  0  # atno 10718 bound_to 10713
  153.0541  135.5051  154.7938 H   0  0  0  0  0  0  0  0  0  0  0  0  # atno 10763 bound_to 10752
  154.6778  135.2963  154.9657 H   0  0  0  0  0  0  0  0  0  0  0  0  # atno 10764 bound_to 10752
  154.0453  135.6711  153.4847 H   0  0  0  0  0  0  0  0  0  0  0  0  # atno 10765 bound_to 10752
  140.4291  134.6535  157.4703 H   0  0  0  0  0  0  0  0  0  0  0  0  # atno 11005 bound_to 11000
  146.1835  140.6459  142.9178 LP  0  0  0  0  0  0  0  0  0  0  0  0  # atno 17320 bound_to 7965
  144.7472  140.5098  143.6827 LP  0  0  0  0  0  0  0  0  0  0  0  0  # atno 17321 bound_to 7965
  139.8222  144.7291  150.9558 LP  0  0  0  0  0  0  0  0  0  0  0  0  # atno 17342 bound_to 10162
  140.7816  143.4148  151.0934 LP  0  0  0  0  0  0  0  0  0  0  0  0  # atno 17343 bound_to 10162
  157.7145  131.0717  150.6378 LP  0  0  0  0  0  0  0  0  0  0  0  0  # atno 17370 bound_to 10713
  156.6447  130.4468  149.5740 LP  0  0  0  0  0  0  0  0  0  0  0  0  # atno 17371 bound_to 10713
  140.0147  134.6638  155.9328 LP  0  0  0  0  0  0  0  0  0  0  0  0  # atno 17394 bound_to 11000
  141.1753  133.6540  156.4805 LP  0  0  0  0  0  0  0  0  0  0  0  0  # atno 17395 bound_to 11000

$$$$
