AV-unprocessed.smi:81|AV-procd|sdf|791|dock9
  -GOLD-   2262017163D 1   1.00000     0.00000
 Structure written by MMmdl.
 64 67  0  0  0  0  0  0  0  0  2 V2000
  151.2488  138.7236  154.7336 C   0  0  0  0  0  0  0  0  0  0  0  0
  150.3809  137.9946  155.7723 C   0  0  0  0  0  0  0  0  0  0  0  0
  149.8288  136.6980  155.1608 C   0  0  0  0  0  0  0  0  0  0  0  0
  149.2141  138.8604  156.3112 C   0  0  0  0  0  0  0  0  0  0  0  0
  148.2296  139.2991  155.3114 N   0  0  0  0  0  0  0  0  0  0  0  0
  147.1332  138.5014  155.3037 C   0  0  0  0  0  0  0  0  0  0  0  0
  146.6200  138.0395  156.4747 N   0  0  0  0  0  0  0  0  0  0  0  0
  145.5515  137.2368  156.4655 C   0  0  0  0  0  0  0  0  0  0  0  0
  144.8593  136.7808  155.4191 N   0  0  0  0  0  0  0  0  0  0  0  0
  145.3740  137.2425  154.2432 C   0  0  0  0  0  0  0  0  0  0  0  0
  146.4972  138.1025  154.0981 C   0  0  0  0  0  0  0  0  0  0  0  0
  146.7223  138.3738  152.7549 N   0  0  0  0  0  0  0  0  0  0  0  0
  145.7906  137.6997  152.1376 C   0  0  0  0  0  0  0  0  0  0  0  0
  144.9447  136.9816  152.9536 N   0  0  0  0  0  0  0  0  0  0  0  0
  143.8384  136.1361  152.5319 C   0  0  0  0  0  0  0  0  0  0  0  0
  144.1678  134.6235  152.5782 C   0  0  2  0  0  0  0  0  0  0  0  0
  142.9520  133.9086  152.7250 O   0  0  0  0  0  0  0  0  0  0  0  0
  145.0765  134.2668  153.7591 C   0  0  0  0  0  0  0  0  0  0  0  0
  146.3974  133.8778  153.1058 C   0  0  0  0  0  0  0  0  0  0  0  0
  145.9845  133.2935  151.8836 O   0  0  0  0  0  0  0  0  0  0  0  0
  144.9719  134.1313  151.3463 C   0  0  1  0  0  0  0  0  0  0  0  0
  144.1907  133.3991  150.2426 C   0  0  0  0  0  0  0  0  0  0  0  0
  148.0447  140.7173  154.9477 C   0  0  2  0  0  0  0  0  0  0  0  0
  149.3418  141.3815  154.4172 C   0  0  0  0  0  0  0  0  0  0  0  0
  150.4140  141.4976  155.5160 C   0  0  0  0  0  0  0  0  0  0  0  0
  149.9055  142.2686  156.6772 N   0  3  2  0  0  0  0  0  0  0  0  0
  150.9384  142.4657  157.7163 C   0  0  0  0  0  0  0  0  0  0  0  0
  148.6516  141.6973  157.2281 C   0  0  0  0  0  0  0  0  0  0  0  0
  147.5700  141.5821  156.1376 C   0  0  0  0  0  0  0  0  0  0  0  0
  150.6504  139.0684  153.8902 H   0  0  0  0  0  0  0  0  0  0  0  0
  152.0216  138.0631  154.3396 H   0  0  0  0  0  0  0  0  0  0  0  0
  151.7599  139.5852  155.1566 H   0  0  0  0  0  0  0  0  0  0  0  0
  151.0231  137.6960  156.6004 H   0  0  0  0  0  0  0  0  0  0  0  0
  149.1718  136.9056  154.3156 H   0  0  0  0  0  0  0  0  0  0  0  0
  149.2572  136.1291  155.8948 H   0  0  0  0  0  0  0  0  0  0  0  0
  150.6341  136.0535  154.8069 H   0  0  0  0  0  0  0  0  0  0  0  0
  148.7164  138.3479  157.1328 H   0  0  0  0  0  0  0  0  0  0  0  0
  149.6323  139.7555  156.7733 H   0  0  0  0  0  0  0  0  0  0  0  0
  145.2026  136.9114  157.4344 H   0  0  0  0  0  0  0  0  0  0  0  0
  145.6993  137.6991  151.0609 H   0  0  0  0  0  0  0  0  0  0  0  0
  142.9802  136.3515  153.1698 H   0  0  0  0  0  0  0  0  0  0  0  0
  143.5481  136.4315  151.5226 H   0  0  0  0  0  0  0  0  0  0  0  0
  143.0111  133.3782  153.5049 H   0  0  0  0  0  0  0  0  0  0  0  0
  145.1980  135.0800  154.4756 H   0  0  0  0  0  0  0  0  0  0  0  0
  144.6889  133.4075  154.3090 H   0  0  0  0  0  0  0  0  0  0  0  0
  147.0102  134.7582  152.9056 H   0  0  0  0  0  0  0  0  0  0  0  0
  146.9785  133.1820  153.7110 H   0  0  0  0  0  0  0  0  0  0  0  0
  145.4929  134.9771  150.8960 H   0  0  0  0  0  0  0  0  0  0  0  0
  143.3948  134.0258  149.8397 H   0  0  0  0  0  0  0  0  0  0  0  0
  143.7414  132.4767  150.6108 H   0  0  0  0  0  0  0  0  0  0  0  0
  144.8504  133.1344  149.4166 H   0  0  0  0  0  0  0  0  0  0  0  0
  147.2983  140.7638  154.1555 H   0  0  0  0  0  0  0  0  0  0  0  0
  149.7508  140.8543  153.5560 H   0  0  0  0  0  0  0  0  0  0  0  0
  149.1043  142.3807  154.0492 H   0  0  0  0  0  0  0  0  0  0  0  0
  150.7330  140.5066  155.8430 H   0  0  0  0  0  0  0  0  0  0  0  0
  151.2964  141.9942  155.1108 H   0  0  0  0  0  0  0  0  0  0  0  0
  151.2506  141.5119  158.1437 H   0  0  0  0  0  0  0  0  0  0  0  0
  150.5587  143.0946  158.5221 H   0  0  0  0  0  0  0  0  0  0  0  0
  151.8171  142.9571  157.2973 H   0  0  0  0  0  0  0  0  0  0  0  0
  148.8558  140.7197  157.6679 H   0  0  0  0  0  0  0  0  0  0  0  0
  148.2874  142.3351  158.0342 H   0  0  0  0  0  0  0  0  0  0  0  0
  147.3274  142.5820  155.7751 H   0  0  0  0  0  0  0  0  0  0  0  0
  146.6422  141.2043  156.5643 H   0  0  0  0  0  0  0  0  0  0  0  0
  149.6709  143.1871  156.3284 H   0  0  0  0  0  0  0  0  0  0  0  0
  1  2  1  0  0  0  0
  1 30  1  0  0  0  0
  1 31  1  0  0  0  0
  1 32  1  0  0  0  0
  2  3  1  0  0  0  0
  2  4  1  0  0  0  0
  2 33  1  0  0  0  0
  3 34  1  0  0  0  0
  3 35  1  0  0  0  0
  3 36  1  0  0  0  0
  4  5  1  0  0  0  0
  4 37  1  0  0  0  0
  4 38  1  0  0  0  0
  5  6  1  0  0  0  0
  5 23  1  0  0  0  0
  6 11  1  0  0  0  0
  6  7  2  0  0  0  0
  7  8  1  0  0  0  0
  8  9  2  0  0  0  0
  8 39  1  0  0  0  0
  9 10  1  0  0  0  0
 10 14  1  0  0  0  0
 10 11  2  0  0  0  0
 11 12  1  0  0  0  0
 12 13  2  0  0  0  0
 13 14  1  0  0  0  0
 13 40  1  0  0  0  0
 14 15  1  0  0  0  0
 15 16  1  0  0  0  0
 15 41  1  0  0  0  0
 15 42  1  0  0  0  0
 16 21  1  0  0  0  0
 16 17  1  0  0  0  0
 16 18  1  0  0  0  0
 17 43  1  0  0  0  0
 18 19  1  0  0  0  0
 18 44  1  0  0  0  0
 18 45  1  0  0  0  0
 19 20  1  0  0  0  0
 19 46  1  0  0  0  0
 19 47  1  0  0  0  0
 20 21  1  0  0  0  0
 21 22  1  0  0  0  0
 21 48  1  0  0  0  0
 22 49  1  0  0  0  0
 22 50  1  0  0  0  0
 22 51  1  0  0  0  0
 23 29  1  0  0  0  0
 23 24  1  0  0  0  0
 23 52  1  0  0  0  0
 24 25  1  0  0  0  0
 24 53  1  0  0  0  0
 24 54  1  0  0  0  0
 25 26  1  0  0  0  0
 25 55  1  0  0  0  0
 25 56  1  0  0  0  0
 26 27  1  0  0  0  0
 26 28  1  0  0  0  0
 26 64  1  0  0  0  0
 27 57  1  0  0  0  0
 27 58  1  0  0  0  0
 27 59  1  0  0  0  0
 28 29  1  0  0  0  0
 28 60  1  0  0  0  0
 28 61  1  0  0  0  0
 29 62  1  0  0  0  0
 29 63  1  0  0  0  0
M  CHG  1  26   1
M  END
> <s_m_source_file>
AV-unprocessed.smi

> <i_m_source_file_index>
81

> <i_lp_mmshare_version>
43012

> <i_f3d_flags>
0

> <s_epik_input>
W0NIMl0xW0NIMl1OKFtDSDNdKVtDSDJdW0NIMl1bQ0hdMU4oW0NIMl1bQ0hdKFtDSDNdKVtDSDNdKWMobltjSF1uMiljKGMyMyluW2NIXW4zW0NIMl1bQ0BAXTQoW09IXSlbQ0gyXVtDSDJdT1tDQEhdNFtDSDNd

> <s_epik_cmdline>
J2VwaWtfcHl0aG9uJywgJy1waCcsICc3LjAnLCAnLXRuJywgJzgnLCAnLW1hJywgJzIwMCcsICctbWV0YWxfYmluZGluZycsICctaW1hZScsICc8aW5maWxlLm1hZT4nLCAnLW9tYWUnLCAnPG91dGZpbGUubWFlPic=

> <r_lp_tautomer_probability>
1

> <r_epik_Ionization_Penalty>
0.00272708

> <r_epik_Ionization_Penalty_Charging>
0.00158983

> <r_epik_Ionization_Penalty_Neutral>
0.00113725

> <r_epik_State_Penalty>
-0

> <r_epik_Charging_Adjusted_Penalty>
0.00158983

> <i_epik_Tot_Q>
1

> <i_epik_Tot_abs_Q>
1

> <r_epik_Metal_State_Penalty>
-0

> <b_epik_Metal_Only>
0

> <s_lp_Force_Field>
OPLS_2005

> <r_lp_Energy>
49.6566

> <b_lp_Chiralities_Consistent>
1

> <s_lp_Variant>
AV-unprocessed.smi:81-6

> <Gold.Version>
5.8.1

> <Gold.Id.Protein>
6NUR|6NUR_protein|mol2

> <Gold.PLP.Fitness>
41.9686

> <Gold.PLP.PLP>
-32.8779

> <Gold.PLP.part.hbond>
-2.0000

> <Gold.PLP.part.metal>
0.0000

> <Gold.PLP.part.buried>
-6.5722

> <Gold.PLP.part.nonpolar>
-24.8035

> <Gold.PLP.part.repulsive>
0.4412

> <Gold.PLP.ligand.clash>
0.0000

> <Gold.PLP.ligand.torsion>
2.1018

> <Gold.PLP.Chemscore.Hbond>
3.0000

> <Gold.PLP.Chemscore.CHOScore>
0.9880

> <Gold.PLP.Chemscore.Metal>
0.0000

> <Gold.Chemscore.Hbonds>
donor molecule, donor type, donor heavy atom, donor atom, acceptor molecule, acceptor atom, score
      L1  H    17    43       P1 10957  0.88
      L1  H    26    64       P1  8028  2.00
      L1  C    13    40       P1 10171  0.93

> <Gold.PLP.Chemscore.Internal.Correction>
1.3302

> <Gold.Rescore>
     Score         DG    S(hbond)    S(metal)    S(lipo)     H(rot)  DE(clash)    DE(int)     intcor
     11.64     -15.64       1.95        0.00      81.79       2.32       0.06       3.94       ----

> <Gold.Chemscore.Fitness>
11.6425

> <Gold.Chemscore.DG>
-15.6395

> <Gold.Chemscore.ZeroCoef>
-5.4800

> <Gold.Chemscore.Hbond>
1.9521

> <Gold.Chemscore.Metal>
0.0000

> <Gold.Chemscore.Lipo>
81.7885

> <Gold.Chemscore.Internal_Hbond>
0.0000

> <Gold.Chemscore.DEClash>
0.0589

> <Gold.Chemscore.DEInternal>
3.9381

> <Gold.Chemscore.Rot>
2.3163

> <Gold.Chemscore.Internal.Correction>
   9.000000E+99

> <Gold.Chemscore.Hbonds>
donor molecule, donor type, donor heavy atom, donor atom, acceptor molecule, acceptor atom, score
      L1  H    17    43       P1 10957  0.84
      L1  H    26    64       P1  8028  1.00

> <Gold.Chemscore.Hbond.Weighted>
-6.5200

> <Gold.Chemscore.Metal.Weighted>
-0.0000

> <Gold.Chemscore.Lipo.Weighted>
-9.5693

> <Gold.Chemscore.Internal_Hbond.Weighted>
0.0000

> <Gold.Chemscore.DEClash.Weighted>
0.0589

> <Gold.Chemscore.DEInternal.Weighted>
3.9381

> <Gold.Chemscore.Rot.Weighted>
5.9297

> <Gold.Chemscore.Internal.Correction.Weighted>
   9.000000E+99

> <Gold.Protein.RotatedTorsions>
[ 6907 6896 6895 6894 ] final   58.64 input  -60.11 | X-H torsion
[ 7974 7965 7964 7962 ] final -112.70 input  175.53 | X-H torsion
[ 8008 7997 7996 7995 ] final   34.89 input   59.86 | X-H torsion
[ 10167 10162 10161 10158 ] final   79.28 input  -65.29 | X-H torsion
[ 10718 10713 10712 10709 ] final  -58.25 input   66.30 | X-H torsion
[ 10763 10752 10751 10750 ] final    2.57 input  -60.55 | X-H torsion
[ 11005 11000 10999 10996 ] final  -10.79 input  -57.11 | X-H torsion

> <Gold.Protein.ActiveResidues>
 VAL166  LYS551  ARG553  GLY616  TRP617  ASP618  TYR619  PRO620  LYS621  CYS622 
 ASP623  PHE694  ASN695  SER759  ASP760  ASP761  ALA762  ILE779  LEU786  VAL792 
 PHE793  MET794  SER795  GLU796  ALA797  LYS798  CYS799  TRP800  GLU811  SER814 

> <Gold.Protein.RotatedAtoms>
  152.3843  134.6542  160.0131 H   0  0  0  0  0  0  0  0  0  0  0  0  # atno 6907 bound_to 6896
  151.6796  133.3306  159.3224 H   0  0  0  0  0  0  0  0  0  0  0  0  # atno 6908 bound_to 6896
  150.7772  134.6728  159.6446 H   0  0  0  0  0  0  0  0  0  0  0  0  # atno 6909 bound_to 6896
  145.1409  140.8777  143.3702 H   0  0  0  0  0  0  0  0  0  0  0  0  # atno 7974 bound_to 7965
  155.1622  140.3284  155.4409 H   0  0  0  0  0  0  0  0  0  0  0  0  # atno 8008 bound_to 7997
  156.2539  140.1958  156.6679 H   0  0  0  0  0  0  0  0  0  0  0  0  # atno 8009 bound_to 7997
  154.6397  140.0572  156.9817 H   0  0  0  0  0  0  0  0  0  0  0  0  # atno 8010 bound_to 7997
  139.9620  144.5954  150.8064 H   0  0  0  0  0  0  0  0  0  0  0  0  # atno 10167 bound_to 10162
  156.1149  130.4171  150.0551 H   0  0  0  0  0  0  0  0  0  0  0  0  # atno 10718 bound_to 10713
  153.2939  135.6950  153.7267 H   0  0  0  0  0  0  0  0  0  0  0  0  # atno 10763 bound_to 10752
  153.6207  135.3427  155.3010 H   0  0  0  0  0  0  0  0  0  0  0  0  # atno 10764 bound_to 10752
  154.8532  135.4385  154.2030 H   0  0  0  0  0  0  0  0  0  0  0  0  # atno 10765 bound_to 10752
  140.7484  133.8612  155.9025 H   0  0  0  0  0  0  0  0  0  0  0  0  # atno 11005 bound_to 11000
  145.0533  139.3164  143.5917 LP  0  0  0  0  0  0  0  0  0  0  0  0  # atno 17320 bound_to 7965
  146.3505  139.9949  142.8682 LP  0  0  0  0  0  0  0  0  0  0  0  0  # atno 17321 bound_to 7965
  140.7550  143.3038  151.3014 LP  0  0  0  0  0  0  0  0  0  0  0  0  # atno 17342 bound_to 10162
  139.6547  144.0298  152.2651 LP  0  0  0  0  0  0  0  0  0  0  0  0  # atno 17343 bound_to 10162
  156.8505  130.9457  151.3626 LP  0  0  0  0  0  0  0  0  0  0  0  0  # atno 17370 bound_to 10713
  157.6332  130.8746  149.9312 LP  0  0  0  0  0  0  0  0  0  0  0  0  # atno 17371 bound_to 10713
  140.9773  134.1452  157.4525 LP  0  0  0  0  0  0  0  0  0  0  0  0  # atno 17394 bound_to 11000
  139.8792  134.9999  156.5979 LP  0  0  0  0  0  0  0  0  0  0  0  0  # atno 17395 bound_to 11000

$$$$
