AV-unprocessed.smi:2526|AV-procd|sdf|9934|dock3
  -GOLD-   2272013573D 1   1.00000     0.00000
 Structure written by MMmdl.
 29 30  0  0  0  0  0  0  0  0  2 V2000
  151.9051  145.4034  159.4522 C   0  0  0  0  0  0  0  0  0  0  0  0
  151.9164  144.0229  159.0181 N   0  0  0  0  0  0  0  0  0  0  0  0
  151.2990  143.4617  157.9217 C   0  0  0  0  0  0  0  0  0  0  0  0
  151.5967  142.1262  157.9185 C   0  0  0  0  0  0  0  0  0  0  0  0
  151.1690  141.0528  156.9462 C   0  0  2  0  0  0  0  0  0  0  0  0
  152.3369  140.3652  156.3889 N   0  0  0  0  0  0  0  0  0  0  0  0
  152.4630  139.8663  155.1461 C   0  0  0  0  0  0  0  0  0  0  0  0
  153.4674  139.2480  154.8034 O   0  0  0  0  0  0  0  0  0  0  0  0
  151.3415  140.1085  154.1241 C   0  0  0  0  0  0  0  0  0  0  0  0
  150.0180  140.5720  154.7550 C   0  0  0  0  0  0  0  0  0  0  0  0
  150.2665  141.6337  155.8326 C   0  0  1  0  0  0  0  0  0  0  0  0
  148.9963  142.1514  156.3732 N   0  3  0  0  0  0  0  0  0  0  0  0
  152.4188  141.9741  159.0726 C   0  0  0  0  0  0  0  0  0  0  0  0
  152.6050  143.1068  159.7284 N   0  0  0  0  0  0  0  0  0  0  0  0
  151.0856  145.9389  158.9718 H   0  0  0  0  0  0  0  0  0  0  0  0
  152.8483  145.8799  159.1828 H   0  0  0  0  0  0  0  0  0  0  0  0
  151.7740  145.4547  160.5338 H   0  0  0  0  0  0  0  0  0  0  0  0
  150.7030  144.0530  157.2416 H   0  0  0  0  0  0  0  0  0  0  0  0
  150.6039  140.2845  157.4765 H   0  0  0  0  0  0  0  0  0  0  0  0
  153.1062  140.2082  157.0245 H   0  0  0  0  0  0  0  0  0  0  0  0
  151.6951  140.8686  153.4268 H   0  0  0  0  0  0  0  0  0  0  0  0
  151.1799  139.2021  153.5393 H   0  0  0  0  0  0  0  0  0  0  0  0
  149.3662  140.9696  153.9761 H   0  0  0  0  0  0  0  0  0  0  0  0
  149.4968  139.7158  155.1864 H   0  0  0  0  0  0  0  0  0  0  0  0
  150.7773  142.4783  155.3665 H   0  0  0  0  0  0  0  0  0  0  0  0
  148.2225  141.6595  155.9496 H   0  0  0  0  0  0  0  0  0  0  0  0
  148.9203  143.1377  156.1692 H   0  0  0  0  0  0  0  0  0  0  0  0
  152.8811  141.0753  159.4532 H   0  0  0  0  0  0  0  0  0  0  0  0
  148.9769  142.0130  157.3736 H   0  0  0  0  0  0  0  0  0  0  0  0
  1  2  1  0  0  0  0
  1 15  1  0  0  0  0
  1 16  1  0  0  0  0
  1 17  1  0  0  0  0
  2 14  1  0  0  0  0
  2  3  1  0  0  0  0
  3  4  2  0  0  0  0
  3 18  1  0  0  0  0
  4  5  1  0  0  0  0
  4 13  1  0  0  0  0
  5 11  1  0  0  0  0
  5  6  1  0  0  0  0
  5 19  1  0  0  0  0
  6  7  1  0  0  0  0
  6 20  1  0  0  0  0
  7  8  2  0  0  0  0
  7  9  1  0  0  0  0
  9 10  1  0  0  0  0
  9 21  1  0  0  0  0
  9 22  1  0  0  0  0
 10 11  1  0  0  0  0
 10 23  1  0  0  0  0
 10 24  1  0  0  0  0
 11 12  1  0  0  0  0
 11 25  1  0  0  0  0
 12 26  1  0  0  0  0
 12 27  1  0  0  0  0
 12 29  1  0  0  0  0
 13 14  2  0  0  0  0
 13 28  1  0  0  0  0
M  CHG  1  12   1
M  END
> <s_m_source_file>
AV-unprocessed.smi

> <i_m_source_file_index>
2526

> <i_lp_mmshare_version>
43012

> <i_f3d_flags>
0

> <s_epik_input>
W0NIM11uMVtjSF1jKFtjSF1uMSlbQ0BASF0yW05IXUMoPU8pW0NIMl1bQ0gyXVtDQEhdMltOSDJd

> <s_epik_cmdline>
J2VwaWtfcHl0aG9uJywgJy1waCcsICc3LjAnLCAnLXRuJywgJzgnLCAnLW1hJywgJzIwMCcsICctbWV0YWxfYmluZGluZycsICctaW1hZScsICc8aW5maWxlLm1hZT4nLCAnLW9tYWUnLCAnPG91dGZpbGUubWFlPic=

> <r_lp_tautomer_probability>
1

> <r_epik_Ionization_Penalty>
0.00878543

> <r_epik_Ionization_Penalty_Charging>
0.00874185

> <r_epik_Ionization_Penalty_Neutral>
4.35793e-05

> <r_epik_State_Penalty>
0.00660351

> <r_epik_Charging_Adjusted_Penalty>
0.0153454

> <i_epik_Tot_Q>
1

> <i_epik_Tot_abs_Q>
1

> <r_epik_Metal_State_Penalty>
0.00660727

> <b_epik_Metal_Only>
0

> <s_lp_Force_Field>
OPLS_2005

> <r_lp_Energy>
10.7235

> <b_lp_Chiralities_Consistent>
1

> <s_lp_Variant>
AV-unprocessed.smi:2526-1

> <Gold.Version>
5.8.1

> <Gold.Id.Protein>
6NUR|6NUR_protein|mol2

> <Gold.PLP.Fitness>
41.9086

> <Gold.PLP.PLP>
-30.2469

> <Gold.PLP.part.hbond>
-2.0000

> <Gold.PLP.part.metal>
0.0000

> <Gold.PLP.part.buried>
-1.0535

> <Gold.PLP.part.nonpolar>
-27.5353

> <Gold.PLP.part.repulsive>
0.1333

> <Gold.PLP.ligand.clash>
0.0000

> <Gold.PLP.ligand.torsion>
0.0191

> <Gold.PLP.Chemscore.Hbond>
2.8928

> <Gold.PLP.Chemscore.CHOScore>
1.0000

> <Gold.PLP.Chemscore.Metal>
0.0000

> <Gold.Chemscore.Hbonds>
donor molecule, donor type, donor heavy atom, donor atom, acceptor molecule, acceptor atom, score
      L1  H    12    27       P1  8028  2.00
      P1  H  7997  8008       L1     8  0.65
      L1  C     3    18       P1  8028  1.00

> <Gold.PLP.Chemscore.Internal.Correction>
0.0215

> <Gold.Rescore>
     Score         DG    S(hbond)    S(metal)    S(lipo)     H(rot)  DE(clash)    DE(int)     intcor
     14.17     -14.31       1.00        0.00      68.81       1.00       0.12       0.02       ----

> <Gold.Chemscore.Fitness>
14.1716

> <Gold.Chemscore.DG>
-14.3085

> <Gold.Chemscore.ZeroCoef>
-5.4800

> <Gold.Chemscore.Hbond>
0.9994

> <Gold.Chemscore.Metal>
0.0000

> <Gold.Chemscore.Lipo>
68.8066

> <Gold.Chemscore.Internal_Hbond>
0.0000

> <Gold.Chemscore.DEClash>
0.1151

> <Gold.Chemscore.DEInternal>
0.0218

> <Gold.Chemscore.Rot>
1.0000

> <Gold.Chemscore.Internal.Correction>
   9.000000E+99

> <Gold.Chemscore.Hbonds>
donor molecule, donor type, donor heavy atom, donor atom, acceptor molecule, acceptor atom, score
      L1  H    12    27       P1  8028  1.00
      P1  H  7997  8008       L1     8  0.06

> <Gold.Chemscore.Hbond.Weighted>
-3.3381

> <Gold.Chemscore.Metal.Weighted>
-0.0000

> <Gold.Chemscore.Lipo.Weighted>
-8.0504

> <Gold.Chemscore.Internal_Hbond.Weighted>
0.0000

> <Gold.Chemscore.DEClash.Weighted>
0.1151

> <Gold.Chemscore.DEInternal.Weighted>
0.0218

> <Gold.Chemscore.Rot.Weighted>
2.5600

> <Gold.Chemscore.Internal.Correction.Weighted>
   9.000000E+99

> <Gold.Protein.RotatedTorsions>
[ 6907 6896 6895 6894 ] final  -34.22 input  -60.11 | X-H torsion
[ 7974 7965 7964 7962 ] final   71.85 input  175.53 | X-H torsion
[ 8008 7997 7996 7995 ] final  -12.79 input   59.86 | X-H torsion
[ 10167 10162 10161 10158 ] final  -95.59 input  -65.29 | X-H torsion
[ 10718 10713 10712 10709 ] final  155.44 input   66.30 | X-H torsion
[ 10763 10752 10751 10750 ] final  -30.63 input  -60.55 | X-H torsion
[ 11005 11000 10999 10996 ] final  -94.52 input  -57.11 | X-H torsion

> <Gold.Protein.ActiveResidues>
 VAL166  LYS551  ARG553  GLY616  TRP617  ASP618  TYR619  PRO620  LYS621  CYS622 
 ASP623  PHE694  ASN695  SER759  ASP760  ASP761  ALA762  ILE779  LEU786  VAL792 
 PHE793  MET794  SER795  GLU796  ALA797  LYS798  CYS799  TRP800  GLU811  SER814 

> <Gold.Protein.RotatedAtoms>
  151.0555  134.9701  159.8233 H   0  0  0  0  0  0  0  0  0  0  0  0  # atno 6907 bound_to 6896
  152.5387  134.2484  159.8899 H   0  0  0  0  0  0  0  0  0  0  0  0  # atno 6908 bound_to 6896
  151.2501  133.4311  159.2645 H   0  0  0  0  0  0  0  0  0  0  0  0  # atno 6909 bound_to 6896
  145.7607  139.2799  143.1378 H   0  0  0  0  0  0  0  0  0  0  0  0  # atno 7974 bound_to 7965
  154.5347  140.2267  155.8743 H   0  0  0  0  0  0  0  0  0  0  0  0  # atno 8008 bound_to 7997
  156.1799  140.3102  155.9092 H   0  0  0  0  0  0  0  0  0  0  0  0  # atno 8009 bound_to 7997
  155.3379  140.0449  157.3035 H   0  0  0  0  0  0  0  0  0  0  0  0  # atno 8010 bound_to 7997
  140.3026  143.3153  152.0233 H   0  0  0  0  0  0  0  0  0  0  0  0  # atno 10167 bound_to 10162
  157.2183  131.0713  151.1928 H   0  0  0  0  0  0  0  0  0  0  0  0  # atno 10718 bound_to 10713
  153.7841  135.6903  153.4883 H   0  0  0  0  0  0  0  0  0  0  0  0  # atno 10763 bound_to 10752
  153.1792  135.4513  155.0004 H   0  0  0  0  0  0  0  0  0  0  0  0  # atno 10764 bound_to 10752
  154.8070  135.3361  154.7342 H   0  0  0  0  0  0  0  0  0  0  0  0  # atno 10765 bound_to 10752
  141.1468  133.7962  157.0310 H   0  0  0  0  0  0  0  0  0  0  0  0  # atno 11005 bound_to 11000
  146.0267  140.8297  142.9896 LP  0  0  0  0  0  0  0  0  0  0  0  0  # atno 17320 bound_to 7965
  144.6831  140.2708  143.7306 LP  0  0  0  0  0  0  0  0  0  0  0  0  # atno 17321 bound_to 7965
  139.4911  144.6445  151.6808 LP  0  0  0  0  0  0  0  0  0  0  0  0  # atno 17342 bound_to 10162
  140.5638  144.0224  150.6182 LP  0  0  0  0  0  0  0  0  0  0  0  0  # atno 17343 bound_to 10162
  157.3602  130.7127  149.6497 LP  0  0  0  0  0  0  0  0  0  0  0  0  # atno 17370 bound_to 10713
  155.9684  130.4227  150.4531 LP  0  0  0  0  0  0  0  0  0  0  0  0  # atno 17371 bound_to 10713
  140.0754  134.9678  157.1537 LP  0  0  0  0  0  0  0  0  0  0  0  0  # atno 17394 bound_to 11000
  140.3651  134.2451  155.7183 LP  0  0  0  0  0  0  0  0  0  0  0  0  # atno 17395 bound_to 11000

$$$$
