AV-unprocessed.smi:2973|AV-procd|sdf|11345|dock10
  -GOLD-   2272016263D 1   1.00000     0.00000
 Structure written by MMmdl.
 48 50  0  0  0  0  0  0  0  0  2 V2000
  147.5684  133.9305  162.3954 C   0  0  0  0  0  0  0  0  0  0  0  0
  146.6179  135.1486  162.3694 C   0  0  2  0  0  0  0  0  0  0  0  0
  145.1558  134.6780  162.5389 C   0  0  0  0  0  0  0  0  0  0  0  0
  144.1739  135.8576  162.5924 C   0  0  0  0  0  0  0  0  0  0  0  0
  144.3016  136.7437  161.3471 C   0  0  0  0  0  0  0  0  0  0  0  0
  145.7478  137.2368  161.1692 C   0  0  0  0  0  0  0  0  0  0  0  0
  146.7926  136.0892  161.1296 C   0  0  1  0  0  0  0  0  0  0  0  0
  148.1205  136.6782  161.1263 N   0  5  0  0  0  0  0  0  0  0  0  0
  148.7537  136.3398  159.9794 C   0  0  0  0  0  0  0  0  0  0  0  0
  149.8946  136.6598  159.6476 O   0  0  0  0  0  0  0  0  0  0  0  0
  147.9663  135.5749  159.2003 N   0  0  0  0  0  0  0  0  0  0  0  0
  148.3613  135.0146  157.9011 C   0  0  0  0  0  0  0  0  0  0  0  0
  147.3093  135.2298  156.8039 C   0  0  0  0  0  0  0  0  0  0  0  0
  146.6857  136.2889  156.7208 O   0  0  0  0  0  0  0  0  0  0  0  0
  147.1390  134.2097  155.9498 N   0  0  0  0  0  0  0  0  0  0  0  0
  146.1945  134.1938  154.8391 C   0  0  0  0  0  0  0  0  0  0  0  0
  146.9114  134.0727  153.4842 C   0  0  0  0  0  0  0  0  0  0  0  0
  145.9879  133.5683  152.3912 C   0  0  0  0  0  0  0  0  0  0  0  0
  146.2885  132.3841  151.6844 C   0  0  0  0  0  0  0  0  0  0  0  0
  145.3932  131.9528  150.6863 C   0  0  0  0  0  0  0  0  0  0  0  0
  144.2370  132.7166  150.4357 C   0  0  0  0  0  0  0  0  0  0  0  0
  144.0265  133.8831  151.1980 C   0  0  0  0  0  0  0  0  0  0  0  0
  144.8785  134.3055  152.1569 N   0  0  0  0  0  0  0  0  0  0  0  0
  146.7839  135.3602  159.7871 C   0  0  0  0  0  0  0  0  0  0  0  0
  145.8466  134.6922  159.3482 O   0  0  0  0  0  0  0  0  0  0  0  0
  147.3729  133.2441  161.5712 H   0  0  0  0  0  0  0  0  0  0  0  0
  147.4506  133.3671  163.3210 H   0  0  0  0  0  0  0  0  0  0  0  0
  148.6138  134.2333  162.3354 H   0  0  0  0  0  0  0  0  0  0  0  0
  146.8576  135.7412  163.2541 H   0  0  0  0  0  0  0  0  0  0  0  0
  144.8771  134.0066  161.7264 H   0  0  0  0  0  0  0  0  0  0  0  0
  145.0610  134.0950  163.4556 H   0  0  0  0  0  0  0  0  0  0  0  0
  143.1525  135.4873  162.6815 H   0  0  0  0  0  0  0  0  0  0  0  0
  144.3669  136.4529  163.4858 H   0  0  0  0  0  0  0  0  0  0  0  0
  143.9771  136.1920  160.4651 H   0  0  0  0  0  0  0  0  0  0  0  0
  143.6307  137.5987  161.4334 H   0  0  0  0  0  0  0  0  0  0  0  0
  145.8103  137.8418  160.2628 H   0  0  0  0  0  0  0  0  0  0  0  0
  145.9848  137.9134  161.9919 H   0  0  0  0  0  0  0  0  0  0  0  0
  149.3005  135.4575  157.5669 H   0  0  0  0  0  0  0  0  0  0  0  0
  148.5610  133.9471  158.0099 H   0  0  0  0  0  0  0  0  0  0  0  0
  147.6957  133.3789  156.0891 H   0  0  0  0  0  0  0  0  0  0  0  0
  145.5251  133.3447  154.9798 H   0  0  0  0  0  0  0  0  0  0  0  0
  145.5700  135.0887  154.8657 H   0  0  0  0  0  0  0  0  0  0  0  0
  147.3177  135.0396  153.1832 H   0  0  0  0  0  0  0  0  0  0  0  0
  147.7638  133.3976  153.5724 H   0  0  0  0  0  0  0  0  0  0  0  0
  147.1819  131.8171  151.9023 H   0  0  0  0  0  0  0  0  0  0  0  0
  145.5894  131.0516  150.1241 H   0  0  0  0  0  0  0  0  0  0  0  0
  143.5280  132.4158  149.6787 H   0  0  0  0  0  0  0  0  0  0  0  0
  143.1503  134.4926  151.0336 H   0  0  0  0  0  0  0  0  0  0  0  0
  1  2  1  0  0  0  0
  1 26  1  0  0  0  0
  1 27  1  0  0  0  0
  1 28  1  0  0  0  0
  2  7  1  0  0  0  0
  2  3  1  0  0  0  0
  2 29  1  0  0  0  0
  3  4  1  0  0  0  0
  3 30  1  0  0  0  0
  3 31  1  0  0  0  0
  4  5  1  0  0  0  0
  4 32  1  0  0  0  0
  4 33  1  0  0  0  0
  5  6  1  0  0  0  0
  5 34  1  0  0  0  0
  5 35  1  0  0  0  0
  6  7  1  0  0  0  0
  6 36  1  0  0  0  0
  6 37  1  0  0  0  0
  7 24  1  0  0  0  0
  7  8  1  0  0  0  0
  8  9  1  0  0  0  0
  9 10  2  0  0  0  0
  9 11  1  0  0  0  0
 11 12  1  0  0  0  0
 11 24  1  0  0  0  0
 12 13  1  0  0  0  0
 12 38  1  0  0  0  0
 12 39  1  0  0  0  0
 13 14  2  0  0  0  0
 13 15  1  0  0  0  0
 15 16  1  0  0  0  0
 15 40  1  0  0  0  0
 16 17  1  0  0  0  0
 16 41  1  0  0  0  0
 16 42  1  0  0  0  0
 17 18  1  0  0  0  0
 17 43  1  0  0  0  0
 17 44  1  0  0  0  0
 18 23  1  0  0  0  0
 18 19  2  0  0  0  0
 19 20  1  0  0  0  0
 19 45  1  0  0  0  0
 20 21  2  0  0  0  0
 20 46  1  0  0  0  0
 21 22  1  0  0  0  0
 21 47  1  0  0  0  0
 22 23  2  0  0  0  0
 22 48  1  0  0  0  0
 24 25  2  0  0  0  0
M  CHG  1   8  -1
M  END
> <s_m_source_file>
AV-unprocessed.smi

> <i_m_source_file_index>
2973

> <i_lp_mmshare_version>
43012

> <i_f3d_flags>
0

> <s_epik_input>
W0NIMl0xW0NIMl1bQ0gyXVtDSDJdW0NAQEhdKFtDSDNdKVtDQF0xMltOSF1DKD1PKU4oQzI9TylbQ0gyXUMoPU8pW05IXVtDSDJdW0NIMl1jM1tjSF1bY0hdW2NIXVtjSF1uMw==

> <s_epik_cmdline>
J2VwaWtfcHl0aG9uJywgJy1waCcsICc3LjAnLCAnLXRuJywgJzgnLCAnLW1hJywgJzIwMCcsICctbWV0YWxfYmluZGluZycsICctaW1hZScsICc8aW5maWxlLm1hZT4nLCAnLW9tYWUnLCAnPG91dGZpbGUubWFlPic=

> <r_lp_tautomer_probability>
1

> <r_epik_Ionization_Penalty>
6.04175

> <r_epik_Ionization_Penalty_Charging>
6.01728

> <r_epik_Ionization_Penalty_Neutral>
0.0244696

> <r_epik_State_Penalty>
6.03712

> <r_epik_Charging_Adjusted_Penalty>
12.0544

> <i_epik_Tot_Q>
-1

> <i_epik_Tot_abs_Q>
1

> <r_epik_Metal_State_Penalty>
2.01153

> <b_epik_Metal_Only>
1

> <s_lp_Force_Field>
OPLS_2005

> <r_lp_Energy>
12.5421

> <b_lp_Chiralities_Consistent>
1

> <s_lp_Variant>
AV-unprocessed.smi:2973-9

> <Gold.Version>
5.8.1

> <Gold.Id.Protein>
6NUR|6NUR_protein|mol2

> <Gold.PLP.Fitness>
48.0752

> <Gold.PLP.PLP>
-37.1163

> <Gold.PLP.part.hbond>
-2.0000

> <Gold.PLP.part.metal>
0.0000

> <Gold.PLP.part.buried>
-6.9876

> <Gold.PLP.part.nonpolar>
-28.2925

> <Gold.PLP.part.repulsive>
0.0843

> <Gold.PLP.ligand.clash>
0.0000

> <Gold.PLP.ligand.torsion>
0.5239

> <Gold.PLP.Chemscore.Hbond>
3.0000

> <Gold.PLP.Chemscore.CHOScore>
1.0000

> <Gold.PLP.Chemscore.Metal>
0.0000

> <Gold.Chemscore.Hbonds>
donor molecule, donor type, donor heavy atom, donor atom, acceptor molecule, acceptor atom, score
      P1  H  6896  6908       L1    10  1.00
      P1  H  6931  6943       L1     8  2.00
      L1  C    22    48       P1 10186  0.84

> <Gold.PLP.Chemscore.Internal.Correction>
0.0068

> <Gold.Rescore>
     Score         DG    S(hbond)    S(metal)    S(lipo)     H(rot)  DE(clash)    DE(int)     intcor
     16.31     -16.81       1.84        0.00      83.93       1.81       0.05       0.45       ----

> <Gold.Chemscore.Fitness>
16.3131

> <Gold.Chemscore.DG>
-16.8135

> <Gold.Chemscore.ZeroCoef>
-5.4800

> <Gold.Chemscore.Hbond>
1.8398

> <Gold.Chemscore.Metal>
0.0000

> <Gold.Chemscore.Lipo>
83.9290

> <Gold.Chemscore.Internal_Hbond>
0.0000

> <Gold.Chemscore.DEClash>
0.0460

> <Gold.Chemscore.DEInternal>
0.4544

> <Gold.Chemscore.Rot>
1.8090

> <Gold.Chemscore.Internal.Correction>
   9.000000E+99

> <Gold.Chemscore.Hbonds>
donor molecule, donor type, donor heavy atom, donor atom, acceptor molecule, acceptor atom, score
      P1  H  6896  6908       L1    10  0.67
      P1  H  6931  6943       L1     8  0.64

> <Gold.Chemscore.Hbond.Weighted>
-6.1448

> <Gold.Chemscore.Metal.Weighted>
-0.0000

> <Gold.Chemscore.Lipo.Weighted>
-9.8197

> <Gold.Chemscore.Internal_Hbond.Weighted>
0.0000

> <Gold.Chemscore.DEClash.Weighted>
0.0460

> <Gold.Chemscore.DEInternal.Weighted>
0.4544

> <Gold.Chemscore.Rot.Weighted>
4.6310

> <Gold.Chemscore.Internal.Correction.Weighted>
   9.000000E+99

> <Gold.Protein.RotatedTorsions>
[ 6907 6896 6895 6894 ] final -148.71 input  -60.11 | X-H torsion
[ 7974 7965 7964 7962 ] final -152.09 input  175.53 | X-H torsion
[ 8008 7997 7996 7995 ] final  -55.37 input   59.86 | X-H torsion
[ 10167 10162 10161 10158 ] final -123.12 input  -65.29 | X-H torsion
[ 10718 10713 10712 10709 ] final  118.02 input   66.30 | X-H torsion
[ 10763 10752 10751 10750 ] final   58.12 input  -60.55 | X-H torsion
[ 11005 11000 10999 10996 ] final -153.75 input  -57.11 | X-H torsion

> <Gold.Protein.ActiveResidues>
 VAL166  LYS551  ARG553  GLY616  TRP617  ASP618  TYR619  PRO620  LYS621  CYS622 
 ASP623  PHE694  ASN695  SER759  ASP760  ASP761  ALA762  ILE779  LEU786  VAL792 
 PHE793  MET794  SER795  GLU796  ALA797  LYS798  CYS799  TRP800  GLU811  SER814 

> <Gold.Protein.RotatedAtoms>
  151.1737  133.4768  159.2593 H   0  0  0  0  0  0  0  0  0  0  0  0  # atno 6907 bound_to 6896
  151.1330  135.0140  159.8601 H   0  0  0  0  0  0  0  0  0  0  0  0  # atno 6908 bound_to 6896
  152.5460  134.1638  159.8621 H   0  0  0  0  0  0  0  0  0  0  0  0  # atno 6909 bound_to 6896
  144.7813  140.4709  143.5837 H   0  0  0  0  0  0  0  0  0  0  0  0  # atno 7974 bound_to 7965
  154.4193  140.1154  156.5466 H   0  0  0  0  0  0  0  0  0  0  0  0  # atno 8008 bound_to 7997
  155.6453  140.3496  155.4710 H   0  0  0  0  0  0  0  0  0  0  0  0  # atno 8009 bound_to 7997
  155.9837  140.1165  157.0692 H   0  0  0  0  0  0  0  0  0  0  0  0  # atno 8010 bound_to 7997
  140.0069  143.5482  152.2280 H   0  0  0  0  0  0  0  0  0  0  0  0  # atno 10167 bound_to 10162
  157.6058  131.1043  150.7698 H   0  0  0  0  0  0  0  0  0  0  0  0  # atno 10718 bound_to 10713
  152.9864  135.5618  154.5501 H   0  0  0  0  0  0  0  0  0  0  0  0  # atno 10763 bound_to 10752
  154.4939  135.2794  155.1476 H   0  0  0  0  0  0  0  0  0  0  0  0  # atno 10764 bound_to 10752
  154.2934  135.6321  153.5448 H   0  0  0  0  0  0  0  0  0  0  0  0  # atno 10765 bound_to 10752
  140.7048  134.3898  157.5205 H   0  0  0  0  0  0  0  0  0  0  0  0  # atno 11005 bound_to 11000
  145.6042  139.1506  143.3112 LP  0  0  0  0  0  0  0  0  0  0  0  0  # atno 17320 bound_to 7965
  146.2023  140.6161  142.9097 LP  0  0  0  0  0  0  0  0  0  0  0  0  # atno 17321 bound_to 7965
  139.6232  144.7633  151.2695 LP  0  0  0  0  0  0  0  0  0  0  0  0  # atno 17342 bound_to 10162
  140.7397  143.6611  150.8164 LP  0  0  0  0  0  0  0  0  0  0  0  0  # atno 17343 bound_to 10162
  156.8086  130.4945  149.5359 LP  0  0  0  0  0  0  0  0  0  0  0  0  # atno 17370 bound_to 10713
  156.1144  130.6064  151.0097 LP  0  0  0  0  0  0  0  0  0  0  0  0  # atno 17371 bound_to 10713
  139.8887  134.8849  156.2460 LP  0  0  0  0  0  0  0  0  0  0  0  0  # atno 17394 bound_to 11000
  141.0134  133.7082  156.1148 LP  0  0  0  0  0  0  0  0  0  0  0  0  # atno 17395 bound_to 11000

$$$$
