AV-unprocessed.smi:3292|AV-procd|sdf|12627|dock9
  -GOLD-   2272018563D 1   1.00000     0.00000
 Structure written by MMmdl.
 38 39  0  0  0  0  0  0  0  0  1 V2000
  146.4400  133.4259  154.0147 C   0  0  0  0  0  0  0  0  0  0  0  0
  146.2016  134.4312  152.8802 C   0  0  2  0  0  0  0  0  0  0  0  0
  146.6031  133.8380  151.5118 C   0  0  0  0  0  0  0  0  0  0  0  0
  145.5420  133.0535  150.9057 N   0  0  0  0  0  0  0  0  0  0  0  0
  144.2089  133.4149  150.7627 C   0  0  0  0  0  0  0  0  0  0  0  0
  143.5866  132.3715  150.1151 C   0  0  0  0  0  0  0  0  0  0  0  0
  144.5097  131.3598  149.8596 N   0  0  0  0  0  0  0  0  0  0  0  0
  145.6430  131.8329  150.3608 C   0  0  0  0  0  0  0  0  0  0  0  0
  146.9575  135.6520  153.1588 N   0  0  0  0  0  0  0  0  0  0  0  0
  146.4422  136.7913  153.6434 C   0  0  0  0  0  0  0  0  0  0  0  0
  145.2696  136.9278  153.9933 O   0  0  0  0  0  0  0  0  0  0  0  0
  147.3459  137.7795  153.6530 N   0  0  0  0  0  0  0  0  0  0  0  0
  147.0514  139.1713  153.9755 C   0  0  0  0  0  0  0  0  0  0  0  0
  148.2867  140.0773  153.7949 C   0  0  1  0  0  0  0  0  0  0  0  0
  148.1049  141.4915  154.3363 C   0  0  0  0  0  0  0  0  0  0  0  0
  149.4321  141.8071  155.0342 C   0  0  0  0  0  0  0  0  0  0  0  0
  150.3175  140.7712  154.6365 O   0  0  0  0  0  0  0  0  0  0  0  0
  149.5442  139.5905  154.5156 C   0  0  0  0  0  0  0  0  0  0  0  0
  145.8682  132.5116  153.8541 H   0  0  0  0  0  0  0  0  0  0  0  0
  146.1348  133.8391  154.9766 H   0  0  0  0  0  0  0  0  0  0  0  0
  147.4929  133.1506  154.0882 H   0  0  0  0  0  0  0  0  0  0  0  0
  145.1331  134.6540  152.8658 H   0  0  0  0  0  0  0  0  0  0  0  0
  146.8940  134.6308  150.8208 H   0  0  0  0  0  0  0  0  0  0  0  0
  147.4728  133.1896  151.6252 H   0  0  0  0  0  0  0  0  0  0  0  0
  143.8272  134.3621  151.1140 H   0  0  0  0  0  0  0  0  0  0  0  0
  142.5539  132.2721  149.8155 H   0  0  0  0  0  0  0  0  0  0  0  0
  146.5721  131.2836  150.3190 H   0  0  0  0  0  0  0  0  0  0  0  0
  147.9346  135.6462  152.9050 H   0  0  0  0  0  0  0  0  0  0  0  0
  148.2867  137.5699  153.3527 H   0  0  0  0  0  0  0  0  0  0  0  0
  146.2248  139.5286  153.3589 H   0  0  0  0  0  0  0  0  0  0  0  0
  146.7060  139.2112  155.0089 H   0  0  0  0  0  0  0  0  0  0  0  0
  148.5243  140.1588  152.7329 H   0  0  0  0  0  0  0  0  0  0  0  0
  147.9054  142.1902  153.5232 H   0  0  0  0  0  0  0  0  0  0  0  0
  147.2781  141.5620  155.0442 H   0  0  0  0  0  0  0  0  0  0  0  0
  149.8252  142.7877  154.7651 H   0  0  0  0  0  0  0  0  0  0  0  0
  149.3108  141.7757  156.1181 H   0  0  0  0  0  0  0  0  0  0  0  0
  149.3106  139.2020  155.5086 H   0  0  0  0  0  0  0  0  0  0  0  0
  150.0768  138.8188  153.9594 H   0  0  0  0  0  0  0  0  0  0  0  0
  1  2  1  0  0  0  0
  1 19  1  0  0  0  0
  1 20  1  0  0  0  0
  1 21  1  0  0  0  0
  2  3  1  0  0  0  0
  2  9  1  0  0  0  0
  2 22  1  0  0  0  0
  3  4  1  0  0  0  0
  3 23  1  0  0  0  0
  3 24  1  0  0  0  0
  4  8  1  0  0  0  0
  4  5  1  0  0  0  0
  5  6  2  0  0  0  0
  5 25  1  0  0  0  0
  6  7  1  0  0  0  0
  6 26  1  0  0  0  0
  7  8  2  0  0  0  0
  8 27  1  0  0  0  0
  9 10  1  0  0  0  0
  9 28  1  0  0  0  0
 10 11  2  0  0  0  0
 10 12  1  0  0  0  0
 12 13  1  0  0  0  0
 12 29  1  0  0  0  0
 13 14  1  0  0  0  0
 13 30  1  0  0  0  0
 13 31  1  0  0  0  0
 14 18  1  0  0  0  0
 14 15  1  0  0  0  0
 14 32  1  0  0  0  0
 15 16  1  0  0  0  0
 15 33  1  0  0  0  0
 15 34  1  0  0  0  0
 16 17  1  0  0  0  0
 16 35  1  0  0  0  0
 16 36  1  0  0  0  0
 17 18  1  0  0  0  0
 18 37  1  0  0  0  0
 18 38  1  0  0  0  0
M  END
> <s_m_source_file>
AV-unprocessed.smi

> <i_m_source_file_index>
3292

> <i_lp_mmshare_version>
43012

> <i_f3d_flags>
0

> <s_epik_input>
W2NIXTFuW2NIXVtjSF1uMVtDSDJdW0NAQEhdKFtDSDNdKVtOSF1DKD1PKVtOSF1bQ0gyXVtDQEBIXTJbQ0gyXVtDSDJdT1tDSDJdMg==

> <s_epik_cmdline>
J2VwaWtfcHl0aG9uJywgJy1waCcsICc3LjAnLCAnLXRuJywgJzgnLCAnLW1hJywgJzIwMCcsICctbWV0YWxfYmluZGluZycsICctaW1hZScsICc8aW5maWxlLm1hZT4nLCAnLW9tYWUnLCAnPG91dGZpbGUubWFlPic=

> <r_lp_tautomer_probability>
1

> <r_epik_Ionization_Penalty>
0.621291

> <r_epik_Ionization_Penalty_Charging>
0.621234

> <r_epik_Ionization_Penalty_Neutral>
5.72199e-05

> <r_epik_State_Penalty>
0.637278

> <r_epik_Charging_Adjusted_Penalty>
1.25851

> <i_epik_Tot_Q>
0

> <i_epik_Tot_abs_Q>
0

> <r_epik_Metal_State_Penalty>
0.306757

> <b_epik_Metal_Only>
0

> <s_lp_Force_Field>
OPLS_2005

> <r_lp_Energy>
18.0695

> <b_lp_Chiralities_Consistent>
1

> <s_lp_Variant>
AV-unprocessed.smi:3292-7

> <Gold.Version>
5.8.1

> <Gold.Id.Protein>
6NUR|6NUR_protein|mol2

> <Gold.PLP.Fitness>
43.8027

> <Gold.PLP.PLP>
-28.6795

> <Gold.PLP.part.hbond>
-3.6193

> <Gold.PLP.part.metal>
0.0000

> <Gold.PLP.part.buried>
-0.9361

> <Gold.PLP.part.nonpolar>
-24.4221

> <Gold.PLP.part.repulsive>
0.2807

> <Gold.PLP.ligand.clash>
0.0000

> <Gold.PLP.ligand.torsion>
0.6973

> <Gold.PLP.Chemscore.Hbond>
2.8240

> <Gold.PLP.Chemscore.CHOScore>
2.6720

> <Gold.PLP.Chemscore.Metal>
0.0000

> <Gold.Chemscore.Hbonds>
donor molecule, donor type, donor heavy atom, donor atom, acceptor molecule, acceptor atom, score
      L1  H     9    28       P1  7948  0.86
      L1  H    12    29       P1  7948  0.49
      P1  H  7989  7998       L1    17  0.82
      P1  H 10785 10796       L1     7  0.30
      L1  C     6    26       P1 10186  0.57
      L1  C     6    26       P1 10952  0.84
      L1  C     8    27       P1 10747  1.00

> <Gold.PLP.Chemscore.Internal.Correction>
0.0296

> <Gold.Rescore>
     Score         DG    S(hbond)    S(metal)    S(lipo)     H(rot)  DE(clash)    DE(int)     intcor
     15.45     -16.76       2.87        0.00      61.62       2.16       0.73       0.58       ----

> <Gold.Chemscore.Fitness>
15.4476

> <Gold.Chemscore.DG>
-16.7648

> <Gold.Chemscore.ZeroCoef>
-5.4800

> <Gold.Chemscore.Hbond>
2.8740

> <Gold.Chemscore.Metal>
0.0000

> <Gold.Chemscore.Lipo>
61.6188

> <Gold.Chemscore.Internal_Hbond>
0.0000

> <Gold.Chemscore.DEClash>
0.7328

> <Gold.Chemscore.DEInternal>
0.5844

> <Gold.Chemscore.Rot>
2.1577

> <Gold.Chemscore.Internal.Correction>
   9.000000E+99

> <Gold.Chemscore.Hbonds>
donor molecule, donor type, donor heavy atom, donor atom, acceptor molecule, acceptor atom, score
      L1  H     9    28       P1  7948  0.82
      L1  H    12    29       P1  7948  0.48
      P1  H  7989  7998       L1    17  0.70
      P1  H 10785 10796       L1     7  0.05

> <Gold.Chemscore.Hbond.Weighted>
-9.5991

> <Gold.Chemscore.Metal.Weighted>
-0.0000

> <Gold.Chemscore.Lipo.Weighted>
-7.2094

> <Gold.Chemscore.Internal_Hbond.Weighted>
0.0000

> <Gold.Chemscore.DEClash.Weighted>
0.7328

> <Gold.Chemscore.DEInternal.Weighted>
0.5844

> <Gold.Chemscore.Rot.Weighted>
5.5237

> <Gold.Chemscore.Internal.Correction.Weighted>
   9.000000E+99

> <Gold.Protein.RotatedTorsions>
[ 6907 6896 6895 6894 ] final  162.17 input  -60.11 | X-H torsion
[ 7974 7965 7964 7962 ] final  -13.79 input  175.53 | X-H torsion
[ 8008 7997 7996 7995 ] final   87.83 input   59.86 | X-H torsion
[ 10167 10162 10161 10158 ] final -111.94 input  -65.29 | X-H torsion
[ 10718 10713 10712 10709 ] final  -45.34 input   66.30 | X-H torsion
[ 10763 10752 10751 10750 ] final  152.25 input  -60.55 | X-H torsion
[ 11005 11000 10999 10996 ] final   89.61 input  -57.11 | X-H torsion

> <Gold.Protein.ActiveResidues>
 VAL166  LYS551  ARG553  GLY616  TRP617  ASP618  TYR619  PRO620  LYS621  CYS622 
 ASP623  PHE694  ASN695  SER759  ASP760  ASP761  ALA762  ILE779  LEU786  VAL792 
 PHE793  MET794  SER795  GLU796  ALA797  LYS798  CYS799  TRP800  GLU811  SER814 

> <Gold.Protein.RotatedAtoms>
  151.9445  133.3647  159.3976 H   0  0  0  0  0  0  0  0  0  0  0  0  # atno 6907 bound_to 6896
  150.6992  134.4405  159.5299 H   0  0  0  0  0  0  0  0  0  0  0  0  # atno 6908 bound_to 6896
  152.2068  134.8538  160.0552 H   0  0  0  0  0  0  0  0  0  0  0  0  # atno 6909 bound_to 6896
  146.2100  140.3254  142.8394 H   0  0  0  0  0  0  0  0  0  0  0  0  # atno 7974 bound_to 7965
  155.9802  140.3378  155.6656 H   0  0  0  0  0  0  0  0  0  0  0  0  # atno 8008 bound_to 7997
  155.6559  140.0710  157.2589 H   0  0  0  0  0  0  0  0  0  0  0  0  # atno 8009 bound_to 7997
  154.4190  140.1717  156.1712 H   0  0  0  0  0  0  0  0  0  0  0  0  # atno 8010 bound_to 7997
  140.1281  143.4384  152.1646 H   0  0  0  0  0  0  0  0  0  0  0  0  # atno 10167 bound_to 10162
  156.2293  130.4171  149.8894 H   0  0  0  0  0  0  0  0  0  0  0  0  # atno 10718 bound_to 10713
  154.1170  135.2835  155.3217 H   0  0  0  0  0  0  0  0  0  0  0  0  # atno 10763 bound_to 10752
  154.6450  135.5389  153.7837 H   0  0  0  0  0  0  0  0  0  0  0  0  # atno 10764 bound_to 10752
  153.0326  135.6496  154.1326 H   0  0  0  0  0  0  0  0  0  0  0  0  # atno 10765 bound_to 10752
  139.8872  134.8562  156.3166 H   0  0  0  0  0  0  0  0  0  0  0  0  # atno 11005 bound_to 11000
  144.8890  140.7499  143.5939 LP  0  0  0  0  0  0  0  0  0  0  0  0  # atno 17320 bound_to 7965
  145.3176  139.1798  143.4605 LP  0  0  0  0  0  0  0  0  0  0  0  0  # atno 17321 bound_to 7965
  139.5534  144.7354  151.4368 LP  0  0  0  0  0  0  0  0  0  0  0  0  # atno 17342 bound_to 10162
  140.6833  143.8032  150.7151 LP  0  0  0  0  0  0  0  0  0  0  0  0  # atno 17343 bound_to 10162
  156.6514  130.8745  151.3532 LP  0  0  0  0  0  0  0  0  0  0  0  0  # atno 17370 bound_to 10713
  157.7125  130.9458  150.1140 LP  0  0  0  0  0  0  0  0  0  0  0  0  # atno 17371 bound_to 10713
  140.9815  133.7264  156.0678 LP  0  0  0  0  0  0  0  0  0  0  0  0  # atno 17394 bound_to 11000
  140.7743  134.3797  157.5501 LP  0  0  0  0  0  0  0  0  0  0  0  0  # atno 17395 bound_to 11000

$$$$
