AV-unprocessed.smi:1563|AV-procd|sdf|6292|dock7
  -GOLD-   22720 6493D 1   1.00000     0.00000
 Structure written by MMmdl.
 44 45  0  0  0  0  0  0  0  0  2 V2000
  147.8293  133.3255  153.9497 C   0  0  0  0  0  0  0  0  0  0  0  0
  148.3892  134.3289  154.9517 C   0  0  0  0  0  0  0  0  0  0  0  0
  148.1005  134.2365  156.1450 O   0  0  0  0  0  0  0  0  0  0  0  0
  149.1863  135.2857  154.4520 N   0  0  0  0  0  0  0  0  0  0  0  0
  149.8190  136.3399  155.2364 C   0  0  1  0  0  0  0  0  0  0  0  0
  150.3463  135.7886  156.5817 C   0  0  0  0  0  0  0  0  0  0  0  0
  151.1742  136.8374  157.3532 C   0  0  0  0  0  0  0  0  0  0  0  0
  152.2228  137.5013  156.4409 C   0  0  0  0  0  0  0  0  0  0  0  0
  151.5318  138.0582  155.2672 N   0  0  0  0  0  0  0  0  0  0  0  0
  151.1829  139.3557  155.0827 C   0  0  0  0  0  0  0  0  0  0  0  0
  150.5578  139.7505  154.0972 O   0  0  0  0  0  0  0  0  0  0  0  0
  151.4915  140.1713  156.1070 N   0  0  0  0  0  0  0  0  0  0  0  0
  151.0293  141.5496  156.2602 C   0  0  0  0  0  0  0  0  0  0  0  0
  150.3486  141.7911  157.6247 C   0  0  0  0  0  0  0  0  0  0  0  0
  150.9499  142.9360  158.4246 C   0  0  0  0  0  0  0  0  0  0  0  0
  151.9278  142.7247  159.4217 C   0  0  0  0  0  0  0  0  0  0  0  0
  152.4145  143.8263  160.1559 C   0  0  0  0  0  0  0  0  0  0  0  0
  151.9148  145.1150  159.8782 C   0  0  0  0  0  0  0  0  0  0  0  0
  150.9464  145.2708  158.8655 C   0  0  0  0  0  0  0  0  0  0  0  0
  150.5072  144.1911  158.1821 N   0  3  0  0  0  0  0  0  0  0  0  0
  150.9650  136.9906  154.4363 C   0  0  0  0  0  0  0  0  0  0  0  0
  148.6112  132.9765  153.2749 H   0  0  0  0  0  0  0  0  0  0  0  0
  147.0398  133.7858  153.3552 H   0  0  0  0  0  0  0  0  0  0  0  0
  147.4111  132.4588  154.4625 H   0  0  0  0  0  0  0  0  0  0  0  0
  149.3667  135.2833  153.4584 H   0  0  0  0  0  0  0  0  0  0  0  0
  149.0815  137.1169  155.4424 H   0  0  0  0  0  0  0  0  0  0  0  0
  149.5192  135.4396  157.2009 H   0  0  0  0  0  0  0  0  0  0  0  0
  150.9759  134.9184  156.3906 H   0  0  0  0  0  0  0  0  0  0  0  0
  150.5087  137.6016  157.7549 H   0  0  0  0  0  0  0  0  0  0  0  0
  151.6611  136.3717  158.2102 H   0  0  0  0  0  0  0  0  0  0  0  0
  152.8009  138.2413  156.9952 H   0  0  0  0  0  0  0  0  0  0  0  0
  152.9503  136.7579  156.1114 H   0  0  0  0  0  0  0  0  0  0  0  0
  152.0098  139.7779  156.8791 H   0  0  0  0  0  0  0  0  0  0  0  0
  151.8865  142.2150  156.1557 H   0  0  0  0  0  0  0  0  0  0  0  0
  150.3452  141.8132  155.4520 H   0  0  0  0  0  0  0  0  0  0  0  0
  149.2893  141.9970  157.4660 H   0  0  0  0  0  0  0  0  0  0  0  0
  150.3913  140.8805  158.2233 H   0  0  0  0  0  0  0  0  0  0  0  0
  152.2928  141.7304  159.6330 H   0  0  0  0  0  0  0  0  0  0  0  0
  153.1537  143.6839  160.9306 H   0  0  0  0  0  0  0  0  0  0  0  0
  152.2673  145.9698  160.4369 H   0  0  0  0  0  0  0  0  0  0  0  0
  150.5078  146.2181  158.5885 H   0  0  0  0  0  0  0  0  0  0  0  0
  151.7358  136.2555  154.1985 H   0  0  0  0  0  0  0  0  0  0  0  0
  150.5993  137.3569  153.4756 H   0  0  0  0  0  0  0  0  0  0  0  0
  149.7964  144.3269  157.4629 H   0  0  0  0  0  0  0  0  0  0  0  0
  1  2  1  0  0  0  0
  1 22  1  0  0  0  0
  1 23  1  0  0  0  0
  1 24  1  0  0  0  0
  2  3  2  0  0  0  0
  2  4  1  0  0  0  0
  4  5  1  0  0  0  0
  4 25  1  0  0  0  0
  5 21  1  0  0  0  0
  5  6  1  0  0  0  0
  5 26  1  0  0  0  0
  6  7  1  0  0  0  0
  6 27  1  0  0  0  0
  6 28  1  0  0  0  0
  7  8  1  0  0  0  0
  7 29  1  0  0  0  0
  7 30  1  0  0  0  0
  8  9  1  0  0  0  0
  8 31  1  0  0  0  0
  8 32  1  0  0  0  0
  9 10  1  0  0  0  0
  9 21  1  0  0  0  0
 10 11  2  0  0  0  0
 10 12  1  0  0  0  0
 12 13  1  0  0  0  0
 12 33  1  0  0  0  0
 13 14  1  0  0  0  0
 13 34  1  0  0  0  0
 13 35  1  0  0  0  0
 14 15  1  0  0  0  0
 14 36  1  0  0  0  0
 14 37  1  0  0  0  0
 15 20  1  0  0  0  0
 15 16  2  0  0  0  0
 16 17  1  0  0  0  0
 16 38  1  0  0  0  0
 17 18  2  0  0  0  0
 17 39  1  0  0  0  0
 18 19  1  0  0  0  0
 18 40  1  0  0  0  0
 19 20  2  0  0  0  0
 19 41  1  0  0  0  0
 20 44  1  0  0  0  0
 21 42  1  0  0  0  0
 21 43  1  0  0  0  0
M  CHG  1  20   1
M  END
> <s_m_source_file>
AV-unprocessed.smi

> <i_m_source_file_index>
1563

> <i_lp_mmshare_version>
43012

> <i_f3d_flags>
0

> <s_epik_input>
W0NIM11DKD1PKVtOSF1bQ0BASF0xW0NIMl1bQ0gyXVtDSDJdTihbQ0gyXTEpQyg9TylbTkhdW0NIMl1bQ0gyXWMyW2NIXVtjSF1bY0hdW2NIXW4y

> <s_epik_cmdline>
J2VwaWtfcHl0aG9uJywgJy1waCcsICc3LjAnLCAnLXRuJywgJzgnLCAnLW1hJywgJzIwMCcsICctbWV0YWxfYmluZGluZycsICctaW1hZScsICc8aW5maWxlLm1hZT4nLCAnLW9tYWUnLCAnPG91dGZpbGUubWFlPic=

> <r_epik_Ionization_Penalty>
1.56048

> <r_epik_Ionization_Penalty_Charging>
1.56043

> <r_epik_Ionization_Penalty_Neutral>
4.90601e-05

> <r_epik_State_Penalty>
1.65539

> <r_epik_Charging_Adjusted_Penalty>
3.21583

> <i_epik_Tot_Q>
1

> <i_epik_Tot_abs_Q>
1

> <r_epik_Metal_State_Penalty>
1.6969

> <b_epik_Metal_Only>
0

> <s_lp_Force_Field>
OPLS_2005

> <r_lp_Energy>
29.938

> <b_lp_Chiralities_Consistent>
1

> <s_lp_Variant>
AV-unprocessed.smi:1563-4

> <Gold.Version>
5.8.1

> <Gold.Id.Protein>
6NUR|6NUR_protein|mol2

> <Gold.PLP.Fitness>
46.9494

> <Gold.PLP.PLP>
-37.6814

> <Gold.PLP.part.hbond>
-3.2728

> <Gold.PLP.part.metal>
0.0000

> <Gold.PLP.part.buried>
-4.4871

> <Gold.PLP.part.nonpolar>
-30.4758

> <Gold.PLP.part.repulsive>
0.6422

> <Gold.PLP.ligand.clash>
0.0000

> <Gold.PLP.ligand.torsion>
1.0284

> <Gold.PLP.Chemscore.Hbond>
3.7480

> <Gold.PLP.Chemscore.CHOScore>
0.0000

> <Gold.PLP.Chemscore.Metal>
0.0000

> <Gold.Chemscore.Hbonds>
donor molecule, donor type, donor heavy atom, donor atom, acceptor molecule, acceptor atom, score
      L1  H     4    25       P1  7948  0.75
      L1  H    20    44       P1  8028  2.00
      P1  H  7989  7998       L1    11  1.00

> <Gold.PLP.Chemscore.Internal.Correction>
0.0808

> <Gold.Rescore>
     Score         DG    S(hbond)    S(metal)    S(lipo)     H(rot)  DE(clash)    DE(int)     intcor
     17.89     -20.50       2.69        0.00      90.18       1.77       0.03       2.58       ----

> <Gold.Chemscore.Fitness>
17.8908

> <Gold.Chemscore.DG>
-20.4986

> <Gold.Chemscore.ZeroCoef>
-5.4800

> <Gold.Chemscore.Hbond>
2.6914

> <Gold.Chemscore.Metal>
0.0000

> <Gold.Chemscore.Lipo>
90.1758

> <Gold.Chemscore.Internal_Hbond>
0.0000

> <Gold.Chemscore.DEClash>
0.0251

> <Gold.Chemscore.DEInternal>
2.5827

> <Gold.Chemscore.Rot>
1.7661

> <Gold.Chemscore.Internal.Correction>
   9.000000E+99

> <Gold.Chemscore.Hbonds>
donor molecule, donor type, donor heavy atom, donor atom, acceptor molecule, acceptor atom, score
      L1  H     4    25       P1  7948  0.13
      L1  H    20    44       P1  8028  0.24
      P1  H  7989  7998       L1    11  0.30

> <Gold.Chemscore.Hbond.Weighted>
-8.9891

> <Gold.Chemscore.Metal.Weighted>
-0.0000

> <Gold.Chemscore.Lipo.Weighted>
-10.5506

> <Gold.Chemscore.Internal_Hbond.Weighted>
0.0000

> <Gold.Chemscore.DEClash.Weighted>
0.0251

> <Gold.Chemscore.DEInternal.Weighted>
2.5827

> <Gold.Chemscore.Rot.Weighted>
4.5211

> <Gold.Chemscore.Internal.Correction.Weighted>
   9.000000E+99

> <Gold.Protein.RotatedTorsions>
[ 6907 6896 6895 6894 ] final  -87.87 input  -60.11 | X-H torsion
[ 7974 7965 7964 7962 ] final  -19.22 input  175.53 | X-H torsion
[ 8008 7997 7996 7995 ] final -159.11 input   59.86 | X-H torsion
[ 10167 10162 10161 10158 ] final  -37.11 input  -65.29 | X-H torsion
[ 10718 10713 10712 10709 ] final  132.58 input   66.30 | X-H torsion
[ 10763 10752 10751 10750 ] final  102.02 input  -60.55 | X-H torsion
[ 11005 11000 10999 10996 ] final  127.51 input  -57.11 | X-H torsion

> <Gold.Protein.ActiveResidues>
 VAL166  LYS551  ARG553  GLY616  TRP617  ASP618  TYR619  PRO620  LYS621  CYS622 
 ASP623  PHE694  ASN695  SER759  ASP760  ASP761  ALA762  ILE779  LEU786  VAL792 
 PHE793  MET794  SER795  GLU796  ALA797  LYS798  CYS799  TRP800  GLU811  SER814 

> <Gold.Protein.RotatedAtoms>
  150.6867  134.2829  159.4634 H   0  0  0  0  0  0  0  0  0  0  0  0  # atno 6907 bound_to 6896
  152.0741  134.9511  160.0583 H   0  0  0  0  0  0  0  0  0  0  0  0  # atno 6908 bound_to 6896
  152.0890  133.4156  159.4572 H   0  0  0  0  0  0  0  0  0  0  0  0  # atno 6909 bound_to 6896
  146.1852  140.4032  142.8479 H   0  0  0  0  0  0  0  0  0  0  0  0  # atno 7974 bound_to 7965
  155.7576  140.0835  157.2171 H   0  0  0  0  0  0  0  0  0  0  0  0  # atno 8008 bound_to 7997
  154.4006  140.1549  156.2852 H   0  0  0  0  0  0  0  0  0  0  0  0  # atno 8009 bound_to 7997
  155.8870  140.3417  155.5931 H   0  0  0  0  0  0  0  0  0  0  0  0  # atno 8010 bound_to 7997
  140.7126  143.3364  151.2454 H   0  0  0  0  0  0  0  0  0  0  0  0  # atno 10167 bound_to 10162
  157.4857  131.1088  150.9623 H   0  0  0  0  0  0  0  0  0  0  0  0  # atno 10718 bound_to 10713
  153.3341  135.4025  155.1519 H   0  0  0  0  0  0  0  0  0  0  0  0  # atno 10763 bound_to 10752
  154.8629  135.3618  154.5431 H   0  0  0  0  0  0  0  0  0  0  0  0  # atno 10764 bound_to 10752
  153.5872  135.7075  153.5498 H   0  0  0  0  0  0  0  0  0  0  0  0  # atno 10765 bound_to 10752
  139.9511  134.9622  156.8865 H   0  0  0  0  0  0  0  0  0  0  0  0  # atno 11005 bound_to 11000
  144.8385  140.6820  143.6245 LP  0  0  0  0  0  0  0  0  0  0  0  0  # atno 17320 bound_to 7965
  145.3959  139.1607  143.4204 LP  0  0  0  0  0  0  0  0  0  0  0  0  # atno 17321 bound_to 7965
  139.6860  143.9773  152.2834 LP  0  0  0  0  0  0  0  0  0  0  0  0  # atno 17342 bound_to 10162
  139.9419  144.6676  150.8258 LP  0  0  0  0  0  0  0  0  0  0  0  0  # atno 17343 bound_to 10162
  157.0342  130.5723  149.5347 LP  0  0  0  0  0  0  0  0  0  0  0  0  # atno 17370 bound_to 10713
  156.0145  130.5239  150.8093 LP  0  0  0  0  0  0  0  0  0  0  0  0  # atno 17371 bound_to 10713
  140.5717  134.0437  155.7433 LP  0  0  0  0  0  0  0  0  0  0  0  0  # atno 17394 bound_to 11000
  141.1174  133.9518  157.2796 LP  0  0  0  0  0  0  0  0  0  0  0  0  # atno 17395 bound_to 11000

$$$$
