AV-unprocessed.smi:663|AV-procd|sdf|3250|dock4
  -GOLD-   22720 0203D 1   1.00000     0.00000
 Structure written by MMmdl.
 29 30  0  0  0  0  0  0  0  0  2 V2000
  150.2664  138.8682  156.0887 N   0  0  0  0  0  0  0  0  0  0  0  0
  150.8180  139.9595  155.5520 C   0  0  0  0  0  0  0  0  0  0  0  0
  151.7352  139.8975  154.7359 O   0  0  0  0  0  0  0  0  0  0  0  0
  150.2678  141.3174  156.0040 C   0  0  0  0  0  0  0  0  0  0  0  0
  148.7238  141.4050  155.9815 C   0  0  1  0  0  0  0  0  0  0  0  0
  148.2575  142.4068  156.9430 N   0  0  0  0  0  0  0  0  0  0  0  0
  147.5232  142.1921  158.0451 C   0  0  0  0  0  0  0  0  0  0  0  0
  147.1586  141.0506  158.3360 O   0  0  0  0  0  0  0  0  0  0  0  0
  147.2664  143.3170  158.7509 N   0  5  0  0  0  0  0  0  0  0  0  0
  146.5213  143.2517  159.8665 C   0  0  0  0  0  0  0  0  0  0  0  0
  145.9884  142.1021  160.3111 N   0  0  0  0  0  0  0  0  0  0  0  0
  145.2546  142.2570  161.4796 N   0  0  0  0  0  0  0  0  0  0  0  0
  145.2470  143.5269  161.8839 C   0  0  0  0  0  0  0  0  0  0  0  0
  146.1285  144.6504  160.8706 S   0  0  0  0  0  0  0  0  0  0  0  0
  148.2280  141.6966  154.5771 C   0  0  0  0  0  0  0  0  0  0  0  0
  146.8396  142.2389  154.3374 C   0  0  0  0  0  0  0  0  0  0  0  0
  147.1822  140.8251  153.9234 C   0  0  0  0  0  0  0  0  0  0  0  0
  150.5811  137.9544  155.7976 H   0  0  0  0  0  0  0  0  0  0  0  0
  149.5196  138.9600  156.7617 H   0  0  0  0  0  0  0  0  0  0  0  0
  150.6403  141.5584  157.0010 H   0  0  0  0  0  0  0  0  0  0  0  0
  150.6853  142.0710  155.3355 H   0  0  0  0  0  0  0  0  0  0  0  0
  148.3260  140.4251  156.2524 H   0  0  0  0  0  0  0  0  0  0  0  0
  148.5232  143.3626  156.7568 H   0  0  0  0  0  0  0  0  0  0  0  0
  144.7157  143.8049  162.7818 H   0  0  0  0  0  0  0  0  0  0  0  0
  149.0036  142.0742  153.9130 H   0  0  0  0  0  0  0  0  0  0  0  0
  146.1905  142.3672  155.2015 H   0  0  0  0  0  0  0  0  0  0  0  0
  146.7198  142.9804  153.5501 H   0  0  0  0  0  0  0  0  0  0  0  0
  147.2913  140.6234  152.8598 H   0  0  0  0  0  0  0  0  0  0  0  0
  146.7581  140.0136  154.5116 H   0  0  0  0  0  0  0  0  0  0  0  0
  1  2  1  0  0  0  0
  1 18  1  0  0  0  0
  1 19  1  0  0  0  0
  2  3  2  0  0  0  0
  2  4  1  0  0  0  0
  4  5  1  0  0  0  0
  4 20  1  0  0  0  0
  4 21  1  0  0  0  0
  5  6  1  0  0  0  0
  5 15  1  0  0  0  0
  5 22  1  0  0  0  0
  6  7  1  0  0  0  0
  6 23  1  0  0  0  0
  7  8  2  0  0  0  0
  7  9  1  0  0  0  0
  9 10  1  0  0  0  0
 10 14  1  0  0  0  0
 10 11  2  0  0  0  0
 11 12  1  0  0  0  0
 12 13  2  0  0  0  0
 13 14  1  0  0  0  0
 13 24  1  0  0  0  0
 15 17  1  0  0  0  0
 15 16  1  0  0  0  0
 15 25  1  0  0  0  0
 16 17  1  0  0  0  0
 16 26  1  0  0  0  0
 16 27  1  0  0  0  0
 17 28  1  0  0  0  0
 17 29  1  0  0  0  0
M  CHG  1   9  -1
M  END
> <s_m_source_file>
AV-unprocessed.smi

> <i_m_source_file_index>
663

> <i_lp_mmshare_version>
43012

> <i_f3d_flags>
0

> <s_epik_input>
W05IMl1DKD1PKVtDSDJdW0NAQEhdKFtDSF0xW0NIMl1bQ0gyXTEpW05IXUMoPU8pW05IXWMybm5bY0hdczI=

> <s_epik_cmdline>
J2VwaWtfcHl0aG9uJywgJy1waCcsICc3LjAnLCAnLXRuJywgJzgnLCAnLW1hJywgJzIwMCcsICctbWV0YWxfYmluZGluZycsICctaW1hZScsICc8aW5maWxlLm1hZT4nLCAnLW9tYWUnLCAnPG91dGZpbGUubWFlPic=

> <r_lp_tautomer_probability>
1

> <r_epik_Ionization_Penalty>
4.41895

> <r_epik_Ionization_Penalty_Charging>
4.37725

> <r_epik_Ionization_Penalty_Neutral>
0.0416999

> <r_epik_State_Penalty>
4.37688

> <r_epik_Charging_Adjusted_Penalty>
8.75413

> <i_epik_Tot_Q>
-1

> <i_epik_Tot_abs_Q>
1

> <r_epik_Metal_State_Penalty>
0.761195

> <b_epik_Metal_Only>
1

> <s_lp_Force_Field>
OPLS_2005

> <r_lp_Energy>
7.27665

> <b_lp_Chiralities_Consistent>
1

> <s_lp_Variant>
AV-unprocessed.smi:663-4

> <Gold.Version>
5.8.1

> <Gold.Id.Protein>
6NUR|6NUR_protein|mol2

> <Gold.PLP.Fitness>
37.8157

> <Gold.PLP.PLP>
-30.2966

> <Gold.PLP.part.hbond>
-4.8553

> <Gold.PLP.part.metal>
0.0000

> <Gold.PLP.part.buried>
-5.9685

> <Gold.PLP.part.nonpolar>
-21.0019

> <Gold.PLP.part.repulsive>
0.6423

> <Gold.PLP.ligand.clash>
0.0000

> <Gold.PLP.ligand.torsion>
1.3054

> <Gold.PLP.Chemscore.Hbond>
3.0000

> <Gold.PLP.Chemscore.CHOScore>
0.0000

> <Gold.PLP.Chemscore.Metal>
0.0000

> <Gold.Chemscore.Hbonds>
donor molecule, donor type, donor heavy atom, donor atom, acceptor molecule, acceptor atom, score
      L1  H     6    23       P1  8028  1.00
      P1  H  6934  6946       L1    11  1.00
      P1  H  7989  7998       L1     3  1.00

> <Gold.PLP.Chemscore.Internal.Correction>
1.1299

> <Gold.Rescore>
     Score         DG    S(hbond)    S(metal)    S(lipo)     H(rot)  DE(clash)    DE(int)     intcor
      8.76     -11.64       2.24        0.00      43.00       2.49       0.13       2.75       ----

> <Gold.Chemscore.Fitness>
8.7604

> <Gold.Chemscore.DG>
-11.6437

> <Gold.Chemscore.ZeroCoef>
-5.4800

> <Gold.Chemscore.Hbond>
2.2449

> <Gold.Chemscore.Metal>
0.0000

> <Gold.Chemscore.Lipo>
42.9964

> <Gold.Chemscore.Internal_Hbond>
0.0000

> <Gold.Chemscore.DEClash>
0.1334

> <Gold.Chemscore.DEInternal>
2.7498

> <Gold.Chemscore.Rot>
2.4863

> <Gold.Chemscore.Internal.Correction>
   9.000000E+99

> <Gold.Chemscore.Hbonds>
donor molecule, donor type, donor heavy atom, donor atom, acceptor molecule, acceptor atom, score
      L1  H     6    23       P1  8028  0.43
      P1  H  6934  6946       L1    11  0.25
      P1  H  7989  7998       L1     3  0.88

> <Gold.Chemscore.Hbond.Weighted>
-7.4980

> <Gold.Chemscore.Metal.Weighted>
-0.0000

> <Gold.Chemscore.Lipo.Weighted>
-5.0306

> <Gold.Chemscore.Internal_Hbond.Weighted>
0.0000

> <Gold.Chemscore.DEClash.Weighted>
0.1334

> <Gold.Chemscore.DEInternal.Weighted>
2.7498

> <Gold.Chemscore.Rot.Weighted>
6.3648

> <Gold.Chemscore.Internal.Correction.Weighted>
   9.000000E+99

> <Gold.Protein.RotatedTorsions>
[ 6907 6896 6895 6894 ] final  119.48 input  -60.11 | X-H torsion
[ 7974 7965 7964 7962 ] final   93.48 input  175.53 | X-H torsion
[ 8008 7997 7996 7995 ] final -162.12 input   59.86 | X-H torsion
[ 10167 10162 10161 10158 ] final  -38.49 input  -65.29 | X-H torsion
[ 10718 10713 10712 10709 ] final -130.31 input   66.30 | X-H torsion
[ 10763 10752 10751 10750 ] final   71.56 input  -60.55 | X-H torsion
[ 11005 11000 10999 10996 ] final -131.33 input  -57.11 | X-H torsion

> <Gold.Protein.ActiveResidues>
 VAL166  LYS551  ARG553  GLY616  TRP617  ASP618  TYR619  PRO620  LYS621  CYS622 
 ASP623  PHE694  ASN695  SER759  ASP760  ASP761  ALA762  ILE779  LEU786  VAL792 
 PHE793  MET794  SER795  GLU796  ALA797  LYS798  CYS799  TRP800  GLU811  SER814 

> <Gold.Protein.RotatedAtoms>
  152.4469  133.7553  159.6716 H   0  0  0  0  0  0  0  0  0  0  0  0  # atno 6907 bound_to 6896
  150.8371  133.7986  159.3081 H   0  0  0  0  0  0  0  0  0  0  0  0  # atno 6908 bound_to 6896
  151.5622  135.1067  160.0027 H   0  0  0  0  0  0  0  0  0  0  0  0  # atno 6909 bound_to 6896
  145.4783  139.2279  143.2896 H   0  0  0  0  0  0  0  0  0  0  0  0  # atno 7974 bound_to 7965
  155.8022  140.0893  157.1951 H   0  0  0  0  0  0  0  0  0  0  0  0  # atno 8008 bound_to 7997
  154.3981  140.1470  156.3346 H   0  0  0  0  0  0  0  0  0  0  0  0  # atno 8009 bound_to 7997
  155.8451  140.3437  155.5659 H   0  0  0  0  0  0  0  0  0  0  0  0  # atno 8010 bound_to 7997
  140.7090  143.3274  151.2649 H   0  0  0  0  0  0  0  0  0  0  0  0  # atno 10167 bound_to 10162
  156.2132  130.6931  151.0673 H   0  0  0  0  0  0  0  0  0  0  0  0  # atno 10718 bound_to 10713
  153.0406  135.5132  154.7611 H   0  0  0  0  0  0  0  0  0  0  0  0  # atno 10763 bound_to 10752
  154.6552  135.2930  154.9939 H   0  0  0  0  0  0  0  0  0  0  0  0  # atno 10764 bound_to 10752
  154.0809  135.6664  153.4890 H   0  0  0  0  0  0  0  0  0  0  0  0  # atno 10765 bound_to 10752
  140.9268  134.1372  157.4268 H   0  0  0  0  0  0  0  0  0  0  0  0  # atno 11005 bound_to 11000
  146.2356  140.5568  142.8956 LP  0  0  0  0  0  0  0  0  0  0  0  0  # atno 17320 bound_to 7965
  144.7904  140.6020  143.6545 LP  0  0  0  0  0  0  0  0  0  0  0  0  # atno 17321 bound_to 7965
  139.6746  143.9961  152.2773 LP  0  0  0  0  0  0  0  0  0  0  0  0  # atno 17342 bound_to 10162
  139.9570  144.6583  150.8116 LP  0  0  0  0  0  0  0  0  0  0  0  0  # atno 17343 bound_to 10162
  157.7049  131.0760  150.6699 LP  0  0  0  0  0  0  0  0  0  0  0  0  # atno 17370 bound_to 10713
  156.6759  130.4553  149.5642 LP  0  0  0  0  0  0  0  0  0  0  0  0  # atno 17371 bound_to 10713
  139.8787  134.9991  156.5936 LP  0  0  0  0  0  0  0  0  0  0  0  0  # atno 17394 bound_to 11000
  140.7915  133.8578  155.8650 LP  0  0  0  0  0  0  0  0  0  0  0  0  # atno 17395 bound_to 11000

$$$$
