AV-unprocessed.smi:33|AV-procd|sdf|203|dock7
  -GOLD-   2262015483D 1   1.00000     0.00000
 Structure written by MMmdl.
 67 72  0  0  0  0  0  0  0  0  1 V2000
  154.4677  140.4128  159.2907 O   0  0  0  0  0  0  0  0  0  0  0  0
  153.2927  140.7021  159.5259 C   0  0  0  0  0  0  0  0  0  0  0  0
  152.2813  139.8125  159.4748 O   0  0  0  0  0  0  0  0  0  0  0  0
  152.5559  138.4386  159.2545 C   0  0  0  0  0  0  0  0  0  0  0  0
  151.5019  137.8587  158.3031 C   0  0  2  0  0  0  0  0  0  0  0  0
  151.4905  136.4361  158.3544 O   0  0  0  0  0  0  0  0  0  0  0  0
  150.9002  135.9305  157.1924 C   0  0  1  0  0  0  0  0  0  0  0  0
  149.5079  135.5016  157.5474 N   0  0  0  0  0  0  0  0  0  0  0  0
  148.9873  134.2297  157.6806 C   0  0  0  0  0  0  0  0  0  0  0  0
  147.7160  134.1705  157.9720 N   0  0  0  0  0  0  0  0  0  0  0  0
  147.3244  135.5006  158.0278 C   0  0  0  0  0  0  0  0  0  0  0  0
  146.0906  136.1572  158.2800 C   0  0  0  0  0  0  0  0  0  0  0  0
  144.9459  135.4868  158.5449 N   0  0  0  0  0  0  0  0  0  0  0  0
  144.8849  134.7496  159.8152 C   0  0  0  0  0  0  0  0  0  0  0  0
  144.1221  133.7876  159.9245 O   0  0  0  0  0  0  0  0  0  0  0  0
  145.7734  135.1345  160.9636 C   0  0  0  0  0  0  0  0  0  0  0  0
  145.9906  136.4971  161.2640 C   0  0  0  0  0  0  0  0  0  0  0  0
  146.8328  136.8629  162.3319 C   0  0  0  0  0  0  0  0  0  0  0  0
  147.4781  135.8696  163.0933 C   0  0  0  0  0  0  0  0  0  0  0  0
  147.2893  134.5101  162.7800 C   0  0  0  0  0  0  0  0  0  0  0  0
  146.4469  134.1435  161.7129 C   0  0  0  0  0  0  0  0  0  0  0  0
  143.8810  135.5525  157.5331 C   0  0  0  0  0  0  0  0  0  0  0  0
  142.7112  135.3575  157.8693 O   0  0  0  0  0  0  0  0  0  0  0  0
  144.1976  135.9090  156.1081 C   0  0  0  0  0  0  0  0  0  0  0  0
  143.3080  136.7208  155.3704 C   0  0  0  0  0  0  0  0  0  0  0  0
  143.5890  137.0463  154.0294 C   0  0  0  0  0  0  0  0  0  0  0  0
  144.7515  136.5469  153.4118 C   0  0  0  0  0  0  0  0  0  0  0  0
  145.6284  135.7141  154.1327 C   0  0  0  0  0  0  0  0  0  0  0  0
  145.3484  135.3886  155.4740 C   0  0  0  0  0  0  0  0  0  0  0  0
  146.0686  137.5143  158.2417 N   0  0  0  0  0  0  0  0  0  0  0  0
  147.1917  138.1873  157.9730 C   0  0  0  0  0  0  0  0  0  0  0  0
  148.4123  137.7085  157.7186 N   0  0  0  0  0  0  0  0  0  0  0  0
  148.4361  136.3439  157.7569 C   0  0  0  0  0  0  0  0  0  0  0  0
  150.8876  137.0724  156.1579 C   0  0  2  0  0  0  0  0  0  0  0  0
  151.3988  136.6994  154.8942 O   0  0  0  0  0  0  0  0  0  0  0  0
  151.7774  138.1142  156.8226 C   0  0  2  0  0  0  0  0  0  0  0  0
  153.0670  137.8636  156.5762 F   0  0  0  0  0  0  0  0  0  0  0  0
  152.8420  142.0748  159.8975 C   0  0  0  0  0  0  0  0  0  0  0  0
  152.6687  143.0452  158.8828 C   0  0  0  0  0  0  0  0  0  0  0  0
  152.2470  144.3505  159.2026 C   0  0  0  0  0  0  0  0  0  0  0  0
  151.9935  144.7015  160.5413 C   0  0  0  0  0  0  0  0  0  0  0  0
  152.1611  143.7451  161.5598 C   0  0  0  0  0  0  0  0  0  0  0  0
  152.5825  142.4392  161.2420 C   0  0  0  0  0  0  0  0  0  0  0  0
  153.5463  138.3431  158.8069 H   0  0  0  0  0  0  0  0  0  0  0  0
  152.5659  137.8941  160.1997 H   0  0  0  0  0  0  0  0  0  0  0  0
  150.5170  138.2491  158.5610 H   0  0  0  0  0  0  0  0  0  0  0  0
  151.4192  135.0315  156.8588 H   0  0  0  0  0  0  0  0  0  0  0  0
  149.5775  133.3340  157.5607 H   0  0  0  0  0  0  0  0  0  0  0  0
  145.5001  137.2674  160.6867 H   0  0  0  0  0  0  0  0  0  0  0  0
  146.9839  137.9063  162.5665 H   0  0  0  0  0  0  0  0  0  0  0  0
  148.1228  136.1508  163.9129 H   0  0  0  0  0  0  0  0  0  0  0  0
  147.7914  133.7477  163.3572 H   0  0  0  0  0  0  0  0  0  0  0  0
  146.3130  133.0971  161.4780 H   0  0  0  0  0  0  0  0  0  0  0  0
  142.4127  137.1098  155.8340 H   0  0  0  0  0  0  0  0  0  0  0  0
  142.9117  137.6787  153.4747 H   0  0  0  0  0  0  0  0  0  0  0  0
  144.9664  136.7968  152.3835 H   0  0  0  0  0  0  0  0  0  0  0  0
  146.5157  135.3237  153.6568 H   0  0  0  0  0  0  0  0  0  0  0  0
  146.0259  134.7439  156.0152 H   0  0  0  0  0  0  0  0  0  0  0  0
  147.0992  139.2632  157.9586 H   0  0  0  0  0  0  0  0  0  0  0  0
  149.8791  137.4677  156.0351 H   0  0  0  0  0  0  0  0  0  0  0  0
  150.7553  136.9143  154.2360 H   0  0  0  0  0  0  0  0  0  0  0  0
  151.5650  139.1359  156.5067 H   0  0  0  0  0  0  0  0  0  0  0  0
  152.8580  142.7997  157.8477 H   0  0  0  0  0  0  0  0  0  0  0  0
  152.1187  145.0827  158.4191 H   0  0  0  0  0  0  0  0  0  0  0  0
  151.6710  145.7027  160.7862 H   0  0  0  0  0  0  0  0  0  0  0  0
  151.9668  144.0134  162.5880 H   0  0  0  0  0  0  0  0  0  0  0  0
  152.7021  141.7299  162.0479 H   0  0  0  0  0  0  0  0  0  0  0  0
  1  2  2  0  0  0  0
  2  3  1  0  0  0  0
  2 38  1  0  0  0  0
  3  4  1  0  0  0  0
  4  5  1  0  0  0  0
  4 44  1  0  0  0  0
  4 45  1  0  0  0  0
  5 36  1  0  0  0  0
  5  6  1  0  0  0  0
  5 46  1  0  0  0  0
  6  7  1  0  0  0  0
  7  8  1  0  0  0  0
  7 34  1  0  0  0  0
  7 47  1  0  0  0  0
  8 33  1  0  0  0  0
  8  9  1  0  0  0  0
  9 10  2  0  0  0  0
  9 48  1  0  0  0  0
 10 11  1  0  0  0  0
 11 33  2  0  0  0  0
 11 12  1  0  0  0  0
 12 13  1  0  0  0  0
 12 30  2  0  0  0  0
 13 14  1  0  0  0  0
 13 22  1  0  0  0  0
 14 15  2  0  0  0  0
 14 16  1  0  0  0  0
 16 21  1  0  0  0  0
 16 17  2  0  0  0  0
 17 18  1  0  0  0  0
 17 49  1  0  0  0  0
 18 19  2  0  0  0  0
 18 50  1  0  0  0  0
 19 20  1  0  0  0  0
 19 51  1  0  0  0  0
 20 21  2  0  0  0  0
 20 52  1  0  0  0  0
 21 53  1  0  0  0  0
 22 23  2  0  0  0  0
 22 24  1  0  0  0  0
 24 29  1  0  0  0  0
 24 25  2  0  0  0  0
 25 26  1  0  0  0  0
 25 54  1  0  0  0  0
 26 27  2  0  0  0  0
 26 55  1  0  0  0  0
 27 28  1  0  0  0  0
 27 56  1  0  0  0  0
 28 29  2  0  0  0  0
 28 57  1  0  0  0  0
 29 58  1  0  0  0  0
 30 31  1  0  0  0  0
 31 32  2  0  0  0  0
 31 59  1  0  0  0  0
 32 33  1  0  0  0  0
 34 35  1  0  0  0  0
 34 36  1  0  0  0  0
 34 60  1  0  0  0  0
 35 61  1  0  0  0  0
 36 37  1  0  0  0  0
 36 62  1  0  0  0  0
 38 43  1  0  0  0  0
 38 39  2  0  0  0  0
 39 40  1  0  0  0  0
 39 63  1  0  0  0  0
 40 41  2  0  0  0  0
 40 64  1  0  0  0  0
 41 42  1  0  0  0  0
 41 65  1  0  0  0  0
 42 43  2  0  0  0  0
 42 66  1  0  0  0  0
 43 67  1  0  0  0  0
M  END
> <s_m_source_file>
AV-unprocessed.smi

> <i_m_source_file_index>
33

> <i_lp_mmshare_version>
43012

> <i_f3d_flags>
0

> <s_epik_input>
W2NIXTFbY0hdW2NIXVtjSF1bY0hdYzFDKD1PKU9bQ0gyXVtDQEBIXTJPW0NASF0oW0NAQEhdKFtPSF0pW0NAQEhdMkYpbihbY0hdbjMpYyhjMzQpbltjSF1uYzROKEMoPU8pYzVbY0hdW2NIXVtjSF1bY0hdW2NIXTUpQyg9TyljNltjSF1bY0hdW2NIXVtjSF1bY0hdNg==

> <s_epik_cmdline>
J2VwaWtfcHl0aG9uJywgJy1waCcsICc3LjAnLCAnLXRuJywgJzgnLCAnLW1hJywgJzIwMCcsICctbWV0YWxfYmluZGluZycsICctaW1hZScsICc8aW5maWxlLm1hZT4nLCAnLW9tYWUnLCAnPG91dGZpbGUubWFlPic=

> <r_lp_tautomer_probability>
1

> <r_epik_Ionization_Penalty>
0.00067664

> <r_epik_Ionization_Penalty_Charging>
0

> <r_epik_Ionization_Penalty_Neutral>
0.00067664

> <r_epik_State_Penalty>
0.000428095

> <r_epik_Charging_Adjusted_Penalty>
0.000428095

> <i_epik_Tot_Q>
0

> <i_epik_Tot_abs_Q>
0

> <r_epik_Metal_State_Penalty>
-0

> <b_epik_Metal_Only>
0

> <s_epik_Chemistry_Notes>
This compound has an ester and may undergo hydrolysis at high or low pH. This compound contains an acetal/aminal-like group ( X-CH(R)-Y where X, Y are N, S, or O) that may be acid/base labile, releasing an aldehyde.

> <s_lp_Force_Field>
OPLS_2005

> <r_lp_Energy>
70.8142

> <b_lp_Chiralities_Consistent>
1

> <s_lp_Variant>
AV-unprocessed.smi:33-5

> <Gold.Version>
5.8.1

> <Gold.Id.Protein>
6NUR|6NUR_protein|mol2

> <Gold.PLP.Fitness>
58.0066

> <Gold.PLP.PLP>
-56.0683

> <Gold.PLP.part.hbond>
-4.0000

> <Gold.PLP.part.metal>
0.0000

> <Gold.PLP.part.buried>
-8.1482

> <Gold.PLP.part.nonpolar>
-45.5066

> <Gold.PLP.part.repulsive>
0.0123

> <Gold.PLP.ligand.clash>
0.0000

> <Gold.PLP.ligand.torsion>
5.3310

> <Gold.PLP.Chemscore.Hbond>
2.8148

> <Gold.PLP.Chemscore.CHOScore>
0.0000

> <Gold.PLP.Chemscore.Metal>
0.0000

> <Gold.Chemscore.Hbonds>
donor molecule, donor type, donor heavy atom, donor atom, acceptor molecule, acceptor atom, score
      P1  H  6896  6909       L1     6  0.59
      P1  H  7997  8010       L1     1  0.72
      P1  H 10752 10764       L1    35  1.00
      P1  H 11000 11005       L1    23  0.50

> <Gold.PLP.Chemscore.Internal.Correction>
4.1560

> <Gold.Rescore>
     Score         DG    S(hbond)    S(metal)    S(lipo)     H(rot)  DE(clash)    DE(int)     intcor
     16.78     -24.81       2.73        0.00     142.48       2.52       0.04       7.99       ----

> <Gold.Chemscore.Fitness>
16.7839

> <Gold.Chemscore.DG>
-24.8102

> <Gold.Chemscore.ZeroCoef>
-5.4800

> <Gold.Chemscore.Hbond>
2.7316

> <Gold.Chemscore.Metal>
0.0000

> <Gold.Chemscore.Lipo>
142.4766

> <Gold.Chemscore.Internal_Hbond>
0.0000

> <Gold.Chemscore.DEClash>
0.0359

> <Gold.Chemscore.DEInternal>
7.9903

> <Gold.Chemscore.Rot>
2.5247

> <Gold.Chemscore.Internal.Correction>
   9.000000E+99

> <Gold.Chemscore.Hbonds>
donor molecule, donor type, donor heavy atom, donor atom, acceptor molecule, acceptor atom, score
      P1  H  6896  6909       L1     6  0.42
      P1  H  7997  8010       L1     1  0.68
      P1  H 10752 10764       L1    35  0.93
      P1  H 11000 11005       L1    23  0.49

> <Gold.Chemscore.Hbond.Weighted>
-9.1237

> <Gold.Chemscore.Metal.Weighted>
-0.0000

> <Gold.Chemscore.Lipo.Weighted>
-16.6698

> <Gold.Chemscore.Internal_Hbond.Weighted>
0.0000

> <Gold.Chemscore.DEClash.Weighted>
0.0359

> <Gold.Chemscore.DEInternal.Weighted>
7.9903

> <Gold.Chemscore.Rot.Weighted>
6.4633

> <Gold.Chemscore.Internal.Correction.Weighted>
   9.000000E+99

> <Gold.Protein.RotatedTorsions>
[ 6907 6896 6895 6894 ] final  100.93 input  -60.11 | X-H torsion
[ 7974 7965 7964 7962 ] final   54.32 input  175.53 | X-H torsion
[ 8008 7997 7996 7995 ] final    2.82 input   59.86 | X-H torsion
[ 10167 10162 10161 10158 ] final  -12.83 input  -65.29 | X-H torsion
[ 10718 10713 10712 10709 ] final   78.17 input   66.30 | X-H torsion
[ 10763 10752 10751 10750 ] final  -77.60 input  -60.55 | X-H torsion
[ 11005 11000 10999 10996 ] final -133.85 input  -57.11 | X-H torsion

> <Gold.Protein.ActiveResidues>
 VAL166  LYS551  ARG553  GLY616  TRP617  ASP618  TYR619  PRO620  LYS621  CYS622 
 ASP623  PHE694  ASN695  SER759  ASP760  ASP761  ALA762  ILE779  LEU786  VAL792 
 PHE793  MET794  SER795  GLU796  ALA797  LYS798  CYS799  TRP800  GLU811  SER814 

> <Gold.Protein.RotatedAtoms>
  152.5361  134.0202  159.7978 H   0  0  0  0  0  0  0  0  0  0  0  0  # atno 6907 bound_to 6896
  151.0390  133.5715  159.2660 H   0  0  0  0  0  0  0  0  0  0  0  0  # atno 6908 bound_to 6896
  151.2692  135.0686  159.9181 H   0  0  0  0  0  0  0  0  0  0  0  0  # atno 6909 bound_to 6896
  145.9620  139.4068  143.0242 H   0  0  0  0  0  0  0  0  0  0  0  0  # atno 7974 bound_to 7965
  154.6962  140.2663  155.6764 H   0  0  0  0  0  0  0  0  0  0  0  0  # atno 8008 bound_to 7997
  156.2749  140.2781  156.1480 H   0  0  0  0  0  0  0  0  0  0  0  0  # atno 8009 bound_to 7997
  155.0828  140.0373  157.2634 H   0  0  0  0  0  0  0  0  0  0  0  0  # atno 8010 bound_to 7997
  140.7169  143.5490  150.9322 H   0  0  0  0  0  0  0  0  0  0  0  0  # atno 10167 bound_to 10162
  157.6736  130.9856  150.1748 H   0  0  0  0  0  0  0  0  0  0  0  0  # atno 10718 bound_to 10713
  154.5151  135.5758  153.6635 H   0  0  0  0  0  0  0  0  0  0  0  0  # atno 10763 bound_to 10752
  152.9905  135.6168  154.2829 H   0  0  0  0  0  0  0  0  0  0  0  0  # atno 10764 bound_to 10752
  154.2746  135.2852  155.2703 H   0  0  0  0  0  0  0  0  0  0  0  0  # atno 10765 bound_to 10752
  140.9043  134.1650  157.4437 H   0  0  0  0  0  0  0  0  0  0  0  0  # atno 11005 bound_to 11000
  145.8026  140.9763  143.0991 LP  0  0  0  0  0  0  0  0  0  0  0  0  # atno 17320 bound_to 7965
  144.6817  139.9821  143.7483 LP  0  0  0  0  0  0  0  0  0  0  0  0  # atno 17321 bound_to 7965
  139.9214  143.6601  152.3096 LP  0  0  0  0  0  0  0  0  0  0  0  0  # atno 17342 bound_to 10162
  139.7019  144.7633  151.1258 LP  0  0  0  0  0  0  0  0  0  0  0  0  # atno 17343 bound_to 10162
  156.2494  130.3699  149.8249 LP  0  0  0  0  0  0  0  0  0  0  0  0  # atno 17370 bound_to 10713
  156.6026  130.8553  151.3435 LP  0  0  0  0  0  0  0  0  0  0  0  0  # atno 17371 bound_to 10713
  139.8747  134.9910  156.5531 LP  0  0  0  0  0  0  0  0  0  0  0  0  # atno 17394 bound_to 11000
  140.8190  133.8368  155.8879 LP  0  0  0  0  0  0  0  0  0  0  0  0  # atno 17395 bound_to 11000

$$$$
