AV-unprocessed.smi:409|AV-procd|sdf|2506|dock9
  -GOLD-   2262022453D 1   1.00000     0.00000
 Structure written by MMmdl.
 34 35  0  0  0  0  0  0  0  0  2 V2000
  152.5020  140.0313  155.3934 O   0  0  0  0  0  0  0  0  0  0  0  0
  151.3305  140.1893  155.7396 C   0  0  0  0  0  0  0  0  0  0  0  0
  150.1879  139.5210  154.9630 C   0  0  0  0  0  0  0  0  0  0  0  0
  150.2013  138.0537  155.0755 N   0  0  0  0  0  0  0  0  0  0  0  0
  149.0944  137.4335  155.6812 C   0  0  0  0  0  0  0  0  0  0  0  0
  149.0220  136.0969  155.8293 C   0  0  0  0  0  0  0  0  0  0  0  0
  150.1316  135.2872  155.3413 C   0  0  0  0  0  0  0  0  0  0  0  0
  150.0802  134.0649  155.4630 O   0  0  0  0  0  0  0  0  0  0  0  0
  151.1857  135.9363  154.7655 N   0  5  0  0  0  0  0  0  0  0  0  0
  151.2469  137.2970  154.6245 C   0  0  0  0  0  0  0  0  0  0  0  0
  152.2093  137.8629  154.1044 O   0  0  0  0  0  0  0  0  0  0  0  0
  150.9708  140.9121  156.8112 N   0  0  0  0  0  0  0  0  0  0  0  0
  151.8870  141.6277  157.6938 C   0  0  0  0  0  0  0  0  0  0  0  0
  151.8528  141.0295  159.1156 C   0  0  0  0  0  0  0  0  0  0  0  0
  152.7538  141.8186  160.0794 C   0  0  0  0  0  0  0  0  0  0  0  0
  152.3807  143.3092  160.0989 C   0  0  0  0  0  0  0  0  0  0  0  0
  152.4195  143.9089  158.6844 C   0  0  0  0  0  0  0  0  0  0  0  0
  151.5161  143.1225  157.7206 C   0  0  0  0  0  0  0  0  0  0  0  0
  149.2451  139.9229  155.3359 H   0  0  0  0  0  0  0  0  0  0  0  0
  150.2291  139.8163  153.9127 H   0  0  0  0  0  0  0  0  0  0  0  0
  148.3194  138.1047  156.0205 H   0  0  0  0  0  0  0  0  0  0  0  0
  148.1661  135.6360  156.2997 H   0  0  0  0  0  0  0  0  0  0  0  0
  149.9860  140.9840  157.0213 H   0  0  0  0  0  0  0  0  0  0  0  0
  152.9008  141.5393  157.2981 H   0  0  0  0  0  0  0  0  0  0  0  0
  150.8292  141.0329  159.4934 H   0  0  0  0  0  0  0  0  0  0  0  0
  152.1696  139.9863  159.0939 H   0  0  0  0  0  0  0  0  0  0  0  0
  152.6770  141.4026  161.0844 H   0  0  0  0  0  0  0  0  0  0  0  0
  153.7959  141.7068  159.7774 H   0  0  0  0  0  0  0  0  0  0  0  0
  151.3821  143.4304  160.5205 H   0  0  0  0  0  0  0  0  0  0  0  0
  153.0614  143.8548  160.7530 H   0  0  0  0  0  0  0  0  0  0  0  0
  152.1100  144.9539  158.7142 H   0  0  0  0  0  0  0  0  0  0  0  0
  153.4446  143.9003  158.3119 H   0  0  0  0  0  0  0  0  0  0  0  0
  151.5941  143.5452  156.7182 H   0  0  0  0  0  0  0  0  0  0  0  0
  150.4752  143.2406  158.0255 H   0  0  0  0  0  0  0  0  0  0  0  0
  1  2  2  0  0  0  0
  2  3  1  0  0  0  0
  2 12  1  0  0  0  0
  3  4  1  0  0  0  0
  3 19  1  0  0  0  0
  3 20  1  0  0  0  0
  4 10  1  0  0  0  0
  4  5  1  0  0  0  0
  5  6  2  0  0  0  0
  5 21  1  0  0  0  0
  6  7  1  0  0  0  0
  6 22  1  0  0  0  0
  7  8  2  0  0  0  0
  7  9  1  0  0  0  0
  9 10  1  0  0  0  0
 10 11  2  0  0  0  0
 12 13  1  0  0  0  0
 12 23  1  0  0  0  0
 13 18  1  0  0  0  0
 13 14  1  0  0  0  0
 13 24  1  0  0  0  0
 14 15  1  0  0  0  0
 14 25  1  0  0  0  0
 14 26  1  0  0  0  0
 15 16  1  0  0  0  0
 15 27  1  0  0  0  0
 15 28  1  0  0  0  0
 16 17  1  0  0  0  0
 16 29  1  0  0  0  0
 16 30  1  0  0  0  0
 17 18  1  0  0  0  0
 17 31  1  0  0  0  0
 17 32  1  0  0  0  0
 18 33  1  0  0  0  0
 18 34  1  0  0  0  0
M  CHG  1   9  -1
M  END
> <s_m_source_file>
AV-unprocessed.smi

> <i_m_source_file_index>
409

> <i_lp_mmshare_version>
43012

> <i_f3d_flags>
0

> <s_epik_input>
W0NIMl0xW0NIMl1bQ0gyXVtDSDJdW0NIMl1bQ0hdMVtOSF1DKD1PKVtDSDJdbjJbY0hdW2NIXWMoPU8pW25IXWMyPU8=

> <s_epik_cmdline>
J2VwaWtfcHl0aG9uJywgJy1waCcsICc3LjAnLCAnLXRuJywgJzgnLCAnLW1hJywgJzIwMCcsICctbWV0YWxfYmluZGluZycsICctaW1hZScsICc8aW5maWxlLm1hZT4nLCAnLW9tYWUnLCAnPG91dGZpbGUubWFlPic=

> <r_lp_tautomer_probability>
0.999537

> <r_epik_Ionization_Penalty>
3.11464

> <r_epik_Ionization_Penalty_Charging>
2.89611e-08

> <r_epik_Ionization_Penalty_Neutral>
3.11464

> <r_epik_State_Penalty>
3.11372

> <r_epik_Charging_Adjusted_Penalty>
3.11373

> <i_epik_Tot_Q>
-1

> <i_epik_Tot_abs_Q>
1

> <r_epik_Metal_State_Penalty>
0.463005

> <b_epik_Metal_Only>
1

> <s_lp_Force_Field>
OPLS_2005

> <r_lp_Energy>
17.6148

> <b_lp_Chiralities_Consistent>
1

> <s_lp_Variant>
AV-unprocessed.smi:409-2

> <Gold.Version>
5.8.1

> <Gold.Id.Protein>
6NUR|6NUR_protein|mol2

> <Gold.PLP.Fitness>
42.3982

> <Gold.PLP.PLP>
-33.4917

> <Gold.PLP.part.hbond>
-3.7677

> <Gold.PLP.part.metal>
0.0000

> <Gold.PLP.part.buried>
-3.8263

> <Gold.PLP.part.nonpolar>
-26.2332

> <Gold.PLP.part.repulsive>
0.4450

> <Gold.PLP.ligand.clash>
0.0000

> <Gold.PLP.ligand.torsion>
0.0700

> <Gold.PLP.Chemscore.Hbond>
3.0139

> <Gold.PLP.Chemscore.CHOScore>
0.0000

> <Gold.PLP.Chemscore.Metal>
0.0000

> <Gold.Chemscore.Hbonds>
donor molecule, donor type, donor heavy atom, donor atom, acceptor molecule, acceptor atom, score
      P1  H  7989  7998       L1     1  0.02
      P1  H  7997  8009       L1     1  1.00
      P1  H 10752 10764       L1     9  1.98

> <Gold.PLP.Chemscore.Internal.Correction>
0.0047

> <Gold.Rescore>
     Score         DG    S(hbond)    S(metal)    S(lipo)     H(rot)  DE(clash)    DE(int)     intcor
     16.52     -19.05       2.72        0.00      74.69       1.67       0.12       2.41       ----

> <Gold.Chemscore.Fitness>
16.5228

> <Gold.Chemscore.DG>
-19.0451

> <Gold.Chemscore.ZeroCoef>
-5.4800

> <Gold.Chemscore.Hbond>
2.7241

> <Gold.Chemscore.Metal>
0.0000

> <Gold.Chemscore.Lipo>
74.6924

> <Gold.Chemscore.Internal_Hbond>
0.0000

> <Gold.Chemscore.DEClash>
0.1168

> <Gold.Chemscore.DEInternal>
2.4055

> <Gold.Chemscore.Rot>
1.6690

> <Gold.Chemscore.Internal.Correction>
   9.000000E+99

> <Gold.Chemscore.Hbonds>
donor molecule, donor type, donor heavy atom, donor atom, acceptor molecule, acceptor atom, score
      P1  H  7997  8009       L1     1  0.92
      P1  H 10752 10764       L1     9  0.28

> <Gold.Chemscore.Hbond.Weighted>
-9.0986

> <Gold.Chemscore.Metal.Weighted>
-0.0000

> <Gold.Chemscore.Lipo.Weighted>
-8.7390

> <Gold.Chemscore.Internal_Hbond.Weighted>
0.0000

> <Gold.Chemscore.DEClash.Weighted>
0.1168

> <Gold.Chemscore.DEInternal.Weighted>
2.4055

> <Gold.Chemscore.Rot.Weighted>
4.2726

> <Gold.Chemscore.Internal.Correction.Weighted>
   9.000000E+99

> <Gold.Protein.RotatedTorsions>
[ 6907 6896 6895 6894 ] final   -0.46 input  -60.11 | X-H torsion
[ 7974 7965 7964 7962 ] final   -9.30 input  175.53 | X-H torsion
[ 8008 7997 7996 7995 ] final -158.62 input   59.86 | X-H torsion
[ 10167 10162 10161 10158 ] final   22.58 input  -65.29 | X-H torsion
[ 10718 10713 10712 10709 ] final  -30.03 input   66.30 | X-H torsion
[ 10763 10752 10751 10750 ] final  -43.95 input  -60.55 | X-H torsion
[ 11005 11000 10999 10996 ] final  161.64 input  -57.11 | X-H torsion

> <Gold.Protein.ActiveResidues>
 VAL166  LYS551  ARG553  GLY616  TRP617  ASP618  TYR619  PRO620  LYS621  CYS622 
 ASP623  PHE694  ASN695  SER759  ASP760  ASP761  ALA762  ILE779  LEU786  VAL792 
 PHE793  MET794  SER795  GLU796  ALA797  LYS798  CYS799  TRP800  GLU811  SER814 

> <Gold.Protein.RotatedAtoms>
  151.5619  135.1065  159.9974 H   0  0  0  0  0  0  0  0  0  0  0  0  # atno 6907 bound_to 6896
  152.4442  133.7501  159.6700 H   0  0  0  0  0  0  0  0  0  0  0  0  # atno 6908 bound_to 6896
  150.8354  133.7954  159.3105 H   0  0  0  0  0  0  0  0  0  0  0  0  # atno 6909 bound_to 6896
  146.2256  140.2595  142.8351 H   0  0  0  0  0  0  0  0  0  0  0  0  # atno 7974 bound_to 7965
  155.7503  140.0825  157.2204 H   0  0  0  0  0  0  0  0  0  0  0  0  # atno 8008 bound_to 7997
  154.4013  140.1561  156.2772 H   0  0  0  0  0  0  0  0  0  0  0  0  # atno 8009 bound_to 7997
  155.8937  140.3414  155.5977 H   0  0  0  0  0  0  0  0  0  0  0  0  # atno 8010 bound_to 7997
  140.5337  143.9797  150.6479 H   0  0  0  0  0  0  0  0  0  0  0  0  # atno 10167 bound_to 10162
  156.4050  130.4397  149.7294 H   0  0  0  0  0  0  0  0  0  0  0  0  # atno 10718 bound_to 10713
  154.0040  135.6690  153.4761 H   0  0  0  0  0  0  0  0  0  0  0  0  # atno 10763 bound_to 10752
  153.0650  135.5006  154.8175 H   0  0  0  0  0  0  0  0  0  0  0  0  # atno 10764 bound_to 10752
  154.7036  135.3083  154.9268 H   0  0  0  0  0  0  0  0  0  0  0  0  # atno 10765 bound_to 10752
  140.2178  134.8219  157.3189 H   0  0  0  0  0  0  0  0  0  0  0  0  # atno 11005 bound_to 11000
  144.9350  140.8017  143.5666 LP  0  0  0  0  0  0  0  0  0  0  0  0  # atno 17320 bound_to 7965
  145.2542  139.2019  143.4926 LP  0  0  0  0  0  0  0  0  0  0  0  0  # atno 17321 bound_to 7965
  140.3179  143.3156  152.0813 LP  0  0  0  0  0  0  0  0  0  0  0  0  # atno 17342 bound_to 10162
  139.4963  144.6593  151.6501 LP  0  0  0  0  0  0  0  0  0  0  0  0  # atno 17343 bound_to 10162
  156.4296  130.7808  151.2828 LP  0  0  0  0  0  0  0  0  0  0  0  0  # atno 17370 bound_to 10713
  157.7505  131.0158  150.3519 LP  0  0  0  0  0  0  0  0  0  0  0  0  # atno 17371 bound_to 10713
  140.1882  134.4405  155.7731 LP  0  0  0  0  0  0  0  0  0  0  0  0  # atno 17394 bound_to 11000
  141.2224  133.7015  156.7982 LP  0  0  0  0  0  0  0  0  0  0  0  0  # atno 17395 bound_to 11000

$$$$
