AV-unprocessed.smi:2010|AV-procd|sdf|8152|dock1
  -GOLD-   2272010393D 1   1.00000     0.00000
 Structure written by MMmdl.
 40 41  0  0  0  0  0  0  0  0  2 V2000
  146.7998  140.3823  153.7108 C   0  0  0  0  0  0  0  0  0  0  0  0
  147.7085  140.7743  154.8843 C   0  0  0  0  0  0  0  0  0  0  0  0
  149.0540  141.3322  154.3949 C   0  0  0  0  0  0  0  0  0  0  0  0
  149.9758  141.7015  155.5717 C   0  0  0  0  0  0  0  0  0  0  0  0
  150.1634  140.5660  156.4996 N   0  0  0  0  0  0  0  0  0  0  0  0
  151.5822  139.5644  156.3471 S   0  0  0  0  0  0  0  0  0  0  0  0
  151.2052  138.2413  156.8710 O   0  0  0  0  0  0  0  0  0  0  0  0
  152.0025  139.6465  154.9389 O   0  0  0  0  0  0  0  0  0  0  0  0
  152.5418  140.4088  157.3432 N   0  5  0  0  0  0  0  0  0  0  0  0
  152.4738  140.2066  158.7822 C   0  0  1  0  0  0  0  0  0  0  0  0
  152.8653  138.7530  159.0901 C   0  0  0  0  0  0  0  0  0  0  0  0
  153.3576  141.2483  159.5241 C   0  0  0  0  0  0  0  0  0  0  0  0
  152.8152  142.6046  159.5827 N   0  0  0  0  0  0  0  0  0  0  0  0
  152.5362  143.4707  158.5426 C   0  0  0  0  0  0  0  0  0  0  0  0
  152.0615  144.6292  159.0871 C   0  0  0  0  0  0  0  0  0  0  0  0
  152.1020  144.3846  160.4877 C   0  0  0  0  0  0  0  0  0  0  0  0
  152.5666  143.1822  160.7819 N   0  0  0  0  0  0  0  0  0  0  0  0
  148.9004  139.9721  156.9856 C   0  0  0  0  0  0  0  0  0  0  0  0
  147.9659  139.5855  155.8240 C   0  0  0  0  0  0  0  0  0  0  0  0
  147.2571  139.6028  153.1005 H   0  0  0  0  0  0  0  0  0  0  0  0
  146.6017  141.2378  153.0649 H   0  0  0  0  0  0  0  0  0  0  0  0
  145.8398  140.0073  154.0663 H   0  0  0  0  0  0  0  0  0  0  0  0
  147.2027  141.5552  155.4534 H   0  0  0  0  0  0  0  0  0  0  0  0
  149.5451  140.6023  153.7516 H   0  0  0  0  0  0  0  0  0  0  0  0
  148.8876  142.2145  153.7763 H   0  0  0  0  0  0  0  0  0  0  0  0
  150.9390  142.0497  155.1999 H   0  0  0  0  0  0  0  0  0  0  0  0
  149.5417  142.5326  156.1281 H   0  0  0  0  0  0  0  0  0  0  0  0
  151.4523  140.3379  159.1407 H   0  0  0  0  0  0  0  0  0  0  0  0
  152.8590  138.5665  160.1640 H   0  0  0  0  0  0  0  0  0  0  0  0
  153.8600  138.5110  158.7144 H   0  0  0  0  0  0  0  0  0  0  0  0
  152.1639  138.0544  158.6327 H   0  0  0  0  0  0  0  0  0  0  0  0
  153.5692  140.9133  160.5400 H   0  0  0  0  0  0  0  0  0  0  0  0
  154.3283  141.3061  159.0308 H   0  0  0  0  0  0  0  0  0  0  0  0
  152.6899  143.1876  157.5117 H   0  0  0  0  0  0  0  0  0  0  0  0
  151.7363  145.5161  158.5646 H   0  0  0  0  0  0  0  0  0  0  0  0
  151.8147  145.0423  161.2945 H   0  0  0  0  0  0  0  0  0  0  0  0
  149.1075  139.1034  157.6100 H   0  0  0  0  0  0  0  0  0  0  0  0
  148.4028  140.7001  157.6263 H   0  0  0  0  0  0  0  0  0  0  0  0
  147.0209  139.2212  156.2275 H   0  0  0  0  0  0  0  0  0  0  0  0
  148.3941  138.7542  155.2635 H   0  0  0  0  0  0  0  0  0  0  0  0
  1  2  1  0  0  0  0
  1 20  1  0  0  0  0
  1 21  1  0  0  0  0
  1 22  1  0  0  0  0
  2 19  1  0  0  0  0
  2  3  1  0  0  0  0
  2 23  1  0  0  0  0
  3  4  1  0  0  0  0
  3 24  1  0  0  0  0
  3 25  1  0  0  0  0
  4  5  1  0  0  0  0
  4 26  1  0  0  0  0
  4 27  1  0  0  0  0
  5  6  1  0  0  0  0
  5 18  1  0  0  0  0
  6  7  2  0  0  0  0
  6  8  2  0  0  0  0
  6  9  1  0  0  0  0
  9 10  1  0  0  0  0
 10 11  1  0  0  0  0
 10 12  1  0  0  0  0
 10 28  1  0  0  0  0
 11 29  1  0  0  0  0
 11 30  1  0  0  0  0
 11 31  1  0  0  0  0
 12 13  1  0  0  0  0
 12 32  1  0  0  0  0
 12 33  1  0  0  0  0
 13 17  1  0  0  0  0
 13 14  1  0  0  0  0
 14 15  2  0  0  0  0
 14 34  1  0  0  0  0
 15 16  1  0  0  0  0
 15 35  1  0  0  0  0
 16 17  2  0  0  0  0
 16 36  1  0  0  0  0
 18 19  1  0  0  0  0
 18 37  1  0  0  0  0
 18 38  1  0  0  0  0
 19 39  1  0  0  0  0
 19 40  1  0  0  0  0
M  CHG  1   9  -1
M  END
> <s_m_source_file>
AV-unprocessed.smi

> <i_m_source_file_index>
2010

> <i_lp_mmshare_version>
43012

> <i_f3d_flags>
0

> <s_epik_input>
W0NIM11bQ0hdMVtDSDJdW0NIMl1OKFtDSDJdW0NIMl0xKVMoPU8pKD1PKVtOSF1bQ0BIXShbQ0gzXSlbQ0gyXW4yW2NIXVtjSF1bY0hdbjI=

> <s_epik_cmdline>
J2VwaWtfcHl0aG9uJywgJy1waCcsICc3LjAnLCAnLXRuJywgJzgnLCAnLW1hJywgJzIwMCcsICctbWV0YWxfYmluZGluZycsICctaW1hZScsICc8aW5maWxlLm1hZT4nLCAnLW9tYWUnLCAnPG91dGZpbGUubWFlPic=

> <r_lp_tautomer_probability>
1

> <r_epik_Ionization_Penalty>
1.75622

> <r_epik_Ionization_Penalty_Charging>
1.7562

> <r_epik_Ionization_Penalty_Neutral>
2.39925e-05

> <r_epik_State_Penalty>
1.86645

> <r_epik_Charging_Adjusted_Penalty>
3.62264

> <i_epik_Tot_Q>
-1

> <i_epik_Tot_abs_Q>
1

> <r_epik_Metal_State_Penalty>
0.460135

> <b_epik_Metal_Only>
0

> <s_lp_Force_Field>
OPLS_2005

> <r_lp_Energy>
3.33366

> <b_lp_Chiralities_Consistent>
1

> <s_lp_Variant>
AV-unprocessed.smi:2010-4

> <Gold.Version>
5.8.1

> <Gold.Id.Protein>
6NUR|6NUR_protein|mol2

> <Gold.PLP.Fitness>
46.1804

> <Gold.PLP.PLP>
-38.3496

> <Gold.PLP.part.hbond>
-2.0000

> <Gold.PLP.part.metal>
0.0000

> <Gold.PLP.part.buried>
-2.3095

> <Gold.PLP.part.nonpolar>
-32.5031

> <Gold.PLP.part.repulsive>
0.0842

> <Gold.PLP.ligand.clash>
0.0000

> <Gold.PLP.ligand.torsion>
1.6997

> <Gold.PLP.Chemscore.Hbond>
2.7040

> <Gold.PLP.Chemscore.CHOScore>
0.0000

> <Gold.PLP.Chemscore.Metal>
0.0000

> <Gold.Chemscore.Hbonds>
donor molecule, donor type, donor heavy atom, donor atom, acceptor molecule, acceptor atom, score
      P1  H  7989  7998       L1     8  0.91
      P1  H  7997  8009       L1     9  1.86

> <Gold.PLP.Chemscore.Internal.Correction>
3.1181

> <Gold.Rescore>
     Score         DG    S(hbond)    S(metal)    S(lipo)     H(rot)  DE(clash)    DE(int)     intcor
     14.26     -17.49       1.45        0.00      91.12       1.37       0.20       3.02       ----

> <Gold.Chemscore.Fitness>
14.2640

> <Gold.Chemscore.DG>
-17.4853

> <Gold.Chemscore.ZeroCoef>
-5.4800

> <Gold.Chemscore.Hbond>
1.4487

> <Gold.Chemscore.Metal>
0.0000

> <Gold.Chemscore.Lipo>
91.1245

> <Gold.Chemscore.Internal_Hbond>
0.0000

> <Gold.Chemscore.DEClash>
0.1972

> <Gold.Chemscore.DEInternal>
3.0241

> <Gold.Chemscore.Rot>
1.3652

> <Gold.Chemscore.Internal.Correction>
   9.000000E+99

> <Gold.Chemscore.Hbonds>
donor molecule, donor type, donor heavy atom, donor atom, acceptor molecule, acceptor atom, score
      P1  H  7989  7998       L1     8  0.89
      P1  H  7997  8009       L1     9  0.34

> <Gold.Chemscore.Hbond.Weighted>
-4.8386

> <Gold.Chemscore.Metal.Weighted>
-0.0000

> <Gold.Chemscore.Lipo.Weighted>
-10.6616

> <Gold.Chemscore.Internal_Hbond.Weighted>
0.0000

> <Gold.Chemscore.DEClash.Weighted>
0.1972

> <Gold.Chemscore.DEInternal.Weighted>
3.0241

> <Gold.Chemscore.Rot.Weighted>
3.4948

> <Gold.Chemscore.Internal.Correction.Weighted>
   9.000000E+99

> <Gold.Protein.RotatedTorsions>
[ 6907 6896 6895 6894 ] final   96.15 input  -60.11 | X-H torsion
[ 7974 7965 7964 7962 ] final -133.17 input  175.53 | X-H torsion
[ 8008 7997 7996 7995 ] final  178.04 input   59.86 | X-H torsion
[ 10167 10162 10161 10158 ] final  148.12 input  -65.29 | X-H torsion
[ 10718 10713 10712 10709 ] final   68.27 input   66.30 | X-H torsion
[ 10763 10752 10751 10750 ] final   48.29 input  -60.55 | X-H torsion
[ 11005 11000 10999 10996 ] final  -40.84 input  -57.11 | X-H torsion

> <Gold.Protein.ActiveResidues>
 VAL166  LYS551  ARG553  GLY616  TRP617  ASP618  TYR619  PRO620  LYS621  CYS622 
 ASP623  PHE694  ASN695  SER759  ASP760  ASP761  ALA762  ILE779  LEU786  VAL792 
 PHE793  MET794  SER795  GLU796  ALA797  LYS798  CYS799  TRP800  GLU811  SER814 

> <Gold.Protein.RotatedAtoms>
  152.5437  134.0931  159.8285 H   0  0  0  0  0  0  0  0  0  0  0  0  # atno 6907 bound_to 6896
  151.1018  133.5230  159.2617 H   0  0  0  0  0  0  0  0  0  0  0  0  # atno 6908 bound_to 6896
  151.1983  135.0441  159.8915 H   0  0  0  0  0  0  0  0  0  0  0  0  # atno 6909 bound_to 6896
  144.9218  140.7023  143.4960 H   0  0  0  0  0  0  0  0  0  0  0  0  # atno 7974 bound_to 7965
  156.0591  140.1343  156.9962 H   0  0  0  0  0  0  0  0  0  0  0  0  # atno 8008 bound_to 7997
  154.4472  140.0995  156.6560 H   0  0  0  0  0  0  0  0  0  0  0  0  # atno 8009 bound_to 7997
  155.5406  140.3461  155.4448 H   0  0  0  0  0  0  0  0  0  0  0  0  # atno 8010 bound_to 7997
  139.4879  144.5704  151.7066 H   0  0  0  0  0  0  0  0  0  0  0  0  # atno 10167 bound_to 10162
  157.6279  130.9365  150.0354 H   0  0  0  0  0  0  0  0  0  0  0  0  # atno 10718 bound_to 10713
  152.9793  135.5949  154.3901 H   0  0  0  0  0  0  0  0  0  0  0  0  # atno 10763 bound_to 10752
  154.3557  135.2767  155.2349 H   0  0  0  0  0  0  0  0  0  0  0  0  # atno 10764 bound_to 10752
  154.4369  135.6023  153.6159 H   0  0  0  0  0  0  0  0  0  0  0  0  # atno 10765 bound_to 10752
  141.0203  133.6866  156.2376 H   0  0  0  0  0  0  0  0  0  0  0  0  # atno 11005 bound_to 11000
  145.3284  139.1767  143.4550 LP  0  0  0  0  0  0  0  0  0  0  0  0  # atno 17320 bound_to 7965
  146.3208  140.3310  142.8640 LP  0  0  0  0  0  0  0  0  0  0  0  0  # atno 17321 bound_to 7965
  140.5290  144.0760  150.6047 LP  0  0  0  0  0  0  0  0  0  0  0  0  # atno 17342 bound_to 10162
  140.3744  143.2837  152.0242 LP  0  0  0  0  0  0  0  0  0  0  0  0  # atno 17343 bound_to 10162
  156.1463  130.3642  149.9505 LP  0  0  0  0  0  0  0  0  0  0  0  0  # atno 17370 bound_to 10713
  156.7535  130.9124  151.3638 LP  0  0  0  0  0  0  0  0  0  0  0  0  # atno 17371 bound_to 10713
  140.6584  134.4994  157.5582 LP  0  0  0  0  0  0  0  0  0  0  0  0  # atno 17394 bound_to 11000
  139.9142  134.8281  156.1423 LP  0  0  0  0  0  0  0  0  0  0  0  0  # atno 17395 bound_to 11000

$$$$
