AV-unprocessed.smi:2827|AV-procd|sdf|10896|dock9
  -GOLD-   2272015343D 1   1.00000     0.00000
 Structure written by MMmdl.
 48 51  0  0  0  0  0  0  0  0  3 V2000
  150.8182  140.3441  155.2630 O   0  0  0  0  0  0  0  0  0  0  0  0
  150.1596  140.0066  156.2463 C   0  0  0  0  0  0  0  0  0  0  0  0
  148.7814  139.3685  156.0637 C   0  0  0  0  0  0  0  0  0  0  0  0
  147.8754  140.3288  155.4408 N   0  0  0  0  0  0  0  0  0  0  0  0
  148.0974  140.7991  154.1503 C   0  0  0  0  0  0  0  0  0  0  0  0
  147.5009  141.8889  153.6314 C   0  0  0  0  0  0  0  0  0  0  0  0
  146.5506  142.6595  154.4586 C   0  0  0  0  0  0  0  0  0  0  0  0
  146.0285  143.6847  154.0238 O   0  0  0  0  0  0  0  0  0  0  0  0
  146.2760  142.1402  155.8293 C   0  0  0  0  0  0  0  0  0  0  0  0
  145.3612  142.7390  156.7782 N   0  3  0  0  0  0  0  0  0  0  0  0
  144.6082  143.6318  156.3981 O   0  0  0  0  0  0  0  0  0  0  0  0
  145.3649  142.3347  157.9361 O   0  5  0  0  0  0  0  0  0  0  0  0
  146.9430  141.0230  156.2122 C   0  0  0  0  0  0  0  0  0  0  0  0
  150.5531  140.2055  157.5135 N   0  0  0  0  0  0  0  0  0  0  0  0
  151.7048  140.9985  157.9285 C   0  0  0  0  0  0  0  0  0  0  0  0
  151.2938  142.0734  158.9653 C   0  0  2  0  0  0  0  0  0  0  0  0
  150.5930  143.3295  158.3716 C   0  0  2  0  0  0  0  0  0  0  0  0
  151.5886  144.1768  157.5465 C   0  0  0  0  0  0  0  0  0  0  0  0
  152.7496  144.6349  158.4546 C   0  0  1  0  0  0  0  0  0  0  0  0
  152.1915  145.4914  159.6115 C   0  0  0  0  0  0  0  0  0  0  0  0
  151.1949  144.6479  160.4350 C   0  0  1  0  0  0  0  0  0  0  0  0
  150.0338  144.1920  159.5250 C   0  0  0  0  0  0  0  0  0  0  0  0
  151.9195  143.4110  161.0109 C   0  0  0  0  0  0  0  0  0  0  0  0
  152.4739  142.5508  159.8518 C   0  0  2  0  0  0  0  0  0  0  0  0
  153.4743  143.4005  159.0326 C   0  0  0  0  0  0  0  0  0  0  0  0
  148.8728  138.4755  155.4439 H   0  0  0  0  0  0  0  0  0  0  0  0
  148.3820  139.0388  157.0242 H   0  0  0  0  0  0  0  0  0  0  0  0
  148.8001  140.2125  153.5767 H   0  0  0  0  0  0  0  0  0  0  0  0
  147.7065  142.2168  152.6230 H   0  0  0  0  0  0  0  0  0  0  0  0
  146.7924  140.5814  157.1870 H   0  0  0  0  0  0  0  0  0  0  0  0
  149.9473  139.8738  158.2501 H   0  0  0  0  0  0  0  0  0  0  0  0
  152.4266  140.3165  158.3784 H   0  0  0  0  0  0  0  0  0  0  0  0
  152.2071  141.4391  157.0674 H   0  0  0  0  0  0  0  0  0  0  0  0
  150.5749  141.5815  159.6232 H   0  0  0  0  0  0  0  0  0  0  0  0
  149.7593  143.0360  157.7359 H   0  0  0  0  0  0  0  0  0  0  0  0
  151.9715  143.6087  156.6989 H   0  0  0  0  0  0  0  0  0  0  0  0
  151.0796  145.0431  157.1224 H   0  0  0  0  0  0  0  0  0  0  0  0
  153.4539  145.2290  157.8713 H   0  0  0  0  0  0  0  0  0  0  0  0
  153.0045  145.8436  160.2479 H   0  0  0  0  0  0  0  0  0  0  0  0
  151.6993  146.3822  159.2193 H   0  0  0  0  0  0  0  0  0  0  0  0
  150.7992  145.2508  161.2529 H   0  0  0  0  0  0  0  0  0  0  0  0
  149.5035  145.0576  159.1255 H   0  0  0  0  0  0  0  0  0  0  0  0
  149.3020  143.6254  160.1018 H   0  0  0  0  0  0  0  0  0  0  0  0
  152.7299  143.7228  161.6709 H   0  0  0  0  0  0  0  0  0  0  0  0
  151.2339  142.8245  161.6239 H   0  0  0  0  0  0  0  0  0  0  0  0
  152.9901  141.6859  160.2694 H   0  0  0  0  0  0  0  0  0  0  0  0
  153.9204  142.8122  158.2309 H   0  0  0  0  0  0  0  0  0  0  0  0
  154.3026  143.7171  159.6675 H   0  0  0  0  0  0  0  0  0  0  0  0
  1  2  2  0  0  0  0
  2  3  1  0  0  0  0
  2 14  1  0  0  0  0
  3  4  1  0  0  0  0
  3 26  1  0  0  0  0
  3 27  1  0  0  0  0
  4 13  1  0  0  0  0
  4  5  1  0  0  0  0
  5  6  2  0  0  0  0
  5 28  1  0  0  0  0
  6  7  1  0  0  0  0
  6 29  1  0  0  0  0
  7  8  2  0  0  0  0
  7  9  1  0  0  0  0
  9 10  1  0  0  0  0
  9 13  2  0  0  0  0
 10 11  2  0  0  0  0
 10 12  1  0  0  0  0
 13 30  1  0  0  0  0
 14 15  1  0  0  0  0
 14 31  1  0  0  0  0
 15 16  1  0  0  0  0
 15 32  1  0  0  0  0
 15 33  1  0  0  0  0
 16 24  1  0  0  0  0
 16 17  1  0  0  0  0
 16 34  1  0  0  0  0
 17 22  1  0  0  0  0
 17 18  1  0  0  0  0
 17 35  1  0  0  0  0
 18 19  1  0  0  0  0
 18 36  1  0  0  0  0
 18 37  1  0  0  0  0
 19 25  1  0  0  0  0
 19 20  1  0  0  0  0
 19 38  1  0  0  0  0
 20 21  1  0  0  0  0
 20 39  1  0  0  0  0
 20 40  1  0  0  0  0
 21 22  1  0  0  0  0
 21 23  1  0  0  0  0
 21 41  1  0  0  0  0
 22 42  1  0  0  0  0
 22 43  1  0  0  0  0
 23 24  1  0  0  0  0
 23 44  1  0  0  0  0
 23 45  1  0  0  0  0
 24 25  1  0  0  0  0
 24 46  1  0  0  0  0
 25 47  1  0  0  0  0
 25 48  1  0  0  0  0
M  CHG  1  10   1
M  CHG  1  12  -1
M  END
> <s_m_source_file>
AV-unprocessed.smi

> <i_m_source_file_index>
2827

> <i_lp_mmshare_version>
43012

> <i_f3d_flags>
0

> <s_epik_input>
Tz1bTitdKFtPLV0pYyhbY0hdMSljKD1PKVtjSF1bY0hdbjFbQ0gyXUMoPU8pW05IXVtDSDJdW0NASF0oW0NASF0yMylbQ0BASF00W0NIMl1bQ0BIXShbQ0gyXTMpW0NIMl1bQ0BIXShbQ0gyXTIpW0NIMl00

> <s_epik_cmdline>
J2VwaWtfcHl0aG9uJywgJy1waCcsICc3LjAnLCAnLXRuJywgJzgnLCAnLW1hJywgJzIwMCcsICctbWV0YWxfYmluZGluZycsICctaW1hZScsICc8aW5maWxlLm1hZT4nLCAnLW9tYWUnLCAnPG91dGZpbGUubWFlPic=

> <r_lp_tautomer_probability>
1

> <r_epik_Ionization_Penalty>
3.31423e-08

> <r_epik_Ionization_Penalty_Charging>
1.04538e-08

> <r_epik_Ionization_Penalty_Neutral>
2.26885e-08

> <r_epik_State_Penalty>
-0

> <r_epik_Charging_Adjusted_Penalty>
1.04538e-08

> <i_epik_Tot_Q>
0

> <i_epik_Tot_abs_Q>
2

> <r_epik_Metal_State_Penalty>
-0

> <b_epik_Metal_Only>
0

> <s_lp_Force_Field>
OPLS_2005

> <r_lp_Energy>
36.4142

> <b_lp_Chiralities_Consistent>
1

> <s_lp_Variant>
AV-unprocessed.smi:2827-1

> <Gold.Version>
5.8.1

> <Gold.Id.Protein>
6NUR|6NUR_protein|mol2

> <Gold.PLP.Fitness>
53.3067

> <Gold.PLP.PLP>
-48.0373

> <Gold.PLP.part.hbond>
-1.2513

> <Gold.PLP.part.metal>
0.0000

> <Gold.PLP.part.buried>
-7.5228

> <Gold.PLP.part.nonpolar>
-39.3785

> <Gold.PLP.part.repulsive>
0.4188

> <Gold.PLP.ligand.clash>
0.0000

> <Gold.PLP.ligand.torsion>
0.4313

> <Gold.PLP.Chemscore.Hbond>
1.0000

> <Gold.PLP.Chemscore.CHOScore>
1.0000

> <Gold.PLP.Chemscore.Metal>
0.0000

> <Gold.Chemscore.Hbonds>
donor molecule, donor type, donor heavy atom, donor atom, acceptor molecule, acceptor atom, score
      P1  H  7989  7998       L1     1  1.00
      L1  C     5    28       P1  7957  0.94

> <Gold.PLP.Chemscore.Internal.Correction>
0.1319

> <Gold.Rescore>
     Score         DG    S(hbond)    S(metal)    S(lipo)     H(rot)  DE(clash)    DE(int)     intcor
     20.75     -23.17       1.88        0.00     136.03       1.75       0.09       2.33       ----

> <Gold.Chemscore.Fitness>
20.7450

> <Gold.Chemscore.DG>
-23.1677

> <Gold.Chemscore.ZeroCoef>
-5.4800

> <Gold.Chemscore.Hbond>
1.8751

> <Gold.Chemscore.Metal>
0.0000

> <Gold.Chemscore.Lipo>
136.0257

> <Gold.Chemscore.Internal_Hbond>
0.0000

> <Gold.Chemscore.DEClash>
0.0916

> <Gold.Chemscore.DEInternal>
2.3310

> <Gold.Chemscore.Rot>
1.7540

> <Gold.Chemscore.Internal.Correction>
   9.000000E+99

> <Gold.Chemscore.Hbonds>
donor molecule, donor type, donor heavy atom, donor atom, acceptor molecule, acceptor atom, score
      P1  H  7989  7998       L1     1  0.93

> <Gold.Chemscore.Hbond.Weighted>
-6.2629

> <Gold.Chemscore.Metal.Weighted>
-0.0000

> <Gold.Chemscore.Lipo.Weighted>
-15.9150

> <Gold.Chemscore.Internal_Hbond.Weighted>
0.0000

> <Gold.Chemscore.DEClash.Weighted>
0.0916

> <Gold.Chemscore.DEInternal.Weighted>
2.3310

> <Gold.Chemscore.Rot.Weighted>
4.4902

> <Gold.Chemscore.Internal.Correction.Weighted>
   9.000000E+99

> <Gold.Protein.RotatedTorsions>
[ 6907 6896 6895 6894 ] final  -39.74 input  -60.11 | X-H torsion
[ 7974 7965 7964 7962 ] final  -41.00 input  175.53 | X-H torsion
[ 8008 7997 7996 7995 ] final  -15.29 input   59.86 | X-H torsion
[ 10167 10162 10161 10158 ] final -108.18 input  -65.29 | X-H torsion
[ 10718 10713 10712 10709 ] final  137.19 input   66.30 | X-H torsion
[ 10763 10752 10751 10750 ] final   58.47 input  -60.55 | X-H torsion
[ 11005 11000 10999 10996 ] final  169.12 input  -57.11 | X-H torsion

> <Gold.Protein.ActiveResidues>
 VAL166  LYS551  ARG553  GLY616  TRP617  ASP618  TYR619  PRO620  LYS621  CYS622 
 ASP623  PHE694  ASN695  SER759  ASP760  ASP761  ALA762  ILE779  LEU786  VAL792 
 PHE793  MET794  SER795  GLU796  ALA797  LYS798  CYS799  TRP800  GLU811  SER814 

> <Gold.Protein.RotatedAtoms>
  150.9867  134.9211  159.7875 H   0  0  0  0  0  0  0  0  0  0  0  0  # atno 6907 bound_to 6896
  152.5238  134.3337  159.9202 H   0  0  0  0  0  0  0  0  0  0  0  0  # atno 6908 bound_to 6896
  151.3343  133.3947  159.2700 H   0  0  0  0  0  0  0  0  0  0  0  0  # atno 6909 bound_to 6896
  146.0252  140.6800  142.9159 H   0  0  0  0  0  0  0  0  0  0  0  0  # atno 7974 bound_to 7965
  154.5142  140.2200  155.9098 H   0  0  0  0  0  0  0  0  0  0  0  0  # atno 8008 bound_to 7997
  156.1588  140.3146  155.8737 H   0  0  0  0  0  0  0  0  0  0  0  0  # atno 8009 bound_to 7997
  155.3793  140.0471  157.3034 H   0  0  0  0  0  0  0  0  0  0  0  0  # atno 8010 bound_to 7997
  140.1689  143.4059  152.1369 H   0  0  0  0  0  0  0  0  0  0  0  0  # atno 10167 bound_to 10162
  157.4387  131.1055  151.0168 H   0  0  0  0  0  0  0  0  0  0  0  0  # atno 10718 bound_to 10713
  152.9872  135.5605  154.5558 H   0  0  0  0  0  0  0  0  0  0  0  0  # atno 10763 bound_to 10752
  154.4986  135.2796  155.1441 H   0  0  0  0  0  0  0  0  0  0  0  0  # atno 10764 bound_to 10752
  154.2881  135.6331  153.5427 H   0  0  0  0  0  0  0  0  0  0  0  0  # atno 10765 bound_to 10752
  140.2944  134.7647  157.3865 H   0  0  0  0  0  0  0  0  0  0  0  0  # atno 11005 bound_to 11000
  144.7006  140.3637  143.7159 LP  0  0  0  0  0  0  0  0  0  0  0  0  # atno 17320 bound_to 7965
  145.7129  139.1689  143.2528 LP  0  0  0  0  0  0  0  0  0  0  0  0  # atno 17321 bound_to 7965
  139.5347  144.7197  151.4935 LP  0  0  0  0  0  0  0  0  0  0  0  0  # atno 17342 bound_to 10162
  140.6595  143.8529  150.6872 LP  0  0  0  0  0  0  0  0  0  0  0  0  # atno 17343 bound_to 10162
  157.1038  130.5993  149.5466 LP  0  0  0  0  0  0  0  0  0  0  0  0  # atno 17370 bound_to 10713
  155.9940  130.5003  150.7404 LP  0  0  0  0  0  0  0  0  0  0  0  0  # atno 17371 bound_to 10713
  140.1166  134.5275  155.8219 LP  0  0  0  0  0  0  0  0  0  0  0  0  # atno 17394 bound_to 11000
  141.2140  133.6742  156.6788 LP  0  0  0  0  0  0  0  0  0  0  0  0  # atno 17395 bound_to 11000

$$$$
