AV-unprocessed.smi:77|AV-procd|sdf|773|dock9
  -GOLD-   2262017123D 1   1.00000     0.00000
 Structure written by MMmdl.
 57 61  0  0  0  0  0  0  0  0  1 V2000
  146.1214  131.1611  154.0898 O   0  0  0  0  0  0  0  0  0  0  0  0
  146.9589  131.3080  153.1980 C   0  0  0  0  0  0  0  0  0  0  0  0
  147.3633  132.7071  152.7146 C   0  0  0  0  0  0  0  0  0  0  0  0
  146.2600  133.4409  152.0810 N   0  0  0  0  0  0  0  0  0  0  0  0
  146.0953  134.7530  152.4148 C   0  0  0  0  0  0  0  0  0  0  0  0
  145.1733  135.4946  151.7417 N   0  0  0  0  0  0  0  0  0  0  0  0
  144.9833  136.7833  152.0356 C   0  0  0  0  0  0  0  0  0  0  0  0
  145.5969  137.5265  152.9561 N   0  0  0  0  0  0  0  0  0  0  0  0
  146.5206  136.7958  153.6422 C   0  0  0  0  0  0  0  0  0  0  0  0
  146.8317  135.4194  153.4409 C   0  0  0  0  0  0  0  0  0  0  0  0
  147.8178  135.0328  154.3429 N   0  0  0  0  0  0  0  0  0  0  0  0
  148.0751  136.1112  155.0300 C   0  0  0  0  0  0  0  0  0  0  0  0
  147.3375  137.2165  154.6772 N   0  0  0  0  0  0  0  0  0  0  0  0
  147.4197  138.5388  155.2734 C   0  0  0  0  0  0  0  0  0  0  0  0
  148.1239  139.5822  154.3691 C   0  0  2  0  0  0  0  0  0  0  0  0
  149.6481  139.6325  154.6512 C   0  0  0  0  0  0  0  0  0  0  0  0
  150.3575  140.2560  153.6013 O   0  0  0  0  0  0  0  0  0  0  0  0
  147.4456  140.9709  154.5324 C   0  0  1  0  0  0  0  0  0  0  0  0
  147.7742  142.0016  153.4656 C   0  0  0  0  0  0  0  0  0  0  0  0
  146.6512  143.0165  153.6395 C   0  0  0  0  0  0  0  0  0  0  0  0
  145.5123  142.2560  154.0211 O   0  0  0  0  0  0  0  0  0  0  0  0
  145.9145  140.9517  154.4283 C   0  0  0  0  0  0  0  0  0  0  0  0
  145.8680  133.0140  150.7377 C   0  0  0  0  0  0  0  0  0  0  0  0
  144.4016  133.0041  150.3643 C   0  0  0  0  0  0  0  0  0  0  0  0
  145.1373  131.7015  150.5664 C   0  0  0  0  0  0  0  0  0  0  0  0
  147.5772  130.2837  152.5930 N   0  0  0  0  0  0  0  0  0  0  0  0
  147.3684  128.9020  152.8820 C   0  0  0  0  0  0  0  0  0  0  0  0
  148.2353  127.8954  152.1573 C   0  0  0  0  0  0  0  0  0  0  0  0
  146.7841  128.0343  151.7887 C   0  0  0  0  0  0  0  0  0  0  0  0
  147.7898  133.2680  153.5475 H   0  0  0  0  0  0  0  0  0  0  0  0
  148.1744  132.5954  151.9932 H   0  0  0  0  0  0  0  0  0  0  0  0
  144.2307  137.2899  151.4497 H   0  0  0  0  0  0  0  0  0  0  0  0
  148.8114  136.1291  155.8204 H   0  0  0  0  0  0  0  0  0  0  0  0
  146.3999  138.8489  155.5009 H   0  0  0  0  0  0  0  0  0  0  0  0
  147.9369  138.4613  156.2306 H   0  0  0  0  0  0  0  0  0  0  0  0
  147.9869  139.2542  153.3371 H   0  0  0  0  0  0  0  0  0  0  0  0
  149.8524  140.1474  155.5903 H   0  0  0  0  0  0  0  0  0  0  0  0
  150.0733  138.6345  154.7434 H   0  0  0  0  0  0  0  0  0  0  0  0
  149.9228  140.0569  152.7861 H   0  0  0  0  0  0  0  0  0  0  0  0
  147.7174  141.3895  155.5031 H   0  0  0  0  0  0  0  0  0  0  0  0
  148.7581  142.4543  153.5898 H   0  0  0  0  0  0  0  0  0  0  0  0
  147.7235  141.5537  152.4719 H   0  0  0  0  0  0  0  0  0  0  0  0
  146.8904  143.7128  154.4444 H   0  0  0  0  0  0  0  0  0  0  0  0
  146.4638  143.5946  152.7343 H   0  0  0  0  0  0  0  0  0  0  0  0
  145.5867  140.2432  153.6664 H   0  0  0  0  0  0  0  0  0  0  0  0
  145.4373  140.6776  155.3695 H   0  0  0  0  0  0  0  0  0  0  0  0
  146.5616  133.2772  149.9411 H   0  0  0  0  0  0  0  0  0  0  0  0
  143.6808  133.2951  151.1262 H   0  0  0  0  0  0  0  0  0  0  0  0
  144.1425  133.2850  149.3457 H   0  0  0  0  0  0  0  0  0  0  0  0
  145.3693  131.1120  149.6820 H   0  0  0  0  0  0  0  0  0  0  0  0
  144.8930  131.1264  151.4568 H   0  0  0  0  0  0  0  0  0  0  0  0
  148.2512  130.4997  151.8727 H   0  0  0  0  0  0  0  0  0  0  0  0
  147.0894  128.6408  153.9020 H   0  0  0  0  0  0  0  0  0  0  0  0
  148.9713  128.2725  151.4497 H   0  0  0  0  0  0  0  0  0  0  0  0
  148.5310  127.0026  152.7046 H   0  0  0  0  0  0  0  0  0  0  0  0
  146.1099  127.2352  152.0902 H   0  0  0  0  0  0  0  0  0  0  0  0
  146.5505  128.5047  150.8352 H   0  0  0  0  0  0  0  0  0  0  0  0
  1  2  2  0  0  0  0
  2  3  1  0  0  0  0
  2 26  1  0  0  0  0
  3  4  1  0  0  0  0
  3 30  1  0  0  0  0
  3 31  1  0  0  0  0
  4  5  1  0  0  0  0
  4 23  1  0  0  0  0
  5 10  1  0  0  0  0
  5  6  2  0  0  0  0
  6  7  1  0  0  0  0
  7  8  2  0  0  0  0
  7 32  1  0  0  0  0
  8  9  1  0  0  0  0
  9 13  1  0  0  0  0
  9 10  2  0  0  0  0
 10 11  1  0  0  0  0
 11 12  2  0  0  0  0
 12 13  1  0  0  0  0
 12 33  1  0  0  0  0
 13 14  1  0  0  0  0
 14 15  1  0  0  0  0
 14 34  1  0  0  0  0
 14 35  1  0  0  0  0
 15 16  1  0  0  0  0
 15 18  1  0  0  0  0
 15 36  1  0  0  0  0
 16 17  1  0  0  0  0
 16 37  1  0  0  0  0
 16 38  1  0  0  0  0
 17 39  1  0  0  0  0
 18 22  1  0  0  0  0
 18 19  1  0  0  0  0
 18 40  1  0  0  0  0
 19 20  1  0  0  0  0
 19 41  1  0  0  0  0
 19 42  1  0  0  0  0
 20 21  1  0  0  0  0
 20 43  1  0  0  0  0
 20 44  1  0  0  0  0
 21 22  1  0  0  0  0
 22 45  1  0  0  0  0
 22 46  1  0  0  0  0
 23 25  1  0  0  0  0
 23 24  1  0  0  0  0
 23 47  1  0  0  0  0
 24 25  1  0  0  0  0
 24 48  1  0  0  0  0
 24 49  1  0  0  0  0
 25 50  1  0  0  0  0
 25 51  1  0  0  0  0
 26 27  1  0  0  0  0
 26 52  1  0  0  0  0
 27 29  1  0  0  0  0
 27 28  1  0  0  0  0
 27 53  1  0  0  0  0
 28 29  1  0  0  0  0
 28 54  1  0  0  0  0
 28 55  1  0  0  0  0
 29 56  1  0  0  0  0
 29 57  1  0  0  0  0
M  END
> <s_m_source_file>
AV-unprocessed.smi

> <i_m_source_file_index>
77

> <i_lp_mmshare_version>
43012

> <i_f3d_flags>
0

> <s_epik_input>
W0NIMl0xW0NIMl1bQ0hdMVtOSF1DKD1PKVtDSDJdTihbQ0hdMltDSDJdW0NIMl0yKWMobltjSF1uMyljKGMzNCluW2NIXW40W0NIMl1bQ0BIXShbQ0gyXVtPSF0pW0NAQEhdNVtDSDJdW0NIMl1PW0NIMl01

> <s_epik_cmdline>
J2VwaWtfcHl0aG9uJywgJy1waCcsICc3LjAnLCAnLXRuJywgJzgnLCAnLW1hJywgJzIwMCcsICctbWV0YWxfYmluZGluZycsICctaW1hZScsICc8aW5maWxlLm1hZT4nLCAnLW9tYWUnLCAnPG91dGZpbGUubWFlPic=

> <r_lp_tautomer_probability>
1

> <r_epik_Ionization_Penalty>
0.000703847

> <r_epik_Ionization_Penalty_Charging>
0

> <r_epik_Ionization_Penalty_Neutral>
0.000703847

> <r_epik_State_Penalty>
0.00034025

> <r_epik_Charging_Adjusted_Penalty>
0.00034025

> <i_epik_Tot_Q>
0

> <i_epik_Tot_abs_Q>
0

> <r_epik_Metal_State_Penalty>
-0

> <b_epik_Metal_Only>
0

> <s_lp_Force_Field>
OPLS_2005

> <r_lp_Energy>
53.8068

> <b_lp_Chiralities_Consistent>
1

> <s_lp_Variant>
AV-unprocessed.smi:77-3

> <Gold.Version>
5.8.1

> <Gold.Id.Protein>
6NUR|6NUR_protein|mol2

> <Gold.PLP.Fitness>
50.9768

> <Gold.PLP.PLP>
-40.8258

> <Gold.PLP.part.hbond>
-2.8897

> <Gold.PLP.part.metal>
0.0000

> <Gold.PLP.part.buried>
-5.1707

> <Gold.PLP.part.nonpolar>
-34.2998

> <Gold.PLP.part.repulsive>
1.0580

> <Gold.PLP.ligand.clash>
0.0000

> <Gold.PLP.ligand.torsion>
1.5846

> <Gold.PLP.Chemscore.Hbond>
2.9280

> <Gold.PLP.Chemscore.CHOScore>
1.0000

> <Gold.PLP.Chemscore.Metal>
0.0000

> <Gold.Chemscore.Hbonds>
donor molecule, donor type, donor heavy atom, donor atom, acceptor molecule, acceptor atom, score
      L1  H    17    39       P1  7957  1.00
      L1  H    26    52       P1 10747  1.00
      P1  H  7989  7998       L1    17  0.48
      L1  C     7    32       P1 10171  1.00

> <Gold.PLP.Chemscore.Internal.Correction>
1.5362

> <Gold.Rescore>
     Score         DG    S(hbond)    S(metal)    S(lipo)     H(rot)  DE(clash)    DE(int)     intcor
     10.23     -15.84       2.61        0.00      89.99       3.47       1.41       4.20       ----

> <Gold.Chemscore.Fitness>
10.2300

> <Gold.Chemscore.DG>
-15.8424

> <Gold.Chemscore.ZeroCoef>
-5.4800

> <Gold.Chemscore.Hbond>
2.6094

> <Gold.Chemscore.Metal>
0.0000

> <Gold.Chemscore.Lipo>
89.9918

> <Gold.Chemscore.Internal_Hbond>
0.0000

> <Gold.Chemscore.DEClash>
1.4138

> <Gold.Chemscore.DEInternal>
4.1986

> <Gold.Chemscore.Rot>
3.4695

> <Gold.Chemscore.Internal.Correction>
   9.000000E+99

> <Gold.Chemscore.Hbonds>
donor molecule, donor type, donor heavy atom, donor atom, acceptor molecule, acceptor atom, score
      L1  H    17    39       P1  7957  0.99
      L1  H    26    52       P1 10747  0.98
      P1  H  7989  7998       L1    17  0.42

> <Gold.Chemscore.Hbond.Weighted>
-8.7153

> <Gold.Chemscore.Metal.Weighted>
-0.0000

> <Gold.Chemscore.Lipo.Weighted>
-10.5290

> <Gold.Chemscore.Internal_Hbond.Weighted>
0.0000

> <Gold.Chemscore.DEClash.Weighted>
1.4138

> <Gold.Chemscore.DEInternal.Weighted>
4.1986

> <Gold.Chemscore.Rot.Weighted>
8.8820

> <Gold.Chemscore.Internal.Correction.Weighted>
   9.000000E+99

> <Gold.Protein.RotatedTorsions>
[ 6907 6896 6895 6894 ] final  -79.19 input  -60.11 | X-H torsion
[ 7974 7965 7964 7962 ] final  114.60 input  175.53 | X-H torsion
[ 8008 7997 7996 7995 ] final    1.76 input   59.86 | X-H torsion
[ 10167 10162 10161 10158 ] final -147.68 input  -65.29 | X-H torsion
[ 10718 10713 10712 10709 ] final  166.54 input   66.30 | X-H torsion
[ 10763 10752 10751 10750 ] final  159.80 input  -60.55 | X-H torsion
[ 11005 11000 10999 10996 ] final   -7.71 input  -57.11 | X-H torsion

> <Gold.Protein.ActiveResidues>
 VAL166  LYS551  ARG553  GLY616  TRP617  ASP618  TYR619  PRO620  LYS621  CYS622 
 ASP623  PHE694  ASN695  SER759  ASP760  ASP761  ALA762  ILE779  LEU786  VAL792 
 PHE793  MET794  SER795  GLU796  ALA797  LYS798  CYS799  TRP800  GLU811  SER814 

> <Gold.Protein.RotatedAtoms>
  150.6955  134.4158  159.5182 H   0  0  0  0  0  0  0  0  0  0  0  0  # atno 6907 bound_to 6896
  152.1909  134.8670  160.0526 H   0  0  0  0  0  0  0  0  0  0  0  0  # atno 6908 bound_to 6896
  151.9625  133.3665  159.4077 H   0  0  0  0  0  0  0  0  0  0  0  0  # atno 6909 bound_to 6896
  145.2024  139.2946  143.4311 H   0  0  0  0  0  0  0  0  0  0  0  0  # atno 7974 bound_to 7965
  154.6836  140.2638  155.6884 H   0  0  0  0  0  0  0  0  0  0  0  0  # atno 8008 bound_to 7997
  156.2706  140.2805  156.1311 H   0  0  0  0  0  0  0  0  0  0  0  0  # atno 8009 bound_to 7997
  155.0997  140.0374  157.2683 H   0  0  0  0  0  0  0  0  0  0  0  0  # atno 8010 bound_to 7997
  139.7600  143.8391  152.2605 H   0  0  0  0  0  0  0  0  0  0  0  0  # atno 10167 bound_to 10162
  157.0643  131.0349  151.2635 H   0  0  0  0  0  0  0  0  0  0  0  0  # atno 10718 bound_to 10713
  154.2375  135.2776  155.2867 H   0  0  0  0  0  0  0  0  0  0  0  0  # atno 10763 bound_to 10752
  154.5573  135.5657  153.6979 H   0  0  0  0  0  0  0  0  0  0  0  0  # atno 10764 bound_to 10752
  153.0007  135.6289  154.2518 H   0  0  0  0  0  0  0  0  0  0  0  0  # atno 10765 bound_to 10752
  140.7157  133.8871  155.8783 H   0  0  0  0  0  0  0  0  0  0  0  0  # atno 11005 bound_to 11000
  146.3415  140.2273  142.8592 LP  0  0  0  0  0  0  0  0  0  0  0  0  # atno 17320 bound_to 7965
  144.9935  140.8568  143.5325 LP  0  0  0  0  0  0  0  0  0  0  0  0  # atno 17321 bound_to 7965
  139.8395  144.7217  150.9349 LP  0  0  0  0  0  0  0  0  0  0  0  0  # atno 17342 bound_to 10162
  140.7806  143.3996  151.1170 LP  0  0  0  0  0  0  0  0  0  0  0  0  # atno 17343 bound_to 10162
  157.4929  130.7833  149.7526 LP  0  0  0  0  0  0  0  0  0  0  0  0  # atno 17370 bound_to 10713
  155.9969  130.3903  150.2761 LP  0  0  0  0  0  0  0  0  0  0  0  0  # atno 17371 bound_to 10713
  141.0047  134.1103  157.4283 LP  0  0  0  0  0  0  0  0  0  0  0  0  # atno 17394 bound_to 11000
  139.8860  135.0078  156.6473 LP  0  0  0  0  0  0  0  0  0  0  0  0  # atno 17395 bound_to 11000

$$$$
