AV-unprocessed.smi:1956|AV-procd|sdf|7900|dock3
  -GOLD-   2272010 53D 1   1.00000     0.00000
 Structure written by MMmdl.
 46 47  0  0  0  0  0  0  0  0  2 V2000
  154.1117  141.4265  161.8453 C   0  0  0  0  0  0  0  0  0  0  0  0
  153.5478  142.6708  161.4459 O   0  0  0  0  0  0  0  0  0  0  0  0
  152.7172  142.6900  160.3444 C   0  0  0  0  0  0  0  0  0  0  0  0
  152.2821  143.9354  159.8506 C   0  0  0  0  0  0  0  0  0  0  0  0
  151.4323  143.9654  158.7286 C   0  0  0  0  0  0  0  0  0  0  0  0
  151.0480  142.7425  158.1274 C   0  0  0  0  0  0  0  0  0  0  0  0
  150.1816  142.6305  157.0052 N   0  0  0  0  0  0  0  0  0  0  0  0
  150.0067  141.5893  156.1735 C   0  0  0  0  0  0  0  0  0  0  0  0
  150.5499  140.4906  156.2781 O   0  0  0  0  0  0  0  0  0  0  0  0
  149.1445  141.8916  155.1924 N   0  0  0  0  0  0  0  0  0  0  0  0
  148.7329  140.9813  154.1257 C   0  0  0  0  0  0  0  0  0  0  0  0
  147.3600  141.3401  153.5151 C   0  0  0  0  0  0  0  0  0  0  0  0
  146.5576  140.1476  153.1393 N   0  3  1  0  0  0  0  0  0  0  0  0
  147.0350  139.5163  151.8829 C   0  0  0  0  0  0  0  0  0  0  0  0
  146.0944  138.3830  151.4452 C   0  0  0  0  0  0  0  0  0  0  0  0
  145.9421  137.3375  152.5570 C   0  0  0  0  0  0  0  0  0  0  0  0
  145.4789  138.0076  153.8620 C   0  0  1  0  0  0  0  0  0  0  0  0
  145.3519  136.9860  155.0008 C   0  0  0  0  0  0  0  0  0  0  0  0
  146.4335  139.1575  154.2415 C   0  0  0  0  0  0  0  0  0  0  0  0
  151.5321  141.5500  158.7044 C   0  0  0  0  0  0  0  0  0  0  0  0
  152.3457  141.5142  159.7805 N   0  0  0  0  0  0  0  0  0  0  0  0
  154.7422  141.5810  162.7207 H   0  0  0  0  0  0  0  0  0  0  0  0
  154.7365  141.0000  161.0593 H   0  0  0  0  0  0  0  0  0  0  0  0
  153.3378  140.7073  162.1176 H   0  0  0  0  0  0  0  0  0  0  0  0
  152.5910  144.8534  160.3286 H   0  0  0  0  0  0  0  0  0  0  0  0
  151.0880  144.9215  158.3683 H   0  0  0  0  0  0  0  0  0  0  0  0
  149.6031  143.4393  156.8300 H   0  0  0  0  0  0  0  0  0  0  0  0
  148.7305  142.8128  155.1910 H   0  0  0  0  0  0  0  0  0  0  0  0
  149.4952  140.9596  153.3454 H   0  0  0  0  0  0  0  0  0  0  0  0
  148.7041  139.9751  154.5432 H   0  0  0  0  0  0  0  0  0  0  0  0
  146.8057  141.9192  154.2546 H   0  0  0  0  0  0  0  0  0  0  0  0
  147.4833  141.9975  152.6532 H   0  0  0  0  0  0  0  0  0  0  0  0
  147.0851  140.2634  151.0900 H   0  0  0  0  0  0  0  0  0  0  0  0
  148.0473  139.1350  152.0264 H   0  0  0  0  0  0  0  0  0  0  0  0
  145.1169  138.7952  151.1912 H   0  0  0  0  0  0  0  0  0  0  0  0
  146.4757  137.9104  150.5396 H   0  0  0  0  0  0  0  0  0  0  0  0
  145.2290  136.5713  152.2506 H   0  0  0  0  0  0  0  0  0  0  0  0
  146.8952  136.8308  152.7158 H   0  0  0  0  0  0  0  0  0  0  0  0
  144.4893  138.4341  153.6904 H   0  0  0  0  0  0  0  0  0  0  0  0
  146.3113  136.5166  155.2211 H   0  0  0  0  0  0  0  0  0  0  0  0
  144.6467  136.1954  154.7426 H   0  0  0  0  0  0  0  0  0  0  0  0
  144.9952  137.4590  155.9162 H   0  0  0  0  0  0  0  0  0  0  0  0
  147.4209  138.7635  154.4884 H   0  0  0  0  0  0  0  0  0  0  0  0
  146.0576  139.6499  155.1382 H   0  0  0  0  0  0  0  0  0  0  0  0
  151.2598  140.5905  158.2893 H   0  0  0  0  0  0  0  0  0  0  0  0
  145.6268  140.4869  152.9423 H   0  0  0  0  0  0  0  0  0  0  0  0
  1  2  1  0  0  0  0
  1 22  1  0  0  0  0
  1 23  1  0  0  0  0
  1 24  1  0  0  0  0
  2  3  1  0  0  0  0
  3 21  1  0  0  0  0
  3  4  2  0  0  0  0
  4  5  1  0  0  0  0
  4 25  1  0  0  0  0
  5  6  2  0  0  0  0
  5 26  1  0  0  0  0
  6  7  1  0  0  0  0
  6 20  1  0  0  0  0
  7  8  1  0  0  0  0
  7 27  1  0  0  0  0
  8  9  2  0  0  0  0
  8 10  1  0  0  0  0
 10 11  1  0  0  0  0
 10 28  1  0  0  0  0
 11 12  1  0  0  0  0
 11 29  1  0  0  0  0
 11 30  1  0  0  0  0
 12 13  1  0  0  0  0
 12 31  1  0  0  0  0
 12 32  1  0  0  0  0
 13 19  1  0  0  0  0
 13 14  1  0  0  0  0
 13 46  1  0  0  0  0
 14 15  1  0  0  0  0
 14 33  1  0  0  0  0
 14 34  1  0  0  0  0
 15 16  1  0  0  0  0
 15 35  1  0  0  0  0
 15 36  1  0  0  0  0
 16 17  1  0  0  0  0
 16 37  1  0  0  0  0
 16 38  1  0  0  0  0
 17 18  1  0  0  0  0
 17 19  1  0  0  0  0
 17 39  1  0  0  0  0
 18 40  1  0  0  0  0
 18 41  1  0  0  0  0
 18 42  1  0  0  0  0
 19 43  1  0  0  0  0
 19 44  1  0  0  0  0
 20 21  2  0  0  0  0
 20 45  1  0  0  0  0
M  CHG  1  13   1
M  END
> <s_m_source_file>
AV-unprocessed.smi

> <i_m_source_file_index>
1956

> <i_lp_mmshare_version>
43012

> <i_f3d_flags>
0

> <s_epik_input>
W0NIM11PYzFbY0hdW2NIXWMoW2NIXW4xKVtOSF1DKD1PKVtOSF1bQ0gyXVtDSDJdTjJbQ0gyXVtDSDJdW0NIMl1bQ0BASF0oW0NIM10pW0NIMl0y

> <s_epik_cmdline>
J2VwaWtfcHl0aG9uJywgJy1waCcsICc3LjAnLCAnLXRuJywgJzgnLCAnLW1hJywgJzIwMCcsICctbWV0YWxfYmluZGluZycsICctaW1hZScsICc8aW5maWxlLm1hZT4nLCAnLW9tYWUnLCAnPG91dGZpbGUubWFlPic=

> <r_lp_tautomer_probability>
1

> <r_epik_Ionization_Penalty>
0.00179545

> <r_epik_Ionization_Penalty_Charging>
0.00171832

> <r_epik_Ionization_Penalty_Neutral>
7.7124e-05

> <r_epik_State_Penalty>
0.0011618

> <r_epik_Charging_Adjusted_Penalty>
0.00288012

> <i_epik_Tot_Q>
1

> <i_epik_Tot_abs_Q>
1

> <r_epik_Metal_State_Penalty>
-0

> <b_epik_Metal_Only>
0

> <s_lp_Force_Field>
OPLS_2005

> <r_lp_Energy>
26.1696

> <b_lp_Chiralities_Consistent>
1

> <s_lp_Variant>
AV-unprocessed.smi:1956-1

> <Gold.Version>
5.8.1

> <Gold.Id.Protein>
6NUR|6NUR_protein|mol2

> <Gold.PLP.Fitness>
47.8669

> <Gold.PLP.PLP>
-37.0602

> <Gold.PLP.part.hbond>
-3.0000

> <Gold.PLP.part.metal>
0.0000

> <Gold.PLP.part.buried>
2.1413

> <Gold.PLP.part.nonpolar>
-36.4966

> <Gold.PLP.part.repulsive>
0.2495

> <Gold.PLP.ligand.clash>
0.0000

> <Gold.PLP.ligand.torsion>
0.6308

> <Gold.PLP.Chemscore.Hbond>
4.0000

> <Gold.PLP.Chemscore.CHOScore>
0.0000

> <Gold.PLP.Chemscore.Metal>
0.0000

> <Gold.Chemscore.Hbonds>
donor molecule, donor type, donor heavy atom, donor atom, acceptor molecule, acceptor atom, score
      L1  H     7    27       P1  8028  1.00
      L1  H    10    28       P1  8028  0.99
      L1  H    13    46       P1 10175  2.00

> <Gold.PLP.Chemscore.Internal.Correction>
0.0682

> <Gold.Rescore>
     Score         DG    S(hbond)    S(metal)    S(lipo)     H(rot)  DE(clash)    DE(int)     intcor
     18.51     -20.68       2.84        0.00      86.34       1.71       0.13       2.05       ----

> <Gold.Chemscore.Fitness>
18.5099

> <Gold.Chemscore.DG>
-20.6839

> <Gold.Chemscore.ZeroCoef>
-5.4800

> <Gold.Chemscore.Hbond>
2.8387

> <Gold.Chemscore.Metal>
0.0000

> <Gold.Chemscore.Lipo>
86.3415

> <Gold.Chemscore.Internal_Hbond>
0.0000

> <Gold.Chemscore.DEClash>
0.1255

> <Gold.Chemscore.DEInternal>
2.0486

> <Gold.Chemscore.Rot>
1.7107

> <Gold.Chemscore.Internal.Correction>
   9.000000E+99

> <Gold.Chemscore.Hbonds>
donor molecule, donor type, donor heavy atom, donor atom, acceptor molecule, acceptor atom, score
      L1  H     7    27       P1  8028  0.95
      L1  H    10    28       P1  8028  0.92
      L1  H    13    46       P1 10175  0.79

> <Gold.Chemscore.Hbond.Weighted>
-9.4814

> <Gold.Chemscore.Metal.Weighted>
-0.0000

> <Gold.Chemscore.Lipo.Weighted>
-10.1020

> <Gold.Chemscore.Internal_Hbond.Weighted>
0.0000

> <Gold.Chemscore.DEClash.Weighted>
0.1255

> <Gold.Chemscore.DEInternal.Weighted>
2.0486

> <Gold.Chemscore.Rot.Weighted>
4.3794

> <Gold.Chemscore.Internal.Correction.Weighted>
   9.000000E+99

> <Gold.Protein.RotatedTorsions>
[ 6907 6896 6895 6894 ] final  154.37 input  -60.11 | X-H torsion
[ 7974 7965 7964 7962 ] final -132.33 input  175.53 | X-H torsion
[ 8008 7997 7996 7995 ] final -178.13 input   59.86 | X-H torsion
[ 10167 10162 10161 10158 ] final   91.02 input  -65.29 | X-H torsion
[ 10718 10713 10712 10709 ] final  -35.53 input   66.30 | X-H torsion
[ 10763 10752 10751 10750 ] final   16.97 input  -60.55 | X-H torsion
[ 11005 11000 10999 10996 ] final -109.42 input  -57.11 | X-H torsion

> <Gold.Protein.ActiveResidues>
 VAL166  LYS551  ARG553  GLY616  TRP617  ASP618  TYR619  PRO620  LYS621  CYS622 
 ASP623  PHE694  ASN695  SER759  ASP760  ASP761  ALA762  ILE779  LEU786  VAL792 
 PHE793  MET794  SER795  GLU796  ALA797  LYS798  CYS799  TRP800  GLU811  SER814 

> <Gold.Protein.RotatedAtoms>
  152.0594  133.4055  159.4411 H   0  0  0  0  0  0  0  0  0  0  0  0  # atno 6907 bound_to 6896
  150.6867  134.3217  159.4798 H   0  0  0  0  0  0  0  0  0  0  0  0  # atno 6908 bound_to 6896
  152.1036  134.9323  160.0619 H   0  0  0  0  0  0  0  0  0  0  0  0  # atno 6909 bound_to 6896
  144.9295  140.7111  143.4915 H   0  0  0  0  0  0  0  0  0  0  0  0  # atno 7974 bound_to 7965
  156.0151  140.1249  157.0414 H   0  0  0  0  0  0  0  0  0  0  0  0  # atno 8008 bound_to 7997
  154.4290  140.1080  156.5954 H   0  0  0  0  0  0  0  0  0  0  0  0  # atno 8009 bound_to 7997
  155.6024  140.3470  155.4600 H   0  0  0  0  0  0  0  0  0  0  0  0  # atno 8010 bound_to 7997
  139.8415  144.6638  150.9277 H   0  0  0  0  0  0  0  0  0  0  0  0  # atno 10167 bound_to 10162
  156.3375  130.4288  149.7817 H   0  0  0  0  0  0  0  0  0  0  0  0  # atno 10718 bound_to 10713
  153.1381  135.6754  153.9070 H   0  0  0  0  0  0  0  0  0  0  0  0  # atno 10763 bound_to 10752
  153.8535  135.3090  155.3435 H   0  0  0  0  0  0  0  0  0  0  0  0  # atno 10764 bound_to 10752
  154.7765  135.4911  153.9838 H   0  0  0  0  0  0  0  0  0  0  0  0  # atno 10765 bound_to 10752
  141.0848  133.9157  157.2208 H   0  0  0  0  0  0  0  0  0  0  0  0  # atno 11005 bound_to 11000
  145.3165  139.1802  143.4611 LP  0  0  0  0  0  0  0  0  0  0  0  0  # atno 17320 bound_to 7965
  146.3241  140.3176  142.8631 LP  0  0  0  0  0  0  0  0  0  0  0  0  # atno 17321 bound_to 7965
  140.7797  143.3908  151.1313 LP  0  0  0  0  0  0  0  0  0  0  0  0  # atno 17342 bound_to 10162
  139.7554  143.8715  152.3087 LP  0  0  0  0  0  0  0  0  0  0  0  0  # atno 17343 bound_to 10162
  156.5066  130.8153  151.3153 LP  0  0  0  0  0  0  0  0  0  0  0  0  # atno 17370 bound_to 10713
  157.7441  130.9927  150.2647 LP  0  0  0  0  0  0  0  0  0  0  0  0  # atno 17371 bound_to 10713
  139.9666  135.0140  156.9402 LP  0  0  0  0  0  0  0  0  0  0  0  0  # atno 17394 bound_to 11000
  140.5386  134.0742  155.7335 LP  0  0  0  0  0  0  0  0  0  0  0  0  # atno 17395 bound_to 11000

$$$$
