AV-unprocessed.smi:957|AV-procd|sdf|4266|dock9
  -GOLD-   22720 2173D 1   1.00000     0.00000
 Structure written by MMmdl.
 30 31  0  0  0  0  0  0  0  0  2 V2000
  152.4830  143.5699  161.7566 C   0  0  0  0  0  0  0  0  0  0  0  0
  152.1797  143.3305  160.2724 C   0  0  0  0  0  0  0  0  0  0  0  0
  152.7766  142.0966  159.7914 N   0  0  0  0  0  0  0  0  0  0  0  0
  153.7589  141.3812  160.3609 C   0  0  0  0  0  0  0  0  0  0  0  0
  154.1164  140.2832  159.6976 N   0  0  0  0  0  0  0  0  0  0  0  0
  153.2989  140.2681  158.5871 N   0  0  0  0  0  0  0  0  0  0  0  0
  152.5236  141.3559  158.6894 C   0  0  0  0  0  0  0  0  0  0  0  0
  151.4838  141.7205  157.6661 C   0  0  1  0  0  0  0  0  0  0  0  0
  151.4220  140.6954  156.5174 C   0  0  0  0  0  0  0  0  0  0  0  0
  150.3399  141.0904  155.5010 C   0  0  0  0  0  0  0  0  0  0  0  0
  148.9807  141.2826  156.1936 C   0  0  0  0  0  0  0  0  0  0  0  0
  149.0852  142.2772  157.2834 N   0  3  0  0  0  0  0  0  0  0  0  0
  150.0924  141.9127  158.3043 C   0  0  0  0  0  0  0  0  0  0  0  0
  152.0168  144.4926  162.1025 H   0  0  0  0  0  0  0  0  0  0  0  0
  153.5545  143.6515  161.9389 H   0  0  0  0  0  0  0  0  0  0  0  0
  152.1007  142.7545  162.3716 H   0  0  0  0  0  0  0  0  0  0  0  0
  151.1011  143.2766  160.1200 H   0  0  0  0  0  0  0  0  0  0  0  0
  152.5356  144.1615  159.6632 H   0  0  0  0  0  0  0  0  0  0  0  0
  154.2285  141.6721  161.2891 H   0  0  0  0  0  0  0  0  0  0  0  0
  151.7604  142.6759  157.2221 H   0  0  0  0  0  0  0  0  0  0  0  0
  152.3902  140.6248  156.0205 H   0  0  0  0  0  0  0  0  0  0  0  0
  151.2017  139.7029  156.9129 H   0  0  0  0  0  0  0  0  0  0  0  0
  150.6291  142.0136  154.9968 H   0  0  0  0  0  0  0  0  0  0  0  0
  150.2596  140.3274  154.7260 H   0  0  0  0  0  0  0  0  0  0  0  0
  148.2332  141.6188  155.4748 H   0  0  0  0  0  0  0  0  0  0  0  0
  148.6263  140.3360  156.6041 H   0  0  0  0  0  0  0  0  0  0  0  0
  149.3414  143.1678  156.8820 H   0  0  0  0  0  0  0  0  0  0  0  0
  149.7695  141.0003  158.8077 H   0  0  0  0  0  0  0  0  0  0  0  0
  150.1269  142.6981  159.0600 H   0  0  0  0  0  0  0  0  0  0  0  0
  148.1842  142.3687  157.7311 H   0  0  0  0  0  0  0  0  0  0  0  0
  1  2  1  0  0  0  0
  1 14  1  0  0  0  0
  1 15  1  0  0  0  0
  1 16  1  0  0  0  0
  2  3  1  0  0  0  0
  2 17  1  0  0  0  0
  2 18  1  0  0  0  0
  3  7  1  0  0  0  0
  3  4  1  0  0  0  0
  4  5  2  0  0  0  0
  4 19  1  0  0  0  0
  5  6  1  0  0  0  0
  6  7  2  0  0  0  0
  7  8  1  0  0  0  0
  8 13  1  0  0  0  0
  8  9  1  0  0  0  0
  8 20  1  0  0  0  0
  9 10  1  0  0  0  0
  9 21  1  0  0  0  0
  9 22  1  0  0  0  0
 10 11  1  0  0  0  0
 10 23  1  0  0  0  0
 10 24  1  0  0  0  0
 11 12  1  0  0  0  0
 11 25  1  0  0  0  0
 11 26  1  0  0  0  0
 12 13  1  0  0  0  0
 12 27  1  0  0  0  0
 12 30  1  0  0  0  0
 13 28  1  0  0  0  0
 13 29  1  0  0  0  0
M  CHG  1  12   1
M  END
> <s_m_source_file>
AV-unprocessed.smi

> <i_m_source_file_index>
957

> <i_lp_mmshare_version>
43012

> <i_f3d_flags>
0

> <s_epik_input>
W0NIM11bQ0gyXW4xW2NIXW5uYzFbQ0BASF0yW0NIMl1bQ0gyXVtDSDJdW05IXVtDSDJdMg==

> <s_epik_cmdline>
J2VwaWtfcHl0aG9uJywgJy1waCcsICc3LjAnLCAnLXRuJywgJzgnLCAnLW1hJywgJzIwMCcsICctbWV0YWxfYmluZGluZycsICctaW1hZScsICc8aW5maWxlLm1hZT4nLCAnLW9tYWUnLCAnPG91dGZpbGUubWFlPic=

> <r_lp_tautomer_probability>
1

> <r_epik_Ionization_Penalty>
0.000442722

> <r_epik_Ionization_Penalty_Charging>
0.000426856

> <r_epik_Ionization_Penalty_Neutral>
1.58656e-05

> <r_epik_State_Penalty>
-0

> <r_epik_Charging_Adjusted_Penalty>
0.000426856

> <i_epik_Tot_Q>
1

> <i_epik_Tot_abs_Q>
1

> <r_epik_Metal_State_Penalty>
-0

> <b_epik_Metal_Only>
0

> <s_lp_Force_Field>
OPLS_2005

> <r_lp_Energy>
16.0383

> <b_lp_Chiralities_Consistent>
1

> <s_lp_Variant>
AV-unprocessed.smi:957-2

> <Gold.Version>
5.8.1

> <Gold.Id.Protein>
6NUR|6NUR_protein|mol2

> <Gold.PLP.Fitness>
37.2912

> <Gold.PLP.PLP>
-29.0482

> <Gold.PLP.part.hbond>
-2.0000

> <Gold.PLP.part.metal>
0.0000

> <Gold.PLP.part.buried>
-2.6663

> <Gold.PLP.part.nonpolar>
-23.4578

> <Gold.PLP.part.repulsive>
0.0418

> <Gold.PLP.ligand.clash>
0.0000

> <Gold.PLP.ligand.torsion>
0.2599

> <Gold.PLP.Chemscore.Hbond>
2.9120

> <Gold.PLP.Chemscore.CHOScore>
0.0000

> <Gold.PLP.Chemscore.Metal>
0.0000

> <Gold.Chemscore.Hbonds>
donor molecule, donor type, donor heavy atom, donor atom, acceptor molecule, acceptor atom, score
      L1  H    12    27       P1  8028  1.95
      P1  H  7997  8008       L1     6  0.91

> <Gold.PLP.Chemscore.Internal.Correction>
0.0267

> <Gold.Rescore>
     Score         DG    S(hbond)    S(metal)    S(lipo)     H(rot)  DE(clash)    DE(int)     intcor
     13.02     -13.45       1.44        0.00      54.39       1.26       0.32       0.12       ----

> <Gold.Chemscore.Fitness>
13.0192

> <Gold.Chemscore.DG>
-13.4514

> <Gold.Chemscore.ZeroCoef>
-5.4800

> <Gold.Chemscore.Hbond>
1.4449

> <Gold.Chemscore.Metal>
0.0000

> <Gold.Chemscore.Lipo>
54.3939

> <Gold.Chemscore.Internal_Hbond>
0.0000

> <Gold.Chemscore.DEClash>
0.3169

> <Gold.Chemscore.DEInternal>
0.1153

> <Gold.Chemscore.Rot>
1.2573

> <Gold.Chemscore.Internal.Correction>
   9.000000E+99

> <Gold.Chemscore.Hbonds>
donor molecule, donor type, donor heavy atom, donor atom, acceptor molecule, acceptor atom, score
      L1  H    12    27       P1  8028  0.86
      P1  H  7997  8008       L1     6  0.33

> <Gold.Chemscore.Hbond.Weighted>
-4.8261

> <Gold.Chemscore.Metal.Weighted>
-0.0000

> <Gold.Chemscore.Lipo.Weighted>
-6.3641

> <Gold.Chemscore.Internal_Hbond.Weighted>
0.0000

> <Gold.Chemscore.DEClash.Weighted>
0.3169

> <Gold.Chemscore.DEInternal.Weighted>
0.1153

> <Gold.Chemscore.Rot.Weighted>
3.2188

> <Gold.Chemscore.Internal.Correction.Weighted>
   9.000000E+99

> <Gold.Protein.RotatedTorsions>
[ 6907 6896 6895 6894 ] final  172.60 input  -60.11 | X-H torsion
[ 7974 7965 7964 7962 ] final -149.19 input  175.53 | X-H torsion
[ 8008 7997 7996 7995 ] final  -87.29 input   59.86 | X-H torsion
[ 10167 10162 10161 10158 ] final   70.38 input  -65.29 | X-H torsion
[ 10718 10713 10712 10709 ] final   77.24 input   66.30 | X-H torsion
[ 10763 10752 10751 10750 ] final  138.52 input  -60.55 | X-H torsion
[ 11005 11000 10999 10996 ] final  157.84 input  -57.11 | X-H torsion

> <Gold.Protein.ActiveResidues>
 VAL166  LYS551  ARG553  GLY616  TRP617  ASP618  TYR619  PRO620  LYS621  CYS622 
 ASP623  PHE694  ASN695  SER759  ASP760  ASP761  ALA762  ILE779  LEU786  VAL792 
 PHE793  MET794  SER795  GLU796  ALA797  LYS798  CYS799  TRP800  GLU811  SER814 

> <Gold.Protein.RotatedAtoms>
  151.7817  133.3350  159.3473 H   0  0  0  0  0  0  0  0  0  0  0  0  # atno 6907 bound_to 6896
  150.7424  134.5925  159.6004 H   0  0  0  0  0  0  0  0  0  0  0  0  # atno 6908 bound_to 6896
  152.3271  134.7308  160.0350 H   0  0  0  0  0  0  0  0  0  0  0  0  # atno 6909 bound_to 6896
  144.7983  140.5098  143.5725 H   0  0  0  0  0  0  0  0  0  0  0  0  # atno 7974 bound_to 7965
  154.6615  140.0567  157.0068 H   0  0  0  0  0  0  0  0  0  0  0  0  # atno 8008 bound_to 7997
  155.1221  140.3248  155.4476 H   0  0  0  0  0  0  0  0  0  0  0  0  # atno 8009 bound_to 7997
  156.2620  140.1995  156.6343 H   0  0  0  0  0  0  0  0  0  0  0  0  # atno 8010 bound_to 7997
  140.0576  144.5260  150.7318 H   0  0  0  0  0  0  0  0  0  0  0  0  # atno 10167 bound_to 10162
  157.6703  130.9812  150.1613 H   0  0  0  0  0  0  0  0  0  0  0  0  # atno 10718 bound_to 10713
  153.8910  135.3033  155.3447 H   0  0  0  0  0  0  0  0  0  0  0  0  # atno 10763 bound_to 10752
  154.7716  135.4883  153.9664 H   0  0  0  0  0  0  0  0  0  0  0  0  # atno 10764 bound_to 10752
  153.1298  135.6801  153.9296 H   0  0  0  0  0  0  0  0  0  0  0  0  # atno 10765 bound_to 10752
  140.1807  134.8477  157.2800 H   0  0  0  0  0  0  0  0  0  0  0  0  # atno 11005 bound_to 11000
  145.5618  139.1480  143.3337 LP  0  0  0  0  0  0  0  0  0  0  0  0  # atno 17320 bound_to 7965
  146.2257  140.5753  142.8997 LP  0  0  0  0  0  0  0  0  0  0  0  0  # atno 17321 bound_to 7965
  140.7187  143.2568  151.4349 LP  0  0  0  0  0  0  0  0  0  0  0  0  # atno 17342 bound_to 10162
  139.5914  144.1491  152.2092 LP  0  0  0  0  0  0  0  0  0  0  0  0  # atno 17343 bound_to 10162
  156.2389  130.3689  149.8360 LP  0  0  0  0  0  0  0  0  0  0  0  0  # atno 17370 bound_to 10713
  156.6165  130.8608  151.3466 LP  0  0  0  0  0  0  0  0  0  0  0  0  # atno 17371 bound_to 10713
  140.2270  134.3954  155.7539 LP  0  0  0  0  0  0  0  0  0  0  0  0  # atno 17394 bound_to 11000
  141.2223  133.7195  156.8581 LP  0  0  0  0  0  0  0  0  0  0  0  0  # atno 17395 bound_to 11000

$$$$
