AV-unprocessed.smi:38|AV-procd|sdf|343|dock3
  -GOLD-   2262016183D 1   1.00000     0.00000
 Structure written by MMmdl.
 27 28  0  0  0  0  0  0  0  0  2 V2000
  152.2493  139.9710  156.1029 O   0  0  0  0  0  0  0  0  0  0  0  0
  151.0979  139.9776  155.6702 C   0  0  0  0  0  0  0  0  0  0  0  0
  150.1726  140.9073  156.0459 N   0  5  0  0  0  0  0  0  0  0  0  0
  148.8946  140.9122  155.5649 C   0  0  0  0  0  0  0  0  0  0  0  0
  148.0597  141.7587  155.8846 O   0  0  0  0  0  0  0  0  0  0  0  0
  148.5020  139.9024  154.6438 N   0  0  0  0  0  0  0  0  0  0  0  0
  147.0871  139.9045  154.1033 C   0  0  1  0  0  0  0  0  0  0  0  0
  147.1006  140.0349  152.5780 C   0  0  0  0  0  0  0  0  0  0  0  0
  146.9930  138.5878  152.1455 C   0  0  2  0  0  0  0  0  0  0  0  0
  146.4443  138.4887  150.8473 O   0  0  0  0  0  0  0  0  0  0  0  0
  146.0696  138.0088  153.2200 C   0  0  1  0  0  0  0  0  0  0  0  0
  146.2087  136.4885  153.3976 C   0  0  0  0  0  0  0  0  0  0  0  0
  146.2984  135.8562  152.1385 O   0  0  0  0  0  0  0  0  0  0  0  0
  146.4679  138.6874  154.4118 O   0  0  0  0  0  0  0  0  0  0  0  0
  149.4246  138.9530  154.2366 C   0  0  0  0  0  0  0  0  0  0  0  0
  150.6873  138.9551  154.7101 C   0  0  0  0  0  0  0  0  0  0  0  0
  151.5595  138.0211  154.2938 F   0  0  0  0  0  0  0  0  0  0  0  0
  146.5689  140.7178  154.6138 H   0  0  0  0  0  0  0  0  0  0  0  0
  147.9740  138.1114  152.1776 H   0  0  0  0  0  0  0  0  0  0  0  0
  145.0374  138.2845  152.9939 H   0  0  0  0  0  0  0  0  0  0  0  0
  146.2174  140.6012  152.2780 H   0  0  0  0  0  0  0  0  0  0  0  0
  147.9899  140.5463  152.2074 H   0  0  0  0  0  0  0  0  0  0  0  0
  145.5393  138.7576  150.8847 H   0  0  0  0  0  0  0  0  0  0  0  0
  147.1246  136.2586  153.9424 H   0  0  0  0  0  0  0  0  0  0  0  0
  145.3802  136.0740  153.9715 H   0  0  0  0  0  0  0  0  0  0  0  0
  147.1216  136.0950  151.7409 H   0  0  0  0  0  0  0  0  0  0  0  0
  149.1443  138.1934  153.5243 H   0  0  0  0  0  0  0  0  0  0  0  0
  1  2  2  0  0  0  0
  2 16  1  0  0  0  0
  2  3  1  0  0  0  0
  3  4  1  0  0  0  0
  4  5  2  0  0  0  0
  4  6  1  0  0  0  0
  6  7  1  0  0  0  0
  6 15  1  0  0  0  0
  7 18  1  0  0  0  0
  7 14  1  0  0  0  0
  7  8  1  0  0  0  0
  8  9  1  0  0  0  0
  8 21  1  0  0  0  0
  8 22  1  0  0  0  0
  9 19  1  0  0  0  0
  9 10  1  0  0  0  0
  9 11  1  0  0  0  0
 10 23  1  0  0  0  0
 11 20  1  0  0  0  0
 11 12  1  0  0  0  0
 11 14  1  0  0  0  0
 12 13  1  0  0  0  0
 12 24  1  0  0  0  0
 12 25  1  0  0  0  0
 13 26  1  0  0  0  0
 15 16  2  0  0  0  0
 15 27  1  0  0  0  0
 16 17  1  0  0  0  0
M  CHG  1   3  -1
M  END
> <s_m_source_file>
AV-unprocessed.smi

> <i_m_source_file_index>
38

> <i_lp_mmshare_version>
43012

> <i_f3d_flags>
0

> <s_epik_input>
Tz1jMVtuSF1jKD1PKW4oW2NIXWMxRilbQ0BIXTJbQ0gyXVtDQEhdKFtPSF0pW0NASF0oTzIpW0NIMl1bT0hd

> <s_epik_cmdline>
J2VwaWtfcHl0aG9uJywgJy1waCcsICc3LjAnLCAnLXRuJywgJzgnLCAnLW1hJywgJzIwMCcsICctbWV0YWxfYmluZGluZycsICctaW1hZScsICc8aW5maWxlLm1hZT4nLCAnLW9tYWUnLCAnPG91dGZpbGUubWFlPic=

> <r_epik_Ionization_Penalty>
1.68146

> <r_epik_Ionization_Penalty_Charging>
3.4211e-08

> <r_epik_Ionization_Penalty_Neutral>
1.68146

> <r_epik_State_Penalty>
1.78593

> <r_epik_Charging_Adjusted_Penalty>
1.78593

> <i_epik_Tot_Q>
-1

> <i_epik_Tot_abs_Q>
1

> <r_epik_Metal_State_Penalty>
0.0113696

> <b_epik_Metal_Only>
0

> <s_epik_Chemistry_Notes>
This compound contains an acetal/aminal-like group ( X-CH(R)-Y where X, Y are N, S, or O) that may be acid/base labile, releasing an aldehyde.

> <s_lp_Force_Field>
OPLS_2005

> <r_lp_Energy>
36.3434

> <b_lp_Chiralities_Consistent>
1

> <s_lp_Variant>
AV-unprocessed.smi:38-9

> <Gold.Version>
5.8.1

> <Gold.Id.Protein>
6NUR|6NUR_protein|mol2

> <Gold.PLP.Fitness>
38.9711

> <Gold.PLP.PLP>
-25.3648

> <Gold.PLP.part.hbond>
-4.0000

> <Gold.PLP.part.metal>
0.0000

> <Gold.PLP.part.buried>
1.4358

> <Gold.PLP.part.nonpolar>
-23.7330

> <Gold.PLP.part.repulsive>
1.3690

> <Gold.PLP.ligand.clash>
0.0000

> <Gold.PLP.ligand.torsion>
0.1822

> <Gold.PLP.Chemscore.Hbond>
3.6534

> <Gold.PLP.Chemscore.CHOScore>
1.0000

> <Gold.PLP.Chemscore.Metal>
0.0000

> <Gold.Chemscore.Hbonds>
donor molecule, donor type, donor heavy atom, donor atom, acceptor molecule, acceptor atom, score
      L1  H    10    23       P1 10171  0.78
      L1  H    13    26       P1  7948  1.00
      P1  H  7954  7966       L1    10  0.80
      P1  H  7997  8008       L1     1  0.80
      L1  C    15    27       P1  7948  0.95

> <Gold.PLP.Chemscore.Internal.Correction>
0.0104

> <Gold.Rescore>
     Score         DG    S(hbond)    S(metal)    S(lipo)     H(rot)  DE(clash)    DE(int)     intcor
     10.06     -12.08       2.78        0.00      40.06       2.88       1.80       0.22       ----

> <Gold.Chemscore.Fitness>
10.0590

> <Gold.Chemscore.DG>
-12.0807

> <Gold.Chemscore.ZeroCoef>
-5.4800

> <Gold.Chemscore.Hbond>
2.7815

> <Gold.Chemscore.Metal>
0.0000

> <Gold.Chemscore.Lipo>
40.0589

> <Gold.Chemscore.Internal_Hbond>
0.0000

> <Gold.Chemscore.DEClash>
1.7981

> <Gold.Chemscore.DEInternal>
0.2235

> <Gold.Chemscore.Rot>
2.8815

> <Gold.Chemscore.Internal.Correction>
   9.000000E+99

> <Gold.Chemscore.Hbonds>
donor molecule, donor type, donor heavy atom, donor atom, acceptor molecule, acceptor atom, score
      L1  H    10    23       P1 10171  0.76
      L1  H    13    26       P1  7948  0.94
      P1  H  7954  7966       L1    10  0.15
      P1  H  7997  8008       L1     1  0.78

> <Gold.Chemscore.Hbond.Weighted>
-9.2903

> <Gold.Chemscore.Metal.Weighted>
-0.0000

> <Gold.Chemscore.Lipo.Weighted>
-4.6869

> <Gold.Chemscore.Internal_Hbond.Weighted>
0.0000

> <Gold.Chemscore.DEClash.Weighted>
1.7981

> <Gold.Chemscore.DEInternal.Weighted>
0.2235

> <Gold.Chemscore.Rot.Weighted>
7.3765

> <Gold.Chemscore.Internal.Correction.Weighted>
   9.000000E+99

> <Gold.Protein.RotatedTorsions>
[ 6907 6896 6895 6894 ] final   66.03 input  -60.11 | X-H torsion
[ 7974 7965 7964 7962 ] final   26.88 input  175.53 | X-H torsion
[ 8008 7997 7996 7995 ] final  -32.40 input   59.86 | X-H torsion
[ 10167 10162 10161 10158 ] final -153.86 input  -65.29 | X-H torsion
[ 10718 10713 10712 10709 ] final  111.11 input   66.30 | X-H torsion
[ 10763 10752 10751 10750 ] final   99.55 input  -60.55 | X-H torsion
[ 11005 11000 10999 10996 ] final  116.66 input  -57.11 | X-H torsion

> <Gold.Protein.ActiveResidues>
 VAL166  LYS551  ARG553  GLY616  TRP617  ASP618  TYR619  PRO620  LYS621  CYS622 
 ASP623  PHE694  ASN695  SER759  ASP760  ASP761  ALA762  ILE779  LEU786  VAL792 
 PHE793  MET794  SER795  GLU796  ALA797  LYS798  CYS799  TRP800  GLU811  SER814 

> <Gold.Protein.RotatedAtoms>
  152.4451  134.5511  159.9866 H   0  0  0  0  0  0  0  0  0  0  0  0  # atno 6907 bound_to 6896
  151.5598  133.3399  159.2977 H   0  0  0  0  0  0  0  0  0  0  0  0  # atno 6908 bound_to 6896
  150.8365  134.7673  159.6961 H   0  0  0  0  0  0  0  0  0  0  0  0  # atno 6909 bound_to 6896
  146.1814  139.7267  142.8898 H   0  0  0  0  0  0  0  0  0  0  0  0  # atno 7974 bound_to 7965
  154.4181  140.1738  156.1721 H   0  0  0  0  0  0  0  0  0  0  0  0  # atno 8008 bound_to 7997
  155.9752  140.3382  155.6588 H   0  0  0  0  0  0  0  0  0  0  0  0  # atno 8009 bound_to 7997
  155.6573  140.0697  157.2557 H   0  0  0  0  0  0  0  0  0  0  0  0  # atno 8010 bound_to 7997
  139.7062  143.9183  152.2449 H   0  0  0  0  0  0  0  0  0  0  0  0  # atno 10167 bound_to 10162
  157.6461  131.0945  150.6701 H   0  0  0  0  0  0  0  0  0  0  0  0  # atno 10718 bound_to 10713
  153.3028  135.4110  155.1267 H   0  0  0  0  0  0  0  0  0  0  0  0  # atno 10763 bound_to 10752
  154.8554  135.3545  154.5829 H   0  0  0  0  0  0  0  0  0  0  0  0  # atno 10764 bound_to 10752
  153.6255  135.7063  153.5353 H   0  0  0  0  0  0  0  0  0  0  0  0  # atno 10765 bound_to 10752
  139.9048  134.9601  156.7232 H   0  0  0  0  0  0  0  0  0  0  0  0  # atno 11005 bound_to 11000
  145.4065  141.0391  143.3041 LP  0  0  0  0  0  0  0  0  0  0  0  0  # atno 17320 bound_to 7965
  144.8322  139.5610  143.6939 LP  0  0  0  0  0  0  0  0  0  0  0  0  # atno 17321 bound_to 7965
  139.9039  144.6896  150.8635 LP  0  0  0  0  0  0  0  0  0  0  0  0  # atno 17342 bound_to 10162
  140.7722  143.3493  151.2047 LP  0  0  0  0  0  0  0  0  0  0  0  0  # atno 17343 bound_to 10162
  156.7018  130.4625  149.5571 LP  0  0  0  0  0  0  0  0  0  0  0  0  # atno 17370 bound_to 10713
  156.1790  130.6486  151.0929 LP  0  0  0  0  0  0  0  0  0  0  0  0  # atno 17371 bound_to 10713
  140.6984  133.9328  155.8009 LP  0  0  0  0  0  0  0  0  0  0  0  0  # atno 17394 bound_to 11000
  141.0390  134.0648  157.3925 LP  0  0  0  0  0  0  0  0  0  0  0  0  # atno 17395 bound_to 11000

$$$$
