AV-unprocessed.smi:2451|AV-procd|sdf|9676|dock2
  -GOLD-   2272013313D 1   1.00000     0.00000
 Structure written by MMmdl.
 38 39  0  0  0  0  0  0  0  0  1 V2000
  152.2230  144.1103  159.7488 C   0  0  0  0  0  0  0  0  0  0  0  0
  152.4664  142.7218  159.1315 C   0  0  1  0  0  0  0  0  0  0  0  0
  153.2583  141.8424  160.1200 C   0  0  0  0  0  0  0  0  0  0  0  0
  153.5520  140.4513  159.5447 C   0  0  0  0  0  0  0  0  0  0  0  0
  152.2583  139.7374  159.1288 C   0  0  0  0  0  0  0  0  0  0  0  0
  151.4181  140.5858  158.1534 C   0  0  2  0  0  0  0  0  0  0  0  0
  152.0497  140.6378  156.8267 N   0  0  0  0  0  0  0  0  0  0  0  0
  152.4589  139.1710  156.0125 S   0  0  0  0  0  0  0  0  0  0  0  0
  153.0841  139.5345  154.7317 O   0  0  0  0  0  0  0  0  0  0  0  0
  153.1738  138.3048  156.9628 O   0  0  0  0  0  0  0  0  0  0  0  0
  150.8047  138.4313  155.6827 C   0  0  0  0  0  0  0  0  0  0  0  0
  149.9412  139.4305  154.9675 C   0  0  0  0  0  0  0  0  0  0  0  0
  148.5324  139.4018  154.7718 C   0  0  0  0  0  0  0  0  0  0  0  0
  148.2857  140.5431  154.0645 C   0  0  0  0  0  0  0  0  0  0  0  0
  149.4386  141.2242  153.8446 O   0  0  0  0  0  0  0  0  0  0  0  0
  150.4897  140.5072  154.4271 N   0  0  0  0  0  0  0  0  0  0  0  0
  151.1537  142.0132  158.6981 C   0  0  2  0  0  0  0  0  0  0  0  0
  150.2936  142.8400  157.7210 C   0  0  0  0  0  0  0  0  0  0  0  0
  151.5489  144.0523  160.6038 H   0  0  0  0  0  0  0  0  0  0  0  0
  151.7925  144.8039  159.0270 H   0  0  0  0  0  0  0  0  0  0  0  0
  153.1573  144.5538  160.0938 H   0  0  0  0  0  0  0  0  0  0  0  0
  153.0856  142.8657  158.2448 H   0  0  0  0  0  0  0  0  0  0  0  0
  154.1991  142.3287  160.3809 H   0  0  0  0  0  0  0  0  0  0  0  0
  152.6990  141.7381  161.0509 H   0  0  0  0  0  0  0  0  0  0  0  0
  154.2168  140.5416  158.6847 H   0  0  0  0  0  0  0  0  0  0  0  0
  154.0848  139.8502  160.2821 H   0  0  0  0  0  0  0  0  0  0  0  0
  152.4863  138.7602  158.7029 H   0  0  0  0  0  0  0  0  0  0  0  0
  151.6653  139.5390  160.0225 H   0  0  0  0  0  0  0  0  0  0  0  0
  150.4507  140.0962  158.0350 H   0  0  0  0  0  0  0  0  0  0  0  0
  152.8348  141.2884  156.8226 H   0  0  0  0  0  0  0  0  0  0  0  0
  150.9435  137.5330  155.0817 H   0  0  0  0  0  0  0  0  0  0  0  0
  150.3658  138.1309  156.6345 H   0  0  0  0  0  0  0  0  0  0  0  0
  147.8181  138.6589  155.0943 H   0  0  0  0  0  0  0  0  0  0  0  0
  147.3870  140.9888  153.6645 H   0  0  0  0  0  0  0  0  0  0  0  0
  150.5517  141.8880  159.5995 H   0  0  0  0  0  0  0  0  0  0  0  0
  150.8578  143.1288  156.8339 H   0  0  0  0  0  0  0  0  0  0  0  0
  149.9186  143.7510  158.1869 H   0  0  0  0  0  0  0  0  0  0  0  0
  149.4229  142.2730  157.3903 H   0  0  0  0  0  0  0  0  0  0  0  0
  1  2  1  0  0  0  0
  1 19  1  0  0  0  0
  1 20  1  0  0  0  0
  1 21  1  0  0  0  0
  2 17  1  0  0  0  0
  2  3  1  0  0  0  0
  2 22  1  0  0  0  0
  3  4  1  0  0  0  0
  3 23  1  0  0  0  0
  3 24  1  0  0  0  0
  4  5  1  0  0  0  0
  4 25  1  0  0  0  0
  4 26  1  0  0  0  0
  5  6  1  0  0  0  0
  5 27  1  0  0  0  0
  5 28  1  0  0  0  0
  6  7  1  0  0  0  0
  6 17  1  0  0  0  0
  6 29  1  0  0  0  0
  7  8  1  0  0  0  0
  7 30  1  0  0  0  0
  8  9  2  0  0  0  0
  8 10  2  0  0  0  0
  8 11  1  0  0  0  0
 11 12  1  0  0  0  0
 11 31  1  0  0  0  0
 11 32  1  0  0  0  0
 12 16  2  0  0  0  0
 12 13  1  0  0  0  0
 13 14  2  0  0  0  0
 13 33  1  0  0  0  0
 14 15  1  0  0  0  0
 14 34  1  0  0  0  0
 15 16  1  0  0  0  0
 17 18  1  0  0  0  0
 17 35  1  0  0  0  0
 18 36  1  0  0  0  0
 18 37  1  0  0  0  0
 18 38  1  0  0  0  0
M  END
> <s_m_source_file>
AV-unprocessed.smi

> <i_m_source_file_index>
2451

> <i_lp_mmshare_version>
43012

> <i_f3d_flags>
0

> <s_epik_input>
W0NIM11bQ0BASF0xW0NIMl1bQ0gyXVtDSDJdW0NASF0oW0NASF0xW0NIM10pW05IXVMoPU8pKD1PKVtDSDJdYzJbY0hdW2NIXW9uMg==

> <s_epik_cmdline>
J2VwaWtfcHl0aG9uJywgJy1waCcsICc3LjAnLCAnLXRuJywgJzgnLCAnLW1hJywgJzIwMCcsICctbWV0YWxfYmluZGluZycsICctaW1hZScsICc8aW5maWxlLm1hZT4nLCAnLW9tYWUnLCAnPG91dGZpbGUubWFlPic=

> <r_lp_tautomer_probability>
1

> <r_epik_Ionization_Penalty>
8.73668e-05

> <r_epik_Ionization_Penalty_Charging>
0

> <r_epik_Ionization_Penalty_Neutral>
8.73668e-05

> <r_epik_State_Penalty>
-0

> <r_epik_Charging_Adjusted_Penalty>
0

> <i_epik_Tot_Q>
0

> <i_epik_Tot_abs_Q>
0

> <r_epik_Metal_State_Penalty>
0.0716439

> <b_epik_Metal_Only>
0

> <s_lp_Force_Field>
OPLS_2005

> <r_lp_Energy>
8.50206

> <b_lp_Chiralities_Consistent>
1

> <s_lp_Variant>
AV-unprocessed.smi:2451-8

> <Gold.Version>
5.8.1

> <Gold.Id.Protein>
6NUR|6NUR_protein|mol2

> <Gold.PLP.Fitness>
40.0670

> <Gold.PLP.PLP>
-33.1014

> <Gold.PLP.part.hbond>
-5.8026

> <Gold.PLP.part.metal>
0.0000

> <Gold.PLP.part.buried>
-1.3401

> <Gold.PLP.part.nonpolar>
-26.7422

> <Gold.PLP.part.repulsive>
1.4632

> <Gold.PLP.ligand.clash>
0.0000

> <Gold.PLP.ligand.torsion>
0.3576

> <Gold.PLP.Chemscore.Hbond>
2.5060

> <Gold.PLP.Chemscore.CHOScore>
0.0000

> <Gold.PLP.Chemscore.Metal>
0.0000

> <Gold.Chemscore.Hbonds>
donor molecule, donor type, donor heavy atom, donor atom, acceptor molecule, acceptor atom, score
      P1  H  7989  7998       L1    16  0.93
      P1  H  7997  8008       L1     9  0.60
      P1  H  8011  8017       L1    15  0.86

> <Gold.PLP.Chemscore.Internal.Correction>
0.1627

> <Gold.Rescore>
     Score         DG    S(hbond)    S(metal)    S(lipo)     H(rot)  DE(clash)    DE(int)     intcor
     10.53     -15.50       1.17        0.00      88.50       1.66       0.47       4.50       ----

> <Gold.Chemscore.Fitness>
10.5315

> <Gold.Chemscore.DG>
-15.5034

> <Gold.Chemscore.ZeroCoef>
-5.4800

> <Gold.Chemscore.Hbond>
1.1723

> <Gold.Chemscore.Metal>
0.0000

> <Gold.Chemscore.Lipo>
88.5009

> <Gold.Chemscore.Internal_Hbond>
0.0000

> <Gold.Chemscore.DEClash>
0.4724

> <Gold.Chemscore.DEInternal>
4.4995

> <Gold.Chemscore.Rot>
1.6588

> <Gold.Chemscore.Internal.Correction>
   9.000000E+99

> <Gold.Chemscore.Hbonds>
donor molecule, donor type, donor heavy atom, donor atom, acceptor molecule, acceptor atom, score
      P1  H  7989  7998       L1    16  0.21
      P1  H  7997  8008       L1     9  0.04
      P1  H  8011  8017       L1    15  0.82

> <Gold.Chemscore.Hbond.Weighted>
-3.9154

> <Gold.Chemscore.Metal.Weighted>
-0.0000

> <Gold.Chemscore.Lipo.Weighted>
-10.3546

> <Gold.Chemscore.Internal_Hbond.Weighted>
0.0000

> <Gold.Chemscore.DEClash.Weighted>
0.4724

> <Gold.Chemscore.DEInternal.Weighted>
4.4995

> <Gold.Chemscore.Rot.Weighted>
4.2466

> <Gold.Chemscore.Internal.Correction.Weighted>
   9.000000E+99

> <Gold.Protein.RotatedTorsions>
[ 6907 6896 6895 6894 ] final  158.48 input  -60.11 | X-H torsion
[ 7974 7965 7964 7962 ] final  174.89 input  175.53 | X-H torsion
[ 8008 7997 7996 7995 ] final    4.83 input   59.86 | X-H torsion
[ 10167 10162 10161 10158 ] final  -72.78 input  -65.29 | X-H torsion
[ 10718 10713 10712 10709 ] final   62.62 input   66.30 | X-H torsion
[ 10763 10752 10751 10750 ] final -179.95 input  -60.55 | X-H torsion
[ 11005 11000 10999 10996 ] final   29.08 input  -57.11 | X-H torsion

> <Gold.Protein.ActiveResidues>
 VAL166  LYS551  ARG553  GLY616  TRP617  ASP618  TYR619  PRO620  LYS621  CYS622 
 ASP623  PHE694  ASN695  SER759  ASP760  ASP761  ALA762  ILE779  LEU786  VAL792 
 PHE793  MET794  SER795  GLU796  ALA797  LYS798  CYS799  TRP800  GLU811  SER814 

> <Gold.Protein.RotatedAtoms>
  151.9997  133.3821  159.4176 H   0  0  0  0  0  0  0  0  0  0  0  0  # atno 6907 bound_to 6896
  150.6911  134.3847  159.5059 H   0  0  0  0  0  0  0  0  0  0  0  0  # atno 6908 bound_to 6896
  152.1592  134.8925  160.0593 H   0  0  0  0  0  0  0  0  0  0  0  0  # atno 6909 bound_to 6896
  144.7212  139.9865  143.6439 H   0  0  0  0  0  0  0  0  0  0  0  0  # atno 7974 bound_to 7965
  154.7208  140.2711  155.6543 H   0  0  0  0  0  0  0  0  0  0  0  0  # atno 8008 bound_to 7997
  156.2823  140.2735  156.1804 H   0  0  0  0  0  0  0  0  0  0  0  0  # atno 8009 bound_to 7997
  155.0509  140.0371  157.2533 H   0  0  0  0  0  0  0  0  0  0  0  0  # atno 8010 bound_to 7997
  140.5164  143.2337  151.7506 H   0  0  0  0  0  0  0  0  0  0  0  0  # atno 10167 bound_to 10162
  157.5914  130.9060  149.9611 H   0  0  0  0  0  0  0  0  0  0  0  0  # atno 10718 bound_to 10713
  154.5285  135.2798  155.1201 H   0  0  0  0  0  0  0  0  0  0  0  0  # atno 10763 bound_to 10752
  154.2730  135.6300  153.5321 H   0  0  0  0  0  0  0  0  0  0  0  0  # atno 10764 bound_to 10752
  152.9952  135.5633  154.5792 H   0  0  0  0  0  0  0  0  0  0  0  0  # atno 10765 bound_to 10752
  140.3087  134.2674  155.7738 H   0  0  0  0  0  0  0  0  0  0  0  0  # atno 11005 bound_to 11000
  146.0446  139.3453  143.0676 LP  0  0  0  0  0  0  0  0  0  0  0  0  # atno 17320 bound_to 7965
  145.8292  140.9640  143.0858 LP  0  0  0  0  0  0  0  0  0  0  0  0  # atno 17321 bound_to 7965
  139.4910  144.4318  151.9864 LP  0  0  0  0  0  0  0  0  0  0  0  0  # atno 17342 bound_to 10162
  140.3412  144.3201  150.5967 LP  0  0  0  0  0  0  0  0  0  0  0  0  # atno 17343 bound_to 10162
  156.0969  130.3658  150.0290 LP  0  0  0  0  0  0  0  0  0  0  0  0  # atno 17370 bound_to 10713
  156.8412  130.9426  151.3632 LP  0  0  0  0  0  0  0  0  0  0  0  0  # atno 17371 bound_to 10713
  141.2113  133.7694  156.9876 LP  0  0  0  0  0  0  0  0  0  0  0  0  # atno 17394 bound_to 11000
  140.1044  134.9516  157.1971 LP  0  0  0  0  0  0  0  0  0  0  0  0  # atno 17395 bound_to 11000

$$$$
