AV-unprocessed.smi:1875|AV-procd|sdf|7616|dock4
  -GOLD-   22720 9343D 1   1.00000     0.00000
 Structure written by MMmdl.
 49 51  0  0  0  0  0  0  0  0  3 V2000
  151.0753  135.1229  156.3265 C   0  0  0  0  0  0  0  0  0  0  0  0
  150.9890  136.4302  155.5670 C   0  0  0  0  0  0  0  0  0  0  0  0
  152.1426  136.9915  155.1928 N   0  0  0  0  0  0  0  0  0  0  0  0
  152.0654  138.1583  154.5165 C   0  0  0  0  0  0  0  0  0  0  0  0
  150.8259  138.7549  154.2080 C   0  0  0  0  0  0  0  0  0  0  0  0
  149.6761  138.0695  154.6528 C   0  0  0  0  0  0  0  0  0  0  0  0
  148.2830  138.5986  154.3660 C   0  0  0  0  0  0  0  0  0  0  0  0
  147.9758  138.5820  152.9202 N   0  3  0  0  0  0  0  0  0  0  0  0
  146.5395  138.7027  152.5890 C   0  0  0  0  0  0  0  0  0  0  0  0
  145.8674  137.3221  152.4758 C   0  0  2  0  0  0  0  0  0  0  0  0
  146.2345  136.5376  153.5917 O   0  0  0  0  0  0  0  0  0  0  0  0
  146.2640  136.5452  151.2029 C   0  0  0  0  0  0  0  0  0  0  0  0
  145.3483  135.4402  150.8883 N   0  0  0  0  0  0  0  0  0  0  0  0
  144.1761  135.4409  150.1952 C   0  0  0  0  0  0  0  0  0  0  0  0
  143.7065  134.1627  150.1823 N   0  3  0  0  0  0  0  0  0  0  0  0
  144.5967  133.3320  150.8665 C   0  0  0  0  0  0  0  0  0  0  0  0
  144.5586  131.9655  151.1168 C   0  0  0  0  0  0  0  0  0  0  0  0
  145.6358  131.4132  151.8461 C   0  0  0  0  0  0  0  0  0  0  0  0
  145.6257  129.9217  152.1344 C   0  0  0  0  0  0  0  0  0  0  0  0
  146.7053  132.2283  152.2996 C   0  0  0  0  0  0  0  0  0  0  0  0
  147.8602  131.6224  153.0793 C   0  0  0  0  0  0  0  0  0  0  0  0
  146.7237  133.6173  152.0379 C   0  0  0  0  0  0  0  0  0  0  0  0
  145.6546  134.1447  151.3179 C   0  0  0  0  0  0  0  0  0  0  0  0
  149.7614  136.9045  155.3337 N   0  0  0  0  0  0  0  0  0  0  0  0
  152.0973  134.7421  156.3525 H   0  0  0  0  0  0  0  0  0  0  0  0
  150.4447  134.3675  155.8567 H   0  0  0  0  0  0  0  0  0  0  0  0
  150.7381  135.2621  157.3540 H   0  0  0  0  0  0  0  0  0  0  0  0
  152.9962  138.6155  154.2156 H   0  0  0  0  0  0  0  0  0  0  0  0
  150.7670  139.6855  153.6627 H   0  0  0  0  0  0  0  0  0  0  0  0
  147.5332  138.0268  154.9151 H   0  0  0  0  0  0  0  0  0  0  0  0
  148.2167  139.6267  154.7230 H   0  0  0  0  0  0  0  0  0  0  0  0
  148.4578  139.3565  152.4867 H   0  0  0  0  0  0  0  0  0  0  0  0
  146.0550  139.2763  153.3779 H   0  0  0  0  0  0  0  0  0  0  0  0
  146.4176  139.2666  151.6631 H   0  0  0  0  0  0  0  0  0  0  0  0
  144.7842  137.4481  152.4958 H   0  0  0  0  0  0  0  0  0  0  0  0
  145.5253  136.5452  154.2169 H   0  0  0  0  0  0  0  0  0  0  0  0
  146.2721  137.2129  150.3400 H   0  0  0  0  0  0  0  0  0  0  0  0
  147.2731  136.1393  151.2896 H   0  0  0  0  0  0  0  0  0  0  0  0
  143.7009  136.2992  149.7418 H   0  0  0  0  0  0  0  0  0  0  0  0
  143.7423  131.3501  150.7671 H   0  0  0  0  0  0  0  0  0  0  0  0
  146.4954  129.4395  151.6874 H   0  0  0  0  0  0  0  0  0  0  0  0
  144.7339  129.4435  151.7285 H   0  0  0  0  0  0  0  0  0  0  0  0
  145.6412  129.7388  153.2093 H   0  0  0  0  0  0  0  0  0  0  0  0
  148.6070  132.3742  153.3365 H   0  0  0  0  0  0  0  0  0  0  0  0
  148.3564  130.8498  152.4916 H   0  0  0  0  0  0  0  0  0  0  0  0
  147.5026  131.1760  154.0075 H   0  0  0  0  0  0  0  0  0  0  0  0
  147.5382  134.2377  152.3821 H   0  0  0  0  0  0  0  0  0  0  0  0
  148.3312  137.7225  152.5266 H   0  0  0  0  0  0  0  0  0  0  0  0
  142.8457  133.8786  149.7319 H   0  0  0  0  0  0  0  0  0  0  0  0
  1  2  1  0  0  0  0
  1 25  1  0  0  0  0
  1 26  1  0  0  0  0
  1 27  1  0  0  0  0
  2 24  1  0  0  0  0
  2  3  2  0  0  0  0
  3  4  1  0  0  0  0
  4  5  2  0  0  0  0
  4 28  1  0  0  0  0
  5  6  1  0  0  0  0
  5 29  1  0  0  0  0
  6  7  1  0  0  0  0
  6 24  2  0  0  0  0
  7  8  1  0  0  0  0
  7 30  1  0  0  0  0
  7 31  1  0  0  0  0
  8  9  1  0  0  0  0
  8 32  1  0  0  0  0
  8 48  1  0  0  0  0
  9 10  1  0  0  0  0
  9 33  1  0  0  0  0
  9 34  1  0  0  0  0
 10 11  1  0  0  0  0
 10 12  1  0  0  0  0
 10 35  1  0  0  0  0
 11 36  1  0  0  0  0
 12 13  1  0  0  0  0
 12 37  1  0  0  0  0
 12 38  1  0  0  0  0
 13 23  1  0  0  0  0
 13 14  1  0  0  0  0
 14 15  2  0  0  0  0
 14 39  1  0  0  0  0
 15 16  1  0  0  0  0
 15 49  1  0  0  0  0
 16 23  2  0  0  0  0
 16 17  1  0  0  0  0
 17 18  2  0  0  0  0
 17 40  1  0  0  0  0
 18 19  1  0  0  0  0
 18 20  1  0  0  0  0
 19 41  1  0  0  0  0
 19 42  1  0  0  0  0
 19 43  1  0  0  0  0
 20 21  1  0  0  0  0
 20 22  2  0  0  0  0
 21 44  1  0  0  0  0
 21 45  1  0  0  0  0
 21 46  1  0  0  0  0
 22 23  1  0  0  0  0
 22 47  1  0  0  0  0
M  CHG  1   8   1
M  CHG  1  15   1
M  END
> <s_m_source_file>
AV-unprocessed.smi

> <i_m_source_file_index>
1875

> <i_lp_mmshare_version>
43012

> <i_f3d_flags>
0

> <s_epik_input>
W0NIM11jMW5bY0hdW2NIXWMobjEpW0NIMl1bTkhdW0NIMl1bQ0BIXShbT0hdKVtDSDJdbihbY0hdbjIpYyhjMjMpW2NIXWMoW0NIM10pYyhbY0hdMylbQ0gzXQ==

> <s_epik_cmdline>
J2VwaWtfcHl0aG9uJywgJy1waCcsICc3LjAnLCAnLXRuJywgJzgnLCAnLW1hJywgJzIwMCcsICctbWV0YWxfYmluZGluZycsICctaW1hZScsICc8aW5maWxlLm1hZT4nLCAnLW9tYWUnLCAnPG91dGZpbGUubWFlPic=

> <r_lp_tautomer_probability>
1

> <r_epik_Ionization_Penalty>
1.27527

> <r_epik_Ionization_Penalty_Charging>
1.27526

> <r_epik_Ionization_Penalty_Neutral>
8.72389e-06

> <r_epik_State_Penalty>
1.28654

> <r_epik_Charging_Adjusted_Penalty>
2.5618

> <i_epik_Tot_Q>
2

> <i_epik_Tot_abs_Q>
2

> <r_epik_Metal_State_Penalty>
1.36882

> <b_epik_Metal_Only>
0

> <s_epik_Chemistry_Notes>
This compound contains an electron-poor aromatic ring that is susceptible to covalent hydrolysis at low pH, typically resulting in measured values for nitrogen ring protonation that are around two units higher than predicted values.

> <s_lp_Force_Field>
OPLS_2005

> <r_lp_Energy>
13.455

> <b_lp_Chiralities_Consistent>
1

> <s_lp_Variant>
AV-unprocessed.smi:1875-5

> <Gold.Version>
5.8.1

> <Gold.Id.Protein>
6NUR|6NUR_protein|mol2

> <Gold.PLP.Fitness>
59.0194

> <Gold.PLP.PLP>
-43.1281

> <Gold.PLP.part.hbond>
-4.3454

> <Gold.PLP.part.metal>
0.0000

> <Gold.PLP.part.buried>
-3.2000

> <Gold.PLP.part.nonpolar>
-37.4425

> <Gold.PLP.part.repulsive>
0.2587

> <Gold.PLP.ligand.clash>
0.0000

> <Gold.PLP.ligand.torsion>
0.8695

> <Gold.PLP.Chemscore.Hbond>
4.8314

> <Gold.PLP.Chemscore.CHOScore>
1.0000

> <Gold.PLP.Chemscore.Metal>
0.0000

> <Gold.Chemscore.Hbonds>
donor molecule, donor type, donor heavy atom, donor atom, acceptor molecule, acceptor atom, score
      L1  H     8    32       P1  7957  0.99
      L1  H     8    48       P1  7948  2.00
      L1  H    15    49       P1 10186  1.63
      P1  H 10752 10764       L1     3  0.21
      L1  C    14    39       P1 10171  1.00

> <Gold.PLP.Chemscore.Internal.Correction>
0.1361

> <Gold.Rescore>
     Score         DG    S(hbond)    S(metal)    S(lipo)     H(rot)  DE(clash)    DE(int)     intcor
     18.21     -19.89       2.84        0.00     105.16       2.88       0.76       0.92       ----

> <Gold.Chemscore.Fitness>
18.2146

> <Gold.Chemscore.DG>
-19.8928

> <Gold.Chemscore.ZeroCoef>
-5.4800

> <Gold.Chemscore.Hbond>
2.8417

> <Gold.Chemscore.Metal>
0.0000

> <Gold.Chemscore.Lipo>
105.1614

> <Gold.Chemscore.Internal_Hbond>
0.0000

> <Gold.Chemscore.DEClash>
0.7622

> <Gold.Chemscore.DEInternal>
0.9160

> <Gold.Chemscore.Rot>
2.8838

> <Gold.Chemscore.Internal.Correction>
   9.000000E+99

> <Gold.Chemscore.Hbonds>
donor molecule, donor type, donor heavy atom, donor atom, acceptor molecule, acceptor atom, score
      L1  H     8    32       P1  7957  0.94
      L1  H     8    48       P1  7948  1.00
      L1  H    15    49       P1 10186  0.81
      P1  H 10752 10764       L1     3  0.06

> <Gold.Chemscore.Hbond.Weighted>
-9.4913

> <Gold.Chemscore.Metal.Weighted>
-0.0000

> <Gold.Chemscore.Lipo.Weighted>
-12.3039

> <Gold.Chemscore.Internal_Hbond.Weighted>
0.0000

> <Gold.Chemscore.DEClash.Weighted>
0.7622

> <Gold.Chemscore.DEInternal.Weighted>
0.9160

> <Gold.Chemscore.Rot.Weighted>
7.3824

> <Gold.Chemscore.Internal.Correction.Weighted>
   9.000000E+99

> <Gold.Protein.RotatedTorsions>
[ 6907 6896 6895 6894 ] final  176.49 input  -60.11 | X-H torsion
[ 7974 7965 7964 7962 ] final   81.19 input  175.53 | X-H torsion
[ 8008 7997 7996 7995 ] final  178.51 input   59.86 | X-H torsion
[ 10167 10162 10161 10158 ] final    8.24 input  -65.29 | X-H torsion
[ 10718 10713 10712 10709 ] final -153.93 input   66.30 | X-H torsion
[ 10763 10752 10751 10750 ] final -105.42 input  -60.55 | X-H torsion
[ 11005 11000 10999 10996 ] final  -70.02 input  -57.11 | X-H torsion

> <Gold.Protein.ActiveResidues>
 VAL166  LYS551  ARG553  GLY616  TRP617  ASP618  TYR619  PRO620  LYS621  CYS622 
 ASP623  PHE694  ASN695  SER759  ASP760  ASP761  ALA762  ILE779  LEU786  VAL792 
 PHE793  MET794  SER795  GLU796  ALA797  LYS798  CYS799  TRP800  GLU811  SER814 

> <Gold.Protein.RotatedAtoms>
  151.7193  133.3314  159.3310 H   0  0  0  0  0  0  0  0  0  0  0  0  # atno 6907 bound_to 6896
  150.7660  134.6462  159.6273 H   0  0  0  0  0  0  0  0  0  0  0  0  # atno 6908 bound_to 6896
  152.3662  134.6803  160.0243 H   0  0  0  0  0  0  0  0  0  0  0  0  # atno 6909 bound_to 6896
  145.6413  139.2426  143.2029 H   0  0  0  0  0  0  0  0  0  0  0  0  # atno 7974 bound_to 7965
  156.0538  140.1331  157.0019 H   0  0  0  0  0  0  0  0  0  0  0  0  # atno 8008 bound_to 7997
  154.4448  140.1005  156.6487 H   0  0  0  0  0  0  0  0  0  0  0  0  # atno 8009 bound_to 7997
  155.5482  140.3462  155.4464 H   0  0  0  0  0  0  0  0  0  0  0  0  # atno 8010 bound_to 7997
  140.6326  143.7960  150.7315 H   0  0  0  0  0  0  0  0  0  0  0  0  # atno 10167 bound_to 10162
  156.4925  130.8354  151.2576 H   0  0  0  0  0  0  0  0  0  0  0  0  # atno 10718 bound_to 10713
  154.7945  135.4750  154.0129 H   0  0  0  0  0  0  0  0  0  0  0  0  # atno 10763 bound_to 10752
  153.1682  135.6820  153.8652 H   0  0  0  0  0  0  0  0  0  0  0  0  # atno 10764 bound_to 10752
  153.8243  135.3200  155.3391 H   0  0  0  0  0  0  0  0  0  0  0  0  # atno 10765 bound_to 10752
  141.1566  133.6779  156.6688 H   0  0  0  0  0  0  0  0  0  0  0  0  # atno 11005 bound_to 11000
  146.1278  140.7225  142.9426 LP  0  0  0  0  0  0  0  0  0  0  0  0  # atno 17320 bound_to 7965
  144.7156  140.4198  143.7047 LP  0  0  0  0  0  0  0  0  0  0  0  0  # atno 17321 bound_to 7965
  140.1574  143.4305  152.2090 LP  0  0  0  0  0  0  0  0  0  0  0  0  # atno 17342 bound_to 10162
  139.5538  144.7358  151.4354 LP  0  0  0  0  0  0  0  0  0  0  0  0  # atno 17343 bound_to 10162
  157.7472  131.0009  150.2942 LP  0  0  0  0  0  0  0  0  0  0  0  0  # atno 17370 bound_to 10713
  156.3412  130.3816  149.7407 LP  0  0  0  0  0  0  0  0  0  0  0  0  # atno 17371 bound_to 10713
  140.3191  134.8023  157.4238 LP  0  0  0  0  0  0  0  0  0  0  0  0  # atno 17394 bound_to 11000
  140.1113  134.5342  155.8264 LP  0  0  0  0  0  0  0  0  0  0  0  0  # atno 17395 bound_to 11000

$$$$
