AV-unprocessed.smi:2823|AV-procd|sdf|10885|dock10
  -GOLD-   2272015323D 1   1.00000     0.00000
 Structure written by MMmdl.
 41 42  0  0  0  0  0  0  0  0  2 V2000
  144.2021  134.5203  162.5090 C   0  0  0  0  0  0  0  0  0  0  0  0
  145.5721  134.8916  162.0543 C   0  0  0  0  0  0  0  0  0  0  0  0
  146.6078  134.0934  162.2665 N   0  0  0  0  0  0  0  0  0  0  0  0
  147.6747  134.7983  161.6921 O   0  0  0  0  0  0  0  0  0  0  0  0
  147.1576  135.9540  161.1996 C   0  0  0  0  0  0  0  0  0  0  0  0
  147.9326  136.8564  160.5759 N   0  5  0  0  0  0  0  0  0  0  0  0
  148.8815  136.4421  159.7066 C   0  0  0  0  0  0  0  0  0  0  0  0
  148.9765  135.3159  159.2146 O   0  0  0  0  0  0  0  0  0  0  0  0
  149.7698  137.3943  159.3848 N   0  0  0  0  0  0  0  0  0  0  0  0
  150.8963  137.2667  158.4580 C   0  0  0  0  0  0  0  0  0  0  0  0
  151.0348  138.4883  157.4967 C   0  0  0  0  0  0  0  0  0  0  0  0
  151.0769  139.8535  158.2636 C   0  0  0  0  0  0  0  0  0  0  0  0
  150.1887  140.6774  158.0302 O   0  0  0  0  0  0  0  0  0  0  0  0
  152.0630  140.1594  159.1507 N   0  0  0  0  0  0  0  0  0  0  0  0
  152.1087  141.5008  159.7414 C   0  0  0  0  0  0  0  0  0  0  0  0
  153.1517  139.2985  159.6241 C   0  0  0  0  0  0  0  0  0  0  0  0
  152.3189  138.2830  156.6441 C   0  0  0  0  0  0  0  0  0  0  0  0
  152.1388  139.0783  155.3467 C   0  0  0  0  0  0  0  0  0  0  0  0
  150.6267  139.2126  155.1571 C   0  0  0  0  0  0  0  0  0  0  0  0
  149.9795  138.5168  156.3626 C   0  0  0  0  0  0  0  0  0  0  0  0
  145.8416  136.0500  161.3952 N   0  0  0  0  0  0  0  0  0  0  0  0
  144.2486  133.8955  163.4017 H   0  0  0  0  0  0  0  0  0  0  0  0
  143.6839  133.9686  161.7247 H   0  0  0  0  0  0  0  0  0  0  0  0
  143.6237  135.4139  162.7453 H   0  0  0  0  0  0  0  0  0  0  0  0
  149.6438  138.2982  159.8160 H   0  0  0  0  0  0  0  0  0  0  0  0
  151.7930  137.1894  159.0736 H   0  0  0  0  0  0  0  0  0  0  0  0
  150.8552  136.3146  157.9353 H   0  0  0  0  0  0  0  0  0  0  0  0
  151.2232  141.6834  160.3520 H   0  0  0  0  0  0  0  0  0  0  0  0
  152.1522  142.2637  158.9621 H   0  0  0  0  0  0  0  0  0  0  0  0
  152.9823  141.6461  160.3783 H   0  0  0  0  0  0  0  0  0  0  0  0
  153.0646  138.2478  159.3704 H   0  0  0  0  0  0  0  0  0  0  0  0
  153.2143  139.3415  160.7118 H   0  0  0  0  0  0  0  0  0  0  0  0
  154.1032  139.6521  159.2267 H   0  0  0  0  0  0  0  0  0  0  0  0
  153.2413  138.5484  157.1629 H   0  0  0  0  0  0  0  0  0  0  0  0
  152.4214  137.2292  156.3803 H   0  0  0  0  0  0  0  0  0  0  0  0
  152.5921  140.0658  155.4386 H   0  0  0  0  0  0  0  0  0  0  0  0
  152.6150  138.5784  154.5028 H   0  0  0  0  0  0  0  0  0  0  0  0
  150.3514  140.2679  155.1375 H   0  0  0  0  0  0  0  0  0  0  0  0
  150.2922  138.7710  154.2179 H   0  0  0  0  0  0  0  0  0  0  0  0
  149.7141  137.4958  156.0850 H   0  0  0  0  0  0  0  0  0  0  0  0
  149.0494  139.0217  156.6143 H   0  0  0  0  0  0  0  0  0  0  0  0
  1  2  1  0  0  0  0
  1 22  1  0  0  0  0
  1 23  1  0  0  0  0
  1 24  1  0  0  0  0
  2 21  1  0  0  0  0
  2  3  2  0  0  0  0
  3  4  1  0  0  0  0
  4  5  1  0  0  0  0
  5  6  1  0  0  0  0
  5 21  2  0  0  0  0
  6  7  1  0  0  0  0
  7  8  2  0  0  0  0
  7  9  1  0  0  0  0
  9 10  1  0  0  0  0
  9 25  1  0  0  0  0
 10 11  1  0  0  0  0
 10 26  1  0  0  0  0
 10 27  1  0  0  0  0
 11 20  1  0  0  0  0
 11 12  1  0  0  0  0
 11 17  1  0  0  0  0
 12 13  2  0  0  0  0
 12 14  1  0  0  0  0
 14 15  1  0  0  0  0
 14 16  1  0  0  0  0
 15 28  1  0  0  0  0
 15 29  1  0  0  0  0
 15 30  1  0  0  0  0
 16 31  1  0  0  0  0
 16 32  1  0  0  0  0
 16 33  1  0  0  0  0
 17 18  1  0  0  0  0
 17 34  1  0  0  0  0
 17 35  1  0  0  0  0
 18 19  1  0  0  0  0
 18 36  1  0  0  0  0
 18 37  1  0  0  0  0
 19 20  1  0  0  0  0
 19 38  1  0  0  0  0
 19 39  1  0  0  0  0
 20 40  1  0  0  0  0
 20 41  1  0  0  0  0
M  CHG  1   6  -1
M  END
> <s_m_source_file>
AV-unprocessed.smi

> <i_m_source_file_index>
2823

> <i_lp_mmshare_version>
43012

> <i_f3d_flags>
0

> <s_epik_input>
W0NIM11jMW5vYyhuMSlbTkhdQyg9TylbTkhdW0NIMl1DMihDKD1PKU4oW0NIM10pW0NIM10pW0NIMl1bQ0gyXVtDSDJdW0NIMl0y

> <s_epik_cmdline>
J2VwaWtfcHl0aG9uJywgJy1waCcsICc3LjAnLCAnLXRuJywgJzgnLCAnLW1hJywgJzIwMCcsICctbWV0YWxfYmluZGluZycsICctaW1hZScsICc8aW5maWxlLm1hZT4nLCAnLW9tYWUnLCAnPG91dGZpbGUubWFlPic=

> <r_lp_tautomer_probability>
1

> <r_epik_Ionization_Penalty>
6.03325

> <r_epik_Ionization_Penalty_Charging>
6.03318

> <r_epik_Ionization_Penalty_Neutral>
6.91426e-05

> <r_epik_State_Penalty>
6.03316

> <r_epik_Charging_Adjusted_Penalty>
12.0663

> <i_epik_Tot_Q>
-1

> <i_epik_Tot_abs_Q>
1

> <r_epik_Metal_State_Penalty>
1.98358

> <b_epik_Metal_Only>
1

> <s_lp_Force_Field>
OPLS_2005

> <r_lp_Energy>
29.6758

> <b_lp_Chiralities_Consistent>
1

> <s_lp_Variant>
AV-unprocessed.smi:2823-2

> <Gold.Version>
5.8.1

> <Gold.Id.Protein>
6NUR|6NUR_protein|mol2

> <Gold.PLP.Fitness>
40.9522

> <Gold.PLP.PLP>
-29.2446

> <Gold.PLP.part.hbond>
-3.0000

> <Gold.PLP.part.metal>
0.0000

> <Gold.PLP.part.buried>
-6.5214

> <Gold.PLP.part.nonpolar>
-22.2173

> <Gold.PLP.part.repulsive>
1.4222

> <Gold.PLP.ligand.clash>
0.0000

> <Gold.PLP.ligand.torsion>
0.6716

> <Gold.PLP.Chemscore.Hbond>
4.2823

> <Gold.PLP.Chemscore.CHOScore>
0.0000

> <Gold.PLP.Chemscore.Metal>
0.0000

> <Gold.Chemscore.Hbonds>
donor molecule, donor type, donor heavy atom, donor atom, acceptor molecule, acceptor atom, score
      P1  H  6896  6907       L1     8  1.00
      P1  H  6931  6943       L1     6  0.98
      P1  H  6934  6947       L1     6  0.50

> <Gold.PLP.Chemscore.Internal.Correction>
0.2039

> <Gold.Rescore>
     Score         DG    S(hbond)    S(metal)    S(lipo)     H(rot)  DE(clash)    DE(int)     intcor
     10.53     -12.82       1.67        0.00      52.67       1.71       0.30       1.98       ----

> <Gold.Chemscore.Fitness>
10.5293

> <Gold.Chemscore.DG>
-12.8176

> <Gold.Chemscore.ZeroCoef>
-5.4800

> <Gold.Chemscore.Hbond>
1.6661

> <Gold.Chemscore.Metal>
0.0000

> <Gold.Chemscore.Lipo>
52.6741

> <Gold.Chemscore.Internal_Hbond>
0.0000

> <Gold.Chemscore.DEClash>
0.3049

> <Gold.Chemscore.DEInternal>
1.9833

> <Gold.Chemscore.Rot>
1.7149

> <Gold.Chemscore.Internal.Correction>
   9.000000E+99

> <Gold.Chemscore.Hbonds>
donor molecule, donor type, donor heavy atom, donor atom, acceptor molecule, acceptor atom, score
      P1  H  6896  6907       L1     8  0.90
      P1  H  6931  6943       L1     6  0.18
      P1  H  6934  6947       L1     6  0.20

> <Gold.Chemscore.Hbond.Weighted>
-5.5648

> <Gold.Chemscore.Metal.Weighted>
-0.0000

> <Gold.Chemscore.Lipo.Weighted>
-6.1629

> <Gold.Chemscore.Internal_Hbond.Weighted>
0.0000

> <Gold.Chemscore.DEClash.Weighted>
0.3049

> <Gold.Chemscore.DEInternal.Weighted>
1.9833

> <Gold.Chemscore.Rot.Weighted>
4.3901

> <Gold.Chemscore.Internal.Correction.Weighted>
   9.000000E+99

> <Gold.Protein.RotatedTorsions>
[ 6907 6896 6895 6894 ] final  -78.54 input  -60.11 | X-H torsion
[ 7974 7965 7964 7962 ] final  -14.76 input  175.53 | X-H torsion
[ 8008 7997 7996 7995 ] final  -87.62 input   59.86 | X-H torsion
[ 10167 10162 10161 10158 ] final    9.78 input  -65.29 | X-H torsion
[ 10718 10713 10712 10709 ] final -148.40 input   66.30 | X-H torsion
[ 10763 10752 10751 10750 ] final  144.68 input  -60.55 | X-H torsion
[ 11005 11000 10999 10996 ] final  -51.25 input  -57.11 | X-H torsion

> <Gold.Protein.ActiveResidues>
 VAL166  LYS551  ARG553  GLY616  TRP617  ASP618  TYR619  PRO620  LYS621  CYS622 
 ASP623  PHE694  ASN695  SER759  ASP760  ASP761  ALA762  ILE779  LEU786  VAL792 
 PHE793  MET794  SER795  GLU796  ALA797  LYS798  CYS799  TRP800  GLU811  SER814 

> <Gold.Protein.RotatedAtoms>
  150.6970  134.4257  159.5224 H   0  0  0  0  0  0  0  0  0  0  0  0  # atno 6907 bound_to 6896
  152.1992  134.8600  160.0519 H   0  0  0  0  0  0  0  0  0  0  0  0  # atno 6908 bound_to 6896
  151.9527  133.3636  159.4042 H   0  0  0  0  0  0  0  0  0  0  0  0  # atno 6909 bound_to 6896
  146.2061  140.3394  142.8406 H   0  0  0  0  0  0  0  0  0  0  0  0  # atno 7974 bound_to 7965
  154.6654  140.0563  157.0108 H   0  0  0  0  0  0  0  0  0  0  0  0  # atno 8008 bound_to 7997
  155.1167  140.3243  155.4489 H   0  0  0  0  0  0  0  0  0  0  0  0  # atno 8009 bound_to 7997
  156.2635  140.2005  156.6290 H   0  0  0  0  0  0  0  0  0  0  0  0  # atno 8010 bound_to 7997
  140.6234  143.8154  150.7203 H   0  0  0  0  0  0  0  0  0  0  0  0  # atno 10167 bound_to 10162
  156.4198  130.8023  151.2245 H   0  0  0  0  0  0  0  0  0  0  0  0  # atno 10718 bound_to 10713
  153.9928  135.2930  155.3410 H   0  0  0  0  0  0  0  0  0  0  0  0  # atno 10763 bound_to 10752
  154.7205  135.5111  153.8807 H   0  0  0  0  0  0  0  0  0  0  0  0  # atno 10764 bound_to 10752
  153.0802  135.6676  154.0178 H   0  0  0  0  0  0  0  0  0  0  0  0  # atno 10765 bound_to 10752
  141.0860  133.6642  156.3849 H   0  0  0  0  0  0  0  0  0  0  0  0  # atno 11005 bound_to 11000
  144.8796  140.7382  143.5995 LP  0  0  0  0  0  0  0  0  0  0  0  0  # atno 17320 bound_to 7965
  145.3315  139.1758  143.4534 LP  0  0  0  0  0  0  0  0  0  0  0  0  # atno 17321 bound_to 7965
  140.1749  143.4163  152.1974 LP  0  0  0  0  0  0  0  0  0  0  0  0  # atno 17342 bound_to 10162
  139.5459  144.7297  151.4586 LP  0  0  0  0  0  0  0  0  0  0  0  0  # atno 17343 bound_to 10162
  157.7508  131.0232  150.3822 LP  0  0  0  0  0  0  0  0  0  0  0  0  # atno 17370 bound_to 10713
  156.4137  130.3939  149.6873 LP  0  0  0  0  0  0  0  0  0  0  0  0  # atno 17371 bound_to 10713
  140.5361  134.6166  157.5365 LP  0  0  0  0  0  0  0  0  0  0  0  0  # atno 17394 bound_to 11000
  139.9679  134.7342  156.0101 LP  0  0  0  0  0  0  0  0  0  0  0  0  # atno 17395 bound_to 11000

$$$$
