AV-unprocessed.smi:1669|AV-procd|sdf|6688|dock6
  -GOLD-   22720 7413D 1   1.00000     0.00000
 Structure written by MMmdl.
 47 49  0  0  0  0  0  0  0  0  1 V2000
  151.9845  139.7976  156.6078 C   0  0  0  0  0  0  0  0  0  0  0  0
  150.6727  139.7751  157.2491 N   0  0  0  0  0  0  0  0  0  0  0  0
  150.1253  141.1323  157.3564 C   0  0  0  0  0  0  0  0  0  0  0  0
  151.0816  142.1377  157.9753 C   0  0  0  0  0  0  0  0  0  0  0  0
  151.4549  143.2961  157.2611 C   0  0  0  0  0  0  0  0  0  0  0  0
  152.3401  144.2281  157.8371 C   0  0  0  0  0  0  0  0  0  0  0  0
  152.8536  144.0062  159.1295 C   0  0  0  0  0  0  0  0  0  0  0  0
  152.4808  142.8529  159.8464 C   0  0  0  0  0  0  0  0  0  0  0  0
  151.5952  141.9208  159.2713 C   0  0  0  0  0  0  0  0  0  0  0  0
  150.7717  139.1247  158.5570 C   0  0  0  0  0  0  0  0  0  0  0  0
  150.4718  137.6082  158.5688 C   0  0  1  0  0  0  0  0  0  0  0  0
  150.9884  137.0673  159.7664 O   0  0  0  0  0  0  0  0  0  0  0  0
  148.9665  137.2781  158.5189 C   0  0  0  0  0  0  0  0  0  0  0  0
  148.6550  135.9676  159.0762 N   0  0  0  0  0  0  0  0  0  0  0  0
  148.8896  134.7470  158.5298 C   0  0  0  0  0  0  0  0  0  0  0  0
  149.5534  134.5979  157.1892 C   0  0  0  0  0  0  0  0  0  0  0  0
  150.7383  133.8278  157.2183 O   0  0  0  0  0  0  0  0  0  0  0  0
  148.4841  133.7035  159.2574 N   0  0  0  0  0  0  0  0  0  0  0  0
  147.9488  134.3006  160.3808 C   0  0  0  0  0  0  0  0  0  0  0  0
  147.3522  133.7299  161.5278 C   0  0  0  0  0  0  0  0  0  0  0  0
  146.8675  134.5533  162.5650 C   0  0  0  0  0  0  0  0  0  0  0  0
  146.9726  135.9560  162.4703 C   0  0  0  0  0  0  0  0  0  0  0  0
  147.5625  136.5448  161.3355 C   0  0  0  0  0  0  0  0  0  0  0  0
  148.0444  135.7183  160.3022 C   0  0  0  0  0  0  0  0  0  0  0  0
  152.3858  138.7884  156.5106 H   0  0  0  0  0  0  0  0  0  0  0  0
  152.6952  140.3907  157.1849 H   0  0  0  0  0  0  0  0  0  0  0  0
  151.9277  140.2176  155.6033 H   0  0  0  0  0  0  0  0  0  0  0  0
  149.8693  141.5239  156.3736 H   0  0  0  0  0  0  0  0  0  0  0  0
  149.1940  141.1145  157.9249 H   0  0  0  0  0  0  0  0  0  0  0  0
  151.0643  143.4705  156.2692 H   0  0  0  0  0  0  0  0  0  0  0  0
  152.6253  145.1131  157.2877 H   0  0  0  0  0  0  0  0  0  0  0  0
  153.5331  144.7204  159.5709 H   0  0  0  0  0  0  0  0  0  0  0  0
  152.8746  142.6829  160.8378 H   0  0  0  0  0  0  0  0  0  0  0  0
  151.3140  141.0382  159.8273 H   0  0  0  0  0  0  0  0  0  0  0  0
  151.7726  139.2693  158.9673 H   0  0  0  0  0  0  0  0  0  0  0  0
  150.1021  139.6428  159.2434 H   0  0  0  0  0  0  0  0  0  0  0  0
  150.9637  137.1009  157.7421 H   0  0  0  0  0  0  0  0  0  0  0  0
  150.6592  137.5797  160.4893 H   0  0  0  0  0  0  0  0  0  0  0  0
  148.3913  138.0335  159.0546 H   0  0  0  0  0  0  0  0  0  0  0  0
  148.6106  137.3102  157.4885 H   0  0  0  0  0  0  0  0  0  0  0  0
  148.8562  134.1300  156.4948 H   0  0  0  0  0  0  0  0  0  0  0  0
  149.8034  135.5822  156.7938 H   0  0  0  0  0  0  0  0  0  0  0  0
  150.8695  133.4448  156.3647 H   0  0  0  0  0  0  0  0  0  0  0  0
  147.2673  132.6563  161.6091 H   0  0  0  0  0  0  0  0  0  0  0  0
  146.4126  134.1066  163.4371 H   0  0  0  0  0  0  0  0  0  0  0  0
  146.5989  136.5800  163.2690 H   0  0  0  0  0  0  0  0  0  0  0  0
  147.6397  137.6193  161.2599 H   0  0  0  0  0  0  0  0  0  0  0  0
  1  2  1  0  0  0  0
  1 25  1  0  0  0  0
  1 26  1  0  0  0  0
  1 27  1  0  0  0  0
  2  3  1  0  0  0  0
  2 10  1  0  0  0  0
  3  4  1  0  0  0  0
  3 28  1  0  0  0  0
  3 29  1  0  0  0  0
  4  9  1  0  0  0  0
  4  5  2  0  0  0  0
  5  6  1  0  0  0  0
  5 30  1  0  0  0  0
  6  7  2  0  0  0  0
  6 31  1  0  0  0  0
  7  8  1  0  0  0  0
  7 32  1  0  0  0  0
  8  9  2  0  0  0  0
  8 33  1  0  0  0  0
  9 34  1  0  0  0  0
 10 11  1  0  0  0  0
 10 35  1  0  0  0  0
 10 36  1  0  0  0  0
 11 12  1  0  0  0  0
 11 13  1  0  0  0  0
 11 37  1  0  0  0  0
 12 38  1  0  0  0  0
 13 14  1  0  0  0  0
 13 39  1  0  0  0  0
 13 40  1  0  0  0  0
 14 24  1  0  0  0  0
 14 15  1  0  0  0  0
 15 16  1  0  0  0  0
 15 18  2  0  0  0  0
 16 17  1  0  0  0  0
 16 41  1  0  0  0  0
 16 42  1  0  0  0  0
 17 43  1  0  0  0  0
 18 19  1  0  0  0  0
 19 24  2  0  0  0  0
 19 20  1  0  0  0  0
 20 21  2  0  0  0  0
 20 44  1  0  0  0  0
 21 22  1  0  0  0  0
 21 45  1  0  0  0  0
 22 23  2  0  0  0  0
 22 46  1  0  0  0  0
 23 24  1  0  0  0  0
 23 47  1  0  0  0  0
M  END
> <s_m_source_file>
AV-unprocessed.smi

> <i_m_source_file_index>
1669

> <i_lp_mmshare_version>
43012

> <i_f3d_flags>
0

> <s_epik_input>
W2NIXTFbY0hdW2NIXVtjSF1bY0hdYzFbQ0gyXU4oW0NIM10pW0NIMl1bQ0BIXShbT0hdKVtDSDJdbihjKG4yKVtDSDJdW09IXSljKGMyMylbY0hdW2NIXVtjSF1bY0hdMw==

> <s_epik_cmdline>
J2VwaWtfcHl0aG9uJywgJy1waCcsICc3LjAnLCAnLXRuJywgJzgnLCAnLW1hJywgJzIwMCcsICctbWV0YWxfYmluZGluZycsICctaW1hZScsICc8aW5maWxlLm1hZT4nLCAnLW9tYWUnLCAnPG91dGZpbGUubWFlPic=

> <r_epik_Ionization_Penalty>
1.56301

> <r_epik_Ionization_Penalty_Charging>
0

> <r_epik_Ionization_Penalty_Neutral>
1.56301

> <r_epik_State_Penalty>
1.64771

> <r_epik_Charging_Adjusted_Penalty>
1.64771

> <i_epik_Tot_Q>
0

> <i_epik_Tot_abs_Q>
0

> <r_epik_Metal_State_Penalty>
1.61258

> <b_epik_Metal_Only>
0

> <s_lp_Force_Field>
OPLS_2005

> <r_lp_Energy>
25.3744

> <b_lp_Chiralities_Consistent>
1

> <s_lp_Variant>
AV-unprocessed.smi:1669-6

> <Gold.Version>
5.8.1

> <Gold.Id.Protein>
6NUR|6NUR_protein|mol2

> <Gold.PLP.Fitness>
49.3321

> <Gold.PLP.PLP>
-48.3917

> <Gold.PLP.part.hbond>
-2.0647

> <Gold.PLP.part.metal>
0.0000

> <Gold.PLP.part.buried>
-3.9683

> <Gold.PLP.part.nonpolar>
-43.3774

> <Gold.PLP.part.repulsive>
0.0000

> <Gold.PLP.ligand.clash>
0.0000

> <Gold.PLP.ligand.torsion>
1.0996

> <Gold.PLP.Chemscore.Hbond>
0.9425

> <Gold.PLP.Chemscore.CHOScore>
0.0000

> <Gold.PLP.Chemscore.Metal>
0.0000

> <Gold.Chemscore.Hbonds>
donor molecule, donor type, donor heavy atom, donor atom, acceptor molecule, acceptor atom, score
      P1  H  6896  6907       L1    12  0.97
      P1  H  6896  6909       L1    17  0.45

> <Gold.PLP.Chemscore.Internal.Correction>
0.3121

> <Gold.Rescore>
     Score         DG    S(hbond)    S(metal)    S(lipo)     H(rot)  DE(clash)    DE(int)     intcor
     16.47     -18.05       1.44        0.00     133.27       3.06       0.28       1.29       ----

> <Gold.Chemscore.Fitness>
16.4741

> <Gold.Chemscore.DG>
-18.0515

> <Gold.Chemscore.ZeroCoef>
-5.4800

> <Gold.Chemscore.Hbond>
1.4416

> <Gold.Chemscore.Metal>
0.0000

> <Gold.Chemscore.Lipo>
133.2672

> <Gold.Chemscore.Internal_Hbond>
0.0000

> <Gold.Chemscore.DEClash>
0.2846

> <Gold.Chemscore.DEInternal>
1.2927

> <Gold.Chemscore.Rot>
3.0609

> <Gold.Chemscore.Internal.Correction>
   9.000000E+99

> <Gold.Chemscore.Hbonds>
donor molecule, donor type, donor heavy atom, donor atom, acceptor molecule, acceptor atom, score
      P1  H  6896  6907       L1    12  0.75
      P1  H  6896  6909       L1    17  0.32

> <Gold.Chemscore.Hbond.Weighted>
-4.8151

> <Gold.Chemscore.Metal.Weighted>
-0.0000

> <Gold.Chemscore.Lipo.Weighted>
-15.5923

> <Gold.Chemscore.Internal_Hbond.Weighted>
0.0000

> <Gold.Chemscore.DEClash.Weighted>
0.2846

> <Gold.Chemscore.DEInternal.Weighted>
1.2927

> <Gold.Chemscore.Rot.Weighted>
7.8358

> <Gold.Chemscore.Internal.Correction.Weighted>
   9.000000E+99

> <Gold.Protein.RotatedTorsions>
[ 6907 6896 6895 6894 ] final  -35.78 input  -60.11 | X-H torsion
[ 7974 7965 7964 7962 ] final   92.27 input  175.53 | X-H torsion
[ 8008 7997 7996 7995 ] final   -2.03 input   59.86 | X-H torsion
[ 10167 10162 10161 10158 ] final   -1.78 input  -65.29 | X-H torsion
[ 10718 10713 10712 10709 ] final -128.59 input   66.30 | X-H torsion
[ 10763 10752 10751 10750 ] final   29.69 input  -60.55 | X-H torsion
[ 11005 11000 10999 10996 ] final  151.21 input  -57.11 | X-H torsion

> <Gold.Protein.ActiveResidues>
 VAL166  LYS551  ARG553  GLY616  TRP617  ASP618  TYR619  PRO620  LYS621  CYS622 
 ASP623  PHE694  ASN695  SER759  ASP760  ASP761  ALA762  ILE779  LEU786  VAL792 
 PHE793  MET794  SER795  GLU796  ALA797  LYS798  CYS799  TRP800  GLU811  SER814 

> <Gold.Protein.RotatedAtoms>
  151.0354  134.9569  159.8133 H   0  0  0  0  0  0  0  0  0  0  0  0  # atno 6907 bound_to 6896
  152.5354  134.2726  159.8987 H   0  0  0  0  0  0  0  0  0  0  0  0  # atno 6908 bound_to 6896
  151.2737  133.4200  159.2656 H   0  0  0  0  0  0  0  0  0  0  0  0  # atno 6909 bound_to 6896
  145.4946  139.2276  143.2811 H   0  0  0  0  0  0  0  0  0  0  0  0  # atno 7974 bound_to 7965
  154.6402  140.2544  155.7331 H   0  0  0  0  0  0  0  0  0  0  0  0  # atno 8008 bound_to 7997
  156.2525  140.2889  156.0712 H   0  0  0  0  0  0  0  0  0  0  0  0  # atno 8009 bound_to 7997
  155.1609  140.0384  157.2832 H   0  0  0  0  0  0  0  0  0  0  0  0  # atno 8010 bound_to 7997
  140.6824  143.6735  150.8165 H   0  0  0  0  0  0  0  0  0  0  0  0  # atno 10167 bound_to 10162
  156.1965  130.6830  151.0488 H   0  0  0  0  0  0  0  0  0  0  0  0  # atno 10718 bound_to 10713
  153.0415  135.6483  154.0929 H   0  0  0  0  0  0  0  0  0  0  0  0  # atno 10763 bound_to 10752
  154.0635  135.2886  155.3322 H   0  0  0  0  0  0  0  0  0  0  0  0  # atno 10764 bound_to 10752
  154.6642  135.5380  153.8121 H   0  0  0  0  0  0  0  0  0  0  0  0  # atno 10765 bound_to 10752
  140.1199  134.8870  157.2057 H   0  0  0  0  0  0  0  0  0  0  0  0  # atno 11005 bound_to 11000
  146.2263  140.5742  142.8995 LP  0  0  0  0  0  0  0  0  0  0  0  0  # atno 17320 bound_to 7965
  144.7814  140.5849  143.6603 LP  0  0  0  0  0  0  0  0  0  0  0  0  # atno 17321 bound_to 7965
  140.0437  143.5320  152.2706 LP  0  0  0  0  0  0  0  0  0  0  0  0  # atno 17342 bound_to 10162
  139.6156  144.7619  151.2853 LP  0  0  0  0  0  0  0  0  0  0  0  0  # atno 17343 bound_to 10162
  157.6961  131.0793  150.6965 LP  0  0  0  0  0  0  0  0  0  0  0  0  # atno 17370 bound_to 10713
  156.7022  130.4626  149.5570 LP  0  0  0  0  0  0  0  0  0  0  0  0  # atno 17371 bound_to 10713
  140.2979  134.3165  155.7297 LP  0  0  0  0  0  0  0  0  0  0  0  0  # atno 17394 bound_to 11000
  141.2149  133.7574  156.9598 LP  0  0  0  0  0  0  0  0  0  0  0  0  # atno 17395 bound_to 11000

$$$$
