AV-unprocessed.smi:2895|AV-procd|sdf|11132|dock5
  -GOLD-   2272016 03D 1   1.00000     0.00000
 Structure written by MMmdl.
 54 57  0  0  0  0  0  0  0  0  3 V2000
  142.8562  137.2540  156.2024 O   0  0  0  0  0  0  0  0  0  0  0  0
  142.9123  137.6310  155.0311 C   0  0  0  0  0  0  0  0  0  0  0  0
  142.9585  138.9345  154.7064 N   0  0  0  0  0  0  0  0  0  0  0  0
  142.9571  140.0395  155.6588 C   0  0  0  0  0  0  0  0  0  0  0  0
  144.0422  139.8698  156.7360 C   0  0  0  0  0  0  0  0  0  0  0  0
  145.2221  140.7962  156.5118 C   0  0  0  0  0  0  0  0  0  0  0  0
  146.3064  140.8018  157.4168 C   0  0  0  0  0  0  0  0  0  0  0  0
  147.3924  141.6707  157.1850 C   0  0  0  0  0  0  0  0  0  0  0  0
  147.3841  142.4848  156.1067 N   0  3  0  0  0  0  0  0  0  0  0  0
  146.3672  142.5110  155.2173 C   0  0  0  0  0  0  0  0  0  0  0  0
  145.2550  141.6629  155.3968 C   0  0  0  0  0  0  0  0  0  0  0  0
  142.9605  136.7763  153.9771 N   0  0  0  0  0  0  0  0  0  0  0  0
  142.7100  135.3263  154.0155 C   0  0  0  0  0  0  0  0  0  0  0  0
  144.0230  134.5698  153.7223 C   0  0  0  0  0  0  0  0  0  0  0  0
  144.6495  134.9977  152.4378 N   0  3  0  0  0  0  0  0  0  0  0  0
  144.0160  134.3803  151.2329 C   0  0  2  0  0  0  0  0  0  0  0  0
  143.3615  133.0022  151.5006 C   0  0  0  0  0  0  0  0  0  0  0  0
  143.9380  132.1140  150.3819 C   0  0  2  0  0  0  0  0  0  0  0  0
  145.3955  131.7646  150.7278 C   0  0  0  0  0  0  0  0  0  0  0  0
  146.1186  133.1069  150.5194 C   0  0  0  0  0  0  0  0  0  0  0  0
  144.9808  134.0477  150.0658 C   0  0  1  0  0  0  0  0  0  0  0  0
  144.1188  133.1017  149.2361 C   0  0  0  0  0  0  0  0  0  0  0  0
  144.7886  136.4807  152.3715 C   0  0  0  0  0  0  0  0  0  0  0  0
  143.4554  137.1963  152.6612 C   0  0  0  0  0  0  0  0  0  0  0  0
  143.0185  139.1765  153.7280 H   0  0  0  0  0  0  0  0  0  0  0  0
  143.0865  140.9841  155.1277 H   0  0  0  0  0  0  0  0  0  0  0  0
  141.9731  140.0791  156.1270 H   0  0  0  0  0  0  0  0  0  0  0  0
  143.6195  140.0554  157.7244 H   0  0  0  0  0  0  0  0  0  0  0  0
  144.4094  138.8429  156.7483 H   0  0  0  0  0  0  0  0  0  0  0  0
  146.3074  140.1476  158.2769 H   0  0  0  0  0  0  0  0  0  0  0  0
  148.2604  141.7382  157.8244 H   0  0  0  0  0  0  0  0  0  0  0  0
  146.4735  143.2043  154.3956 H   0  0  0  0  0  0  0  0  0  0  0  0
  144.4404  141.6802  154.6872 H   0  0  0  0  0  0  0  0  0  0  0  0
  142.3004  134.9712  154.9606 H   0  0  0  0  0  0  0  0  0  0  0  0
  141.9537  135.0805  153.2692 H   0  0  0  0  0  0  0  0  0  0  0  0
  144.7341  134.7718  154.5245 H   0  0  0  0  0  0  0  0  0  0  0  0
  143.8501  133.4945  153.7457 H   0  0  0  0  0  0  0  0  0  0  0  0
  143.2534  135.0614  150.8529 H   0  0  0  0  0  0  0  0  0  0  0  0
  143.5971  132.5917  152.4832 H   0  0  0  0  0  0  0  0  0  0  0  0
  142.2759  133.0749  151.4236 H   0  0  0  0  0  0  0  0  0  0  0  0
  143.3236  131.2435  150.1505 H   0  0  0  0  0  0  0  0  0  0  0  0
  145.5044  131.3846  151.7442 H   0  0  0  0  0  0  0  0  0  0  0  0
  145.7860  131.0086  150.0452 H   0  0  0  0  0  0  0  0  0  0  0  0
  146.6228  133.4513  151.4222 H   0  0  0  0  0  0  0  0  0  0  0  0
  146.8735  133.0127  149.7378 H   0  0  0  0  0  0  0  0  0  0  0  0
  145.3263  134.9215  149.5127 H   0  0  0  0  0  0  0  0  0  0  0  0
  144.6431  132.6777  148.3776 H   0  0  0  0  0  0  0  0  0  0  0  0
  143.1822  133.5482  148.8973 H   0  0  0  0  0  0  0  0  0  0  0  0
  145.5201  136.7799  153.1235 H   0  0  0  0  0  0  0  0  0  0  0  0
  145.2046  136.8092  151.4207 H   0  0  0  0  0  0  0  0  0  0  0  0
  142.7135  136.9485  151.9010 H   0  0  0  0  0  0  0  0  0  0  0  0
  143.5984  138.2752  152.5863 H   0  0  0  0  0  0  0  0  0  0  0  0
  145.5913  134.6327  152.4469 H   0  0  0  0  0  0  0  0  0  0  0  0
  148.1797  143.1062  155.9575 H   0  0  0  0  0  0  0  0  0  0  0  0
  1  2  2  0  0  0  0
  2  3  1  0  0  0  0
  2 12  1  0  0  0  0
  3  4  1  0  0  0  0
  3 25  1  0  0  0  0
  4  5  1  0  0  0  0
  4 26  1  0  0  0  0
  4 27  1  0  0  0  0
  5  6  1  0  0  0  0
  5 28  1  0  0  0  0
  5 29  1  0  0  0  0
  6 11  1  0  0  0  0
  6  7  2  0  0  0  0
  7  8  1  0  0  0  0
  7 30  1  0  0  0  0
  8  9  2  0  0  0  0
  8 31  1  0  0  0  0
  9 10  1  0  0  0  0
  9 54  1  0  0  0  0
 10 11  2  0  0  0  0
 10 32  1  0  0  0  0
 11 33  1  0  0  0  0
 12 24  1  0  0  0  0
 12 13  1  0  0  0  0
 13 14  1  0  0  0  0
 13 34  1  0  0  0  0
 13 35  1  0  0  0  0
 14 15  1  0  0  0  0
 14 36  1  0  0  0  0
 14 37  1  0  0  0  0
 15 16  1  0  0  0  0
 15 23  1  0  0  0  0
 15 53  1  0  0  0  0
 16 21  1  0  0  0  0
 16 17  1  0  0  0  0
 16 38  1  0  0  0  0
 17 18  1  0  0  0  0
 17 39  1  0  0  0  0
 17 40  1  0  0  0  0
 18 22  1  0  0  0  0
 18 19  1  0  0  0  0
 18 41  1  0  0  0  0
 19 20  1  0  0  0  0
 19 42  1  0  0  0  0
 19 43  1  0  0  0  0
 20 21  1  0  0  0  0
 20 44  1  0  0  0  0
 20 45  1  0  0  0  0
 21 22  1  0  0  0  0
 21 46  1  0  0  0  0
 22 47  1  0  0  0  0
 22 48  1  0  0  0  0
 23 24  1  0  0  0  0
 23 49  1  0  0  0  0
 23 50  1  0  0  0  0
 24 51  1  0  0  0  0
 24 52  1  0  0  0  0
M  CHG  1   9   1
M  CHG  1  15   1
M  END
> <s_m_source_file>
AV-unprocessed.smi

> <i_m_source_file_index>
2895

> <i_lp_mmshare_version>
43012

> <i_f3d_flags>
0

> <s_epik_input>
W0NIMl0xW0NIMl1bQ0BASF0oW0NIMl0yKVtDQEBIXShbQ0gyXVtDQEhdMTIpTihbQ0gyXVtDSDJdMylbQ0gyXVtDSDJdTjNDKD1PKVtOSF1bQ0gyXVtDSDJdYzRbY0hdW2NIXW5bY0hdW2NIXTQ=

> <s_epik_cmdline>
J2VwaWtfcHl0aG9uJywgJy1waCcsICc3LjAnLCAnLXRuJywgJzgnLCAnLW1hJywgJzIwMCcsICctbWV0YWxfYmluZGluZycsICctaW1hZScsICc8aW5maWxlLm1hZT4nLCAnLW9tYWUnLCAnPG91dGZpbGUubWFlPic=

> <r_epik_Ionization_Penalty>
1.44916

> <r_epik_Ionization_Penalty_Charging>
1.44913

> <r_epik_Ionization_Penalty_Neutral>
2.64641e-05

> <r_epik_State_Penalty>
1.53218

> <r_epik_Charging_Adjusted_Penalty>
2.98131

> <i_epik_Tot_Q>
2

> <i_epik_Tot_abs_Q>
2

> <r_epik_Metal_State_Penalty>
1.58241

> <b_epik_Metal_Only>
0

> <s_lp_Force_Field>
OPLS_2005

> <r_lp_Energy>
107.451

> <b_lp_Chiralities_Consistent>
1

> <s_lp_Variant>
AV-unprocessed.smi:2895-5

> <Gold.Version>
5.8.1

> <Gold.Id.Protein>
6NUR|6NUR_protein|mol2

> <Gold.PLP.Fitness>
37.7477

> <Gold.PLP.PLP>
-32.1824

> <Gold.PLP.part.hbond>
-2.0000

> <Gold.PLP.part.metal>
0.0000

> <Gold.PLP.part.buried>
0.0190

> <Gold.PLP.part.nonpolar>
-29.2981

> <Gold.PLP.part.repulsive>
0.0377

> <Gold.PLP.ligand.clash>
0.7362

> <Gold.PLP.ligand.torsion>
1.1877

> <Gold.PLP.Chemscore.Hbond>
2.8640

> <Gold.PLP.Chemscore.CHOScore>
0.0000

> <Gold.PLP.Chemscore.Metal>
0.0000

> <Gold.Chemscore.Hbonds>
donor molecule, donor type, donor heavy atom, donor atom, acceptor molecule, acceptor atom, score
      L1  H     3    25       P1 10175  0.91
      L1  H     9    54       P1  8028  2.00

> <Gold.PLP.Chemscore.Internal.Correction>
0.0849

> <Gold.Rescore>
     Score         DG    S(hbond)    S(metal)    S(lipo)     H(rot)  DE(clash)    DE(int)     intcor
     15.01     -17.43       1.68        0.00      86.03       1.46       0.23       2.18       ----

> <Gold.Chemscore.Fitness>
15.0130

> <Gold.Chemscore.DG>
-17.4252

> <Gold.Chemscore.ZeroCoef>
-5.4800

> <Gold.Chemscore.Hbond>
1.6797

> <Gold.Chemscore.Metal>
0.0000

> <Gold.Chemscore.Lipo>
86.0299

> <Gold.Chemscore.Internal_Hbond>
0.0000

> <Gold.Chemscore.DEClash>
0.2320

> <Gold.Chemscore.DEInternal>
2.1802

> <Gold.Chemscore.Rot>
1.4572

> <Gold.Chemscore.Internal.Correction>
   9.000000E+99

> <Gold.Chemscore.Hbonds>
donor molecule, donor type, donor heavy atom, donor atom, acceptor molecule, acceptor atom, score
      L1  H     3    25       P1 10175  0.88
      L1  H     9    54       P1  8028  0.71

> <Gold.Chemscore.Hbond.Weighted>
-5.6102

> <Gold.Chemscore.Metal.Weighted>
-0.0000

> <Gold.Chemscore.Lipo.Weighted>
-10.0655

> <Gold.Chemscore.Internal_Hbond.Weighted>
0.0000

> <Gold.Chemscore.DEClash.Weighted>
0.2320

> <Gold.Chemscore.DEInternal.Weighted>
2.1802

> <Gold.Chemscore.Rot.Weighted>
3.7305

> <Gold.Chemscore.Internal.Correction.Weighted>
   9.000000E+99

> <Gold.Protein.RotatedTorsions>
[ 6907 6896 6895 6894 ] final   24.56 input  -60.11 | X-H torsion
[ 7974 7965 7964 7962 ] final  112.69 input  175.53 | X-H torsion
[ 8008 7997 7996 7995 ] final    1.36 input   59.86 | X-H torsion
[ 10167 10162 10161 10158 ] final  -49.52 input  -65.29 | X-H torsion
[ 10718 10713 10712 10709 ] final   99.31 input   66.30 | X-H torsion
[ 10763 10752 10751 10750 ] final    7.90 input  -60.55 | X-H torsion
[ 11005 11000 10999 10996 ] final  117.00 input  -57.11 | X-H torsion

> <Gold.Protein.ActiveResidues>
 VAL166  LYS551  ARG553  GLY616  TRP617  ASP618  TYR619  PRO620  LYS621  CYS622 
 ASP623  PHE694  ASN695  SER759  ASP760  ASP761  ALA762  ILE779  LEU786  VAL792 
 PHE793  MET794  SER795  GLU796  ALA797  LYS798  CYS799  TRP800  GLU811  SER814 

> <Gold.Protein.RotatedAtoms>
  151.9594  135.0131  160.0546 H   0  0  0  0  0  0  0  0  0  0  0  0  # atno 6907 bound_to 6896
  152.1882  133.4750  159.5002 H   0  0  0  0  0  0  0  0  0  0  0  0  # atno 6908 bound_to 6896
  150.6930  134.1663  159.4238 H   0  0  0  0  0  0  0  0  0  0  0  0  # atno 6909 bound_to 6896
  145.2264  139.2839  143.4191 H   0  0  0  0  0  0  0  0  0  0  0  0  # atno 7974 bound_to 7965
  154.6788  140.2628  155.6930 H   0  0  0  0  0  0  0  0  0  0  0  0  # atno 8008 bound_to 7997
  156.2688  140.2814  156.1247 H   0  0  0  0  0  0  0  0  0  0  0  0  # atno 8009 bound_to 7997
  155.1062  140.0375  157.2701 H   0  0  0  0  0  0  0  0  0  0  0  0  # atno 8010 bound_to 7997
  140.6681  143.2694  151.4228 H   0  0  0  0  0  0  0  0  0  0  0  0  # atno 10167 bound_to 10162
  157.6878  131.0666  150.4929 H   0  0  0  0  0  0  0  0  0  0  0  0  # atno 10718 bound_to 10713
  153.2311  135.6892  153.7889 H   0  0  0  0  0  0  0  0  0  0  0  0  # atno 10763 bound_to 10752
  153.7053  135.3291  155.3235 H   0  0  0  0  0  0  0  0  0  0  0  0  # atno 10764 bound_to 10752
  154.8314  135.4577  154.1197 H   0  0  0  0  0  0  0  0  0  0  0  0  # atno 10765 bound_to 10752
  139.9059  134.9605  156.7283 H   0  0  0  0  0  0  0  0  0  0  0  0  # atno 11005 bound_to 11000
  146.3364  140.2585  142.8601 LP  0  0  0  0  0  0  0  0  0  0  0  0  # atno 17320 bound_to 7965
  144.9718  140.8375  143.5451 LP  0  0  0  0  0  0  0  0  0  0  0  0  # atno 17321 bound_to 7965
  139.5938  144.1442  152.2119 LP  0  0  0  0  0  0  0  0  0  0  0  0  # atno 17342 bound_to 10162
  140.0805  144.5704  150.7126 LP  0  0  0  0  0  0  0  0  0  0  0  0  # atno 17343 bound_to 10162
  156.5255  130.4172  149.6228 LP  0  0  0  0  0  0  0  0  0  0  0  0  # atno 17370 bound_to 10713
  156.3116  130.7232  151.2126 LP  0  0  0  0  0  0  0  0  0  0  0  0  # atno 17371 bound_to 10713
  140.6945  133.9360  155.7986 LP  0  0  0  0  0  0  0  0  0  0  0  0  # atno 17394 bound_to 11000
  141.0417  134.0612  157.3894 LP  0  0  0  0  0  0  0  0  0  0  0  0  # atno 17395 bound_to 11000

$$$$
