AV-unprocessed.smi:32|AV-procd|sdf|197|dock1
  -GOLD-   2262015463D 1   1.00000     0.00000
 Structure written by MMmdl.
 49 51  0  0  0  0  0  0  0  0  1 V2000
  152.5273  139.2820  155.9180 O   0  0  0  0  0  0  0  0  0  0  0  0
  151.4780  139.2218  156.5609 C   0  0  0  0  0  0  0  0  0  0  0  0
  150.3786  138.2138  156.1924 C   0  0  0  0  0  0  0  0  0  0  0  0
  149.3058  138.1133  157.2060 N   0  0  0  0  0  0  0  0  0  0  0  0
  148.1863  138.9747  157.0948 C   0  0  0  0  0  0  0  0  0  0  0  0
  148.1022  139.7979  156.1821 O   0  0  0  0  0  0  0  0  0  0  0  0
  147.1610  138.8104  158.1191 C   0  0  0  0  0  0  0  0  0  0  0  0
  146.0688  139.5930  158.0981 F   0  0  0  0  0  0  0  0  0  0  0  0
  147.2907  137.8839  159.0909 C   0  0  0  0  0  0  0  0  0  0  0  0
  148.3832  137.0395  159.1789 N   0  0  0  0  0  0  0  0  0  0  0  0
  148.5115  136.0003  160.2726 C   0  0  2  0  0  0  0  0  0  0  0  0
  147.3507  134.9903  160.1998 C   0  0  0  0  0  0  0  0  0  0  0  0
  146.8280  134.9791  161.6226 C   0  0  0  0  0  0  0  0  0  0  0  0
  147.1534  136.3907  162.0872 C   0  0  0  0  0  0  0  0  0  0  0  0
  148.4403  136.6176  161.5268 O   0  0  0  0  0  0  0  0  0  0  0  0
  149.4220  137.1417  158.2284 C   0  0  0  0  0  0  0  0  0  0  0  0
  150.4014  136.3950  158.2873 O   0  0  0  0  0  0  0  0  0  0  0  0
  151.2148  140.0102  157.6145 N   0  0  0  0  0  0  0  0  0  0  0  0
  152.1007  141.0419  158.1488 C   0  0  0  0  0  0  0  0  0  0  0  0
  152.3818  140.7316  159.6339 C   0  0  0  0  0  0  0  0  0  0  0  0
  153.5548  141.5411  160.2123 C   0  0  0  0  0  0  0  0  0  0  0  0
  153.1908  142.9230  160.7827 C   0  0  0  0  0  0  0  0  0  0  0  0
  152.1681  143.7490  159.9831 C   0  0  0  0  0  0  0  0  0  0  0  0
  152.2696  143.6220  158.4546 C   0  0  0  0  0  0  0  0  0  0  0  0
  151.4712  142.4288  157.9014 C   0  0  0  0  0  0  0  0  0  0  0  0
  149.9760  138.4883  155.2164 H   0  0  0  0  0  0  0  0  0  0  0  0
  150.8398  137.2395  156.0221 H   0  0  0  0  0  0  0  0  0  0  0  0
  146.4973  137.8159  159.8189 H   0  0  0  0  0  0  0  0  0  0  0  0
  149.5001  135.5561  160.1450 H   0  0  0  0  0  0  0  0  0  0  0  0
  146.5806  135.3488  159.5147 H   0  0  0  0  0  0  0  0  0  0  0  0
  147.7008  134.0147  159.8614 H   0  0  0  0  0  0  0  0  0  0  0  0
  145.7659  134.7418  161.6866 H   0  0  0  0  0  0  0  0  0  0  0  0
  147.3796  134.2522  162.2204 H   0  0  0  0  0  0  0  0  0  0  0  0
  146.4348  137.1062  161.6849 H   0  0  0  0  0  0  0  0  0  0  0  0
  147.1656  136.4872  163.1730 H   0  0  0  0  0  0  0  0  0  0  0  0
  150.3277  139.8897  158.0818 H   0  0  0  0  0  0  0  0  0  0  0  0
  153.0494  140.9890  157.6112 H   0  0  0  0  0  0  0  0  0  0  0  0
  151.4847  140.8606  160.2410 H   0  0  0  0  0  0  0  0  0  0  0  0
  152.6455  139.6760  159.7144 H   0  0  0  0  0  0  0  0  0  0  0  0
  154.0197  140.9644  161.0126 H   0  0  0  0  0  0  0  0  0  0  0  0
  154.3309  141.6502  159.4537 H   0  0  0  0  0  0  0  0  0  0  0  0
  152.8106  142.8023  161.7977 H   0  0  0  0  0  0  0  0  0  0  0  0
  154.1120  143.4982  160.8837 H   0  0  0  0  0  0  0  0  0  0  0  0
  151.1584  143.4866  160.3016 H   0  0  0  0  0  0  0  0  0  0  0  0
  152.2918  144.7962  160.2622 H   0  0  0  0  0  0  0  0  0  0  0  0
  151.8508  144.5283  158.0156 H   0  0  0  0  0  0  0  0  0  0  0  0
  153.3098  143.5876  158.1287 H   0  0  0  0  0  0  0  0  0  0  0  0
  151.3612  142.5700  156.8255 H   0  0  0  0  0  0  0  0  0  0  0  0
  150.4570  142.4532  158.3029 H   0  0  0  0  0  0  0  0  0  0  0  0
  1  2  2  0  0  0  0
  2  3  1  0  0  0  0
  2 18  1  0  0  0  0
  3  4  1  0  0  0  0
  3 26  1  0  0  0  0
  3 27  1  0  0  0  0
  4 16  1  0  0  0  0
  4  5  1  0  0  0  0
  5  6  2  0  0  0  0
  5  7  1  0  0  0  0
  7  8  1  0  0  0  0
  7  9  2  0  0  0  0
  9 10  1  0  0  0  0
  9 28  1  0  0  0  0
 10 11  1  0  0  0  0
 10 16  1  0  0  0  0
 11 15  1  0  0  0  0
 11 12  1  0  0  0  0
 11 29  1  0  0  0  0
 12 13  1  0  0  0  0
 12 30  1  0  0  0  0
 12 31  1  0  0  0  0
 13 14  1  0  0  0  0
 13 32  1  0  0  0  0
 13 33  1  0  0  0  0
 14 15  1  0  0  0  0
 14 34  1  0  0  0  0
 14 35  1  0  0  0  0
 16 17  2  0  0  0  0
 18 19  1  0  0  0  0
 18 36  1  0  0  0  0
 19 25  1  0  0  0  0
 19 20  1  0  0  0  0
 19 37  1  0  0  0  0
 20 21  1  0  0  0  0
 20 38  1  0  0  0  0
 20 39  1  0  0  0  0
 21 22  1  0  0  0  0
 21 40  1  0  0  0  0
 21 41  1  0  0  0  0
 22 23  1  0  0  0  0
 22 42  1  0  0  0  0
 22 43  1  0  0  0  0
 23 24  1  0  0  0  0
 23 44  1  0  0  0  0
 23 45  1  0  0  0  0
 24 25  1  0  0  0  0
 24 46  1  0  0  0  0
 24 47  1  0  0  0  0
 25 48  1  0  0  0  0
 25 49  1  0  0  0  0
M  END
> <s_m_source_file>
AV-unprocessed.smi

> <i_m_source_file_index>
32

> <i_lp_mmshare_version>
43012

> <i_f3d_flags>
0

> <s_epik_input>
W0NIMl0xW0NIMl1bQ0gyXVtDSDJdW0NIMl1bQ0gyXVtDSF0xW05IXUMoPU8pW0NIMl1uMmMoPU8pYyhGKVtjSF1uKGMyPU8pW0NAQEhdM1tDSDJdW0NIMl1bQ0gyXU8z

> <s_epik_cmdline>
J2VwaWtfcHl0aG9uJywgJy1waCcsICc3LjAnLCAnLXRuJywgJzgnLCAnLW1hJywgJzIwMCcsICctbWV0YWxfYmluZGluZycsICctaW1hZScsICc8aW5maWxlLm1hZT4nLCAnLW9tYWUnLCAnPG91dGZpbGUubWFlPic=

> <r_lp_tautomer_probability>
1

> <r_epik_Ionization_Penalty>
2.43741e-08

> <r_epik_Ionization_Penalty_Charging>
4.15308e-09

> <r_epik_Ionization_Penalty_Neutral>
2.0221e-08

> <r_epik_State_Penalty>
-0

> <r_epik_Charging_Adjusted_Penalty>
4.15308e-09

> <i_epik_Tot_Q>
0

> <i_epik_Tot_abs_Q>
0

> <r_epik_Metal_State_Penalty>
-0

> <b_epik_Metal_Only>
0

> <s_epik_Chemistry_Notes>
This compound contains an acetal/aminal-like group ( X-CH(R)-Y where X, Y are N, S, or O) that may be acid/base labile, releasing an aldehyde.

> <s_lp_Force_Field>
OPLS_2005

> <r_lp_Energy>
35.2261

> <b_lp_Chiralities_Consistent>
1

> <s_lp_Variant>
AV-unprocessed.smi:32-1

> <Gold.Version>
5.8.1

> <Gold.Id.Protein>
6NUR|6NUR_protein|mol2

> <Gold.PLP.Fitness>
48.6394

> <Gold.PLP.PLP>
-40.8202

> <Gold.PLP.part.hbond>
-3.3726

> <Gold.PLP.part.metal>
0.0000

> <Gold.PLP.part.buried>
-6.3898

> <Gold.PLP.part.nonpolar>
-32.2535

> <Gold.PLP.part.repulsive>
0.0486

> <Gold.PLP.ligand.clash>
0.0000

> <Gold.PLP.ligand.torsion>
0.5125

> <Gold.PLP.Chemscore.Hbond>
2.9280

> <Gold.PLP.Chemscore.CHOScore>
0.0000

> <Gold.PLP.Chemscore.Metal>
0.0000

> <Gold.Chemscore.Hbonds>
donor molecule, donor type, donor heavy atom, donor atom, acceptor molecule, acceptor atom, score
      P1  H  6896  6909       L1    17  0.70
      P1  H  6931  6943       L1    15  1.00
      P1  H  7997  8008       L1     1  0.96

> <Gold.PLP.Chemscore.Internal.Correction>
0.0602

> <Gold.Rescore>
     Score         DG    S(hbond)    S(metal)    S(lipo)     H(rot)  DE(clash)    DE(int)     intcor
     21.25     -21.71       2.88        0.00      96.33       1.82       0.00       0.46       ----

> <Gold.Chemscore.Fitness>
21.2535

> <Gold.Chemscore.DG>
-21.7145

> <Gold.Chemscore.ZeroCoef>
-5.4800

> <Gold.Chemscore.Hbond>
2.8848

> <Gold.Chemscore.Metal>
0.0000

> <Gold.Chemscore.Lipo>
96.3304

> <Gold.Chemscore.Internal_Hbond>
0.0000

> <Gold.Chemscore.DEClash>
0.0000

> <Gold.Chemscore.DEInternal>
0.4610

> <Gold.Chemscore.Rot>
1.8248

> <Gold.Chemscore.Internal.Correction>
   9.000000E+99

> <Gold.Chemscore.Hbonds>
donor molecule, donor type, donor heavy atom, donor atom, acceptor molecule, acceptor atom, score
      P1  H  6896  6909       L1    17  0.66
      P1  H  6931  6943       L1    15  0.82
      P1  H  7997  8008       L1     1  0.90

> <Gold.Chemscore.Hbond.Weighted>
-9.6353

> <Gold.Chemscore.Metal.Weighted>
-0.0000

> <Gold.Chemscore.Lipo.Weighted>
-11.2707

> <Gold.Chemscore.Internal_Hbond.Weighted>
0.0000

> <Gold.Chemscore.DEClash.Weighted>
0.0000

> <Gold.Chemscore.DEInternal.Weighted>
0.4610

> <Gold.Chemscore.Rot.Weighted>
4.6714

> <Gold.Chemscore.Internal.Correction.Weighted>
   9.000000E+99

> <Gold.Protein.RotatedTorsions>
[ 6907 6896 6895 6894 ] final   81.01 input  -60.11 | X-H torsion
[ 7974 7965 7964 7962 ] final -164.14 input  175.53 | X-H torsion
[ 8008 7997 7996 7995 ] final  -28.33 input   59.86 | X-H torsion
[ 10167 10162 10161 10158 ] final  132.33 input  -65.29 | X-H torsion
[ 10718 10713 10712 10709 ] final   21.14 input   66.30 | X-H torsion
[ 10763 10752 10751 10750 ] final   58.02 input  -60.55 | X-H torsion
[ 11005 11000 10999 10996 ] final   81.46 input  -57.11 | X-H torsion

> <Gold.Protein.ActiveResidues>
 VAL166  LYS551  ARG553  GLY616  TRP617  ASP618  TYR619  PRO620  LYS621  CYS622 
 ASP623  PHE694  ASN695  SER759  ASP760  ASP761  ALA762  ILE779  LEU786  VAL792 
 PHE793  MET794  SER795  GLU796  ALA797  LYS798  CYS799  TRP800  GLU811  SER814 

> <Gold.Protein.RotatedAtoms>
  152.5254  134.3270  159.9168 H   0  0  0  0  0  0  0  0  0  0  0  0  # atno 6907 bound_to 6896
  151.3219  133.4030  159.2663 H   0  0  0  0  0  0  0  0  0  0  0  0  # atno 6908 bound_to 6896
  150.9952  134.9294  159.7980 H   0  0  0  0  0  0  0  0  0  0  0  0  # atno 6909 bound_to 6896
  144.7305  140.3004  143.6205 H   0  0  0  0  0  0  0  0  0  0  0  0  # atno 7974 bound_to 7965
  154.4337  140.1848  156.1072 H   0  0  0  0  0  0  0  0  0  0  0  0  # atno 8008 bound_to 7997
  156.0246  140.3337  155.7049 H   0  0  0  0  0  0  0  0  0  0  0  0  # atno 8009 bound_to 7997
  155.5927  140.0632  157.2745 H   0  0  0  0  0  0  0  0  0  0  0  0  # atno 8010 bound_to 7997
  139.5344  144.6667  151.4836 H   0  0  0  0  0  0  0  0  0  0  0  0  # atno 10167 bound_to 10162
  157.1343  130.6605  149.5961 H   0  0  0  0  0  0  0  0  0  0  0  0  # atno 10718 bound_to 10713
  152.9862  135.5621  154.5485 H   0  0  0  0  0  0  0  0  0  0  0  0  # atno 10763 bound_to 10752
  154.4926  135.2793  155.1486 H   0  0  0  0  0  0  0  0  0  0  0  0  # atno 10764 bound_to 10752
  154.2949  135.6319  153.5454 H   0  0  0  0  0  0  0  0  0  0  0  0  # atno 10765 bound_to 10752
  139.9097  134.7998  156.2044 H   0  0  0  0  0  0  0  0  0  0  0  0  # atno 11005 bound_to 11000
  145.7766  139.1876  143.2182 LP  0  0  0  0  0  0  0  0  0  0  0  0  # atno 17320 bound_to 7965
  146.0868  140.7702  142.9615 LP  0  0  0  0  0  0  0  0  0  0  0  0  # atno 17321 bound_to 7965
  140.6542  143.8633  150.6818 LP  0  0  0  0  0  0  0  0  0  0  0  0  # atno 17342 bound_to 10162
  140.2007  143.3961  152.1793 LP  0  0  0  0  0  0  0  0  0  0  0  0  # atno 17343 bound_to 10162
  155.9801  130.4800  150.6755 LP  0  0  0  0  0  0  0  0  0  0  0  0  # atno 17370 bound_to 10713
  157.4364  131.0856  151.0988 LP  0  0  0  0  0  0  0  0  0  0  0  0  # atno 17371 bound_to 10713
  141.0505  133.6891  156.1762 LP  0  0  0  0  0  0  0  0  0  0  0  0  # atno 17394 bound_to 11000
  140.6818  134.4759  157.5589 LP  0  0  0  0  0  0  0  0  0  0  0  0  # atno 17395 bound_to 11000

$$$$
