AV-unprocessed.smi:473|AV-procd|sdf|2662|dock4
  -GOLD-   2262023 73D 1   1.00000     0.00000
 Structure written by MMmdl.
 42 44  0  0  0  0  0  0  0  0  1 V2000
  153.4011  143.6103  163.3202 C   0  0  0  0  0  0  0  0  0  0  0  0
  153.0139  143.0875  161.9478 C   0  0  0  0  0  0  0  0  0  0  0  0
  152.2216  143.8967  161.1021 C   0  0  0  0  0  0  0  0  0  0  0  0
  151.8452  143.4495  159.8167 C   0  0  0  0  0  0  0  0  0  0  0  0
  151.0908  144.0676  158.8340 N   0  0  0  0  0  0  0  0  0  0  0  0
  151.0975  143.1487  157.8725 C   0  0  0  0  0  0  0  0  0  0  0  0
  151.7685  142.0066  158.1163 N   0  0  0  0  0  0  0  0  0  0  0  0
  151.9168  140.8702  157.2252 C   0  0  0  0  0  0  0  0  0  0  0  0
  151.0161  140.9787  155.9785 C   0  0  1  0  0  0  0  0  0  0  0  0
  151.4091  140.0674  154.9713 O   0  0  0  0  0  0  0  0  0  0  0  0
  149.5214  140.7807  156.2796 C   0  0  0  0  0  0  0  0  0  0  0  0
  148.7650  141.8204  155.6805 O   0  0  0  0  0  0  0  0  0  0  0  0
  147.7402  141.3397  154.8263 C   0  0  0  0  0  0  0  0  0  0  0  0
  146.7544  142.4468  154.6250 C   0  0  0  0  0  0  0  0  0  0  0  0
  146.3195  143.1120  153.5120 C   0  0  0  0  0  0  0  0  0  0  0  0
  145.3624  144.0648  153.9584 C   0  0  0  0  0  0  0  0  0  0  0  0
  145.2785  143.9079  155.3123 C   0  0  0  0  0  0  0  0  0  0  0  0
  146.1190  142.9250  155.7351 O   0  0  0  0  0  0  0  0  0  0  0  0
  152.2837  142.1591  159.3989 C   0  0  0  0  0  0  0  0  0  0  0  0
  153.0703  141.3442  160.2315 C   0  0  0  0  0  0  0  0  0  0  0  0
  153.4398  141.8073  161.5115 C   0  0  0  0  0  0  0  0  0  0  0  0
  154.2940  140.9212  162.4005 C   0  0  0  0  0  0  0  0  0  0  0  0
  152.9892  144.6038  163.4991 H   0  0  0  0  0  0  0  0  0  0  0  0
  154.4856  143.6769  163.4104 H   0  0  0  0  0  0  0  0  0  0  0  0
  153.0285  142.9480  164.1017 H   0  0  0  0  0  0  0  0  0  0  0  0
  151.8974  144.8721  161.4337 H   0  0  0  0  0  0  0  0  0  0  0  0
  150.5876  143.3156  156.9350 H   0  0  0  0  0  0  0  0  0  0  0  0
  152.9668  140.7938  156.9398 H   0  0  0  0  0  0  0  0  0  0  0  0
  151.6802  139.9628  157.7822 H   0  0  0  0  0  0  0  0  0  0  0  0
  151.1396  141.9735  155.5486 H   0  0  0  0  0  0  0  0  0  0  0  0
  151.2983  139.1892  155.3023 H   0  0  0  0  0  0  0  0  0  0  0  0
  149.1951  139.8256  155.8654 H   0  0  0  0  0  0  0  0  0  0  0  0
  149.3459  140.7413  157.3562 H   0  0  0  0  0  0  0  0  0  0  0  0
  148.1572  141.0310  153.8666 H   0  0  0  0  0  0  0  0  0  0  0  0
  147.2459  140.4758  155.2725 H   0  0  0  0  0  0  0  0  0  0  0  0
  146.6516  142.9350  152.4997 H   0  0  0  0  0  0  0  0  0  0  0  0
  144.8051  144.7739  153.3643 H   0  0  0  0  0  0  0  0  0  0  0  0
  144.7014  144.3874  156.0893 H   0  0  0  0  0  0  0  0  0  0  0  0
  153.3899  140.3724  159.8845 H   0  0  0  0  0  0  0  0  0  0  0  0
  154.5202  139.9713  161.9151 H   0  0  0  0  0  0  0  0  0  0  0  0
  153.7764  140.7033  163.3351 H   0  0  0  0  0  0  0  0  0  0  0  0
  155.2395  141.4119  162.6324 H   0  0  0  0  0  0  0  0  0  0  0  0
  1  2  1  0  0  0  0
  1 23  1  0  0  0  0
  1 24  1  0  0  0  0
  1 25  1  0  0  0  0
  2 21  1  0  0  0  0
  2  3  2  0  0  0  0
  3  4  1  0  0  0  0
  3 26  1  0  0  0  0
  4 19  2  0  0  0  0
  4  5  1  0  0  0  0
  5  6  2  0  0  0  0
  6  7  1  0  0  0  0
  6 27  1  0  0  0  0
  7  8  1  0  0  0  0
  7 19  1  0  0  0  0
  8  9  1  0  0  0  0
  8 28  1  0  0  0  0
  8 29  1  0  0  0  0
  9 10  1  0  0  0  0
  9 11  1  0  0  0  0
  9 30  1  0  0  0  0
 10 31  1  0  0  0  0
 11 12  1  0  0  0  0
 11 32  1  0  0  0  0
 11 33  1  0  0  0  0
 12 13  1  0  0  0  0
 13 14  1  0  0  0  0
 13 34  1  0  0  0  0
 13 35  1  0  0  0  0
 14 18  1  0  0  0  0
 14 15  2  0  0  0  0
 15 16  1  0  0  0  0
 15 36  1  0  0  0  0
 16 17  2  0  0  0  0
 16 37  1  0  0  0  0
 17 18  1  0  0  0  0
 17 38  1  0  0  0  0
 19 20  1  0  0  0  0
 20 21  2  0  0  0  0
 20 39  1  0  0  0  0
 21 22  1  0  0  0  0
 22 40  1  0  0  0  0
 22 41  1  0  0  0  0
 22 42  1  0  0  0  0
M  END
> <s_m_source_file>
AV-unprocessed.smi

> <i_m_source_file_index>
473

> <i_lp_mmshare_version>
43012

> <i_f3d_flags>
0

> <s_epik_input>
W0NIM11jKFtjSF0xKWMoW0NIM10pW2NIXWMoYzEyKW4oW2NIXW4yKVtDSDJdW0NASF0oW09IXSlbQ0gyXU9bQ0gyXWMzW2NIXVtjSF1bY0hdbzM=

> <s_epik_cmdline>
J2VwaWtfcHl0aG9uJywgJy1waCcsICc3LjAnLCAnLXRuJywgJzgnLCAnLW1hJywgJzIwMCcsICctbWV0YWxfYmluZGluZycsICctaW1hZScsICc8aW5maWxlLm1hZT4nLCAnLW9tYWUnLCAnPG91dGZpbGUubWFlPic=

> <r_epik_Ionization_Penalty>
0.112477

> <r_epik_Ionization_Penalty_Charging>
0

> <r_epik_Ionization_Penalty_Neutral>
0.112477

> <r_epik_State_Penalty>
0.102177

> <r_epik_Charging_Adjusted_Penalty>
0.102177

> <i_epik_Tot_Q>
0

> <i_epik_Tot_abs_Q>
0

> <r_epik_Metal_State_Penalty>
0.000111506

> <b_epik_Metal_Only>
0

> <s_lp_Force_Field>
OPLS_2005

> <r_lp_Energy>
9.30743

> <b_lp_Chiralities_Consistent>
1

> <s_lp_Variant>
AV-unprocessed.smi:473-2

> <Gold.Version>
5.8.1

> <Gold.Id.Protein>
6NUR|6NUR_protein|mol2

> <Gold.PLP.Fitness>
54.1489

> <Gold.PLP.PLP>
-50.6378

> <Gold.PLP.part.hbond>
-1.0000

> <Gold.PLP.part.metal>
0.0000

> <Gold.PLP.part.buried>
-8.3722

> <Gold.PLP.part.nonpolar>
-41.2659

> <Gold.PLP.part.repulsive>
1.0453

> <Gold.PLP.ligand.clash>
0.0000

> <Gold.PLP.ligand.torsion>
1.2714

> <Gold.PLP.Chemscore.Hbond>
1.0000

> <Gold.PLP.Chemscore.CHOScore>
0.9967

> <Gold.PLP.Chemscore.Metal>
0.0000

> <Gold.Chemscore.Hbonds>
donor molecule, donor type, donor heavy atom, donor atom, acceptor molecule, acceptor atom, score
      P1  H  7989  7998       L1    10  1.00
      L1  C     6    27       P1  8028  0.98

> <Gold.PLP.Chemscore.Internal.Correction>
0.0636

> <Gold.Rescore>
     Score         DG    S(hbond)    S(metal)    S(lipo)     H(rot)  DE(clash)    DE(int)     intcor
     15.64     -18.21       0.96        0.00     134.12       2.41       1.28       1.29       ----

> <Gold.Chemscore.Fitness>
15.6449

> <Gold.Chemscore.DG>
-18.2113

> <Gold.Chemscore.ZeroCoef>
-5.4800

> <Gold.Chemscore.Hbond>
0.9595

> <Gold.Chemscore.Metal>
0.0000

> <Gold.Chemscore.Lipo>
134.1177

> <Gold.Chemscore.Internal_Hbond>
0.0000

> <Gold.Chemscore.DEClash>
1.2772

> <Gold.Chemscore.DEInternal>
1.2891

> <Gold.Chemscore.Rot>
2.4083

> <Gold.Chemscore.Internal.Correction>
   9.000000E+99

> <Gold.Chemscore.Hbonds>
donor molecule, donor type, donor heavy atom, donor atom, acceptor molecule, acceptor atom, score
      P1  H  7989  7998       L1    10  0.78

> <Gold.Chemscore.Hbond.Weighted>
-3.2048

> <Gold.Chemscore.Metal.Weighted>
-0.0000

> <Gold.Chemscore.Lipo.Weighted>
-15.6918

> <Gold.Chemscore.Internal_Hbond.Weighted>
0.0000

> <Gold.Chemscore.DEClash.Weighted>
1.2772

> <Gold.Chemscore.DEInternal.Weighted>
1.2891

> <Gold.Chemscore.Rot.Weighted>
6.1653

> <Gold.Chemscore.Internal.Correction.Weighted>
   9.000000E+99

> <Gold.Protein.RotatedTorsions>
[ 6907 6896 6895 6894 ] final -151.60 input  -60.11 | X-H torsion
[ 7974 7965 7964 7962 ] final   12.32 input  175.53 | X-H torsion
[ 8008 7997 7996 7995 ] final -106.06 input   59.86 | X-H torsion
[ 10167 10162 10161 10158 ] final  167.85 input  -65.29 | X-H torsion
[ 10718 10713 10712 10709 ] final  114.49 input   66.30 | X-H torsion
[ 10763 10752 10751 10750 ] final  -87.30 input  -60.55 | X-H torsion
[ 11005 11000 10999 10996 ] final -111.35 input  -57.11 | X-H torsion

> <Gold.Protein.ActiveResidues>
 VAL166  LYS551  ARG553  GLY616  TRP617  ASP618  TYR619  PRO620  LYS621  CYS622 
 ASP623  PHE694  ASN695  SER759  ASP760  ASP761  ALA762  ILE779  LEU786  VAL792 
 PHE793  MET794  SER795  GLU796  ALA797  LYS798  CYS799  TRP800  GLU811  SER814 

> <Gold.Protein.RotatedAtoms>
  151.2155  133.4531  159.2599 H   0  0  0  0  0  0  0  0  0  0  0  0  # atno 6907 bound_to 6896
  151.0935  134.9930  159.8424 H   0  0  0  0  0  0  0  0  0  0  0  0  # atno 6908 bound_to 6896
  152.5437  134.2087  159.8794 H   0  0  0  0  0  0  0  0  0  0  0  0  # atno 6909 bound_to 6896
  146.2353  139.9353  142.8490 H   0  0  0  0  0  0  0  0  0  0  0  0  # atno 7974 bound_to 7965
  154.9090  140.0410  157.1935 H   0  0  0  0  0  0  0  0  0  0  0  0  # atno 8008 bound_to 7997
  154.8367  140.2908  155.5665 H   0  0  0  0  0  0  0  0  0  0  0  0  # atno 8009 bound_to 7997
  156.2990  140.2490  156.3302 H   0  0  0  0  0  0  0  0  0  0  0  0  # atno 8010 bound_to 7997
  139.4954  144.3878  151.9551 H   0  0  0  0  0  0  0  0  0  0  0  0  # atno 10167 bound_to 10162
  157.6278  131.0999  150.7193 H   0  0  0  0  0  0  0  0  0  0  0  0  # atno 10718 bound_to 10713
  154.6321  135.5418  153.7693 H   0  0  0  0  0  0  0  0  0  0  0  0  # atno 10763 bound_to 10752
  153.0290  135.6438  154.1285 H   0  0  0  0  0  0  0  0  0  0  0  0  # atno 10764 bound_to 10752
  154.1214  135.2920  155.3187 H   0  0  0  0  0  0  0  0  0  0  0  0  # atno 10765 bound_to 10752
  141.0739  133.9333  157.2429 H   0  0  0  0  0  0  0  0  0  0  0  0  # atno 11005 bound_to 11000
  145.2004  140.9852  143.4159 LP  0  0  0  0  0  0  0  0  0  0  0  0  # atno 17320 bound_to 7965
  144.9778  139.3814  143.6277 LP  0  0  0  0  0  0  0  0  0  0  0  0  # atno 17321 bound_to 7965
  140.3315  144.3311  150.5986 LP  0  0  0  0  0  0  0  0  0  0  0  0  # atno 17342 bound_to 10162
  140.5641  143.2188  151.7714 LP  0  0  0  0  0  0  0  0  0  0  0  0  # atno 17343 bound_to 10162
  156.7538  130.4777  149.5451 LP  0  0  0  0  0  0  0  0  0  0  0  0  # atno 17370 bound_to 10713
  156.1461  130.6278  151.0533 LP  0  0  0  0  0  0  0  0  0  0  0  0  # atno 17371 bound_to 10713
  139.9552  135.0167  156.9107 LP  0  0  0  0  0  0  0  0  0  0  0  0  # atno 17394 bound_to 11000
  140.5614  134.0531  155.7400 LP  0  0  0  0  0  0  0  0  0  0  0  0  # atno 17395 bound_to 11000

$$$$
