AV-unprocessed.smi:2923|AV-procd|sdf|11212|dock9
  -GOLD-   2272016103D 1   1.00000     0.00000
 Structure written by MMmdl.
 46 48  0  0  0  0  0  0  0  0  1 V2000
  145.5189  137.5009  153.4932 C   0  0  0  0  0  0  0  0  0  0  0  0
  146.6178  138.0975  152.7496 N   0  0  0  0  0  0  0  0  0  0  0  0
  146.3632  138.3863  151.3469 C   0  0  0  0  0  0  0  0  0  0  0  0
  147.2207  139.1661  153.4261 C   0  0  0  0  0  0  0  0  0  0  0  0
  147.1382  140.4885  152.9340 C   0  0  0  0  0  0  0  0  0  0  0  0
  147.7603  141.5225  153.6595 C   0  0  0  0  0  0  0  0  0  0  0  0
  148.4398  141.2026  154.8590 C   0  0  0  0  0  0  0  0  0  0  0  0
  149.1188  142.1502  155.6713 N   0  0  0  0  0  0  0  0  0  0  0  0
  150.1176  141.9380  156.5451 C   0  0  0  0  0  0  0  0  0  0  0  0
  150.6260  140.8456  156.7963 O   0  0  0  0  0  0  0  0  0  0  0  0
  150.5221  143.0855  157.1059 N   0  0  0  0  0  0  0  0  0  0  0  0
  151.6114  143.1908  158.0715 C   0  0  2  0  0  0  0  0  0  0  0  0
  151.6249  142.0272  159.0753 C   0  0  1  0  0  0  0  0  0  0  0  0
  152.7749  141.0569  159.0834 C   0  0  0  0  0  0  0  0  0  0  0  0
  153.6919  141.6227  160.1718 C   0  0  0  0  0  0  0  0  0  0  0  0
  153.3235  142.9960  160.2748 O   0  0  0  0  0  0  0  0  0  0  0  0
  151.9057  143.0698  160.1470 C   0  0  1  0  0  0  0  0  0  0  0  0
  151.3497  144.1828  159.2337 C   0  0  0  0  0  0  0  0  0  0  0  0
  152.1493  145.4861  159.2002 C   0  0  0  0  0  0  0  0  0  0  0  0
  149.8913  144.5658  159.5252 C   0  0  0  0  0  0  0  0  0  0  0  0
  148.4762  139.8483  155.2514 C   0  0  0  0  0  0  0  0  0  0  0  0
  147.8810  138.8525  154.5616 N   0  0  0  0  0  0  0  0  0  0  0  0
  145.8038  137.3220  154.5309 H   0  0  0  0  0  0  0  0  0  0  0  0
  145.2420  136.5434  153.0511 H   0  0  0  0  0  0  0  0  0  0  0  0
  144.6414  138.1485  153.4819 H   0  0  0  0  0  0  0  0  0  0  0  0
  147.2472  138.8139  150.8722 H   0  0  0  0  0  0  0  0  0  0  0  0
  145.5364  139.0889  151.2359 H   0  0  0  0  0  0  0  0  0  0  0  0
  146.1059  137.4700  150.8150 H   0  0  0  0  0  0  0  0  0  0  0  0
  146.6128  140.7099  152.0166 H   0  0  0  0  0  0  0  0  0  0  0  0
  147.7147  142.5299  153.2761 H   0  0  0  0  0  0  0  0  0  0  0  0
  148.8622  143.1141  155.5166 H   0  0  0  0  0  0  0  0  0  0  0  0
  150.0557  143.9413  156.8430 H   0  0  0  0  0  0  0  0  0  0  0  0
  152.5923  143.3398  157.6139 H   0  0  0  0  0  0  0  0  0  0  0  0
  150.6417  141.5718  159.2075 H   0  0  0  0  0  0  0  0  0  0  0  0
  152.4630  140.0377  159.3125 H   0  0  0  0  0  0  0  0  0  0  0  0
  153.2804  141.0444  158.1172 H   0  0  0  0  0  0  0  0  0  0  0  0
  153.5004  141.1323  161.1274 H   0  0  0  0  0  0  0  0  0  0  0  0
  154.7496  141.5071  159.9344 H   0  0  0  0  0  0  0  0  0  0  0  0
  151.3724  142.9016  161.0839 H   0  0  0  0  0  0  0  0  0  0  0  0
  152.1165  146.0007  160.1608 H   0  0  0  0  0  0  0  0  0  0  0  0
  151.7651  146.1710  158.4436 H   0  0  0  0  0  0  0  0  0  0  0  0
  153.1990  145.3085  158.9650 H   0  0  0  0  0  0  0  0  0  0  0  0
  149.7976  145.0710  160.4870 H   0  0  0  0  0  0  0  0  0  0  0  0
  149.2419  143.6906  159.5609 H   0  0  0  0  0  0  0  0  0  0  0  0
  149.4902  145.2363  158.7644 H   0  0  0  0  0  0  0  0  0  0  0  0
  148.9945  139.5525  156.1518 H   0  0  0  0  0  0  0  0  0  0  0  0
  1  2  1  0  0  0  0
  1 23  1  0  0  0  0
  1 24  1  0  0  0  0
  1 25  1  0  0  0  0
  2  3  1  0  0  0  0
  2  4  1  0  0  0  0
  3 26  1  0  0  0  0
  3 27  1  0  0  0  0
  3 28  1  0  0  0  0
  4 22  1  0  0  0  0
  4  5  2  0  0  0  0
  5  6  1  0  0  0  0
  5 29  1  0  0  0  0
  6  7  2  0  0  0  0
  6 30  1  0  0  0  0
  7  8  1  0  0  0  0
  7 21  1  0  0  0  0
  8  9  1  0  0  0  0
  8 31  1  0  0  0  0
  9 10  2  0  0  0  0
  9 11  1  0  0  0  0
 11 12  1  0  0  0  0
 11 32  1  0  0  0  0
 12 18  1  0  0  0  0
 12 13  1  0  0  0  0
 12 33  1  0  0  0  0
 13 17  1  0  0  0  0
 13 14  1  0  0  0  0
 13 34  1  0  0  0  0
 14 15  1  0  0  0  0
 14 35  1  0  0  0  0
 14 36  1  0  0  0  0
 15 16  1  0  0  0  0
 15 37  1  0  0  0  0
 15 38  1  0  0  0  0
 16 17  1  0  0  0  0
 17 18  1  0  0  0  0
 17 39  1  0  0  0  0
 18 19  1  0  0  0  0
 18 20  1  0  0  0  0
 19 40  1  0  0  0  0
 19 41  1  0  0  0  0
 19 42  1  0  0  0  0
 20 43  1  0  0  0  0
 20 44  1  0  0  0  0
 20 45  1  0  0  0  0
 21 22  2  0  0  0  0
 21 46  1  0  0  0  0
M  END
> <s_m_source_file>
AV-unprocessed.smi

> <i_m_source_file_index>
2923

> <i_lp_mmshare_version>
43012

> <i_f3d_flags>
0

> <s_epik_input>
W0NIM11OKFtDSDNdKWMxW2NIXVtjSF1jKFtjSF1uMSlbTkhdQyg9TylbTkhdW0NASF0yQyhbQ0gzXSkoW0NIM10pW0NAQEhdKFtDQEhdMjMpT1tDSDJdW0NIMl0z

> <s_epik_cmdline>
J2VwaWtfcHl0aG9uJywgJy1waCcsICc3LjAnLCAnLXRuJywgJzgnLCAnLW1hJywgJzIwMCcsICctbWV0YWxfYmluZGluZycsICctaW1hZScsICc8aW5maWxlLm1hZT4nLCAnLW9tYWUnLCAnPG91dGZpbGUubWFlPic=

> <r_lp_tautomer_probability>
1

> <r_epik_Ionization_Penalty>
0.628785

> <r_epik_Ionization_Penalty_Charging>
0

> <r_epik_Ionization_Penalty_Neutral>
0.628785

> <r_epik_State_Penalty>
0.644286

> <r_epik_Charging_Adjusted_Penalty>
0.644286

> <i_epik_Tot_Q>
0

> <i_epik_Tot_abs_Q>
0

> <r_epik_Metal_State_Penalty>
0.308404

> <b_epik_Metal_Only>
0

> <s_lp_Force_Field>
OPLS_2005

> <r_lp_Energy>
42.6723

> <b_lp_Chiralities_Consistent>
1

> <s_lp_Variant>
AV-unprocessed.smi:2923-11

> <Gold.Version>
5.8.1

> <Gold.Id.Protein>
6NUR|6NUR_protein|mol2

> <Gold.PLP.Fitness>
45.7796

> <Gold.PLP.PLP>
-41.2013

> <Gold.PLP.part.hbond>
-2.0000

> <Gold.PLP.part.metal>
0.0000

> <Gold.PLP.part.buried>
-4.2428

> <Gold.PLP.part.nonpolar>
-36.5933

> <Gold.PLP.part.repulsive>
0.6167

> <Gold.PLP.ligand.clash>
0.1556

> <Gold.PLP.ligand.torsion>
0.7405

> <Gold.PLP.Chemscore.Hbond>
1.9440

> <Gold.PLP.Chemscore.CHOScore>
0.0000

> <Gold.PLP.Chemscore.Metal>
0.0000

> <Gold.Chemscore.Hbonds>
donor molecule, donor type, donor heavy atom, donor atom, acceptor molecule, acceptor atom, score
      L1  H     8    31       P1  8028  1.00
      L1  H    11    32       P1  8028  0.93

> <Gold.PLP.Chemscore.Internal.Correction>
0.3829

> <Gold.Rescore>
     Score         DG    S(hbond)    S(metal)    S(lipo)     H(rot)  DE(clash)    DE(int)     intcor
     18.82     -22.23       1.97        0.00     113.10       1.19       0.16       3.25       ----

> <Gold.Chemscore.Fitness>
18.8234

> <Gold.Chemscore.DG>
-22.2292

> <Gold.Chemscore.ZeroCoef>
-5.4800

> <Gold.Chemscore.Hbond>
1.9677

> <Gold.Chemscore.Metal>
0.0000

> <Gold.Chemscore.Lipo>
113.1034

> <Gold.Chemscore.Internal_Hbond>
0.0000

> <Gold.Chemscore.DEClash>
0.1554

> <Gold.Chemscore.DEInternal>
3.2504

> <Gold.Chemscore.Rot>
1.1937

> <Gold.Chemscore.Internal.Correction>
   9.000000E+99

> <Gold.Chemscore.Hbonds>
donor molecule, donor type, donor heavy atom, donor atom, acceptor molecule, acceptor atom, score
      L1  H     8    31       P1  8028  0.98
      L1  H    11    32       P1  8028  0.89

> <Gold.Chemscore.Hbond.Weighted>
-6.5720

> <Gold.Chemscore.Metal.Weighted>
-0.0000

> <Gold.Chemscore.Lipo.Weighted>
-13.2331

> <Gold.Chemscore.Internal_Hbond.Weighted>
0.0000

> <Gold.Chemscore.DEClash.Weighted>
0.1554

> <Gold.Chemscore.DEInternal.Weighted>
3.2504

> <Gold.Chemscore.Rot.Weighted>
3.0559

> <Gold.Chemscore.Internal.Correction.Weighted>
   9.000000E+99

> <Gold.Protein.RotatedTorsions>
[ 6907 6896 6895 6894 ] final -106.60 input  -60.11 | X-H torsion
[ 7974 7965 7964 7962 ] final -125.12 input  175.53 | X-H torsion
[ 8008 7997 7996 7995 ] final  -78.69 input   59.86 | X-H torsion
[ 10167 10162 10161 10158 ] final  131.79 input  -65.29 | X-H torsion
[ 10718 10713 10712 10709 ] final  -84.02 input   66.30 | X-H torsion
[ 10763 10752 10751 10750 ] final   78.30 input  -60.55 | X-H torsion
[ 11005 11000 10999 10996 ] final  137.79 input  -57.11 | X-H torsion

> <Gold.Protein.ActiveResidues>
 VAL166  LYS551  ARG553  GLY616  TRP617  ASP618  TYR619  PRO620  LYS621  CYS622 
 ASP623  PHE694  ASN695  SER759  ASP760  ASP761  ALA762  ILE779  LEU786  VAL792 
 PHE793  MET794  SER795  GLU796  ALA797  LYS798  CYS799  TRP800  GLU811  SER814 

> <Gold.Protein.RotatedAtoms>
  150.7398  133.9952  159.3619 H   0  0  0  0  0  0  0  0  0  0  0  0  # atno 6907 bound_to 6896
  151.7903  135.0735  160.0395 H   0  0  0  0  0  0  0  0  0  0  0  0  # atno 6908 bound_to 6896
  152.3212  133.5819  159.5782 H   0  0  0  0  0  0  0  0  0  0  0  0  # atno 6909 bound_to 6896
  145.0009  140.7819  143.4497 H   0  0  0  0  0  0  0  0  0  0  0  0  # atno 7974 bound_to 7965
  154.5714  140.0690  156.8969 H   0  0  0  0  0  0  0  0  0  0  0  0  # atno 8008 bound_to 7997
  155.2628  140.3359  155.4253 H   0  0  0  0  0  0  0  0  0  0  0  0  # atno 8009 bound_to 7997
  156.2121  140.1763  156.7657 H   0  0  0  0  0  0  0  0  0  0  0  0  # atno 8010 bound_to 7997
  139.5368  144.6690  151.4759 H   0  0  0  0  0  0  0  0  0  0  0  0  # atno 10167 bound_to 10162
  156.0011  130.4684  150.4347 H   0  0  0  0  0  0  0  0  0  0  0  0  # atno 10718 bound_to 10713
  153.0864  135.4882  154.8604 H   0  0  0  0  0  0  0  0  0  0  0  0  # atno 10763 bound_to 10752
  154.7215  135.3040  154.9042 H   0  0  0  0  0  0  0  0  0  0  0  0  # atno 10764 bound_to 10752
  153.9704  135.6802  153.4800 H   0  0  0  0  0  0  0  0  0  0  0  0  # atno 10765 bound_to 10752
  140.0138  134.9427  157.0334 H   0  0  0  0  0  0  0  0  0  0  0  0  # atno 11005 bound_to 11000
  145.2155  139.2184  143.5120 LP  0  0  0  0  0  0  0  0  0  0  0  0  # atno 17320 bound_to 7965
  146.3451  140.2002  142.8589 LP  0  0  0  0  0  0  0  0  0  0  0  0  # atno 17321 bound_to 7965
  140.6578  143.8561  150.6855 LP  0  0  0  0  0  0  0  0  0  0  0  0  # atno 17342 bound_to 10162
  140.1947  143.4008  152.1837 LP  0  0  0  0  0  0  0  0  0  0  0  0  # atno 17343 bound_to 10162
  157.2393  131.0522  151.2446 LP  0  0  0  0  0  0  0  0  0  0  0  0  # atno 17370 bound_to 10713
  157.3636  130.7144  149.6518 LP  0  0  0  0  0  0  0  0  0  0  0  0  # atno 17371 bound_to 10713
  140.4507  134.1586  155.7181 LP  0  0  0  0  0  0  0  0  0  0  0  0  # atno 17394 bound_to 11000
  141.1729  133.8572  157.1513 LP  0  0  0  0  0  0  0  0  0  0  0  0  # atno 17395 bound_to 11000

$$$$
