AV-unprocessed.smi:3028|AV-procd|sdf|11518|dock9
  -GOLD-   2272016453D 1   1.00000     0.00000
 Structure written by MMmdl.
 48 49  0  0  0  0  0  0  0  0  2 V2000
  151.7278  142.5656  157.7869 C   0  0  0  0  0  0  0  0  0  0  0  0
  150.8401  141.5273  157.1639 C   0  0  0  0  0  0  0  0  0  0  0  0
  150.6150  140.1914  157.6009 C   0  0  0  0  0  0  0  0  0  0  0  0
  149.7672  139.5349  156.8266 N   0  0  0  0  0  0  0  0  0  0  0  0
  149.4207  140.4236  155.8689 N   0  0  0  0  0  0  0  0  0  0  0  0
  148.4704  140.0508  154.8268 C   0  0  1  0  0  0  0  0  0  0  0  0
  148.2863  141.2234  153.8448 C   0  0  0  0  0  0  0  0  0  0  0  0
  148.8844  138.7259  154.1311 C   0  0  2  0  0  0  0  0  0  0  0  0
  150.3703  138.6946  153.7368 C   0  0  0  0  0  0  0  0  0  0  0  0
  148.0677  138.5090  152.9145 N   0  3  0  0  0  0  0  0  0  0  0  0
  146.6157  138.7236  153.0896 C   0  0  0  0  0  0  0  0  0  0  0  0
  145.7965  137.4755  152.7372 C   0  0  0  0  0  0  0  0  0  0  0  0
  144.5675  137.5267  152.7380 O   0  0  0  0  0  0  0  0  0  0  0  0
  146.4350  136.3334  152.4312 N   0  0  0  0  0  0  0  0  0  0  0  0
  145.8531  135.0412  152.0696 C   0  0  0  0  0  0  0  0  0  0  0  0
  146.9577  133.9779  151.9740 C   0  0  0  0  0  0  0  0  0  0  0  0
  146.3946  132.6583  151.4209 C   0  0  0  0  0  0  0  0  0  0  0  0
  145.7787  132.8831  150.1574 O   0  0  0  0  0  0  0  0  0  0  0  0
  144.6685  133.7712  150.2311 C   0  0  0  0  0  0  0  0  0  0  0  0
  145.1319  135.1541  150.7179 C   0  0  0  0  0  0  0  0  0  0  0  0
  150.0600  141.6327  156.0476 C   0  0  0  0  0  0  0  0  0  0  0  0
  152.1838  142.2090  158.7108 H   0  0  0  0  0  0  0  0  0  0  0  0
  151.1749  143.4727  158.0314 H   0  0  0  0  0  0  0  0  0  0  0  0
  152.5394  142.8532  157.1186 H   0  0  0  0  0  0  0  0  0  0  0  0
  151.0383  139.6828  158.4546 H   0  0  0  0  0  0  0  0  0  0  0  0
  147.5107  139.8868  155.3198 H   0  0  0  0  0  0  0  0  0  0  0  0
  147.4605  141.0473  153.1560 H   0  0  0  0  0  0  0  0  0  0  0  0
  149.1854  141.3945  153.2520 H   0  0  0  0  0  0  0  0  0  0  0  0
  148.0616  142.1472  154.3791 H   0  0  0  0  0  0  0  0  0  0  0  0
  148.7150  137.9015  154.8263 H   0  0  0  0  0  0  0  0  0  0  0  0
  151.0208  138.7343  154.6101 H   0  0  0  0  0  0  0  0  0  0  0  0
  150.6288  139.5316  153.0872 H   0  0  0  0  0  0  0  0  0  0  0  0
  150.6122  137.7741  153.2045 H   0  0  0  0  0  0  0  0  0  0  0  0
  148.3913  139.1439  152.1986 H   0  0  0  0  0  0  0  0  0  0  0  0
  146.4196  139.0074  154.1244 H   0  0  0  0  0  0  0  0  0  0  0  0
  146.2982  139.5463  152.4486 H   0  0  0  0  0  0  0  0  0  0  0  0
  147.4445  136.3648  152.4493 H   0  0  0  0  0  0  0  0  0  0  0  0
  145.1276  134.7025  152.8085 H   0  0  0  0  0  0  0  0  0  0  0  0
  147.7561  134.3276  151.3177 H   0  0  0  0  0  0  0  0  0  0  0  0
  147.4080  133.8108  152.9532 H   0  0  0  0  0  0  0  0  0  0  0  0
  147.1977  131.9320  151.2965 H   0  0  0  0  0  0  0  0  0  0  0  0
  145.6754  132.2211  152.1152 H   0  0  0  0  0  0  0  0  0  0  0  0
  144.2190  133.8543  149.2416 H   0  0  0  0  0  0  0  0  0  0  0  0
  143.9049  133.3615  150.8939 H   0  0  0  0  0  0  0  0  0  0  0  0
  144.2775  135.8272  150.7992 H   0  0  0  0  0  0  0  0  0  0  0  0
  145.8013  135.5877  149.9732 H   0  0  0  0  0  0  0  0  0  0  0  0
  149.9060  142.4637  155.3749 H   0  0  0  0  0  0  0  0  0  0  0  0
  148.2128  137.5642  152.5884 H   0  0  0  0  0  0  0  0  0  0  0  0
  1  2  1  0  0  0  0
  1 22  1  0  0  0  0
  1 23  1  0  0  0  0
  1 24  1  0  0  0  0
  2 21  2  0  0  0  0
  2  3  1  0  0  0  0
  3  4  2  0  0  0  0
  3 25  1  0  0  0  0
  4  5  1  0  0  0  0
  5  6  1  0  0  0  0
  5 21  1  0  0  0  0
  6  7  1  0  0  0  0
  6  8  1  0  0  0  0
  6 26  1  0  0  0  0
  7 27  1  0  0  0  0
  7 28  1  0  0  0  0
  7 29  1  0  0  0  0
  8  9  1  0  0  0  0
  8 10  1  0  0  0  0
  8 30  1  0  0  0  0
  9 31  1  0  0  0  0
  9 32  1  0  0  0  0
  9 33  1  0  0  0  0
 10 11  1  0  0  0  0
 10 34  1  0  0  0  0
 10 48  1  0  0  0  0
 11 12  1  0  0  0  0
 11 35  1  0  0  0  0
 11 36  1  0  0  0  0
 12 13  2  0  0  0  0
 12 14  1  0  0  0  0
 14 15  1  0  0  0  0
 14 37  1  0  0  0  0
 15 20  1  0  0  0  0
 15 16  1  0  0  0  0
 15 38  1  0  0  0  0
 16 17  1  0  0  0  0
 16 39  1  0  0  0  0
 16 40  1  0  0  0  0
 17 18  1  0  0  0  0
 17 41  1  0  0  0  0
 17 42  1  0  0  0  0
 18 19  1  0  0  0  0
 19 20  1  0  0  0  0
 19 43  1  0  0  0  0
 19 44  1  0  0  0  0
 20 45  1  0  0  0  0
 20 46  1  0  0  0  0
 21 47  1  0  0  0  0
M  CHG  1  10   1
M  END
> <s_m_source_file>
AV-unprocessed.smi

> <i_m_source_file_index>
3028

> <i_lp_mmshare_version>
43012

> <i_f3d_flags>
0

> <s_epik_input>
W0NIM11jMVtjSF1ubihbY0hdMSlbQ0BIXShbQ0gzXSlbQ0BIXShbQ0gzXSlbTkhdW0NIMl1DKD1PKVtOSF1bQ0hdMltDSDJdW0NIMl1PW0NIMl1bQ0gyXTI=

> <s_epik_cmdline>
J2VwaWtfcHl0aG9uJywgJy1waCcsICc3LjAnLCAnLXRuJywgJzgnLCAnLW1hJywgJzIwMCcsICctbWV0YWxfYmluZGluZycsICctaW1hZScsICc8aW5maWxlLm1hZT4nLCAnLW9tYWUnLCAnPG91dGZpbGUubWFlPic=

> <r_lp_tautomer_probability>
1

> <r_epik_Ionization_Penalty>
0.151514

> <r_epik_Ionization_Penalty_Charging>
0.151494

> <r_epik_Ionization_Penalty_Neutral>
1.95502e-05

> <r_epik_State_Penalty>
0.141395

> <r_epik_Charging_Adjusted_Penalty>
0.292889

> <i_epik_Tot_Q>
1

> <i_epik_Tot_abs_Q>
1

> <r_epik_Metal_State_Penalty>
0.141632

> <b_epik_Metal_Only>
0

> <s_lp_Force_Field>
OPLS_2005

> <r_lp_Energy>
16.7547

> <b_lp_Chiralities_Consistent>
1

> <s_lp_Variant>
AV-unprocessed.smi:3028-2

> <Gold.Version>
5.8.1

> <Gold.Id.Protein>
6NUR|6NUR_protein|mol2

> <Gold.PLP.Fitness>
47.4612

> <Gold.PLP.PLP>
-33.9473

> <Gold.PLP.part.hbond>
-3.0000

> <Gold.PLP.part.metal>
0.0000

> <Gold.PLP.part.buried>
-2.5670

> <Gold.PLP.part.nonpolar>
-28.0790

> <Gold.PLP.part.repulsive>
0.6661

> <Gold.PLP.ligand.clash>
0.0000

> <Gold.PLP.ligand.torsion>
0.7881

> <Gold.PLP.Chemscore.Hbond>
3.9920

> <Gold.PLP.Chemscore.CHOScore>
0.9935

> <Gold.PLP.Chemscore.Metal>
0.0000

> <Gold.Chemscore.Hbonds>
donor molecule, donor type, donor heavy atom, donor atom, acceptor molecule, acceptor atom, score
      L1  H    10    34       P1  7957  1.00
      L1  H    10    48       P1  7948  2.00
      L1  H    14    37       P1  7948  1.00
      L1  C    21    47       P1  8028  1.00

> <Gold.PLP.Chemscore.Internal.Correction>
0.1336

> <Gold.Rescore>
     Score         DG    S(hbond)    S(metal)    S(lipo)     H(rot)  DE(clash)    DE(int)     intcor
     19.39     -20.45       2.96        0.00      86.88       1.99       0.48       0.58       ----

> <Gold.Chemscore.Fitness>
19.3920

> <Gold.Chemscore.DG>
-20.4521

> <Gold.Chemscore.ZeroCoef>
-5.4800

> <Gold.Chemscore.Hbond>
2.9644

> <Gold.Chemscore.Metal>
0.0000

> <Gold.Chemscore.Lipo>
86.8764

> <Gold.Chemscore.Internal_Hbond>
0.0000

> <Gold.Chemscore.DEClash>
0.4813

> <Gold.Chemscore.DEInternal>
0.5789

> <Gold.Chemscore.Rot>
1.9897

> <Gold.Chemscore.Internal.Correction>
   9.000000E+99

> <Gold.Chemscore.Hbonds>
donor molecule, donor type, donor heavy atom, donor atom, acceptor molecule, acceptor atom, score
      L1  H    10    34       P1  7957  0.99
      L1  H    10    48       P1  7948  0.99
      L1  H    14    37       P1  7948  0.98

> <Gold.Chemscore.Hbond.Weighted>
-9.9012

> <Gold.Chemscore.Metal.Weighted>
-0.0000

> <Gold.Chemscore.Lipo.Weighted>
-10.1645

> <Gold.Chemscore.Internal_Hbond.Weighted>
0.0000

> <Gold.Chemscore.DEClash.Weighted>
0.4813

> <Gold.Chemscore.DEInternal.Weighted>
0.5789

> <Gold.Chemscore.Rot.Weighted>
5.0936

> <Gold.Chemscore.Internal.Correction.Weighted>
   9.000000E+99

> <Gold.Protein.RotatedTorsions>
[ 6907 6896 6895 6894 ] final  177.14 input  -60.11 | X-H torsion
[ 7974 7965 7964 7962 ] final   33.43 input  175.53 | X-H torsion
[ 8008 7997 7996 7995 ] final   61.99 input   59.86 | X-H torsion
[ 10167 10162 10161 10158 ] final  170.42 input  -65.29 | X-H torsion
[ 10718 10713 10712 10709 ] final  -11.01 input   66.30 | X-H torsion
[ 10763 10752 10751 10750 ] final   41.29 input  -60.55 | X-H torsion
[ 11005 11000 10999 10996 ] final  -40.43 input  -57.11 | X-H torsion

> <Gold.Protein.ActiveResidues>
 VAL166  LYS551  ARG553  GLY616  TRP617  ASP618  TYR619  PRO620  LYS621  CYS622 
 ASP623  PHE694  ASN695  SER759  ASP760  ASP761  ALA762  ILE779  LEU786  VAL792 
 PHE793  MET794  SER795  GLU796  ALA797  LYS798  CYS799  TRP800  GLU811  SER814 

> <Gold.Protein.RotatedAtoms>
  151.7087  133.3312  159.3284 H   0  0  0  0  0  0  0  0  0  0  0  0  # atno 6907 bound_to 6896
  150.7703  134.6551  159.6318 H   0  0  0  0  0  0  0  0  0  0  0  0  # atno 6908 bound_to 6896
  152.3725  134.6716  160.0223 H   0  0  0  0  0  0  0  0  0  0  0  0  # atno 6909 bound_to 6896
  146.1421  139.6398  142.9156 H   0  0  0  0  0  0  0  0  0  0  0  0  # atno 7974 bound_to 7965
  155.6072  140.3494  155.4611 H   0  0  0  0  0  0  0  0  0  0  0  0  # atno 8008 bound_to 7997
  156.0183  140.1248  157.0408 H   0  0  0  0  0  0  0  0  0  0  0  0  # atno 8009 bound_to 7997
  154.4305  140.1067  156.5913 H   0  0  0  0  0  0  0  0  0  0  0  0  # atno 8010 bound_to 7997
  139.5018  144.3599  151.9836 H   0  0  0  0  0  0  0  0  0  0  0  0  # atno 10167 bound_to 10162
  156.6652  130.4993  149.6017 H   0  0  0  0  0  0  0  0  0  0  0  0  # atno 10718 bound_to 10713
  152.9912  135.6166  154.2764 H   0  0  0  0  0  0  0  0  0  0  0  0  # atno 10763 bound_to 10752
  154.2495  135.2786  155.2824 H   0  0  0  0  0  0  0  0  0  0  0  0  # atno 10764 bound_to 10752
  154.5300  135.5791  153.6808 H   0  0  0  0  0  0  0  0  0  0  0  0  # atno 10765 bound_to 10752
  141.0174  133.6879  156.2320 H   0  0  0  0  0  0  0  0  0  0  0  0  # atno 11005 bound_to 11000
  145.5022  141.0437  143.2534 LP  0  0  0  0  0  0  0  0  0  0  0  0  # atno 17320 bound_to 7965
  144.7804  139.6538  143.7156 LP  0  0  0  0  0  0  0  0  0  0  0  0  # atno 17321 bound_to 7965
  140.3035  144.3619  150.6053 LP  0  0  0  0  0  0  0  0  0  0  0  0  # atno 17342 bound_to 10162
  140.5855  143.2170  151.7350 LP  0  0  0  0  0  0  0  0  0  0  0  0  # atno 17343 bound_to 10162
  156.1980  130.6602  151.1136 LP  0  0  0  0  0  0  0  0  0  0  0  0  # atno 17370 bound_to 10713
  157.7096  131.0740  150.6548 LP  0  0  0  0  0  0  0  0  0  0  0  0  # atno 17371 bound_to 10713
  140.6631  134.4946  157.5584 LP  0  0  0  0  0  0  0  0  0  0  0  0  # atno 17394 bound_to 11000
  139.9125  134.8314  156.1478 LP  0  0  0  0  0  0  0  0  0  0  0  0  # atno 17395 bound_to 11000

$$$$
