AV-unprocessed.smi:2433|AV-procd|sdf|9590|dock10
  -GOLD-   2272013223D 1   1.00000     0.00000
 Structure written by MMmdl.
 38 40  0  0  0  0  0  0  0  0  1 V2000
  154.6968  141.1538  161.3714 O   0  0  0  0  0  0  0  0  0  0  0  0
  153.8302  141.2052  160.4981 C   0  0  0  0  0  0  0  0  0  0  0  0
  153.1338  142.4441  160.1501 C   0  0  0  0  0  0  0  0  0  0  0  0
  152.1887  142.4622  159.1808 C   0  0  0  0  0  0  0  0  0  0  0  0
  151.4587  143.7538  158.8210 C   0  0  0  0  0  0  0  0  0  0  0  0
  152.3349  145.0120  158.6920 C   0  0  0  0  0  0  0  0  0  0  0  0
  151.8675  145.4576  160.0821 C   0  0  0  0  0  0  0  0  0  0  0  0
  150.7380  144.4244  160.0010 C   0  0  0  0  0  0  0  0  0  0  0  0
  151.8422  141.2835  158.5066 N   0  0  0  0  0  0  0  0  0  0  0  0
  152.4424  140.1735  158.7962 C   0  0  0  0  0  0  0  0  0  0  0  0
  153.4483  140.1099  159.7788 N   0  0  0  0  0  0  0  0  0  0  0  0
  154.0717  138.7935  159.9934 C   0  0  0  0  0  0  0  0  0  0  0  0
  153.0942  137.7685  160.6094 C   0  0  1  0  0  0  0  0  0  0  0  0
  152.5672  136.9624  159.5738 O   0  0  0  0  0  0  0  0  0  0  0  0
  153.7917  136.9295  161.6700 C   0  0  0  0  0  0  0  0  0  0  0  0
  154.7390  135.9566  161.2840 C   0  0  0  0  0  0  0  0  0  0  0  0
  155.3806  135.1643  162.2559 C   0  0  0  0  0  0  0  0  0  0  0  0
  155.0761  135.3376  163.6198 C   0  0  0  0  0  0  0  0  0  0  0  0
  155.6921  134.5752  164.5539 F   0  0  0  0  0  0  0  0  0  0  0  0
  154.1287  136.3026  164.0112 C   0  0  0  0  0  0  0  0  0  0  0  0
  153.4868  137.0950  163.0397 C   0  0  0  0  0  0  0  0  0  0  0  0
  153.3888  143.3541  160.6737 H   0  0  0  0  0  0  0  0  0  0  0  0
  150.8036  143.6216  157.9586 H   0  0  0  0  0  0  0  0  0  0  0  0
  153.4075  144.8323  158.6102 H   0  0  0  0  0  0  0  0  0  0  0  0
  151.9870  145.6815  157.9042 H   0  0  0  0  0  0  0  0  0  0  0  0
  152.5923  145.2312  160.8653 H   0  0  0  0  0  0  0  0  0  0  0  0
  151.5289  146.4927  160.1342 H   0  0  0  0  0  0  0  0  0  0  0  0
  149.7848  144.8688  159.7113 H   0  0  0  0  0  0  0  0  0  0  0  0
  150.6335  143.8028  160.8912 H   0  0  0  0  0  0  0  0  0  0  0  0
  152.2064  139.2287  158.3037 H   0  0  0  0  0  0  0  0  0  0  0  0
  154.5206  138.3927  159.0820 H   0  0  0  0  0  0  0  0  0  0  0  0
  154.9165  138.9323  160.6710 H   0  0  0  0  0  0  0  0  0  0  0  0
  152.2560  138.2825  161.0819 H   0  0  0  0  0  0  0  0  0  0  0  0
  153.1802  136.9620  158.8543 H   0  0  0  0  0  0  0  0  0  0  0  0
  154.9747  135.8116  160.2399 H   0  0  0  0  0  0  0  0  0  0  0  0
  156.1048  134.4219  161.9545 H   0  0  0  0  0  0  0  0  0  0  0  0
  153.8921  136.4338  165.0567 H   0  0  0  0  0  0  0  0  0  0  0  0
  152.7569  137.8278  163.3510 H   0  0  0  0  0  0  0  0  0  0  0  0
  1  2  2  0  0  0  0
  2 11  1  0  0  0  0
  2  3  1  0  0  0  0
  3  4  2  0  0  0  0
  3 22  1  0  0  0  0
  4  5  1  0  0  0  0
  4  9  1  0  0  0  0
  5  8  1  0  0  0  0
  5  6  1  0  0  0  0
  5 23  1  0  0  0  0
  6  7  1  0  0  0  0
  6 24  1  0  0  0  0
  6 25  1  0  0  0  0
  7  8  1  0  0  0  0
  7 26  1  0  0  0  0
  7 27  1  0  0  0  0
  8 28  1  0  0  0  0
  8 29  1  0  0  0  0
  9 10  2  0  0  0  0
 10 11  1  0  0  0  0
 10 30  1  0  0  0  0
 11 12  1  0  0  0  0
 12 13  1  0  0  0  0
 12 31  1  0  0  0  0
 12 32  1  0  0  0  0
 13 14  1  0  0  0  0
 13 15  1  0  0  0  0
 13 33  1  0  0  0  0
 14 34  1  0  0  0  0
 15 21  1  0  0  0  0
 15 16  2  0  0  0  0
 16 17  1  0  0  0  0
 16 35  1  0  0  0  0
 17 18  2  0  0  0  0
 17 36  1  0  0  0  0
 18 19  1  0  0  0  0
 18 20  1  0  0  0  0
 20 21  2  0  0  0  0
 20 37  1  0  0  0  0
 21 38  1  0  0  0  0
M  END
> <s_m_source_file>
AV-unprocessed.smi

> <i_m_source_file_index>
2433

> <i_lp_mmshare_version>
43012

> <i_f3d_flags>
0

> <s_epik_input>
W0NIMl0xW0NIMl1bQ0gyXVtDSF0xYyhbY0hdYzI9TyluW2NIXW4yW0NIMl1bQ0BIXShbT0hdKWMzW2NIXVtjSF1jKEYpW2NIXVtjSF0z

> <s_epik_cmdline>
J2VwaWtfcHl0aG9uJywgJy1waCcsICc3LjAnLCAnLXRuJywgJzgnLCAnLW1hJywgJzIwMCcsICctbWV0YWxfYmluZGluZycsICctaW1hZScsICc8aW5maWxlLm1hZT4nLCAnLW9tYWUnLCAnPG91dGZpbGUubWFlPic=

> <r_lp_tautomer_probability>
1

> <r_epik_Ionization_Penalty>
2.57762e-05

> <r_epik_Ionization_Penalty_Charging>
5.39435e-08

> <r_epik_Ionization_Penalty_Neutral>
2.57223e-05

> <r_epik_State_Penalty>
-0

> <r_epik_Charging_Adjusted_Penalty>
5.39435e-08

> <i_epik_Tot_Q>
0

> <i_epik_Tot_abs_Q>
0

> <r_epik_Metal_State_Penalty>
-0

> <b_epik_Metal_Only>
0

> <s_lp_Force_Field>
OPLS_2005

> <r_lp_Energy>
28.3662

> <b_lp_Chiralities_Consistent>
1

> <s_lp_Variant>
AV-unprocessed.smi:2433-2

> <Gold.Version>
5.8.1

> <Gold.Id.Protein>
6NUR|6NUR_protein|mol2

> <Gold.PLP.Fitness>
51.4174

> <Gold.PLP.PLP>
-50.1555

> <Gold.PLP.part.hbond>
-2.0000

> <Gold.PLP.part.metal>
0.0000

> <Gold.PLP.part.buried>
-6.7332

> <Gold.PLP.part.nonpolar>
-42.3913

> <Gold.PLP.part.repulsive>
0.0000

> <Gold.PLP.ligand.clash>
0.0000

> <Gold.PLP.ligand.torsion>
1.0456

> <Gold.PLP.Chemscore.Hbond>
1.0000

> <Gold.PLP.Chemscore.CHOScore>
0.0000

> <Gold.PLP.Chemscore.Metal>
0.0000

> <Gold.Chemscore.Hbonds>
donor molecule, donor type, donor heavy atom, donor atom, acceptor molecule, acceptor atom, score
      P1  H  6896  6907       L1    14  0.99

> <Gold.PLP.Chemscore.Internal.Correction>
0.3532

> <Gold.Rescore>
     Score         DG    S(hbond)    S(metal)    S(lipo)     H(rot)  DE(clash)    DE(int)     intcor
     16.66     -17.59       0.93        0.00     123.82       2.14       0.09       0.85       ----

> <Gold.Chemscore.Fitness>
16.6585

> <Gold.Chemscore.DG>
-17.5926

> <Gold.Chemscore.ZeroCoef>
-5.4800

> <Gold.Chemscore.Hbond>
0.9270

> <Gold.Chemscore.Metal>
0.0000

> <Gold.Chemscore.Lipo>
123.8233

> <Gold.Chemscore.Internal_Hbond>
0.0000

> <Gold.Chemscore.DEClash>
0.0851

> <Gold.Chemscore.DEInternal>
0.8490

> <Gold.Chemscore.Rot>
2.1370

> <Gold.Chemscore.Internal.Correction>
   9.000000E+99

> <Gold.Chemscore.Hbonds>
donor molecule, donor type, donor heavy atom, donor atom, acceptor molecule, acceptor atom, score
      P1  H  6896  6907       L1    14  0.81

> <Gold.Chemscore.Hbond.Weighted>
-3.0960

> <Gold.Chemscore.Metal.Weighted>
-0.0000

> <Gold.Chemscore.Lipo.Weighted>
-14.4873

> <Gold.Chemscore.Internal_Hbond.Weighted>
0.0000

> <Gold.Chemscore.DEClash.Weighted>
0.0851

> <Gold.Chemscore.DEInternal.Weighted>
0.8490

> <Gold.Chemscore.Rot.Weighted>
5.4707

> <Gold.Chemscore.Internal.Correction.Weighted>
   9.000000E+99

> <Gold.Protein.RotatedTorsions>
[ 6907 6896 6895 6894 ] final   10.42 input  -60.11 | X-H torsion
[ 7974 7965 7964 7962 ] final -116.53 input  175.53 | X-H torsion
[ 8008 7997 7996 7995 ] final   23.90 input   59.86 | X-H torsion
[ 10167 10162 10161 10158 ] final  -12.45 input  -65.29 | X-H torsion
[ 10718 10713 10712 10709 ] final -146.44 input   66.30 | X-H torsion
[ 10763 10752 10751 10750 ] final   37.55 input  -60.55 | X-H torsion
[ 11005 11000 10999 10996 ] final   81.66 input  -57.11 | X-H torsion

> <Gold.Protein.ActiveResidues>
 VAL166  LYS551  ARG553  GLY616  TRP617  ASP618  TYR619  PRO620  LYS621  CYS622 
 ASP623  PHE694  ASN695  SER759  ASP760  ASP761  ALA762  ILE779  LEU786  VAL792 
 PHE793  MET794  SER795  GLU796  ALA797  LYS798  CYS799  TRP800  GLU811  SER814 

> <Gold.Protein.RotatedAtoms>
  151.7380  135.0860  160.0310 H   0  0  0  0  0  0  0  0  0  0  0  0  # atno 6907 bound_to 6896
  152.3498  133.6161  159.5945 H   0  0  0  0  0  0  0  0  0  0  0  0  # atno 6908 bound_to 6896
  150.7532  133.9508  159.3527 H   0  0  0  0  0  0  0  0  0  0  0  0  # atno 6909 bound_to 6896
  145.0957  140.8519  143.3956 H   0  0  0  0  0  0  0  0  0  0  0  0  # atno 7974 bound_to 7965
  154.9881  140.3110  155.4918 H   0  0  0  0  0  0  0  0  0  0  0  0  # atno 8008 bound_to 7997
  156.2944  140.2254  156.4924 H   0  0  0  0  0  0  0  0  0  0  0  0  # atno 8009 bound_to 7997
  154.7728  140.0451  157.1053 H   0  0  0  0  0  0  0  0  0  0  0  0  # atno 8010 bound_to 7997
  140.7161  143.5531  150.9278 H   0  0  0  0  0  0  0  0  0  0  0  0  # atno 10167 bound_to 10162
  156.3950  130.7905  151.2110 H   0  0  0  0  0  0  0  0  0  0  0  0  # atno 10718 bound_to 10713
  153.0033  135.6274  154.2163 H   0  0  0  0  0  0  0  0  0  0  0  0  # atno 10763 bound_to 10752
  154.1906  135.2809  155.3025 H   0  0  0  0  0  0  0  0  0  0  0  0  # atno 10764 bound_to 10752
  154.5762  135.5661  153.7201 H   0  0  0  0  0  0  0  0  0  0  0  0  # atno 10765 bound_to 10752
  139.9090  134.8013  156.2071 H   0  0  0  0  0  0  0  0  0  0  0  0  # atno 11005 bound_to 11000
  145.1014  139.2820  143.5684 LP  0  0  0  0  0  0  0  0  0  0  0  0  # atno 17320 bound_to 7965
  146.3531  140.0582  142.8631 LP  0  0  0  0  0  0  0  0  0  0  0  0  # atno 17321 bound_to 7965
  139.9256  143.6554  152.3087 LP  0  0  0  0  0  0  0  0  0  0  0  0  # atno 17342 bound_to 10162
  139.6986  144.7638  151.1312 LP  0  0  0  0  0  0  0  0  0  0  0  0  # atno 17343 bound_to 10162
  157.7501  131.0304  150.4135 LP  0  0  0  0  0  0  0  0  0  0  0  0  # atno 17370 bound_to 10713
  156.4404  130.3990  149.6701 LP  0  0  0  0  0  0  0  0  0  0  0  0  # atno 17371 bound_to 10713
  141.0489  133.6899  156.1734 LP  0  0  0  0  0  0  0  0  0  0  0  0  # atno 17394 bound_to 11000
  140.6842  134.4735  157.5589 LP  0  0  0  0  0  0  0  0  0  0  0  0  # atno 17395 bound_to 11000

$$$$
