AV-unprocessed.smi:2298|AV-procd|sdf|9224|dock2
  -GOLD-   2272012443D 1   1.00000     0.00000
 Structure written by MMmdl.
 37 38  0  0  0  0  0  0  0  0  1 V2000
  138.8435  136.8882  154.2400 C   0  0  0  0  0  0  0  0  0  0  0  0
  140.2613  136.4663  153.9032 C   0  0  0  0  0  0  0  0  0  0  0  0
  140.4574  135.1374  153.7625 N   0  0  0  0  0  0  0  0  0  0  0  0
  141.7016  134.7073  153.4702 C   0  0  0  0  0  0  0  0  0  0  0  0
  142.8001  135.5710  153.3003 C   0  0  0  0  0  0  0  0  0  0  0  0
  142.5963  136.9660  153.4313 C   0  0  0  0  0  0  0  0  0  0  0  0
  143.6349  137.9309  153.2974 N   0  0  0  0  0  0  0  0  0  0  0  0
  144.9630  137.7720  153.4316 C   0  0  0  0  0  0  0  0  0  0  0  0
  145.5334  136.7152  153.7013 O   0  0  0  0  0  0  0  0  0  0  0  0
  145.6110  138.9265  153.2179 N   0  0  0  0  0  0  0  0  0  0  0  0
  147.0587  139.1049  153.2820 C   0  0  1  0  0  0  0  0  0  0  0  0
  147.3908  140.6024  153.4249 C   0  0  0  0  0  0  0  0  0  0  0  0
  148.9054  140.8316  153.5541 C   0  0  0  0  0  0  0  0  0  0  0  0
  149.4891  140.0263  154.7277 C   0  0  2  0  0  0  0  0  0  0  0  0
  150.8886  140.2061  154.7743 O   0  0  0  0  0  0  0  0  0  0  0  0
  149.1668  138.5287  154.5859 C   0  0  0  0  0  0  0  0  0  0  0  0
  147.6529  138.2975  154.4547 C   0  0  0  0  0  0  0  0  0  0  0  0
  141.2953  137.4205  153.7525 C   0  0  0  0  0  0  0  0  0  0  0  0
  140.9714  139.1106  153.9522 Cl  0  0  0  0  0  0  0  0  0  0  0  0
  147.5027  138.7500  152.3495 H   0  0  0  0  0  0  0  0  0  0  0  0
  149.0719  140.3988  155.6642 H   0  0  0  0  0  0  0  0  0  0  0  0
  138.4481  137.5412  153.4619 H   0  0  0  0  0  0  0  0  0  0  0  0
  138.8231  137.4272  155.1874 H   0  0  0  0  0  0  0  0  0  0  0  0
  138.1785  136.0279  154.3280 H   0  0  0  0  0  0  0  0  0  0  0  0
  141.8279  133.6390  153.3749 H   0  0  0  0  0  0  0  0  0  0  0  0
  143.7678  135.1451  153.0871 H   0  0  0  0  0  0  0  0  0  0  0  0
  143.3293  138.8466  153.0023 H   0  0  0  0  0  0  0  0  0  0  0  0
  145.0631  139.7452  152.9964 H   0  0  0  0  0  0  0  0  0  0  0  0
  147.0093  141.1536  152.5647 H   0  0  0  0  0  0  0  0  0  0  0  0
  146.8882  141.0117  154.3026 H   0  0  0  0  0  0  0  0  0  0  0  0
  149.3949  140.5405  152.6235 H   0  0  0  0  0  0  0  0  0  0  0  0
  149.1074  141.8946  153.6911 H   0  0  0  0  0  0  0  0  0  0  0  0
  151.1478  140.3176  155.6762 H   0  0  0  0  0  0  0  0  0  0  0  0
  149.6705  138.1208  153.7082 H   0  0  0  0  0  0  0  0  0  0  0  0
  149.5500  137.9792  155.4465 H   0  0  0  0  0  0  0  0  0  0  0  0
  147.1621  138.5831  155.3864 H   0  0  0  0  0  0  0  0  0  0  0  0
  147.4581  137.2333  154.3174 H   0  0  0  0  0  0  0  0  0  0  0  0
  1  2  1  0  0  0  0
  1 22  1  0  0  0  0
  1 23  1  0  0  0  0
  1 24  1  0  0  0  0
  2 18  1  0  0  0  0
  2  3  2  0  0  0  0
  3  4  1  0  0  0  0
  4  5  2  0  0  0  0
  4 25  1  0  0  0  0
  5  6  1  0  0  0  0
  5 26  1  0  0  0  0
  6  7  1  0  0  0  0
  6 18  2  0  0  0  0
  7  8  1  0  0  0  0
  7 27  1  0  0  0  0
  8  9  2  0  0  0  0
  8 10  1  0  0  0  0
 10 11  1  0  0  0  0
 10 28  1  0  0  0  0
 11 20  1  0  0  0  0
 11 17  1  0  0  0  0
 11 12  1  0  0  0  0
 12 13  1  0  0  0  0
 12 29  1  0  0  0  0
 12 30  1  0  0  0  0
 13 14  1  0  0  0  0
 13 31  1  0  0  0  0
 13 32  1  0  0  0  0
 14 21  1  0  0  0  0
 14 15  1  0  0  0  0
 14 16  1  0  0  0  0
 15 33  1  0  0  0  0
 16 17  1  0  0  0  0
 16 34  1  0  0  0  0
 16 35  1  0  0  0  0
 17 36  1  0  0  0  0
 17 37  1  0  0  0  0
 18 19  1  0  0  0  0
M  END
> <s_m_source_file>
AV-unprocessed.smi

> <i_m_source_file_index>
2298

> <i_lp_mmshare_version>
43012

> <i_f3d_flags>
0

> <s_epik_input>
W0NIM11jMW5bY0hdW2NIXWMoYzFDbClbTkhdQyg9TylbTkhdW0NASF0yW0NIMl1bQ0gyXVtDQEhdKFtPSF0pW0NIMl1bQ0gyXTI=

> <s_epik_cmdline>
J2VwaWtfcHl0aG9uJywgJy1waCcsICc3LjAnLCAnLXRuJywgJzgnLCAnLW1hJywgJzIwMCcsICctbWV0YWxfYmluZGluZycsICctaW1hZScsICc8aW5maWxlLm1hZT4nLCAnLW9tYWUnLCAnPG91dGZpbGUubWFlPic=

> <r_epik_Ionization_Penalty>
0.00999805

> <r_epik_Ionization_Penalty_Charging>
0

> <r_epik_Ionization_Penalty_Neutral>
0.00999805

> <r_epik_State_Penalty>
0.00759022

> <r_epik_Charging_Adjusted_Penalty>
0.00759022

> <i_epik_Tot_Q>
0

> <i_epik_Tot_abs_Q>
0

> <r_epik_Metal_State_Penalty>
0.00746447

> <b_epik_Metal_Only>
0

> <s_lp_Force_Field>
OPLS_2005

> <r_lp_Energy>
13.5765

> <b_lp_Chiralities_Consistent>
1

> <s_lp_Variant>
AV-unprocessed.smi:2298-1

> <Gold.Version>
5.8.1

> <Gold.Id.Protein>
6NUR|6NUR_protein|mol2

> <Gold.PLP.Fitness>
45.4166

> <Gold.PLP.PLP>
-31.9753

> <Gold.PLP.part.hbond>
-4.7938

> <Gold.PLP.part.metal>
0.0000

> <Gold.PLP.part.buried>
-1.6813

> <Gold.PLP.part.nonpolar>
-26.2195

> <Gold.PLP.part.repulsive>
0.3012

> <Gold.PLP.ligand.clash>
0.0000

> <Gold.PLP.ligand.torsion>
0.3780

> <Gold.PLP.Chemscore.Hbond>
3.7313

> <Gold.PLP.Chemscore.CHOScore>
1.0000

> <Gold.PLP.Chemscore.Metal>
0.0000

> <Gold.Chemscore.Hbonds>
donor molecule, donor type, donor heavy atom, donor atom, acceptor molecule, acceptor atom, score
      L1  H     7    27       P1 10175  1.00
      L1  H    10    28       P1 10175  1.00
      P1  H  7989  7998       L1    15  1.00
      P1  H 11000 11005       L1     3  0.76
      L1  C     4    25       P1 10957  1.00

> <Gold.PLP.Chemscore.Internal.Correction>
0.0036

> <Gold.Rescore>
     Score         DG    S(hbond)    S(metal)    S(lipo)     H(rot)  DE(clash)    DE(int)     intcor
     16.48     -21.16       3.05        0.00      78.13       1.42       1.80       2.87       ----

> <Gold.Chemscore.Fitness>
16.4835

> <Gold.Chemscore.DG>
-21.1598

> <Gold.Chemscore.ZeroCoef>
-5.4800

> <Gold.Chemscore.Hbond>
3.0459

> <Gold.Chemscore.Metal>
0.0000

> <Gold.Chemscore.Lipo>
78.1325

> <Gold.Chemscore.Internal_Hbond>
0.0000

> <Gold.Chemscore.DEClash>
1.8034

> <Gold.Chemscore.DEInternal>
2.8729

> <Gold.Chemscore.Rot>
1.4199

> <Gold.Chemscore.Internal.Correction>
   9.000000E+99

> <Gold.Chemscore.Hbonds>
donor molecule, donor type, donor heavy atom, donor atom, acceptor molecule, acceptor atom, score
      L1  H     7    27       P1 10175  0.97
      L1  H    10    28       P1 10175  0.96
      P1  H  7989  7998       L1    15  0.96
      P1  H 11000 11005       L1     3  0.09

> <Gold.Chemscore.Hbond.Weighted>
-10.1732

> <Gold.Chemscore.Metal.Weighted>
-0.0000

> <Gold.Chemscore.Lipo.Weighted>
-9.1415

> <Gold.Chemscore.Internal_Hbond.Weighted>
0.0000

> <Gold.Chemscore.DEClash.Weighted>
1.8034

> <Gold.Chemscore.DEInternal.Weighted>
2.8729

> <Gold.Chemscore.Rot.Weighted>
3.6349

> <Gold.Chemscore.Internal.Correction.Weighted>
   9.000000E+99

> <Gold.Protein.RotatedTorsions>
[ 6907 6896 6895 6894 ] final -122.92 input  -60.11 | X-H torsion
[ 7974 7965 7964 7962 ] final   -1.48 input  175.53 | X-H torsion
[ 8008 7997 7996 7995 ] final  132.16 input   59.86 | X-H torsion
[ 10167 10162 10161 10158 ] final -122.88 input  -65.29 | X-H torsion
[ 10718 10713 10712 10709 ] final  108.51 input   66.30 | X-H torsion
[ 10763 10752 10751 10750 ] final  -55.17 input  -60.55 | X-H torsion
[ 11005 11000 10999 10996 ] final   40.59 input  -57.11 | X-H torsion

> <Gold.Protein.ActiveResidues>
 VAL166  LYS551  ARG553  GLY616  TRP617  ASP618  TYR619  PRO620  LYS621  CYS622 
 ASP623  PHE694  ASN695  SER759  ASP760  ASP761  ALA762  ILE779  LEU786  VAL792 
 PHE793  MET794  SER795  GLU796  ALA797  LYS798  CYS799  TRP800  GLU811  SER814 

> <Gold.Protein.RotatedAtoms>
  150.8621  133.7628  159.2988 H   0  0  0  0  0  0  0  0  0  0  0  0  # atno 6907 bound_to 6896
  151.5267  135.1066  159.9902 H   0  0  0  0  0  0  0  0  0  0  0  0  # atno 6908 bound_to 6896
  152.4634  133.7827  159.6915 H   0  0  0  0  0  0  0  0  0  0  0  0  # atno 6909 bound_to 6896
  146.2416  140.1426  142.8335 H   0  0  0  0  0  0  0  0  0  0  0  0  # atno 7974 bound_to 7965
  156.2979  140.2553  156.3043 H   0  0  0  0  0  0  0  0  0  0  0  0  # atno 8008 bound_to 7997
  154.9387  140.0396  157.2104 H   0  0  0  0  0  0  0  0  0  0  0  0  # atno 8009 bound_to 7997
  154.8147  140.2850  155.5833 H   0  0  0  0  0  0  0  0  0  0  0  0  # atno 8010 bound_to 7997
  140.0095  143.5456  152.2269 H   0  0  0  0  0  0  0  0  0  0  0  0  # atno 10167 bound_to 10162
  157.6583  131.0895  150.6316 H   0  0  0  0  0  0  0  0  0  0  0  0  # atno 10718 bound_to 10713
  154.1864  135.6434  153.5048 H   0  0  0  0  0  0  0  0  0  0  0  0  # atno 10763 bound_to 10752
  153.0046  135.5418  154.6460 H   0  0  0  0  0  0  0  0  0  0  0  0  # atno 10764 bound_to 10752
  154.5838  135.2927  155.0678 H   0  0  0  0  0  0  0  0  0  0  0  0  # atno 10765 bound_to 10752
  140.1916  134.3980  155.8143 H   0  0  0  0  0  0  0  0  0  0  0  0  # atno 11005 bound_to 11000
  145.0234  140.8812  143.5153 LP  0  0  0  0  0  0  0  0  0  0  0  0  # atno 17320 bound_to 7965
  145.1479  139.2532  143.5456 LP  0  0  0  0  0  0  0  0  0  0  0  0  # atno 17321 bound_to 7965
  139.6215  144.7630  151.2731 LP  0  0  0  0  0  0  0  0  0  0  0  0  # atno 17342 bound_to 10162
  140.7387  143.6641  150.8139 LP  0  0  0  0  0  0  0  0  0  0  0  0  # atno 17343 bound_to 10162
  156.6621  130.4515  149.5684 LP  0  0  0  0  0  0  0  0  0  0  0  0  # atno 17370 bound_to 10713
  156.2060  130.6649  151.1218 LP  0  0  0  0  0  0  0  0  0  0  0  0  # atno 17371 bound_to 10713
  141.2226  133.7049  156.8105 LP  0  0  0  0  0  0  0  0  0  0  0  0  # atno 17394 bound_to 11000
  140.2154  134.8797  157.3319 LP  0  0  0  0  0  0  0  0  0  0  0  0  # atno 17395 bound_to 11000

$$$$
