AV-unprocessed.smi:445|AV-procd|sdf|2592|dock2
  -GOLD-   2262022583D 1   1.00000     0.00000
 Structure written by MMmdl.
 44 45  0  0  0  0  0  0  0  0  3 V2000
  153.4009  141.5694  159.5165 C   0  0  0  0  0  0  0  0  0  0  0  0
  152.4102  142.7255  159.7462 C   0  0  1  0  0  0  0  0  0  0  0  0
  152.7649  143.4995  161.0319 C   0  0  0  0  0  0  0  0  0  0  0  0
  151.7778  144.6460  161.2990 C   0  0  0  0  0  0  0  0  0  0  0  0
  151.7060  145.6018  160.1004 C   0  0  0  0  0  0  0  0  0  0  0  0
  151.3437  144.8465  158.8135 C   0  0  0  0  0  0  0  0  0  0  0  0
  152.3273  143.6896  158.5364 C   0  0  2  0  0  0  0  0  0  0  0  0
  151.9158  142.9584  157.3420 N   0  0  0  0  0  0  0  0  0  0  0  0
  150.9084  142.0723  157.2661 C   0  0  0  0  0  0  0  0  0  0  0  0
  150.2186  141.7630  158.2367 O   0  0  0  0  0  0  0  0  0  0  0  0
  150.6057  141.4317  155.9001 C   0  0  0  0  0  0  0  0  0  0  0  0
  150.7176  139.9598  155.8655 N   0  0  0  0  0  0  0  0  0  0  0  0
  151.9334  139.4189  156.3198 C   0  0  0  0  0  0  0  0  0  0  0  0
  152.1644  138.0948  156.3467 C   0  0  0  0  0  0  0  0  0  0  0  0
  153.4218  137.5634  156.8275 N   0  3  0  0  0  0  0  0  0  0  0  0
  154.2449  138.3375  157.3054 O   0  0  0  0  0  0  0  0  0  0  0  0
  153.6294  136.3567  156.7435 O   0  5  0  0  0  0  0  0  0  0  0  0
  151.1106  137.2148  155.8859 C   0  0  0  0  0  0  0  0  0  0  0  0
  149.9258  137.7136  155.4492 C   0  0  0  0  0  0  0  0  0  0  0  0
  148.8188  136.8513  154.9780 C   0  0  0  0  0  0  0  0  0  0  0  0
  149.1809  135.5937  154.6941 N   0  0  0  0  0  0  0  0  0  0  0  0
  147.6410  137.1760  154.8285 O   0  0  0  0  0  0  0  0  0  0  0  0
  149.6771  139.1810  155.4319 C   0  0  0  0  0  0  0  0  0  0  0  0
  148.6249  139.7130  155.0687 O   0  0  0  0  0  0  0  0  0  0  0  0
  154.4088  141.9431  159.3330 H   0  0  0  0  0  0  0  0  0  0  0  0
  153.1137  140.9531  158.6640 H   0  0  0  0  0  0  0  0  0  0  0  0
  153.4438  140.9133  160.3863 H   0  0  0  0  0  0  0  0  0  0  0  0
  151.4234  142.2827  159.8921 H   0  0  0  0  0  0  0  0  0  0  0  0
  152.7710  142.8214  161.8858 H   0  0  0  0  0  0  0  0  0  0  0  0
  153.7756  143.9025  160.9521 H   0  0  0  0  0  0  0  0  0  0  0  0
  150.7871  144.2375  161.5024 H   0  0  0  0  0  0  0  0  0  0  0  0
  152.0763  145.1934  162.1934 H   0  0  0  0  0  0  0  0  0  0  0  0
  150.9711  146.3841  160.2920 H   0  0  0  0  0  0  0  0  0  0  0  0
  152.6663  146.1032  159.9731 H   0  0  0  0  0  0  0  0  0  0  0  0
  150.3285  144.4553  158.8974 H   0  0  0  0  0  0  0  0  0  0  0  0
  151.3355  145.5448  157.9757 H   0  0  0  0  0  0  0  0  0  0  0  0
  153.3212  144.1086  158.3661 H   0  0  0  0  0  0  0  0  0  0  0  0
  152.4343  143.1517  156.4977 H   0  0  0  0  0  0  0  0  0  0  0  0
  149.6113  141.7509  155.5835 H   0  0  0  0  0  0  0  0  0  0  0  0
  151.2805  141.8737  155.1654 H   0  0  0  0  0  0  0  0  0  0  0  0
  152.6540  140.1536  156.6501 H   0  0  0  0  0  0  0  0  0  0  0  0
  151.2954  136.1511  155.9056 H   0  0  0  0  0  0  0  0  0  0  0  0
  148.4951  134.9289  154.3678 H   0  0  0  0  0  0  0  0  0  0  0  0
  150.1442  135.3139  154.8111 H   0  0  0  0  0  0  0  0  0  0  0  0
  1  2  1  0  0  0  0
  1 25  1  0  0  0  0
  1 26  1  0  0  0  0
  1 27  1  0  0  0  0
  2  7  1  0  0  0  0
  2  3  1  0  0  0  0
  2 28  1  0  0  0  0
  3  4  1  0  0  0  0
  3 29  1  0  0  0  0
  3 30  1  0  0  0  0
  4  5  1  0  0  0  0
  4 31  1  0  0  0  0
  4 32  1  0  0  0  0
  5  6  1  0  0  0  0
  5 33  1  0  0  0  0
  5 34  1  0  0  0  0
  6  7  1  0  0  0  0
  6 35  1  0  0  0  0
  6 36  1  0  0  0  0
  7  8  1  0  0  0  0
  7 37  1  0  0  0  0
  8  9  1  0  0  0  0
  8 38  1  0  0  0  0
  9 10  2  0  0  0  0
  9 11  1  0  0  0  0
 11 12  1  0  0  0  0
 11 39  1  0  0  0  0
 11 40  1  0  0  0  0
 12 23  1  0  0  0  0
 12 13  1  0  0  0  0
 13 14  2  0  0  0  0
 13 41  1  0  0  0  0
 14 15  1  0  0  0  0
 14 18  1  0  0  0  0
 15 16  2  0  0  0  0
 15 17  1  0  0  0  0
 18 19  2  0  0  0  0
 18 42  1  0  0  0  0
 19 20  1  0  0  0  0
 19 23  1  0  0  0  0
 20 21  1  0  0  0  0
 20 22  2  0  0  0  0
 21 43  1  0  0  0  0
 21 44  1  0  0  0  0
 23 24  2  0  0  0  0
M  CHG  1  15   1
M  CHG  1  17  -1
M  END
> <s_m_source_file>
AV-unprocessed.smi

> <i_m_source_file_index>
445

> <i_lp_mmshare_version>
43012

> <i_f3d_flags>
0

> <s_epik_input>
W0NIM11bQ0BASF0xW0NIMl1bQ0gyXVtDSDJdW0NIMl1bQ0BIXTFbTkhdQyg9TylbQ0gyXW4yW2NIXWMoW04rXSg9TylbTy1dKVtjSF1jKGMyPU8pQyg9TylbTkgyXQ==

> <s_epik_cmdline>
J2VwaWtfcHl0aG9uJywgJy1waCcsICc3LjAnLCAnLXRuJywgJzgnLCAnLW1hJywgJzIwMCcsICctbWV0YWxfYmluZGluZycsICctaW1hZScsICc8aW5maWxlLm1hZT4nLCAnLW9tYWUnLCAnPG91dGZpbGUubWFlPic=

> <r_lp_tautomer_probability>
1

> <r_epik_Ionization_Penalty>
2.81321e-06

> <r_epik_Ionization_Penalty_Charging>
2.43777e-12

> <r_epik_Ionization_Penalty_Neutral>
2.81321e-06

> <r_epik_State_Penalty>
-0

> <r_epik_Charging_Adjusted_Penalty>
2.43777e-12

> <i_epik_Tot_Q>
0

> <i_epik_Tot_abs_Q>
2

> <r_epik_Metal_State_Penalty>
-0

> <b_epik_Metal_Only>
0

> <s_lp_Force_Field>
OPLS_2005

> <r_lp_Energy>
28.9067

> <b_lp_Chiralities_Consistent>
1

> <s_lp_Variant>
AV-unprocessed.smi:445-4

> <Gold.Version>
5.8.1

> <Gold.Id.Protein>
6NUR|6NUR_protein|mol2

> <Gold.PLP.Fitness>
44.3439

> <Gold.PLP.PLP>
-40.0700

> <Gold.PLP.part.hbond>
-3.0000

> <Gold.PLP.part.metal>
0.0000

> <Gold.PLP.part.buried>
-1.0770

> <Gold.PLP.part.nonpolar>
-36.6930

> <Gold.PLP.part.repulsive>
0.2622

> <Gold.PLP.ligand.clash>
0.0000

> <Gold.PLP.ligand.torsion>
0.3532

> <Gold.PLP.Chemscore.Hbond>
1.6400

> <Gold.PLP.Chemscore.CHOScore>
0.0000

> <Gold.PLP.Chemscore.Metal>
0.0000

> <Gold.Chemscore.Hbonds>
donor molecule, donor type, donor heavy atom, donor atom, acceptor molecule, acceptor atom, score
      P1  H  7997  8010       L1    16  0.64
      P1  H 10752 10765       L1    17  1.00

> <Gold.PLP.Chemscore.Internal.Correction>
0.0603

> <Gold.Rescore>
     Score         DG    S(hbond)    S(metal)    S(lipo)     H(rot)  DE(clash)    DE(int)     intcor
     15.04     -19.72       1.78        0.00     108.38       1.71       1.57       3.11       ----

> <Gold.Chemscore.Fitness>
15.0422

> <Gold.Chemscore.DG>
-19.7166

> <Gold.Chemscore.ZeroCoef>
-5.4800

> <Gold.Chemscore.Hbond>
1.7785

> <Gold.Chemscore.Metal>
0.0000

> <Gold.Chemscore.Lipo>
108.3759

> <Gold.Chemscore.Internal_Hbond>
0.0000

> <Gold.Chemscore.DEClash>
1.5692

> <Gold.Chemscore.DEInternal>
3.1051

> <Gold.Chemscore.Rot>
1.7123

> <Gold.Chemscore.Internal.Correction>
   9.000000E+99

> <Gold.Chemscore.Hbonds>
donor molecule, donor type, donor heavy atom, donor atom, acceptor molecule, acceptor atom, score
      P1  H  7997  8010       L1    16  0.64
      P1  H 10752 10765       L1    17  0.97

> <Gold.Chemscore.Hbond.Weighted>
-5.9401

> <Gold.Chemscore.Metal.Weighted>
-0.0000

> <Gold.Chemscore.Lipo.Weighted>
-12.6800

> <Gold.Chemscore.Internal_Hbond.Weighted>
0.0000

> <Gold.Chemscore.DEClash.Weighted>
1.5692

> <Gold.Chemscore.DEInternal.Weighted>
3.1051

> <Gold.Chemscore.Rot.Weighted>
4.3835

> <Gold.Chemscore.Internal.Correction.Weighted>
   9.000000E+99

> <Gold.Protein.RotatedTorsions>
[ 6907 6896 6895 6894 ] final  -26.84 input  -60.11 | X-H torsion
[ 7974 7965 7964 7962 ] final  151.81 input  175.53 | X-H torsion
[ 8008 7997 7996 7995 ] final   17.16 input   59.86 | X-H torsion
[ 10167 10162 10161 10158 ] final  164.71 input  -65.29 | X-H torsion
[ 10718 10713 10712 10709 ] final   20.73 input   66.30 | X-H torsion
[ 10763 10752 10751 10750 ] final -107.13 input  -60.55 | X-H torsion
[ 11005 11000 10999 10996 ] final  -45.43 input  -57.11 | X-H torsion

> <Gold.Protein.ActiveResidues>
 VAL166  LYS551  ARG553  GLY616  TRP617  ASP618  TYR619  PRO620  LYS621  CYS622 
 ASP623  PHE694  ASN695  SER759  ASP760  ASP761  ALA762  ILE779  LEU786  VAL792 
 PHE793  MET794  SER795  GLU796  ALA797  LYS798  CYS799  TRP800  GLU811  SER814 

> <Gold.Protein.RotatedAtoms>
  151.1553  135.0247  159.8686 H   0  0  0  0  0  0  0  0  0  0  0  0  # atno 6907 bound_to 6896
  152.5452  134.1341  159.8461 H   0  0  0  0  0  0  0  0  0  0  0  0  # atno 6908 bound_to 6896
  151.1431  133.4912  159.2629 H   0  0  0  0  0  0  0  0  0  0  0  0  # atno 6909 bound_to 6896
  144.8266  139.6586  143.6077 H   0  0  0  0  0  0  0  0  0  0  0  0  # atno 7974 bound_to 7965
  154.8874  140.2982  155.5390 H   0  0  0  0  0  0  0  0  0  0  0  0  # atno 8008 bound_to 7997
  156.3021  140.2431  156.3819 H   0  0  0  0  0  0  0  0  0  0  0  0  # atno 8009 bound_to 7997
  154.8654  140.0403  157.1680 H   0  0  0  0  0  0  0  0  0  0  0  0  # atno 8010 bound_to 7997
  139.4893  144.4207  151.9189 H   0  0  0  0  0  0  0  0  0  0  0  0  # atno 10167 bound_to 10162
  157.1285  130.6580  149.5944 H   0  0  0  0  0  0  0  0  0  0  0  0  # atno 10718 bound_to 10713
  154.8056  135.4686  154.0384 H   0  0  0  0  0  0  0  0  0  0  0  0  # atno 10763 bound_to 10752
  153.1855  135.6847  153.8427 H   0  0  0  0  0  0  0  0  0  0  0  0  # atno 10764 bound_to 10752
  153.7963  135.3236  155.3362 H   0  0  0  0  0  0  0  0  0  0  0  0  # atno 10765 bound_to 10752
  141.0515  133.6741  156.3011 H   0  0  0  0  0  0  0  0  0  0  0  0  # atno 11005 bound_to 11000
  146.2571  139.6326  142.9387 LP  0  0  0  0  0  0  0  0  0  0  0  0  # atno 17320 bound_to 7965
  145.4987  141.0438  143.2553 LP  0  0  0  0  0  0  0  0  0  0  0  0  # atno 17321 bound_to 7965
  140.3651  144.2924  150.5927 LP  0  0  0  0  0  0  0  0  0  0  0  0  # atno 17342 bound_to 10162
  140.5368  143.2231  151.8149 LP  0  0  0  0  0  0  0  0  0  0  0  0  # atno 17343 bound_to 10162
  155.9813  130.4819  150.6820 LP  0  0  0  0  0  0  0  0  0  0  0  0  # atno 17370 bound_to 10713
  157.4413  131.0861  151.0940 LP  0  0  0  0  0  0  0  0  0  0  0  0  # atno 17371 bound_to 10713
  140.6047  134.5519  157.5523 LP  0  0  0  0  0  0  0  0  0  0  0  0  # atno 17394 bound_to 11000
  139.9354  134.7885  156.0817 LP  0  0  0  0  0  0  0  0  0  0  0  0  # atno 17395 bound_to 11000

$$$$
