AV-unprocessed.smi:1417|AV-procd|sdf|5767|dock1
  -GOLD-   22720 5403D 1   1.00000     0.00000
 Structure written by MMmdl.
 40 41  0  0  0  0  0  0  0  0  2 V2000
  154.0156  141.8898  161.7805 C   0  0  0  0  0  0  0  0  0  0  0  0
  153.5060  141.2772  160.5211 C   0  0  0  0  0  0  0  0  0  0  0  0
  152.3118  141.3611  159.8625 C   0  0  0  0  0  0  0  0  0  0  0  0
  152.5142  140.5235  158.7271 C   0  0  0  0  0  0  0  0  0  0  0  0
  151.5720  140.2532  157.7015 N   0  0  0  0  0  0  0  0  0  0  0  0
  151.7918  139.7434  156.4781 C   0  0  0  0  0  0  0  0  0  0  0  0
  152.8881  139.4095  156.0296 O   0  0  0  0  0  0  0  0  0  0  0  0
  150.6486  139.6400  155.7844 N   0  0  0  0  0  0  0  0  0  0  0  0
  150.5273  139.1157  154.4242 C   0  0  2  0  0  0  0  0  0  0  0  0
  149.0550  138.8949  154.0226 C   0  0  0  0  0  0  0  0  0  0  0  0
  148.4223  137.7146  154.7802 C   0  0  0  0  0  0  0  0  0  0  0  0
  149.2104  136.4688  154.5829 N   0  3  2  0  0  0  0  0  0  0  0  0
  148.5645  135.2701  155.1780 C   0  0  0  0  0  0  0  0  0  0  0  0
  149.0838  133.9539  154.5898 C   0  0  0  0  0  0  0  0  0  0  0  0
  148.9328  133.7804  153.2748 N   0  0  0  0  0  0  0  0  0  0  0  0
  149.5987  133.0990  155.3083 O   0  0  0  0  0  0  0  0  0  0  0  0
  150.6170  136.6358  155.0296 C   0  0  0  0  0  0  0  0  0  0  0  0
  151.3050  137.7954  154.2857 C   0  0  0  0  0  0  0  0  0  0  0  0
  153.7172  139.9805  158.7031 N   0  0  0  0  0  0  0  0  0  0  0  0
  154.3611  140.4597  159.8500 O   0  0  0  0  0  0  0  0  0  0  0  0
  153.2244  142.4334  162.2971 H   0  0  0  0  0  0  0  0  0  0  0  0
  154.8246  142.5893  161.5694 H   0  0  0  0  0  0  0  0  0  0  0  0
  154.3966  141.1244  162.4566 H   0  0  0  0  0  0  0  0  0  0  0  0
  151.4466  141.9340  160.1601 H   0  0  0  0  0  0  0  0  0  0  0  0
  150.6140  140.4721  157.9316 H   0  0  0  0  0  0  0  0  0  0  0  0
  149.7950  139.9323  156.2373 H   0  0  0  0  0  0  0  0  0  0  0  0
  150.9731  139.8436  153.7435 H   0  0  0  0  0  0  0  0  0  0  0  0
  148.4702  139.8008  154.1859 H   0  0  0  0  0  0  0  0  0  0  0  0
  149.0038  138.6957  152.9513 H   0  0  0  0  0  0  0  0  0  0  0  0
  148.3554  137.9416  155.8452 H   0  0  0  0  0  0  0  0  0  0  0  0
  147.4009  137.5731  154.4266 H   0  0  0  0  0  0  0  0  0  0  0  0
  148.7721  135.2348  156.2482 H   0  0  0  0  0  0  0  0  0  0  0  0
  147.4804  135.3371  155.0712 H   0  0  0  0  0  0  0  0  0  0  0  0
  149.2599  132.9339  152.8315 H   0  0  0  0  0  0  0  0  0  0  0  0
  148.4926  134.5028  152.7224 H   0  0  0  0  0  0  0  0  0  0  0  0
  150.6404  136.8058  156.1071 H   0  0  0  0  0  0  0  0  0  0  0  0
  151.1734  135.7166  154.8434 H   0  0  0  0  0  0  0  0  0  0  0  0
  151.3860  137.5386  153.2284 H   0  0  0  0  0  0  0  0  0  0  0  0
  152.3275  137.9180  154.6454 H   0  0  0  0  0  0  0  0  0  0  0  0
  149.2474  136.2996  153.5873 H   0  0  0  0  0  0  0  0  0  0  0  0
  1  2  1  0  0  0  0
  1 21  1  0  0  0  0
  1 22  1  0  0  0  0
  1 23  1  0  0  0  0
  2 20  1  0  0  0  0
  2  3  2  0  0  0  0
  3  4  1  0  0  0  0
  3 24  1  0  0  0  0
  4  5  1  0  0  0  0
  4 19  2  0  0  0  0
  5  6  1  0  0  0  0
  5 25  1  0  0  0  0
  6  7  2  0  0  0  0
  6  8  1  0  0  0  0
  8  9  1  0  0  0  0
  8 26  1  0  0  0  0
  9 18  1  0  0  0  0
  9 10  1  0  0  0  0
  9 27  1  0  0  0  0
 10 11  1  0  0  0  0
 10 28  1  0  0  0  0
 10 29  1  0  0  0  0
 11 12  1  0  0  0  0
 11 30  1  0  0  0  0
 11 31  1  0  0  0  0
 12 13  1  0  0  0  0
 12 17  1  0  0  0  0
 12 40  1  0  0  0  0
 13 14  1  0  0  0  0
 13 32  1  0  0  0  0
 13 33  1  0  0  0  0
 14 15  1  0  0  0  0
 14 16  2  0  0  0  0
 15 34  1  0  0  0  0
 15 35  1  0  0  0  0
 17 18  1  0  0  0  0
 17 36  1  0  0  0  0
 17 37  1  0  0  0  0
 18 38  1  0  0  0  0
 18 39  1  0  0  0  0
 19 20  1  0  0  0  0
M  CHG  1  12   1
M  END
> <s_m_source_file>
AV-unprocessed.smi

> <i_m_source_file_index>
1417

> <i_lp_mmshare_version>
43012

> <i_f3d_flags>
0

> <s_epik_input>
W0NIM11jMVtjSF1jKG5vMSlbTkhdQyg9TylbTkhdW0NIXTJbQ0gyXVtDSDJdTihbQ0gyXVtDSDJdMilbQ0gyXUMoPU8pW05IMl0=

> <s_epik_cmdline>
J2VwaWtfcHl0aG9uJywgJy1waCcsICc3LjAnLCAnLXRuJywgJzgnLCAnLW1hJywgJzIwMCcsICctbWV0YWxfYmluZGluZycsICctaW1hZScsICc8aW5maWxlLm1hZT4nLCAnLW9tYWUnLCAnPG91dGZpbGUubWFlPic=

> <r_epik_Ionization_Penalty>
0.867698

> <r_epik_Ionization_Penalty_Charging>
0.867623

> <r_epik_Ionization_Penalty_Neutral>
7.46743e-05

> <r_epik_State_Penalty>
0.904669

> <r_epik_Charging_Adjusted_Penalty>
1.77229

> <i_epik_Tot_Q>
1

> <i_epik_Tot_abs_Q>
1

> <r_epik_Metal_State_Penalty>
0.930696

> <b_epik_Metal_Only>
0

> <s_lp_Force_Field>
OPLS_2005

> <r_lp_Energy>
12.5471

> <b_lp_Chiralities_Consistent>
1

> <s_lp_Variant>
AV-unprocessed.smi:1417-3

> <Gold.Version>
5.8.1

> <Gold.Id.Protein>
6NUR|6NUR_protein|mol2

> <Gold.PLP.Fitness>
42.2011

> <Gold.PLP.PLP>
-30.4628

> <Gold.PLP.part.hbond>
-4.0000

> <Gold.PLP.part.metal>
0.0000

> <Gold.PLP.part.buried>
-1.7280

> <Gold.PLP.part.nonpolar>
-24.1288

> <Gold.PLP.part.repulsive>
0.1568

> <Gold.PLP.ligand.clash>
0.0000

> <Gold.PLP.ligand.torsion>
0.3198

> <Gold.PLP.Chemscore.Hbond>
4.1058

> <Gold.PLP.Chemscore.CHOScore>
0.0000

> <Gold.PLP.Chemscore.Metal>
0.0000

> <Gold.Chemscore.Hbonds>
donor molecule, donor type, donor heavy atom, donor atom, acceptor molecule, acceptor atom, score
      L1  H    12    40       P1  7948  2.00
      L1  H    15    35       P1  7948  0.65
      P1  H  7997  8008       L1    19  0.67
      P1  H  7997  8009       L1     7  0.67

> <Gold.PLP.Chemscore.Internal.Correction>
0.0604

> <Gold.Rescore>
     Score         DG    S(hbond)    S(metal)    S(lipo)     H(rot)  DE(clash)    DE(int)     intcor
     11.71     -15.69       2.53        0.00      59.73       2.05       1.08       2.90       ----

> <Gold.Chemscore.Fitness>
11.7052

> <Gold.Chemscore.DG>
-15.6861

> <Gold.Chemscore.ZeroCoef>
-5.4800

> <Gold.Chemscore.Hbond>
2.5314

> <Gold.Chemscore.Metal>
0.0000

> <Gold.Chemscore.Lipo>
59.7298

> <Gold.Chemscore.Internal_Hbond>
0.0000

> <Gold.Chemscore.DEClash>
1.0796

> <Gold.Chemscore.DEInternal>
2.9013

> <Gold.Chemscore.Rot>
2.0457

> <Gold.Chemscore.Internal.Correction>
   9.000000E+99

> <Gold.Chemscore.Hbonds>
donor molecule, donor type, donor heavy atom, donor atom, acceptor molecule, acceptor atom, score
      L1  H    12    40       P1  7948  0.91
      L1  H    15    35       P1  7948  0.11
      P1  H  7997  8008       L1    19  0.23
      P1  H  7997  8009       L1     7  0.68

> <Gold.Chemscore.Hbond.Weighted>
-8.4548

> <Gold.Chemscore.Metal.Weighted>
-0.0000

> <Gold.Chemscore.Lipo.Weighted>
-6.9884

> <Gold.Chemscore.Internal_Hbond.Weighted>
0.0000

> <Gold.Chemscore.DEClash.Weighted>
1.0796

> <Gold.Chemscore.DEInternal.Weighted>
2.9013

> <Gold.Chemscore.Rot.Weighted>
5.2371

> <Gold.Chemscore.Internal.Correction.Weighted>
   9.000000E+99

> <Gold.Protein.RotatedTorsions>
[ 6907 6896 6895 6894 ] final  -73.00 input  -60.11 | X-H torsion
[ 7974 7965 7964 7962 ] final -112.77 input  175.53 | X-H torsion
[ 8008 7997 7996 7995 ] final -125.79 input   59.86 | X-H torsion
[ 10167 10162 10161 10158 ] final  157.80 input  -65.29 | X-H torsion
[ 10718 10713 10712 10709 ] final  -26.86 input   66.30 | X-H torsion
[ 10763 10752 10751 10750 ] final  -41.37 input  -60.55 | X-H torsion
[ 11005 11000 10999 10996 ] final -133.11 input  -57.11 | X-H torsion

> <Gold.Protein.ActiveResidues>
 VAL166  LYS551  ARG553  GLY616  TRP617  ASP618  TYR619  PRO620  LYS621  CYS622 
 ASP623  PHE694  ASN695  SER759  ASP760  ASP761  ALA762  ILE779  LEU786  VAL792 
 PHE793  MET794  SER795  GLU796  ALA797  LYS798  CYS799  TRP800  GLU811  SER814 

> <Gold.Protein.RotatedAtoms>
  150.7147  134.5081  159.5593 H   0  0  0  0  0  0  0  0  0  0  0  0  # atno 6907 bound_to 6896
  152.2664  134.7977  160.0431 H   0  0  0  0  0  0  0  0  0  0  0  0  # atno 6908 bound_to 6896
  151.8673  133.3433  159.3760 H   0  0  0  0  0  0  0  0  0  0  0  0  # atno 6909 bound_to 6896
  145.1400  140.8773  143.3707 H   0  0  0  0  0  0  0  0  0  0  0  0  # atno 7974 bound_to 7965
  155.2190  140.0421  157.2945 H   0  0  0  0  0  0  0  0  0  0  0  0  # atno 8008 bound_to 7997
  154.5962  140.2440  155.7825 H   0  0  0  0  0  0  0  0  0  0  0  0  # atno 8009 bound_to 7997
  156.2291  140.2944  156.0152 H   0  0  0  0  0  0  0  0  0  0  0  0  # atno 8010 bound_to 7997
  139.4824  144.4883  151.8345 H   0  0  0  0  0  0  0  0  0  0  0  0  # atno 10167 bound_to 10162
  156.4457  130.4473  149.7023 H   0  0  0  0  0  0  0  0  0  0  0  0  # atno 10718 bound_to 10713
  153.9613  135.6739  153.4745 H   0  0  0  0  0  0  0  0  0  0  0  0  # atno 10763 bound_to 10752
  153.0837  135.4910  154.8550 H   0  0  0  0  0  0  0  0  0  0  0  0  # atno 10764 bound_to 10752
  154.7271  135.3130  154.8913 H   0  0  0  0  0  0  0  0  0  0  0  0  # atno 10765 bound_to 10752
  140.9110  134.1568  157.4389 H   0  0  0  0  0  0  0  0  0  0  0  0  # atno 11005 bound_to 11000
  145.0542  139.3157  143.5913 LP  0  0  0  0  0  0  0  0  0  0  0  0  # atno 17320 bound_to 7965
  146.3506  139.9961  142.8681 LP  0  0  0  0  0  0  0  0  0  0  0  0  # atno 17321 bound_to 7965
  140.4365  144.2044  150.5889 LP  0  0  0  0  0  0  0  0  0  0  0  0  # atno 17342 bound_to 10162
  140.4726  143.2407  151.9067 LP  0  0  0  0  0  0  0  0  0  0  0  0  # atno 17343 bound_to 10162
  156.3870  130.7608  151.2606 LP  0  0  0  0  0  0  0  0  0  0  0  0  # atno 17370 bound_to 10713
  157.7505  131.0279  150.4025 LP  0  0  0  0  0  0  0  0  0  0  0  0  # atno 17371 bound_to 10713
  139.8757  134.9935  156.5650 LP  0  0  0  0  0  0  0  0  0  0  0  0  # atno 17394 bound_to 11000
  140.8110  133.8429  155.8810 LP  0  0  0  0  0  0  0  0  0  0  0  0  # atno 17395 bound_to 11000

$$$$
