AV-unprocessed.smi:2512|AV-procd|sdf|9890|dock2
  -GOLD-   2272013523D 1   1.00000     0.00000
 Structure written by MMmdl.
 27 28  0  0  0  0  0  0  0  0  1 V2000
  148.2244  141.2862  154.3433 C   0  0  0  0  0  0  0  0  0  0  0  0
  149.4782  140.6803  155.0017 C   0  0  0  0  0  0  0  0  0  0  0  0
  149.0879  139.5362  155.9517 C   0  0  0  0  0  0  0  0  0  0  0  0
  150.2530  140.1092  153.9648 O   0  0  0  0  0  0  0  0  0  0  0  0
  150.3366  141.7313  155.7502 C   0  0  0  0  0  0  0  0  0  0  0  0
  151.2392  141.1692  156.7444 N   0  0  0  0  0  0  0  0  0  0  0  0
  151.8336  139.9648  156.5066 N   0  0  0  0  0  0  0  0  0  0  0  0
  152.5905  139.6654  157.5193 N   0  0  0  0  0  0  0  0  0  0  0  0
  152.5032  140.6972  158.4385 C   0  0  0  0  0  0  0  0  0  0  0  0
  153.1138  140.8905  159.6976 C   0  0  0  0  0  0  0  0  0  0  0  0
  152.8525  142.0591  160.4462 C   0  0  0  0  0  0  0  0  0  0  0  0
  153.6197  142.2594  161.9813 Cl  0  0  0  0  0  0  0  0  0  0  0  0
  151.9755  143.0495  159.9416 C   0  0  0  0  0  0  0  0  0  0  0  0
  151.6463  144.4865  160.8425 Cl  0  0  0  0  0  0  0  0  0  0  0  0
  151.3587  142.8691  158.6876 C   0  0  0  0  0  0  0  0  0  0  0  0
  151.6308  141.6984  157.9594 C   0  0  0  0  0  0  0  0  0  0  0  0
  147.5954  141.7857  155.0809 H   0  0  0  0  0  0  0  0  0  0  0  0
  147.6191  140.5169  153.8626 H   0  0  0  0  0  0  0  0  0  0  0  0
  148.4803  142.0174  153.5759 H   0  0  0  0  0  0  0  0  0  0  0  0
  148.4729  139.9016  156.7748 H   0  0  0  0  0  0  0  0  0  0  0  0
  149.9682  139.0602  156.3850 H   0  0  0  0  0  0  0  0  0  0  0  0
  148.5177  138.7639  155.4337 H   0  0  0  0  0  0  0  0  0  0  0  0
  149.7530  140.1380  153.1634 H   0  0  0  0  0  0  0  0  0  0  0  0
  150.9301  142.3009  155.0330 H   0  0  0  0  0  0  0  0  0  0  0  0
  149.6944  142.4577  156.2500 H   0  0  0  0  0  0  0  0  0  0  0  0
  153.7854  140.1395  160.0868 H   0  0  0  0  0  0  0  0  0  0  0  0
  150.6867  143.6163  158.2922 H   0  0  0  0  0  0  0  0  0  0  0  0
  1  2  1  0  0  0  0
  1 17  1  0  0  0  0
  1 18  1  0  0  0  0
  1 19  1  0  0  0  0
  2  3  1  0  0  0  0
  2  4  1  0  0  0  0
  2  5  1  0  0  0  0
  3 20  1  0  0  0  0
  3 21  1  0  0  0  0
  3 22  1  0  0  0  0
  4 23  1  0  0  0  0
  5  6  1  0  0  0  0
  5 24  1  0  0  0  0
  5 25  1  0  0  0  0
  6 16  1  0  0  0  0
  6  7  1  0  0  0  0
  7  8  2  0  0  0  0
  8  9  1  0  0  0  0
  9 16  2  0  0  0  0
  9 10  1  0  0  0  0
 10 11  2  0  0  0  0
 10 26  1  0  0  0  0
 11 12  1  0  0  0  0
 11 13  1  0  0  0  0
 13 14  1  0  0  0  0
 13 15  2  0  0  0  0
 15 16  1  0  0  0  0
 15 27  1  0  0  0  0
M  END
> <s_m_source_file>
AV-unprocessed.smi

> <i_m_source_file_index>
2512

> <i_lp_mmshare_version>
43012

> <i_f3d_flags>
0

> <s_epik_input>
W0NIM11DKFtDSDNdKShbT0hdKVtDSDJdbihubjEpYyhjMTIpW2NIXWMoQ2wpYyhDbClbY0hdMg==

> <s_epik_cmdline>
J2VwaWtfcHl0aG9uJywgJy1waCcsICc3LjAnLCAnLXRuJywgJzgnLCAnLW1hJywgJzIwMCcsICctbWV0YWxfYmluZGluZycsICctaW1hZScsICc8aW5maWxlLm1hZT4nLCAnLW9tYWUnLCAnPG91dGZpbGUubWFlPic=

> <r_lp_tautomer_probability>
1

> <r_epik_Ionization_Penalty>
2.14984e-07

> <r_epik_Ionization_Penalty_Charging>
0

> <r_epik_Ionization_Penalty_Neutral>
2.14984e-07

> <r_epik_State_Penalty>
-0

> <r_epik_Charging_Adjusted_Penalty>
0

> <i_epik_Tot_Q>
0

> <i_epik_Tot_abs_Q>
0

> <r_epik_Metal_State_Penalty>
-0

> <b_epik_Metal_Only>
0

> <s_lp_Force_Field>
OPLS_2005

> <r_lp_Energy>
5.86035

> <b_lp_Chiralities_Consistent>
1

> <s_lp_Variant>
AV-unprocessed.smi:2512-1

> <Gold.Version>
5.8.1

> <Gold.Id.Protein>
6NUR|6NUR_protein|mol2

> <Gold.PLP.Fitness>
43.6383

> <Gold.PLP.PLP>
-36.1600

> <Gold.PLP.part.hbond>
-2.8700

> <Gold.PLP.part.metal>
0.0000

> <Gold.PLP.part.buried>
-4.8059

> <Gold.PLP.part.nonpolar>
-28.8376

> <Gold.PLP.part.repulsive>
0.0000

> <Gold.PLP.ligand.clash>
0.0000

> <Gold.PLP.ligand.torsion>
0.6797

> <Gold.PLP.Chemscore.Hbond>
2.9440

> <Gold.PLP.Chemscore.CHOScore>
0.0000

> <Gold.PLP.Chemscore.Metal>
0.0000

> <Gold.Chemscore.Hbonds>
donor molecule, donor type, donor heavy atom, donor atom, acceptor molecule, acceptor atom, score
      L1  H     4    23       P1  7957  1.00
      P1  H  7989  7998       L1     4  0.94
      P1  H  7997  8008       L1     8  0.95

> <Gold.PLP.Chemscore.Internal.Correction>
0.0058

> <Gold.Rescore>
     Score         DG    S(hbond)    S(metal)    S(lipo)     H(rot)  DE(clash)    DE(int)     intcor
     17.76     -19.90       2.10        0.00      98.68       1.62       0.04       2.09       ----

> <Gold.Chemscore.Fitness>
17.7597

> <Gold.Chemscore.DG>
-19.8971

> <Gold.Chemscore.ZeroCoef>
-5.4800

> <Gold.Chemscore.Hbond>
2.1020

> <Gold.Chemscore.Metal>
0.0000

> <Gold.Chemscore.Lipo>
98.6844

> <Gold.Chemscore.Internal_Hbond>
0.0000

> <Gold.Chemscore.DEClash>
0.0429

> <Gold.Chemscore.DEInternal>
2.0945

> <Gold.Chemscore.Rot>
1.6210

> <Gold.Chemscore.Internal.Correction>
   9.000000E+99

> <Gold.Chemscore.Hbonds>
donor molecule, donor type, donor heavy atom, donor atom, acceptor molecule, acceptor atom, score
      L1  H     4    23       P1  7957  0.91
      P1  H  7989  7998       L1     4  0.22
      P1  H  7997  8008       L1     8  0.05

> <Gold.Chemscore.Hbond.Weighted>
-7.0208

> <Gold.Chemscore.Metal.Weighted>
-0.0000

> <Gold.Chemscore.Lipo.Weighted>
-11.5461

> <Gold.Chemscore.Internal_Hbond.Weighted>
0.0000

> <Gold.Chemscore.DEClash.Weighted>
0.0429

> <Gold.Chemscore.DEInternal.Weighted>
2.0945

> <Gold.Chemscore.Rot.Weighted>
4.1497

> <Gold.Chemscore.Internal.Correction.Weighted>
   9.000000E+99

> <Gold.Protein.RotatedTorsions>
[ 6907 6896 6895 6894 ] final -144.86 input  -60.11 | X-H torsion
[ 7974 7965 7964 7962 ] final   72.73 input  175.53 | X-H torsion
[ 8008 7997 7996 7995 ] final  -66.28 input   59.86 | X-H torsion
[ 10167 10162 10161 10158 ] final   34.41 input  -65.29 | X-H torsion
[ 10718 10713 10712 10709 ] final   15.55 input   66.30 | X-H torsion
[ 10763 10752 10751 10750 ] final  -55.25 input  -60.55 | X-H torsion
[ 11005 11000 10999 10996 ] final  -64.70 input  -57.11 | X-H torsion

> <Gold.Protein.ActiveResidues>
 VAL166  LYS551  ARG553  GLY616  TRP617  ASP618  TYR619  PRO620  LYS621  CYS622 
 ASP623  PHE694  ASN695  SER759  ASP760  ASP761  ALA762  ILE779  LEU786  VAL792 
 PHE793  MET794  SER795  GLU796  ALA797  LYS798  CYS799  TRP800  GLU811  SER814 

> <Gold.Protein.RotatedAtoms>
  151.1198  133.5112  159.2602 H   0  0  0  0  0  0  0  0  0  0  0  0  # atno 6907 bound_to 6896
  151.1874  135.0387  159.8828 H   0  0  0  0  0  0  0  0  0  0  0  0  # atno 6908 bound_to 6896
  152.5455  134.1042  159.8384 H   0  0  0  0  0  0  0  0  0  0  0  0  # atno 6909 bound_to 6896
  145.7497  139.2754  143.1439 H   0  0  0  0  0  0  0  0  0  0  0  0  # atno 7974 bound_to 7965
  154.4724  140.0916  156.7179 H   0  0  0  0  0  0  0  0  0  0  0  0  # atno 8008 bound_to 7997
  155.4686  140.3463  155.4304 H   0  0  0  0  0  0  0  0  0  0  0  0  # atno 8009 bound_to 7997
  156.1062  140.1435  156.9390 H   0  0  0  0  0  0  0  0  0  0  0  0  # atno 8010 bound_to 7997
  140.4318  144.1314  150.6160 H   0  0  0  0  0  0  0  0  0  0  0  0  # atno 10167 bound_to 10162
  157.0552  130.6286  149.5775 H   0  0  0  0  0  0  0  0  0  0  0  0  # atno 10718 bound_to 10713
  154.1877  135.6432  153.5051 H   0  0  0  0  0  0  0  0  0  0  0  0  # atno 10763 bound_to 10752
  153.0043  135.5421  154.6447 H   0  0  0  0  0  0  0  0  0  0  0  0  # atno 10764 bound_to 10752
  154.5828  135.2927  155.0688 H   0  0  0  0  0  0  0  0  0  0  0  0  # atno 10765 bound_to 10752
  141.1432  133.6670  156.5873 H   0  0  0  0  0  0  0  0  0  0  0  0  # atno 11005 bound_to 11000
  146.0369  140.8203  142.9848 LP  0  0  0  0  0  0  0  0  0  0  0  0  # atno 17320 bound_to 7965
  144.6852  140.2852  143.7286 LP  0  0  0  0  0  0  0  0  0  0  0  0  # atno 17321 bound_to 7965
  140.4419  143.2523  151.9462 LP  0  0  0  0  0  0  0  0  0  0  0  0  # atno 17342 bound_to 10162
  139.4785  144.5646  151.8185 LP  0  0  0  0  0  0  0  0  0  0  0  0  # atno 17343 bound_to 10162
  155.9995  130.5071  150.7610 LP  0  0  0  0  0  0  0  0  0  0  0  0  # atno 17370 bound_to 10713
  157.4999  131.0917  151.0327 LP  0  0  0  0  0  0  0  0  0  0  0  0  # atno 17371 bound_to 10713
  140.3790  134.7539  157.4649 LP  0  0  0  0  0  0  0  0  0  0  0  0  # atno 17394 bound_to 11000
  140.0652  134.5940  155.8703 LP  0  0  0  0  0  0  0  0  0  0  0  0  # atno 17395 bound_to 11000

$$$$
