AV-unprocessed.smi:1419|AV-procd|sdf|5780|dock5
  -GOLD-   22720 5423D 1   1.00000     0.00000
 Structure written by MMmdl.
 41 42  0  0  0  0  0  0  0  0  1 V2000
  150.0516  140.4752  157.9909 C   0  0  0  0  0  0  0  0  0  0  0  0
  150.7865  141.4747  157.0879 C   0  0  2  0  0  0  0  0  0  0  0  0
  150.9853  140.9090  155.6655 C   0  0  0  0  0  0  0  0  0  0  0  0
  149.8530  141.1705  154.7948 N   0  0  0  0  0  0  0  0  0  0  0  0
  149.2569  140.2824  153.9087 C   0  0  0  0  0  0  0  0  0  0  0  0
  148.2386  140.9699  153.2883 C   0  0  0  0  0  0  0  0  0  0  0  0
  148.1845  142.2716  153.7805 N   0  0  0  0  0  0  0  0  0  0  0  0
  149.1676  142.3154  154.6705 C   0  0  0  0  0  0  0  0  0  0  0  0
  152.0770  141.8070  157.6908 N   0  0  0  0  0  0  0  0  0  0  0  0
  153.0214  140.9260  158.0657 C   0  0  0  0  0  0  0  0  0  0  0  0
  152.9307  139.7213  157.8252 O   0  0  0  0  0  0  0  0  0  0  0  0
  154.0741  141.4723  158.7222 N   0  0  0  0  0  0  0  0  0  0  0  0
  154.2056  142.8714  159.1503 C   0  0  0  0  0  0  0  0  0  0  0  0
  153.9415  142.9302  160.6687 C   0  0  2  0  0  0  0  0  0  0  0  0
  154.1013  144.3461  161.2316 C   0  0  0  0  0  0  0  0  0  0  0  0
  154.8710  142.0770  161.3371 O   0  0  0  0  0  0  0  0  0  0  0  0
  154.8167  140.7152  160.9108 C   0  0  2  0  0  0  0  0  0  0  0  0
  155.8477  139.9180  161.7165 C   0  0  0  0  0  0  0  0  0  0  0  0
  155.0850  140.6527  159.3932 C   0  0  0  0  0  0  0  0  0  0  0  0
  149.0707  140.2280  157.5838 H   0  0  0  0  0  0  0  0  0  0  0  0
  149.8988  140.8861  158.9895 H   0  0  0  0  0  0  0  0  0  0  0  0
  150.6122  139.5455  158.0948 H   0  0  0  0  0  0  0  0  0  0  0  0
  150.1626  142.3678  157.0221 H   0  0  0  0  0  0  0  0  0  0  0  0
  151.8810  141.3324  155.2084 H   0  0  0  0  0  0  0  0  0  0  0  0
  151.1365  139.8295  155.7078 H   0  0  0  0  0  0  0  0  0  0  0  0
  149.6018  139.2659  153.7901 H   0  0  0  0  0  0  0  0  0  0  0  0
  147.5460  140.6302  152.5325 H   0  0  0  0  0  0  0  0  0  0  0  0
  149.4018  143.2043  155.2376 H   0  0  0  0  0  0  0  0  0  0  0  0
  152.2374  142.7804  157.9047 H   0  0  0  0  0  0  0  0  0  0  0  0
  155.2157  143.2204  158.9297 H   0  0  0  0  0  0  0  0  0  0  0  0
  153.5399  143.5573  158.6265 H   0  0  0  0  0  0  0  0  0  0  0  0
  152.9284  142.5838  160.8797 H   0  0  0  0  0  0  0  0  0  0  0  0
  153.4009  145.0370  160.7619 H   0  0  0  0  0  0  0  0  0  0  0  0
  155.1099  144.7251  161.0640 H   0  0  0  0  0  0  0  0  0  0  0  0
  153.9136  144.3614  162.3054 H   0  0  0  0  0  0  0  0  0  0  0  0
  153.8231  140.3166  161.1251 H   0  0  0  0  0  0  0  0  0  0  0  0
  155.8353  138.8650  161.4345 H   0  0  0  0  0  0  0  0  0  0  0  0
  155.6378  139.9784  162.7846 H   0  0  0  0  0  0  0  0  0  0  0  0
  156.8566  140.2976  161.5527 H   0  0  0  0  0  0  0  0  0  0  0  0
  155.0812  139.6171  159.0497 H   0  0  0  0  0  0  0  0  0  0  0  0
  156.0794  141.0394  159.1643 H   0  0  0  0  0  0  0  0  0  0  0  0
  1  2  1  0  0  0  0
  1 20  1  0  0  0  0
  1 21  1  0  0  0  0
  1 22  1  0  0  0  0
  2  3  1  0  0  0  0
  2  9  1  0  0  0  0
  2 23  1  0  0  0  0
  3  4  1  0  0  0  0
  3 24  1  0  0  0  0
  3 25  1  0  0  0  0
  4  8  1  0  0  0  0
  4  5  1  0  0  0  0
  5  6  2  0  0  0  0
  5 26  1  0  0  0  0
  6  7  1  0  0  0  0
  6 27  1  0  0  0  0
  7  8  2  0  0  0  0
  8 28  1  0  0  0  0
  9 10  1  0  0  0  0
  9 29  1  0  0  0  0
 10 11  2  0  0  0  0
 10 12  1  0  0  0  0
 12 19  1  0  0  0  0
 12 13  1  0  0  0  0
 13 14  1  0  0  0  0
 13 30  1  0  0  0  0
 13 31  1  0  0  0  0
 14 15  1  0  0  0  0
 14 16  1  0  0  0  0
 14 32  1  0  0  0  0
 15 33  1  0  0  0  0
 15 34  1  0  0  0  0
 15 35  1  0  0  0  0
 16 17  1  0  0  0  0
 17 18  1  0  0  0  0
 17 19  1  0  0  0  0
 17 36  1  0  0  0  0
 18 37  1  0  0  0  0
 18 38  1  0  0  0  0
 18 39  1  0  0  0  0
 19 40  1  0  0  0  0
 19 41  1  0  0  0  0
M  END
> <s_m_source_file>
AV-unprocessed.smi

> <i_m_source_file_index>
1419

> <i_lp_mmshare_version>
43012

> <i_f3d_flags>
0

> <s_epik_input>
W2NIXTFuW2NIXVtjSF1uMVtDSDJdW0NAQEhdKFtDSDNdKVtOSF1DKD1PKU4yW0NIMl1bQ0BASF0oW0NIM10pT1tDQEBIXShbQ0gzXSlbQ0gyXTI=

> <s_epik_cmdline>
J2VwaWtfcHl0aG9uJywgJy1waCcsICc3LjAnLCAnLXRuJywgJzgnLCAnLW1hJywgJzIwMCcsICctbWV0YWxfYmluZGluZycsICctaW1hZScsICc8aW5maWxlLm1hZT4nLCAnLW9tYWUnLCAnPG91dGZpbGUubWFlPic=

> <r_lp_tautomer_probability>
1

> <r_epik_Ionization_Penalty>
0.625124

> <r_epik_Ionization_Penalty_Charging>
0.625093

> <r_epik_Ionization_Penalty_Neutral>
3.17415e-05

> <r_epik_State_Penalty>
0.641455

> <r_epik_Charging_Adjusted_Penalty>
1.26655

> <i_epik_Tot_Q>
0

> <i_epik_Tot_abs_Q>
0

> <r_epik_Metal_State_Penalty>
0.307717

> <b_epik_Metal_Only>
0

> <s_lp_Force_Field>
OPLS_2005

> <r_lp_Energy>
27.7679

> <b_lp_Chiralities_Consistent>
1

> <s_lp_Variant>
AV-unprocessed.smi:1419-7

> <Gold.Version>
5.8.1

> <Gold.Id.Protein>
6NUR|6NUR_protein|mol2

> <Gold.PLP.Fitness>
42.8747

> <Gold.PLP.PLP>
-37.1379

> <Gold.PLP.part.hbond>
-1.7051

> <Gold.PLP.part.metal>
0.0000

> <Gold.PLP.part.buried>
1.5157

> <Gold.PLP.part.nonpolar>
-36.6708

> <Gold.PLP.part.repulsive>
0.2370

> <Gold.PLP.ligand.clash>
0.0000

> <Gold.PLP.ligand.torsion>
0.6267

> <Gold.PLP.Chemscore.Hbond>
1.0000

> <Gold.PLP.Chemscore.CHOScore>
1.3036

> <Gold.PLP.Chemscore.Metal>
0.0000

> <Gold.Chemscore.Hbonds>
donor molecule, donor type, donor heavy atom, donor atom, acceptor molecule, acceptor atom, score
      P1  H  7997  8010       L1    11  0.10
      L1  C     5    26       P1  7957  0.01
      L1  C     6    27       P1  7957  0.14
      L1  C     8    28       P1  8028  0.04

> <Gold.PLP.Chemscore.Internal.Correction>
0.0795

> <Gold.Rescore>
     Score         DG    S(hbond)    S(metal)    S(lipo)     H(rot)  DE(clash)    DE(int)     intcor
     12.03     -14.10       0.93        0.00      81.62       1.58       0.19       1.87       ----

> <Gold.Chemscore.Fitness>
12.0336

> <Gold.Chemscore.DG>
-14.0979

> <Gold.Chemscore.ZeroCoef>
-5.4800

> <Gold.Chemscore.Hbond>
0.9296

> <Gold.Chemscore.Metal>
0.0000

> <Gold.Chemscore.Lipo>
81.6231

> <Gold.Chemscore.Internal_Hbond>
0.0000

> <Gold.Chemscore.DEClash>
0.1925

> <Gold.Chemscore.DEInternal>
1.8719

> <Gold.Chemscore.Rot>
1.5769

> <Gold.Chemscore.Internal.Correction>
   9.000000E+99

> <Gold.Chemscore.Hbond.Weighted>
-3.1049

> <Gold.Chemscore.Metal.Weighted>
-0.0000

> <Gold.Chemscore.Lipo.Weighted>
-9.5499

> <Gold.Chemscore.Internal_Hbond.Weighted>
0.0000

> <Gold.Chemscore.DEClash.Weighted>
0.1925

> <Gold.Chemscore.DEInternal.Weighted>
1.8719

> <Gold.Chemscore.Rot.Weighted>
4.0369

> <Gold.Chemscore.Internal.Correction.Weighted>
   9.000000E+99

> <Gold.Protein.RotatedTorsions>
[ 6907 6896 6895 6894 ] final  -26.26 input  -60.11 | X-H torsion
[ 7974 7965 7964 7962 ] final   34.05 input  175.53 | X-H torsion
[ 8008 7997 7996 7995 ] final   51.08 input   59.86 | X-H torsion
[ 10167 10162 10161 10158 ] final -172.57 input  -65.29 | X-H torsion
[ 10718 10713 10712 10709 ] final   31.01 input   66.30 | X-H torsion
[ 10763 10752 10751 10750 ] final  -77.52 input  -60.55 | X-H torsion
[ 11005 11000 10999 10996 ] final  -87.56 input  -57.11 | X-H torsion

> <Gold.Protein.ActiveResidues>
 VAL166  LYS551  ARG553  GLY616  TRP617  ASP618  TYR619  PRO620  LYS621  CYS622 
 ASP623  PHE694  ASN695  SER759  ASP760  ASP761  ALA762  ILE779  LEU786  VAL792 
 PHE793  MET794  SER795  GLU796  ALA797  LYS798  CYS799  TRP800  GLU811  SER814 

> <Gold.Protein.RotatedAtoms>
  151.1635  135.0284  159.8720 H   0  0  0  0  0  0  0  0  0  0  0  0  # atno 6907 bound_to 6896
  152.5451  134.1252  159.8426 H   0  0  0  0  0  0  0  0  0  0  0  0  # atno 6908 bound_to 6896
  151.1350  133.4964  159.2630 H   0  0  0  0  0  0  0  0  0  0  0  0  # atno 6909 bound_to 6896
  146.1379  139.6318  142.9183 H   0  0  0  0  0  0  0  0  0  0  0  0  # atno 7974 bound_to 7965
  155.4294  140.3450  155.4278 H   0  0  0  0  0  0  0  0  0  0  0  0  # atno 8008 bound_to 7997
  156.1345  140.1524  156.9046 H   0  0  0  0  0  0  0  0  0  0  0  0  # atno 8009 bound_to 7997
  154.4921  140.0838  156.7597 H   0  0  0  0  0  0  0  0  0  0  0  0  # atno 8010 bound_to 7997
  139.5737  144.1581  152.1421 H   0  0  0  0  0  0  0  0  0  0  0  0  # atno 10167 bound_to 10162
  157.2669  130.7189  149.6483 H   0  0  0  0  0  0  0  0  0  0  0  0  # atno 10718 bound_to 10713
  154.5140  135.5761  153.6627 H   0  0  0  0  0  0  0  0  0  0  0  0  # atno 10763 bound_to 10752
  152.9903  135.6165  154.2841 H   0  0  0  0  0  0  0  0  0  0  0  0  # atno 10764 bound_to 10752
  154.2758  135.2852  155.2698 H   0  0  0  0  0  0  0  0  0  0  0  0  # atno 10765 bound_to 10752
  141.1615  133.7518  156.9325 H   0  0  0  0  0  0  0  0  0  0  0  0  # atno 11005 bound_to 11000
  145.5114  141.0435  143.2485 LP  0  0  0  0  0  0  0  0  0  0  0  0  # atno 17320 bound_to 7965
  144.7760  139.6630  143.7175 LP  0  0  0  0  0  0  0  0  0  0  0  0  # atno 17321 bound_to 7965
  140.1120  144.5449  150.6919 LP  0  0  0  0  0  0  0  0  0  0  0  0  # atno 17342 bound_to 10162
  140.7021  143.2442  151.4834 LP  0  0  0  0  0  0  0  0  0  0  0  0  # atno 17343 bound_to 10162
  155.9663  130.4380  150.5198 LP  0  0  0  0  0  0  0  0  0  0  0  0  # atno 17370 bound_to 10713
  157.3114  131.0664  151.1998 LP  0  0  0  0  0  0  0  0  0  0  0  0  # atno 17371 bound_to 10713
  140.1377  134.9314  157.2424 LP  0  0  0  0  0  0  0  0  0  0  0  0  # atno 17394 bound_to 11000
  140.2875  134.3278  155.7325 LP  0  0  0  0  0  0  0  0  0  0  0  0  # atno 17395 bound_to 11000

$$$$
