AV-unprocessed.smi:304|AV-procd|sdf|2279|dock1
  -GOLD-   2262022173D 1   1.00000     0.00000
 Structure written by MMmdl.
 37 39  0  0  0  0  0  0  0  0  2 V2000
  150.6888  139.3871  153.7268 O   0  0  0  0  0  0  0  0  0  0  0  0
  150.1491  138.7277  154.8555 C   0  0  1  0  0  0  0  0  0  0  0  0
  150.2752  137.2115  154.6425 C   0  0  0  0  0  0  0  0  0  0  0  0
  149.8331  136.5517  155.8164 O   0  0  0  0  0  0  0  0  0  0  0  0
  150.2733  135.2060  155.8931 C   0  0  0  0  0  0  0  0  0  0  0  0
  149.5333  134.4320  154.8503 C   0  0  0  0  0  0  0  0  0  0  0  0
  150.0633  133.5496  153.9435 C   0  0  0  0  0  0  0  0  0  0  0  0
  149.0877  132.9855  153.0699 C   0  0  0  0  0  0  0  0  0  0  0  0
  147.8234  133.4521  153.3132 C   0  0  0  0  0  0  0  0  0  0  0  0
  147.8069  134.5985  154.6251 S   0  0  0  0  0  0  0  0  0  0  0  0
  150.9030  139.1995  156.1145 C   0  0  0  0  0  0  0  0  0  0  0  0
  150.7334  140.6354  156.3737 N   0  0  0  0  0  0  0  0  0  0  0  0
  150.0289  141.5720  155.6821 C   0  0  0  0  0  0  0  0  0  0  0  0
  150.1778  142.7600  156.3318 N   0  3  0  0  0  0  0  0  0  0  0  0
  150.9890  142.5792  157.4546 C   0  0  0  0  0  0  0  0  0  0  0  0
  151.4247  143.4804  158.4208 C   0  0  0  0  0  0  0  0  0  0  0  0
  152.2500  142.9661  159.4429 C   0  0  0  0  0  0  0  0  0  0  0  0
  152.7041  143.8005  160.4077 F   0  0  0  0  0  0  0  0  0  0  0  0
  152.6103  141.6021  159.4790 C   0  0  0  0  0  0  0  0  0  0  0  0
  153.4028  141.1493  160.4791 F   0  0  0  0  0  0  0  0  0  0  0  0
  152.1618  140.6977  158.4938 C   0  0  0  0  0  0  0  0  0  0  0  0
  151.3490  141.2159  157.4869 C   0  0  0  0  0  0  0  0  0  0  0  0
  150.0572  139.3402  153.0247 H   0  0  0  0  0  0  0  0  0  0  0  0
  149.0957  138.9948  154.9482 H   0  0  0  0  0  0  0  0  0  0  0  0
  149.7148  136.8853  153.7644 H   0  0  0  0  0  0  0  0  0  0  0  0
  151.3213  136.9492  154.4759 H   0  0  0  0  0  0  0  0  0  0  0  0
  151.3473  135.1440  155.7125 H   0  0  0  0  0  0  0  0  0  0  0  0
  150.0735  134.7945  156.8836 H   0  0  0  0  0  0  0  0  0  0  0  0
  151.1092  133.2888  153.8795 H   0  0  0  0  0  0  0  0  0  0  0  0
  149.3446  132.2690  152.3038 H   0  0  0  0  0  0  0  0  0  0  0  0
  146.9063  133.1958  152.8038 H   0  0  0  0  0  0  0  0  0  0  0  0
  150.5752  138.6494  156.9976 H   0  0  0  0  0  0  0  0  0  0  0  0
  151.9721  139.0088  156.0104 H   0  0  0  0  0  0  0  0  0  0  0  0
  149.4517  141.4015  154.7846 H   0  0  0  0  0  0  0  0  0  0  0  0
  151.1502  144.5247  158.3976 H   0  0  0  0  0  0  0  0  0  0  0  0
  152.4411  139.6555  158.5309 H   0  0  0  0  0  0  0  0  0  0  0  0
  149.7532  143.6275  156.0293 H   0  0  0  0  0  0  0  0  0  0  0  0
  1  2  1  0  0  0  0
  1 23  1  0  0  0  0
  2  3  1  0  0  0  0
  2 11  1  0  0  0  0
  2 24  1  0  0  0  0
  3  4  1  0  0  0  0
  3 25  1  0  0  0  0
  3 26  1  0  0  0  0
  4  5  1  0  0  0  0
  5  6  1  0  0  0  0
  5 27  1  0  0  0  0
  5 28  1  0  0  0  0
  6 10  1  0  0  0  0
  6  7  2  0  0  0  0
  7  8  1  0  0  0  0
  7 29  1  0  0  0  0
  8  9  2  0  0  0  0
  8 30  1  0  0  0  0
  9 10  1  0  0  0  0
  9 31  1  0  0  0  0
 11 12  1  0  0  0  0
 11 32  1  0  0  0  0
 11 33  1  0  0  0  0
 12 22  1  0  0  0  0
 12 13  1  0  0  0  0
 13 14  2  0  0  0  0
 13 34  1  0  0  0  0
 14 15  1  0  0  0  0
 14 37  1  0  0  0  0
 15 22  2  0  0  0  0
 15 16  1  0  0  0  0
 16 17  2  0  0  0  0
 16 35  1  0  0  0  0
 17 18  1  0  0  0  0
 17 19  1  0  0  0  0
 19 20  1  0  0  0  0
 19 21  2  0  0  0  0
 21 22  1  0  0  0  0
 21 36  1  0  0  0  0
M  CHG  1  14   1
M  END
> <s_m_source_file>
AV-unprocessed.smi

> <i_m_source_file_index>
304

> <i_lp_mmshare_version>
43012

> <i_f3d_flags>
0

> <s_epik_input>
W2NIXTFjKEYpYyhGKVtjSF1jKGMxMiluKFtjSF1uMilbQ0gyXVtDQEhdKFtPSF0pW0NIMl1PW0NIMl1jM1tjSF1bY0hdW2NIXXMz

> <s_epik_cmdline>
J2VwaWtfcHl0aG9uJywgJy1waCcsICc3LjAnLCAnLXRuJywgJzgnLCAnLW1hJywgJzIwMCcsICctbWV0YWxfYmluZGluZycsICctaW1hZScsICc8aW5maWxlLm1hZT4nLCAnLW9tYWUnLCAnPG91dGZpbGUubWFlPic=

> <r_epik_Ionization_Penalty>
2.17745

> <r_epik_Ionization_Penalty_Charging>
2.17744

> <r_epik_Ionization_Penalty_Neutral>
1.26231e-06

> <r_epik_State_Penalty>
2.31922

> <r_epik_Charging_Adjusted_Penalty>
4.49666

> <i_epik_Tot_Q>
1

> <i_epik_Tot_abs_Q>
1

> <r_epik_Metal_State_Penalty>
6.40003

> <b_epik_Metal_Only>
0

> <s_lp_Force_Field>
OPLS_2005

> <r_lp_Energy>
12.5781

> <b_lp_Chiralities_Consistent>
1

> <s_lp_Variant>
AV-unprocessed.smi:304-4

> <Gold.Version>
5.8.1

> <Gold.Id.Protein>
6NUR|6NUR_protein|mol2

> <Gold.PLP.Fitness>
54.6519

> <Gold.PLP.PLP>
-43.3749

> <Gold.PLP.part.hbond>
-2.8441

> <Gold.PLP.part.metal>
0.0000

> <Gold.PLP.part.buried>
-2.3635

> <Gold.PLP.part.nonpolar>
-37.4234

> <Gold.PLP.part.repulsive>
0.1780

> <Gold.PLP.ligand.clash>
0.0000

> <Gold.PLP.ligand.torsion>
0.2700

> <Gold.PLP.Chemscore.Hbond>
3.8817

> <Gold.PLP.Chemscore.CHOScore>
0.0000

> <Gold.PLP.Chemscore.Metal>
0.0000

> <Gold.Chemscore.Hbonds>
donor molecule, donor type, donor heavy atom, donor atom, acceptor molecule, acceptor atom, score
      L1  H     1    23       P1  7957  0.86
      L1  H    14    37       P1  8028  1.56
      P1  H  7989  7998       L1     1  0.99

> <Gold.PLP.Chemscore.Internal.Correction>
0.1718

> <Gold.Rescore>
     Score         DG    S(hbond)    S(metal)    S(lipo)     H(rot)  DE(clash)    DE(int)     intcor
     16.86     -17.63       2.38        0.00      95.70       2.73       0.55       0.22       ----

> <Gold.Chemscore.Fitness>
16.8596

> <Gold.Chemscore.DG>
-17.6312

> <Gold.Chemscore.ZeroCoef>
-5.4800

> <Gold.Chemscore.Hbond>
2.3751

> <Gold.Chemscore.Metal>
0.0000

> <Gold.Chemscore.Lipo>
95.6954

> <Gold.Chemscore.Internal_Hbond>
0.0000

> <Gold.Chemscore.DEClash>
0.5550

> <Gold.Chemscore.DEInternal>
0.2167

> <Gold.Chemscore.Rot>
2.7258

> <Gold.Chemscore.Internal.Correction>
   9.000000E+99

> <Gold.Chemscore.Hbonds>
donor molecule, donor type, donor heavy atom, donor atom, acceptor molecule, acceptor atom, score
      L1  H     1    23       P1  7957  0.77
      L1  H    14    37       P1  8028  0.77
      P1  H  7989  7998       L1     1  0.57

> <Gold.Chemscore.Hbond.Weighted>
-7.9330

> <Gold.Chemscore.Metal.Weighted>
-0.0000

> <Gold.Chemscore.Lipo.Weighted>
-11.1964

> <Gold.Chemscore.Internal_Hbond.Weighted>
0.0000

> <Gold.Chemscore.DEClash.Weighted>
0.5550

> <Gold.Chemscore.DEInternal.Weighted>
0.2167

> <Gold.Chemscore.Rot.Weighted>
6.9781

> <Gold.Chemscore.Internal.Correction.Weighted>
   9.000000E+99

> <Gold.Protein.RotatedTorsions>
[ 6907 6896 6895 6894 ] final  -75.72 input  -60.11 | X-H torsion
[ 7974 7965 7964 7962 ] final  163.54 input  175.53 | X-H torsion
[ 8008 7997 7996 7995 ] final   48.61 input   59.86 | X-H torsion
[ 10167 10162 10161 10158 ] final  -54.56 input  -65.29 | X-H torsion
[ 10718 10713 10712 10709 ] final  -26.91 input   66.30 | X-H torsion
[ 10763 10752 10751 10750 ] final   25.84 input  -60.55 | X-H torsion
[ 11005 11000 10999 10996 ] final    7.75 input  -57.11 | X-H torsion

> <Gold.Protein.ActiveResidues>
 VAL166  LYS551  ARG553  GLY616  TRP617  ASP618  TYR619  PRO620  LYS621  CYS622 
 ASP623  PHE694  ASN695  SER759  ASP760  ASP761  ALA762  ILE779  LEU786  VAL792 
 PHE793  MET794  SER795  GLU796  ALA797  LYS798  CYS799  TRP800  GLU811  SER814 

> <Gold.Protein.RotatedAtoms>
  150.7050  134.4679  159.5410 H   0  0  0  0  0  0  0  0  0  0  0  0  # atno 6907 bound_to 6896
  152.2341  134.8291  160.0478 H   0  0  0  0  0  0  0  0  0  0  0  0  # atno 6908 bound_to 6896
  151.9096  133.3523  159.3896 H   0  0  0  0  0  0  0  0  0  0  0  0  # atno 6909 bound_to 6896
  144.7585  139.8197  143.6341 H   0  0  0  0  0  0  0  0  0  0  0  0  # atno 7974 bound_to 7965
  155.3885  140.3432  155.4250 H   0  0  0  0  0  0  0  0  0  0  0  0  # atno 8008 bound_to 7997
  156.1571  140.1589  156.8707 H   0  0  0  0  0  0  0  0  0  0  0  0  # atno 8009 bound_to 7997
  154.5105  140.0791  156.7961 H   0  0  0  0  0  0  0  0  0  0  0  0  # atno 8010 bound_to 7997
  140.6424  143.2515  151.4953 H   0  0  0  0  0  0  0  0  0  0  0  0  # atno 10167 bound_to 10162
  156.4451  130.4472  149.7027 H   0  0  0  0  0  0  0  0  0  0  0  0  # atno 10718 bound_to 10713
  153.0664  135.6574  154.0345 H   0  0  0  0  0  0  0  0  0  0  0  0  # atno 10763 bound_to 10752
  154.0001  135.2938  155.3405 H   0  0  0  0  0  0  0  0  0  0  0  0  # atno 10764 bound_to 10752
  154.7023  135.5239  153.8614 H   0  0  0  0  0  0  0  0  0  0  0  0  # atno 10765 bound_to 10752
  140.5447  134.0341  155.7916 H   0  0  0  0  0  0  0  0  0  0  0  0  # atno 11005 bound_to 11000
  146.1622  139.4741  142.9981 LP  0  0  0  0  0  0  0  0  0  0  0  0  # atno 17320 bound_to 7965
  145.6698  141.0219  143.1664 LP  0  0  0  0  0  0  0  0  0  0  0  0  # atno 17321 bound_to 7965
  139.5633  144.2103  152.1726 LP  0  0  0  0  0  0  0  0  0  0  0  0  # atno 17342 bound_to 10162
  140.1377  144.5230  150.6763 LP  0  0  0  0  0  0  0  0  0  0  0  0  # atno 17343 bound_to 10162
  156.3876  130.7611  151.2609 LP  0  0  0  0  0  0  0  0  0  0  0  0  # atno 17370 bound_to 10713
  157.7505  131.0277  150.4018 LP  0  0  0  0  0  0  0  0  0  0  0  0  # atno 17371 bound_to 10713
  141.1207  133.9466  157.2736 LP  0  0  0  0  0  0  0  0  0  0  0  0  # atno 17394 bound_to 11000
  139.9486  135.0179  156.8926 LP  0  0  0  0  0  0  0  0  0  0  0  0  # atno 17395 bound_to 11000

$$$$
