AV-unprocessed.smi:653|AV-procd|sdf|3206|dock4
  -GOLD-   22720 0143D 1   1.00000     0.00000
 Structure written by MMmdl.
 44 45  0  0  0  0  0  0  0  0  1 V2000
  144.0876  132.2261  149.6595 C   0  0  0  0  0  0  0  0  0  0  0  0
  144.0887  133.4352  150.5718 C   0  0  0  0  0  0  0  0  0  0  0  0
  143.4776  133.3762  151.8417 C   0  0  0  0  0  0  0  0  0  0  0  0
  143.5031  134.5271  152.6525 C   0  0  0  0  0  0  0  0  0  0  0  0
  144.1339  135.6900  152.1640 C   0  0  0  0  0  0  0  0  0  0  0  0
  144.1886  136.9574  152.9987 C   0  0  0  0  0  0  0  0  0  0  0  0
  145.6348  137.4176  153.1989 C   0  0  0  0  0  0  0  0  0  0  0  0
  146.4711  136.6484  153.6734 O   0  0  0  0  0  0  0  0  0  0  0  0
  145.9155  138.6783  152.8356 N   0  0  0  0  0  0  0  0  0  0  0  0
  147.2267  139.3097  152.9410 C   0  0  0  0  0  0  0  0  0  0  0  0
  147.5356  139.7975  154.3792 C   0  0  2  0  0  0  0  0  0  0  0  0
  147.2128  141.2726  154.5771 C   0  0  0  0  0  0  0  0  0  0  0  0
  148.5000  141.9823  154.1486 C   0  0  0  0  0  0  0  0  0  0  0  0
  149.5073  140.9757  154.0968 O   0  0  0  0  0  0  0  0  0  0  0  0
  149.0303  139.8028  154.7427 C   0  0  2  0  0  0  0  0  0  0  0  0
  149.8628  138.5590  154.3553 C   0  0  0  0  0  0  0  0  0  0  0  0
  149.3620  137.2921  155.0708 C   0  0  0  0  0  0  0  0  0  0  0  0
  151.3536  138.7769  154.6604 C   0  0  0  0  0  0  0  0  0  0  0  0
  144.7134  135.6442  150.8779 C   0  0  0  0  0  0  0  0  0  0  0  0
  144.6942  134.5450  150.0937 N   0  0  0  0  0  0  0  0  0  0  0  0
  144.0851  131.3030  150.2399 H   0  0  0  0  0  0  0  0  0  0  0  0
  144.9695  132.2177  149.0178 H   0  0  0  0  0  0  0  0  0  0  0  0
  143.2010  132.2346  149.0253 H   0  0  0  0  0  0  0  0  0  0  0  0
  143.0007  132.4713  152.1882 H   0  0  0  0  0  0  0  0  0  0  0  0
  143.0472  134.5151  153.6316 H   0  0  0  0  0  0  0  0  0  0  0  0
  143.6012  137.7363  152.5100 H   0  0  0  0  0  0  0  0  0  0  0  0
  143.7327  136.7833  153.9741 H   0  0  0  0  0  0  0  0  0  0  0  0
  145.1681  139.2407  152.4554 H   0  0  0  0  0  0  0  0  0  0  0  0
  147.9798  138.6003  152.5974 H   0  0  0  0  0  0  0  0  0  0  0  0
  147.2558  140.1464  152.2426 H   0  0  0  0  0  0  0  0  0  0  0  0
  146.9791  139.1879  155.0922 H   0  0  0  0  0  0  0  0  0  0  0  0
  146.3370  141.6167  154.0266 H   0  0  0  0  0  0  0  0  0  0  0  0
  147.0266  141.4647  155.6346 H   0  0  0  0  0  0  0  0  0  0  0  0
  148.3973  142.4340  153.1617 H   0  0  0  0  0  0  0  0  0  0  0  0
  148.7743  142.7668  154.8544 H   0  0  0  0  0  0  0  0  0  0  0  0
  149.1245  139.9640  155.8187 H   0  0  0  0  0  0  0  0  0  0  0  0
  149.7784  138.3983  153.2805 H   0  0  0  0  0  0  0  0  0  0  0  0
  149.4365  137.3952  156.1538 H   0  0  0  0  0  0  0  0  0  0  0  0
  149.9483  136.4201  154.7798 H   0  0  0  0  0  0  0  0  0  0  0  0
  148.3214  137.0748  154.8304 H   0  0  0  0  0  0  0  0  0  0  0  0
  151.5196  138.9560  155.7231 H   0  0  0  0  0  0  0  0  0  0  0  0
  151.7499  139.6325  154.1131 H   0  0  0  0  0  0  0  0  0  0  0  0
  151.9446  137.9064  154.3743 H   0  0  0  0  0  0  0  0  0  0  0  0
  145.2070  136.5130  150.4673 H   0  0  0  0  0  0  0  0  0  0  0  0
  1  2  1  0  0  0  0
  1 21  1  0  0  0  0
  1 22  1  0  0  0  0
  1 23  1  0  0  0  0
  2 20  1  0  0  0  0
  2  3  2  0  0  0  0
  3  4  1  0  0  0  0
  3 24  1  0  0  0  0
  4  5  2  0  0  0  0
  4 25  1  0  0  0  0
  5  6  1  0  0  0  0
  5 19  1  0  0  0  0
  6  7  1  0  0  0  0
  6 26  1  0  0  0  0
  6 27  1  0  0  0  0
  7  8  2  0  0  0  0
  7  9  1  0  0  0  0
  9 10  1  0  0  0  0
  9 28  1  0  0  0  0
 10 11  1  0  0  0  0
 10 29  1  0  0  0  0
 10 30  1  0  0  0  0
 11 15  1  0  0  0  0
 11 12  1  0  0  0  0
 11 31  1  0  0  0  0
 12 13  1  0  0  0  0
 12 32  1  0  0  0  0
 12 33  1  0  0  0  0
 13 14  1  0  0  0  0
 13 34  1  0  0  0  0
 13 35  1  0  0  0  0
 14 15  1  0  0  0  0
 15 16  1  0  0  0  0
 15 36  1  0  0  0  0
 16 17  1  0  0  0  0
 16 18  1  0  0  0  0
 16 37  1  0  0  0  0
 17 38  1  0  0  0  0
 17 39  1  0  0  0  0
 17 40  1  0  0  0  0
 18 41  1  0  0  0  0
 18 42  1  0  0  0  0
 18 43  1  0  0  0  0
 19 20  2  0  0  0  0
 19 44  1  0  0  0  0
M  END
> <s_m_source_file>
AV-unprocessed.smi

> <i_m_source_file_index>
653

> <i_lp_mmshare_version>
43012

> <i_f3d_flags>
0

> <s_epik_input>
W0NIM11jMVtjSF1bY0hdYyhbY0hdbjEpW0NIMl1DKD1PKVtOSF1bQ0gyXVtDQEBIXTJbQ0gyXVtDSDJdT1tDQEhdMltDSF0oW0NIM10pW0NIM10=

> <s_epik_cmdline>
J2VwaWtfcHl0aG9uJywgJy1waCcsICc3LjAnLCAnLXRuJywgJzgnLCAnLW1hJywgJzIwMCcsICctbWV0YWxfYmluZGluZycsICctaW1hZScsICc8aW5maWxlLm1hZT4nLCAnLW9tYWUnLCAnPG91dGZpbGUubWFlPic=

> <r_epik_Ionization_Penalty>
0.0166429

> <r_epik_Ionization_Penalty_Charging>
0

> <r_epik_Ionization_Penalty_Neutral>
0.0166429

> <r_epik_State_Penalty>
0.0131478

> <r_epik_Charging_Adjusted_Penalty>
0.0131478

> <i_epik_Tot_Q>
0

> <i_epik_Tot_abs_Q>
0

> <r_epik_Metal_State_Penalty>
0.012786

> <b_epik_Metal_Only>
0

> <s_lp_Force_Field>
OPLS_2005

> <r_lp_Energy>
20.8525

> <b_lp_Chiralities_Consistent>
1

> <s_lp_Variant>
AV-unprocessed.smi:653-3

> <Gold.Version>
5.8.1

> <Gold.Id.Protein>
6NUR|6NUR_protein|mol2

> <Gold.PLP.Fitness>
39.3566

> <Gold.PLP.PLP>
-34.2741

> <Gold.PLP.part.hbond>
-2.6347

> <Gold.PLP.part.metal>
0.0000

> <Gold.PLP.part.buried>
-2.2354

> <Gold.PLP.part.nonpolar>
-31.7689

> <Gold.PLP.part.repulsive>
3.0729

> <Gold.PLP.ligand.clash>
0.0000

> <Gold.PLP.ligand.torsion>
0.6222

> <Gold.PLP.Chemscore.Hbond>
1.2714

> <Gold.PLP.Chemscore.CHOScore>
0.8140

> <Gold.PLP.Chemscore.Metal>
0.0000

> <Gold.Chemscore.Hbonds>
donor molecule, donor type, donor heavy atom, donor atom, acceptor molecule, acceptor atom, score
      L1  H     9    28       P1 10175  1.00
      P1  H  7989  7998       L1    14  0.29
      L1  C    19    44       P1 10171  0.79

> <Gold.PLP.Chemscore.Internal.Correction>
0.0705

> <Gold.Rescore>
     Score         DG    S(hbond)    S(metal)    S(lipo)     H(rot)  DE(clash)    DE(int)     intcor
     16.46     -17.43       1.51        0.00      91.50       1.48       0.27       0.70       ----

> <Gold.Chemscore.Fitness>
16.4566

> <Gold.Chemscore.DG>
-17.4313

> <Gold.Chemscore.ZeroCoef>
-5.4800

> <Gold.Chemscore.Hbond>
1.5113

> <Gold.Chemscore.Metal>
0.0000

> <Gold.Chemscore.Lipo>
91.4968

> <Gold.Chemscore.Internal_Hbond>
0.0000

> <Gold.Chemscore.DEClash>
0.2736

> <Gold.Chemscore.DEInternal>
0.7011

> <Gold.Chemscore.Rot>
1.4850

> <Gold.Chemscore.Internal.Correction>
   9.000000E+99

> <Gold.Chemscore.Hbonds>
donor molecule, donor type, donor heavy atom, donor atom, acceptor molecule, acceptor atom, score
      L1  H     9    28       P1 10175  0.99
      P1  H  7989  7998       L1    14  0.26

> <Gold.Chemscore.Hbond.Weighted>
-5.0477

> <Gold.Chemscore.Metal.Weighted>
-0.0000

> <Gold.Chemscore.Lipo.Weighted>
-10.7051

> <Gold.Chemscore.Internal_Hbond.Weighted>
0.0000

> <Gold.Chemscore.DEClash.Weighted>
0.2736

> <Gold.Chemscore.DEInternal.Weighted>
0.7011

> <Gold.Chemscore.Rot.Weighted>
3.8015

> <Gold.Chemscore.Internal.Correction.Weighted>
   9.000000E+99

> <Gold.Protein.RotatedTorsions>
[ 6907 6896 6895 6894 ] final -162.94 input  -60.11 | X-H torsion
[ 7974 7965 7964 7962 ] final  -88.00 input  175.53 | X-H torsion
[ 8008 7997 7996 7995 ] final -153.82 input   59.86 | X-H torsion
[ 10167 10162 10161 10158 ] final  -73.04 input  -65.29 | X-H torsion
[ 10718 10713 10712 10709 ] final  -36.05 input   66.30 | X-H torsion
[ 10763 10752 10751 10750 ] final -176.44 input  -60.55 | X-H torsion
[ 11005 11000 10999 10996 ] final   24.60 input  -57.11 | X-H torsion

> <Gold.Protein.ActiveResidues>
 VAL166  LYS551  ARG553  GLY616  TRP617  ASP618  TYR619  PRO620  LYS621  CYS622 
 ASP623  PHE694  ASN695  SER759  ASP760  ASP761  ALA762  ILE779  LEU786  VAL792 
 PHE793  MET794  SER795  GLU796  ALA797  LYS798  CYS799  TRP800  GLU811  SER814 

> <Gold.Protein.RotatedAtoms>
  151.3881  133.3798  159.2717 H   0  0  0  0  0  0  0  0  0  0  0  0  # atno 6907 bound_to 6896
  150.9526  134.8925  159.7692 H   0  0  0  0  0  0  0  0  0  0  0  0  # atno 6908 bound_to 6896
  152.5118  134.3837  159.9412 H   0  0  0  0  0  0  0  0  0  0  0  0  # atno 6909 bound_to 6896
  145.4590  140.9561  143.1980 H   0  0  0  0  0  0  0  0  0  0  0  0  # atno 7974 bound_to 7965
  155.6768  140.0739  157.2499 H   0  0  0  0  0  0  0  0  0  0  0  0  # atno 8008 bound_to 7997
  154.4113  140.1689  156.1991 H   0  0  0  0  0  0  0  0  0  0  0  0  # atno 8009 bound_to 7997
  155.9569  140.3373  155.6459 H   0  0  0  0  0  0  0  0  0  0  0  0  # atno 8010 bound_to 7997
  140.5142  143.2340  151.7540 H   0  0  0  0  0  0  0  0  0  0  0  0  # atno 10167 bound_to 10162
  156.3314  130.4280  149.7869 H   0  0  0  0  0  0  0  0  0  0  0  0  # atno 10718 bound_to 10713
  154.5723  135.2829  155.0815 H   0  0  0  0  0  0  0  0  0  0  0  0  # atno 10763 bound_to 10752
  154.2183  135.6395  153.5140 H   0  0  0  0  0  0  0  0  0  0  0  0  # atno 10764 bound_to 10752
  153.0061  135.5508  154.6350 H   0  0  0  0  0  0  0  0  0  0  0  0  # atno 10765 bound_to 10752
  140.3569  134.2167  155.7675 H   0  0  0  0  0  0  0  0  0  0  0  0  # atno 11005 bound_to 11000
  144.8014  139.6133  143.7070 LP  0  0  0  0  0  0  0  0  0  0  0  0  # atno 17320 bound_to 7965
  146.2462  139.6102  142.9458 LP  0  0  0  0  0  0  0  0  0  0  0  0  # atno 17321 bound_to 7965
  139.4904  144.4347  151.9833 LP  0  0  0  0  0  0  0  0  0  0  0  0  # atno 17342 bound_to 10162
  140.3440  144.3169  150.5961 LP  0  0  0  0  0  0  0  0  0  0  0  0  # atno 17343 bound_to 10162
  156.5140  130.8185  151.3179 LP  0  0  0  0  0  0  0  0  0  0  0  0  # atno 17370 bound_to 10713
  157.7431  130.9904  150.2566 LP  0  0  0  0  0  0  0  0  0  0  0  0  # atno 17371 bound_to 10713
  141.1995  133.8009  157.0531 LP  0  0  0  0  0  0  0  0  0  0  0  0  # atno 17394 bound_to 11000
  140.0657  134.9730  157.1382 LP  0  0  0  0  0  0  0  0  0  0  0  0  # atno 17395 bound_to 11000

$$$$
