AV-unprocessed.smi:2101|AV-procd|sdf|8579|dock2
  -GOLD-   2272011313D 1   1.00000     0.00000
 Structure written by MMmdl.
 41 42  0  0  0  0  0  0  0  0  1 V2000
  150.7613  140.7334  157.7342 C   0  0  0  0  0  0  0  0  0  0  0  0
  151.5617  139.6819  156.4553 S   0  0  0  0  0  0  0  0  0  0  0  0
  151.6913  140.4743  155.2228 O   0  0  0  0  0  0  0  0  0  0  0  0
  152.7537  139.0587  157.0505 O   0  0  0  0  0  0  0  0  0  0  0  0
  150.3936  138.4273  156.1622 N   0  0  0  0  0  0  0  0  0  0  0  0
  150.1275  137.9958  154.7706 C   0  0  0  0  0  0  0  0  0  0  0  0
  150.7792  136.6334  154.4649 C   0  0  0  0  0  0  0  0  0  0  0  0
  150.3337  135.6595  155.4701 N   0  0  0  0  0  0  0  0  0  0  0  0
  149.4296  134.6641  155.2933 C   0  0  0  0  0  0  0  0  0  0  0  0
  149.2002  133.8041  156.1446 O   0  0  0  0  0  0  0  0  0  0  0  0
  148.8092  134.6725  154.1012 N   0  0  0  0  0  0  0  0  0  0  0  0
  147.7989  133.7124  153.6709 C   0  0  0  0  0  0  0  0  0  0  0  0
  146.5327  134.4153  153.1531 C   0  0  0  0  0  0  0  0  0  0  0  0
  145.8927  133.6694  151.9976 C   0  0  0  0  0  0  0  0  0  0  0  0
  146.4521  132.4657  151.5183 C   0  0  0  0  0  0  0  0  0  0  0  0
  145.8162  131.8105  150.4457 C   0  0  0  0  0  0  0  0  0  0  0  0
  144.6511  132.3805  149.8976 C   0  0  0  0  0  0  0  0  0  0  0  0
  144.1711  133.5851  150.4491 C   0  0  0  0  0  0  0  0  0  0  0  0
  144.7733  134.2213  151.4772 N   0  0  0  0  0  0  0  0  0  0  0  0
  150.8258  136.0478  156.7936 C   0  0  0  0  0  0  0  0  0  0  0  0
  150.1755  137.3868  157.1932 C   0  0  0  0  0  0  0  0  0  0  0  0
  151.4272  141.5583  157.9852 H   0  0  0  0  0  0  0  0  0  0  0  0
  150.5705  140.1451  158.6303 H   0  0  0  0  0  0  0  0  0  0  0  0
  149.8265  141.1368  157.3480 H   0  0  0  0  0  0  0  0  0  0  0  0
  149.0480  137.9227  154.6334 H   0  0  0  0  0  0  0  0  0  0  0  0
  150.4771  138.7484  154.0647 H   0  0  0  0  0  0  0  0  0  0  0  0
  150.5536  136.3417  153.4393 H   0  0  0  0  0  0  0  0  0  0  0  0
  151.8655  136.7150  154.5029 H   0  0  0  0  0  0  0  0  0  0  0  0
  149.0531  135.4011  153.4464 H   0  0  0  0  0  0  0  0  0  0  0  0
  148.2316  133.0998  152.8795 H   0  0  0  0  0  0  0  0  0  0  0  0
  147.5555  133.0342  154.4907 H   0  0  0  0  0  0  0  0  0  0  0  0
  145.7985  134.5130  153.9543 H   0  0  0  0  0  0  0  0  0  0  0  0
  146.7737  135.4304  152.8347 H   0  0  0  0  0  0  0  0  0  0  0  0
  147.3467  132.0522  151.9604 H   0  0  0  0  0  0  0  0  0  0  0  0
  146.2149  130.8877  150.0511 H   0  0  0  0  0  0  0  0  0  0  0  0
  144.1375  131.9065  149.0743 H   0  0  0  0  0  0  0  0  0  0  0  0
  143.2799  134.0500  150.0544 H   0  0  0  0  0  0  0  0  0  0  0  0
  150.6182  135.2951  157.5554 H   0  0  0  0  0  0  0  0  0  0  0  0
  151.9114  136.1395  156.7656 H   0  0  0  0  0  0  0  0  0  0  0  0
  150.5569  137.7194  158.1582 H   0  0  0  0  0  0  0  0  0  0  0  0
  149.1011  137.2473  157.3187 H   0  0  0  0  0  0  0  0  0  0  0  0
  1  2  1  0  0  0  0
  1 22  1  0  0  0  0
  1 23  1  0  0  0  0
  1 24  1  0  0  0  0
  2  3  2  0  0  0  0
  2  4  2  0  0  0  0
  2  5  1  0  0  0  0
  5 21  1  0  0  0  0
  5  6  1  0  0  0  0
  6  7  1  0  0  0  0
  6 25  1  0  0  0  0
  6 26  1  0  0  0  0
  7  8  1  0  0  0  0
  7 27  1  0  0  0  0
  7 28  1  0  0  0  0
  8  9  1  0  0  0  0
  8 20  1  0  0  0  0
  9 10  2  0  0  0  0
  9 11  1  0  0  0  0
 11 12  1  0  0  0  0
 11 29  1  0  0  0  0
 12 13  1  0  0  0  0
 12 30  1  0  0  0  0
 12 31  1  0  0  0  0
 13 14  1  0  0  0  0
 13 32  1  0  0  0  0
 13 33  1  0  0  0  0
 14 19  1  0  0  0  0
 14 15  2  0  0  0  0
 15 16  1  0  0  0  0
 15 34  1  0  0  0  0
 16 17  2  0  0  0  0
 16 35  1  0  0  0  0
 17 18  1  0  0  0  0
 17 36  1  0  0  0  0
 18 19  2  0  0  0  0
 18 37  1  0  0  0  0
 20 21  1  0  0  0  0
 20 38  1  0  0  0  0
 20 39  1  0  0  0  0
 21 40  1  0  0  0  0
 21 41  1  0  0  0  0
M  END
> <s_m_source_file>
AV-unprocessed.smi

> <i_m_source_file_index>
2101

> <i_lp_mmshare_version>
43012

> <i_f3d_flags>
0

> <s_epik_input>
W0NIM11TKD1PKSg9TylOMVtDSDJdW0NIMl1OKFtDSDJdW0NIMl0xKUMoPU8pW05IXVtDSDJdW0NIMl1jMltjSF1bY0hdW2NIXVtjSF1uMg==

> <s_epik_cmdline>
J2VwaWtfcHl0aG9uJywgJy1waCcsICc3LjAnLCAnLXRuJywgJzgnLCAnLW1hJywgJzIwMCcsICctbWV0YWxfYmluZGluZycsICctaW1hZScsICc8aW5maWxlLm1hZT4nLCAnLW9tYWUnLCAnPG91dGZpbGUubWFlPic=

> <r_epik_Ionization_Penalty>
0.0441261

> <r_epik_Ionization_Penalty_Charging>
0

> <r_epik_Ionization_Penalty_Neutral>
0.0441261

> <r_epik_State_Penalty>
0.0373394

> <r_epik_Charging_Adjusted_Penalty>
0.0373394

> <i_epik_Tot_Q>
0

> <i_epik_Tot_abs_Q>
0

> <r_epik_Metal_State_Penalty>
0.0347395

> <b_epik_Metal_Only>
0

> <s_lp_Force_Field>
OPLS_2005

> <r_lp_Energy>
23.5332

> <b_lp_Chiralities_Consistent>
1

> <s_lp_Variant>
AV-unprocessed.smi:2101-1

> <Gold.Version>
5.8.1

> <Gold.Id.Protein>
6NUR|6NUR_protein|mol2

> <Gold.PLP.Fitness>
40.3750

> <Gold.PLP.PLP>
-29.7167

> <Gold.PLP.part.hbond>
-3.0000

> <Gold.PLP.part.metal>
0.0000

> <Gold.PLP.part.buried>
-1.7483

> <Gold.PLP.part.nonpolar>
-24.7400

> <Gold.PLP.part.repulsive>
0.1282

> <Gold.PLP.ligand.clash>
0.0000

> <Gold.PLP.ligand.torsion>
1.4389

> <Gold.PLP.Chemscore.Hbond>
2.8160

> <Gold.PLP.Chemscore.CHOScore>
1.0000

> <Gold.PLP.Chemscore.Metal>
0.0000

> <Gold.Chemscore.Hbonds>
donor molecule, donor type, donor heavy atom, donor atom, acceptor molecule, acceptor atom, score
      L1  H    11    29       P1  7948  1.00
      P1  H  7989  7998       L1     3  0.80
      P1  H  7997  8008       L1     4  1.00
      L1  C    18    37       P1 10186  1.00

> <Gold.PLP.Chemscore.Internal.Correction>
2.0881

> <Gold.Rescore>
     Score         DG    S(hbond)    S(metal)    S(lipo)     H(rot)  DE(clash)    DE(int)     intcor
     16.34     -18.39       2.45        0.00      71.04       1.40       0.56       1.49       ----

> <Gold.Chemscore.Fitness>
16.3383

> <Gold.Chemscore.DG>
-18.3852

> <Gold.Chemscore.ZeroCoef>
-5.4800

> <Gold.Chemscore.Hbond>
2.4513

> <Gold.Chemscore.Metal>
0.0000

> <Gold.Chemscore.Lipo>
71.0369

> <Gold.Chemscore.Internal_Hbond>
0.0000

> <Gold.Chemscore.DEClash>
0.5588

> <Gold.Chemscore.DEInternal>
1.4880

> <Gold.Chemscore.Rot>
1.4037

> <Gold.Chemscore.Internal.Correction>
   9.000000E+99

> <Gold.Chemscore.Hbonds>
donor molecule, donor type, donor heavy atom, donor atom, acceptor molecule, acceptor atom, score
      L1  H    11    29       P1  7948  0.54
      P1  H  7989  7998       L1     3  0.80
      P1  H  7997  8008       L1     4  0.77

> <Gold.Chemscore.Hbond.Weighted>
-8.1874

> <Gold.Chemscore.Metal.Weighted>
-0.0000

> <Gold.Chemscore.Lipo.Weighted>
-8.3113

> <Gold.Chemscore.Internal_Hbond.Weighted>
0.0000

> <Gold.Chemscore.DEClash.Weighted>
0.5588

> <Gold.Chemscore.DEInternal.Weighted>
1.4880

> <Gold.Chemscore.Rot.Weighted>
3.5935

> <Gold.Chemscore.Internal.Correction.Weighted>
   9.000000E+99

> <Gold.Protein.RotatedTorsions>
[ 6907 6896 6895 6894 ] final  -81.18 input  -60.11 | X-H torsion
[ 7974 7965 7964 7962 ] final  124.07 input  175.53 | X-H torsion
[ 8008 7997 7996 7995 ] final  -58.48 input   59.86 | X-H torsion
[ 10167 10162 10161 10158 ] final  129.71 input  -65.29 | X-H torsion
[ 10718 10713 10712 10709 ] final   38.75 input   66.30 | X-H torsion
[ 10763 10752 10751 10750 ] final -115.45 input  -60.55 | X-H torsion
[ 11005 11000 10999 10996 ] final    1.82 input  -57.11 | X-H torsion

> <Gold.Protein.ActiveResidues>
 VAL166  LYS551  ARG553  GLY616  TRP617  ASP618  TYR619  PRO620  LYS621  CYS622 
 ASP623  PHE694  ASN695  SER759  ASP760  ASP761  ALA762  ILE779  LEU786  VAL792 
 PHE793  MET794  SER795  GLU796  ALA797  LYS798  CYS799  TRP800  GLU811  SER814 

> <Gold.Protein.RotatedAtoms>
  150.6916  134.3857  159.5053 H   0  0  0  0  0  0  0  0  0  0  0  0  # atno 6907 bound_to 6896
  152.1653  134.8876  160.0548 H   0  0  0  0  0  0  0  0  0  0  0  0  # atno 6908 bound_to 6896
  151.9923  133.3760  159.4186 H   0  0  0  0  0  0  0  0  0  0  0  0  # atno 6909 bound_to 6896
  145.0886  139.3603  143.4872 H   0  0  0  0  0  0  0  0  0  0  0  0  # atno 7974 bound_to 7965
  154.4310  140.1083  156.5963 H   0  0  0  0  0  0  0  0  0  0  0  0  # atno 8008 bound_to 7997
  155.5958  140.3492  155.4561 H   0  0  0  0  0  0  0  0  0  0  0  0  # atno 8009 bound_to 7997
  156.0211  140.1240  157.0346 H   0  0  0  0  0  0  0  0  0  0  0  0  # atno 8010 bound_to 7997
  139.5465  144.6777  151.4458 H   0  0  0  0  0  0  0  0  0  0  0  0  # atno 10167 bound_to 10162
  157.3625  130.7657  149.7058 H   0  0  0  0  0  0  0  0  0  0  0  0  # atno 10718 bound_to 10713
  154.8481  135.4381  154.1664 H   0  0  0  0  0  0  0  0  0  0  0  0  # atno 10763 bound_to 10752
  153.2788  135.6952  153.7412 H   0  0  0  0  0  0  0  0  0  0  0  0  # atno 10764 bound_to 10752
  153.6624  135.3433  155.3106 H   0  0  0  0  0  0  0  0  0  0  0  0  # atno 10765 bound_to 10752
  140.6112  133.9746  155.8178 H   0  0  0  0  0  0  0  0  0  0  0  0  # atno 11005 bound_to 11000
  146.3531  140.0710  142.8623 LP  0  0  0  0  0  0  0  0  0  0  0  0  # atno 17320 bound_to 7965
  145.1093  140.9395  143.4666 LP  0  0  0  0  0  0  0  0  0  0  0  0  # atno 17321 bound_to 7965
  140.6714  143.8285  150.7004 LP  0  0  0  0  0  0  0  0  0  0  0  0  # atno 17342 bound_to 10162
  140.1710  143.4194  152.2000 LP  0  0  0  0  0  0  0  0  0  0  0  0  # atno 17343 bound_to 10162
  155.9740  130.4110  150.3957 LP  0  0  0  0  0  0  0  0  0  0  0  0  # atno 17370 bound_to 10713
  157.2036  131.0444  151.2637 LP  0  0  0  0  0  0  0  0  0  0  0  0  # atno 17371 bound_to 10713
  141.0806  134.0067  157.3391 LP  0  0  0  0  0  0  0  0  0  0  0  0  # atno 17394 bound_to 11000
  139.9191  135.0199  156.7997 LP  0  0  0  0  0  0  0  0  0  0  0  0  # atno 17395 bound_to 11000

$$$$
