AV-unprocessed.smi:798|AV-procd|sdf|3777|dock3
  -GOLD-   22720 1213D 1   1.00000     0.00000
 Structure written by MMmdl.
 33 35  0  0  0  0  0  0  0  0  2 V2000
  150.4775  142.1673  157.4135 O   0  0  0  0  0  0  0  0  0  0  0  0
  151.4250  141.5088  157.8489 C   0  0  0  0  0  0  0  0  0  0  0  0
  152.3976  141.9546  158.6763 N   0  5  0  0  0  0  0  0  0  0  0  0
  152.2358  143.1116  159.3393 C   0  0  0  0  0  0  0  0  0  0  0  0
  152.0453  143.1598  160.6676 N   0  0  0  0  0  0  0  0  0  0  0  0
  151.8962  144.4529  161.1510 N   0  0  0  0  0  0  0  0  0  0  0  0
  151.9708  145.3503  160.1685 C   0  0  0  0  0  0  0  0  0  0  0  0
  152.2251  144.6980  158.5637 S   0  0  0  0  0  0  0  0  0  0  0  0
  151.5518  140.2176  157.5126 N   0  0  0  0  0  0  0  0  0  0  0  0
  150.6373  139.4652  156.6547 C   0  0  2  0  0  0  0  0  0  0  0  0
  151.0298  137.9738  156.4884 C   0  0  2  0  0  0  0  0  0  0  0  0
  152.5107  137.8208  156.0800 C   0  0  0  0  0  0  0  0  0  0  0  0
  152.5180  138.3604  154.6379 C   0  0  0  0  0  0  0  0  0  0  0  0
  151.0365  138.7132  154.3980 C   0  0  1  0  0  0  0  0  0  0  0  0
  150.3303  137.6147  155.1841 C   0  0  0  0  0  0  0  0  0  0  0  0
  150.6746  139.9891  155.1939 C   0  0  1  0  0  0  0  0  0  0  0  0
  149.3460  140.6190  154.7321 C   0  0  0  0  0  0  0  0  0  0  0  0
  149.4651  141.1037  153.4116 O   0  0  0  0  0  0  0  0  0  0  0  0
  151.8714  146.4024  160.3891 H   0  0  0  0  0  0  0  0  0  0  0  0
  152.3441  139.7160  157.8861 H   0  0  0  0  0  0  0  0  0  0  0  0
  149.6248  139.5351  157.0572 H   0  0  0  0  0  0  0  0  0  0  0  0
  150.7492  137.3529  157.3396 H   0  0  0  0  0  0  0  0  0  0  0  0
  153.2016  138.3537  156.7333 H   0  0  0  0  0  0  0  0  0  0  0  0
  152.8013  136.7697  156.0919 H   0  0  0  0  0  0  0  0  0  0  0  0
  153.1752  139.2227  154.5202 H   0  0  0  0  0  0  0  0  0  0  0  0
  152.8524  137.5890  153.9432 H   0  0  0  0  0  0  0  0  0  0  0  0
  150.7745  138.7635  153.3407 H   0  0  0  0  0  0  0  0  0  0  0  0
  150.5641  136.6094  154.8292 H   0  0  0  0  0  0  0  0  0  0  0  0
  149.2466  137.7306  155.2284 H   0  0  0  0  0  0  0  0  0  0  0  0
  151.4647  140.7301  155.0572 H   0  0  0  0  0  0  0  0  0  0  0  0
  148.5494  139.8749  154.7506 H   0  0  0  0  0  0  0  0  0  0  0  0
  149.0397  141.4343  155.3876 H   0  0  0  0  0  0  0  0  0  0  0  0
  149.3629  140.3790  152.8141 H   0  0  0  0  0  0  0  0  0  0  0  0
  1  2  2  0  0  0  0
  2  3  1  0  0  0  0
  2  9  1  0  0  0  0
  3  4  1  0  0  0  0
  4  8  1  0  0  0  0
  4  5  2  0  0  0  0
  5  6  1  0  0  0  0
  6  7  2  0  0  0  0
  7  8  1  0  0  0  0
  7 19  1  0  0  0  0
  9 10  1  0  0  0  0
  9 20  1  0  0  0  0
 10 16  1  0  0  0  0
 10 11  1  0  0  0  0
 10 21  1  0  0  0  0
 11 15  1  0  0  0  0
 11 12  1  0  0  0  0
 11 22  1  0  0  0  0
 12 13  1  0  0  0  0
 12 23  1  0  0  0  0
 12 24  1  0  0  0  0
 13 14  1  0  0  0  0
 13 25  1  0  0  0  0
 13 26  1  0  0  0  0
 14 15  1  0  0  0  0
 14 16  1  0  0  0  0
 14 27  1  0  0  0  0
 15 28  1  0  0  0  0
 15 29  1  0  0  0  0
 16 17  1  0  0  0  0
 16 30  1  0  0  0  0
 17 18  1  0  0  0  0
 17 31  1  0  0  0  0
 17 32  1  0  0  0  0
 18 33  1  0  0  0  0
M  CHG  1   3  -1
M  END
> <s_m_source_file>
AV-unprocessed.smi

> <i_m_source_file_index>
798

> <i_lp_mmshare_version>
43012

> <i_f3d_flags>
0

> <s_epik_input>
W0NIMl0xW0NIMl1bQ0BASF0oW0NIMl0yKVtDQEBIXShbQ0gyXVtPSF0pW0NAQEhdKFtDQEhdMTIpW05IXUMoPU8pW05IXWMzbm5bY0hdczM=

> <s_epik_cmdline>
J2VwaWtfcHl0aG9uJywgJy1waCcsICc3LjAnLCAnLXRuJywgJzgnLCAnLW1hJywgJzIwMCcsICctbWV0YWxfYmluZGluZycsICctaW1hZScsICc8aW5maWxlLm1hZT4nLCAnLW9tYWUnLCAnPG91dGZpbGUubWFlPic=

> <r_lp_tautomer_probability>
1

> <r_epik_Ionization_Penalty>
4.53732

> <r_epik_Ionization_Penalty_Charging>
4.48632

> <r_epik_Ionization_Penalty_Neutral>
0.0510007

> <r_epik_State_Penalty>
4.48602

> <r_epik_Charging_Adjusted_Penalty>
8.97234

> <i_epik_Tot_Q>
-1

> <i_epik_Tot_abs_Q>
1

> <r_epik_Metal_State_Penalty>
0.812492

> <b_epik_Metal_Only>
1

> <s_lp_Force_Field>
OPLS_2005

> <r_lp_Energy>
46.8419

> <b_lp_Chiralities_Consistent>
1

> <s_lp_Variant>
AV-unprocessed.smi:798-9

> <Gold.Version>
5.8.1

> <Gold.Id.Protein>
6NUR|6NUR_protein|mol2

> <Gold.PLP.Fitness>
40.5199

> <Gold.PLP.PLP>
-36.4043

> <Gold.PLP.part.hbond>
-2.8980

> <Gold.PLP.part.metal>
0.0000

> <Gold.PLP.part.buried>
-6.0446

> <Gold.PLP.part.nonpolar>
-28.0064

> <Gold.PLP.part.repulsive>
0.4093

> <Gold.PLP.ligand.clash>
0.0000

> <Gold.PLP.ligand.torsion>
0.7467

> <Gold.PLP.Chemscore.Hbond>
1.8572

> <Gold.PLP.Chemscore.CHOScore>
0.0000

> <Gold.PLP.Chemscore.Metal>
0.0000

> <Gold.Chemscore.Hbonds>
donor molecule, donor type, donor heavy atom, donor atom, acceptor molecule, acceptor atom, score
      L1  H    18    33       P1  7957  0.77
      P1  H  7989  7998       L1    18  0.05
      P1  H  8011  8017       L1    18  1.00

> <Gold.PLP.Chemscore.Internal.Correction>
0.0374

> <Gold.Rescore>
     Score         DG    S(hbond)    S(metal)    S(lipo)     H(rot)  DE(clash)    DE(int)     intcor
     13.63     -14.30       1.39        0.00      77.60       1.92       0.02       0.65       ----

> <Gold.Chemscore.Fitness>
13.6252

> <Gold.Chemscore.DG>
-14.3012

> <Gold.Chemscore.ZeroCoef>
-5.4800

> <Gold.Chemscore.Hbond>
1.3949

> <Gold.Chemscore.Metal>
0.0000

> <Gold.Chemscore.Lipo>
77.5989

> <Gold.Chemscore.Internal_Hbond>
0.0000

> <Gold.Chemscore.DEClash>
0.0234

> <Gold.Chemscore.DEInternal>
0.6526

> <Gold.Chemscore.Rot>
1.9207

> <Gold.Chemscore.Internal.Correction>
   9.000000E+99

> <Gold.Chemscore.Hbonds>
donor molecule, donor type, donor heavy atom, donor atom, acceptor molecule, acceptor atom, score
      L1  H    18    33       P1  7957  0.76
      P1  H  8011  8017       L1    18  0.34

> <Gold.Chemscore.Hbond.Weighted>
-4.6590

> <Gold.Chemscore.Metal.Weighted>
-0.0000

> <Gold.Chemscore.Lipo.Weighted>
-9.0791

> <Gold.Chemscore.Internal_Hbond.Weighted>
0.0000

> <Gold.Chemscore.DEClash.Weighted>
0.0234

> <Gold.Chemscore.DEInternal.Weighted>
0.6526

> <Gold.Chemscore.Rot.Weighted>
4.9169

> <Gold.Chemscore.Internal.Correction.Weighted>
   9.000000E+99

> <Gold.Protein.RotatedTorsions>
[ 6907 6896 6895 6894 ] final  172.68 input  -60.11 | X-H torsion
[ 7974 7965 7964 7962 ] final  -92.77 input  175.53 | X-H torsion
[ 8008 7997 7996 7995 ] final   87.57 input   59.86 | X-H torsion
[ 10167 10162 10161 10158 ] final  146.03 input  -65.29 | X-H torsion
[ 10718 10713 10712 10709 ] final   88.23 input   66.30 | X-H torsion
[ 10763 10752 10751 10750 ] final -178.88 input  -60.55 | X-H torsion
[ 11005 11000 10999 10996 ] final   26.70 input  -57.11 | X-H torsion

> <Gold.Protein.ActiveResidues>
 VAL166  LYS551  ARG553  GLY616  TRP617  ASP618  TYR619  PRO620  LYS621  CYS622 
 ASP623  PHE694  ASN695  SER759  ASP760  ASP761  ALA762  ILE779  LEU786  VAL792 
 PHE793  MET794  SER795  GLU796  ALA797  LYS798  CYS799  TRP800  GLU811  SER814 

> <Gold.Protein.RotatedAtoms>
  151.7804  133.3349  159.3469 H   0  0  0  0  0  0  0  0  0  0  0  0  # atno 6907 bound_to 6896
  150.7428  134.5936  159.6010 H   0  0  0  0  0  0  0  0  0  0  0  0  # atno 6908 bound_to 6896
  152.3280  134.7297  160.0348 H   0  0  0  0  0  0  0  0  0  0  0  0  # atno 6909 bound_to 6896
  145.3954  140.9532  143.2317 H   0  0  0  0  0  0  0  0  0  0  0  0  # atno 7974 bound_to 7965
  155.9770  140.3380  155.6628 H   0  0  0  0  0  0  0  0  0  0  0  0  # atno 8008 bound_to 7997
  155.6599  140.0715  157.2576 H   0  0  0  0  0  0  0  0  0  0  0  0  # atno 8009 bound_to 7997
  154.4181  140.1710  156.1752 H   0  0  0  0  0  0  0  0  0  0  0  0  # atno 8010 bound_to 7997
  139.4915  144.5859  151.6779 H   0  0  0  0  0  0  0  0  0  0  0  0  # atno 10167 bound_to 10162
  157.6947  131.0287  150.3244 H   0  0  0  0  0  0  0  0  0  0  0  0  # atno 10718 bound_to 10713
  154.5421  135.2807  155.1086 H   0  0  0  0  0  0  0  0  0  0  0  0  # atno 10763 bound_to 10752
  154.2565  135.6330  153.5262 H   0  0  0  0  0  0  0  0  0  0  0  0  # atno 10764 bound_to 10752
  152.9981  135.5595  154.5963 H   0  0  0  0  0  0  0  0  0  0  0  0  # atno 10765 bound_to 10752
  140.3342  134.2404  155.7698 H   0  0  0  0  0  0  0  0  0  0  0  0  # atno 11005 bound_to 11000
  144.8411  139.5471  143.6900 LP  0  0  0  0  0  0  0  0  0  0  0  0  # atno 17320 bound_to 7965
  146.2777  139.6796  142.9251 LP  0  0  0  0  0  0  0  0  0  0  0  0  # atno 17321 bound_to 7965
  140.5475  144.0479  150.6113 LP  0  0  0  0  0  0  0  0  0  0  0  0  # atno 17342 bound_to 10162
  140.3522  143.2956  152.0474 LP  0  0  0  0  0  0  0  0  0  0  0  0  # atno 17343 bound_to 10162
  156.3726  130.3866  149.7163 LP  0  0  0  0  0  0  0  0  0  0  0  0  # atno 17370 bound_to 10713
  156.4572  130.7935  151.2955 LP  0  0  0  0  0  0  0  0  0  0  0  0  # atno 17371 bound_to 10713
  141.2055  133.7857  157.0227 LP  0  0  0  0  0  0  0  0  0  0  0  0  # atno 17394 bound_to 11000
  140.0835  134.9634  157.1662 LP  0  0  0  0  0  0  0  0  0  0  0  0  # atno 17395 bound_to 11000

$$$$
