AV-unprocessed.smi:2976|AV-procd|sdf|11363|dock3
  -GOLD-   2272016283D 1   1.00000     0.00000
 Structure written by MMmdl.
 40 41  0  0  0  0  0  0  0  0  1 V2000
  152.4054  142.3537  159.3117 C   0  0  0  0  0  0  0  0  0  0  0  0
  151.8398  143.3674  158.2958 C   0  0  2  0  0  0  0  0  0  0  0  0
  152.4960  144.7540  158.4511 C   0  0  0  0  0  0  0  0  0  0  0  0
  152.0130  145.4855  159.7126 C   0  0  0  0  0  0  0  0  0  0  0  0
  150.4836  145.6116  159.7262 C   0  0  0  0  0  0  0  0  0  0  0  0
  149.7885  144.2439  159.5784 C   0  0  1  0  0  0  0  0  0  0  0  0
  148.3440  144.4662  159.5154 N   0  0  0  0  0  0  0  0  0  0  0  0
  147.4997  144.4814  160.5588 C   0  0  0  0  0  0  0  0  0  0  0  0
  147.8548  144.2844  161.7218 O   0  0  0  0  0  0  0  0  0  0  0  0
  146.0247  144.7364  160.2155 C   0  0  0  0  0  0  0  0  0  0  0  0
  145.7893  146.0220  159.5417 N   0  0  0  0  0  0  0  0  0  0  0  0
  146.3509  147.1081  160.1899 N   0  0  0  0  0  0  0  0  0  0  0  0
  146.2195  148.2859  159.6844 C   0  0  0  0  0  0  0  0  0  0  0  0
  145.4965  148.5199  158.4543 C   0  0  0  0  0  0  0  0  0  0  0  0
  145.3526  150.1233  157.8251 Cl  0  0  0  0  0  0  0  0  0  0  0  0
  144.9470  147.4488  157.8283 C   0  0  0  0  0  0  0  0  0  0  0  0
  144.0681  147.6497  156.3513 Cl  0  0  0  0  0  0  0  0  0  0  0  0
  145.0765  146.0908  158.3753 C   0  0  0  0  0  0  0  0  0  0  0  0
  144.5907  145.0940  157.8392 O   0  0  0  0  0  0  0  0  0  0  0  0
  150.2922  143.4914  158.3165 C   0  0  2  0  0  0  0  0  0  0  0  0
  149.5970  142.1322  158.1004 C   0  0  0  0  0  0  0  0  0  0  0  0
  152.1183  142.5912  160.3355 H   0  0  0  0  0  0  0  0  0  0  0  0
  153.4948  142.3330  159.2740 H   0  0  0  0  0  0  0  0  0  0  0  0
  152.0632  141.3410  159.0988 H   0  0  0  0  0  0  0  0  0  0  0  0
  152.1226  142.9974  157.3092 H   0  0  0  0  0  0  0  0  0  0  0  0
  153.5822  144.6595  158.4673 H   0  0  0  0  0  0  0  0  0  0  0  0
  152.2609  145.3621  157.5766 H   0  0  0  0  0  0  0  0  0  0  0  0
  152.3478  144.9558  160.6048 H   0  0  0  0  0  0  0  0  0  0  0  0
  152.4644  146.4767  159.7600 H   0  0  0  0  0  0  0  0  0  0  0  0
  150.1652  146.0938  160.6515 H   0  0  0  0  0  0  0  0  0  0  0  0
  150.1744  146.2714  158.9142 H   0  0  0  0  0  0  0  0  0  0  0  0
  150.0310  143.6504  160.4614 H   0  0  0  0  0  0  0  0  0  0  0  0
  147.9553  144.6293  158.5978 H   0  0  0  0  0  0  0  0  0  0  0  0
  145.6515  143.9169  159.5981 H   0  0  0  0  0  0  0  0  0  0  0  0
  145.4503  144.6879  161.1424 H   0  0  0  0  0  0  0  0  0  0  0  0
  146.6465  149.1698  160.1580 H   0  0  0  0  0  0  0  0  0  0  0  0
  150.0254  144.1057  157.4548 H   0  0  0  0  0  0  0  0  0  0  0  0
  149.6946  141.4885  158.9749 H   0  0  0  0  0  0  0  0  0  0  0  0
  150.0225  141.6048  157.2465 H   0  0  0  0  0  0  0  0  0  0  0  0
  148.5322  142.2544  157.9026 H   0  0  0  0  0  0  0  0  0  0  0  0
  1  2  1  0  0  0  0
  1 22  1  0  0  0  0
  1 23  1  0  0  0  0
  1 24  1  0  0  0  0
  2 20  1  0  0  0  0
  2  3  1  0  0  0  0
  2 25  1  0  0  0  0
  3  4  1  0  0  0  0
  3 26  1  0  0  0  0
  3 27  1  0  0  0  0
  4  5  1  0  0  0  0
  4 28  1  0  0  0  0
  4 29  1  0  0  0  0
  5  6  1  0  0  0  0
  5 30  1  0  0  0  0
  5 31  1  0  0  0  0
  6  7  1  0  0  0  0
  6 20  1  0  0  0  0
  6 32  1  0  0  0  0
  7  8  1  0  0  0  0
  7 33  1  0  0  0  0
  8  9  2  0  0  0  0
  8 10  1  0  0  0  0
 10 11  1  0  0  0  0
 10 34  1  0  0  0  0
 10 35  1  0  0  0  0
 11 18  1  0  0  0  0
 11 12  1  0  0  0  0
 12 13  2  0  0  0  0
 13 14  1  0  0  0  0
 13 36  1  0  0  0  0
 14 15  1  0  0  0  0
 14 16  2  0  0  0  0
 16 17  1  0  0  0  0
 16 18  1  0  0  0  0
 18 19  2  0  0  0  0
 20 21  1  0  0  0  0
 20 37  1  0  0  0  0
 21 38  1  0  0  0  0
 21 39  1  0  0  0  0
 21 40  1  0  0  0  0
M  END
> <s_m_source_file>
AV-unprocessed.smi

> <i_m_source_file_index>
2976

> <i_lp_mmshare_version>
43012

> <i_f3d_flags>
0

> <s_epik_input>
W0NIM11bQ0BASF0xW0NIMl1bQ0gyXVtDSDJdW0NASF0oW0NASF0xW0NIM10pW05IXUMoPU8pW0NIMl1uMm5bY0hdYyhDbCljKENsKWMyPU8=

> <s_epik_cmdline>
J2VwaWtfcHl0aG9uJywgJy1waCcsICc3LjAnLCAnLXRuJywgJzgnLCAnLW1hJywgJzIwMCcsICctbWV0YWxfYmluZGluZycsICctaW1hZScsICc8aW5maWxlLm1hZT4nLCAnLW9tYWUnLCAnPG91dGZpbGUubWFlPic=

> <r_lp_tautomer_probability>
1

> <r_epik_Ionization_Penalty>
1.90777e-08

> <r_epik_Ionization_Penalty_Charging>
3.07942e-11

> <r_epik_Ionization_Penalty_Neutral>
1.90469e-08

> <r_epik_State_Penalty>
-0

> <r_epik_Charging_Adjusted_Penalty>
3.07942e-11

> <i_epik_Tot_Q>
0

> <i_epik_Tot_abs_Q>
0

> <r_epik_Metal_State_Penalty>
-0

> <b_epik_Metal_Only>
0

> <s_lp_Force_Field>
OPLS_2005

> <r_lp_Energy>
28.556

> <b_lp_Chiralities_Consistent>
1

> <s_lp_Variant>
AV-unprocessed.smi:2976-5

> <Gold.Version>
5.8.1

> <Gold.Id.Protein>
6NUR|6NUR_protein|mol2

> <Gold.PLP.Fitness>
47.3827

> <Gold.PLP.PLP>
-42.6760

> <Gold.PLP.part.hbond>
-2.5877

> <Gold.PLP.part.metal>
0.0000

> <Gold.PLP.part.buried>
-2.4504

> <Gold.PLP.part.nonpolar>
-37.3916

> <Gold.PLP.part.repulsive>
0.5644

> <Gold.PLP.ligand.clash>
0.0000

> <Gold.PLP.ligand.torsion>
0.4448

> <Gold.PLP.Chemscore.Hbond>
1.8640

> <Gold.PLP.Chemscore.CHOScore>
0.0000

> <Gold.PLP.Chemscore.Metal>
0.0000

> <Gold.Chemscore.Hbonds>
donor molecule, donor type, donor heavy atom, donor atom, acceptor molecule, acceptor atom, score
      L1  H     7    33       P1  8029  0.82
      P1  H  6933  6944       L1     9  0.88

> <Gold.PLP.Chemscore.Internal.Correction>
0.0043

> <Gold.Rescore>
     Score         DG    S(hbond)    S(metal)    S(lipo)     H(rot)  DE(clash)    DE(int)     intcor
     19.85     -21.60       1.73        0.00     121.06       1.49       1.24       0.52       ----

> <Gold.Chemscore.Fitness>
19.8456

> <Gold.Chemscore.DG>
-21.6006

> <Gold.Chemscore.ZeroCoef>
-5.4800

> <Gold.Chemscore.Hbond>
1.7254

> <Gold.Chemscore.Metal>
0.0000

> <Gold.Chemscore.Lipo>
121.0552

> <Gold.Chemscore.Internal_Hbond>
0.0000

> <Gold.Chemscore.DEClash>
1.2385

> <Gold.Chemscore.DEInternal>
0.5165

> <Gold.Chemscore.Rot>
1.4866

> <Gold.Chemscore.Internal.Correction>
   9.000000E+99

> <Gold.Chemscore.Hbonds>
donor molecule, donor type, donor heavy atom, donor atom, acceptor molecule, acceptor atom, score
      L1  H     7    33       P1  8029  0.79
      P1  H  6933  6944       L1     9  0.16

> <Gold.Chemscore.Hbond.Weighted>
-5.7628

> <Gold.Chemscore.Metal.Weighted>
-0.0000

> <Gold.Chemscore.Lipo.Weighted>
-14.1635

> <Gold.Chemscore.Internal_Hbond.Weighted>
0.0000

> <Gold.Chemscore.DEClash.Weighted>
1.2385

> <Gold.Chemscore.DEInternal.Weighted>
0.5165

> <Gold.Chemscore.Rot.Weighted>
3.8057

> <Gold.Chemscore.Internal.Correction.Weighted>
   9.000000E+99

> <Gold.Protein.RotatedTorsions>
[ 6907 6896 6895 6894 ] final    4.61 input  -60.11 | X-H torsion
[ 7974 7965 7964 7962 ] final  153.93 input  175.53 | X-H torsion
[ 8008 7997 7996 7995 ] final  166.82 input   59.86 | X-H torsion
[ 10167 10162 10161 10158 ] final  -65.92 input  -65.29 | X-H torsion
[ 10718 10713 10712 10709 ] final -157.89 input   66.30 | X-H torsion
[ 10763 10752 10751 10750 ] final  -63.09 input  -60.55 | X-H torsion
[ 11005 11000 10999 10996 ] final  -40.46 input  -57.11 | X-H torsion

> <Gold.Protein.ActiveResidues>
 VAL166  LYS551  ARG553  GLY616  TRP617  ASP618  TYR619  PRO620  LYS621  CYS622 
 ASP623  PHE694  ASN695  SER759  ASP760  ASP761  ALA762  ILE779  LEU786  VAL792 
 PHE793  MET794  SER795  GLU796  ALA797  LYS798  CYS799  TRP800  GLU811  SER814 

> <Gold.Protein.RotatedAtoms>
  151.6442  135.1009  160.0147 H   0  0  0  0  0  0  0  0  0  0  0  0  # atno 6907 bound_to 6896
  152.4037  133.6852  159.6347 H   0  0  0  0  0  0  0  0  0  0  0  0  # atno 6908 bound_to 6896
  150.7934  133.8663  159.3287 H   0  0  0  0  0  0  0  0  0  0  0  0  # atno 6909 bound_to 6896
  144.8122  139.6866  143.6137 H   0  0  0  0  0  0  0  0  0  0  0  0  # atno 7974 bound_to 7965
  156.1686  140.1633  156.8487 H   0  0  0  0  0  0  0  0  0  0  0  0  # atno 8008 bound_to 7997
  154.5233  140.0773  156.8247 H   0  0  0  0  0  0  0  0  0  0  0  0  # atno 8009 bound_to 7997
  155.3559  140.3392  155.4242 H   0  0  0  0  0  0  0  0  0  0  0  0  # atno 8010 bound_to 7997
  140.5695  143.2317  151.6568 H   0  0  0  0  0  0  0  0  0  0  0  0  # atno 10167 bound_to 10162
  156.5465  130.8586  151.2766 H   0  0  0  0  0  0  0  0  0  0  0  0  # atno 10718 bound_to 10713
  154.3097  135.6218  153.5460 H   0  0  0  0  0  0  0  0  0  0  0  0  # atno 10763 bound_to 10752
  152.9831  135.5698  154.5191 H   0  0  0  0  0  0  0  0  0  0  0  0  # atno 10764 bound_to 10752
  154.4838  135.2864  155.1526 H   0  0  0  0  0  0  0  0  0  0  0  0  # atno 10765 bound_to 10752
  141.0176  133.6878  156.2325 H   0  0  0  0  0  0  0  0  0  0  0  0  # atno 11005 bound_to 11000
  146.2422  139.6024  142.9484 LP  0  0  0  0  0  0  0  0  0  0  0  0  # atno 17320 bound_to 7965
  145.5297  141.0427  143.2389 LP  0  0  0  0  0  0  0  0  0  0  0  0  # atno 17321 bound_to 7965
  139.5110  144.3524  152.0639 LP  0  0  0  0  0  0  0  0  0  0  0  0  # atno 17342 bound_to 10162
  140.2660  144.4016  150.6168 LP  0  0  0  0  0  0  0  0  0  0  0  0  # atno 17343 bound_to 10162
  157.7395  130.9834  150.2321 LP  0  0  0  0  0  0  0  0  0  0  0  0  # atno 17370 bound_to 10713
  156.2924  130.3747  149.7829 LP  0  0  0  0  0  0  0  0  0  0  0  0  # atno 17371 bound_to 10713
  140.6628  134.4950  157.5584 LP  0  0  0  0  0  0  0  0  0  0  0  0  # atno 17394 bound_to 11000
  139.9126  134.8312  156.1474 LP  0  0  0  0  0  0  0  0  0  0  0  0  # atno 17395 bound_to 11000

$$$$
