AV-unprocessed.smi:1899|AV-procd|sdf|7708|dock10
  -GOLD-   22720 9443D 1   1.00000     0.00000
 Structure written by MMmdl.
 33 34  0  0  0  0  0  0  0  0  1 V2000
  152.3253  140.5837  158.4104 O   0  0  0  0  0  0  0  0  0  0  0  0
  151.5241  141.4436  158.0430 C   0  0  0  0  0  0  0  0  0  0  0  0
  150.7663  141.3190  156.9429 N   0  0  0  0  0  0  0  0  0  0  0  0
  150.7456  140.1552  156.0621 C   0  0  0  0  0  0  0  0  0  0  0  0
  150.3630  140.5190  154.6143 C   0  0  0  0  0  0  0  0  0  0  0  0
  148.9432  140.7791  154.4687 N   0  0  0  0  0  0  0  0  0  0  0  0
  148.0454  140.0997  153.6563 C   0  0  0  0  0  0  0  0  0  0  0  0
  146.8193  140.6979  153.8404 C   0  0  0  0  0  0  0  0  0  0  0  0
  146.9385  141.7411  154.7559 N   0  0  0  0  0  0  0  0  0  0  0  0
  148.2235  141.7268  155.0856 C   0  0  0  0  0  0  0  0  0  0  0  0
  151.3422  142.7306  158.8578 C   0  0  1  0  0  0  0  0  0  0  0  0
  152.1808  142.6863  160.1559 C   0  0  0  0  0  0  0  0  0  0  0  0
  152.2390  144.0360  160.8494 C   0  0  0  0  0  0  0  0  0  0  0  0
  151.8978  145.1902  160.2514 C   0  0  0  0  0  0  0  0  0  0  0  0
  151.4184  145.2764  158.8132 C   0  0  0  0  0  0  0  0  0  0  0  0
  151.6960  143.9809  158.0274 C   0  0  0  0  0  0  0  0  0  0  0  0
  150.1372  142.0749  156.7134 H   0  0  0  0  0  0  0  0  0  0  0  0
  151.7331  139.6935  156.0814 H   0  0  0  0  0  0  0  0  0  0  0  0
  150.0513  139.4116  156.4563 H   0  0  0  0  0  0  0  0  0  0  0  0
  150.9064  141.4110  154.3008 H   0  0  0  0  0  0  0  0  0  0  0  0
  150.6486  139.7247  153.9232 H   0  0  0  0  0  0  0  0  0  0  0  0
  148.3452  139.2715  153.0311 H   0  0  0  0  0  0  0  0  0  0  0  0
  145.8682  140.4600  153.3873 H   0  0  0  0  0  0  0  0  0  0  0  0
  148.6535  142.4266  155.7874 H   0  0  0  0  0  0  0  0  0  0  0  0
  150.2900  142.8104  159.1383 H   0  0  0  0  0  0  0  0  0  0  0  0
  151.7515  141.9596  160.8466 H   0  0  0  0  0  0  0  0  0  0  0  0
  153.2049  142.3672  159.9571 H   0  0  0  0  0  0  0  0  0  0  0  0
  152.5876  144.0439  161.8717 H   0  0  0  0  0  0  0  0  0  0  0  0
  151.9497  146.1171  160.8037 H   0  0  0  0  0  0  0  0  0  0  0  0
  150.3489  145.4875  158.8266 H   0  0  0  0  0  0  0  0  0  0  0  0
  151.9031  146.1201  158.3211 H   0  0  0  0  0  0  0  0  0  0  0  0
  152.7523  143.9503  157.7547 H   0  0  0  0  0  0  0  0  0  0  0  0
  151.1378  143.9945  157.0901 H   0  0  0  0  0  0  0  0  0  0  0  0
  1  2  2  0  0  0  0
  2  3  1  0  0  0  0
  2 11  1  0  0  0  0
  3  4  1  0  0  0  0
  3 17  1  0  0  0  0
  4  5  1  0  0  0  0
  4 18  1  0  0  0  0
  4 19  1  0  0  0  0
  5  6  1  0  0  0  0
  5 20  1  0  0  0  0
  5 21  1  0  0  0  0
  6 10  1  0  0  0  0
  6  7  1  0  0  0  0
  7  8  2  0  0  0  0
  7 22  1  0  0  0  0
  8  9  1  0  0  0  0
  8 23  1  0  0  0  0
  9 10  2  0  0  0  0
 10 24  1  0  0  0  0
 11 16  1  0  0  0  0
 11 12  1  0  0  0  0
 11 25  1  0  0  0  0
 12 13  1  0  0  0  0
 12 26  1  0  0  0  0
 12 27  1  0  0  0  0
 13 14  2  0  0  0  0
 13 28  1  0  0  0  0
 14 15  1  0  0  0  0
 14 29  1  0  0  0  0
 15 16  1  0  0  0  0
 15 30  1  0  0  0  0
 15 31  1  0  0  0  0
 16 32  1  0  0  0  0
 16 33  1  0  0  0  0
M  END
> <s_m_source_file>
AV-unprocessed.smi

> <i_m_source_file_index>
1899

> <i_lp_mmshare_version>
43012

> <i_f3d_flags>
0

> <s_epik_input>
W0NIMl0xW0NIMl1bQ0hdPVtDSF1bQ0gyXVtDQEhdMUMoPU8pW05IXVtDSDJdW0NIMl1uMltjSF1bY0hdbltjSF0y

> <s_epik_cmdline>
J2VwaWtfcHl0aG9uJywgJy1waCcsICc3LjAnLCAnLXRuJywgJzgnLCAnLW1hJywgJzIwMCcsICctbWV0YWxfYmluZGluZycsICctaW1hZScsICc8aW5maWxlLm1hZT4nLCAnLW9tYWUnLCAnPG91dGZpbGUubWFlPic=

> <r_lp_tautomer_probability>
1

> <r_epik_Ionization_Penalty>
0.598506

> <r_epik_Ionization_Penalty_Charging>
0.598506

> <r_epik_Ionization_Penalty_Neutral>
1.57027e-08

> <r_epik_State_Penalty>
0.612686

> <r_epik_Charging_Adjusted_Penalty>
1.21119

> <i_epik_Tot_Q>
0

> <i_epik_Tot_abs_Q>
0

> <r_epik_Metal_State_Penalty>
0.300712

> <b_epik_Metal_Only>
0

> <s_lp_Force_Field>
OPLS_2005

> <r_lp_Energy>
10.0214

> <b_lp_Chiralities_Consistent>
1

> <s_lp_Variant>
AV-unprocessed.smi:1899-4

> <Gold.Version>
5.8.1

> <Gold.Id.Protein>
6NUR|6NUR_protein|mol2

> <Gold.PLP.Fitness>
41.8770

> <Gold.PLP.PLP>
-34.5304

> <Gold.PLP.part.hbond>
0.0000

> <Gold.PLP.part.metal>
0.0000

> <Gold.PLP.part.buried>
0.8496

> <Gold.PLP.part.nonpolar>
-34.5838

> <Gold.PLP.part.repulsive>
0.1755

> <Gold.PLP.ligand.clash>
0.0000

> <Gold.PLP.ligand.torsion>
0.2676

> <Gold.PLP.Chemscore.Hbond>
0.0000

> <Gold.PLP.Chemscore.CHOScore>
2.6189

> <Gold.PLP.Chemscore.Metal>
0.0000

> <Gold.Chemscore.Hbonds>
donor molecule, donor type, donor heavy atom, donor atom, acceptor molecule, acceptor atom, score
      L1  C     7    22       P1  7957  0.63
      L1  C     8    23       P1 10175  1.00
      L1  C    10    24       P1  8028  1.00

> <Gold.PLP.Chemscore.Internal.Correction>
0.0251

> <Gold.Rescore>
     Score         DG    S(hbond)    S(metal)    S(lipo)     H(rot)  DE(clash)    DE(int)     intcor
     11.05     -11.36       0.00        0.00      89.75       1.80       0.05       0.26       ----

> <Gold.Chemscore.Fitness>
11.0522

> <Gold.Chemscore.DG>
-11.3604

> <Gold.Chemscore.ZeroCoef>
-5.4800

> <Gold.Chemscore.Hbond>
0.0000

> <Gold.Chemscore.Metal>
0.0000

> <Gold.Chemscore.Lipo>
89.7492

> <Gold.Chemscore.Internal_Hbond>
0.0000

> <Gold.Chemscore.DEClash>
0.0469

> <Gold.Chemscore.DEInternal>
0.2613

> <Gold.Chemscore.Rot>
1.8048

> <Gold.Chemscore.Internal.Correction>
   9.000000E+99

> <Gold.Chemscore.Hbond.Weighted>
-0.0000

> <Gold.Chemscore.Metal.Weighted>
-0.0000

> <Gold.Chemscore.Lipo.Weighted>
-10.5007

> <Gold.Chemscore.Internal_Hbond.Weighted>
0.0000

> <Gold.Chemscore.DEClash.Weighted>
0.0469

> <Gold.Chemscore.DEInternal.Weighted>
0.2613

> <Gold.Chemscore.Rot.Weighted>
4.6203

> <Gold.Chemscore.Internal.Correction.Weighted>
   9.000000E+99

> <Gold.Protein.RotatedTorsions>
[ 6907 6896 6895 6894 ] final  160.18 input  -60.11 | X-H torsion
[ 7974 7965 7964 7962 ] final -165.07 input  175.53 | X-H torsion
[ 8008 7997 7996 7995 ] final  138.10 input   59.86 | X-H torsion
[ 10167 10162 10161 10158 ] final   29.86 input  -65.29 | X-H torsion
[ 10718 10713 10712 10709 ] final  113.35 input   66.30 | X-H torsion
[ 10763 10752 10751 10750 ] final  -11.34 input  -60.55 | X-H torsion
[ 11005 11000 10999 10996 ] final   -3.94 input  -57.11 | X-H torsion

> <Gold.Protein.ActiveResidues>
 VAL166  LYS551  ARG553  GLY616  TRP617  ASP618  TYR619  PRO620  LYS621  CYS622 
 ASP623  PHE694  ASN695  SER759  ASP760  ASP761  ALA762  ILE779  LEU786  VAL792 
 PHE793  MET794  SER795  GLU796  ALA797  LYS798  CYS799  TRP800  GLU811  SER814 

> <Gold.Protein.RotatedAtoms>
  151.9745  133.3737  159.4083 H   0  0  0  0  0  0  0  0  0  0  0  0  # atno 6907 bound_to 6896
  150.6944  134.4105  159.5169 H   0  0  0  0  0  0  0  0  0  0  0  0  # atno 6908 bound_to 6896
  152.1814  134.8750  160.0576 H   0  0  0  0  0  0  0  0  0  0  0  0  # atno 6909 bound_to 6896
  144.7280  140.2868  143.6227 H   0  0  0  0  0  0  0  0  0  0  0  0  # atno 7974 bound_to 7965
  156.2999  140.2402  156.4017 H   0  0  0  0  0  0  0  0  0  0  0  0  # atno 8008 bound_to 7997
  154.8521  140.0423  157.1630 H   0  0  0  0  0  0  0  0  0  0  0  0  # atno 8009 bound_to 7997
  154.8988  140.2974  155.5333 H   0  0  0  0  0  0  0  0  0  0  0  0  # atno 8010 bound_to 7997
  140.4729  144.0735  150.6242 H   0  0  0  0  0  0  0  0  0  0  0  0  # atno 10167 bound_to 10162
  157.6343  131.0982  150.7028 H   0  0  0  0  0  0  0  0  0  0  0  0  # atno 10718 bound_to 10713
  153.4823  135.7017  153.5931 H   0  0  0  0  0  0  0  0  0  0  0  0  # atno 10763 bound_to 10752
  153.4139  135.3842  155.2068 H   0  0  0  0  0  0  0  0  0  0  0  0  # atno 10764 bound_to 10752
  154.8721  135.3911  154.4274 H   0  0  0  0  0  0  0  0  0  0  0  0  # atno 10765 bound_to 10752
  140.6748  133.9205  155.8517 H   0  0  0  0  0  0  0  0  0  0  0  0  # atno 11005 bound_to 11000
  145.7894  139.1921  143.2111 LP  0  0  0  0  0  0  0  0  0  0  0  0  # atno 17320 bound_to 7965
  146.0768  140.7808  142.9661 LP  0  0  0  0  0  0  0  0  0  0  0  0  # atno 17321 bound_to 7965
  140.3954  143.2730  152.0010 LP  0  0  0  0  0  0  0  0  0  0  0  0  # atno 17342 bound_to 10162
  139.4821  144.6042  151.7551 LP  0  0  0  0  0  0  0  0  0  0  0  0  # atno 17343 bound_to 10162
  156.7362  130.4725  149.5488 LP  0  0  0  0  0  0  0  0  0  0  0  0  # atno 17370 bound_to 10713
  156.1569  130.6348  151.0669 LP  0  0  0  0  0  0  0  0  0  0  0  0  # atno 17371 bound_to 10713
  141.0364  134.0684  157.3954 LP  0  0  0  0  0  0  0  0  0  0  0  0  # atno 17394 bound_to 11000
  139.8970  135.0148  156.7079 LP  0  0  0  0  0  0  0  0  0  0  0  0  # atno 17395 bound_to 11000

$$$$
