AV-unprocessed.smi:1261|AV-procd|sdf|5304|dock4
  -GOLD-   22720 4423D 1   1.00000     0.00000
 Structure written by MMmdl.
 49 50  0  0  0  0  0  0  0  0  3 V2000
  145.9091  132.0715  149.9256 C   0  0  0  0  0  0  0  0  0  0  0  0
  146.1648  133.3316  150.7646 C   0  0  1  0  0  0  0  0  0  0  0  0
  144.8564  134.0924  151.0458 C   0  0  0  0  0  0  0  0  0  0  0  0
  145.0920  135.3205  151.9445 C   0  0  2  0  0  0  0  0  0  0  0  0
  145.7626  136.4883  151.2002 C   0  0  0  0  0  0  0  0  0  0  0  0
  145.8628  134.9200  153.2183 C   0  0  0  0  0  0  0  0  0  0  0  0
  147.1292  134.2105  152.8979 N   0  3  1  0  0  0  0  0  0  0  0  0
  147.9479  133.9526  154.1100 C   0  0  0  0  0  0  0  0  0  0  0  0
  148.7790  135.1760  154.5325 C   0  0  0  0  0  0  0  0  0  0  0  0
  149.2904  135.0614  155.9775 C   0  0  0  0  0  0  0  0  0  0  0  0
  148.4088  135.7464  156.9137 N   0  0  0  0  0  0  0  0  0  0  0  0
  148.6313  135.8746  158.2307 C   0  0  0  0  0  0  0  0  0  0  0  0
  149.6374  135.4418  158.7933 O   0  0  0  0  0  0  0  0  0  0  0  0
  147.5587  136.6227  159.0295 C   0  0  0  0  0  0  0  0  0  0  0  0
  147.4226  136.0899  160.3907 N   0  0  0  0  0  0  0  0  0  0  0  0
  147.6217  137.0942  161.4324 N   0  5  0  0  0  0  0  0  0  0  0  0
  147.4897  136.7319  162.7359 C   0  0  0  0  0  0  0  0  0  0  0  0
  147.6290  137.5243  163.6649 O   0  0  0  0  0  0  0  0  0  0  0  0
  147.1714  135.3448  163.0316 C   0  0  0  0  0  0  0  0  0  0  0  0
  147.0048  134.4365  162.0500 C   0  0  0  0  0  0  0  0  0  0  0  0
  147.1276  134.7819  160.6389 C   0  0  0  0  0  0  0  0  0  0  0  0
  146.9735  133.9571  159.7382 O   0  0  0  0  0  0  0  0  0  0  0  0
  146.8792  132.9901  152.0859 C   0  0  0  0  0  0  0  0  0  0  0  0
  145.2567  131.3715  150.4486 H   0  0  0  0  0  0  0  0  0  0  0  0
  146.8415  131.5527  149.7014 H   0  0  0  0  0  0  0  0  0  0  0  0
  145.4359  132.3212  148.9755 H   0  0  0  0  0  0  0  0  0  0  0  0
  146.8219  133.9785  150.1820 H   0  0  0  0  0  0  0  0  0  0  0  0
  144.3836  134.3945  150.1103 H   0  0  0  0  0  0  0  0  0  0  0  0
  144.1509  133.4221  151.5392 H   0  0  0  0  0  0  0  0  0  0  0  0
  144.1122  135.6831  152.2579 H   0  0  0  0  0  0  0  0  0  0  0  0
  146.7710  136.2382  150.8710 H   0  0  0  0  0  0  0  0  0  0  0  0
  145.8347  137.3680  151.8404 H   0  0  0  0  0  0  0  0  0  0  0  0
  145.1870  136.7737  150.3192 H   0  0  0  0  0  0  0  0  0  0  0  0
  146.0716  135.8121  153.8103 H   0  0  0  0  0  0  0  0  0  0  0  0
  145.2415  134.2730  153.8397 H   0  0  0  0  0  0  0  0  0  0  0  0
  147.2859  133.6965  154.9383 H   0  0  0  0  0  0  0  0  0  0  0  0
  148.5894  133.0848  153.9486 H   0  0  0  0  0  0  0  0  0  0  0  0
  149.6314  135.3000  153.8651 H   0  0  0  0  0  0  0  0  0  0  0  0
  148.1747  136.0788  154.4349 H   0  0  0  0  0  0  0  0  0  0  0  0
  149.3457  134.0134  156.2729 H   0  0  0  0  0  0  0  0  0  0  0  0
  150.3030  135.4598  156.0590 H   0  0  0  0  0  0  0  0  0  0  0  0
  147.5468  136.1236  156.5458 H   0  0  0  0  0  0  0  0  0  0  0  0
  147.8106  137.6842  159.0591 H   0  0  0  0  0  0  0  0  0  0  0  0
  146.6058  136.5683  158.4995 H   0  0  0  0  0  0  0  0  0  0  0  0
  147.0676  135.0352  164.0610 H   0  0  0  0  0  0  0  0  0  0  0  0
  146.7699  133.4168  162.3163 H   0  0  0  0  0  0  0  0  0  0  0  0
  146.2840  132.2836  152.6670 H   0  0  0  0  0  0  0  0  0  0  0  0
  147.8199  132.4918  151.8557 H   0  0  0  0  0  0  0  0  0  0  0  0
  147.6668  134.8425  152.3220 H   0  0  0  0  0  0  0  0  0  0  0  0
  1  2  1  0  0  0  0
  1 24  1  0  0  0  0
  1 25  1  0  0  0  0
  1 26  1  0  0  0  0
  2 23  1  0  0  0  0
  2  3  1  0  0  0  0
  2 27  1  0  0  0  0
  3  4  1  0  0  0  0
  3 28  1  0  0  0  0
  3 29  1  0  0  0  0
  4  5  1  0  0  0  0
  4  6  1  0  0  0  0
  4 30  1  0  0  0  0
  5 31  1  0  0  0  0
  5 32  1  0  0  0  0
  5 33  1  0  0  0  0
  6  7  1  0  0  0  0
  6 34  1  0  0  0  0
  6 35  1  0  0  0  0
  7  8  1  0  0  0  0
  7 23  1  0  0  0  0
  7 49  1  0  0  0  0
  8  9  1  0  0  0  0
  8 36  1  0  0  0  0
  8 37  1  0  0  0  0
  9 10  1  0  0  0  0
  9 38  1  0  0  0  0
  9 39  1  0  0  0  0
 10 11  1  0  0  0  0
 10 40  1  0  0  0  0
 10 41  1  0  0  0  0
 11 12  1  0  0  0  0
 11 42  1  0  0  0  0
 12 13  2  0  0  0  0
 12 14  1  0  0  0  0
 14 43  1  0  0  0  0
 14 44  1  0  0  0  0
 14 15  1  0  0  0  0
 15 16  1  0  0  0  0
 15 21  1  0  0  0  0
 16 17  1  0  0  0  0
 17 18  2  0  0  0  0
 17 19  1  0  0  0  0
 19 45  1  0  0  0  0
 19 20  2  0  0  0  0
 20 46  1  0  0  0  0
 20 21  1  0  0  0  0
 21 22  2  0  0  0  0
 23 47  1  0  0  0  0
 23 48  1  0  0  0  0
M  CHG  1   7   1
M  CHG  1  16  -1
M  END
> <s_m_source_file>
AV-unprocessed.smi

> <i_m_source_file_index>
1261

> <i_lp_mmshare_version>
43012

> <i_f3d_flags>
0

> <s_epik_input>
W0NIM11bQ0BASF0xW0NIMl1bQ0BASF0oW0NIM10pW0NIMl1OKFtDSDJdMSlbQ0gyXVtDSDJdW0NIMl1bTkhdQyg9TylbQ0gyXW4yW25IXWMoPU8pW2NIXVtjSF1jMj1P

> <s_epik_cmdline>
J2VwaWtfcHl0aG9uJywgJy1waCcsICc3LjAnLCAnLXRuJywgJzgnLCAnLW1hJywgJzIwMCcsICctbWV0YWxfYmluZGluZycsICctaW1hZScsICc8aW5maWxlLm1hZT4nLCAnLW9tYWUnLCAnPG91dGZpbGUubWFlPic=

> <r_lp_tautomer_probability>
1

> <r_epik_Ionization_Penalty>
0.0955723

> <r_epik_Ionization_Penalty_Charging>
0.0955723

> <r_epik_Ionization_Penalty_Neutral>
2.68632e-08

> <r_epik_State_Penalty>
0.0334406

> <r_epik_Charging_Adjusted_Penalty>
0.129013

> <i_epik_Tot_Q>
0

> <i_epik_Tot_abs_Q>
2

> <r_epik_Metal_State_Penalty>
0.0334406

> <b_epik_Metal_Only>
0

> <s_lp_Force_Field>
OPLS_2005

> <r_lp_Energy>
33.6406

> <b_lp_Chiralities_Consistent>
1

> <s_lp_Variant>
AV-unprocessed.smi:1261-4

> <Gold.Version>
5.8.1

> <Gold.Id.Protein>
6NUR|6NUR_protein|mol2

> <Gold.PLP.Fitness>
52.6885

> <Gold.PLP.PLP>
-37.9460

> <Gold.PLP.part.hbond>
-4.9401

> <Gold.PLP.part.metal>
0.0000

> <Gold.PLP.part.buried>
-0.8060

> <Gold.PLP.part.nonpolar>
-33.4503

> <Gold.PLP.part.repulsive>
0.0593

> <Gold.PLP.ligand.clash>
0.0000

> <Gold.PLP.ligand.torsion>
0.9676

> <Gold.PLP.Chemscore.Hbond>
5.5320

> <Gold.PLP.Chemscore.CHOScore>
0.0000

> <Gold.PLP.Chemscore.Metal>
0.0000

> <Gold.Chemscore.Hbonds>
donor molecule, donor type, donor heavy atom, donor atom, acceptor molecule, acceptor atom, score
      L1  H     7    49       P1  7948  2.00
      P1  H  6896  6907       L1    13  1.00
      P1  H  6931  6943       L1    16  1.00
      P1  H  6934  6947       L1    16  1.68

> <Gold.PLP.Chemscore.Internal.Correction>
0.0817

> <Gold.Rescore>
     Score         DG    S(hbond)    S(metal)    S(lipo)     H(rot)  DE(clash)    DE(int)     intcor
     13.68     -16.97       2.66        0.00      76.76       2.49       1.15       2.14       ----

> <Gold.Chemscore.Fitness>
13.6806

> <Gold.Chemscore.DG>
-16.9724

> <Gold.Chemscore.ZeroCoef>
-5.4800

> <Gold.Chemscore.Hbond>
2.6634

> <Gold.Chemscore.Metal>
0.0000

> <Gold.Chemscore.Lipo>
76.7586

> <Gold.Chemscore.Internal_Hbond>
0.0000

> <Gold.Chemscore.DEClash>
1.1534

> <Gold.Chemscore.DEInternal>
2.1384

> <Gold.Chemscore.Rot>
2.4938

> <Gold.Chemscore.Internal.Correction>
   9.000000E+99

> <Gold.Chemscore.Hbonds>
donor molecule, donor type, donor heavy atom, donor atom, acceptor molecule, acceptor atom, score
      L1  H     7    49       P1  7948  0.88
      P1  H  6896  6907       L1    13  0.96
      P1  H  6931  6943       L1    16  0.02
      P1  H  6934  6947       L1    16  0.68

> <Gold.Chemscore.Hbond.Weighted>
-8.8957

> <Gold.Chemscore.Metal.Weighted>
-0.0000

> <Gold.Chemscore.Lipo.Weighted>
-8.9808

> <Gold.Chemscore.Internal_Hbond.Weighted>
0.0000

> <Gold.Chemscore.DEClash.Weighted>
1.1534

> <Gold.Chemscore.DEInternal.Weighted>
2.1384

> <Gold.Chemscore.Rot.Weighted>
6.3840

> <Gold.Chemscore.Internal.Correction.Weighted>
   9.000000E+99

> <Gold.Protein.RotatedTorsions>
[ 6907 6896 6895 6894 ] final  -82.30 input  -60.11 | X-H torsion
[ 7974 7965 7964 7962 ] final    7.29 input  175.53 | X-H torsion
[ 8008 7997 7996 7995 ] final   39.00 input   59.86 | X-H torsion
[ 10167 10162 10161 10158 ] final  -37.35 input  -65.29 | X-H torsion
[ 10718 10713 10712 10709 ] final    6.85 input   66.30 | X-H torsion
[ 10763 10752 10751 10750 ] final  123.19 input  -60.55 | X-H torsion
[ 11005 11000 10999 10996 ] final  -19.75 input  -57.11 | X-H torsion

> <Gold.Protein.ActiveResidues>
 VAL166  LYS551  ARG553  GLY616  TRP617  ASP618  TYR619  PRO620  LYS621  CYS622 
 ASP623  PHE694  ASN695  SER759  ASP760  ASP761  ALA762  ILE779  LEU786  VAL792 
 PHE793  MET794  SER795  GLU796  ALA797  LYS798  CYS799  TRP800  GLU811  SER814 

> <Gold.Protein.RotatedAtoms>
  150.6899  134.3685  159.4981 H   0  0  0  0  0  0  0  0  0  0  0  0  # atno 6907 bound_to 6896
  152.1504  134.8990  160.0557 H   0  0  0  0  0  0  0  0  0  0  0  0  # atno 6908 bound_to 6896
  152.0089  133.3819  159.4249 H   0  0  0  0  0  0  0  0  0  0  0  0  # atno 6909 bound_to 6896
  146.2428  140.0106  142.8407 H   0  0  0  0  0  0  0  0  0  0  0  0  # atno 7974 bound_to 7965
  155.2294  140.3337  155.4305 H   0  0  0  0  0  0  0  0  0  0  0  0  # atno 8008 bound_to 7997
  156.2301  140.1846  156.7311 H   0  0  0  0  0  0  0  0  0  0  0  0  # atno 8009 bound_to 7997
  154.5963  140.0630  156.9293 H   0  0  0  0  0  0  0  0  0  0  0  0  # atno 8010 bound_to 7997
  140.7120  143.3348  151.2488 H   0  0  0  0  0  0  0  0  0  0  0  0  # atno 10167 bound_to 10162
  156.9283  130.5816  149.5649 H   0  0  0  0  0  0  0  0  0  0  0  0  # atno 10718 bound_to 10713
  153.6416  135.3378  155.3073 H   0  0  0  0  0  0  0  0  0  0  0  0  # atno 10763 bound_to 10752
  154.8558  135.4319  154.1999 H   0  0  0  0  0  0  0  0  0  0  0  0  # atno 10764 bound_to 10752
  153.2919  135.7017  153.7359 H   0  0  0  0  0  0  0  0  0  0  0  0  # atno 10765 bound_to 10752
  140.8397  133.7935  155.9847 H   0  0  0  0  0  0  0  0  0  0  0  0  # atno 11005 bound_to 11000
  145.1331  140.9529  143.4532 LP  0  0  0  0  0  0  0  0  0  0  0  0  # atno 17320 bound_to 7965
  145.0368  139.3294  143.5997 LP  0  0  0  0  0  0  0  0  0  0  0  0  # atno 17321 bound_to 7965
  139.6839  143.9806  152.2824 LP  0  0  0  0  0  0  0  0  0  0  0  0  # atno 17342 bound_to 10162
  139.9446  144.6660  150.8232 LP  0  0  0  0  0  0  0  0  0  0  0  0  # atno 17343 bound_to 10162
  156.0459  130.5535  150.8879 LP  0  0  0  0  0  0  0  0  0  0  0  0  # atno 17370 bound_to 10713
  157.5864  131.0945  150.9190 LP  0  0  0  0  0  0  0  0  0  0  0  0  # atno 17371 bound_to 10713
  140.8909  134.2497  157.5095 LP  0  0  0  0  0  0  0  0  0  0  0  0  # atno 17394 bound_to 11000
  139.8703  134.9661  156.4550 LP  0  0  0  0  0  0  0  0  0  0  0  0  # atno 17395 bound_to 11000

$$$$
