AV-unprocessed.smi:2246|AV-procd|sdf|9084|dock1
  -GOLD-   2272012283D 1   1.00000     0.00000
 Structure written by MMmdl.
 28 29  0  0  0  0  0  0  0  0  2 V2000
  153.2632  140.3850  158.1067 O   0  0  0  0  0  0  0  0  0  0  0  0
  152.2038  140.9149  157.7735 C   0  0  0  0  0  0  0  0  0  0  0  0
  151.7278  140.9667  156.3228 C   0  0  1  0  0  0  0  0  0  0  0  0
  151.4796  139.6018  155.7976 N   0  0  0  0  0  0  0  0  0  0  0  0
  152.0377  138.4960  156.4752 C   0  0  0  0  0  0  0  0  0  0  0  0
  151.8885  137.2310  156.0394 C   0  0  0  0  0  0  0  0  0  0  0  0
  152.5908  135.9056  156.8968 Cl  0  0  0  0  0  0  0  0  0  0  0  0
  151.1251  137.0145  154.8141 C   0  0  0  0  0  0  0  0  0  0  0  0
  150.9502  135.8696  154.3990 O   0  0  0  0  0  0  0  0  0  0  0  0
  150.6349  138.1140  154.1727 N   0  5  0  0  0  0  0  0  0  0  0  0
  150.8074  139.3950  154.6229 C   0  0  0  0  0  0  0  0  0  0  0  0
  150.3695  140.3636  154.0020 O   0  0  0  0  0  0  0  0  0  0  0  0
  150.4469  141.8250  156.4193 C   0  0  0  0  0  0  0  0  0  0  0  0
  150.1815  142.0637  157.9116 C   0  0  0  0  0  0  0  0  0  0  0  0
  151.3427  141.5240  158.5966 N   0  0  0  0  0  0  0  0  0  0  0  0
  151.4810  141.6644  160.0450 C   0  0  0  0  0  0  0  0  0  0  0  0
  152.7196  142.4893  160.4410 C   0  0  0  0  0  0  0  0  0  0  0  0
  152.7264  143.6764  159.8357 F   0  0  0  0  0  0  0  0  0  0  0  0
  152.7026  142.6881  161.7583 F   0  0  0  0  0  0  0  0  0  0  0  0
  153.8353  141.8313  160.1262 F   0  0  0  0  0  0  0  0  0  0  0  0
  152.4682  141.5185  155.7420 H   0  0  0  0  0  0  0  0  0  0  0  0
  152.6046  138.7336  157.3622 H   0  0  0  0  0  0  0  0  0  0  0  0
  150.6207  142.7829  155.9273 H   0  0  0  0  0  0  0  0  0  0  0  0
  149.5846  141.3823  155.9192 H   0  0  0  0  0  0  0  0  0  0  0  0
  150.0545  143.1247  158.1308 H   0  0  0  0  0  0  0  0  0  0  0  0
  149.2840  141.5375  158.2388 H   0  0  0  0  0  0  0  0  0  0  0  0
  150.5798  142.1232  160.4549 H   0  0  0  0  0  0  0  0  0  0  0  0
  151.5452  140.6720  160.4928 H   0  0  0  0  0  0  0  0  0  0  0  0
  1  2  2  0  0  0  0
  2 15  1  0  0  0  0
  2  3  1  0  0  0  0
  3  4  1  0  0  0  0
  3 13  1  0  0  0  0
  3 21  1  0  0  0  0
  4 11  1  0  0  0  0
  4  5  1  0  0  0  0
  5  6  2  0  0  0  0
  5 22  1  0  0  0  0
  6  7  1  0  0  0  0
  6  8  1  0  0  0  0
  8  9  2  0  0  0  0
  8 10  1  0  0  0  0
 10 11  1  0  0  0  0
 11 12  2  0  0  0  0
 13 14  1  0  0  0  0
 13 23  1  0  0  0  0
 13 24  1  0  0  0  0
 14 15  1  0  0  0  0
 14 25  1  0  0  0  0
 14 26  1  0  0  0  0
 15 16  1  0  0  0  0
 16 17  1  0  0  0  0
 16 27  1  0  0  0  0
 16 28  1  0  0  0  0
 17 18  1  0  0  0  0
 17 19  1  0  0  0  0
 17 20  1  0  0  0  0
M  CHG  1  10  -1
M  END
> <s_m_source_file>
AV-unprocessed.smi

> <i_m_source_file_index>
2246

> <i_lp_mmshare_version>
43012

> <i_f3d_flags>
0

> <s_epik_input>
RkMoRikoRilbQ0gyXU4xW0NIMl1bQ0gyXVtDQEBIXShDMT1PKW4yW2NIXWMoQ2wpYyg9TylbbkhdYzI9Tw==

> <s_epik_cmdline>
J2VwaWtfcHl0aG9uJywgJy1waCcsICc3LjAnLCAnLXRuJywgJzgnLCAnLW1hJywgJzIwMCcsICctbWV0YWxfYmluZGluZycsICctaW1hZScsICc8aW5maWxlLm1hZT4nLCAnLW9tYWUnLCAnPG91dGZpbGUubWFlPic=

> <r_epik_Ionization_Penalty>
1.33611

> <r_epik_Ionization_Penalty_Charging>
6.88308e-09

> <r_epik_Ionization_Penalty_Neutral>
1.33611

> <r_epik_State_Penalty>
1.41295

> <r_epik_Charging_Adjusted_Penalty>
1.41295

> <i_epik_Tot_Q>
-1

> <i_epik_Tot_abs_Q>
1

> <r_epik_Metal_State_Penalty>
0.00581136

> <b_epik_Metal_Only>
0

> <s_lp_Force_Field>
OPLS_2005

> <r_lp_Energy>
31.0975

> <b_lp_Chiralities_Consistent>
1

> <s_lp_Variant>
AV-unprocessed.smi:2246-3

> <Gold.Version>
5.8.1

> <Gold.Id.Protein>
6NUR|6NUR_protein|mol2

> <Gold.PLP.Fitness>
39.2193

> <Gold.PLP.PLP>
-33.1215

> <Gold.PLP.part.hbond>
-3.0000

> <Gold.PLP.part.metal>
0.0000

> <Gold.PLP.part.buried>
1.0780

> <Gold.PLP.part.nonpolar>
-31.1538

> <Gold.PLP.part.repulsive>
1.1662

> <Gold.PLP.ligand.clash>
0.0000

> <Gold.PLP.ligand.torsion>
0.3282

> <Gold.PLP.Chemscore.Hbond>
2.2100

> <Gold.PLP.Chemscore.CHOScore>
0.0000

> <Gold.PLP.Chemscore.Metal>
0.0000

> <Gold.Chemscore.Hbonds>
donor molecule, donor type, donor heavy atom, donor atom, acceptor molecule, acceptor atom, score
      P1  H  7989  7998       L1    12  0.65
      P1  H  7997  8010       L1     1  0.85
      P1  H 10752 10764       L1     9  0.45

> <Gold.PLP.Chemscore.Internal.Correction>
0.1242

> <Gold.Rescore>
     Score         DG    S(hbond)    S(metal)    S(lipo)     H(rot)  DE(clash)    DE(int)     intcor
      7.73     -13.43       1.73        0.00      50.20       1.45       1.44       4.25       ----

> <Gold.Chemscore.Fitness>
7.7325

> <Gold.Chemscore.DG>
-13.4297

> <Gold.Chemscore.ZeroCoef>
-5.4800

> <Gold.Chemscore.Hbond>
1.7311

> <Gold.Chemscore.Metal>
0.0000

> <Gold.Chemscore.Lipo>
50.2029

> <Gold.Chemscore.Internal_Hbond>
0.0000

> <Gold.Chemscore.DEClash>
1.4428

> <Gold.Chemscore.DEInternal>
4.2544

> <Gold.Chemscore.Rot>
1.4476

> <Gold.Chemscore.Internal.Correction>
   9.000000E+99

> <Gold.Chemscore.Hbonds>
donor molecule, donor type, donor heavy atom, donor atom, acceptor molecule, acceptor atom, score
      P1  H  7989  7998       L1    12  0.15
      P1  H  7997  8010       L1     1  0.83
      P1  H 10752 10764       L1     9  0.02

> <Gold.Chemscore.Hbond.Weighted>
-5.7819

> <Gold.Chemscore.Metal.Weighted>
-0.0000

> <Gold.Chemscore.Lipo.Weighted>
-5.8737

> <Gold.Chemscore.Internal_Hbond.Weighted>
0.0000

> <Gold.Chemscore.DEClash.Weighted>
1.4428

> <Gold.Chemscore.DEInternal.Weighted>
4.2544

> <Gold.Chemscore.Rot.Weighted>
3.7059

> <Gold.Chemscore.Internal.Correction.Weighted>
   9.000000E+99

> <Gold.Protein.RotatedTorsions>
[ 6907 6896 6895 6894 ] final   89.32 input  -60.11 | X-H torsion
[ 7974 7965 7964 7962 ] final  154.11 input  175.53 | X-H torsion
[ 8008 7997 7996 7995 ] final   36.87 input   59.86 | X-H torsion
[ 10167 10162 10161 10158 ] final  -67.97 input  -65.29 | X-H torsion
[ 10718 10713 10712 10709 ] final -147.38 input   66.30 | X-H torsion
[ 10763 10752 10751 10750 ] final  -65.15 input  -60.55 | X-H torsion
[ 11005 11000 10999 10996 ] final   93.17 input  -57.11 | X-H torsion

> <Gold.Protein.ActiveResidues>
 VAL166  LYS551  ARG553  GLY616  TRP617  ASP618  TYR619  PRO620  LYS621  CYS622 
 ASP623  PHE694  ASN695  SER759  ASP760  ASP761  ALA762  ILE779  LEU786  VAL792 
 PHE793  MET794  SER795  GLU796  ALA797  LYS798  CYS799  TRP800  GLU811  SER814 

> <Gold.Protein.RotatedAtoms>
  152.5435  134.1984  159.8701 H   0  0  0  0  0  0  0  0  0  0  0  0  # atno 6907 bound_to 6896
  151.1975  133.4624  159.2603 H   0  0  0  0  0  0  0  0  0  0  0  0  # atno 6908 bound_to 6896
  151.1022  134.9991  159.8510 H   0  0  0  0  0  0  0  0  0  0  0  0  # atno 6909 bound_to 6896
  144.8110  139.6890  143.6141 H   0  0  0  0  0  0  0  0  0  0  0  0  # atno 7974 bound_to 7965
  155.1945  140.3310  155.4353 H   0  0  0  0  0  0  0  0  0  0  0  0  # atno 8008 bound_to 7997
  156.2430  140.1904  156.6985 H   0  0  0  0  0  0  0  0  0  0  0  0  # atno 8009 bound_to 7997
  154.6183  140.0599  156.9569 H   0  0  0  0  0  0  0  0  0  0  0  0  # atno 8010 bound_to 7997
  140.5543  143.2312  151.6852 H   0  0  0  0  0  0  0  0  0  0  0  0  # atno 10167 bound_to 10162
  156.4068  130.7961  151.2176 H   0  0  0  0  0  0  0  0  0  0  0  0  # atno 10718 bound_to 10713
  154.3408  135.6157  153.5595 H   0  0  0  0  0  0  0  0  0  0  0  0  # atno 10763 bound_to 10752
  152.9804  135.5769  154.4855 H   0  0  0  0  0  0  0  0  0  0  0  0  # atno 10764 bound_to 10752
  154.4559  135.2854  155.1725 H   0  0  0  0  0  0  0  0  0  0  0  0  # atno 10765 bound_to 10752
  139.8813  134.8775  156.3679 H   0  0  0  0  0  0  0  0  0  0  0  0  # atno 11005 bound_to 11000
  146.2408  139.5998  142.9492 LP  0  0  0  0  0  0  0  0  0  0  0  0  # atno 17320 bound_to 7965
  145.5324  141.0426  143.2375 LP  0  0  0  0  0  0  0  0  0  0  0  0  # atno 17321 bound_to 7965
  139.5041  144.3767  152.0416 LP  0  0  0  0  0  0  0  0  0  0  0  0  # atno 17342 bound_to 10162
  140.2887  144.3778  150.6095 LP  0  0  0  0  0  0  0  0  0  0  0  0  # atno 17343 bound_to 10162
  157.7506  131.0270  150.3986 LP  0  0  0  0  0  0  0  0  0  0  0  0  # atno 17370 bound_to 10713
  156.4276  130.3965  149.6782 LP  0  0  0  0  0  0  0  0  0  0  0  0  # atno 17371 bound_to 10713
  140.9484  133.7467  156.0239 LP  0  0  0  0  0  0  0  0  0  0  0  0  # atno 17394 bound_to 11000
  140.8135  134.3372  157.5404 LP  0  0  0  0  0  0  0  0  0  0  0  0  # atno 17395 bound_to 11000

$$$$
