AV-unprocessed.smi:3293|AV-procd|sdf|12629|dock6
  -GOLD-   2272018563D 1   1.00000     0.00000
 Structure written by MMmdl.
 44 45  0  0  0  0  0  0  0  0  2 V2000
  151.9458  144.7494  157.7318 C   0  0  0  0  0  0  0  0  0  0  0  0
  152.1647  144.0478  159.0622 C   0  0  0  0  0  0  0  0  0  0  0  0
  151.9827  144.7035  160.2257 C   0  0  0  0  0  0  0  0  0  0  0  0
  152.2253  144.1095  161.6025 C   0  0  0  0  0  0  0  0  0  0  0  0
  152.5240  142.6016  161.5649 C   0  0  0  0  0  0  0  0  0  0  0  0
  153.3782  142.2296  160.3410 C   0  0  1  0  0  0  0  0  0  0  0  0
  153.8913  140.7807  160.4098 C   0  0  0  0  0  0  0  0  0  0  0  0
  152.6433  142.5901  159.0191 C   0  0  1  0  0  0  0  0  0  0  0  0
  151.4945  141.6059  158.6755 C   0  0  0  0  0  0  0  0  0  0  0  0
  151.4452  141.2601  157.2415 N   0  3  0  0  0  0  0  0  0  0  0  0
  150.2998  140.4095  156.8657 C   0  0  0  0  0  0  0  0  0  0  0  0
  150.2739  140.1573  155.3526 C   0  0  0  0  0  0  0  0  0  0  0  0
  149.0100  140.6794  154.7293 C   0  0  0  0  0  0  0  0  0  0  0  0
  148.2157  140.0639  153.7201 C   0  0  0  0  0  0  0  0  0  0  0  0
  147.1627  140.7889  153.3808 N   0  0  0  0  0  0  0  0  0  0  0  0
  147.2453  141.8872  154.1592 N   0  0  0  0  0  0  0  0  0  0  0  0
  146.2343  142.9170  154.0496 C   0  0  0  0  0  0  0  0  0  0  0  0
  148.3483  141.8479  154.9846 C   0  0  0  0  0  0  0  0  0  0  0  0
  152.7926  144.5812  157.0661 H   0  0  0  0  0  0  0  0  0  0  0  0
  151.8441  145.8265  157.8705 H   0  0  0  0  0  0  0  0  0  0  0  0
  151.0392  144.4000  157.2406 H   0  0  0  0  0  0  0  0  0  0  0  0
  151.6695  145.7376  160.2132 H   0  0  0  0  0  0  0  0  0  0  0  0
  153.0706  144.6397  162.0419 H   0  0  0  0  0  0  0  0  0  0  0  0
  151.3641  144.3069  162.2413 H   0  0  0  0  0  0  0  0  0  0  0  0
  153.0286  142.3109  162.4871 H   0  0  0  0  0  0  0  0  0  0  0  0
  151.5880  142.0429  161.5455 H   0  0  0  0  0  0  0  0  0  0  0  0
  154.2712  142.8564  160.3795 H   0  0  0  0  0  0  0  0  0  0  0  0
  153.0795  140.0649  160.5382 H   0  0  0  0  0  0  0  0  0  0  0  0
  154.5676  140.6509  161.2551 H   0  0  0  0  0  0  0  0  0  0  0  0
  154.4419  140.5135  159.5074 H   0  0  0  0  0  0  0  0  0  0  0  0
  153.3888  142.5210  158.2253 H   0  0  0  0  0  0  0  0  0  0  0  0
  151.6123  140.6693  159.2184 H   0  0  0  0  0  0  0  0  0  0  0  0
  150.5341  142.0278  158.9741 H   0  0  0  0  0  0  0  0  0  0  0  0
  151.3974  142.1163  156.7077 H   0  0  0  0  0  0  0  0  0  0  0  0
  150.3653  139.4607  157.4001 H   0  0  0  0  0  0  0  0  0  0  0  0
  149.3751  140.8954  157.1809 H   0  0  0  0  0  0  0  0  0  0  0  0
  151.1463  140.6248  154.8942 H   0  0  0  0  0  0  0  0  0  0  0  0
  150.3768  139.0880  155.1634 H   0  0  0  0  0  0  0  0  0  0  0  0
  148.3746  139.1171  153.2252 H   0  0  0  0  0  0  0  0  0  0  0  0
  146.4976  143.7692  154.6770 H   0  0  0  0  0  0  0  0  0  0  0  0
  145.2704  142.5228  154.3727 H   0  0  0  0  0  0  0  0  0  0  0  0
  146.1570  143.2508  153.0144 H   0  0  0  0  0  0  0  0  0  0  0  0
  148.5705  142.6475  155.6760 H   0  0  0  0  0  0  0  0  0  0  0  0
  152.2982  140.7761  157.0000 H   0  0  0  0  0  0  0  0  0  0  0  0
  1  2  1  0  0  0  0
  1 19  1  0  0  0  0
  1 20  1  0  0  0  0
  1 21  1  0  0  0  0
  2  8  1  0  0  0  0
  2  3  2  0  0  0  0
  3  4  1  0  0  0  0
  3 22  1  0  0  0  0
  4  5  1  0  0  0  0
  4 23  1  0  0  0  0
  4 24  1  0  0  0  0
  5  6  1  0  0  0  0
  5 25  1  0  0  0  0
  5 26  1  0  0  0  0
  6  7  1  0  0  0  0
  6  8  1  0  0  0  0
  6 27  1  0  0  0  0
  7 28  1  0  0  0  0
  7 29  1  0  0  0  0
  7 30  1  0  0  0  0
  8  9  1  0  0  0  0
  8 31  1  0  0  0  0
  9 10  1  0  0  0  0
  9 32  1  0  0  0  0
  9 33  1  0  0  0  0
 10 11  1  0  0  0  0
 10 34  1  0  0  0  0
 10 44  1  0  0  0  0
 11 12  1  0  0  0  0
 11 35  1  0  0  0  0
 11 36  1  0  0  0  0
 12 13  1  0  0  0  0
 12 37  1  0  0  0  0
 12 38  1  0  0  0  0
 13 18  2  0  0  0  0
 13 14  1  0  0  0  0
 14 15  2  0  0  0  0
 14 39  1  0  0  0  0
 15 16  1  0  0  0  0
 16 17  1  0  0  0  0
 16 18  1  0  0  0  0
 17 40  1  0  0  0  0
 17 41  1  0  0  0  0
 17 42  1  0  0  0  0
 18 43  1  0  0  0  0
M  CHG  1  10   1
M  END
> <s_m_source_file>
AV-unprocessed.smi

> <i_m_source_file_index>
3293

> <i_lp_mmshare_version>
43012

> <i_f3d_flags>
0

> <s_epik_input>
W0NIM11DMT1bQ0hdW0NIMl1bQ0gyXVtDQEBIXShbQ0gzXSlbQ0BIXTFbQ0gyXVtOSF1bQ0gyXVtDSDJdYzJbY0hdbm4oW0NIM10pW2NIXTI=

> <s_epik_cmdline>
J2VwaWtfcHl0aG9uJywgJy1waCcsICc3LjAnLCAnLXRuJywgJzgnLCAnLW1hJywgJzIwMCcsICctbWV0YWxfYmluZGluZycsICctaW1hZScsICc8aW5maWxlLm1hZT4nLCAnLW9tYWUnLCAnPG91dGZpbGUubWFlPic=

> <r_lp_tautomer_probability>
1

> <r_epik_Ionization_Penalty>
0.000598621

> <r_epik_Ionization_Penalty_Charging>
0.000582095

> <r_epik_Ionization_Penalty_Neutral>
1.65262e-05

> <r_epik_State_Penalty>
-0

> <r_epik_Charging_Adjusted_Penalty>
0.000582095

> <i_epik_Tot_Q>
1

> <i_epik_Tot_abs_Q>
1

> <r_epik_Metal_State_Penalty>
-0

> <b_epik_Metal_Only>
0

> <s_lp_Force_Field>
OPLS_2005

> <r_lp_Energy>
11.7739

> <b_lp_Chiralities_Consistent>
1

> <s_lp_Variant>
AV-unprocessed.smi:3293-1

> <Gold.Version>
5.8.1

> <Gold.Id.Protein>
6NUR|6NUR_protein|mol2

> <Gold.PLP.Fitness>
51.4706

> <Gold.PLP.PLP>
-49.8084

> <Gold.PLP.part.hbond>
0.0000

> <Gold.PLP.part.metal>
0.0000

> <Gold.PLP.part.buried>
-2.5924

> <Gold.PLP.part.nonpolar>
-47.3405

> <Gold.PLP.part.repulsive>
0.2524

> <Gold.PLP.ligand.clash>
0.0000

> <Gold.PLP.ligand.torsion>
1.1870

> <Gold.PLP.Chemscore.Hbond>
0.0000

> <Gold.PLP.Chemscore.CHOScore>
1.3392

> <Gold.PLP.Chemscore.Metal>
0.0000

> <Gold.Chemscore.Hbonds>
donor molecule, donor type, donor heavy atom, donor atom, acceptor molecule, acceptor atom, score
      L1  C    14    39       P1  7957  0.32
      L1  C    18    43       P1  8028  1.00

> <Gold.PLP.Chemscore.Internal.Correction>
0.0187

> <Gold.Rescore>
     Score         DG    S(hbond)    S(metal)    S(lipo)     H(rot)  DE(clash)    DE(int)     intcor
     17.23     -18.29       0.00        0.00     141.99       1.48       0.11       0.96       ----

> <Gold.Chemscore.Fitness>
17.2301

> <Gold.Chemscore.DG>
-18.2924

> <Gold.Chemscore.ZeroCoef>
-5.4800

> <Gold.Chemscore.Hbond>
0.0000

> <Gold.Chemscore.Metal>
0.0000

> <Gold.Chemscore.Lipo>
141.9935

> <Gold.Chemscore.Internal_Hbond>
0.0000

> <Gold.Chemscore.DEClash>
0.1054

> <Gold.Chemscore.DEInternal>
0.9570

> <Gold.Chemscore.Rot>
1.4847

> <Gold.Chemscore.Internal.Correction>
   9.000000E+99

> <Gold.Chemscore.Hbond.Weighted>
-0.0000

> <Gold.Chemscore.Metal.Weighted>
-0.0000

> <Gold.Chemscore.Lipo.Weighted>
-16.6132

> <Gold.Chemscore.Internal_Hbond.Weighted>
0.0000

> <Gold.Chemscore.DEClash.Weighted>
0.1054

> <Gold.Chemscore.DEInternal.Weighted>
0.9570

> <Gold.Chemscore.Rot.Weighted>
3.8008

> <Gold.Chemscore.Internal.Correction.Weighted>
   9.000000E+99

> <Gold.Protein.RotatedTorsions>
[ 6907 6896 6895 6894 ] final  -94.95 input  -60.11 | X-H torsion
[ 7974 7965 7964 7962 ] final  161.35 input  175.53 | X-H torsion
[ 8008 7997 7996 7995 ] final  -42.24 input   59.86 | X-H torsion
[ 10167 10162 10161 10158 ] final   89.80 input  -65.29 | X-H torsion
[ 10718 10713 10712 10709 ] final  -24.10 input   66.30 | X-H torsion
[ 10763 10752 10751 10750 ] final  137.58 input  -60.55 | X-H torsion
[ 11005 11000 10999 10996 ] final  179.25 input  -57.11 | X-H torsion

> <Gold.Protein.ActiveResidues>
 VAL166  LYS551  ARG553  GLY616  TRP617  ASP618  TYR619  PRO620  LYS621  CYS622 
 ASP623  PHE694  ASN695  SER759  ASP760  ASP761  ALA762  ILE779  LEU786  VAL792 
 PHE793  MET794  SER795  GLU796  ALA797  LYS798  CYS799  TRP800  GLU811  SER814 

> <Gold.Protein.RotatedAtoms>
  150.6953  134.1733  159.4220 H   0  0  0  0  0  0  0  0  0  0  0  0  # atno 6907 bound_to 6896
  151.9710  135.0074  160.0562 H   0  0  0  0  0  0  0  0  0  0  0  0  # atno 6908 bound_to 6896
  152.1841  133.4692  159.5010 H   0  0  0  0  0  0  0  0  0  0  0  0  # atno 6909 bound_to 6896
  144.7690  139.7885  143.6304 H   0  0  0  0  0  0  0  0  0  0  0  0  # atno 7974 bound_to 7965
  154.4000  140.1478  156.3322 H   0  0  0  0  0  0  0  0  0  0  0  0  # atno 8008 bound_to 7997
  155.8433  140.3461  155.5624 H   0  0  0  0  0  0  0  0  0  0  0  0  # atno 8009 bound_to 7997
  155.8064  140.0877  157.1919 H   0  0  0  0  0  0  0  0  0  0  0  0  # atno 8010 bound_to 7997
  139.8537  144.6580  150.9140 H   0  0  0  0  0  0  0  0  0  0  0  0  # atno 10167 bound_to 10162
  156.4822  130.4547  149.6805 H   0  0  0  0  0  0  0  0  0  0  0  0  # atno 10718 bound_to 10713
  153.8754  135.3051  155.3443 H   0  0  0  0  0  0  0  0  0  0  0  0  # atno 10763 bound_to 10752
  154.7786  135.4847  153.9800 H   0  0  0  0  0  0  0  0  0  0  0  0  # atno 10764 bound_to 10752
  153.1382  135.6818  153.9165 H   0  0  0  0  0  0  0  0  0  0  0  0  # atno 10765 bound_to 10752
  140.4041  134.6750  157.4578 H   0  0  0  0  0  0  0  0  0  0  0  0  # atno 11005 bound_to 11000
  146.1822  139.5019  142.9859 LP  0  0  0  0  0  0  0  0  0  0  0  0  # atno 17320 bound_to 7965
  145.6381  141.0290  143.1827 LP  0  0  0  0  0  0  0  0  0  0  0  0  # atno 17321 bound_to 7965
  140.7784  143.3805  151.1485 LP  0  0  0  0  0  0  0  0  0  0  0  0  # atno 17342 bound_to 10162
  139.7441  143.8879  152.3058 LP  0  0  0  0  0  0  0  0  0  0  0  0  # atno 17343 bound_to 10162
  156.3511  130.7432  151.2392 LP  0  0  0  0  0  0  0  0  0  0  0  0  # atno 17370 bound_to 10713
  157.7482  131.0377  150.4468 LP  0  0  0  0  0  0  0  0  0  0  0  0  # atno 17371 bound_to 10713
  140.0315  134.6400  155.9101 LP  0  0  0  0  0  0  0  0  0  0  0  0  # atno 17394 bound_to 11000
  141.1846  133.6553  156.5162 LP  0  0  0  0  0  0  0  0  0  0  0  0  # atno 17395 bound_to 11000

$$$$
