AV-unprocessed.smi:3011|AV-procd|sdf|11457|dock3
  -GOLD-   2272016393D 1   1.00000     0.00000
 Structure written by MMmdl.
 46 48  0  0  0  0  0  0  0  0  1 V2000
  147.2076  136.7347  162.5881 C   0  0  0  0  0  0  0  0  0  0  0  0
  147.9473  137.1621  161.4547 O   0  0  0  0  0  0  0  0  0  0  0  0
  148.1507  136.2634  160.4274 C   0  0  0  0  0  0  0  0  0  0  0  0
  147.6504  134.9367  160.4299 C   0  0  0  0  0  0  0  0  0  0  0  0
  147.9053  134.0762  159.3465 C   0  0  0  0  0  0  0  0  0  0  0  0
  148.6599  134.5293  158.2508 C   0  0  0  0  0  0  0  0  0  0  0  0
  149.1604  135.8438  158.2374 C   0  0  0  0  0  0  0  0  0  0  0  0
  148.9097  136.7173  159.3248 C   0  0  0  0  0  0  0  0  0  0  0  0
  149.3636  138.0163  159.3814 O   0  0  0  0  0  0  0  0  0  0  0  0
  149.9654  138.5851  158.2271 C   0  0  0  0  0  0  0  0  0  0  0  0
  151.4651  138.2598  158.2606 C   0  0  0  0  0  0  0  0  0  0  0  0
  152.2152  139.2543  159.0168 N   0  0  0  0  0  0  0  0  0  0  0  0
  153.1913  139.0623  159.9427 C   0  0  0  0  0  0  0  0  0  0  0  0
  153.6691  137.6919  160.3549 C   0  0  2  0  0  0  0  0  0  0  0  0
  154.6430  137.7525  161.5397 C   0  0  0  0  0  0  0  0  0  0  0  0
  154.3052  137.0568  159.2052 N   0  0  0  0  0  0  0  0  0  0  0  0
  154.7042  135.7790  159.1785 C   0  0  0  0  0  0  0  0  0  0  0  0
  154.5692  135.0120  160.1285 O   0  0  0  0  0  0  0  0  0  0  0  0
  153.7027  140.1749  160.4768 N   0  0  0  0  0  0  0  0  0  0  0  0
  152.9778  141.1751  159.8615 C   0  0  0  0  0  0  0  0  0  0  0  0
  153.0367  142.5789  160.0149 C   0  0  0  0  0  0  0  0  0  0  0  0
  152.1737  143.4143  159.2761 C   0  0  0  0  0  0  0  0  0  0  0  0
  151.2426  142.8591  158.3748 C   0  0  0  0  0  0  0  0  0  0  0  0
  151.1711  141.4633  158.2043 C   0  0  0  0  0  0  0  0  0  0  0  0
  152.0354  140.6333  158.9439 C   0  0  0  0  0  0  0  0  0  0  0  0
  147.1554  137.5502  163.3094 H   0  0  0  0  0  0  0  0  0  0  0  0
  147.6863  135.8884  163.0825 H   0  0  0  0  0  0  0  0  0  0  0  0
  146.1853  136.4668  162.3181 H   0  0  0  0  0  0  0  0  0  0  0  0
  147.0673  134.5541  161.2536 H   0  0  0  0  0  0  0  0  0  0  0  0
  147.5206  133.0670  159.3568 H   0  0  0  0  0  0  0  0  0  0  0  0
  148.8546  133.8688  157.4187 H   0  0  0  0  0  0  0  0  0  0  0  0
  149.7314  136.1619  157.3786 H   0  0  0  0  0  0  0  0  0  0  0  0
  149.5193  138.1715  157.3216 H   0  0  0  0  0  0  0  0  0  0  0  0
  149.8191  139.6658  158.2145 H   0  0  0  0  0  0  0  0  0  0  0  0
  151.6478  137.2665  158.6697 H   0  0  0  0  0  0  0  0  0  0  0  0
  151.8546  138.2343  157.2427 H   0  0  0  0  0  0  0  0  0  0  0  0
  152.8290  137.0722  160.6647 H   0  0  0  0  0  0  0  0  0  0  0  0
  154.1742  138.2199  162.4060 H   0  0  0  0  0  0  0  0  0  0  0  0
  155.5357  138.3289  161.2944 H   0  0  0  0  0  0  0  0  0  0  0  0
  154.9630  136.7532  161.8363 H   0  0  0  0  0  0  0  0  0  0  0  0
  154.4251  137.6168  158.3735 H   0  0  0  0  0  0  0  0  0  0  0  0
  155.1585  135.5103  158.2116 H   0  0  0  0  0  0  0  0  0  0  0  0
  153.7442  143.0130  160.7057 H   0  0  0  0  0  0  0  0  0  0  0  0
  152.2248  144.4857  159.4030 H   0  0  0  0  0  0  0  0  0  0  0  0
  150.5824  143.5050  157.8147 H   0  0  0  0  0  0  0  0  0  0  0  0
  150.4550  141.0362  157.5182 H   0  0  0  0  0  0  0  0  0  0  0  0
  1  2  1  0  0  0  0
  1 26  1  0  0  0  0
  1 27  1  0  0  0  0
  1 28  1  0  0  0  0
  2  3  1  0  0  0  0
  3  8  1  0  0  0  0
  3  4  2  0  0  0  0
  4  5  1  0  0  0  0
  4 29  1  0  0  0  0
  5  6  2  0  0  0  0
  5 30  1  0  0  0  0
  6  7  1  0  0  0  0
  6 31  1  0  0  0  0
  7  8  2  0  0  0  0
  7 32  1  0  0  0  0
  8  9  1  0  0  0  0
  9 10  1  0  0  0  0
 10 11  1  0  0  0  0
 10 33  1  0  0  0  0
 10 34  1  0  0  0  0
 11 12  1  0  0  0  0
 11 35  1  0  0  0  0
 11 36  1  0  0  0  0
 12 25  1  0  0  0  0
 12 13  1  0  0  0  0
 13 14  1  0  0  0  0
 13 19  2  0  0  0  0
 14 15  1  0  0  0  0
 14 16  1  0  0  0  0
 14 37  1  0  0  0  0
 15 38  1  0  0  0  0
 15 39  1  0  0  0  0
 15 40  1  0  0  0  0
 16 17  1  0  0  0  0
 16 41  1  0  0  0  0
 17 18  2  0  0  0  0
 17 42  1  0  0  0  0
 19 20  1  0  0  0  0
 20 25  2  0  0  0  0
 20 21  1  0  0  0  0
 21 22  2  0  0  0  0
 21 43  1  0  0  0  0
 22 23  1  0  0  0  0
 22 44  1  0  0  0  0
 23 24  2  0  0  0  0
 23 45  1  0  0  0  0
 24 25  1  0  0  0  0
 24 46  1  0  0  0  0
M  END
> <s_m_source_file>
AV-unprocessed.smi

> <i_m_source_file_index>
3011

> <i_lp_mmshare_version>
43012

> <i_f3d_flags>
0

> <s_epik_input>
W0NIM11PYzFbY0hdW2NIXVtjSF1bY0hdYzFPW0NIMl1bQ0gyXW4oYyhuMilbQ0BIXShbQ0gzXSlbTkhdW0NIXT1PKWMoYzIzKVtjSF1bY0hdW2NIXVtjSF0z

> <s_epik_cmdline>
J2VwaWtfcHl0aG9uJywgJy1waCcsICc3LjAnLCAnLXRuJywgJzgnLCAnLW1hJywgJzIwMCcsICctbWV0YWxfYmluZGluZycsICctaW1hZScsICc8aW5maWxlLm1hZT4nLCAnLW9tYWUnLCAnPG91dGZpbGUubWFlPic=

> <r_lp_tautomer_probability>
1

> <r_epik_Ionization_Penalty>
0.0924205

> <r_epik_Ionization_Penalty_Charging>
0

> <r_epik_Ionization_Penalty_Neutral>
0.0924205

> <r_epik_State_Penalty>
0.0827154

> <r_epik_Charging_Adjusted_Penalty>
0.0827154

> <i_epik_Tot_Q>
0

> <i_epik_Tot_abs_Q>
0

> <r_epik_Metal_State_Penalty>
0.071464

> <b_epik_Metal_Only>
0

> <s_lp_Force_Field>
OPLS_2005

> <r_lp_Energy>
15.3464

> <b_lp_Chiralities_Consistent>
1

> <s_lp_Variant>
AV-unprocessed.smi:3011-1

> <Gold.Version>
5.8.1

> <Gold.Id.Protein>
6NUR|6NUR_protein|mol2

> <Gold.PLP.Fitness>
49.4075

> <Gold.PLP.PLP>
-42.4451

> <Gold.PLP.part.hbond>
-4.6049

> <Gold.PLP.part.metal>
0.0000

> <Gold.PLP.part.buried>
-4.6668

> <Gold.PLP.part.nonpolar>
-32.9351

> <Gold.PLP.part.repulsive>
0.0746

> <Gold.PLP.ligand.clash>
0.0000

> <Gold.PLP.ligand.torsion>
0.7272

> <Gold.PLP.Chemscore.Hbond>
2.7200

> <Gold.PLP.Chemscore.CHOScore>
0.0000

> <Gold.PLP.Chemscore.Metal>
0.0000

> <Gold.Chemscore.Hbonds>
donor molecule, donor type, donor heavy atom, donor atom, acceptor molecule, acceptor atom, score
      P1  H  6896  6909       L1    18  0.84
      P1  H  6931  6943       L1     2  1.00
      P1  H  6934  6947       L1     2  0.61

> <Gold.PLP.Chemscore.Internal.Correction>
0.2568

> <Gold.Rescore>
     Score         DG    S(hbond)    S(metal)    S(lipo)     H(rot)  DE(clash)    DE(int)     intcor
     17.99     -19.14       2.27        0.00     108.55       2.59       0.41       0.73       ----

> <Gold.Chemscore.Fitness>
17.9905

> <Gold.Chemscore.DG>
-19.1376

> <Gold.Chemscore.ZeroCoef>
-5.4800

> <Gold.Chemscore.Hbond>
2.2730

> <Gold.Chemscore.Metal>
0.0000

> <Gold.Chemscore.Lipo>
108.5460

> <Gold.Chemscore.Internal_Hbond>
0.0000

> <Gold.Chemscore.DEClash>
0.4139

> <Gold.Chemscore.DEInternal>
0.7333

> <Gold.Chemscore.Rot>
2.5914

> <Gold.Chemscore.Internal.Correction>
   9.000000E+99

> <Gold.Chemscore.Hbonds>
donor molecule, donor type, donor heavy atom, donor atom, acceptor molecule, acceptor atom, score
      P1  H  6896  6909       L1    18  0.29
      P1  H  6931  6943       L1     2  0.67
      P1  H  6934  6947       L1     2  0.31

> <Gold.Chemscore.Hbond.Weighted>
-7.5918

> <Gold.Chemscore.Metal.Weighted>
-0.0000

> <Gold.Chemscore.Lipo.Weighted>
-12.6999

> <Gold.Chemscore.Internal_Hbond.Weighted>
0.0000

> <Gold.Chemscore.DEClash.Weighted>
0.4139

> <Gold.Chemscore.DEInternal.Weighted>
0.7333

> <Gold.Chemscore.Rot.Weighted>
6.6340

> <Gold.Chemscore.Internal.Correction.Weighted>
   9.000000E+99

> <Gold.Protein.RotatedTorsions>
[ 6907 6896 6895 6894 ] final -169.33 input  -60.11 | X-H torsion
[ 7974 7965 7964 7962 ] final  -19.97 input  175.53 | X-H torsion
[ 8008 7997 7996 7995 ] final -140.68 input   59.86 | X-H torsion
[ 10167 10162 10161 10158 ] final  100.58 input  -65.29 | X-H torsion
[ 10718 10713 10712 10709 ] final  171.23 input   66.30 | X-H torsion
[ 10763 10752 10751 10750 ] final   62.88 input  -60.55 | X-H torsion
[ 11005 11000 10999 10996 ] final  139.54 input  -57.11 | X-H torsion

> <Gold.Protein.ActiveResidues>
 VAL166  LYS551  ARG553  GLY616  TRP617  ASP618  TYR619  PRO620  LYS621  CYS622 
 ASP623  PHE694  ASN695  SER759  ASP760  ASP761  ALA762  ILE779  LEU786  VAL792 
 PHE793  MET794  SER795  GLU796  ALA797  LYS798  CYS799  TRP800  GLU811  SER814 

> <Gold.Protein.RotatedAtoms>
  151.4899  133.3527  159.2851 H   0  0  0  0  0  0  0  0  0  0  0  0  # atno 6907 bound_to 6896
  150.8842  134.8239  159.7257 H   0  0  0  0  0  0  0  0  0  0  0  0  # atno 6908 bound_to 6896
  152.4782  134.4800  159.9714 H   0  0  0  0  0  0  0  0  0  0  0  0  # atno 6909 bound_to 6896
  146.1813  140.4137  142.8493 H   0  0  0  0  0  0  0  0  0  0  0  0  # atno 7974 bound_to 7965
  155.4653  140.0549  157.2986 H   0  0  0  0  0  0  0  0  0  0  0  0  # atno 8008 bound_to 7997
  154.4720  140.2044  155.9924 H   0  0  0  0  0  0  0  0  0  0  0  0  # atno 8009 bound_to 7997
  156.1072  140.3210  155.8027 H   0  0  0  0  0  0  0  0  0  0  0  0  # atno 8010 bound_to 7997
  139.7515  144.6982  151.0425 H   0  0  0  0  0  0  0  0  0  0  0  0  # atno 10167 bound_to 10162
  156.9966  131.0163  151.2842 H   0  0  0  0  0  0  0  0  0  0  0  0  # atno 10718 bound_to 10713
  152.9998  135.5449  154.6263 H   0  0  0  0  0  0  0  0  0  0  0  0  # atno 10763 bound_to 10752
  154.5551  135.2829  155.0974 H   0  0  0  0  0  0  0  0  0  0  0  0  # atno 10764 bound_to 10752
  154.2199  135.6452  153.5194 H   0  0  0  0  0  0  0  0  0  0  0  0  # atno 10765 bound_to 10752
  140.0262  134.9374  157.0572 H   0  0  0  0  0  0  0  0  0  0  0  0  # atno 11005 bound_to 11000
  144.8320  140.6722  143.6285 LP  0  0  0  0  0  0  0  0  0  0  0  0  # atno 17320 bound_to 7965
  145.4068  139.1587  143.4148 LP  0  0  0  0  0  0  0  0  0  0  0  0  # atno 17321 bound_to 7965
  140.7798  143.4804  151.0026 LP  0  0  0  0  0  0  0  0  0  0  0  0  # atno 17342 bound_to 10162
  139.8491  143.7462  152.3178 LP  0  0  0  0  0  0  0  0  0  0  0  0  # atno 17343 bound_to 10162
  157.5421  130.8126  149.8041 LP  0  0  0  0  0  0  0  0  0  0  0  0  # atno 17370 bound_to 10713
  156.0187  130.3804  150.2030 LP  0  0  0  0  0  0  0  0  0  0  0  0  # atno 17371 bound_to 10713
  140.4303  134.1788  155.7168 LP  0  0  0  0  0  0  0  0  0  0  0  0  # atno 17394 bound_to 11000
  141.1804  133.8426  157.1278 LP  0  0  0  0  0  0  0  0  0  0  0  0  # atno 17395 bound_to 11000

$$$$
