AV-unprocessed.smi:2893|AV-procd|sdf|11122|dock9
  -GOLD-   2272015593D 1   1.00000     0.00000
 Structure written by MMmdl.
 37 39  0  0  0  0  0  0  0  0  1 V2000
  144.4537  131.6498  150.2410 C   0  0  0  0  0  0  0  0  0  0  0  0
  144.5809  132.7708  149.2012 C   0  0  0  0  0  0  0  0  0  0  0  0
  145.1135  133.9920  149.7935 N   0  0  0  0  0  0  0  0  0  0  0  0
  144.6709  134.5612  150.9279 C   0  0  0  0  0  0  0  0  0  0  0  0
  143.7321  134.1112  151.5864 O   0  0  0  0  0  0  0  0  0  0  0  0
  145.3691  135.8282  151.3440 C   0  0  0  0  0  0  0  0  0  0  0  0
  145.2796  136.2806  152.6783 C   0  0  0  0  0  0  0  0  0  0  0  0
  145.9645  137.4593  153.0196 C   0  0  0  0  0  0  0  0  0  0  0  0
  146.6974  138.1076  152.0076 C   0  0  0  0  0  0  0  0  0  0  0  0
  147.3939  139.2828  152.3237 N   0  0  0  0  0  0  0  0  0  0  0  0
  147.2433  139.9320  153.6218 C   0  0  2  0  0  0  0  0  0  0  0  0
  146.6767  141.3500  153.4988 C   0  0  0  0  0  0  0  0  0  0  0  0
  147.7309  142.1801  154.2421 C   0  0  1  0  0  0  0  0  0  0  0  0
  147.7374  141.8997  155.7514 C   0  0  0  0  0  0  0  0  0  0  0  0
  148.3778  140.5129  155.8092 C   0  0  0  0  0  0  0  0  0  0  0  0
  148.5897  140.2012  154.3217 C   0  0  2  0  0  0  0  0  0  0  0  0
  148.9064  141.4988  153.8433 O   0  0  0  0  0  0  0  0  0  0  0  0
  146.7513  137.6216  150.7430 N   0  0  0  0  0  0  0  0  0  0  0  0
  146.0991  136.5005  150.4178 N   0  0  0  0  0  0  0  0  0  0  0  0
  144.0830  130.7341  149.7802 H   0  0  0  0  0  0  0  0  0  0  0  0
  143.7602  131.9231  151.0370 H   0  0  0  0  0  0  0  0  0  0  0  0
  145.4179  131.4254  150.6983 H   0  0  0  0  0  0  0  0  0  0  0  0
  145.2550  132.4572  148.4039 H   0  0  0  0  0  0  0  0  0  0  0  0
  143.6150  132.9660  148.7327 H   0  0  0  0  0  0  0  0  0  0  0  0
  145.8814  134.4382  149.3126 H   0  0  0  0  0  0  0  0  0  0  0  0
  144.7059  135.7470  153.4222 H   0  0  0  0  0  0  0  0  0  0  0  0
  145.9280  137.8489  154.0264 H   0  0  0  0  0  0  0  0  0  0  0  0
  148.1076  139.6218  151.6953 H   0  0  0  0  0  0  0  0  0  0  0  0
  146.5963  139.3214  154.2531 H   0  0  0  0  0  0  0  0  0  0  0  0
  146.6143  141.6709  152.4577 H   0  0  0  0  0  0  0  0  0  0  0  0
  145.6844  141.4456  153.9406 H   0  0  0  0  0  0  0  0  0  0  0  0
  147.7183  143.2401  153.9877 H   0  0  0  0  0  0  0  0  0  0  0  0
  148.3538  142.6273  156.2805 H   0  0  0  0  0  0  0  0  0  0  0  0
  146.7350  141.9230  156.1798 H   0  0  0  0  0  0  0  0  0  0  0  0
  149.3326  140.5544  156.3345 H   0  0  0  0  0  0  0  0  0  0  0  0
  147.7474  139.7739  156.3048 H   0  0  0  0  0  0  0  0  0  0  0  0
  149.3603  139.4512  154.1405 H   0  0  0  0  0  0  0  0  0  0  0  0
  1  2  1  0  0  0  0
  1 20  1  0  0  0  0
  1 21  1  0  0  0  0
  1 22  1  0  0  0  0
  2  3  1  0  0  0  0
  2 23  1  0  0  0  0
  2 24  1  0  0  0  0
  3  4  1  0  0  0  0
  3 25  1  0  0  0  0
  4  5  2  0  0  0  0
  4  6  1  0  0  0  0
  6 19  1  0  0  0  0
  6  7  2  0  0  0  0
  7  8  1  0  0  0  0
  7 26  1  0  0  0  0
  8  9  2  0  0  0  0
  8 27  1  0  0  0  0
  9 10  1  0  0  0  0
  9 18  1  0  0  0  0
 10 11  1  0  0  0  0
 10 28  1  0  0  0  0
 11 16  1  0  0  0  0
 11 12  1  0  0  0  0
 11 29  1  0  0  0  0
 12 13  1  0  0  0  0
 12 30  1  0  0  0  0
 12 31  1  0  0  0  0
 13 17  1  0  0  0  0
 13 14  1  0  0  0  0
 13 32  1  0  0  0  0
 14 15  1  0  0  0  0
 14 33  1  0  0  0  0
 14 34  1  0  0  0  0
 15 16  1  0  0  0  0
 15 35  1  0  0  0  0
 15 36  1  0  0  0  0
 16 17  1  0  0  0  0
 16 37  1  0  0  0  0
 18 19  2  0  0  0  0
M  END
> <s_m_source_file>
AV-unprocessed.smi

> <i_m_source_file_index>
2893

> <i_lp_mmshare_version>
43012

> <i_f3d_flags>
0

> <s_epik_input>
W0NIM11bQ0gyXVtOSF1DKD1PKWMxW2NIXVtjSF1jKG5uMSlbTkhdW0NASF0oW0NIMl1bQ0BASF0yMylbQ0BASF0oTzMpW0NIMl1bQ0gyXTI=

> <s_epik_cmdline>
J2VwaWtfcHl0aG9uJywgJy1waCcsICc3LjAnLCAnLXRuJywgJzgnLCAnLW1hJywgJzIwMCcsICctbWV0YWxfYmluZGluZycsICctaW1hZScsICc8aW5maWxlLm1hZT4nLCAnLW9tYWUnLCAnPG91dGZpbGUubWFlPic=

> <r_lp_tautomer_probability>
1

> <r_epik_Ionization_Penalty>
0.00432031

> <r_epik_Ionization_Penalty_Charging>
0

> <r_epik_Ionization_Penalty_Neutral>
0.00432031

> <r_epik_State_Penalty>
-0

> <r_epik_Charging_Adjusted_Penalty>
0

> <i_epik_Tot_Q>
0

> <i_epik_Tot_abs_Q>
0

> <r_epik_Metal_State_Penalty>
-0

> <b_epik_Metal_Only>
0

> <s_lp_Force_Field>
OPLS_2005

> <r_lp_Energy>
51.3486

> <b_lp_Chiralities_Consistent>
1

> <s_lp_Variant>
AV-unprocessed.smi:2893-1

> <Gold.Version>
5.8.1

> <Gold.Id.Protein>
6NUR|6NUR_protein|mol2

> <Gold.PLP.Fitness>
40.0469

> <Gold.PLP.PLP>
-29.4237

> <Gold.PLP.part.hbond>
-4.7980

> <Gold.PLP.part.metal>
0.0000

> <Gold.PLP.part.buried>
-3.0734

> <Gold.PLP.part.nonpolar>
-27.6755

> <Gold.PLP.part.repulsive>
5.8072

> <Gold.PLP.ligand.clash>
0.0000

> <Gold.PLP.ligand.torsion>
0.2669

> <Gold.PLP.Chemscore.Hbond>
3.7120

> <Gold.PLP.Chemscore.CHOScore>
0.0000

> <Gold.PLP.Chemscore.Metal>
0.0000

> <Gold.Chemscore.Hbonds>
donor molecule, donor type, donor heavy atom, donor atom, acceptor molecule, acceptor atom, score
      L1  H     3    25       P1  7921  0.66
      L1  H    10    28       P1  7957  1.00
      P1  H  7954  7966       L1    18  1.00
      P1  H  8011  8017       L1    17  0.72

> <Gold.PLP.Chemscore.Internal.Correction>
0.0210

> <Gold.Rescore>
     Score         DG    S(hbond)    S(metal)    S(lipo)     H(rot)  DE(clash)    DE(int)     intcor
     17.63     -21.68       3.26        0.00      71.90       1.21       3.66       0.39       ----

> <Gold.Chemscore.Fitness>
17.6288

> <Gold.Chemscore.DG>
-21.6845

> <Gold.Chemscore.ZeroCoef>
-5.4800

> <Gold.Chemscore.Hbond>
3.2574

> <Gold.Chemscore.Metal>
0.0000

> <Gold.Chemscore.Lipo>
71.9020

> <Gold.Chemscore.Internal_Hbond>
0.0000

> <Gold.Chemscore.DEClash>
3.6623

> <Gold.Chemscore.DEInternal>
0.3934

> <Gold.Chemscore.Rot>
1.2061

> <Gold.Chemscore.Internal.Correction>
   9.000000E+99

> <Gold.Chemscore.Hbonds>
donor molecule, donor type, donor heavy atom, donor atom, acceptor molecule, acceptor atom, score
      L1  H     3    25       P1  7921  0.39
      L1  H    10    28       P1  7957  0.99
      P1  H  7954  7966       L1    18  0.84
      P1  H  8011  8017       L1    17  0.55

> <Gold.Chemscore.Hbond.Weighted>
-10.8796

> <Gold.Chemscore.Metal.Weighted>
-0.0000

> <Gold.Chemscore.Lipo.Weighted>
-8.4125

> <Gold.Chemscore.Internal_Hbond.Weighted>
0.0000

> <Gold.Chemscore.DEClash.Weighted>
3.6623

> <Gold.Chemscore.DEInternal.Weighted>
0.3934

> <Gold.Chemscore.Rot.Weighted>
3.0876

> <Gold.Chemscore.Internal.Correction.Weighted>
   9.000000E+99

> <Gold.Protein.RotatedTorsions>
[ 6907 6896 6895 6894 ] final -123.37 input  -60.11 | X-H torsion
[ 7974 7965 7964 7962 ] final -118.22 input  175.53 | X-H torsion
[ 8008 7997 7996 7995 ] final -144.75 input   59.86 | X-H torsion
[ 10167 10162 10161 10158 ] final  141.75 input  -65.29 | X-H torsion
[ 10718 10713 10712 10709 ] final  -50.50 input   66.30 | X-H torsion
[ 10763 10752 10751 10750 ] final -105.23 input  -60.55 | X-H torsion
[ 11005 11000 10999 10996 ] final  -75.82 input  -57.11 | X-H torsion

> <Gold.Protein.ActiveResidues>
 VAL166  LYS551  ARG553  GLY616  TRP617  ASP618  TYR619  PRO620  LYS621  CYS622 
 ASP623  PHE694  ASN695  SER759  ASP760  ASP761  ALA762  ILE779  LEU786  VAL792 
 PHE793  MET794  SER795  GLU796  ALA797  LYS798  CYS799  TRP800  GLU811  SER814 

> <Gold.Protein.RotatedAtoms>
  150.8665  133.7567  159.2974 H   0  0  0  0  0  0  0  0  0  0  0  0  # atno 6907 bound_to 6896
  151.5193  135.1065  159.9884 H   0  0  0  0  0  0  0  0  0  0  0  0  # atno 6908 bound_to 6896
  152.4664  133.7889  159.6947 H   0  0  0  0  0  0  0  0  0  0  0  0  # atno 6909 bound_to 6896
  145.0762  140.8394  143.4066 H   0  0  0  0  0  0  0  0  0  0  0  0  # atno 7974 bound_to 7965
  155.5321  140.0600  157.2887 H   0  0  0  0  0  0  0  0  0  0  0  0  # atno 8008 bound_to 7997
  154.4481  140.1934  156.0549 H   0  0  0  0  0  0  0  0  0  0  0  0  # atno 8009 bound_to 7997
  156.0645  140.3268  155.7505 H   0  0  0  0  0  0  0  0  0  0  0  0  # atno 8010 bound_to 7997
  139.5012  144.6152  151.6181 H   0  0  0  0  0  0  0  0  0  0  0  0  # atno 10167 bound_to 10162
  156.1795  130.4150  149.9528 H   0  0  0  0  0  0  0  0  0  0  0  0  # atno 10718 bound_to 10713
  154.7932  135.4757  154.0101 H   0  0  0  0  0  0  0  0  0  0  0  0  # atno 10763 bound_to 10752
  153.1663  135.6817  153.8677 H   0  0  0  0  0  0  0  0  0  0  0  0  # atno 10764 bound_to 10752
  153.8274  135.3196  155.3393 H   0  0  0  0  0  0  0  0  0  0  0  0  # atno 10765 bound_to 10752
  141.1649  133.6960  156.7574 H   0  0  0  0  0  0  0  0  0  0  0  0  # atno 11005 bound_to 11000
  145.1232  139.2680  143.5577 LP  0  0  0  0  0  0  0  0  0  0  0  0  # atno 17320 bound_to 7965
  146.3530  140.0862  142.8615 LP  0  0  0  0  0  0  0  0  0  0  0  0  # atno 17321 bound_to 7965
  140.5837  143.9901  150.6283 LP  0  0  0  0  0  0  0  0  0  0  0  0  # atno 17342 bound_to 10162
  140.3058  143.3230  152.0927 LP  0  0  0  0  0  0  0  0  0  0  0  0  # atno 17343 bound_to 10162
  156.7303  130.9040  151.3625 LP  0  0  0  0  0  0  0  0  0  0  0  0  # atno 17370 bound_to 10713
  157.6858  130.9184  150.0384 LP  0  0  0  0  0  0  0  0  0  0  0  0  # atno 17371 bound_to 10713
  140.2559  134.8504  157.3712 LP  0  0  0  0  0  0  0  0  0  0  0  0  # atno 17394 bound_to 11000
  140.1658  134.4671  155.7864 LP  0  0  0  0  0  0  0  0  0  0  0  0  # atno 17395 bound_to 11000

$$$$
