AV-unprocessed.smi:54|AV-procd|sdf|531|dock5
  -GOLD-   2262016403D 1   1.00000     0.00000
 Structure written by MMmdl.
 44 46  0  0  0  0  0  0  0  0  1 V2000
  152.9631  143.0144  161.7272 C   0  0  0  0  0  0  0  0  0  0  0  0
  153.1038  141.5167  161.4107 C   0  0  0  0  0  0  0  0  0  0  0  0
  154.5287  141.0170  161.6994 C   0  0  0  0  0  0  0  0  0  0  0  0
  152.7190  141.2338  159.9544 C   0  0  0  0  0  0  0  0  0  0  0  0
  152.3443  142.1268  159.1932 O   0  0  0  0  0  0  0  0  0  0  0  0
  152.8179  139.8446  159.5421 N   0  0  0  0  0  0  0  0  0  0  0  0
  152.5655  139.3379  158.3132 C   0  0  0  0  0  0  0  0  0  0  0  0
  151.7585  139.9278  157.4444 N   0  0  0  0  0  0  0  0  0  0  0  0
  151.6333  139.2873  156.2440 C   0  0  0  0  0  0  0  0  0  0  0  0
  152.2639  138.1153  155.8784 C   0  0  0  0  0  0  0  0  0  0  0  0
  151.9034  137.7597  154.5846 N   0  0  0  0  0  0  0  0  0  0  0  0
  151.0889  138.7067  154.2131 C   0  0  0  0  0  0  0  0  0  0  0  0
  150.8592  139.6720  155.1643 N   0  0  0  0  0  0  0  0  0  0  0  0
  149.9933  140.8880  155.0233 C   0  0  2  0  0  0  0  0  0  0  0  0
  149.7255  141.3878  156.3010 O   0  0  0  0  0  0  0  0  0  0  0  0
  148.3342  141.2923  156.6019 C   0  0  1  0  0  0  0  0  0  0  0  0
  147.9029  142.3805  157.6013 C   0  0  0  0  0  0  0  0  0  0  0  0
  146.5527  142.1942  157.9697 O   0  0  0  0  0  0  0  0  0  0  0  0
  147.6668  141.3529  155.2219 C   0  0  1  0  0  0  0  0  0  0  0  0
  147.5188  142.7007  154.8014 O   0  0  0  0  0  0  0  0  0  0  0  0
  148.6474  140.5692  154.3523 C   0  0  1  0  0  0  0  0  0  0  0  0
  148.5898  140.9687  152.9959 O   0  0  0  0  0  0  0  0  0  0  0  0
  153.1456  137.4640  156.8045 C   0  0  0  0  0  0  0  0  0  0  0  0
  153.7828  136.4248  156.6469 O   0  0  0  0  0  0  0  0  0  0  0  0
  153.2437  138.1563  158.0182 N   0  0  0  0  0  0  0  0  0  0  0  0
  150.5987  141.6082  154.4711 H   0  0  0  0  0  0  0  0  0  0  0  0
  148.1268  140.3135  157.0310 H   0  0  0  0  0  0  0  0  0  0  0  0
  146.6796  140.8898  155.2322 H   0  0  0  0  0  0  0  0  0  0  0  0
  148.4298  139.5039  154.4254 H   0  0  0  0  0  0  0  0  0  0  0  0
  151.9534  143.3704  161.5201 H   0  0  0  0  0  0  0  0  0  0  0  0
  153.6568  143.6163  161.1386 H   0  0  0  0  0  0  0  0  0  0  0  0
  153.1683  143.2106  162.7800 H   0  0  0  0  0  0  0  0  0  0  0  0
  152.4172  140.9685  162.0574 H   0  0  0  0  0  0  0  0  0  0  0  0
  154.6307  139.9554  161.4700 H   0  0  0  0  0  0  0  0  0  0  0  0
  154.7816  141.1493  162.7514 H   0  0  0  0  0  0  0  0  0  0  0  0
  155.2712  141.5580  161.1112 H   0  0  0  0  0  0  0  0  0  0  0  0
  153.0815  139.1863  160.2604 H   0  0  0  0  0  0  0  0  0  0  0  0
  150.6331  138.7249  153.2338 H   0  0  0  0  0  0  0  0  0  0  0  0
  148.5390  142.3853  158.4869 H   0  0  0  0  0  0  0  0  0  0  0  0
  147.9791  143.3652  157.1388 H   0  0  0  0  0  0  0  0  0  0  0  0
  146.0806  141.8612  157.2218 H   0  0  0  0  0  0  0  0  0  0  0  0
  148.1595  143.2270  155.2549 H   0  0  0  0  0  0  0  0  0  0  0  0
  148.8355  140.2324  152.4569 H   0  0  0  0  0  0  0  0  0  0  0  0
  153.8506  137.7562  158.7183 H   0  0  0  0  0  0  0  0  0  0  0  0
  1  2  1  0  0  0  0
  1 30  1  0  0  0  0
  1 31  1  0  0  0  0
  1 32  1  0  0  0  0
  2  3  1  0  0  0  0
  2  4  1  0  0  0  0
  2 33  1  0  0  0  0
  3 34  1  0  0  0  0
  3 35  1  0  0  0  0
  3 36  1  0  0  0  0
  4  5  2  0  0  0  0
  4  6  1  0  0  0  0
  6 37  1  0  0  0  0
  6  7  1  0  0  0  0
  7 25  1  0  0  0  0
  7  8  2  0  0  0  0
  8  9  1  0  0  0  0
  9 13  1  0  0  0  0
  9 10  2  0  0  0  0
 10 11  1  0  0  0  0
 10 23  1  0  0  0  0
 11 12  2  0  0  0  0
 12 13  1  0  0  0  0
 12 38  1  0  0  0  0
 13 14  1  0  0  0  0
 14 26  1  0  0  0  0
 14 21  1  0  0  0  0
 14 15  1  0  0  0  0
 15 16  1  0  0  0  0
 16 27  1  0  0  0  0
 16 17  1  0  0  0  0
 16 19  1  0  0  0  0
 17 18  1  0  0  0  0
 17 39  1  0  0  0  0
 17 40  1  0  0  0  0
 18 41  1  0  0  0  0
 19 28  1  0  0  0  0
 19 20  1  0  0  0  0
 19 21  1  0  0  0  0
 20 42  1  0  0  0  0
 21 29  1  0  0  0  0
 21 22  1  0  0  0  0
 22 43  1  0  0  0  0
 23 24  2  0  0  0  0
 23 25  1  0  0  0  0
 25 44  1  0  0  0  0
M  END
> <s_m_source_file>
AV-unprocessed.smi

> <i_m_source_file_index>
54

> <i_lp_mmshare_version>
43012

> <i_f3d_flags>
0

> <s_epik_input>
W0NIM11bQ0hdKFtDSDNdKUMoPU8pW05IXWMobjEpW25IXWMoPU8pYyhjMTIpbltjSF1uMltDQEBIXTNPW0NASF0oW0NIMl1bT0hdKVtDQEBIXShbT0hdKVtDQEhdM1tPSF0=

> <s_epik_cmdline>
J2VwaWtfcHl0aG9uJywgJy1waCcsICc3LjAnLCAnLXRuJywgJzgnLCAnLW1hJywgJzIwMCcsICctbWV0YWxfYmluZGluZycsICctaW1hZScsICc8aW5maWxlLm1hZT4nLCAnLW9tYWUnLCAnPG91dGZpbGUubWFlPic=

> <r_lp_tautomer_probability>
0.85571

> <r_epik_Ionization_Penalty>
0.0316551

> <r_epik_Ionization_Penalty_Charging>
0.0316043

> <r_epik_Ionization_Penalty_Neutral>
5.07097e-05

> <r_epik_State_Penalty>
3.15494e-07

> <r_epik_Charging_Adjusted_Penalty>
0.0316047

> <i_epik_Tot_Q>
0

> <i_epik_Tot_abs_Q>
0

> <r_epik_Metal_State_Penalty>
0.421206

> <b_epik_Metal_Only>
0

> <s_epik_Chemistry_Notes>
This compound contains an acetal/aminal-like group ( X-CH(R)-Y where X, Y are N, S, or O) that may be acid/base labile, releasing an aldehyde.

> <s_lp_Force_Field>
OPLS_2005

> <r_lp_Energy>
45.4171

> <b_lp_Chiralities_Consistent>
1

> <s_lp_Variant>
AV-unprocessed.smi:54-3

> <Gold.Version>
5.8.1

> <Gold.Id.Protein>
6NUR|6NUR_protein|mol2

> <Gold.PLP.Fitness>
47.7422

> <Gold.PLP.PLP>
-35.9307

> <Gold.PLP.part.hbond>
-3.8623

> <Gold.PLP.part.metal>
0.0000

> <Gold.PLP.part.buried>
-2.7233

> <Gold.PLP.part.nonpolar>
-28.6800

> <Gold.PLP.part.repulsive>
0.4032

> <Gold.PLP.ligand.clash>
0.0000

> <Gold.PLP.ligand.torsion>
0.6395

> <Gold.PLP.Chemscore.Hbond>
3.7114

> <Gold.PLP.Chemscore.CHOScore>
0.6418

> <Gold.PLP.Chemscore.Metal>
0.0000

> <Gold.Chemscore.Hbonds>
donor molecule, donor type, donor heavy atom, donor atom, acceptor molecule, acceptor atom, score
      L1  H    20    42       P1  8028  1.00
      L1  H    22    43       P1  7957  0.69
      P1  H  8011  8017       L1    22  1.00
      P1  H 10752 10763       L1    24  0.83
      P1  H 10752 10765       L1    11  0.10
      L1  C    12    38       P1  7957  0.73

> <Gold.PLP.Chemscore.Internal.Correction>
0.0309

> <Gold.Rescore>
     Score         DG    S(hbond)    S(metal)    S(lipo)     H(rot)  DE(clash)    DE(int)     intcor
      9.85     -13.46       3.59        0.00      54.27       4.05       0.12       3.49       ----

> <Gold.Chemscore.Fitness>
9.8452

> <Gold.Chemscore.DG>
-13.4590

> <Gold.Chemscore.ZeroCoef>
-5.4800

> <Gold.Chemscore.Hbond>
3.5914

> <Gold.Chemscore.Metal>
0.0000

> <Gold.Chemscore.Lipo>
54.2730

> <Gold.Chemscore.Internal_Hbond>
0.0000

> <Gold.Chemscore.DEClash>
0.1211

> <Gold.Chemscore.DEInternal>
3.4927

> <Gold.Chemscore.Rot>
4.0493

> <Gold.Chemscore.Internal.Correction>
   9.000000E+99

> <Gold.Chemscore.Hbonds>
donor molecule, donor type, donor heavy atom, donor atom, acceptor molecule, acceptor atom, score
      L1  H    20    42       P1  8028  0.88
      L1  H    22    43       P1  7957  0.66
      P1  H  8011  8017       L1    22  0.32
      P1  H 10752 10763       L1    24  0.83
      P1  H 10752 10765       L1    11  0.07

> <Gold.Chemscore.Hbond.Weighted>
-11.9953

> <Gold.Chemscore.Metal.Weighted>
-0.0000

> <Gold.Chemscore.Lipo.Weighted>
-6.3499

> <Gold.Chemscore.Internal_Hbond.Weighted>
0.0000

> <Gold.Chemscore.DEClash.Weighted>
0.1211

> <Gold.Chemscore.DEInternal.Weighted>
3.4927

> <Gold.Chemscore.Rot.Weighted>
10.3662

> <Gold.Chemscore.Internal.Correction.Weighted>
   9.000000E+99

> <Gold.Protein.RotatedTorsions>
[ 6907 6896 6895 6894 ] final -160.45 input  -60.11 | X-H torsion
[ 7974 7965 7964 7962 ] final  121.10 input  175.53 | X-H torsion
[ 8008 7997 7996 7995 ] final   21.55 input   59.86 | X-H torsion
[ 10167 10162 10161 10158 ] final  -58.53 input  -65.29 | X-H torsion
[ 10718 10713 10712 10709 ] final   42.85 input   66.30 | X-H torsion
[ 10763 10752 10751 10750 ] final  148.17 input  -60.55 | X-H torsion
[ 11005 11000 10999 10996 ] final  -42.35 input  -57.11 | X-H torsion

> <Gold.Protein.ActiveResidues>
 VAL166  LYS551  ARG553  GLY616  TRP617  ASP618  TYR619  PRO620  LYS621  CYS622 
 ASP623  PHE694  ASN695  SER759  ASP760  ASP761  ALA762  ILE779  LEU786  VAL792 
 PHE793  MET794  SER795  GLU796  ALA797  LYS798  CYS799  TRP800  GLU811  SER814 

> <Gold.Protein.RotatedAtoms>
  151.3492  133.3932  159.2678 H   0  0  0  0  0  0  0  0  0  0  0  0  # atno 6907 bound_to 6896
  150.9815  134.9170  159.7857 H   0  0  0  0  0  0  0  0  0  0  0  0  # atno 6908 bound_to 6896
  152.5218  134.3456  159.9285 H   0  0  0  0  0  0  0  0  0  0  0  0  # atno 6909 bound_to 6896
  145.1233  139.3375  143.4703 H   0  0  0  0  0  0  0  0  0  0  0  0  # atno 7974 bound_to 7965
  154.9523  140.3067  155.5069 H   0  0  0  0  0  0  0  0  0  0  0  0  # atno 8008 bound_to 7997
  156.2986  140.2316  156.4539 H   0  0  0  0  0  0  0  0  0  0  0  0  # atno 8009 bound_to 7997
  154.8043  140.0432  157.1284 H   0  0  0  0  0  0  0  0  0  0  0  0  # atno 8010 bound_to 7997
  140.6192  143.2413  151.5523 H   0  0  0  0  0  0  0  0  0  0  0  0  # atno 10167 bound_to 10162
  157.4094  130.7905  149.7417 H   0  0  0  0  0  0  0  0  0  0  0  0  # atno 10718 bound_to 10713
  154.0504  135.2882  155.3341 H   0  0  0  0  0  0  0  0  0  0  0  0  # atno 10763 bound_to 10752
  154.6872  135.5240  153.8346 H   0  0  0  0  0  0  0  0  0  0  0  0  # atno 10764 bound_to 10752
  153.0563  135.6596  154.0701 H   0  0  0  0  0  0  0  0  0  0  0  0  # atno 10765 bound_to 10752
  141.0309  133.6820  156.2583 H   0  0  0  0  0  0  0  0  0  0  0  0  # atno 11005 bound_to 11000
  146.3519  140.1201  142.8600 LP  0  0  0  0  0  0  0  0  0  0  0  0  # atno 17320 bound_to 7965
  145.0716  140.9159  143.4878 LP  0  0  0  0  0  0  0  0  0  0  0  0  # atno 17321 bound_to 7965
  139.5424  144.2612  152.1376 LP  0  0  0  0  0  0  0  0  0  0  0  0  # atno 17342 bound_to 10162
  140.1828  144.4828  150.6519 LP  0  0  0  0  0  0  0  0  0  0  0  0  # atno 17343 bound_to 10162
  155.9846  130.3990  150.3303 LP  0  0  0  0  0  0  0  0  0  0  0  0  # atno 17370 bound_to 10713
  157.1439  131.0303  151.2915 LP  0  0  0  0  0  0  0  0  0  0  0  0  # atno 17371 bound_to 10713
  140.6407  134.5168  157.5569 LP  0  0  0  0  0  0  0  0  0  0  0  0  # atno 17394 bound_to 11000
  139.9207  134.8154  156.1219 LP  0  0  0  0  0  0  0  0  0  0  0  0  # atno 17395 bound_to 11000

$$$$
