AV-unprocessed.smi:2883|AV-procd|sdf|11076|dock2
  -GOLD-   2272015543D 1   1.00000     0.00000
 Structure written by MMmdl.
 40 42  0  0  0  0  0  0  0  0  2 V2000
  151.1749  137.2828  154.3310 C   0  0  0  0  0  0  0  0  0  0  0  0
  151.5404  138.3696  155.3686 C   0  0  0  0  0  0  0  0  0  0  0  0
  151.4493  137.7845  156.7895 C   0  0  0  0  0  0  0  0  0  0  0  0
  153.0004  138.7805  155.0701 C   0  0  0  0  0  0  0  0  0  0  0  0
  150.5980  139.5759  155.2512 C   0  0  0  0  0  0  0  0  0  0  0  0
  149.7151  139.6253  154.2376 N   0  3  0  0  0  0  0  0  0  0  0  0
  148.9495  140.7284  154.0544 C   0  0  0  0  0  0  0  0  0  0  0  0
  149.0944  141.8438  154.8988 C   0  0  0  0  0  0  0  0  0  0  0  0
  150.0652  141.7516  155.9095 C   0  0  0  0  0  0  0  0  0  0  0  0
  150.2712  142.8364  156.7726 N   0  0  0  0  0  0  0  0  0  0  0  0
  150.3183  142.6457  158.2197 C   0  0  1  0  0  0  0  0  0  0  0  0
  151.6491  142.0681  158.7068 C   0  0  0  0  0  0  0  0  0  0  0  0
  152.0546  143.0800  159.7880 C   0  0  1  0  0  0  0  0  0  0  0  0
  152.5631  144.3890  159.1709 C   0  0  0  0  0  0  0  0  0  0  0  0
  151.2688  145.0076  158.6467 C   0  0  0  0  0  0  0  0  0  0  0  0
  150.2257  143.9476  159.0410 C   0  0  2  0  0  0  0  0  0  0  0  0
  150.7843  143.4949  160.2622 O   0  0  0  0  0  0  0  0  0  0  0  0
  150.8081  140.6327  156.0512 N   0  0  0  0  0  0  0  0  0  0  0  0
  151.8665  136.4408  154.3777 H   0  0  0  0  0  0  0  0  0  0  0  0
  151.2073  137.6763  153.3143 H   0  0  0  0  0  0  0  0  0  0  0  0
  150.1754  136.8786  154.4963 H   0  0  0  0  0  0  0  0  0  0  0  0
  150.4351  137.4548  157.0179 H   0  0  0  0  0  0  0  0  0  0  0  0
  151.7311  138.5227  157.5413 H   0  0  0  0  0  0  0  0  0  0  0  0
  152.1091  136.9245  156.9095 H   0  0  0  0  0  0  0  0  0  0  0  0
  153.6697  137.9201  155.1085 H   0  0  0  0  0  0  0  0  0  0  0  0
  153.3778  139.5045  155.7931 H   0  0  0  0  0  0  0  0  0  0  0  0
  153.0942  139.2227  154.0774 H   0  0  0  0  0  0  0  0  0  0  0  0
  148.2513  140.6851  153.2313 H   0  0  0  0  0  0  0  0  0  0  0  0
  148.4926  142.7311  154.7653 H   0  0  0  0  0  0  0  0  0  0  0  0
  150.1669  143.7761  156.4185 H   0  0  0  0  0  0  0  0  0  0  0  0
  149.5176  141.9687  158.5214 H   0  0  0  0  0  0  0  0  0  0  0  0
  151.4952  141.0784  159.1382 H   0  0  0  0  0  0  0  0  0  0  0  0
  152.4056  141.9813  157.9255 H   0  0  0  0  0  0  0  0  0  0  0  0
  152.7107  142.6693  160.5558 H   0  0  0  0  0  0  0  0  0  0  0  0
  153.0121  145.0284  159.9318 H   0  0  0  0  0  0  0  0  0  0  0  0
  153.3016  144.2202  158.3866 H   0  0  0  0  0  0  0  0  0  0  0  0
  151.0676  145.9498  159.1573 H   0  0  0  0  0  0  0  0  0  0  0  0
  151.2947  145.2065  157.5752 H   0  0  0  0  0  0  0  0  0  0  0  0
  149.2133  144.3412  159.1373 H   0  0  0  0  0  0  0  0  0  0  0  0
  149.6109  138.8317  153.6048 H   0  0  0  0  0  0  0  0  0  0  0  0
  1  2  1  0  0  0  0
  1 19  1  0  0  0  0
  1 20  1  0  0  0  0
  1 21  1  0  0  0  0
  2  3  1  0  0  0  0
  2  4  1  0  0  0  0
  2  5  1  0  0  0  0
  3 22  1  0  0  0  0
  3 23  1  0  0  0  0
  3 24  1  0  0  0  0
  4 25  1  0  0  0  0
  4 26  1  0  0  0  0
  4 27  1  0  0  0  0
  5 18  1  0  0  0  0
  5  6  2  0  0  0  0
  6  7  1  0  0  0  0
  6 40  1  0  0  0  0
  7  8  2  0  0  0  0
  7 28  1  0  0  0  0
  8  9  1  0  0  0  0
  8 29  1  0  0  0  0
  9 10  1  0  0  0  0
  9 18  2  0  0  0  0
 10 11  1  0  0  0  0
 10 30  1  0  0  0  0
 11 16  1  0  0  0  0
 11 12  1  0  0  0  0
 11 31  1  0  0  0  0
 12 13  1  0  0  0  0
 12 32  1  0  0  0  0
 12 33  1  0  0  0  0
 13 17  1  0  0  0  0
 13 14  1  0  0  0  0
 13 34  1  0  0  0  0
 14 15  1  0  0  0  0
 14 35  1  0  0  0  0
 14 36  1  0  0  0  0
 15 16  1  0  0  0  0
 15 37  1  0  0  0  0
 15 38  1  0  0  0  0
 16 17  1  0  0  0  0
 16 39  1  0  0  0  0
M  CHG  1   6   1
M  END
> <s_m_source_file>
AV-unprocessed.smi

> <i_m_source_file_index>
2883

> <i_lp_mmshare_version>
43012

> <i_f3d_flags>
0

> <s_epik_input>
W0NIM11DKFtDSDNdKShbQ0gzXSljMW5bY0hdW2NIXWMobjEpW05IXVtDQEhdKFtDSDJdW0NAQEhdMjMpW0NAQEhdKE8zKVtDSDJdW0NIMl0y

> <s_epik_cmdline>
J2VwaWtfcHl0aG9uJywgJy1waCcsICc3LjAnLCAnLXRuJywgJzgnLCAnLW1hJywgJzIwMCcsICctbWV0YWxfYmluZGluZycsICctaW1hZScsICc8aW5maWxlLm1hZT4nLCAnLW9tYWUnLCAnPG91dGZpbGUubWFlPic=

> <r_lp_tautomer_probability>
0.999336

> <r_epik_Ionization_Penalty>
0.371831

> <r_epik_Ionization_Penalty_Charging>
0.371821

> <r_epik_Ionization_Penalty_Neutral>
1.06897e-05

> <r_epik_State_Penalty>
0.369311

> <r_epik_Charging_Adjusted_Penalty>
0.741132

> <i_epik_Tot_Q>
1

> <i_epik_Tot_abs_Q>
1

> <r_epik_Metal_State_Penalty>
0.621338

> <b_epik_Metal_Only>
0

> <s_lp_Force_Field>
OPLS_2005

> <r_lp_Energy>
39.2266

> <b_lp_Chiralities_Consistent>
1

> <s_lp_Variant>
AV-unprocessed.smi:2883-2

> <Gold.Version>
5.8.1

> <Gold.Id.Protein>
6NUR|6NUR_protein|mol2

> <Gold.PLP.Fitness>
39.9988

> <Gold.PLP.PLP>
-38.7084

> <Gold.PLP.part.hbond>
-2.4374

> <Gold.PLP.part.metal>
0.0000

> <Gold.PLP.part.buried>
-0.4747

> <Gold.PLP.part.nonpolar>
-35.7992

> <Gold.PLP.part.repulsive>
0.2461

> <Gold.PLP.ligand.clash>
0.0000

> <Gold.PLP.ligand.torsion>
0.7227

> <Gold.PLP.Chemscore.Hbond>
0.8640

> <Gold.PLP.Chemscore.CHOScore>
0.0000

> <Gold.PLP.Chemscore.Metal>
0.0000

> <Gold.Chemscore.Hbonds>
donor molecule, donor type, donor heavy atom, donor atom, acceptor molecule, acceptor atom, score
      L1  H    10    30       P1  8028  0.75

> <Gold.PLP.Chemscore.Internal.Correction>
0.1439

> <Gold.Rescore>
     Score         DG    S(hbond)    S(metal)    S(lipo)     H(rot)  DE(clash)    DE(int)     intcor
     17.60     -18.70       0.97        0.00     110.77       1.16       0.26       0.84       ----

> <Gold.Chemscore.Fitness>
17.5974

> <Gold.Chemscore.DG>
-18.6991

> <Gold.Chemscore.ZeroCoef>
-5.4800

> <Gold.Chemscore.Hbond>
0.9688

> <Gold.Chemscore.Metal>
0.0000

> <Gold.Chemscore.Lipo>
110.7662

> <Gold.Chemscore.Internal_Hbond>
0.0000

> <Gold.Chemscore.DEClash>
0.2593

> <Gold.Chemscore.DEInternal>
0.8424

> <Gold.Chemscore.Rot>
1.1626

> <Gold.Chemscore.Internal.Correction>
   9.000000E+99

> <Gold.Chemscore.Hbonds>
donor molecule, donor type, donor heavy atom, donor atom, acceptor molecule, acceptor atom, score
      L1  H    10    30       P1  8028  0.76

> <Gold.Chemscore.Hbond.Weighted>
-3.2358

> <Gold.Chemscore.Metal.Weighted>
-0.0000

> <Gold.Chemscore.Lipo.Weighted>
-12.9596

> <Gold.Chemscore.Internal_Hbond.Weighted>
0.0000

> <Gold.Chemscore.DEClash.Weighted>
0.2593

> <Gold.Chemscore.DEInternal.Weighted>
0.8424

> <Gold.Chemscore.Rot.Weighted>
2.9763

> <Gold.Chemscore.Internal.Correction.Weighted>
   9.000000E+99

> <Gold.Protein.RotatedTorsions>
[ 6907 6896 6895 6894 ] final  116.84 input  -60.11 | X-H torsion
[ 7974 7965 7964 7962 ] final  -51.58 input  175.53 | X-H torsion
[ 8008 7997 7996 7995 ] final  154.93 input   59.86 | X-H torsion
[ 10167 10162 10161 10158 ] final  -17.15 input  -65.29 | X-H torsion
[ 10718 10713 10712 10709 ] final  108.61 input   66.30 | X-H torsion
[ 10763 10752 10751 10750 ] final  -80.21 input  -60.55 | X-H torsion
[ 11005 11000 10999 10996 ] final  167.27 input  -57.11 | X-H torsion

> <Gold.Protein.ActiveResidues>
 VAL166  LYS551  ARG553  GLY616  TRP617  ASP618  TYR619  PRO620  LYS621  CYS622 
 ASP623  PHE694  ASN695  SER759  ASP760  ASP761  ALA762  ILE779  LEU786  VAL792 
 PHE793  MET794  SER795  GLU796  ALA797  LYS798  CYS799  TRP800  GLU811  SER814 

> <Gold.Protein.RotatedAtoms>
  152.4652  133.7907  159.6899 H   0  0  0  0  0  0  0  0  0  0  0  0  # atno 6907 bound_to 6896
  150.8613  133.7630  159.2998 H   0  0  0  0  0  0  0  0  0  0  0  0  # atno 6908 bound_to 6896
  151.5195  135.1070  159.9926 H   0  0  0  0  0  0  0  0  0  0  0  0  # atno 6909 bound_to 6896
  145.9174  140.7863  142.9665 H   0  0  0  0  0  0  0  0  0  0  0  0  # atno 7974 bound_to 7965
  156.2505  140.1953  156.6722 H   0  0  0  0  0  0  0  0  0  0  0  0  # atno 8008 bound_to 7997
  154.6384  140.0587  156.9842 H   0  0  0  0  0  0  0  0  0  0  0  0  # atno 8009 bound_to 7997
  155.1601  140.3259  155.4416 H   0  0  0  0  0  0  0  0  0  0  0  0  # atno 8010 bound_to 7997
  140.7243  143.5044  150.9828 H   0  0  0  0  0  0  0  0  0  0  0  0  # atno 10167 bound_to 10162
  157.6578  131.0897  150.6330 H   0  0  0  0  0  0  0  0  0  0  0  0  # atno 10718 bound_to 10713
  154.5483  135.5669  153.6900 H   0  0  0  0  0  0  0  0  0  0  0  0  # atno 10763 bound_to 10752
  152.9982  135.6244  154.2408 H   0  0  0  0  0  0  0  0  0  0  0  0  # atno 10764 bound_to 10752
  154.2342  135.2865  155.2858 H   0  0  0  0  0  0  0  0  0  0  0  0  # atno 10765 bound_to 10752
  140.2751  134.7796  157.3709 H   0  0  0  0  0  0  0  0  0  0  0  0  # atno 11005 bound_to 11000
  144.6749  140.1921  143.7395 LP  0  0  0  0  0  0  0  0  0  0  0  0  # atno 17320 bound_to 7965
  145.8594  139.2215  143.1725 LP  0  0  0  0  0  0  0  0  0  0  0  0  # atno 17321 bound_to 7965
  139.8755  143.7138  152.3162 LP  0  0  0  0  0  0  0  0  0  0  0  0  # atno 17342 bound_to 10162
  139.7402  144.7561  151.0664 LP  0  0  0  0  0  0  0  0  0  0  0  0  # atno 17343 bound_to 10162
  156.6635  130.4519  149.5680 LP  0  0  0  0  0  0  0  0  0  0  0  0  # atno 17370 bound_to 10713
  156.2049  130.6643  151.1208 LP  0  0  0  0  0  0  0  0  0  0  0  0  # atno 17371 bound_to 10713
  140.1336  134.5062  155.8086 LP  0  0  0  0  0  0  0  0  0  0  0  0  # atno 17394 bound_to 11000
  141.2171  133.6799  156.7085 LP  0  0  0  0  0  0  0  0  0  0  0  0  # atno 17395 bound_to 11000

$$$$
