AV-unprocessed.smi:45|AV-procd|sdf|408|dock3
  -GOLD-   2262016263D 1   1.00000     0.00000
 Structure written by MMmdl.
 60 63  0  0  0  0  0  0  0  0  1 V2000
  143.0766  133.1346  151.2987 C   0  0  0  0  0  0  0  0  0  0  0  0
  144.0764  132.1478  151.0908 O   0  0  0  0  0  0  0  0  0  0  0  0
  145.2887  132.3017  151.7313 C   0  0  0  0  0  0  0  0  0  0  0  0
  145.8386  133.5592  152.0884 C   0  0  0  0  0  0  0  0  0  0  0  0
  147.0840  133.6369  152.7410 C   0  0  0  0  0  0  0  0  0  0  0  0
  147.7999  132.4628  153.0498 C   0  0  0  0  0  0  0  0  0  0  0  0
  149.1451  132.5435  153.7456 C   0  0  0  0  0  0  0  0  0  0  0  0
  149.0567  132.9871  155.1298 N   0  0  0  0  0  0  0  0  0  0  0  0
  150.0852  133.7443  155.7158 C   0  0  0  0  0  0  0  0  0  0  0  0
  150.0489  135.0878  155.5502 N   0  0  0  0  0  0  0  0  0  0  0  0
  151.0223  135.8259  156.0925 C   0  0  0  0  0  0  0  0  0  0  0  0
  150.9699  137.2071  155.9028 N   0  0  0  0  0  0  0  0  0  0  0  0
  152.0490  138.0799  156.3541 C   0  0  0  0  0  0  0  0  0  0  0  0
  152.0926  139.2427  155.3646 C   0  0  0  0  0  0  0  0  0  0  0  0
  150.6489  139.3407  154.8912 C   0  0  0  0  0  0  0  0  0  0  0  0
  150.1821  137.8782  154.8664 C   0  0  2  0  0  0  0  0  0  0  0  0
  148.6586  137.7393  155.0710 C   0  0  0  0  0  0  0  0  0  0  0  0
  147.9726  138.1824  153.9197 O   0  0  0  0  0  0  0  0  0  0  0  0
  152.0540  135.3472  156.7944 N   0  0  0  0  0  0  0  0  0  0  0  0
  152.1153  134.0115  156.9726 C   0  0  0  0  0  0  0  0  0  0  0  0
  151.1440  133.1322  156.4409 C   0  0  0  0  0  0  0  0  0  0  0  0
  151.2367  131.6494  156.6845 C   0  0  0  0  0  0  0  0  0  0  0  0
  151.8223  131.1963  157.6683 O   0  0  0  0  0  0  0  0  0  0  0  0
  150.6143  130.8823  155.7752 N   0  0  0  0  0  0  0  0  0  0  0  0
  150.5863  129.4247  155.7909 C   0  0  0  0  0  0  0  0  0  0  0  0
  151.9347  128.8132  155.4536 C   0  0  0  0  0  0  0  0  0  0  0  0
  151.9989  127.4773  155.4356 N   0  0  0  0  0  0  0  0  0  0  0  0
  153.1938  126.9279  155.1278 C   0  0  0  0  0  0  0  0  0  0  0  0
  154.3225  127.7208  154.8383 C   0  0  0  0  0  0  0  0  0  0  0  0
  154.1333  129.1167  154.8889 C   0  0  0  0  0  0  0  0  0  0  0  0
  152.9365  129.6609  155.1980 N   0  0  0  0  0  0  0  0  0  0  0  0
  147.2608  131.2106  152.6957 C   0  0  0  0  0  0  0  0  0  0  0  0
  146.0150  131.1307  152.0432 C   0  0  0  0  0  0  0  0  0  0  0  0
  145.3829  129.5783  151.6249 Cl  0  0  0  0  0  0  0  0  0  0  0  0
  150.4623  137.4364  153.9087 H   0  0  0  0  0  0  0  0  0  0  0  0
  142.1886  132.8730  150.7236 H   0  0  0  0  0  0  0  0  0  0  0  0
  143.4094  134.1169  150.9612 H   0  0  0  0  0  0  0  0  0  0  0  0
  142.7845  133.1914  152.3481 H   0  0  0  0  0  0  0  0  0  0  0  0
  145.3243  134.4827  151.8707 H   0  0  0  0  0  0  0  0  0  0  0  0
  147.4893  134.6035  153.0031 H   0  0  0  0  0  0  0  0  0  0  0  0
  149.6288  131.5663  153.7146 H   0  0  0  0  0  0  0  0  0  0  0  0
  149.7797  133.2326  153.1870 H   0  0  0  0  0  0  0  0  0  0  0  0
  148.1897  132.8523  155.6306 H   0  0  0  0  0  0  0  0  0  0  0  0
  151.8135  138.4356  157.3578 H   0  0  0  0  0  0  0  0  0  0  0  0
  153.0105  137.5666  156.3926 H   0  0  0  0  0  0  0  0  0  0  0  0
  152.4631  140.1666  155.8097 H   0  0  0  0  0  0  0  0  0  0  0  0
  152.7386  138.9886  154.5230 H   0  0  0  0  0  0  0  0  0  0  0  0
  150.0707  139.9154  155.6166 H   0  0  0  0  0  0  0  0  0  0  0  0
  150.5523  139.8307  153.9221 H   0  0  0  0  0  0  0  0  0  0  0  0
  148.3664  136.7058  155.2512 H   0  0  0  0  0  0  0  0  0  0  0  0
  148.3270  138.3182  155.9334 H   0  0  0  0  0  0  0  0  0  0  0  0
  148.3735  137.7870  153.1608 H   0  0  0  0  0  0  0  0  0  0  0  0
  152.9506  133.6472  157.5529 H   0  0  0  0  0  0  0  0  0  0  0  0
  150.1476  131.3363  155.0037 H   0  0  0  0  0  0  0  0  0  0  0  0
  150.2343  129.0652  156.7599 H   0  0  0  0  0  0  0  0  0  0  0  0
  149.8532  129.0883  155.0570 H   0  0  0  0  0  0  0  0  0  0  0  0
  153.2497  125.8496  155.1119 H   0  0  0  0  0  0  0  0  0  0  0  0
  155.2786  127.2833  154.5919 H   0  0  0  0  0  0  0  0  0  0  0  0
  154.9443  129.7985  154.6801 H   0  0  0  0  0  0  0  0  0  0  0  0
  147.8023  130.3043  152.9247 H   0  0  0  0  0  0  0  0  0  0  0  0
  1  2  1  0  0  0  0
  1 36  1  0  0  0  0
  1 37  1  0  0  0  0
  1 38  1  0  0  0  0
  2  3  1  0  0  0  0
  3 33  1  0  0  0  0
  3  4  2  0  0  0  0
  4  5  1  0  0  0  0
  4 39  1  0  0  0  0
  5  6  2  0  0  0  0
  5 40  1  0  0  0  0
  6  7  1  0  0  0  0
  6 32  1  0  0  0  0
  7  8  1  0  0  0  0
  7 41  1  0  0  0  0
  7 42  1  0  0  0  0
  8  9  1  0  0  0  0
  8 43  1  0  0  0  0
  9 21  1  0  0  0  0
  9 10  2  0  0  0  0
 10 11  1  0  0  0  0
 11 12  1  0  0  0  0
 11 19  2  0  0  0  0
 12 16  1  0  0  0  0
 12 13  1  0  0  0  0
 13 14  1  0  0  0  0
 13 44  1  0  0  0  0
 13 45  1  0  0  0  0
 14 15  1  0  0  0  0
 14 46  1  0  0  0  0
 14 47  1  0  0  0  0
 15 16  1  0  0  0  0
 15 48  1  0  0  0  0
 15 49  1  0  0  0  0
 16 35  1  0  0  0  0
 16 17  1  0  0  0  0
 17 18  1  0  0  0  0
 17 50  1  0  0  0  0
 17 51  1  0  0  0  0
 18 52  1  0  0  0  0
 19 20  1  0  0  0  0
 20 21  2  0  0  0  0
 20 53  1  0  0  0  0
 21 22  1  0  0  0  0
 22 23  2  0  0  0  0
 22 24  1  0  0  0  0
 24 25  1  0  0  0  0
 24 54  1  0  0  0  0
 25 26  1  0  0  0  0
 25 55  1  0  0  0  0
 25 56  1  0  0  0  0
 26 31  1  0  0  0  0
 26 27  2  0  0  0  0
 27 28  1  0  0  0  0
 28 29  2  0  0  0  0
 28 57  1  0  0  0  0
 29 30  1  0  0  0  0
 29 58  1  0  0  0  0
 30 31  2  0  0  0  0
 30 59  1  0  0  0  0
 32 33  2  0  0  0  0
 32 60  1  0  0  0  0
 33 34  1  0  0  0  0
M  END
> <s_m_source_file>
AV-unprocessed.smi

> <i_m_source_file_index>
45

> <i_lp_mmshare_version>
43012

> <i_f3d_flags>
0

> <s_epik_input>
W0NIM11PYzFbY0hdW2NIXWMoW2NIXWMxQ2wpW0NIMl1bTkhdYzJuYyhOM1tDSDJdW0NIMl1bQ0gyXVtDQEhdM1tDSDJdW09IXSluW2NIXWMyQyg9TylbTkhdW0NIMl1jNG5bY0hdW2NIXVtjSF1uNA==

> <s_epik_cmdline>
J2VwaWtfcHl0aG9uJywgJy1waCcsICc3LjAnLCAnLXRuJywgJzgnLCAnLW1hJywgJzIwMCcsICctbWV0YWxfYmluZGluZycsICctaW1hZScsICc8aW5maWxlLm1hZT4nLCAnLW9tYWUnLCAnPG91dGZpbGUubWFlPic=

> <r_lp_tautomer_probability>
1

> <r_epik_Ionization_Penalty>
0.0522664

> <r_epik_Ionization_Penalty_Charging>
0

> <r_epik_Ionization_Penalty_Neutral>
0.0522664

> <r_epik_State_Penalty>
0.0369431

> <r_epik_Charging_Adjusted_Penalty>
0.0369431

> <i_epik_Tot_Q>
0

> <i_epik_Tot_abs_Q>
0

> <r_epik_Metal_State_Penalty>
0.0404664

> <b_epik_Metal_Only>
0

> <s_epik_Chemistry_Notes>
This compound contains an electron-poor aromatic ring that is susceptible to covalent hydrolysis at low pH, typically resulting in measured values for nitrogen ring protonation that are around two units higher than predicted values.

> <s_lp_Force_Field>
OPLS_2005

> <r_lp_Energy>
32.9916

> <b_lp_Chiralities_Consistent>
1

> <s_lp_Variant>
AV-unprocessed.smi:45-2

> <Gold.Version>
5.8.1

> <Gold.Id.Protein>
6NUR|6NUR_protein|mol2

> <Gold.PLP.Fitness>
47.2292

> <Gold.PLP.PLP>
-45.1783

> <Gold.PLP.part.hbond>
-2.0000

> <Gold.PLP.part.metal>
0.0000

> <Gold.PLP.part.buried>
-1.7558

> <Gold.PLP.part.nonpolar>
-41.0420

> <Gold.PLP.part.repulsive>
0.4143

> <Gold.PLP.ligand.clash>
0.0000

> <Gold.PLP.ligand.torsion>
1.8662

> <Gold.PLP.Chemscore.Hbond>
1.7000

> <Gold.PLP.Chemscore.CHOScore>
0.0000

> <Gold.PLP.Chemscore.Metal>
0.0000

> <Gold.Chemscore.Hbonds>
donor molecule, donor type, donor heavy atom, donor atom, acceptor molecule, acceptor atom, score
      L1  H    18    52       P1  7948  0.84
      P1  H 10752 10765       L1    19  0.63

> <Gold.PLP.Chemscore.Internal.Correction>
0.6834

> <Gold.Rescore>
     Score         DG    S(hbond)    S(metal)    S(lipo)     H(rot)  DE(clash)    DE(int)     intcor
      9.90     -15.02       1.02        0.00     115.98       2.90       0.49       4.63       ----

> <Gold.Chemscore.Fitness>
9.9014

> <Gold.Chemscore.DG>
-15.0214

> <Gold.Chemscore.ZeroCoef>
-5.4800

> <Gold.Chemscore.Hbond>
1.0157

> <Gold.Chemscore.Metal>
0.0000

> <Gold.Chemscore.Lipo>
115.9807

> <Gold.Chemscore.Internal_Hbond>
0.0000

> <Gold.Chemscore.DEClash>
0.4887

> <Gold.Chemscore.DEInternal>
4.6312

> <Gold.Chemscore.Rot>
2.8988

> <Gold.Chemscore.Internal.Correction>
   9.000000E+99

> <Gold.Chemscore.Hbonds>
donor molecule, donor type, donor heavy atom, donor atom, acceptor molecule, acceptor atom, score
      L1  H    18    52       P1  7948  0.82
      P1  H 10752 10765       L1    19  0.01

> <Gold.Chemscore.Hbond.Weighted>
-3.3925

> <Gold.Chemscore.Metal.Weighted>
-0.0000

> <Gold.Chemscore.Lipo.Weighted>
-13.5697

> <Gold.Chemscore.Internal_Hbond.Weighted>
0.0000

> <Gold.Chemscore.DEClash.Weighted>
0.4887

> <Gold.Chemscore.DEInternal.Weighted>
4.6312

> <Gold.Chemscore.Rot.Weighted>
7.4209

> <Gold.Chemscore.Internal.Correction.Weighted>
   9.000000E+99

> <Gold.Protein.RotatedTorsions>
[ 6907 6896 6895 6894 ] final -104.74 input  -60.11 | X-H torsion
[ 7974 7965 7964 7962 ] final   71.24 input  175.53 | X-H torsion
[ 8008 7997 7996 7995 ] final   50.44 input   59.86 | X-H torsion
[ 10167 10162 10161 10158 ] final  -59.60 input  -65.29 | X-H torsion
[ 10718 10713 10712 10709 ] final  -55.55 input   66.30 | X-H torsion
[ 10763 10752 10751 10750 ] final -129.44 input  -60.55 | X-H torsion
[ 11005 11000 10999 10996 ] final   47.80 input  -57.11 | X-H torsion

> <Gold.Protein.ActiveResidues>
 VAL166  LYS551  ARG553  GLY616  TRP617  ASP618  TYR619  PRO620  LYS621  CYS622 
 ASP623  PHE694  ASN695  SER759  ASP760  ASP761  ALA762  ILE779  LEU786  VAL792 
 PHE793  MET794  SER795  GLU796  ALA797  LYS798  CYS799  TRP800  GLU811  SER814 

> <Gold.Protein.RotatedAtoms>
  150.7302  134.0231  159.3707 H   0  0  0  0  0  0  0  0  0  0  0  0  # atno 6907 bound_to 6896
  151.8197  135.0653  160.0433 H   0  0  0  0  0  0  0  0  0  0  0  0  # atno 6908 bound_to 6896
  152.3012  133.5621  159.5656 H   0  0  0  0  0  0  0  0  0  0  0  0  # atno 6909 bound_to 6896
  145.7682  139.2831  143.1336 H   0  0  0  0  0  0  0  0  0  0  0  0  # atno 7974 bound_to 7965
  155.4188  140.3445  155.4269 H   0  0  0  0  0  0  0  0  0  0  0  0  # atno 8008 bound_to 7997
  156.1405  140.1541  156.8959 H   0  0  0  0  0  0  0  0  0  0  0  0  # atno 8009 bound_to 7997
  154.4967  140.0826  156.7693 H   0  0  0  0  0  0  0  0  0  0  0  0  # atno 8010 bound_to 7997
  140.6125  143.2391  151.5676 H   0  0  0  0  0  0  0  0  0  0  0  0  # atno 10167 bound_to 10162
  156.1359  130.4157  150.0186 H   0  0  0  0  0  0  0  0  0  0  0  0  # atno 10718 bound_to 10713
  154.8757  135.3895  154.3920 H   0  0  0  0  0  0  0  0  0  0  0  0  # atno 10763 bound_to 10752
  153.4655  135.7029  153.6030 H   0  0  0  0  0  0  0  0  0  0  0  0  # atno 10764 bound_to 10752
  153.4510  135.3834  155.2252 H   0  0  0  0  0  0  0  0  0  0  0  0  # atno 10765 bound_to 10752
  140.1247  134.4783  155.8569 H   0  0  0  0  0  0  0  0  0  0  0  0  # atno 11005 bound_to 11000
  146.0196  140.8360  142.9930 LP  0  0  0  0  0  0  0  0  0  0  0  0  # atno 17320 bound_to 7965
  144.6817  140.2609  143.7319 LP  0  0  0  0  0  0  0  0  0  0  0  0  # atno 17321 bound_to 7965
  139.5372  144.2747  152.1276 LP  0  0  0  0  0  0  0  0  0  0  0  0  # atno 17342 bound_to 10162
  140.1949  144.4715  150.6460 LP  0  0  0  0  0  0  0  0  0  0  0  0  # atno 17343 bound_to 10162
  156.8085  130.9316  151.3644 LP  0  0  0  0  0  0  0  0  0  0  0  0  # atno 17370 bound_to 10713
  157.6532  130.8902  149.9675 LP  0  0  0  0  0  0  0  0  0  0  0  0  # atno 17371 bound_to 10713
  141.2159  133.6773  156.6956 LP  0  0  0  0  0  0  0  0  0  0  0  0  # atno 17394 bound_to 11000
  140.2919  134.8233  157.4024 LP  0  0  0  0  0  0  0  0  0  0  0  0  # atno 17395 bound_to 11000

$$$$
