AV-unprocessed.smi:261|AV-procd|sdf|1992|dock2
  -GOLD-   2262021173D 1   1.00000     0.00000
 Structure written by MMmdl.
 51 54  0  0  0  0  0  0  0  0  1 V2000
  148.8800  131.3617  155.4294 C   0  0  0  0  0  0  0  0  0  0  0  0
  149.6692  132.5396  155.3966 O   0  0  0  0  0  0  0  0  0  0  0  0
  148.9062  133.7270  155.2401 C   0  0  2  0  0  0  0  0  0  0  0  0
  148.7481  134.1574  153.7810 C   0  0  0  0  0  0  0  0  0  0  0  0
  148.5196  135.6788  153.8503 C   0  0  1  0  0  0  0  0  0  0  0  0
  147.0259  136.0394  153.8230 C   0  0  0  0  0  0  0  0  0  0  0  0
  146.6120  136.8144  152.8178 N   0  0  0  0  0  0  0  0  0  0  0  0
  146.2513  135.6163  154.6800 O   0  0  0  0  0  0  0  0  0  0  0  0
  149.1187  136.0841  155.1251 N   0  0  0  0  0  0  0  0  0  0  0  0
  149.9232  137.1687  155.1214 C   0  0  0  0  0  0  0  0  0  0  0  0
  151.0906  137.1490  154.4262 N   0  0  0  0  0  0  0  0  0  0  0  0
  151.8892  138.2209  154.4371 C   0  0  0  0  0  0  0  0  0  0  0  0
  151.7146  139.3863  155.0651 N   0  0  0  0  0  0  0  0  0  0  0  0
  150.5431  139.4031  155.7639 C   0  0  0  0  0  0  0  0  0  0  0  0
  149.5969  138.3443  155.8446 C   0  0  0  0  0  0  0  0  0  0  0  0
  148.5247  138.7189  156.6433 N   0  0  0  0  0  0  0  0  0  0  0  0
  148.8181  139.9360  157.0121 C   0  0  0  0  0  0  0  0  0  0  0  0
  150.0173  140.4218  156.5385 N   0  0  0  0  0  0  0  0  0  0  0  0
  150.5892  141.7330  156.8010 C   0  0  0  0  0  0  0  0  0  0  0  0
  149.9340  142.4700  157.9907 C   0  0  2  0  0  0  0  0  0  0  0  0
  148.6899  142.9980  157.5755 O   0  0  0  0  0  0  0  0  0  0  0  0
  150.7876  143.6199  158.5640 C   0  0  1  0  0  0  0  0  0  0  0  0
  150.2036  144.2884  159.8099 C   0  0  0  0  0  0  0  0  0  0  0  0
  151.4256  144.8363  160.5331 C   0  0  0  0  0  0  0  0  0  0  0  0
  152.6082  144.1597  159.8352 C   0  0  0  0  0  0  0  0  0  0  0  0
  152.0273  143.1297  159.0499 O   0  0  0  0  0  0  0  0  0  0  0  0
  149.6406  134.9242  155.8358 C   0  0  0  0  0  0  0  0  0  0  0  0
  147.9284  133.6313  155.7163 H   0  0  0  0  0  0  0  0  0  0  0  0
  149.0051  136.1582  152.9980 H   0  0  0  0  0  0  0  0  0  0  0  0
  149.5262  130.4950  155.5680 H   0  0  0  0  0  0  0  0  0  0  0  0
  148.3290  131.2205  154.4990 H   0  0  0  0  0  0  0  0  0  0  0  0
  148.1701  131.3868  156.2569 H   0  0  0  0  0  0  0  0  0  0  0  0
  149.6738  133.9589  153.2390 H   0  0  0  0  0  0  0  0  0  0  0  0
  147.9497  133.6192  153.2684 H   0  0  0  0  0  0  0  0  0  0  0  0
  145.6404  137.0812  152.7520 H   0  0  0  0  0  0  0  0  0  0  0  0
  147.2751  137.1310  152.1253 H   0  0  0  0  0  0  0  0  0  0  0  0
  152.7987  138.1315  153.8614 H   0  0  0  0  0  0  0  0  0  0  0  0
  148.1683  140.5140  157.6534 H   0  0  0  0  0  0  0  0  0  0  0  0
  151.6612  141.6195  156.9679 H   0  0  0  0  0  0  0  0  0  0  0  0
  150.4860  142.3323  155.8957 H   0  0  0  0  0  0  0  0  0  0  0  0
  149.7361  141.7416  158.7776 H   0  0  0  0  0  0  0  0  0  0  0  0
  148.8354  143.5503  156.8221 H   0  0  0  0  0  0  0  0  0  0  0  0
  150.9835  144.3775  157.8026 H   0  0  0  0  0  0  0  0  0  0  0  0
  149.4741  145.0614  159.5660 H   0  0  0  0  0  0  0  0  0  0  0  0
  149.7091  143.5489  160.4413 H   0  0  0  0  0  0  0  0  0  0  0  0
  151.4948  145.9211  160.4449 H   0  0  0  0  0  0  0  0  0  0  0  0
  151.3904  144.5867  161.5941 H   0  0  0  0  0  0  0  0  0  0  0  0
  153.1205  144.8643  159.1781 H   0  0  0  0  0  0  0  0  0  0  0  0
  153.3378  143.7572  160.5380 H   0  0  0  0  0  0  0  0  0  0  0  0
  149.4658  135.0086  156.9088 H   0  0  0  0  0  0  0  0  0  0  0  0
  150.7164  134.8278  155.6769 H   0  0  0  0  0  0  0  0  0  0  0  0
  1  2  1  0  0  0  0
  1 30  1  0  0  0  0
  1 31  1  0  0  0  0
  1 32  1  0  0  0  0
  2  3  1  0  0  0  0
  3 28  1  0  0  0  0
  3 27  1  0  0  0  0
  3  4  1  0  0  0  0
  4  5  1  0  0  0  0
  4 33  1  0  0  0  0
  4 34  1  0  0  0  0
  5 29  1  0  0  0  0
  5  6  1  0  0  0  0
  5  9  1  0  0  0  0
  6  7  1  0  0  0  0
  6  8  2  0  0  0  0
  7 35  1  0  0  0  0
  7 36  1  0  0  0  0
  9 10  1  0  0  0  0
  9 27  1  0  0  0  0
 10 15  1  0  0  0  0
 10 11  2  0  0  0  0
 11 12  1  0  0  0  0
 12 13  2  0  0  0  0
 12 37  1  0  0  0  0
 13 14  1  0  0  0  0
 14 18  1  0  0  0  0
 14 15  2  0  0  0  0
 15 16  1  0  0  0  0
 16 17  2  0  0  0  0
 17 18  1  0  0  0  0
 17 38  1  0  0  0  0
 18 19  1  0  0  0  0
 19 20  1  0  0  0  0
 19 39  1  0  0  0  0
 19 40  1  0  0  0  0
 20 21  1  0  0  0  0
 20 22  1  0  0  0  0
 20 41  1  0  0  0  0
 21 42  1  0  0  0  0
 22 26  1  0  0  0  0
 22 23  1  0  0  0  0
 22 43  1  0  0  0  0
 23 24  1  0  0  0  0
 23 44  1  0  0  0  0
 23 45  1  0  0  0  0
 24 25  1  0  0  0  0
 24 46  1  0  0  0  0
 24 47  1  0  0  0  0
 25 26  1  0  0  0  0
 25 48  1  0  0  0  0
 25 49  1  0  0  0  0
 27 50  1  0  0  0  0
 27 51  1  0  0  0  0
M  END
> <s_m_source_file>
AV-unprocessed.smi

> <i_m_source_file_index>
261

> <i_lp_mmshare_version>
43012

> <i_f3d_flags>
0

> <s_epik_input>
W0NIM11PW0NASF0xW0NIMl1bQ0BASF0oQyg9TylbTkgyXSlOKFtDSDJdMSljKG5bY0hdbjIpYyhjMjMpbltjSF1uM1tDSDJdW0NASF0oW09IXSlbQ0BASF00W0NIMl1bQ0gyXVtDSDJdTzQ=

> <s_epik_cmdline>
J2VwaWtfcHl0aG9uJywgJy1waCcsICc3LjAnLCAnLXRuJywgJzgnLCAnLW1hJywgJzIwMCcsICctbWV0YWxfYmluZGluZycsICctaW1hZScsICc8aW5maWxlLm1hZT4nLCAnLW9tYWUnLCAnPG91dGZpbGUubWFlPic=

> <r_lp_tautomer_probability>
1

> <r_epik_Ionization_Penalty>
0.000713824

> <r_epik_Ionization_Penalty_Charging>
0

> <r_epik_Ionization_Penalty_Neutral>
0.000713824

> <r_epik_State_Penalty>
0.000402132

> <r_epik_Charging_Adjusted_Penalty>
0.000402132

> <i_epik_Tot_Q>
0

> <i_epik_Tot_abs_Q>
0

> <r_epik_Metal_State_Penalty>
-0

> <b_epik_Metal_Only>
0

> <s_lp_Force_Field>
OPLS_2005

> <r_lp_Energy>
43.7776

> <b_lp_Chiralities_Consistent>
1

> <s_lp_Variant>
AV-unprocessed.smi:261-10

> <Gold.Version>
5.8.1

> <Gold.Id.Protein>
6NUR|6NUR_protein|mol2

> <Gold.PLP.Fitness>
50.3560

> <Gold.PLP.PLP>
-39.7733

> <Gold.PLP.part.hbond>
-4.0028

> <Gold.PLP.part.metal>
0.0000

> <Gold.PLP.part.buried>
-6.6776

> <Gold.PLP.part.nonpolar>
-28.4011

> <Gold.PLP.part.repulsive>
0.2903

> <Gold.PLP.ligand.clash>
0.0000

> <Gold.PLP.ligand.torsion>
0.8332

> <Gold.PLP.Chemscore.Hbond>
3.9600

> <Gold.PLP.Chemscore.CHOScore>
0.0000

> <Gold.PLP.Chemscore.Metal>
0.0000

> <Gold.Chemscore.Hbonds>
donor molecule, donor type, donor heavy atom, donor atom, acceptor molecule, acceptor atom, score
      L1  H     7    36       P1  7948  0.45
      L1  H    21    42       P1  8028  1.00
      P1  H  7989  7998       L1    13  0.70
      P1  H 10752 10763       L1    11  0.05

> <Gold.PLP.Chemscore.Internal.Correction>
0.3690

> <Gold.Rescore>
     Score         DG    S(hbond)    S(metal)    S(lipo)     H(rot)  DE(clash)    DE(int)     intcor
     16.07     -16.99       3.31        0.00      82.07       3.57       0.01       0.90       ----

> <Gold.Chemscore.Fitness>
16.0745

> <Gold.Chemscore.DG>
-16.9901

> <Gold.Chemscore.ZeroCoef>
-5.4800

> <Gold.Chemscore.Hbond>
3.3107

> <Gold.Chemscore.Metal>
0.0000

> <Gold.Chemscore.Lipo>
82.0664

> <Gold.Chemscore.Internal_Hbond>
0.0000

> <Gold.Chemscore.DEClash>
0.0142

> <Gold.Chemscore.DEInternal>
0.9014

> <Gold.Chemscore.Rot>
3.5740

> <Gold.Chemscore.Internal.Correction>
   9.000000E+99

> <Gold.Chemscore.Hbonds>
donor molecule, donor type, donor heavy atom, donor atom, acceptor molecule, acceptor atom, score
      L1  H     7    36       P1  7948  0.44
      L1  H    21    42       P1  8028  0.55
      P1  H  7989  7998       L1    13  0.26
      P1  H 10752 10763       L1    11  0.01

> <Gold.Chemscore.Hbond.Weighted>
-11.0578

> <Gold.Chemscore.Metal.Weighted>
-0.0000

> <Gold.Chemscore.Lipo.Weighted>
-9.6018

> <Gold.Chemscore.Internal_Hbond.Weighted>
0.0000

> <Gold.Chemscore.DEClash.Weighted>
0.0142

> <Gold.Chemscore.DEInternal.Weighted>
0.9014

> <Gold.Chemscore.Rot.Weighted>
9.1495

> <Gold.Chemscore.Internal.Correction.Weighted>
   9.000000E+99

> <Gold.Protein.RotatedTorsions>
[ 6907 6896 6895 6894 ] final -173.08 input  -60.11 | X-H torsion
[ 7974 7965 7964 7962 ] final  -77.19 input  175.53 | X-H torsion
[ 8008 7997 7996 7995 ] final  172.02 input   59.86 | X-H torsion
[ 10167 10162 10161 10158 ] final  -87.13 input  -65.29 | X-H torsion
[ 10718 10713 10712 10709 ] final   89.41 input   66.30 | X-H torsion
[ 10763 10752 10751 10750 ] final   55.98 input  -60.55 | X-H torsion
[ 11005 11000 10999 10996 ] final  164.97 input  -57.11 | X-H torsion

> <Gold.Protein.ActiveResidues>
 VAL166  LYS551  ARG553  GLY616  TRP617  ASP618  TYR619  PRO620  LYS621  CYS622 
 ASP623  PHE694  ASN695  SER759  ASP760  ASP761  ALA762  ILE779  LEU786  VAL792 
 PHE793  MET794  SER795  GLU796  ALA797  LYS798  CYS799  TRP800  GLU811  SER814 

> <Gold.Protein.RotatedAtoms>
  151.5503  133.3418  159.2951 H   0  0  0  0  0  0  0  0  0  0  0  0  # atno 6907 bound_to 6896
  150.8482  134.7801  159.6999 H   0  0  0  0  0  0  0  0  0  0  0  0  # atno 6908 bound_to 6896
  152.4535  134.5350  159.9874 H   0  0  0  0  0  0  0  0  0  0  0  0  # atno 6909 bound_to 6896
  145.6029  140.9404  143.1231 H   0  0  0  0  0  0  0  0  0  0  0  0  # atno 7974 bound_to 7965
  156.1215  140.1496  156.9198 H   0  0  0  0  0  0  0  0  0  0  0  0  # atno 8008 bound_to 7997
  154.4839  140.0871  156.7483 H   0  0  0  0  0  0  0  0  0  0  0  0  # atno 8009 bound_to 7997
  155.4420  140.3431  155.4293 H   0  0  0  0  0  0  0  0  0  0  0  0  # atno 8010 bound_to 7997
  140.3874  143.2720  151.9308 H   0  0  0  0  0  0  0  0  0  0  0  0  # atno 10167 bound_to 10162
  157.6955  131.0332  150.3422 H   0  0  0  0  0  0  0  0  0  0  0  0  # atno 10718 bound_to 10713
  152.9825  135.5692  154.5155 H   0  0  0  0  0  0  0  0  0  0  0  0  # atno 10763 bound_to 10752
  154.4652  135.2783  155.1686 H   0  0  0  0  0  0  0  0  0  0  0  0  # atno 10764 bound_to 10752
  154.3257  135.6260  153.5581 H   0  0  0  0  0  0  0  0  0  0  0  0  # atno 10765 bound_to 10752
  140.2513  134.7974  157.3505 H   0  0  0  0  0  0  0  0  0  0  0  0  # atno 11005 bound_to 11000
  144.7302  139.7749  143.7350 LP  0  0  0  0  0  0  0  0  0  0  0  0  # atno 17320 bound_to 7965
  146.1562  139.4661  143.0017 LP  0  0  0  0  0  0  0  0  0  0  0  0  # atno 17321 bound_to 7965
  139.4791  144.5760  151.8010 LP  0  0  0  0  0  0  0  0  0  0  0  0  # atno 17342 bound_to 10162
  140.4875  144.1359  150.5944 LP  0  0  0  0  0  0  0  0  0  0  0  0  # atno 17343 bound_to 10162
  156.3881  130.3893  149.7050 LP  0  0  0  0  0  0  0  0  0  0  0  0  # atno 17370 bound_to 10713
  156.4410  130.7861  151.2882 LP  0  0  0  0  0  0  0  0  0  0  0  0  # atno 17371 bound_to 10713
  140.1555  134.4795  155.7931 LP  0  0  0  0  0  0  0  0  0  0  0  0  # atno 17394 bound_to 11000
  141.2201  133.6879  156.7453 LP  0  0  0  0  0  0  0  0  0  0  0  0  # atno 17395 bound_to 11000

$$$$
