AV-unprocessed.smi:287|AV-procd|sdf|2189|dock4
  -GOLD-   2262021573D 1   1.00000     0.00000
 Structure written by MMmdl.
 55 58  0  0  0  0  0  0  0  0  1 V2000
  154.5830  140.6874  160.9021 C   0  0  0  0  0  0  0  0  0  0  0  0
  153.5343  141.5300  160.2612 C   0  0  0  0  0  0  0  0  0  0  0  0
  152.8252  141.4337  159.0997 C   0  0  0  0  0  0  0  0  0  0  0  0
  151.9647  142.5699  159.0294 C   0  0  0  0  0  0  0  0  0  0  0  0
  150.9945  142.8866  157.8989 C   0  0  1  0  0  0  0  0  0  0  0  0
  149.5556  142.9178  158.4403 C   0  0  0  0  0  0  0  0  0  0  0  0
  151.2094  144.1643  157.3310 O   0  0  0  0  0  0  0  0  0  0  0  0
  151.1011  141.8777  156.7316 C   0  0  0  0  0  0  0  0  0  0  0  0
  150.1299  142.1302  155.6716 N   0  0  0  0  0  0  0  0  0  0  0  0
  149.5866  141.0998  154.9911 C   0  0  0  0  0  0  0  0  0  0  0  0
  149.0948  141.2724  153.7374 N   0  0  0  0  0  0  0  0  0  0  0  0
  148.5595  140.2373  153.0857 C   0  0  0  0  0  0  0  0  0  0  0  0
  148.4186  138.9761  153.4980 N   0  0  0  0  0  0  0  0  0  0  0  0
  148.9096  138.7910  154.7586 C   0  0  0  0  0  0  0  0  0  0  0  0
  149.5090  139.8032  155.5617 C   0  0  0  0  0  0  0  0  0  0  0  0
  149.9006  139.2704  156.7806 N   0  0  0  0  0  0  0  0  0  0  0  0
  149.5546  138.0151  156.6986 C   0  0  0  0  0  0  0  0  0  0  0  0
  148.9374  137.6366  155.5255 N   0  0  0  0  0  0  0  0  0  0  0  0
  148.4716  136.2459  155.1875 C   0  0  2  0  0  0  0  0  0  0  0  0
  147.5227  135.8591  156.1296 O   0  0  0  0  0  0  0  0  0  0  0  0
  148.1407  135.0578  157.1228 C   0  0  1  0  0  0  0  0  0  0  0  0
  147.0929  134.1942  157.8473 C   0  0  0  0  0  0  0  0  0  0  0  0
  146.4440  133.2982  156.9681 O   0  0  0  0  0  0  0  0  0  0  0  0
  149.2766  134.3114  156.4022 C   0  0  2  0  0  0  0  0  0  0  0  0
  150.3975  134.1952  157.2555 O   0  0  0  0  0  0  0  0  0  0  0  0
  149.6018  135.1970  155.1932 C   0  0  1  0  0  0  0  0  0  0  0  0
  149.5806  134.4262  154.0085 O   0  0  0  0  0  0  0  0  0  0  0  0
  152.2136  143.2697  160.1859 C   0  0  0  0  0  0  0  0  0  0  0  0
  151.6734  144.5323  160.7722 C   0  0  0  0  0  0  0  0  0  0  0  0
  153.1661  142.6479  160.9357 O   0  0  0  0  0  0  0  0  0  0  0  0
  148.0008  136.3635  154.2103 H   0  0  0  0  0  0  0  0  0  0  0  0
  148.5566  135.7513  157.8535 H   0  0  0  0  0  0  0  0  0  0  0  0
  148.9646  133.3171  156.0815 H   0  0  0  0  0  0  0  0  0  0  0  0
  150.5760  135.6813  155.2598 H   0  0  0  0  0  0  0  0  0  0  0  0
  154.8681  139.8600  160.2521 H   0  0  0  0  0  0  0  0  0  0  0  0
  154.2225  140.2706  161.8425 H   0  0  0  0  0  0  0  0  0  0  0  0
  155.4770  141.2752  161.1111 H   0  0  0  0  0  0  0  0  0  0  0  0
  152.9193  140.6402  158.3732 H   0  0  0  0  0  0  0  0  0  0  0  0
  149.2755  141.9568  158.8732 H   0  0  0  0  0  0  0  0  0  0  0  0
  148.8359  143.1427  157.6524 H   0  0  0  0  0  0  0  0  0  0  0  0
  149.4407  143.6733  159.2189 H   0  0  0  0  0  0  0  0  0  0  0  0
  150.4668  144.3789  156.7876 H   0  0  0  0  0  0  0  0  0  0  0  0
  152.0928  141.9704  156.2863 H   0  0  0  0  0  0  0  0  0  0  0  0
  151.0158  140.8509  157.0910 H   0  0  0  0  0  0  0  0  0  0  0  0
  150.0057  143.0979  155.4086 H   0  0  0  0  0  0  0  0  0  0  0  0
  148.1890  140.4501  152.0937 H   0  0  0  0  0  0  0  0  0  0  0  0
  149.7418  137.3211  157.5054 H   0  0  0  0  0  0  0  0  0  0  0  0
  147.5779  133.6072  158.6273 H   0  0  0  0  0  0  0  0  0  0  0  0
  146.3506  134.8245  158.3374 H   0  0  0  0  0  0  0  0  0  0  0  0
  147.0002  133.1588  156.2169 H   0  0  0  0  0  0  0  0  0  0  0  0
  151.1790  134.3299  156.7403 H   0  0  0  0  0  0  0  0  0  0  0  0
  149.6759  135.0096  153.2708 H   0  0  0  0  0  0  0  0  0  0  0  0
  150.5853  144.4968  160.8313 H   0  0  0  0  0  0  0  0  0  0  0  0
  151.9530  145.3915  160.1620 H   0  0  0  0  0  0  0  0  0  0  0  0
  152.0576  144.6965  161.7795 H   0  0  0  0  0  0  0  0  0  0  0  0
  1  2  1  0  0  0  0
  1 35  1  0  0  0  0
  1 36  1  0  0  0  0
  1 37  1  0  0  0  0
  2 30  1  0  0  0  0
  2  3  2  0  0  0  0
  3  4  1  0  0  0  0
  3 38  1  0  0  0  0
  4  5  1  0  0  0  0
  4 28  2  0  0  0  0
  5  6  1  0  0  0  0
  5  7  1  0  0  0  0
  5  8  1  0  0  0  0
  6 39  1  0  0  0  0
  6 40  1  0  0  0  0
  6 41  1  0  0  0  0
  7 42  1  0  0  0  0
  8  9  1  0  0  0  0
  8 43  1  0  0  0  0
  8 44  1  0  0  0  0
  9 10  1  0  0  0  0
  9 45  1  0  0  0  0
 10 15  1  0  0  0  0
 10 11  2  0  0  0  0
 11 12  1  0  0  0  0
 12 13  2  0  0  0  0
 12 46  1  0  0  0  0
 13 14  1  0  0  0  0
 14 18  1  0  0  0  0
 14 15  2  0  0  0  0
 15 16  1  0  0  0  0
 16 17  2  0  0  0  0
 17 18  1  0  0  0  0
 17 47  1  0  0  0  0
 18 19  1  0  0  0  0
 19 31  1  0  0  0  0
 19 26  1  0  0  0  0
 19 20  1  0  0  0  0
 20 21  1  0  0  0  0
 21 32  1  0  0  0  0
 21 22  1  0  0  0  0
 21 24  1  0  0  0  0
 22 23  1  0  0  0  0
 22 48  1  0  0  0  0
 22 49  1  0  0  0  0
 23 50  1  0  0  0  0
 24 33  1  0  0  0  0
 24 25  1  0  0  0  0
 24 26  1  0  0  0  0
 25 51  1  0  0  0  0
 26 34  1  0  0  0  0
 26 27  1  0  0  0  0
 27 52  1  0  0  0  0
 28 29  1  0  0  0  0
 28 30  1  0  0  0  0
 29 53  1  0  0  0  0
 29 54  1  0  0  0  0
 29 55  1  0  0  0  0
M  END
> <s_m_source_file>
AV-unprocessed.smi

> <i_m_source_file_index>
287

> <i_lp_mmshare_version>
43012

> <i_f3d_flags>
0

> <s_epik_input>
W0NIM11jMVtjSF1jKGMobzEpW0NIM10pW0NAQF0oW0NIM10pKFtPSF0pW0NIMl1bTkhdYyhuW2NIXW4yKWMoYzIzKW5bY0hdbjNbQ0BASF00T1tDQEhdKFtDSDJdW09IXSlbQ0BASF0oW09IXSlbQ0BIXTRbT0hd

> <s_epik_cmdline>
J2VwaWtfcHl0aG9uJywgJy1waCcsICc3LjAnLCAnLXRuJywgJzgnLCAnLW1hJywgJzIwMCcsICctbWV0YWxfYmluZGluZycsICctaW1hZScsICc8aW5maWxlLm1hZT4nLCAnLW9tYWUnLCAnPG91dGZpbGUubWFlPic=

> <r_lp_tautomer_probability>
1

> <r_epik_Ionization_Penalty>
0.000992612

> <r_epik_Ionization_Penalty_Charging>
0

> <r_epik_Ionization_Penalty_Neutral>
0.000992612

> <r_epik_State_Penalty>
-0

> <r_epik_Charging_Adjusted_Penalty>
0

> <i_epik_Tot_Q>
0

> <i_epik_Tot_abs_Q>
0

> <r_epik_Metal_State_Penalty>
-0

> <b_epik_Metal_Only>
0

> <s_epik_Chemistry_Notes>
This compound contains an acetal/aminal-like group ( X-CH(R)-Y where X, Y are N, S, or O) that may be acid/base labile, releasing an aldehyde.

> <s_lp_Force_Field>
OPLS_2005

> <r_lp_Energy>
40.6201

> <b_lp_Chiralities_Consistent>
1

> <s_lp_Variant>
AV-unprocessed.smi:287-13

> <Gold.Version>
5.8.1

> <Gold.Id.Protein>
6NUR|6NUR_protein|mol2

> <Gold.PLP.Fitness>
53.1315

> <Gold.PLP.PLP>
-39.0340

> <Gold.PLP.part.hbond>
-5.1404

> <Gold.PLP.part.metal>
0.0000

> <Gold.PLP.part.buried>
-3.8571

> <Gold.PLP.part.nonpolar>
-31.9738

> <Gold.PLP.part.repulsive>
1.2556

> <Gold.PLP.ligand.clash>
0.0000

> <Gold.PLP.ligand.torsion>
0.3577

> <Gold.PLP.Chemscore.Hbond>
4.5440

> <Gold.PLP.Chemscore.CHOScore>
0.3537

> <Gold.PLP.Chemscore.Metal>
0.0000

> <Gold.Chemscore.Hbonds>
donor molecule, donor type, donor heavy atom, donor atom, acceptor molecule, acceptor atom, score
      L1  H     7    42       P1  8028  1.00
      L1  H     9    45       P1  8028  0.91
      L1  H    27    52       P1  7948  0.20
      P1  H  6896  6909       L1    25  0.60
      P1  H  8011  8017       L1    11  0.88
      L1  C    12    46       P1  7957  0.10

> <Gold.PLP.Chemscore.Internal.Correction>
0.1198

> <Gold.Rescore>
     Score         DG    S(hbond)    S(metal)    S(lipo)     H(rot)  DE(clash)    DE(int)     intcor
     12.49     -15.32       3.53        0.00      98.63       5.27       1.17       1.67       ----

> <Gold.Chemscore.Fitness>
12.4853

> <Gold.Chemscore.DG>
-15.3239

> <Gold.Chemscore.ZeroCoef>
-5.4800

> <Gold.Chemscore.Hbond>
3.5294

> <Gold.Chemscore.Metal>
0.0000

> <Gold.Chemscore.Lipo>
98.6299

> <Gold.Chemscore.Internal_Hbond>
0.0000

> <Gold.Chemscore.DEClash>
1.1712

> <Gold.Chemscore.DEInternal>
1.6674

> <Gold.Chemscore.Rot>
5.2672

> <Gold.Chemscore.Internal.Correction>
   9.000000E+99

> <Gold.Chemscore.Hbonds>
donor molecule, donor type, donor heavy atom, donor atom, acceptor molecule, acceptor atom, score
      L1  H     7    42       P1  8028  0.95
      L1  H     9    45       P1  8028  0.87
      P1  H  6896  6909       L1    25  0.53
      P1  H  8011  8017       L1    11  0.38

> <Gold.Chemscore.Hbond.Weighted>
-11.7881

> <Gold.Chemscore.Metal.Weighted>
-0.0000

> <Gold.Chemscore.Lipo.Weighted>
-11.5397

> <Gold.Chemscore.Internal_Hbond.Weighted>
0.0000

> <Gold.Chemscore.DEClash.Weighted>
1.1712

> <Gold.Chemscore.DEInternal.Weighted>
1.6674

> <Gold.Chemscore.Rot.Weighted>
13.4839

> <Gold.Chemscore.Internal.Correction.Weighted>
   9.000000E+99

> <Gold.Protein.RotatedTorsions>
[ 6907 6896 6895 6894 ] final   13.83 input  -60.11 | X-H torsion
[ 7974 7965 7964 7962 ] final  -39.79 input  175.53 | X-H torsion
[ 8008 7997 7996 7995 ] final  -61.21 input   59.86 | X-H torsion
[ 10167 10162 10161 10158 ] final   58.01 input  -65.29 | X-H torsion
[ 10718 10713 10712 10709 ] final  101.08 input   66.30 | X-H torsion
[ 10763 10752 10751 10750 ] final  154.11 input  -60.55 | X-H torsion
[ 11005 11000 10999 10996 ] final -120.60 input  -57.11 | X-H torsion

> <Gold.Protein.ActiveResidues>
 VAL166  LYS551  ARG553  GLY616  TRP617  ASP618  TYR619  PRO620  LYS621  CYS622 
 ASP623  PHE694  ASN695  SER759  ASP760  ASP761  ALA762  ILE779  LEU786  VAL792 
 PHE793  MET794  SER795  GLU796  ALA797  LYS798  CYS799  TRP800  GLU811  SER814 

> <Gold.Protein.RotatedAtoms>
  151.7926  135.0731  160.0389 H   0  0  0  0  0  0  0  0  0  0  0  0  # atno 6907 bound_to 6896
  152.3146  133.5784  159.5712 H   0  0  0  0  0  0  0  0  0  0  0  0  # atno 6908 bound_to 6896
  150.7337  134.0018  159.3682 H   0  0  0  0  0  0  0  0  0  0  0  0  # atno 6909 bound_to 6896
  146.0364  140.6666  142.9108 H   0  0  0  0  0  0  0  0  0  0  0  0  # atno 7974 bound_to 7965
  154.4436  140.1022  156.6395 H   0  0  0  0  0  0  0  0  0  0  0  0  # atno 8008 bound_to 7997
  155.5517  140.3486  155.4451 H   0  0  0  0  0  0  0  0  0  0  0  0  # atno 8009 bound_to 7997
  156.0524  140.1307  157.0024 H   0  0  0  0  0  0  0  0  0  0  0  0  # atno 8010 bound_to 7997
  140.1919  144.4077  150.6567 H   0  0  0  0  0  0  0  0  0  0  0  0  # atno 10167 bound_to 10162
  157.6838  131.0716  150.5198 H   0  0  0  0  0  0  0  0  0  0  0  0  # atno 10718 bound_to 10713
  154.1471  135.2817  155.3145 H   0  0  0  0  0  0  0  0  0  0  0  0  # atno 10763 bound_to 10752
  154.6244  135.5456  153.7614 H   0  0  0  0  0  0  0  0  0  0  0  0  # atno 10764 bound_to 10752
  153.0232  135.6447  154.1616 H   0  0  0  0  0  0  0  0  0  0  0  0  # atno 10765 bound_to 10752
  141.0131  134.0235  157.3386 H   0  0  0  0  0  0  0  0  0  0  0  0  # atno 11005 bound_to 11000
  144.7053  140.3827  143.7123 LP  0  0  0  0  0  0  0  0  0  0  0  0  # atno 17320 bound_to 7965
  145.6957  139.1649  143.2621 LP  0  0  0  0  0  0  0  0  0  0  0  0  # atno 17321 bound_to 7965
  140.6450  143.2211  151.6206 LP  0  0  0  0  0  0  0  0  0  0  0  0  # atno 17342 bound_to 10162
  139.5252  144.3080  152.1017 LP  0  0  0  0  0  0  0  0  0  0  0  0  # atno 17343 bound_to 10162
  156.5512  130.4232  149.6107 LP  0  0  0  0  0  0  0  0  0  0  0  0  # atno 17370 bound_to 10713
  156.2901  130.7119  151.1966 LP  0  0  0  0  0  0  0  0  0  0  0  0  # atno 17371 bound_to 10713
  139.9101  135.0188  156.7656 LP  0  0  0  0  0  0  0  0  0  0  0  0  # atno 17394 bound_to 11000
  140.6700  133.9568  155.7851 LP  0  0  0  0  0  0  0  0  0  0  0  0  # atno 17395 bound_to 11000

$$$$
