AV-unprocessed.smi:2960|AV-procd|sdf|11311|dock7
  -GOLD-   2272016213D 1   1.00000     0.00000
 Structure written by MMmdl.
 48 50  0  0  0  0  0  0  0  0  1 V2000
  156.4304  141.9442  168.8230 C   0  0  0  0  0  0  0  0  0  0  0  0
  155.5220  142.3430  167.6656 C   0  0  0  0  0  0  0  0  0  0  0  0
  154.3020  142.3813  167.8215 O   0  0  0  0  0  0  0  0  0  0  0  0
  156.1306  142.6261  166.5048 N   0  0  0  0  0  0  0  0  0  0  0  0
  155.4483  143.0208  165.2766 C   0  0  0  0  0  0  0  0  0  0  0  0
  154.7881  141.8332  164.5495 C   0  0  0  0  0  0  0  0  0  0  0  0
  154.0488  142.2222  163.3002 C   0  0  0  0  0  0  0  0  0  0  0  0
  153.2799  143.3114  163.2629 N   0  0  0  0  0  0  0  0  0  0  0  0
  152.7935  143.2992  161.9707 C   0  0  0  0  0  0  0  0  0  0  0  0
  151.9210  144.1932  161.3097 C   0  0  0  0  0  0  0  0  0  0  0  0
  151.5540  143.9701  159.9665 C   0  0  0  0  0  0  0  0  0  0  0  0
  152.0521  142.8518  159.2670 C   0  0  0  0  0  0  0  0  0  0  0  0
  152.9240  141.9500  159.9066 C   0  0  0  0  0  0  0  0  0  0  0  0
  153.2897  142.1787  161.2471 C   0  0  0  0  0  0  0  0  0  0  0  0
  154.1061  141.5028  162.1494 N   0  0  0  0  0  0  0  0  0  0  0  0
  154.8392  140.2740  161.8785 C   0  0  0  0  0  0  0  0  0  0  0  0
  153.9693  139.2255  161.1715 C   0  0  0  0  0  0  0  0  0  0  0  0
  154.7005  138.0126  161.0473 O   0  0  0  0  0  0  0  0  0  0  0  0
  154.5512  137.0561  162.0275 C   0  0  0  0  0  0  0  0  0  0  0  0
  154.8304  135.7222  161.6664 C   0  0  0  0  0  0  0  0  0  0  0  0
  154.7062  134.6799  162.6048 C   0  0  0  0  0  0  0  0  0  0  0  0
  154.2993  134.9611  163.9238 C   0  0  0  0  0  0  0  0  0  0  0  0
  154.1705  133.8370  164.9311 C   0  0  0  0  0  0  0  0  0  0  0  0
  154.0192  136.2911  164.2964 C   0  0  0  0  0  0  0  0  0  0  0  0
  154.1429  137.3329  163.3567 C   0  0  0  0  0  0  0  0  0  0  0  0
  157.1740  142.7194  169.0099 H   0  0  0  0  0  0  0  0  0  0  0  0
  156.9496  141.0135  168.5927 H   0  0  0  0  0  0  0  0  0  0  0  0
  155.8530  141.7972  169.7364 H   0  0  0  0  0  0  0  0  0  0  0  0
  157.1380  142.5639  166.4679 H   0  0  0  0  0  0  0  0  0  0  0  0
  154.7079  143.7945  165.4853 H   0  0  0  0  0  0  0  0  0  0  0  0
  156.1907  143.4787  164.6223 H   0  0  0  0  0  0  0  0  0  0  0  0
  155.5368  141.0742  164.3281 H   0  0  0  0  0  0  0  0  0  0  0  0
  154.0801  141.3513  165.2246 H   0  0  0  0  0  0  0  0  0  0  0  0
  151.5323  145.0514  161.8375 H   0  0  0  0  0  0  0  0  0  0  0  0
  150.8858  144.6593  159.4712 H   0  0  0  0  0  0  0  0  0  0  0  0
  151.7643  142.6863  158.2391 H   0  0  0  0  0  0  0  0  0  0  0  0
  153.3043  141.0911  159.3741 H   0  0  0  0  0  0  0  0  0  0  0  0
  155.7032  140.5150  161.2589 H   0  0  0  0  0  0  0  0  0  0  0  0
  155.2404  139.8742  162.8079 H   0  0  0  0  0  0  0  0  0  0  0  0
  153.0593  139.0612  161.7503 H   0  0  0  0  0  0  0  0  0  0  0  0
  153.6800  139.5912  160.1853 H   0  0  0  0  0  0  0  0  0  0  0  0
  155.1426  135.4955  160.6572 H   0  0  0  0  0  0  0  0  0  0  0  0
  154.9247  133.6641  162.3094 H   0  0  0  0  0  0  0  0  0  0  0  0
  153.6912  134.1790  165.8489 H   0  0  0  0  0  0  0  0  0  0  0  0
  155.1556  133.4452  165.1854 H   0  0  0  0  0  0  0  0  0  0  0  0
  153.5726  133.0237  164.5192 H   0  0  0  0  0  0  0  0  0  0  0  0
  153.7087  136.5195  165.3056 H   0  0  0  0  0  0  0  0  0  0  0  0
  153.9207  138.3378  163.6821 H   0  0  0  0  0  0  0  0  0  0  0  0
  1  2  1  0  0  0  0
  1 26  1  0  0  0  0
  1 27  1  0  0  0  0
  1 28  1  0  0  0  0
  2  3  2  0  0  0  0
  2  4  1  0  0  0  0
  4  5  1  0  0  0  0
  4 29  1  0  0  0  0
  5  6  1  0  0  0  0
  5 30  1  0  0  0  0
  5 31  1  0  0  0  0
  6  7  1  0  0  0  0
  6 32  1  0  0  0  0
  6 33  1  0  0  0  0
  7 15  1  0  0  0  0
  7  8  2  0  0  0  0
  8  9  1  0  0  0  0
  9 14  2  0  0  0  0
  9 10  1  0  0  0  0
 10 11  2  0  0  0  0
 10 34  1  0  0  0  0
 11 12  1  0  0  0  0
 11 35  1  0  0  0  0
 12 13  2  0  0  0  0
 12 36  1  0  0  0  0
 13 14  1  0  0  0  0
 13 37  1  0  0  0  0
 14 15  1  0  0  0  0
 15 16  1  0  0  0  0
 16 17  1  0  0  0  0
 16 38  1  0  0  0  0
 16 39  1  0  0  0  0
 17 18  1  0  0  0  0
 17 40  1  0  0  0  0
 17 41  1  0  0  0  0
 18 19  1  0  0  0  0
 19 25  1  0  0  0  0
 19 20  2  0  0  0  0
 20 21  1  0  0  0  0
 20 42  1  0  0  0  0
 21 22  2  0  0  0  0
 21 43  1  0  0  0  0
 22 23  1  0  0  0  0
 22 24  1  0  0  0  0
 23 44  1  0  0  0  0
 23 45  1  0  0  0  0
 23 46  1  0  0  0  0
 24 25  2  0  0  0  0
 24 47  1  0  0  0  0
 25 48  1  0  0  0  0
M  END
> <s_m_source_file>
AV-unprocessed.smi

> <i_m_source_file_index>
2960

> <i_lp_mmshare_version>
43012

> <i_f3d_flags>
0

> <s_epik_input>
W0NIM11DKD1PKVtOSF1bQ0gyXVtDSDJdYyhuMSluKGMoYzEyKVtjSF1bY0hdW2NIXVtjSF0yKVtDSDJdW0NIMl1PYzNbY0hdW2NIXWMoW0NIM10pW2NIXVtjSF0z

> <s_epik_cmdline>
J2VwaWtfcHl0aG9uJywgJy1waCcsICc3LjAnLCAnLXRuJywgJzgnLCAnLW1hJywgJzIwMCcsICctbWV0YWxfYmluZGluZycsICctaW1hZScsICc8aW5maWxlLm1hZT4nLCAnLW9tYWUnLCAnPG91dGZpbGUubWFlPic=

> <r_lp_tautomer_probability>
1

> <r_epik_Ionization_Penalty>
0.0990099

> <r_epik_Ionization_Penalty_Charging>
0

> <r_epik_Ionization_Penalty_Neutral>
0.0990099

> <r_epik_State_Penalty>
0.0890759

> <r_epik_Charging_Adjusted_Penalty>
0.0890759

> <i_epik_Tot_Q>
0

> <i_epik_Tot_abs_Q>
0

> <r_epik_Metal_State_Penalty>
0.0762215

> <b_epik_Metal_Only>
0

> <s_lp_Force_Field>
OPLS_2005

> <r_lp_Energy>
13.2598

> <b_lp_Chiralities_Consistent>
1

> <s_lp_Variant>
AV-unprocessed.smi:2960-1

> <Gold.Version>
5.8.1

> <Gold.Id.Protein>
6NUR|6NUR_protein|mol2

> <Gold.PLP.Fitness>
55.1433

> <Gold.PLP.PLP>
-57.1667

> <Gold.PLP.part.hbond>
-1.0000

> <Gold.PLP.part.metal>
0.0000

> <Gold.PLP.part.buried>
-3.5325

> <Gold.PLP.part.nonpolar>
-53.0969

> <Gold.PLP.part.repulsive>
0.3493

> <Gold.PLP.ligand.clash>
0.0000

> <Gold.PLP.ligand.torsion>
1.0793

> <Gold.PLP.Chemscore.Hbond>
0.0000

> <Gold.PLP.Chemscore.CHOScore>
0.0000

> <Gold.PLP.Chemscore.Metal>
0.0000

> <Gold.PLP.Chemscore.Internal.Correction>
0.1352

> <Gold.Rescore>
     Score         DG    S(hbond)    S(metal)    S(lipo)     H(rot)  DE(clash)    DE(int)     intcor
     17.01     -18.21       0.00        0.00     154.89       2.11       0.10       1.09       ----

> <Gold.Chemscore.Fitness>
17.0109

> <Gold.Chemscore.DG>
-18.2065

> <Gold.Chemscore.ZeroCoef>
-5.4800

> <Gold.Chemscore.Hbond>
0.0000

> <Gold.Chemscore.Metal>
0.0000

> <Gold.Chemscore.Lipo>
154.8936

> <Gold.Chemscore.Internal_Hbond>
0.0000

> <Gold.Chemscore.DEClash>
0.1011

> <Gold.Chemscore.DEInternal>
1.0944

> <Gold.Chemscore.Rot>
2.1078

> <Gold.Chemscore.Internal.Correction>
   9.000000E+99

> <Gold.Chemscore.Hbond.Weighted>
-0.0000

> <Gold.Chemscore.Metal.Weighted>
-0.0000

> <Gold.Chemscore.Lipo.Weighted>
-18.1225

> <Gold.Chemscore.Internal_Hbond.Weighted>
0.0000

> <Gold.Chemscore.DEClash.Weighted>
0.1011

> <Gold.Chemscore.DEInternal.Weighted>
1.0944

> <Gold.Chemscore.Rot.Weighted>
5.3961

> <Gold.Chemscore.Internal.Correction.Weighted>
   9.000000E+99

> <Gold.Protein.RotatedTorsions>
[ 6907 6896 6895 6894 ] final -118.59 input  -60.11 | X-H torsion
[ 7974 7965 7964 7962 ] final  -44.47 input  175.53 | X-H torsion
[ 8008 7997 7996 7995 ] final -153.80 input   59.86 | X-H torsion
[ 10167 10162 10161 10158 ] final  -30.69 input  -65.29 | X-H torsion
[ 10718 10713 10712 10709 ] final  -20.24 input   66.30 | X-H torsion
[ 10763 10752 10751 10750 ] final   86.50 input  -60.55 | X-H torsion
[ 11005 11000 10999 10996 ] final -111.33 input  -57.11 | X-H torsion

> <Gold.Protein.ActiveResidues>
 VAL166  LYS551  ARG553  GLY616  TRP617  ASP618  TYR619  PRO620  LYS621  CYS622 
 ASP623  PHE694  ASN695  SER759  ASP760  ASP761  ALA762  ILE779  LEU786  VAL792 
 PHE793  MET794  SER795  GLU796  ALA797  LYS798  CYS799  TRP800  GLU811  SER814 

> <Gold.Protein.RotatedAtoms>
  150.8232  133.8216  159.3129 H   0  0  0  0  0  0  0  0  0  0  0  0  # atno 6907 bound_to 6896
  151.5968  135.1048  160.0061 H   0  0  0  0  0  0  0  0  0  0  0  0  # atno 6908 bound_to 6896
  152.4320  133.7252  159.6613 H   0  0  0  0  0  0  0  0  0  0  0  0  # atno 6909 bound_to 6896
  145.9917  140.7173  142.9313 H   0  0  0  0  0  0  0  0  0  0  0  0  # atno 7974 bound_to 7965
  155.6765  140.0739  157.2501 H   0  0  0  0  0  0  0  0  0  0  0  0  # atno 8008 bound_to 7997
  154.4113  140.1689  156.1987 H   0  0  0  0  0  0  0  0  0  0  0  0  # atno 8009 bound_to 7997
  155.9572  140.3373  155.6462 H   0  0  0  0  0  0  0  0  0  0  0  0  # atno 8010 bound_to 7997
  140.7246  143.3829  151.1568 H   0  0  0  0  0  0  0  0  0  0  0  0  # atno 10167 bound_to 10162
  156.5345  130.4663  149.6530 H   0  0  0  0  0  0  0  0  0  0  0  0  # atno 10718 bound_to 10713
  153.1576  135.4578  154.9727 H   0  0  0  0  0  0  0  0  0  0  0  0  # atno 10763 bound_to 10752
  154.7873  135.3208  154.7859 H   0  0  0  0  0  0  0  0  0  0  0  0  # atno 10764 bound_to 10752
  153.8354  135.6935  153.4864 H   0  0  0  0  0  0  0  0  0  0  0  0  # atno 10765 bound_to 10752
  141.0740  133.9332  157.2427 H   0  0  0  0  0  0  0  0  0  0  0  0  # atno 11005 bound_to 11000
  144.6891  140.3082  143.7252 LP  0  0  0  0  0  0  0  0  0  0  0  0  # atno 17320 bound_to 7965
  145.7620  139.1828  143.2262 LP  0  0  0  0  0  0  0  0  0  0  0  0  # atno 17321 bound_to 7965
  139.7421  143.8909  152.3053 LP  0  0  0  0  0  0  0  0  0  0  0  0  # atno 17342 bound_to 10162
  139.8733  144.7056  150.8962 LP  0  0  0  0  0  0  0  0  0  0  0  0  # atno 17343 bound_to 10162
  156.3028  130.7186  151.2062 LP  0  0  0  0  0  0  0  0  0  0  0  0  # atno 17370 bound_to 10713
  157.7416  131.0502  150.5085 LP  0  0  0  0  0  0  0  0  0  0  0  0  # atno 17371 bound_to 10713
  139.9553  135.0167  156.9109 LP  0  0  0  0  0  0  0  0  0  0  0  0  # atno 17394 bound_to 11000
  140.5612  134.0533  155.7399 LP  0  0  0  0  0  0  0  0  0  0  0  0  # atno 17395 bound_to 11000

$$$$
