AV-unprocessed.smi:3055|AV-procd|sdf|11642|dock2
  -GOLD-   2272017 33D 1   1.00000     0.00000
 Structure written by MMmdl.
 48 50  0  0  0  0  0  0  0  0  3 V2000
  148.4654  139.1063  153.6826 O   0  0  0  0  0  0  0  0  0  0  0  0
  147.5341  139.8628  153.4046 C   0  0  0  0  0  0  0  0  0  0  0  0
  146.5818  139.5246  152.5212 N   0  0  0  0  0  0  0  0  0  0  0  0
  146.5249  138.2534  151.8106 C   0  0  0  0  0  0  0  0  0  0  0  0
  145.5831  137.2633  152.5130 C   0  0  0  0  0  0  0  0  0  0  0  0
  145.5582  135.9523  151.8571 N   0  0  0  0  0  0  0  0  0  0  0  0
  145.6005  134.7222  152.4615 C   0  0  0  0  0  0  0  0  0  0  0  0
  145.5513  133.7909  151.4564 C   0  0  0  0  0  0  0  0  0  0  0  0
  145.4796  134.4913  150.2819 N   0  3  0  0  0  0  0  0  0  0  0  0
  145.4828  135.8056  150.5277 C   0  0  0  0  0  0  0  0  0  0  0  0
  147.3984  141.1023  153.9408 N   0  0  0  0  0  0  0  0  0  0  0  0
  146.1302  141.7985  154.2098 C   0  0  0  0  0  0  0  0  0  0  0  0
  145.8445  141.7138  155.7184 C   0  0  0  0  0  0  0  0  0  0  0  0
  147.0188  142.2841  156.5382 C   0  0  0  0  0  0  0  0  0  0  0  0
  148.3850  141.6817  156.1146 C   0  0  2  0  0  0  0  0  0  0  0  0
  149.5239  142.3411  156.8130 N   0  3  0  0  0  0  0  0  0  0  0  0
  149.4149  142.4066  158.2869 C   0  0  0  0  0  0  0  0  0  0  0  0
  150.8427  142.6016  158.7831 C   0  0  0  0  0  0  0  0  0  0  0  0
  151.6553  141.7434  157.8217 C   0  0  0  0  0  0  0  0  0  0  0  0
  150.8622  141.7728  156.5082 C   0  0  0  0  0  0  0  0  0  0  0  0
  148.5264  141.7951  154.5759 C   0  0  0  0  0  0  0  0  0  0  0  0
  145.8467  140.1910  152.3363 H   0  0  0  0  0  0  0  0  0  0  0  0
  146.2026  138.4178  150.7810 H   0  0  0  0  0  0  0  0  0  0  0  0
  147.5292  137.8299  151.7652 H   0  0  0  0  0  0  0  0  0  0  0  0
  145.9075  137.1053  153.5423 H   0  0  0  0  0  0  0  0  0  0  0  0
  144.5658  137.6553  152.5579 H   0  0  0  0  0  0  0  0  0  0  0  0
  145.6619  134.6045  153.5338 H   0  0  0  0  0  0  0  0  0  0  0  0
  145.5608  132.7111  151.4885 H   0  0  0  0  0  0  0  0  0  0  0  0
  145.4350  136.5919  149.7953 H   0  0  0  0  0  0  0  0  0  0  0  0
  146.2208  142.8425  153.9058 H   0  0  0  0  0  0  0  0  0  0  0  0
  145.2818  141.4094  153.6470 H   0  0  0  0  0  0  0  0  0  0  0  0
  144.9270  142.2520  155.9579 H   0  0  0  0  0  0  0  0  0  0  0  0
  145.6750  140.6731  155.9987 H   0  0  0  0  0  0  0  0  0  0  0  0
  147.0459  143.3668  156.4058 H   0  0  0  0  0  0  0  0  0  0  0  0
  146.8251  142.1077  157.5963 H   0  0  0  0  0  0  0  0  0  0  0  0
  148.3929  140.6252  156.3897 H   0  0  0  0  0  0  0  0  0  0  0  0
  148.7539  143.2103  158.6125 H   0  0  0  0  0  0  0  0  0  0  0  0
  149.0206  141.4638  158.6700 H   0  0  0  0  0  0  0  0  0  0  0  0
  151.1319  143.6488  158.6841 H   0  0  0  0  0  0  0  0  0  0  0  0
  150.9733  142.3113  159.8261 H   0  0  0  0  0  0  0  0  0  0  0  0
  152.6785  142.1010  157.7040 H   0  0  0  0  0  0  0  0  0  0  0  0
  151.7034  140.7202  158.1971 H   0  0  0  0  0  0  0  0  0  0  0  0
  150.7944  140.7647  156.0966 H   0  0  0  0  0  0  0  0  0  0  0  0
  151.3532  142.4015  155.7648 H   0  0  0  0  0  0  0  0  0  0  0  0
  149.4825  141.4008  154.2306 H   0  0  0  0  0  0  0  0  0  0  0  0
  148.5243  142.8438  154.2747 H   0  0  0  0  0  0  0  0  0  0  0  0
  149.5511  143.3002  156.4970 H   0  0  0  0  0  0  0  0  0  0  0  0
  145.4283  134.0767  149.3598 H   0  0  0  0  0  0  0  0  0  0  0  0
  1  2  2  0  0  0  0
  2  3  1  0  0  0  0
  2 11  1  0  0  0  0
  3  4  1  0  0  0  0
  3 22  1  0  0  0  0
  4  5  1  0  0  0  0
  4 23  1  0  0  0  0
  4 24  1  0  0  0  0
  5  6  1  0  0  0  0
  5 25  1  0  0  0  0
  5 26  1  0  0  0  0
  6 10  1  0  0  0  0
  6  7  1  0  0  0  0
  7  8  2  0  0  0  0
  7 27  1  0  0  0  0
  8  9  1  0  0  0  0
  8 28  1  0  0  0  0
  9 10  2  0  0  0  0
  9 48  1  0  0  0  0
 10 29  1  0  0  0  0
 11 21  1  0  0  0  0
 11 12  1  0  0  0  0
 12 13  1  0  0  0  0
 12 30  1  0  0  0  0
 12 31  1  0  0  0  0
 13 14  1  0  0  0  0
 13 32  1  0  0  0  0
 13 33  1  0  0  0  0
 14 15  1  0  0  0  0
 14 34  1  0  0  0  0
 14 35  1  0  0  0  0
 15 16  1  0  0  0  0
 15 21  1  0  0  0  0
 15 36  1  0  0  0  0
 16 20  1  0  0  0  0
 16 17  1  0  0  0  0
 16 47  1  0  0  0  0
 17 18  1  0  0  0  0
 17 37  1  0  0  0  0
 17 38  1  0  0  0  0
 18 19  1  0  0  0  0
 18 39  1  0  0  0  0
 18 40  1  0  0  0  0
 19 20  1  0  0  0  0
 19 41  1  0  0  0  0
 19 42  1  0  0  0  0
 20 43  1  0  0  0  0
 20 44  1  0  0  0  0
 21 45  1  0  0  0  0
 21 46  1  0  0  0  0
M  CHG  1   9   1
M  CHG  1  16   1
M  END
> <s_m_source_file>
AV-unprocessed.smi

> <i_m_source_file_index>
3055

> <i_lp_mmshare_version>
43012

> <i_f3d_flags>
0

> <s_epik_input>
W2NIXTFuW2NIXVtjSF1uMVtDSDJdW0NIMl1bTkhdQyg9TylOMltDSDJdW0NIMl1bQ0gyXVtDQEhdKFtDSDJdMilOM1tDSDJdW0NIMl1bQ0gyXVtDSDJdMw==

> <s_epik_cmdline>
J2VwaWtfcHl0aG9uJywgJy1waCcsICc3LjAnLCAnLXRuJywgJzgnLCAnLW1hJywgJzIwMCcsICctbWV0YWxfYmluZGluZycsICctaW1hZScsICc8aW5maWxlLm1hZT4nLCAnLW9tYWUnLCAnPG91dGZpbGUubWFlPic=

> <r_lp_tautomer_probability>
1

> <r_epik_Ionization_Penalty>
0.259176

> <r_epik_Ionization_Penalty_Charging>
0.00125522

> <r_epik_Ionization_Penalty_Neutral>
0.257921

> <r_epik_State_Penalty>
0.249312

> <r_epik_Charging_Adjusted_Penalty>
0.250567

> <i_epik_Tot_Q>
2

> <i_epik_Tot_abs_Q>
2

> <r_epik_Metal_State_Penalty>
0.53666

> <b_epik_Metal_Only>
0

> <s_lp_Force_Field>
OPLS_2005

> <r_lp_Energy>
60.4865

> <b_lp_Chiralities_Consistent>
1

> <s_lp_Variant>
AV-unprocessed.smi:3055-2

> <Gold.Version>
5.8.1

> <Gold.Id.Protein>
6NUR|6NUR_protein|mol2

> <Gold.PLP.Fitness>
46.3772

> <Gold.PLP.PLP>
-34.2087

> <Gold.PLP.part.hbond>
-3.0000

> <Gold.PLP.part.metal>
0.0000

> <Gold.PLP.part.buried>
-1.3390

> <Gold.PLP.part.nonpolar>
-31.3849

> <Gold.PLP.part.repulsive>
1.6344

> <Gold.PLP.ligand.clash>
0.0000

> <Gold.PLP.ligand.torsion>
0.6859

> <Gold.PLP.Chemscore.Hbond>
3.4880

> <Gold.PLP.Chemscore.CHOScore>
1.0000

> <Gold.PLP.Chemscore.Metal>
0.0000

> <Gold.Chemscore.Hbonds>
donor molecule, donor type, donor heavy atom, donor atom, acceptor molecule, acceptor atom, score
      L1  H     3    22       P1 10175  0.55
      L1  H     9    48       P1  7921  0.56
      L1  H    16    47       P1  8028  2.00
      L1  C    10    29       P1  7921  0.05
      L1  C    10    29       P1 10171  0.95

> <Gold.PLP.Chemscore.Internal.Correction>
0.0764

> <Gold.Rescore>
     Score         DG    S(hbond)    S(metal)    S(lipo)     H(rot)  DE(clash)    DE(int)     intcor
     14.73     -16.22       2.21        0.00      69.68       1.87       0.73       0.77       ----

> <Gold.Chemscore.Fitness>
14.7251

> <Gold.Chemscore.DG>
-16.2169

> <Gold.Chemscore.ZeroCoef>
-5.4800

> <Gold.Chemscore.Hbond>
2.2094

> <Gold.Chemscore.Metal>
0.0000

> <Gold.Chemscore.Lipo>
69.6829

> <Gold.Chemscore.Internal_Hbond>
0.0000

> <Gold.Chemscore.DEClash>
0.7257

> <Gold.Chemscore.DEInternal>
0.7661

> <Gold.Chemscore.Rot>
1.8732

> <Gold.Chemscore.Internal.Correction>
   9.000000E+99

> <Gold.Chemscore.Hbonds>
donor molecule, donor type, donor heavy atom, donor atom, acceptor molecule, acceptor atom, score
      L1  H     3    22       P1 10175  0.37
      L1  H     9    48       P1  7921  0.46
      L1  H    16    47       P1  8028  0.98

> <Gold.Chemscore.Hbond.Weighted>
-7.3794

> <Gold.Chemscore.Metal.Weighted>
-0.0000

> <Gold.Chemscore.Lipo.Weighted>
-8.1529

> <Gold.Chemscore.Internal_Hbond.Weighted>
0.0000

> <Gold.Chemscore.DEClash.Weighted>
0.7257

> <Gold.Chemscore.DEInternal.Weighted>
0.7661

> <Gold.Chemscore.Rot.Weighted>
4.7954

> <Gold.Chemscore.Internal.Correction.Weighted>
   9.000000E+99

> <Gold.Protein.RotatedTorsions>
[ 6907 6896 6895 6894 ] final   40.93 input  -60.11 | X-H torsion
[ 7974 7965 7964 7962 ] final   91.78 input  175.53 | X-H torsion
[ 8008 7997 7996 7995 ] final  -79.46 input   59.86 | X-H torsion
[ 10167 10162 10161 10158 ] final  -15.33 input  -65.29 | X-H torsion
[ 10718 10713 10712 10709 ] final  -76.99 input   66.30 | X-H torsion
[ 10763 10752 10751 10750 ] final  -54.61 input  -60.55 | X-H torsion
[ 11005 11000 10999 10996 ] final  -40.52 input  -57.11 | X-H torsion

> <Gold.Protein.ActiveResidues>
 VAL166  LYS551  ARG553  GLY616  TRP617  ASP618  TYR619  PRO620  LYS621  CYS622 
 ASP623  PHE694  ASN695  SER759  ASP760  ASP761  ALA762  ILE779  LEU786  VAL792 
 PHE793  MET794  SER795  GLU796  ALA797  LYS798  CYS799  TRP800  GLU811  SER814 

> <Gold.Protein.RotatedAtoms>
  152.1888  134.8690  160.0519 H   0  0  0  0  0  0  0  0  0  0  0  0  # atno 6907 bound_to 6896
  151.9587  133.3683  159.4035 H   0  0  0  0  0  0  0  0  0  0  0  0  # atno 6908 bound_to 6896
  150.6931  134.4187  159.5239 H   0  0  0  0  0  0  0  0  0  0  0  0  # atno 6909 bound_to 6896
  145.5011  139.2276  143.2777 H   0  0  0  0  0  0  0  0  0  0  0  0  # atno 7974 bound_to 7965
  154.5787  140.0678  156.9072 H   0  0  0  0  0  0  0  0  0  0  0  0  # atno 8008 bound_to 7997
  155.2502  140.3351  155.4265 H   0  0  0  0  0  0  0  0  0  0  0  0  # atno 8009 bound_to 7997
  156.2173  140.1784  156.7544 H   0  0  0  0  0  0  0  0  0  0  0  0  # atno 8010 bound_to 7997
  140.7216  143.5229  150.9612 H   0  0  0  0  0  0  0  0  0  0  0  0  # atno 10167 bound_to 10162
  156.0158  130.4480  150.3278 H   0  0  0  0  0  0  0  0  0  0  0  0  # atno 10718 bound_to 10713
  154.1776  135.6448  153.5026 H   0  0  0  0  0  0  0  0  0  0  0  0  # atno 10763 bound_to 10752
  153.0067  135.5398  154.6547 H   0  0  0  0  0  0  0  0  0  0  0  0  # atno 10764 bound_to 10752
  154.5903  135.2933  155.0615 H   0  0  0  0  0  0  0  0  0  0  0  0  # atno 10765 bound_to 10752
  141.0180  133.6876  156.2333 H   0  0  0  0  0  0  0  0  0  0  0  0  # atno 11005 bound_to 11000
  146.2225  140.5812  142.9011 LP  0  0  0  0  0  0  0  0  0  0  0  0  # atno 17320 bound_to 7965
  144.7779  140.5779  143.6625 LP  0  0  0  0  0  0  0  0  0  0  0  0  # atno 17321 bound_to 7965
  139.8947  143.6910  152.3140 LP  0  0  0  0  0  0  0  0  0  0  0  0  # atno 17342 bound_to 10162
  139.7238  144.7597  151.0912 LP  0  0  0  0  0  0  0  0  0  0  0  0  # atno 17343 bound_to 10162
  157.1376  131.0288  151.2942 LP  0  0  0  0  0  0  0  0  0  0  0  0  # atno 17370 bound_to 10713
  157.4498  130.7592  149.7141 LP  0  0  0  0  0  0  0  0  0  0  0  0  # atno 17371 bound_to 10713
  140.6621  134.4957  157.5584 LP  0  0  0  0  0  0  0  0  0  0  0  0  # atno 17394 bound_to 11000
  139.9129  134.8307  156.1466 LP  0  0  0  0  0  0  0  0  0  0  0  0  # atno 17395 bound_to 11000

$$$$
