AV-unprocessed.smi:2890|AV-procd|sdf|11116|dock4
  -GOLD-   2272015583D 1   1.00000     0.00000
 Structure written by MMmdl.
 38 39  0  0  0  0  0  0  0  0  1 V2000
  151.0844  138.0230  155.2611 C   0  0  0  0  0  0  0  0  0  0  0  0
  151.3944  139.5225  155.1994 C   0  0  0  0  0  0  0  0  0  0  0  0
  151.8220  140.0648  156.5357 C   0  0  0  0  0  0  0  0  0  0  0  0
  152.8068  139.4735  157.1916 N   0  0  0  0  0  0  0  0  0  0  0  0
  152.9656  140.1953  158.3779 O   0  0  0  0  0  0  0  0  0  0  0  0
  152.0570  141.2037  158.3925 C   0  0  0  0  0  0  0  0  0  0  0  0
  152.0682  142.0954  159.5900 C   0  0  0  0  0  0  0  0  0  0  0  0
  153.2084  141.7800  160.5632 C   0  0  0  0  0  0  0  0  0  0  0  0
  151.2944  141.1752  157.2567 C   0  0  0  0  0  0  0  0  0  0  0  0
  150.1668  142.0937  156.8587 C   0  0  0  0  0  0  0  0  0  0  0  0
  148.9467  141.2694  156.4485 C   0  0  0  0  0  0  0  0  0  0  0  0
  148.9335  140.0537  156.6376 O   0  0  0  0  0  0  0  0  0  0  0  0
  147.9285  141.9434  155.8910 N   0  0  0  0  0  0  0  0  0  0  0  0
  146.6606  141.3582  155.4671 C   0  0  0  0  0  0  0  0  0  0  0  0
  146.8170  140.1760  154.5971 C   0  0  0  0  0  0  0  0  0  0  0  0
  146.9390  139.2491  153.9157 N   0  0  0  0  0  0  0  0  0  0  0  0
  145.7005  141.1298  156.6456 C   0  0  0  0  0  0  0  0  0  0  0  0
  144.5693  141.6259  155.7351 C   0  0  0  0  0  0  0  0  0  0  0  0
  145.6427  142.3920  154.9513 C   0  0  0  0  0  0  0  0  0  0  0  0
  150.7746  137.6500  154.2848 H   0  0  0  0  0  0  0  0  0  0  0  0
  150.2793  137.8176  155.9674 H   0  0  0  0  0  0  0  0  0  0  0  0
  151.9590  137.4518  155.5733 H   0  0  0  0  0  0  0  0  0  0  0  0
  152.1744  139.6994  154.4579 H   0  0  0  0  0  0  0  0  0  0  0  0
  150.5160  140.0587  154.8401 H   0  0  0  0  0  0  0  0  0  0  0  0
  152.1475  143.1326  159.2638 H   0  0  0  0  0  0  0  0  0  0  0  0
  151.1154  142.0170  160.1139 H   0  0  0  0  0  0  0  0  0  0  0  0
  153.1815  142.4491  161.4235 H   0  0  0  0  0  0  0  0  0  0  0  0
  154.1805  141.8944  160.0825 H   0  0  0  0  0  0  0  0  0  0  0  0
  153.1356  140.7572  160.9339 H   0  0  0  0  0  0  0  0  0  0  0  0
  149.8861  142.7636  157.6719 H   0  0  0  0  0  0  0  0  0  0  0  0
  150.4586  142.7372  156.0278 H   0  0  0  0  0  0  0  0  0  0  0  0
  148.0292  142.9413  155.7768 H   0  0  0  0  0  0  0  0  0  0  0  0
  145.6042  140.0919  156.9666 H   0  0  0  0  0  0  0  0  0  0  0  0
  145.8790  141.7967  157.4915 H   0  0  0  0  0  0  0  0  0  0  0  0
  144.1040  140.8269  155.1551 H   0  0  0  0  0  0  0  0  0  0  0  0
  143.8271  142.2552  156.2273 H   0  0  0  0  0  0  0  0  0  0  0  0
  145.8063  143.3992  155.3392 H   0  0  0  0  0  0  0  0  0  0  0  0
  145.5014  142.3963  153.8699 H   0  0  0  0  0  0  0  0  0  0  0  0
  1  2  1  0  0  0  0
  1 20  1  0  0  0  0
  1 21  1  0  0  0  0
  1 22  1  0  0  0  0
  2  3  1  0  0  0  0
  2 23  1  0  0  0  0
  2 24  1  0  0  0  0
  3  9  1  0  0  0  0
  3  4  2  0  0  0  0
  4  5  1  0  0  0  0
  5  6  1  0  0  0  0
  6  7  1  0  0  0  0
  6  9  2  0  0  0  0
  7  8  1  0  0  0  0
  7 25  1  0  0  0  0
  7 26  1  0  0  0  0
  8 27  1  0  0  0  0
  8 28  1  0  0  0  0
  8 29  1  0  0  0  0
  9 10  1  0  0  0  0
 10 11  1  0  0  0  0
 10 30  1  0  0  0  0
 10 31  1  0  0  0  0
 11 12  2  0  0  0  0
 11 13  1  0  0  0  0
 13 14  1  0  0  0  0
 13 32  1  0  0  0  0
 14 19  1  0  0  0  0
 14 15  1  0  0  0  0
 14 17  1  0  0  0  0
 15 16  3  0  0  0  0
 17 18  1  0  0  0  0
 17 33  1  0  0  0  0
 17 34  1  0  0  0  0
 18 19  1  0  0  0  0
 18 35  1  0  0  0  0
 18 36  1  0  0  0  0
 19 37  1  0  0  0  0
 19 38  1  0  0  0  0
M  END
> <s_m_source_file>
AV-unprocessed.smi

> <i_m_source_file_index>
2890

> <i_lp_mmshare_version>
43012

> <i_f3d_flags>
0

> <s_epik_input>
W0NIM11bQ0gyXWMxbm9jKFtDSDJdW0NIM10pYzFbQ0gyXUMoPU8pW05IXUMyKEMjTilbQ0gyXVtDSDJdW0NIMl0y

> <s_epik_cmdline>
J2VwaWtfcHl0aG9uJywgJy1waCcsICc3LjAnLCAnLXRuJywgJzgnLCAnLW1hJywgJzIwMCcsICctbWV0YWxfYmluZGluZycsICctaW1hZScsICc8aW5maWxlLm1hZT4nLCAnLW9tYWUnLCAnPG91dGZpbGUubWFlPic=

> <r_lp_tautomer_probability>
1

> <r_epik_Ionization_Penalty>
5.40968e-07

> <r_epik_Ionization_Penalty_Charging>
0

> <r_epik_Ionization_Penalty_Neutral>
5.40968e-07

> <r_epik_State_Penalty>
-0

> <r_epik_Charging_Adjusted_Penalty>
0

> <i_epik_Tot_Q>
0

> <i_epik_Tot_abs_Q>
0

> <r_epik_Metal_State_Penalty>
-0

> <b_epik_Metal_Only>
0

> <s_lp_Force_Field>
OPLS_2005

> <r_lp_Energy>
4.95517

> <b_lp_Chiralities_Consistent>
1

> <s_lp_Variant>
AV-unprocessed.smi:2890-1

> <Gold.Version>
5.8.1

> <Gold.Id.Protein>
6NUR|6NUR_protein|mol2

> <Gold.PLP.Fitness>
38.1768

> <Gold.PLP.PLP>
-34.5553

> <Gold.PLP.part.hbond>
-2.6789

> <Gold.PLP.part.metal>
0.0000

> <Gold.PLP.part.buried>
-4.1082

> <Gold.PLP.part.nonpolar>
-29.4067

> <Gold.PLP.part.repulsive>
0.6892

> <Gold.PLP.ligand.clash>
0.0000

> <Gold.PLP.ligand.torsion>
0.4150

> <Gold.PLP.Chemscore.Hbond>
1.4000

> <Gold.PLP.Chemscore.CHOScore>
0.0000

> <Gold.PLP.Chemscore.Metal>
0.0000

> <Gold.Chemscore.Hbonds>
donor molecule, donor type, donor heavy atom, donor atom, acceptor molecule, acceptor atom, score
      L1  H    13    32       P1  8028  1.00
      P1  H  7997  8009       L1     4  0.25

> <Gold.PLP.Chemscore.Internal.Correction>
0.2515

> <Gold.Rescore>
     Score         DG    S(hbond)    S(metal)    S(lipo)     H(rot)  DE(clash)    DE(int)     intcor
     11.48     -13.14       0.83        0.00      79.46       1.72       0.07       1.59       ----

> <Gold.Chemscore.Fitness>
11.4801

> <Gold.Chemscore.DG>
-13.1379

> <Gold.Chemscore.ZeroCoef>
-5.4800

> <Gold.Chemscore.Hbond>
0.8279

> <Gold.Chemscore.Metal>
0.0000

> <Gold.Chemscore.Lipo>
79.4573

> <Gold.Chemscore.Internal_Hbond>
0.0000

> <Gold.Chemscore.DEClash>
0.0727

> <Gold.Chemscore.DEInternal>
1.5850

> <Gold.Chemscore.Rot>
1.7202

> <Gold.Chemscore.Internal.Correction>
   9.000000E+99

> <Gold.Chemscore.Hbonds>
donor molecule, donor type, donor heavy atom, donor atom, acceptor molecule, acceptor atom, score
      L1  H    13    32       P1  8028  0.77

> <Gold.Chemscore.Hbond.Weighted>
-2.7651

> <Gold.Chemscore.Metal.Weighted>
-0.0000

> <Gold.Chemscore.Lipo.Weighted>
-9.2965

> <Gold.Chemscore.Internal_Hbond.Weighted>
0.0000

> <Gold.Chemscore.DEClash.Weighted>
0.0727

> <Gold.Chemscore.DEInternal.Weighted>
1.5850

> <Gold.Chemscore.Rot.Weighted>
4.4037

> <Gold.Chemscore.Internal.Correction.Weighted>
   9.000000E+99

> <Gold.Protein.RotatedTorsions>
[ 6907 6896 6895 6894 ] final -163.49 input  -60.11 | X-H torsion
[ 7974 7965 7964 7962 ] final  179.28 input  175.53 | X-H torsion
[ 8008 7997 7996 7995 ] final  170.89 input   59.86 | X-H torsion
[ 10167 10162 10161 10158 ] final  133.76 input  -65.29 | X-H torsion
[ 10718 10713 10712 10709 ] final -133.76 input   66.30 | X-H torsion
[ 10763 10752 10751 10750 ] final  172.64 input  -60.55 | X-H torsion
[ 11005 11000 10999 10996 ] final  -61.92 input  -57.11 | X-H torsion

> <Gold.Protein.ActiveResidues>
 VAL166  LYS551  ARG553  GLY616  TRP617  ASP618  TYR619  PRO620  LYS621  CYS622 
 ASP623  PHE694  ASN695  SER759  ASP760  ASP761  ALA762  ILE779  LEU786  VAL792 
 PHE793  MET794  SER795  GLU796  ALA797  LYS798  CYS799  TRP800  GLU811  SER814 

> <Gold.Protein.RotatedAtoms>
  151.3968  133.3770  159.2727 H   0  0  0  0  0  0  0  0  0  0  0  0  # atno 6907 bound_to 6896
  150.9463  134.8869  159.7655 H   0  0  0  0  0  0  0  0  0  0  0  0  # atno 6908 bound_to 6896
  152.5093  134.3921  159.9440 H   0  0  0  0  0  0  0  0  0  0  0  0  # atno 6909 bound_to 6896
  144.7147  140.0524  143.6435 H   0  0  0  0  0  0  0  0  0  0  0  0  # atno 7974 bound_to 7965
  156.1322  140.1526  156.9048 H   0  0  0  0  0  0  0  0  0  0  0  0  # atno 8008 bound_to 7997
  154.4918  140.0849  156.7651 H   0  0  0  0  0  0  0  0  0  0  0  0  # atno 8009 bound_to 7997
  155.4234  140.3424  155.4275 H   0  0  0  0  0  0  0  0  0  0  0  0  # atno 8010 bound_to 7997
  139.5284  144.6600  151.5042 H   0  0  0  0  0  0  0  0  0  0  0  0  # atno 10167 bound_to 10162
  156.2484  130.7138  151.1027 H   0  0  0  0  0  0  0  0  0  0  0  0  # atno 10718 bound_to 10713
  154.4288  135.2759  155.1926 H   0  0  0  0  0  0  0  0  0  0  0  0  # atno 10763 bound_to 10752
  154.3841  135.6081  153.5810 H   0  0  0  0  0  0  0  0  0  0  0  0  # atno 10764 bound_to 10752
  152.9835  135.5887  154.4596 H   0  0  0  0  0  0  0  0  0  0  0  0  # atno 10765 bound_to 10752
  141.1341  133.6635  156.5448 H   0  0  0  0  0  0  0  0  0  0  0  0  # atno 11005 bound_to 11000
  145.9933  139.3032  143.0972 LP  0  0  0  0  0  0  0  0  0  0  0  0  # atno 17320 bound_to 7965
  145.8878  140.9323  143.0568 LP  0  0  0  0  0  0  0  0  0  0  0  0  # atno 17321 bound_to 7965
  140.6444  143.8824  150.6723 LP  0  0  0  0  0  0  0  0  0  0  0  0  # atno 17342 bound_to 10162
  140.2169  143.3839  152.1674 LP  0  0  0  0  0  0  0  0  0  0  0  0  # atno 17343 bound_to 10162
  157.7204  131.0685  150.6158 LP  0  0  0  0  0  0  0  0  0  0  0  0  # atno 17370 bound_to 10713
  156.6236  130.4412  149.5813 LP  0  0  0  0  0  0  0  0  0  0  0  0  # atno 17371 bound_to 10713
  140.4111  134.7272  157.4836 LP  0  0  0  0  0  0  0  0  0  0  0  0  # atno 17394 bound_to 11000
  140.0427  134.6244  155.8960 LP  0  0  0  0  0  0  0  0  0  0  0  0  # atno 17395 bound_to 11000

$$$$
