AV-unprocessed.smi:2732|AV-procd|sdf|10535|dock7
  -GOLD-   2272014583D 1   1.00000     0.00000
 Structure written by MMmdl.
 35 36  0  0  0  0  0  0  0  0  2 V2000
  152.7359  139.7567  159.3184 C   0  0  0  0  0  0  0  0  0  0  0  0
  151.7345  140.6894  158.6201 C   0  0  1  0  0  0  0  0  0  0  0  0
  152.3142  141.9908  158.5842 O   0  0  0  0  0  0  0  0  0  0  0  0
  152.4866  142.6186  159.8486 C   0  0  0  0  0  0  0  0  0  0  0  0
  152.4641  144.1189  159.6534 C   0  0  0  0  0  0  0  0  0  0  0  0
  151.1713  144.8264  159.3158 C   0  0  0  0  0  0  0  0  0  0  0  0
  152.2593  144.7138  158.2786 C   0  0  0  0  0  0  0  0  0  0  0  0
  151.4151  140.2077  157.1951 C   0  0  0  0  0  0  0  0  0  0  0  0
  152.3323  139.8994  156.4344 O   0  0  0  0  0  0  0  0  0  0  0  0
  150.1108  140.1893  156.8624 N   0  0  0  0  0  0  0  0  0  0  0  0
  149.5180  139.8081  155.6288 C   0  0  0  0  0  0  0  0  0  0  0  0
  148.3888  140.5327  155.1885 C   0  0  0  0  0  0  0  0  0  0  0  0
  147.7608  140.1813  153.9756 C   0  0  0  0  0  0  0  0  0  0  0  0
  148.2689  139.1002  153.2268 C   0  0  0  0  0  0  0  0  0  0  0  0
  147.6971  138.7006  152.0206 N   0  0  0  0  0  0  0  0  0  0  0  0
  149.3408  138.4180  153.6837 N   0  3  0  0  0  0  0  0  0  0  0  0
  149.9726  138.7233  154.8385 C   0  0  0  0  0  0  0  0  0  0  0  0
  152.3668  138.7311  159.3531 H   0  0  0  0  0  0  0  0  0  0  0  0
  152.9100  140.0780  160.3456 H   0  0  0  0  0  0  0  0  0  0  0  0
  153.7008  139.7496  158.8096 H   0  0  0  0  0  0  0  0  0  0  0  0
  150.8205  140.7151  159.2168 H   0  0  0  0  0  0  0  0  0  0  0  0
  151.7027  142.3333  160.5512 H   0  0  0  0  0  0  0  0  0  0  0  0
  153.4457  142.3341  160.2833 H   0  0  0  0  0  0  0  0  0  0  0  0
  153.1366  144.6588  160.3172 H   0  0  0  0  0  0  0  0  0  0  0  0
  150.2800  144.2182  159.1749 H   0  0  0  0  0  0  0  0  0  0  0  0
  151.0030  145.8039  159.7630 H   0  0  0  0  0  0  0  0  0  0  0  0
  152.8184  145.6148  158.0348 H   0  0  0  0  0  0  0  0  0  0  0  0
  152.0940  144.0293  157.4490 H   0  0  0  0  0  0  0  0  0  0  0  0
  149.4750  140.5509  157.5587 H   0  0  0  0  0  0  0  0  0  0  0  0
  148.0071  141.3586  155.7712 H   0  0  0  0  0  0  0  0  0  0  0  0
  146.9008  140.7364  153.6299 H   0  0  0  0  0  0  0  0  0  0  0  0
  146.8920  139.1733  151.6347 H   0  0  0  0  0  0  0  0  0  0  0  0
  148.0748  137.9326  151.4844 H   0  0  0  0  0  0  0  0  0  0  0  0
  150.8046  138.0804  155.0840 H   0  0  0  0  0  0  0  0  0  0  0  0
  149.6916  137.6330  153.1343 H   0  0  0  0  0  0  0  0  0  0  0  0
  1  2  1  0  0  0  0
  1 18  1  0  0  0  0
  1 19  1  0  0  0  0
  1 20  1  0  0  0  0
  2  3  1  0  0  0  0
  2  8  1  0  0  0  0
  2 21  1  0  0  0  0
  3  4  1  0  0  0  0
  4  5  1  0  0  0  0
  4 22  1  0  0  0  0
  4 23  1  0  0  0  0
  5  7  1  0  0  0  0
  5  6  1  0  0  0  0
  5 24  1  0  0  0  0
  6  7  1  0  0  0  0
  6 25  1  0  0  0  0
  6 26  1  0  0  0  0
  7 27  1  0  0  0  0
  7 28  1  0  0  0  0
  8  9  2  0  0  0  0
  8 10  1  0  0  0  0
 10 11  1  0  0  0  0
 10 29  1  0  0  0  0
 11 17  1  0  0  0  0
 11 12  2  0  0  0  0
 12 13  1  0  0  0  0
 12 30  1  0  0  0  0
 13 14  2  0  0  0  0
 13 31  1  0  0  0  0
 14 15  1  0  0  0  0
 14 16  1  0  0  0  0
 15 32  1  0  0  0  0
 15 33  1  0  0  0  0
 16 17  2  0  0  0  0
 16 35  1  0  0  0  0
 17 34  1  0  0  0  0
M  CHG  1  16   1
M  END
> <s_m_source_file>
AV-unprocessed.smi

> <i_m_source_file_index>
2732

> <i_lp_mmshare_version>
43012

> <i_f3d_flags>
0

> <s_epik_input>
W0NIMl0xW0NIMl1bQ0hdMVtDSDJdT1tDQEBIXShbQ0gzXSlDKD1PKVtOSF1jMltjSF1bY0hdYyhbTkgyXSluW2NIXTI=

> <s_epik_cmdline>
J2VwaWtfcHl0aG9uJywgJy1waCcsICc3LjAnLCAnLXRuJywgJzgnLCAnLW1hJywgJzIwMCcsICctbWV0YWxfYmluZGluZycsICctaW1hZScsICc8aW5maWxlLm1hZT4nLCAnLW9tYWUnLCAnPG91dGZpbGUubWFlPic=

> <r_lp_tautomer_probability>
0.999994

> <r_epik_Ionization_Penalty>
1.25173

> <r_epik_Ionization_Penalty_Charging>
1.25172

> <r_epik_Ionization_Penalty_Neutral>
2.35798e-06

> <r_epik_State_Penalty>
1.32157

> <r_epik_Charging_Adjusted_Penalty>
2.5733

> <i_epik_Tot_Q>
1

> <i_epik_Tot_abs_Q>
1

> <r_epik_Metal_State_Penalty>
1.39188

> <b_epik_Metal_Only>
0

> <s_lp_Force_Field>
OPLS_2005

> <r_lp_Energy>
25.671

> <b_lp_Chiralities_Consistent>
1

> <s_lp_Variant>
AV-unprocessed.smi:2732-4

> <Gold.Version>
5.8.1

> <Gold.Id.Protein>
6NUR|6NUR_protein|mol2

> <Gold.PLP.Fitness>
45.5253

> <Gold.PLP.PLP>
-33.6801

> <Gold.PLP.part.hbond>
-4.6126

> <Gold.PLP.part.metal>
0.0000

> <Gold.PLP.part.buried>
-0.6358

> <Gold.PLP.part.nonpolar>
-28.4735

> <Gold.PLP.part.repulsive>
0.1705

> <Gold.PLP.ligand.clash>
0.0000

> <Gold.PLP.ligand.torsion>
1.1385

> <Gold.PLP.Chemscore.Hbond>
4.5200

> <Gold.PLP.Chemscore.CHOScore>
0.0000

> <Gold.PLP.Chemscore.Metal>
0.0000

> <Gold.Chemscore.Hbonds>
donor molecule, donor type, donor heavy atom, donor atom, acceptor molecule, acceptor atom, score
      L1  H    15    33       P1  7948  1.54
      L1  H    16    35       P1  7948  1.57
      P1  H  7997  8009       L1     9  1.00

> <Gold.PLP.Chemscore.Internal.Correction>
0.5622

> <Gold.Rescore>
     Score         DG    S(hbond)    S(metal)    S(lipo)     H(rot)  DE(clash)    DE(int)     intcor
     17.68     -19.85       2.71        0.00      84.03       1.76       0.47       1.70       ----

> <Gold.Chemscore.Fitness>
17.6754

> <Gold.Chemscore.DG>
-19.8524

> <Gold.Chemscore.ZeroCoef>
-5.4800

> <Gold.Chemscore.Hbond>
2.7089

> <Gold.Chemscore.Metal>
0.0000

> <Gold.Chemscore.Lipo>
84.0275

> <Gold.Chemscore.Internal_Hbond>
0.0000

> <Gold.Chemscore.DEClash>
0.4731

> <Gold.Chemscore.DEInternal>
1.7039

> <Gold.Chemscore.Rot>
1.7604

> <Gold.Chemscore.Internal.Correction>
   9.000000E+99

> <Gold.Chemscore.Hbonds>
donor molecule, donor type, donor heavy atom, donor atom, acceptor molecule, acceptor atom, score
      L1  H    15    33       P1  7948  0.75
      L1  H    16    35       P1  7948  0.53
      P1  H  7997  8009       L1     9  0.95

> <Gold.Chemscore.Hbond.Weighted>
-9.0477

> <Gold.Chemscore.Metal.Weighted>
-0.0000

> <Gold.Chemscore.Lipo.Weighted>
-9.8312

> <Gold.Chemscore.Internal_Hbond.Weighted>
0.0000

> <Gold.Chemscore.DEClash.Weighted>
0.4731

> <Gold.Chemscore.DEInternal.Weighted>
1.7039

> <Gold.Chemscore.Rot.Weighted>
4.5065

> <Gold.Chemscore.Internal.Correction.Weighted>
   9.000000E+99

> <Gold.Protein.RotatedTorsions>
[ 6907 6896 6895 6894 ] final -124.88 input  -60.11 | X-H torsion
[ 7974 7965 7964 7962 ] final -141.73 input  175.53 | X-H torsion
[ 8008 7997 7996 7995 ] final -164.30 input   59.86 | X-H torsion
[ 10167 10162 10161 10158 ] final -169.23 input  -65.29 | X-H torsion
[ 10718 10713 10712 10709 ] final   38.45 input   66.30 | X-H torsion
[ 10763 10752 10751 10750 ] final  -26.60 input  -60.55 | X-H torsion
[ 11005 11000 10999 10996 ] final  134.61 input  -57.11 | X-H torsion

> <Gold.Protein.ActiveResidues>
 VAL166  LYS551  ARG553  GLY616  TRP617  ASP618  TYR619  PRO620  LYS621  CYS622 
 ASP623  PHE694  ASN695  SER759  ASP760  ASP761  ALA762  ILE779  LEU786  VAL792 
 PHE793  MET794  SER795  GLU796  ALA797  LYS798  CYS799  TRP800  GLU811  SER814 

> <Gold.Protein.RotatedAtoms>
  150.8812  133.7370  159.2931 H   0  0  0  0  0  0  0  0  0  0  0  0  # atno 6907 bound_to 6896
  151.4950  135.1058  159.9823 H   0  0  0  0  0  0  0  0  0  0  0  0  # atno 6908 bound_to 6896
  152.4761  133.8095  159.7051 H   0  0  0  0  0  0  0  0  0  0  0  0  # atno 6909 bound_to 6896
  144.8497  140.6044  143.5398 H   0  0  0  0  0  0  0  0  0  0  0  0  # atno 7974 bound_to 7965
  155.8336  140.0937  157.1777 H   0  0  0  0  0  0  0  0  0  0  0  0  # atno 8008 bound_to 7997
  154.3980  140.1414  156.3704 H   0  0  0  0  0  0  0  0  0  0  0  0  # atno 8009 bound_to 7997
  155.8139  140.3448  155.5476 H   0  0  0  0  0  0  0  0  0  0  0  0  # atno 8010 bound_to 7997
  139.5936  144.1161  152.1663 H   0  0  0  0  0  0  0  0  0  0  0  0  # atno 10167 bound_to 10162
  157.3589  130.7639  149.7033 H   0  0  0  0  0  0  0  0  0  0  0  0  # atno 10718 bound_to 10713
  153.7186  135.6946  153.5018 H   0  0  0  0  0  0  0  0  0  0  0  0  # atno 10763 bound_to 10752
  153.2220  135.4366  155.0499 H   0  0  0  0  0  0  0  0  0  0  0  0  # atno 10764 bound_to 10752
  154.8292  135.3463  154.6720 H   0  0  0  0  0  0  0  0  0  0  0  0  # atno 10765 bound_to 10752
  139.9926  134.9509  156.9891 H   0  0  0  0  0  0  0  0  0  0  0  0  # atno 11005 bound_to 11000
  145.4525  139.1522  143.3910 LP  0  0  0  0  0  0  0  0  0  0  0  0  # atno 17320 bound_to 7965
  146.2774  140.4652  142.8790 LP  0  0  0  0  0  0  0  0  0  0  0  0  # atno 17321 bound_to 7965
  140.0741  144.5755  150.7170 LP  0  0  0  0  0  0  0  0  0  0  0  0  # atno 17342 bound_to 10162
  140.7193  143.2574  151.4331 LP  0  0  0  0  0  0  0  0  0  0  0  0  # atno 17343 bound_to 10162
  155.9734  130.4119  150.4006 LP  0  0  0  0  0  0  0  0  0  0  0  0  # atno 17370 bound_to 10713
  157.2080  131.0454  151.2614 LP  0  0  0  0  0  0  0  0  0  0  0  0  # atno 17371 bound_to 10713
  140.4879  134.1222  155.7228 LP  0  0  0  0  0  0  0  0  0  0  0  0  # atno 17394 bound_to 11000
  141.1578  133.8850  157.1930 LP  0  0  0  0  0  0  0  0  0  0  0  0  # atno 17395 bound_to 11000

$$$$
