AV-unprocessed.smi:1976|AV-procd|sdf|7985|dock7
  -GOLD-   2272010163D 1   1.00000     0.00000
 Structure written by MMmdl.
 45 47  0  0  0  0  0  0  0  0  2 V2000
  149.2433  133.8587  157.9756 O   0  0  0  0  0  0  0  0  0  0  0  0
  148.4051  134.7346  157.7589 C   0  0  0  0  0  0  0  0  0  0  0  0
  148.0583  135.7770  158.8310 C   0  0  0  0  0  0  0  0  0  0  0  0
  147.7064  135.1725  160.1264 N   0  0  0  0  0  0  0  0  0  0  0  0
  147.4782  133.7826  160.1337 C   0  0  0  0  0  0  0  0  0  0  0  0
  147.1718  133.0952  161.2501 C   0  0  0  0  0  0  0  0  0  0  0  0
  146.8905  131.6012  161.2116 C   0  0  0  0  0  0  0  0  0  0  0  0
  147.9786  130.9126  160.8661 F   0  0  0  0  0  0  0  0  0  0  0  0
  146.4768  131.1626  162.4010 F   0  0  0  0  0  0  0  0  0  0  0  0
  145.9337  131.3435  160.3209 F   0  0  0  0  0  0  0  0  0  0  0  0
  147.0488  133.8685  162.4703 C   0  0  0  0  0  0  0  0  0  0  0  0
  147.2609  135.1992  162.4803 C   0  0  0  0  0  0  0  0  0  0  0  0
  147.6223  135.9280  161.2622 C   0  0  0  0  0  0  0  0  0  0  0  0
  147.8367  137.1402  161.2633 O   0  0  0  0  0  0  0  0  0  0  0  0
  147.7499  134.8488  156.5935 N   0  0  0  0  0  0  0  0  0  0  0  0
  147.9066  133.9560  155.4490 C   0  0  2  0  0  0  0  0  0  0  0  0
  149.3574  133.7936  155.0104 C   0  0  0  0  0  0  0  0  0  0  0  0
  149.2067  133.2636  153.5830 C   0  0  0  0  0  0  0  0  0  0  0  0
  147.9784  133.8898  153.0409 N   0  3  1  0  0  0  0  0  0  0  0  0
  147.1857  133.0132  152.1444 C   0  0  0  0  0  0  0  0  0  0  0  0
  145.9473  133.7548  151.6062 C   0  0  0  0  0  0  0  0  0  0  0  0
  145.1463  134.4787  152.7081 C   0  0  0  0  0  0  0  0  0  0  0  0
  145.7058  134.2050  154.1119 C   0  0  0  0  0  0  0  0  0  0  0  0
  147.2241  134.4908  154.1776 C   0  0  1  0  0  0  0  0  0  0  0  0
  148.8992  136.4654  158.9301 H   0  0  0  0  0  0  0  0  0  0  0  0
  147.2289  136.3928  158.4790 H   0  0  0  0  0  0  0  0  0  0  0  0
  147.5757  133.3073  159.1682 H   0  0  0  0  0  0  0  0  0  0  0  0
  146.7868  133.3740  163.3939 H   0  0  0  0  0  0  0  0  0  0  0  0
  147.1637  135.7433  163.4084 H   0  0  0  0  0  0  0  0  0  0  0  0
  147.0883  135.6056  156.4965 H   0  0  0  0  0  0  0  0  0  0  0  0
  147.5176  132.9639  155.6889 H   0  0  0  0  0  0  0  0  0  0  0  0
  149.8644  134.7599  154.9980 H   0  0  0  0  0  0  0  0  0  0  0  0
  149.9253  133.1204  155.6537 H   0  0  0  0  0  0  0  0  0  0  0  0
  150.0742  133.4859  152.9612 H   0  0  0  0  0  0  0  0  0  0  0  0
  149.0895  132.1790  153.6144 H   0  0  0  0  0  0  0  0  0  0  0  0
  147.8098  132.6800  151.3145 H   0  0  0  0  0  0  0  0  0  0  0  0
  146.8799  132.1167  152.6863 H   0  0  0  0  0  0  0  0  0  0  0  0
  146.2593  134.4838  150.8576 H   0  0  0  0  0  0  0  0  0  0  0  0
  145.3029  133.0471  151.0838 H   0  0  0  0  0  0  0  0  0  0  0  0
  145.1708  135.5529  152.5208 H   0  0  0  0  0  0  0  0  0  0  0  0
  144.0959  134.1894  152.6628 H   0  0  0  0  0  0  0  0  0  0  0  0
  145.1760  134.8161  154.8429 H   0  0  0  0  0  0  0  0  0  0  0  0
  145.5056  133.1678  154.3837 H   0  0  0  0  0  0  0  0  0  0  0  0
  147.3848  135.5679  154.1071 H   0  0  0  0  0  0  0  0  0  0  0  0
  148.2787  134.6709  152.4755 H   0  0  0  0  0  0  0  0  0  0  0  0
  1  2  2  0  0  0  0
  2  3  1  0  0  0  0
  2 15  1  0  0  0  0
  3  4  1  0  0  0  0
  3 25  1  0  0  0  0
  3 26  1  0  0  0  0
  4 13  1  0  0  0  0
  4  5  1  0  0  0  0
  5  6  2  0  0  0  0
  5 27  1  0  0  0  0
  6  7  1  0  0  0  0
  6 11  1  0  0  0  0
  7  8  1  0  0  0  0
  7  9  1  0  0  0  0
  7 10  1  0  0  0  0
 11 12  2  0  0  0  0
 11 28  1  0  0  0  0
 12 13  1  0  0  0  0
 12 29  1  0  0  0  0
 13 14  2  0  0  0  0
 15 16  1  0  0  0  0
 15 30  1  0  0  0  0
 16 24  1  0  0  0  0
 16 17  1  0  0  0  0
 16 31  1  0  0  0  0
 17 18  1  0  0  0  0
 17 32  1  0  0  0  0
 17 33  1  0  0  0  0
 18 19  1  0  0  0  0
 18 34  1  0  0  0  0
 18 35  1  0  0  0  0
 19 24  1  0  0  0  0
 19 20  1  0  0  0  0
 19 45  1  0  0  0  0
 20 21  1  0  0  0  0
 20 36  1  0  0  0  0
 20 37  1  0  0  0  0
 21 22  1  0  0  0  0
 21 38  1  0  0  0  0
 21 39  1  0  0  0  0
 22 23  1  0  0  0  0
 22 40  1  0  0  0  0
 22 41  1  0  0  0  0
 23 24  1  0  0  0  0
 23 42  1  0  0  0  0
 23 43  1  0  0  0  0
 24 44  1  0  0  0  0
M  CHG  1  19   1
M  END
> <s_m_source_file>
AV-unprocessed.smi

> <i_m_source_file_index>
1976

> <i_lp_mmshare_version>
43012

> <i_f3d_flags>
0

> <s_epik_input>
W0NIMl0xW0NIMl1bQ0gyXVtDSDJdW0NASF0oTjEyKVtDQEBIXShbQ0gyXVtDSDJdMilbTkhdQyg9TylbQ0gyXW4zW2NIXWMoQyhGKShGKUYpW2NIXVtjSF1jMz1P

> <s_epik_cmdline>
J2VwaWtfcHl0aG9uJywgJy1waCcsICc3LjAnLCAnLXRuJywgJzgnLCAnLW1hJywgJzIwMCcsICctbWV0YWxfYmluZGluZycsICctaW1hZScsICc8aW5maWxlLm1hZT4nLCAnLW9tYWUnLCAnPG91dGZpbGUubWFlPic=

> <r_lp_tautomer_probability>
1

> <r_epik_Ionization_Penalty>
0.00171506

> <r_epik_Ionization_Penalty_Charging>
0.00171498

> <r_epik_Ionization_Penalty_Neutral>
7.81737e-08

> <r_epik_State_Penalty>
0.00115937

> <r_epik_Charging_Adjusted_Penalty>
0.00287436

> <i_epik_Tot_Q>
1

> <i_epik_Tot_abs_Q>
1

> <r_epik_Metal_State_Penalty>
-0

> <b_epik_Metal_Only>
0

> <s_lp_Force_Field>
OPLS_2005

> <r_lp_Energy>
51.6

> <b_lp_Chiralities_Consistent>
1

> <s_lp_Variant>
AV-unprocessed.smi:1976-3

> <Gold.Version>
5.8.1

> <Gold.Id.Protein>
6NUR|6NUR_protein|mol2

> <Gold.PLP.Fitness>
47.4788

> <Gold.PLP.PLP>
-34.7787

> <Gold.PLP.part.hbond>
-4.0000

> <Gold.PLP.part.metal>
0.0000

> <Gold.PLP.part.buried>
-3.9736

> <Gold.PLP.part.nonpolar>
-26.5340

> <Gold.PLP.part.repulsive>
0.0000

> <Gold.PLP.ligand.clash>
1.0416

> <Gold.PLP.ligand.torsion>
0.3349

> <Gold.PLP.Chemscore.Hbond>
4.7920

> <Gold.PLP.Chemscore.CHOScore>
0.0000

> <Gold.PLP.Chemscore.Metal>
0.0000

> <Gold.Chemscore.Hbonds>
donor molecule, donor type, donor heavy atom, donor atom, acceptor molecule, acceptor atom, score
      L1  H    19    45       P1  7948  2.00
      P1  H  6896  6908       L1     1  1.00
      P1  H  6931  6943       L1    14  1.00
      P1  H  6934  6947       L1    14  0.78

> <Gold.PLP.Chemscore.Internal.Correction>
0.0355

> <Gold.Rescore>
     Score         DG    S(hbond)    S(metal)    S(lipo)     H(rot)  DE(clash)    DE(int)     intcor
     17.93     -21.34       3.64        0.00      66.34       1.58       0.72       2.69       ----

> <Gold.Chemscore.Fitness>
17.9313

> <Gold.Chemscore.DG>
-21.3370

> <Gold.Chemscore.ZeroCoef>
-5.4800

> <Gold.Chemscore.Hbond>
3.6369

> <Gold.Chemscore.Metal>
0.0000

> <Gold.Chemscore.Lipo>
66.3425

> <Gold.Chemscore.Internal_Hbond>
0.0000

> <Gold.Chemscore.DEClash>
0.7163

> <Gold.Chemscore.DEInternal>
2.6893

> <Gold.Chemscore.Rot>
1.5830

> <Gold.Chemscore.Internal.Correction>
   9.000000E+99

> <Gold.Chemscore.Hbonds>
donor molecule, donor type, donor heavy atom, donor atom, acceptor molecule, acceptor atom, score
      L1  H    19    45       P1  7948  0.30
      P1  H  6896  6908       L1     1  0.98
      P1  H  6931  6943       L1    14  0.95
      P1  H  6934  6947       L1    14  0.73

> <Gold.Chemscore.Hbond.Weighted>
-12.1473

> <Gold.Chemscore.Metal.Weighted>
-0.0000

> <Gold.Chemscore.Lipo.Weighted>
-7.7621

> <Gold.Chemscore.Internal_Hbond.Weighted>
0.0000

> <Gold.Chemscore.DEClash.Weighted>
0.7163

> <Gold.Chemscore.DEInternal.Weighted>
2.6893

> <Gold.Chemscore.Rot.Weighted>
4.0524

> <Gold.Chemscore.Internal.Correction.Weighted>
   9.000000E+99

> <Gold.Protein.RotatedTorsions>
[ 6907 6896 6895 6894 ] final  129.09 input  -60.11 | X-H torsion
[ 7974 7965 7964 7962 ] final    7.44 input  175.53 | X-H torsion
[ 8008 7997 7996 7995 ] final   33.24 input   59.86 | X-H torsion
[ 10167 10162 10161 10158 ] final  151.42 input  -65.29 | X-H torsion
[ 10718 10713 10712 10709 ] final  128.04 input   66.30 | X-H torsion
[ 10763 10752 10751 10750 ] final  -57.81 input  -60.55 | X-H torsion
[ 11005 11000 10999 10996 ] final -101.77 input  -57.11 | X-H torsion

> <Gold.Protein.ActiveResidues>
 VAL166  LYS551  ARG553  GLY616  TRP617  ASP618  TYR619  PRO620  LYS621  CYS622 
 ASP623  PHE694  ASN695  SER759  ASP760  ASP761  ALA762  ILE779  LEU786  VAL792 
 PHE793  MET794  SER795  GLU796  ALA797  LYS798  CYS799  TRP800  GLU811  SER814 

> <Gold.Protein.RotatedAtoms>
  152.3657  133.6354  159.6048 H   0  0  0  0  0  0  0  0  0  0  0  0  # atno 6907 bound_to 6896
  150.7632  133.9352  159.3448 H   0  0  0  0  0  0  0  0  0  0  0  0  # atno 6908 bound_to 6896
  151.7183  135.0900  160.0331 H   0  0  0  0  0  0  0  0  0  0  0  0  # atno 6909 bound_to 6896
  146.2426  140.0083  142.8409 H   0  0  0  0  0  0  0  0  0  0  0  0  # atno 7974 bound_to 7965
  155.1353  140.3261  155.4464 H   0  0  0  0  0  0  0  0  0  0  0  0  # atno 8008 bound_to 7997
  156.2621  140.2003  156.6420 H   0  0  0  0  0  0  0  0  0  0  0  0  # atno 8009 bound_to 7997
  154.6582  140.0550  157.0019 H   0  0  0  0  0  0  0  0  0  0  0  0  # atno 8010 bound_to 7997
  139.4841  144.5442  151.7512 H   0  0  0  0  0  0  0  0  0  0  0  0  # atno 10167 bound_to 10162
  157.5280  131.1098  150.9053 H   0  0  0  0  0  0  0  0  0  0  0  0  # atno 10718 bound_to 10713
  154.2283  135.6365  153.5167 H   0  0  0  0  0  0  0  0  0  0  0  0  # atno 10763 bound_to 10752
  152.9954  135.5513  154.6040 H   0  0  0  0  0  0  0  0  0  0  0  0  # atno 10764 bound_to 10752
  154.5517  135.2902  155.0976 H   0  0  0  0  0  0  0  0  0  0  0  0  # atno 10765 bound_to 10752
  141.1217  133.8504  157.1274 H   0  0  0  0  0  0  0  0  0  0  0  0  # atno 11005 bound_to 11000
  145.1352  140.9540  143.4521 LP  0  0  0  0  0  0  0  0  0  0  0  0  # atno 17320 bound_to 7965
  145.0349  139.3309  143.6006 LP  0  0  0  0  0  0  0  0  0  0  0  0  # atno 17321 bound_to 7965
  140.4987  144.1202  150.5966 LP  0  0  0  0  0  0  0  0  0  0  0  0  # atno 17342 bound_to 10162
  140.4088  143.2667  151.9858 LP  0  0  0  0  0  0  0  0  0  0  0  0  # atno 17343 bound_to 10162
  156.9643  130.5467  149.5287 LP  0  0  0  0  0  0  0  0  0  0  0  0  # atno 17370 bound_to 10713
  156.0401  130.5484  150.8750 LP  0  0  0  0  0  0  0  0  0  0  0  0  # atno 17371 bound_to 10713
  140.0180  134.9959  157.0533 LP  0  0  0  0  0  0  0  0  0  0  0  0  # atno 17394 bound_to 11000
  140.4487  134.1605  155.7179 LP  0  0  0  0  0  0  0  0  0  0  0  0  # atno 17395 bound_to 11000

$$$$
