AV-unprocessed.smi:1824|AV-procd|sdf|7397|dock10
  -GOLD-   22720 9 63D 1   1.00000     0.00000
 Structure written by MMmdl.
 44 46  0  0  0  0  0  0  0  0  1 V2000
  144.1100  141.2093  158.3609 C   0  0  0  0  0  0  0  0  0  0  0  0
  144.8533  142.0630  157.3282 C   0  0  1  0  0  0  0  0  0  0  0  0
  146.2072  141.4461  156.9333 C   0  0  0  0  0  0  0  0  0  0  0  0
  146.8736  142.2152  155.8900 N   0  0  0  0  0  0  0  0  0  0  0  0
  148.1779  141.6390  155.5628 C   0  0  0  0  0  0  0  0  0  0  0  0
  149.2217  141.6895  156.6993 C   0  0  2  0  0  0  0  0  0  0  0  0
  149.0239  142.8669  157.4598 O   0  0  0  0  0  0  0  0  0  0  0  0
  150.6646  141.6917  156.1570 C   0  0  0  0  0  0  0  0  0  0  0  0
  151.6127  141.1180  157.0958 N   0  0  0  0  0  0  0  0  0  0  0  0
  152.3228  139.9831  156.9462 C   0  0  0  0  0  0  0  0  0  0  0  0
  153.1393  139.6399  157.9385 N   0  0  0  0  0  0  0  0  0  0  0  0
  152.9355  140.6724  158.8379 C   0  0  0  0  0  0  0  0  0  0  0  0
  153.5077  140.9086  160.1082 C   0  0  0  0  0  0  0  0  0  0  0  0
  153.1412  142.0465  160.8571 C   0  0  0  0  0  0  0  0  0  0  0  0
  153.6988  142.2576  162.0731 F   0  0  0  0  0  0  0  0  0  0  0  0
  152.1986  142.9643  160.3471 C   0  0  0  0  0  0  0  0  0  0  0  0
  151.8523  144.0543  161.0724 F   0  0  0  0  0  0  0  0  0  0  0  0
  151.6155  142.7502  159.0835 C   0  0  0  0  0  0  0  0  0  0  0  0
  151.9842  141.6134  158.3407 C   0  0  0  0  0  0  0  0  0  0  0  0
  145.9914  142.3039  154.7286 C   0  0  0  0  0  0  0  0  0  0  0  0
  144.6066  142.8864  155.0751 C   0  0  2  0  0  0  0  0  0  0  0  0
  144.6321  144.4031  155.3298 C   0  0  0  0  0  0  0  0  0  0  0  0
  144.0279  142.1742  156.1700 O   0  0  0  0  0  0  0  0  0  0  0  0
  144.6939  141.1014  159.2751 H   0  0  0  0  0  0  0  0  0  0  0  0
  143.9061  140.2105  157.9740 H   0  0  0  0  0  0  0  0  0  0  0  0
  143.1558  141.6643  158.6278 H   0  0  0  0  0  0  0  0  0  0  0  0
  145.0146  143.0534  157.7549 H   0  0  0  0  0  0  0  0  0  0  0  0
  146.8453  141.3908  157.8160 H   0  0  0  0  0  0  0  0  0  0  0  0
  146.0558  140.4199  156.5943 H   0  0  0  0  0  0  0  0  0  0  0  0
  148.0165  140.5885  155.3168 H   0  0  0  0  0  0  0  0  0  0  0  0
  148.5789  142.0884  154.6529 H   0  0  0  0  0  0  0  0  0  0  0  0
  149.0960  140.8258  157.3539 H   0  0  0  0  0  0  0  0  0  0  0  0
  149.0603  143.6105  156.8781 H   0  0  0  0  0  0  0  0  0  0  0  0
  150.7202  141.1178  155.2311 H   0  0  0  0  0  0  0  0  0  0  0  0
  150.9811  142.7073  155.9139 H   0  0  0  0  0  0  0  0  0  0  0  0
  152.2376  139.3753  156.0569 H   0  0  0  0  0  0  0  0  0  0  0  0
  154.2306  140.2133  160.5081 H   0  0  0  0  0  0  0  0  0  0  0  0
  150.8952  143.4517  158.6896 H   0  0  0  0  0  0  0  0  0  0  0  0
  146.4462  142.9161  153.9503 H   0  0  0  0  0  0  0  0  0  0  0  0
  145.8586  141.3095  154.2996 H   0  0  0  0  0  0  0  0  0  0  0  0
  143.9501  142.7192  154.2208 H   0  0  0  0  0  0  0  0  0  0  0  0
  144.9725  144.9388  154.4435 H   0  0  0  0  0  0  0  0  0  0  0  0
  145.3009  144.6706  156.1475 H   0  0  0  0  0  0  0  0  0  0  0  0
  143.6369  144.7728  155.5770 H   0  0  0  0  0  0  0  0  0  0  0  0
  1  2  1  0  0  0  0
  1 24  1  0  0  0  0
  1 25  1  0  0  0  0
  1 26  1  0  0  0  0
  2 23  1  0  0  0  0
  2  3  1  0  0  0  0
  2 27  1  0  0  0  0
  3  4  1  0  0  0  0
  3 28  1  0  0  0  0
  3 29  1  0  0  0  0
  4  5  1  0  0  0  0
  4 20  1  0  0  0  0
  5  6  1  0  0  0  0
  5 30  1  0  0  0  0
  5 31  1  0  0  0  0
  6  7  1  0  0  0  0
  6  8  1  0  0  0  0
  6 32  1  0  0  0  0
  7 33  1  0  0  0  0
  8  9  1  0  0  0  0
  8 34  1  0  0  0  0
  8 35  1  0  0  0  0
  9 19  1  0  0  0  0
  9 10  1  0  0  0  0
 10 11  2  0  0  0  0
 10 36  1  0  0  0  0
 11 12  1  0  0  0  0
 12 19  2  0  0  0  0
 12 13  1  0  0  0  0
 13 14  2  0  0  0  0
 13 37  1  0  0  0  0
 14 15  1  0  0  0  0
 14 16  1  0  0  0  0
 16 17  1  0  0  0  0
 16 18  2  0  0  0  0
 18 19  1  0  0  0  0
 18 38  1  0  0  0  0
 20 21  1  0  0  0  0
 20 39  1  0  0  0  0
 20 40  1  0  0  0  0
 21 22  1  0  0  0  0
 21 23  1  0  0  0  0
 21 41  1  0  0  0  0
 22 42  1  0  0  0  0
 22 43  1  0  0  0  0
 22 44  1  0  0  0  0
M  END
> <s_m_source_file>
AV-unprocessed.smi

> <i_m_source_file_index>
1824

> <i_lp_mmshare_version>
43012

> <i_f3d_flags>
0

> <s_epik_input>
W0NIM11bQ0BASF0xW0NIMl1OKFtDSDJdW0NASF0oTzEpW0NIM10pW0NIMl1bQ0BIXShbT0hdKVtDSDJdbihbY0hdbjIpYyhjMjMpW2NIXWMoRiljKEYpW2NIXTM=

> <s_epik_cmdline>
J2VwaWtfcHl0aG9uJywgJy1waCcsICc3LjAnLCAnLXRuJywgJzgnLCAnLW1hJywgJzIwMCcsICctbWV0YWxfYmluZGluZycsICctaW1hZScsICc8aW5maWxlLm1hZT4nLCAnLW9tYWUnLCAnPG91dGZpbGUubWFlPic=

> <r_epik_Ionization_Penalty>
0.273778

> <r_epik_Ionization_Penalty_Charging>
0

> <r_epik_Ionization_Penalty_Neutral>
0.273778

> <r_epik_State_Penalty>
0.246794

> <r_epik_Charging_Adjusted_Penalty>
0.246794

> <i_epik_Tot_Q>
0

> <i_epik_Tot_abs_Q>
0

> <r_epik_Metal_State_Penalty>
0.238234

> <b_epik_Metal_Only>
0

> <s_lp_Force_Field>
OPLS_2005

> <r_lp_Energy>
30.6075

> <b_lp_Chiralities_Consistent>
1

> <s_lp_Variant>
AV-unprocessed.smi:1824-5

> <Gold.Version>
5.8.1

> <Gold.Id.Protein>
6NUR|6NUR_protein|mol2

> <Gold.PLP.Fitness>
44.8765

> <Gold.PLP.PLP>
-40.1996

> <Gold.PLP.part.hbond>
-2.3408

> <Gold.PLP.part.metal>
0.0000

> <Gold.PLP.part.buried>
-2.3842

> <Gold.PLP.part.nonpolar>
-33.1388

> <Gold.PLP.part.repulsive>
0.2350

> <Gold.PLP.ligand.clash>
0.0000

> <Gold.PLP.ligand.torsion>
0.6767

> <Gold.PLP.Chemscore.Hbond>
2.0000

> <Gold.PLP.Chemscore.CHOScore>
0.0000

> <Gold.PLP.Chemscore.Metal>
0.0000

> <Gold.Chemscore.Hbonds>
donor molecule, donor type, donor heavy atom, donor atom, acceptor molecule, acceptor atom, score
      L1  H     7    33       P1  8028  1.00
      P1  H  7997  8010       L1    11  0.85

> <Gold.PLP.Chemscore.Internal.Correction>
0.0303

> <Gold.Rescore>
     Score         DG    S(hbond)    S(metal)    S(lipo)     H(rot)  DE(clash)    DE(int)     intcor
     12.35     -13.14       0.98        0.00      87.12       2.26       0.02       0.78       ----

> <Gold.Chemscore.Fitness>
12.3472

> <Gold.Chemscore.DG>
-13.1418

> <Gold.Chemscore.ZeroCoef>
-5.4800

> <Gold.Chemscore.Hbond>
0.9757

> <Gold.Chemscore.Metal>
0.0000

> <Gold.Chemscore.Lipo>
87.1237

> <Gold.Chemscore.Internal_Hbond>
0.0000

> <Gold.Chemscore.DEClash>
0.0185

> <Gold.Chemscore.DEInternal>
0.7762

> <Gold.Chemscore.Rot>
2.2619

> <Gold.Chemscore.Internal.Correction>
   9.000000E+99

> <Gold.Chemscore.Hbonds>
donor molecule, donor type, donor heavy atom, donor atom, acceptor molecule, acceptor atom, score
      L1  H     7    33       P1  8028  0.70
      P1  H  7997  8010       L1    11  0.07

> <Gold.Chemscore.Hbond.Weighted>
-3.2588

> <Gold.Chemscore.Metal.Weighted>
-0.0000

> <Gold.Chemscore.Lipo.Weighted>
-10.1935

> <Gold.Chemscore.Internal_Hbond.Weighted>
0.0000

> <Gold.Chemscore.DEClash.Weighted>
0.0185

> <Gold.Chemscore.DEInternal.Weighted>
0.7762

> <Gold.Chemscore.Rot.Weighted>
5.7904

> <Gold.Chemscore.Internal.Correction.Weighted>
   9.000000E+99

> <Gold.Protein.RotatedTorsions>
[ 6907 6896 6895 6894 ] final  -80.50 input  -60.11 | X-H torsion
[ 7974 7965 7964 7962 ] final  -50.81 input  175.53 | X-H torsion
[ 8008 7997 7996 7995 ] final   26.39 input   59.86 | X-H torsion
[ 10167 10162 10161 10158 ] final -132.75 input  -65.29 | X-H torsion
[ 10718 10713 10712 10709 ] final -116.29 input   66.30 | X-H torsion
[ 10763 10752 10751 10750 ] final   43.02 input  -60.55 | X-H torsion
[ 11005 11000 10999 10996 ] final   69.40 input  -57.11 | X-H torsion

> <Gold.Protein.ActiveResidues>
 VAL166  LYS551  ARG553  GLY616  TRP617  ASP618  TYR619  PRO620  LYS621  CYS622 
 ASP623  PHE694  ASN695  SER759  ASP760  ASP761  ALA762  ILE779  LEU786  VAL792 
 PHE793  MET794  SER795  GLU796  ALA797  LYS798  CYS799  TRP800  GLU811  SER814 

> <Gold.Protein.RotatedAtoms>
  150.6928  134.3960  159.5097 H   0  0  0  0  0  0  0  0  0  0  0  0  # atno 6907 bound_to 6896
  152.1741  134.8807  160.0541 H   0  0  0  0  0  0  0  0  0  0  0  0  # atno 6908 bound_to 6896
  151.9822  133.3727  159.4148 H   0  0  0  0  0  0  0  0  0  0  0  0  # atno 6909 bound_to 6896
  145.9258  140.7794  142.9624 H   0  0  0  0  0  0  0  0  0  0  0  0  # atno 7974 bound_to 7965
  155.0265  140.3153  155.4774 H   0  0  0  0  0  0  0  0  0  0  0  0  # atno 8008 bound_to 7997
  156.2882  140.2188  156.5328 H   0  0  0  0  0  0  0  0  0  0  0  0  # atno 8009 bound_to 7997
  154.7407  140.0474  157.0796 H   0  0  0  0  0  0  0  0  0  0  0  0  # atno 8010 bound_to 7997
  139.9053  143.6559  152.2587 H   0  0  0  0  0  0  0  0  0  0  0  0  # atno 10167 bound_to 10162
  156.0953  130.6127  150.9016 H   0  0  0  0  0  0  0  0  0  0  0  0  # atno 10718 bound_to 10713
  152.9870  135.6114  154.3043 H   0  0  0  0  0  0  0  0  0  0  0  0  # atno 10763 bound_to 10752
  154.2762  135.2778  155.2719 H   0  0  0  0  0  0  0  0  0  0  0  0  # atno 10764 bound_to 10752
  154.5078  135.5849  153.6638 H   0  0  0  0  0  0  0  0  0  0  0  0  # atno 10765 bound_to 10752
  139.9656  134.6987  156.0553 H   0  0  0  0  0  0  0  0  0  0  0  0  # atno 11005 bound_to 11000
  144.6758  140.2048  143.7383 LP  0  0  0  0  0  0  0  0  0  0  0  0  # atno 17320 bound_to 7965
  145.8491  139.2167  143.1782 LP  0  0  0  0  0  0  0  0  0  0  0  0  # atno 17321 bound_to 7965
  139.6990  144.7637  151.1307 LP  0  0  0  0  0  0  0  0  0  0  0  0  # atno 17342 bound_to 10162
  140.7698  143.5484  150.9232 LP  0  0  0  0  0  0  0  0  0  0  0  0  # atno 17343 bound_to 10162
  157.6113  131.0936  150.8790 LP  0  0  0  0  0  0  0  0  0  0  0  0  # atno 17370 bound_to 10713
  156.8930  130.5219  149.5285 LP  0  0  0  0  0  0  0  0  0  0  0  0  # atno 17371 bound_to 10713
  141.1335  133.6580  156.3529 LP  0  0  0  0  0  0  0  0  0  0  0  0  # atno 17394 bound_to 11000
  140.5405  134.6125  157.5378 LP  0  0  0  0  0  0  0  0  0  0  0  0  # atno 17395 bound_to 11000

$$$$
