AV-unprocessed.smi:54|AV-procd|sdf|545|dock9
  -GOLD-   2262016443D 1   1.00000     0.00000
 Structure written by MMmdl.
 43 45  0  0  0  0  0  0  0  0  2 V2000
  145.7326  135.3350  160.6637 C   0  0  0  0  0  0  0  0  0  0  0  0
  147.2239  135.0780  160.9368 C   0  0  0  0  0  0  0  0  0  0  0  0
  147.4486  134.5710  162.3713 C   0  0  0  0  0  0  0  0  0  0  0  0
  148.0506  136.3443  160.6710 C   0  0  0  0  0  0  0  0  0  0  0  0
  147.8756  137.3338  161.3855 O   0  0  0  0  0  0  0  0  0  0  0  0
  148.9331  136.2533  159.6508 N   0  0  0  0  0  0  0  0  0  0  0  0
  149.8330  137.2106  159.1658 C   0  0  0  0  0  0  0  0  0  0  0  0
  149.2622  138.1094  158.4002 N   0  0  0  0  0  0  0  0  0  0  0  0
  150.1560  139.0547  157.9349 C   0  0  0  0  0  0  0  0  0  0  0  0
  151.4966  139.1398  158.1919 C   0  0  0  0  0  0  0  0  0  0  0  0
  152.0687  140.2339  157.5540 N   0  0  0  0  0  0  0  0  0  0  0  0
  151.0221  140.7683  156.9274 C   0  0  0  0  0  0  0  0  0  0  0  0
  149.8490  140.1257  157.1045 N   0  0  0  0  0  0  0  0  0  0  0  0
  148.5058  140.4824  156.5506 C   0  0  2  0  0  0  0  0  0  0  0  0
  147.9317  139.3174  156.0305 O   0  0  0  0  0  0  0  0  0  0  0  0
  147.7138  139.4339  154.6244 C   0  0  2  0  0  0  0  0  0  0  0  0
  147.9682  138.0818  153.9406 C   0  0  0  0  0  0  0  0  0  0  0  0
  147.6049  138.1530  152.5789 O   0  0  0  0  0  0  0  0  0  0  0  0
  148.6893  140.5308  154.1936 C   0  0  1  0  0  0  0  0  0  0  0  0
  148.3136  141.1717  152.9893 O   0  0  0  0  0  0  0  0  0  0  0  0
  148.6809  141.4694  155.3919 C   0  0  1  0  0  0  0  0  0  0  0  0
  147.6189  142.4048  155.3610 O   0  0  0  0  0  0  0  0  0  0  0  0
  152.0759  138.0994  159.0726 C   0  0  0  0  0  0  0  0  0  0  0  0
  153.2767  138.1364  159.3330 O   0  0  0  0  0  0  0  0  0  0  0  0
  151.1932  137.1632  159.5329 N   0  5  0  0  0  0  0  0  0  0  0  0
  147.9485  140.8717  157.4037 H   0  0  0  0  0  0  0  0  0  0  0  0
  146.6903  139.7746  154.4570 H   0  0  0  0  0  0  0  0  0  0  0  0
  149.6894  140.1109  154.0748 H   0  0  0  0  0  0  0  0  0  0  0  0
  149.6159  142.0240  155.4865 H   0  0  0  0  0  0  0  0  0  0  0  0
  145.5722  135.6896  159.6448 H   0  0  0  0  0  0  0  0  0  0  0  0
  145.3218  136.0815  161.3450 H   0  0  0  0  0  0  0  0  0  0  0  0
  145.1513  134.4211  160.7865 H   0  0  0  0  0  0  0  0  0  0  0  0
  147.5584  134.2970  160.2519 H   0  0  0  0  0  0  0  0  0  0  0  0
  148.5076  134.4011  162.5698 H   0  0  0  0  0  0  0  0  0  0  0  0
  146.9297  133.6264  162.5357 H   0  0  0  0  0  0  0  0  0  0  0  0
  147.0806  135.2824  163.1119 H   0  0  0  0  0  0  0  0  0  0  0  0
  148.9758  135.3457  159.2114 H   0  0  0  0  0  0  0  0  0  0  0  0
  151.1148  141.6587  156.3245 H   0  0  0  0  0  0  0  0  0  0  0  0
  149.0291  137.8337  153.9836 H   0  0  0  0  0  0  0  0  0  0  0  0
  147.4272  137.2752  154.4353 H   0  0  0  0  0  0  0  0  0  0  0  0
  148.2490  137.6842  152.0707 H   0  0  0  0  0  0  0  0  0  0  0  0
  148.3381  140.5340  152.2921 H   0  0  0  0  0  0  0  0  0  0  0  0
  147.9734  143.2501  155.1302 H   0  0  0  0  0  0  0  0  0  0  0  0
  1  2  1  0  0  0  0
  1 30  1  0  0  0  0
  1 31  1  0  0  0  0
  1 32  1  0  0  0  0
  2  3  1  0  0  0  0
  2  4  1  0  0  0  0
  2 33  1  0  0  0  0
  3 34  1  0  0  0  0
  3 35  1  0  0  0  0
  3 36  1  0  0  0  0
  4  5  2  0  0  0  0
  4  6  1  0  0  0  0
  6 37  1  0  0  0  0
  6  7  1  0  0  0  0
  7 25  1  0  0  0  0
  7  8  2  0  0  0  0
  8  9  1  0  0  0  0
  9 13  1  0  0  0  0
  9 10  2  0  0  0  0
 10 11  1  0  0  0  0
 10 23  1  0  0  0  0
 11 12  2  0  0  0  0
 12 13  1  0  0  0  0
 12 38  1  0  0  0  0
 13 14  1  0  0  0  0
 14 26  1  0  0  0  0
 14 21  1  0  0  0  0
 14 15  1  0  0  0  0
 15 16  1  0  0  0  0
 16 27  1  0  0  0  0
 16 17  1  0  0  0  0
 16 19  1  0  0  0  0
 17 18  1  0  0  0  0
 17 39  1  0  0  0  0
 17 40  1  0  0  0  0
 18 41  1  0  0  0  0
 19 28  1  0  0  0  0
 19 20  1  0  0  0  0
 19 21  1  0  0  0  0
 20 42  1  0  0  0  0
 21 29  1  0  0  0  0
 21 22  1  0  0  0  0
 22 43  1  0  0  0  0
 23 24  2  0  0  0  0
 23 25  1  0  0  0  0
M  CHG  1  25  -1
M  END
> <s_m_source_file>
AV-unprocessed.smi

> <i_m_source_file_index>
54

> <i_lp_mmshare_version>
43012

> <i_f3d_flags>
0

> <s_epik_input>
W0NIM11bQ0hdKFtDSDNdKUMoPU8pW05IXWMobjEpW25IXWMoPU8pYyhjMTIpbltjSF1uMltDQEBIXTNPW0NASF0oW0NIMl1bT0hdKVtDQEBIXShbT0hdKVtDQEhdM1tPSF0=

> <s_epik_cmdline>
J2VwaWtfcHl0aG9uJywgJy1waCcsICc3LjAnLCAnLXRuJywgJzgnLCAnLW1hJywgJzIwMCcsICctbWV0YWxfYmluZGluZycsICctaW1hZScsICc8aW5maWxlLm1hZT4nLCAnLW9tYWUnLCAnPG91dGZpbGUubWFlPic=

> <r_lp_tautomer_probability>
0.85571

> <r_epik_Ionization_Penalty>
1.75936

> <r_epik_Ionization_Penalty_Charging>
4.55893e-11

> <r_epik_Ionization_Penalty_Neutral>
1.75936

> <r_epik_State_Penalty>
1.72072

> <r_epik_Charging_Adjusted_Penalty>
1.72072

> <i_epik_Tot_Q>
-1

> <i_epik_Tot_abs_Q>
1

> <r_epik_Metal_State_Penalty>
0.400338

> <b_epik_Metal_Only>
1

> <s_epik_Chemistry_Notes>
This compound contains an acetal/aminal-like group ( X-CH(R)-Y where X, Y are N, S, or O) that may be acid/base labile, releasing an aldehyde.

> <s_lp_Force_Field>
OPLS_2005

> <r_lp_Energy>
58.3918

> <b_lp_Chiralities_Consistent>
1

> <s_lp_Variant>
AV-unprocessed.smi:54-17

> <Gold.Version>
5.8.1

> <Gold.Id.Protein>
6NUR|6NUR_protein|mol2

> <Gold.PLP.Fitness>
49.6096

> <Gold.PLP.PLP>
-29.9158

> <Gold.PLP.part.hbond>
-7.3006

> <Gold.PLP.part.metal>
0.0000

> <Gold.PLP.part.buried>
-3.9751

> <Gold.PLP.part.nonpolar>
-19.8929

> <Gold.PLP.part.repulsive>
0.1837

> <Gold.PLP.ligand.clash>
0.0000

> <Gold.PLP.ligand.torsion>
1.1588

> <Gold.PLP.Chemscore.Hbond>
7.3248

> <Gold.PLP.Chemscore.CHOScore>
0.0000

> <Gold.PLP.Chemscore.Metal>
0.0000

> <Gold.Chemscore.Hbonds>
donor molecule, donor type, donor heavy atom, donor atom, acceptor molecule, acceptor atom, score
      L1  H    18    41       P1  7948  0.91
      L1  H    20    42       P1  7957  0.67
      L1  H    22    43       P1  8028  0.98
      P1  H  6896  6907       L1    25  1.89
      P1  H  6931  6943       L1     5  0.98
      P1  H  6934  6947       L1     5  0.69
      P1  H  8011  8017       L1    20  0.84

> <Gold.PLP.Chemscore.Internal.Correction>
0.0371

> <Gold.Rescore>
     Score         DG    S(hbond)    S(metal)    S(lipo)     H(rot)  DE(clash)    DE(int)     intcor
     15.80     -18.31       5.50        0.00      40.50       4.02       0.08       2.43       ----

> <Gold.Chemscore.Fitness>
15.7987

> <Gold.Chemscore.DG>
-18.3051

> <Gold.Chemscore.ZeroCoef>
-5.4800

> <Gold.Chemscore.Hbond>
5.5017

> <Gold.Chemscore.Metal>
0.0000

> <Gold.Chemscore.Lipo>
40.5016

> <Gold.Chemscore.Internal_Hbond>
0.0000

> <Gold.Chemscore.DEClash>
0.0789

> <Gold.Chemscore.DEInternal>
2.4275

> <Gold.Chemscore.Rot>
4.0192

> <Gold.Chemscore.Internal.Correction>
   9.000000E+99

> <Gold.Chemscore.Hbonds>
donor molecule, donor type, donor heavy atom, donor atom, acceptor molecule, acceptor atom, score
      L1  H    18    41       P1  7948  0.88
      L1  H    20    42       P1  7957  0.66
      L1  H    22    43       P1  8028  0.73
      P1  H  6896  6907       L1    25  0.27
      P1  H  6931  6943       L1     5  0.89
      P1  H  6934  6947       L1     5  0.68
      P1  H  8011  8017       L1    20  0.14

> <Gold.Chemscore.Hbond.Weighted>
-18.3757

> <Gold.Chemscore.Metal.Weighted>
-0.0000

> <Gold.Chemscore.Lipo.Weighted>
-4.7387

> <Gold.Chemscore.Internal_Hbond.Weighted>
0.0000

> <Gold.Chemscore.DEClash.Weighted>
0.0789

> <Gold.Chemscore.DEInternal.Weighted>
2.4275

> <Gold.Chemscore.Rot.Weighted>
10.2893

> <Gold.Chemscore.Internal.Correction.Weighted>
   9.000000E+99

> <Gold.Protein.RotatedTorsions>
[ 6907 6896 6895 6894 ] final   -8.12 input  -60.11 | X-H torsion
[ 7974 7965 7964 7962 ] final  -17.36 input  175.53 | X-H torsion
[ 8008 7997 7996 7995 ] final  141.95 input   59.86 | X-H torsion
[ 10167 10162 10161 10158 ] final    2.50 input  -65.29 | X-H torsion
[ 10718 10713 10712 10709 ] final   54.10 input   66.30 | X-H torsion
[ 10763 10752 10751 10750 ] final -165.41 input  -60.55 | X-H torsion
[ 11005 11000 10999 10996 ] final  -71.83 input  -57.11 | X-H torsion

> <Gold.Protein.ActiveResidues>
 VAL166  LYS551  ARG553  GLY616  TRP617  ASP618  TYR619  PRO620  LYS621  CYS622 
 ASP623  PHE694  ASN695  SER759  ASP760  ASP761  ALA762  ILE779  LEU786  VAL792 
 PHE793  MET794  SER795  GLU796  ALA797  LYS798  CYS799  TRP800  GLU811  SER814 

> <Gold.Protein.RotatedAtoms>
  151.4387  135.1018  159.9663 H   0  0  0  0  0  0  0  0  0  0  0  0  # atno 6907 bound_to 6896
  152.4930  133.8549  159.7231 H   0  0  0  0  0  0  0  0  0  0  0  0  # atno 6908 bound_to 6896
  150.9103  133.6947  159.2884 H   0  0  0  0  0  0  0  0  0  0  0  0  # atno 6909 bound_to 6896
  146.1944  140.3768  142.8446 H   0  0  0  0  0  0  0  0  0  0  0  0  # atno 7974 bound_to 7965
  156.2957  140.2301  156.4648 H   0  0  0  0  0  0  0  0  0  0  0  0  # atno 8008 bound_to 7997
  154.7986  140.0450  157.1276 H   0  0  0  0  0  0  0  0  0  0  0  0  # atno 8009 bound_to 7997
  154.9560  140.3048  155.5056 H   0  0  0  0  0  0  0  0  0  0  0  0  # atno 8010 bound_to 7997
  140.6632  143.7249  150.7777 H   0  0  0  0  0  0  0  0  0  0  0  0  # atno 10167 bound_to 10162
  157.5227  130.8576  149.8580 H   0  0  0  0  0  0  0  0  0  0  0  0  # atno 10718 bound_to 10713
  154.6934  135.2975  154.9446 H   0  0  0  0  0  0  0  0  0  0  0  0  # atno 10763 bound_to 10752
  154.0402  135.6658  153.4793 H   0  0  0  0  0  0  0  0  0  0  0  0  # atno 10764 bound_to 10752
  153.0628  135.5105  154.8039 H   0  0  0  0  0  0  0  0  0  0  0  0  # atno 10765 bound_to 10752
  141.1599  133.6829  156.6966 H   0  0  0  0  0  0  0  0  0  0  0  0  # atno 11005 bound_to 11000
  144.8551  140.7059  143.6143 LP  0  0  0  0  0  0  0  0  0  0  0  0  # atno 17320 bound_to 7965
  145.3689  139.1663  143.4342 LP  0  0  0  0  0  0  0  0  0  0  0  0  # atno 17321 bound_to 7965
  140.0921  143.4867  152.2472 LP  0  0  0  0  0  0  0  0  0  0  0  0  # atno 17342 bound_to 10162
  139.5872  144.7536  151.3490 LP  0  0  0  0  0  0  0  0  0  0  0  0  # atno 17343 bound_to 10162
  156.0365  130.3750  150.1548 LP  0  0  0  0  0  0  0  0  0  0  0  0  # atno 17370 bound_to 10713
  156.9735  130.9842  151.3453 LP  0  0  0  0  0  0  0  0  0  0  0  0  # atno 17371 bound_to 10713
  140.2990  134.8179  157.4082 LP  0  0  0  0  0  0  0  0  0  0  0  0  # atno 17394 bound_to 11000
  140.1278  134.5134  155.8130 LP  0  0  0  0  0  0  0  0  0  0  0  0  # atno 17395 bound_to 11000

$$$$
