AV-unprocessed.smi:1497|AV-procd|sdf|6058|dock1
  -GOLD-   22720 6173D 1   1.00000     0.00000
 Structure written by MMmdl.
 33 34  0  0  0  0  0  0  0  0  1 V2000
  150.7339  136.1358  154.1397 N   0  0  0  0  0  0  0  0  0  0  0  0
  151.4180  137.2319  154.4796 C   0  0  0  0  0  0  0  0  0  0  0  0
  152.3129  137.2122  155.3217 O   0  0  0  0  0  0  0  0  0  0  0  0
  151.0394  138.5392  153.7801 C   0  0  0  0  0  0  0  0  0  0  0  0
  151.0207  139.6528  154.7121 N   0  0  0  0  0  0  0  0  0  0  0  0
  151.9478  139.9657  155.6871 C   0  0  0  0  0  0  0  0  0  0  0  0
  151.4831  141.0920  156.2961 C   0  0  0  0  0  0  0  0  0  0  0  0
  152.1345  141.7581  157.3643 N   0  0  0  0  0  0  0  0  0  0  0  0
  151.6518  142.7541  158.1313 C   0  0  0  0  0  0  0  0  0  0  0  0
  150.5379  143.2521  157.9645 O   0  0  0  0  0  0  0  0  0  0  0  0
  152.5097  143.1846  159.0925 N   0  0  0  0  0  0  0  0  0  0  0  0
  153.6755  142.4461  159.6077 C   0  0  0  0  0  0  0  0  0  0  0  0
  153.2757  141.7116  160.8981 C   0  0  0  0  0  0  0  0  0  0  0  0
  152.7874  142.8926  162.1945 S   0  0  0  0  0  0  0  0  0  0  0  0
  151.6086  143.9117  161.2533 C   0  0  0  0  0  0  0  0  0  0  0  0
  152.2154  144.3652  159.9145 C   0  0  0  0  0  0  0  0  0  0  0  0
  150.2622  141.4139  155.6386 C   0  0  0  0  0  0  0  0  0  0  0  0
  149.9929  140.5380  154.6822 N   0  0  0  0  0  0  0  0  0  0  0  0
  150.9569  135.2532  154.5770 H   0  0  0  0  0  0  0  0  0  0  0  0
  150.0011  136.1900  153.4476 H   0  0  0  0  0  0  0  0  0  0  0  0
  151.7525  138.7563  152.9835 H   0  0  0  0  0  0  0  0  0  0  0  0
  150.0578  138.4438  153.3127 H   0  0  0  0  0  0  0  0  0  0  0  0
  152.8338  139.3718  155.8575 H   0  0  0  0  0  0  0  0  0  0  0  0
  153.0670  141.4372  157.5798 H   0  0  0  0  0  0  0  0  0  0  0  0
  154.0889  141.7383  158.8890 H   0  0  0  0  0  0  0  0  0  0  0  0
  154.4917  143.1400  159.8141 H   0  0  0  0  0  0  0  0  0  0  0  0
  152.4479  141.0276  160.7072 H   0  0  0  0  0  0  0  0  0  0  0  0
  154.1076  141.1120  161.2677 H   0  0  0  0  0  0  0  0  0  0  0  0
  150.6975  143.3371  161.0830 H   0  0  0  0  0  0  0  0  0  0  0  0
  151.3327  144.7757  161.8580 H   0  0  0  0  0  0  0  0  0  0  0  0
  153.1260  144.9398  160.0890 H   0  0  0  0  0  0  0  0  0  0  0  0
  151.5344  145.0535  159.4117 H   0  0  0  0  0  0  0  0  0  0  0  0
  149.5737  142.2281  155.8088 H   0  0  0  0  0  0  0  0  0  0  0  0
  1  2  1  0  0  0  0
  1 19  1  0  0  0  0
  1 20  1  0  0  0  0
  2  3  2  0  0  0  0
  2  4  1  0  0  0  0
  4  5  1  0  0  0  0
  4 21  1  0  0  0  0
  4 22  1  0  0  0  0
  5 18  1  0  0  0  0
  5  6  1  0  0  0  0
  6  7  2  0  0  0  0
  6 23  1  0  0  0  0
  7  8  1  0  0  0  0
  7 17  1  0  0  0  0
  8  9  1  0  0  0  0
  8 24  1  0  0  0  0
  9 10  2  0  0  0  0
  9 11  1  0  0  0  0
 11 16  1  0  0  0  0
 11 12  1  0  0  0  0
 12 13  1  0  0  0  0
 12 25  1  0  0  0  0
 12 26  1  0  0  0  0
 13 14  1  0  0  0  0
 13 27  1  0  0  0  0
 13 28  1  0  0  0  0
 14 15  1  0  0  0  0
 15 16  1  0  0  0  0
 15 29  1  0  0  0  0
 15 30  1  0  0  0  0
 16 31  1  0  0  0  0
 16 32  1  0  0  0  0
 17 18  2  0  0  0  0
 17 33  1  0  0  0  0
M  END
> <s_m_source_file>
AV-unprocessed.smi

> <i_m_source_file_index>
1497

> <i_lp_mmshare_version>
43012

> <i_f3d_flags>
0

> <s_epik_input>
W05IMl1DKD1PKVtDSDJdbjFbY0hdYyhbY0hdbjEpW05IXUMoPU8pTjJbQ0gyXVtDSDJdU1tDSDJdW0NIMl0y

> <s_epik_cmdline>
J2VwaWtfcHl0aG9uJywgJy1waCcsICc3LjAnLCAnLXRuJywgJzgnLCAnLW1hJywgJzIwMCcsICctbWV0YWxfYmluZGluZycsICctaW1hZScsICc8aW5maWxlLm1hZT4nLCAnLW9tYWUnLCAnPG91dGZpbGUubWFlPic=

> <r_lp_tautomer_probability>
1

> <r_epik_Ionization_Penalty>
3.75542e-05

> <r_epik_Ionization_Penalty_Charging>
0

> <r_epik_Ionization_Penalty_Neutral>
3.75542e-05

> <r_epik_State_Penalty>
-0

> <r_epik_Charging_Adjusted_Penalty>
0

> <i_epik_Tot_Q>
0

> <i_epik_Tot_abs_Q>
0

> <r_epik_Metal_State_Penalty>
-0

> <b_epik_Metal_Only>
0

> <s_lp_Force_Field>
OPLS_2005

> <r_lp_Energy>
28.4964

> <b_lp_Chiralities_Consistent>
1

> <s_lp_Variant>
AV-unprocessed.smi:1497-1

> <Gold.Version>
5.8.1

> <Gold.Id.Protein>
6NUR|6NUR_protein|mol2

> <Gold.PLP.Fitness>
50.1683

> <Gold.PLP.PLP>
-42.2540

> <Gold.PLP.part.hbond>
-3.5499

> <Gold.PLP.part.metal>
0.0000

> <Gold.PLP.part.buried>
-1.1528

> <Gold.PLP.part.nonpolar>
-37.8265

> <Gold.PLP.part.repulsive>
0.4725

> <Gold.PLP.ligand.clash>
0.0000

> <Gold.PLP.ligand.torsion>
0.5566

> <Gold.PLP.Chemscore.Hbond>
1.9840

> <Gold.PLP.Chemscore.CHOScore>
1.0000

> <Gold.PLP.Chemscore.Metal>
0.0000

> <Gold.Chemscore.Hbonds>
donor molecule, donor type, donor heavy atom, donor atom, acceptor molecule, acceptor atom, score
      L1  H     1    20       P1  7948  0.60
      P1  H 10752 10765       L1     3  0.66
      L1  C    17    33       P1  8028  0.85

> <Gold.PLP.Chemscore.Internal.Correction>
0.0756

> <Gold.Rescore>
     Score         DG    S(hbond)    S(metal)    S(lipo)     H(rot)  DE(clash)    DE(int)     intcor
     11.17     -14.90       0.92        0.00      87.85       1.54       0.81       2.92       ----

> <Gold.Chemscore.Fitness>
11.1747

> <Gold.Chemscore.DG>
-14.9045

> <Gold.Chemscore.ZeroCoef>
-5.4800

> <Gold.Chemscore.Hbond>
0.9238

> <Gold.Chemscore.Metal>
0.0000

> <Gold.Chemscore.Lipo>
87.8472

> <Gold.Chemscore.Internal_Hbond>
0.0000

> <Gold.Chemscore.DEClash>
0.8053

> <Gold.Chemscore.DEInternal>
2.9246

> <Gold.Chemscore.Rot>
1.5388

> <Gold.Chemscore.Internal.Correction>
   9.000000E+99

> <Gold.Chemscore.Hbonds>
donor molecule, donor type, donor heavy atom, donor atom, acceptor molecule, acceptor atom, score
      L1  H     1    20       P1  7948  0.04
      P1  H 10752 10765       L1     3  0.13

> <Gold.Chemscore.Hbond.Weighted>
-3.0856

> <Gold.Chemscore.Metal.Weighted>
-0.0000

> <Gold.Chemscore.Lipo.Weighted>
-10.2781

> <Gold.Chemscore.Internal_Hbond.Weighted>
0.0000

> <Gold.Chemscore.DEClash.Weighted>
0.8053

> <Gold.Chemscore.DEInternal.Weighted>
2.9246

> <Gold.Chemscore.Rot.Weighted>
3.9392

> <Gold.Chemscore.Internal.Correction.Weighted>
   9.000000E+99

> <Gold.Protein.RotatedTorsions>
[ 6907 6896 6895 6894 ] final    7.29 input  -60.11 | X-H torsion
[ 7974 7965 7964 7962 ] final   49.84 input  175.53 | X-H torsion
[ 8008 7997 7996 7995 ] final  -24.14 input   59.86 | X-H torsion
[ 10167 10162 10161 10158 ] final  -92.28 input  -65.29 | X-H torsion
[ 10718 10713 10712 10709 ] final  102.27 input   66.30 | X-H torsion
[ 10763 10752 10751 10750 ] final -162.05 input  -60.55 | X-H torsion
[ 11005 11000 10999 10996 ] final  178.92 input  -57.11 | X-H torsion

> <Gold.Protein.ActiveResidues>
 VAL166  LYS551  ARG553  GLY616  TRP617  ASP618  TYR619  PRO620  LYS621  CYS622 
 ASP623  PHE694  ASN695  SER759  ASP760  ASP761  ALA762  ILE779  LEU786  VAL792 
 PHE793  MET794  SER795  GLU796  ALA797  LYS798  CYS799  TRP800  GLU811  SER814 

> <Gold.Protein.RotatedAtoms>
  151.6875  135.0952  160.0227 H   0  0  0  0  0  0  0  0  0  0  0  0  # atno 6907 bound_to 6896
  152.3799  133.6527  159.6161 H   0  0  0  0  0  0  0  0  0  0  0  0  # atno 6908 bound_to 6896
  150.7738  133.9048  159.3393 H   0  0  0  0  0  0  0  0  0  0  0  0  # atno 6909 bound_to 6896
  146.0069  139.4500  142.9980 H   0  0  0  0  0  0  0  0  0  0  0  0  # atno 7974 bound_to 7965
  154.4546  140.1961  156.0418 H   0  0  0  0  0  0  0  0  0  0  0  0  # atno 8008 bound_to 7997
  156.0719  140.3283  155.7558 H   0  0  0  0  0  0  0  0  0  0  0  0  # atno 8009 bound_to 7997
  155.5250  140.0573  157.2890 H   0  0  0  0  0  0  0  0  0  0  0  0  # atno 8010 bound_to 7997
  140.3364  143.2966  151.9884 H   0  0  0  0  0  0  0  0  0  0  0  0  # atno 10167 bound_to 10162
  157.6807  131.0748  150.5379 H   0  0  0  0  0  0  0  0  0  0  0  0  # atno 10718 bound_to 10713
  154.7249  135.3033  154.8988 H   0  0  0  0  0  0  0  0  0  0  0  0  # atno 10763 bound_to 10752
  153.9848  135.6726  153.4755 H   0  0  0  0  0  0  0  0  0  0  0  0  # atno 10764 bound_to 10752
  153.0866  135.4981  154.8527 H   0  0  0  0  0  0  0  0  0  0  0  0  # atno 10765 bound_to 10752
  140.4005  134.6782  157.4559 H   0  0  0  0  0  0  0  0  0  0  0  0  # atno 11005 bound_to 11000
  145.7401  141.0011  143.1305 LP  0  0  0  0  0  0  0  0  0  0  0  0  # atno 17320 bound_to 7965
  144.6939  139.9089  143.7462 LP  0  0  0  0  0  0  0  0  0  0  0  0  # atno 17321 bound_to 7965
  139.4847  144.6193  151.7287 LP  0  0  0  0  0  0  0  0  0  0  0  0  # atno 17342 bound_to 10162
  140.5349  144.0671  150.6067 LP  0  0  0  0  0  0  0  0  0  0  0  0  # atno 17343 bound_to 10162
  156.5686  130.4274  149.6029 LP  0  0  0  0  0  0  0  0  0  0  0  0  # atno 17370 bound_to 10713
  156.2759  130.7043  151.1854 LP  0  0  0  0  0  0  0  0  0  0  0  0  # atno 17371 bound_to 10713
  140.0340  134.6364  155.9068 LP  0  0  0  0  0  0  0  0  0  0  0  0  # atno 17394 bound_to 11000
  141.1858  133.6556  156.5215 LP  0  0  0  0  0  0  0  0  0  0  0  0  # atno 17395 bound_to 11000

$$$$
