AV-unprocessed.smi:3170|AV-procd|sdf|12109|dock3
  -GOLD-   2272017543D 1   1.00000     0.00000
 Structure written by MMmdl.
 35 36  0  0  0  0  0  0  0  0  1 V2000
  147.0634  136.1088  155.8503 O   0  0  0  0  0  0  0  0  0  0  0  0
  147.5585  136.0054  154.7279 C   0  0  0  0  0  0  0  0  0  0  0  0
  146.8501  135.7995  153.6096 N   0  0  0  0  0  0  0  0  0  0  0  0
  145.3933  135.7387  153.5346 C   0  0  0  0  0  0  0  0  0  0  0  0
  144.8709  135.7834  152.0844 C   0  0  0  0  0  0  0  0  0  0  0  0
  145.1220  134.5467  151.3678 N   0  0  0  0  0  0  0  0  0  0  0  0
  146.3491  133.9334  151.1547 C   0  0  0  0  0  0  0  0  0  0  0  0
  146.0970  132.7959  150.4211 C   0  0  0  0  0  0  0  0  0  0  0  0
  144.7301  132.6899  150.1738 N   0  0  0  0  0  0  0  0  0  0  0  0
  144.2178  133.7597  150.7680 C   0  0  0  0  0  0  0  0  0  0  0  0
  148.8680  136.1204  154.4701 N   0  0  0  0  0  0  0  0  0  0  0  0
  149.8871  136.4565  155.4582 C   0  0  0  0  0  0  0  0  0  0  0  0
  150.8333  137.5624  154.9508 C   0  0  2  0  0  0  0  0  0  0  0  0
  151.9361  137.9508  155.9166 C   0  0  0  0  0  0  0  0  0  0  0  0
  152.3591  139.3112  155.3725 C   0  0  0  0  0  0  0  0  0  0  0  0
  151.1783  139.8925  154.8263 O   0  0  0  0  0  0  0  0  0  0  0  0
  150.1505  138.9105  154.7226 C   0  0  0  0  0  0  0  0  0  0  0  0
  147.3515  135.7300  152.7360 H   0  0  0  0  0  0  0  0  0  0  0  0
  145.0681  134.8165  154.0169 H   0  0  0  0  0  0  0  0  0  0  0  0
  144.9639  136.5577  154.1133 H   0  0  0  0  0  0  0  0  0  0  0  0
  143.7963  135.9681  152.0821 H   0  0  0  0  0  0  0  0  0  0  0  0
  145.3259  136.6072  151.5329 H   0  0  0  0  0  0  0  0  0  0  0  0
  147.2738  134.3470  151.5291 H   0  0  0  0  0  0  0  0  0  0  0  0
  146.7886  132.0521  150.0536 H   0  0  0  0  0  0  0  0  0  0  0  0
  143.1605  133.9815  150.7588 H   0  0  0  0  0  0  0  0  0  0  0  0
  149.1768  136.0173  153.5145 H   0  0  0  0  0  0  0  0  0  0  0  0
  149.4137  136.7622  156.3927 H   0  0  0  0  0  0  0  0  0  0  0  0
  150.4520  135.5509  155.6808 H   0  0  0  0  0  0  0  0  0  0  0  0
  151.2918  137.2492  154.0112 H   0  0  0  0  0  0  0  0  0  0  0  0
  151.5388  138.0582  156.9271 H   0  0  0  0  0  0  0  0  0  0  0  0
  152.7568  137.2332  155.9457 H   0  0  0  0  0  0  0  0  0  0  0  0
  152.8020  139.9484  156.1383 H   0  0  0  0  0  0  0  0  0  0  0  0
  153.0882  139.1887  154.5705 H   0  0  0  0  0  0  0  0  0  0  0  0
  149.6468  138.9632  153.7570 H   0  0  0  0  0  0  0  0  0  0  0  0
  149.4109  139.1074  155.4999 H   0  0  0  0  0  0  0  0  0  0  0  0
  1  2  2  0  0  0  0
  2  3  1  0  0  0  0
  2 11  1  0  0  0  0
  3  4  1  0  0  0  0
  3 18  1  0  0  0  0
  4  5  1  0  0  0  0
  4 19  1  0  0  0  0
  4 20  1  0  0  0  0
  5  6  1  0  0  0  0
  5 21  1  0  0  0  0
  5 22  1  0  0  0  0
  6 10  1  0  0  0  0
  6  7  1  0  0  0  0
  7  8  2  0  0  0  0
  7 23  1  0  0  0  0
  8  9  1  0  0  0  0
  8 24  1  0  0  0  0
  9 10  2  0  0  0  0
 10 25  1  0  0  0  0
 11 12  1  0  0  0  0
 11 26  1  0  0  0  0
 12 13  1  0  0  0  0
 12 27  1  0  0  0  0
 12 28  1  0  0  0  0
 13 17  1  0  0  0  0
 13 14  1  0  0  0  0
 13 29  1  0  0  0  0
 14 15  1  0  0  0  0
 14 30  1  0  0  0  0
 14 31  1  0  0  0  0
 15 16  1  0  0  0  0
 15 32  1  0  0  0  0
 15 33  1  0  0  0  0
 16 17  1  0  0  0  0
 17 34  1  0  0  0  0
 17 35  1  0  0  0  0
M  END
> <s_m_source_file>
AV-unprocessed.smi

> <i_m_source_file_index>
3170

> <i_lp_mmshare_version>
43012

> <i_f3d_flags>
0

> <s_epik_input>
W0NIMl0xT1tDSDJdW0NIMl1bQ0BIXTFbQ0gyXVtOSF1DKD1PKVtOSF1bQ0gyXVtDSDJdbjJbY0hdW2NIXW5bY0hdMg==

> <s_epik_cmdline>
J2VwaWtfcHl0aG9uJywgJy1waCcsICc3LjAnLCAnLXRuJywgJzgnLCAnLW1hJywgJzIwMCcsICctbWV0YWxfYmluZGluZycsICctaW1hZScsICc8aW5maWxlLm1hZT4nLCAnLW9tYWUnLCAnPG91dGZpbGUubWFlPic=

> <r_lp_tautomer_probability>
1

> <r_epik_Ionization_Penalty>
0.621287

> <r_epik_Ionization_Penalty_Charging>
0.621234

> <r_epik_Ionization_Penalty_Neutral>
5.30999e-05

> <r_epik_State_Penalty>
0.637278

> <r_epik_Charging_Adjusted_Penalty>
1.25851

> <i_epik_Tot_Q>
0

> <i_epik_Tot_abs_Q>
0

> <r_epik_Metal_State_Penalty>
0.306756

> <b_epik_Metal_Only>
0

> <s_lp_Force_Field>
OPLS_2005

> <r_lp_Energy>
17.5777

> <b_lp_Chiralities_Consistent>
1

> <s_lp_Variant>
AV-unprocessed.smi:3170-3

> <Gold.Version>
5.8.1

> <Gold.Id.Protein>
6NUR|6NUR_protein|mol2

> <Gold.PLP.Fitness>
44.3367

> <Gold.PLP.PLP>
-27.0691

> <Gold.PLP.part.hbond>
-2.9748

> <Gold.PLP.part.metal>
0.0000

> <Gold.PLP.part.buried>
-4.0932

> <Gold.PLP.part.nonpolar>
-20.2968

> <Gold.PLP.part.repulsive>
0.2613

> <Gold.PLP.ligand.clash>
0.0000

> <Gold.PLP.ligand.torsion>
0.1847

> <Gold.PLP.Chemscore.Hbond>
2.8640

> <Gold.PLP.Chemscore.CHOScore>
3.0000

> <Gold.PLP.Chemscore.Metal>
0.0000

> <Gold.Chemscore.Hbonds>
donor molecule, donor type, donor heavy atom, donor atom, acceptor molecule, acceptor atom, score
      L1  H     3    18       P1  7948  0.90
      L1  H    11    26       P1  7948  1.00
      P1  H  7989  7998       L1    16  1.00
      L1  C     7    23       P1  7948  1.00
      L1  C     8    24       P1 10747  1.00
      L1  C    10    25       P1 10186  1.00

> <Gold.PLP.Chemscore.Internal.Correction>
0.0450

> <Gold.Rescore>
     Score         DG    S(hbond)    S(metal)    S(lipo)     H(rot)  DE(clash)    DE(int)     intcor
     14.72     -14.92       2.71        0.00      52.61       2.25       0.00       0.20       ----

> <Gold.Chemscore.Fitness>
14.7171

> <Gold.Chemscore.DG>
-14.9180

> <Gold.Chemscore.ZeroCoef>
-5.4800

> <Gold.Chemscore.Hbond>
2.7054

> <Gold.Chemscore.Metal>
0.0000

> <Gold.Chemscore.Lipo>
52.6069

> <Gold.Chemscore.Internal_Hbond>
0.0000

> <Gold.Chemscore.DEClash>
0.0048

> <Gold.Chemscore.DEInternal>
0.1961

> <Gold.Chemscore.Rot>
2.2474

> <Gold.Chemscore.Internal.Correction>
   9.000000E+99

> <Gold.Chemscore.Hbonds>
donor molecule, donor type, donor heavy atom, donor atom, acceptor molecule, acceptor atom, score
      L1  H     3    18       P1  7948  0.86
      L1  H    11    26       P1  7948  0.83
      P1  H  7989  7998       L1    16  0.65

> <Gold.Chemscore.Hbond.Weighted>
-9.0362

> <Gold.Chemscore.Metal.Weighted>
-0.0000

> <Gold.Chemscore.Lipo.Weighted>
-6.1550

> <Gold.Chemscore.Internal_Hbond.Weighted>
0.0000

> <Gold.Chemscore.DEClash.Weighted>
0.0048

> <Gold.Chemscore.DEInternal.Weighted>
0.1961

> <Gold.Chemscore.Rot.Weighted>
5.7532

> <Gold.Chemscore.Internal.Correction.Weighted>
   9.000000E+99

> <Gold.Protein.RotatedTorsions>
[ 6907 6896 6895 6894 ] final   68.16 input  -60.11 | X-H torsion
[ 7974 7965 7964 7962 ] final  -17.62 input  175.53 | X-H torsion
[ 8008 7997 7996 7995 ] final   16.99 input   59.86 | X-H torsion
[ 10167 10162 10161 10158 ] final   45.09 input  -65.29 | X-H torsion
[ 10718 10713 10712 10709 ] final -149.63 input   66.30 | X-H torsion
[ 10763 10752 10751 10750 ] final  104.70 input  -60.55 | X-H torsion
[ 11005 11000 10999 10996 ] final -161.99 input  -57.11 | X-H torsion

> <Gold.Protein.ActiveResidues>
 VAL166  LYS551  ARG553  GLY616  TRP617  ASP618  TYR619  PRO620  LYS621  CYS622 
 ASP623  PHE694  ASN695  SER759  ASP760  ASP761  ALA762  ILE779  LEU786  VAL792 
 PHE793  MET794  SER795  GLU796  ALA797  LYS798  CYS799  TRP800  GLU811  SER814 

> <Gold.Protein.RotatedAtoms>
  152.4601  134.5203  159.9780 H   0  0  0  0  0  0  0  0  0  0  0  0  # atno 6907 bound_to 6896
  151.5254  133.3453  159.2916 H   0  0  0  0  0  0  0  0  0  0  0  0  # atno 6908 bound_to 6896
  150.8561  134.7929  159.7109 H   0  0  0  0  0  0  0  0  0  0  0  0  # atno 6909 bound_to 6896
  146.1932  140.3805  142.8450 H   0  0  0  0  0  0  0  0  0  0  0  0  # atno 7974 bound_to 7965
  154.8850  140.2978  155.5403 H   0  0  0  0  0  0  0  0  0  0  0  0  # atno 8008 bound_to 7997
  156.3021  140.2435  156.3792 H   0  0  0  0  0  0  0  0  0  0  0  0  # atno 8009 bound_to 7997
  154.8677  140.0402  157.1694 H   0  0  0  0  0  0  0  0  0  0  0  0  # atno 8010 bound_to 7997
  140.3277  144.2627  150.6172 H   0  0  0  0  0  0  0  0  0  0  0  0  # atno 10167 bound_to 10162
  156.4357  130.8097  151.2325 H   0  0  0  0  0  0  0  0  0  0  0  0  # atno 10718 bound_to 10713
  153.3695  135.3934  155.1778 H   0  0  0  0  0  0  0  0  0  0  0  0  # atno 10763 bound_to 10752
  154.8692  135.3699  154.4996 H   0  0  0  0  0  0  0  0  0  0  0  0  # atno 10764 bound_to 10752
  153.5463  135.7083  153.5673 H   0  0  0  0  0  0  0  0  0  0  0  0  # atno 10765 bound_to 10752
  140.6143  134.4817  157.5218 H   0  0  0  0  0  0  0  0  0  0  0  0  # atno 11005 bound_to 11000
  144.8527  140.7026  143.6157 LP  0  0  0  0  0  0  0  0  0  0  0  0  # atno 17320 bound_to 7965
  145.3727  139.1655  143.4323 LP  0  0  0  0  0  0  0  0  0  0  0  0  # atno 17321 bound_to 7965
  140.5426  143.2221  151.8060 LP  0  0  0  0  0  0  0  0  0  0  0  0  # atno 17342 bound_to 10162
  139.4862  144.4581  151.9574 LP  0  0  0  0  0  0  0  0  0  0  0  0  # atno 17343 bound_to 10162
  157.7507  131.0184  150.3625 LP  0  0  0  0  0  0  0  0  0  0  0  0  # atno 17370 bound_to 10713
  156.3972  130.3909  149.6986 LP  0  0  0  0  0  0  0  0  0  0  0  0  # atno 17371 bound_to 10713
  139.9179  134.8208  156.1305 LP  0  0  0  0  0  0  0  0  0  0  0  0  # atno 17394 bound_to 11000
  141.0787  133.6764  156.2289 LP  0  0  0  0  0  0  0  0  0  0  0  0  # atno 17395 bound_to 11000

$$$$
