AV-unprocessed.smi:3279|AV-procd|sdf|12550|dock8
  -GOLD-   2272018463D 1   1.00000     0.00000
 Structure written by MMmdl.
 36 36  0  0  0  0  0  0  0  0  1 V2000
  151.1536  138.1598  154.0931 C   0  0  0  0  0  0  0  0  0  0  0  0
  151.1682  138.4179  155.6103 C   0  0  2  0  0  0  0  0  0  0  0  0
  152.1655  139.5138  156.0444 C   0  0  0  0  0  0  0  0  0  0  0  0
  151.5143  140.6325  156.7202 N   0  0  0  0  0  0  0  0  0  0  0  0
  151.6440  140.9442  158.0193 C   0  0  0  0  0  0  0  0  0  0  0  0
  152.3652  140.3239  158.8001 O   0  0  0  0  0  0  0  0  0  0  0  0
  150.8482  142.1519  158.5067 C   0  0  0  0  0  0  0  0  0  0  0  0
  151.2433  142.4394  159.8449 O   0  0  0  0  0  0  0  0  0  0  0  0
  152.2413  143.4418  160.0540 C   0  0  0  0  0  0  0  0  0  0  0  0
  151.7667  144.7989  159.4985 C   0  0  0  0  0  0  0  0  0  0  0  0
  153.5954  143.0308  159.4412 C   0  0  0  0  0  0  0  0  0  0  0  0
  152.3764  143.5317  161.5825 C   0  0  0  0  0  0  0  0  0  0  0  0
  151.4091  137.1466  156.3648 C   0  0  0  0  0  0  0  0  0  0  0  0
  152.5075  136.4012  156.3250 N   0  0  0  0  0  0  0  0  0  0  0  0
  152.2260  135.3534  157.1865 N   0  0  0  0  0  0  0  0  0  0  0  0
  151.0354  135.4694  157.7033 N   0  0  0  0  0  0  0  0  0  0  0  0
  150.5094  136.6033  157.1880 N   0  0  0  0  0  0  0  0  0  0  0  0
  149.5860  136.9426  157.4157 H   0  0  0  0  0  0  0  0  0  0  0  0
  150.4298  137.3856  153.8367 H   0  0  0  0  0  0  0  0  0  0  0  0
  152.1311  137.8311  153.7388 H   0  0  0  0  0  0  0  0  0  0  0  0
  150.8801  139.0538  153.5337 H   0  0  0  0  0  0  0  0  0  0  0  0
  150.1698  138.7634  155.8832 H   0  0  0  0  0  0  0  0  0  0  0  0
  152.8826  139.0912  156.7491 H   0  0  0  0  0  0  0  0  0  0  0  0
  152.7510  139.8591  155.1904 H   0  0  0  0  0  0  0  0  0  0  0  0
  150.8966  141.2041  156.1619 H   0  0  0  0  0  0  0  0  0  0  0  0
  151.0463  142.9972  157.8475 H   0  0  0  0  0  0  0  0  0  0  0  0
  149.7871  141.9136  158.4397 H   0  0  0  0  0  0  0  0  0  0  0  0
  152.4525  145.5981  159.7822 H   0  0  0  0  0  0  0  0  0  0  0  0
  150.7806  145.0596  159.8838 H   0  0  0  0  0  0  0  0  0  0  0  0
  151.7109  144.8018  158.4103 H   0  0  0  0  0  0  0  0  0  0  0  0
  153.5648  143.0174  158.3517 H   0  0  0  0  0  0  0  0  0  0  0  0
  153.8974  142.0393  159.7799 H   0  0  0  0  0  0  0  0  0  0  0  0
  154.3821  143.7298  159.7272 H   0  0  0  0  0  0  0  0  0  0  0  0
  153.1131  144.2808  161.8744 H   0  0  0  0  0  0  0  0  0  0  0  0
  152.6907  142.5776  162.0072 H   0  0  0  0  0  0  0  0  0  0  0  0
  151.4280  143.8017  162.0488 H   0  0  0  0  0  0  0  0  0  0  0  0
  1  2  1  0  0  0  0
  1 19  1  0  0  0  0
  1 20  1  0  0  0  0
  1 21  1  0  0  0  0
  2  3  1  0  0  0  0
  2 13  1  0  0  0  0
  2 22  1  0  0  0  0
  3  4  1  0  0  0  0
  3 23  1  0  0  0  0
  3 24  1  0  0  0  0
  4  5  1  0  0  0  0
  4 25  1  0  0  0  0
  5  6  2  0  0  0  0
  5  7  1  0  0  0  0
  7  8  1  0  0  0  0
  7 26  1  0  0  0  0
  7 27  1  0  0  0  0
  8  9  1  0  0  0  0
  9 10  1  0  0  0  0
  9 11  1  0  0  0  0
  9 12  1  0  0  0  0
 10 28  1  0  0  0  0
 10 29  1  0  0  0  0
 10 30  1  0  0  0  0
 11 31  1  0  0  0  0
 11 32  1  0  0  0  0
 11 33  1  0  0  0  0
 12 34  1  0  0  0  0
 12 35  1  0  0  0  0
 12 36  1  0  0  0  0
 13 17  1  0  0  0  0
 13 14  2  0  0  0  0
 14 15  1  0  0  0  0
 15 16  2  0  0  0  0
 16 17  1  0  0  0  0
 17 18  1  0  0  0  0
M  END
> <s_m_source_file>
AV-unprocessed.smi

> <i_m_source_file_index>
3279

> <i_lp_mmshare_version>
43012

> <i_f3d_flags>
0

> <s_epik_input>
W25IXTFubm5jMVtDQEhdKFtDSDNdKVtDSDJdW05IXUMoPU8pW0NIMl1PQyhbQ0gzXSkoW0NIM10pW0NIM10=

> <s_epik_cmdline>
J2VwaWtfcHl0aG9uJywgJy1waCcsICc3LjAnLCAnLXRuJywgJzgnLCAnLW1hJywgJzIwMCcsICctbWV0YWxfYmluZGluZycsICctaW1hZScsICc8aW5maWxlLm1hZT4nLCAnLW9tYWUnLCAnPG91dGZpbGUubWFlPic=

> <r_lp_tautomer_probability>
0.3

> <r_epik_Ionization_Penalty>
1.45055

> <r_epik_Ionization_Penalty_Charging>
0

> <r_epik_Ionization_Penalty_Neutral>
1.45055

> <r_epik_State_Penalty>
2.31845

> <r_epik_Charging_Adjusted_Penalty>
2.31845

> <i_epik_Tot_Q>
0

> <i_epik_Tot_abs_Q>
0

> <r_epik_Metal_State_Penalty>
2.36898

> <b_epik_Metal_Only>
0

> <s_lp_Force_Field>
OPLS_2005

> <r_lp_Energy>
6.97201

> <b_lp_Chiralities_Consistent>
1

> <s_lp_Variant>
AV-unprocessed.smi:3279-3

> <Gold.Version>
5.8.1

> <Gold.Id.Protein>
6NUR|6NUR_protein|mol2

> <Gold.PLP.Fitness>
35.4720

> <Gold.PLP.PLP>
-32.9824

> <Gold.PLP.part.hbond>
-4.0000

> <Gold.PLP.part.metal>
0.0000

> <Gold.PLP.part.buried>
-5.3398

> <Gold.PLP.part.nonpolar>
-23.2576

> <Gold.PLP.part.repulsive>
0.1885

> <Gold.PLP.ligand.clash>
0.0000

> <Gold.PLP.ligand.torsion>
1.1069

> <Gold.PLP.Chemscore.Hbond>
1.5280

> <Gold.PLP.Chemscore.CHOScore>
0.0000

> <Gold.PLP.Chemscore.Metal>
0.0000

> <Gold.Chemscore.Hbonds>
donor molecule, donor type, donor heavy atom, donor atom, acceptor molecule, acceptor atom, score
      P1  H  6896  6909       L1    16  0.28
      P1  H 10752 10764       L1    14  0.85

> <Gold.PLP.Chemscore.Internal.Correction>
0.1194

> <Gold.Rescore>
     Score         DG    S(hbond)    S(metal)    S(lipo)     H(rot)  DE(clash)    DE(int)     intcor
     10.45     -11.69       1.22        0.00      77.62       2.71       0.05       1.18       ----

> <Gold.Chemscore.Fitness>
10.4537

> <Gold.Chemscore.DG>
-11.6879

> <Gold.Chemscore.ZeroCoef>
-5.4800

> <Gold.Chemscore.Hbond>
1.2162

> <Gold.Chemscore.Metal>
0.0000

> <Gold.Chemscore.Lipo>
77.6217

> <Gold.Chemscore.Internal_Hbond>
0.0000

> <Gold.Chemscore.DEClash>
0.0515

> <Gold.Chemscore.DEInternal>
1.1826

> <Gold.Chemscore.Rot>
2.7094

> <Gold.Chemscore.Internal.Correction>
   9.000000E+99

> <Gold.Chemscore.Hbonds>
donor molecule, donor type, donor heavy atom, donor atom, acceptor molecule, acceptor atom, score
      P1  H  6896  6909       L1    16  0.24
      P1  H 10752 10764       L1    14  0.15

> <Gold.Chemscore.Hbond.Weighted>
-4.0621

> <Gold.Chemscore.Metal.Weighted>
-0.0000

> <Gold.Chemscore.Lipo.Weighted>
-9.0817

> <Gold.Chemscore.Internal_Hbond.Weighted>
0.0000

> <Gold.Chemscore.DEClash.Weighted>
0.0515

> <Gold.Chemscore.DEInternal.Weighted>
1.1826

> <Gold.Chemscore.Rot.Weighted>
6.9360

> <Gold.Chemscore.Internal.Correction.Weighted>
   9.000000E+99

> <Gold.Protein.RotatedTorsions>
[ 6907 6896 6895 6894 ] final   48.45 input  -60.11 | X-H torsion
[ 7974 7965 7964 7962 ] final   66.88 input  175.53 | X-H torsion
[ 8008 7997 7996 7995 ] final  -74.30 input   59.86 | X-H torsion
[ 10167 10162 10161 10158 ] final -162.44 input  -65.29 | X-H torsion
[ 10718 10713 10712 10709 ] final   51.77 input   66.30 | X-H torsion
[ 10763 10752 10751 10750 ] final  -26.69 input  -60.55 | X-H torsion
[ 11005 11000 10999 10996 ] final -174.37 input  -57.11 | X-H torsion

> <Gold.Protein.ActiveResidues>
 VAL166  LYS551  ARG553  GLY616  TRP617  ASP618  TYR619  PRO620  LYS621  CYS622 
 ASP623  PHE694  ASN695  SER759  ASP760  ASP761  ALA762  ILE779  LEU786  VAL792 
 PHE793  MET794  SER795  GLU796  ALA797  LYS798  CYS799  TRP800  GLU811  SER814 

> <Gold.Protein.RotatedAtoms>
  152.2796  134.7843  160.0398 H   0  0  0  0  0  0  0  0  0  0  0  0  # atno 6907 bound_to 6896
  151.8427  133.3421  159.3656 H   0  0  0  0  0  0  0  0  0  0  0  0  # atno 6908 bound_to 6896
  150.7184  134.5304  159.5741 H   0  0  0  0  0  0  0  0  0  0  0  0  # atno 6909 bound_to 6896
  145.8213  139.3086  143.1041 H   0  0  0  0  0  0  0  0  0  0  0  0  # atno 7974 bound_to 7965
  154.5319  140.0764  156.8360 H   0  0  0  0  0  0  0  0  0  0  0  0  # atno 8008 bound_to 7997
  155.3357  140.3404  155.4221 H   0  0  0  0  0  0  0  0  0  0  0  0  # atno 8009 bound_to 7997
  156.1790  140.1645  156.8296 H   0  0  0  0  0  0  0  0  0  0  0  0  # atno 8010 bound_to 7997
  139.6392  144.0292  152.2078 H   0  0  0  0  0  0  0  0  0  0  0  0  # atno 10167 bound_to 10162
  157.5012  130.8439  149.8319 H   0  0  0  0  0  0  0  0  0  0  0  0  # atno 10718 bound_to 10713
  153.7200  135.6945  153.5015 H   0  0  0  0  0  0  0  0  0  0  0  0  # atno 10763 bound_to 10752
  153.2211  135.4369  155.0489 H   0  0  0  0  0  0  0  0  0  0  0  0  # atno 10764 bound_to 10752
  154.8287  135.3460  154.6734 H   0  0  0  0  0  0  0  0  0  0  0  0  # atno 10765 bound_to 10752
  140.4752  134.6127  157.4898 H   0  0  0  0  0  0  0  0  0  0  0  0  # atno 11005 bound_to 11000
  145.9672  140.8789  143.0181 LP  0  0  0  0  0  0  0  0  0  0  0  0  # atno 17320 bound_to 7965
  144.6747  140.1894  143.7398 LP  0  0  0  0  0  0  0  0  0  0  0  0  # atno 17321 bound_to 7965
  139.9977  144.6316  150.7757 LP  0  0  0  0  0  0  0  0  0  0  0  0  # atno 17342 bound_to 10162
  140.7482  143.2918  151.3311 LP  0  0  0  0  0  0  0  0  0  0  0  0  # atno 17343 bound_to 10162
  156.0230  130.3789  150.1905 LP  0  0  0  0  0  0  0  0  0  0  0  0  # atno 17370 bound_to 10713
  157.0095  130.9946  151.3370 LP  0  0  0  0  0  0  0  0  0  0  0  0  # atno 17371 bound_to 10713
  139.9860  134.7060  155.9773 LP  0  0  0  0  0  0  0  0  0  0  0  0  # atno 17394 bound_to 11000
  141.1558  133.6543  156.4156 LP  0  0  0  0  0  0  0  0  0  0  0  0  # atno 17395 bound_to 11000

$$$$
