AV-unprocessed.smi:2291|AV-procd|sdf|9212|dock6
  -GOLD-   2272012433D 1   1.00000     0.00000
 Structure written by MMmdl.
 44 46  0  0  0  0  0  0  0  0  1 V2000
  148.3152  139.1386  158.2571 O   0  0  0  0  0  0  0  0  0  0  0  0
  148.5228  138.3622  157.3237 C   0  0  0  0  0  0  0  0  0  0  0  0
  148.5271  137.0210  157.4167 N   0  0  0  0  0  0  0  0  0  0  0  0
  148.3293  136.2208  158.5733 C   0  0  0  0  0  0  0  0  0  0  0  0
  148.3914  134.8261  158.3533 C   0  0  0  0  0  0  0  0  0  0  0  0
  148.2129  133.9445  159.4371 C   0  0  0  0  0  0  0  0  0  0  0  0
  147.9752  134.4830  160.7143 C   0  0  0  0  0  0  0  0  0  0  0  0
  147.7505  133.4538  162.0806 Cl  0  0  0  0  0  0  0  0  0  0  0  0
  147.9260  135.8829  160.8481 C   0  0  0  0  0  0  0  0  0  0  0  0
  148.0972  136.7287  159.8100 N   0  0  0  0  0  0  0  0  0  0  0  0
  148.7841  138.7610  156.0664 N   0  0  0  0  0  0  0  0  0  0  0  0
  148.9104  140.1409  155.5768 C   0  0  0  0  0  0  0  0  0  0  0  0
  150.2606  140.7369  156.0614 C   0  0  0  0  0  0  0  0  0  0  0  0
  151.1686  140.9141  155.2476 O   0  0  0  0  0  0  0  0  0  0  0  0
  150.4104  141.0099  157.3677 N   0  0  0  0  0  0  0  0  0  0  0  0
  151.6192  141.5428  157.9810 C   0  0  0  0  0  0  0  0  0  0  0  0
  151.4421  142.8673  158.6983 C   0  0  0  0  0  0  0  0  0  0  0  0
  151.8592  144.1689  158.0529 C   0  0  0  0  0  0  0  0  0  0  0  0
  152.6449  143.6194  159.2185 C   0  0  0  0  0  0  0  0  0  0  0  0
  148.8781  140.1153  154.0188 C   0  0  0  0  0  0  0  0  0  0  0  0
  147.6674  140.9378  153.5641 C   0  0  0  0  0  0  0  0  0  0  0  0
  147.3529  141.8542  154.7380 C   0  0  0  0  0  0  0  0  0  0  0  0
  147.6516  140.9802  155.9516 C   0  0  0  0  0  0  0  0  0  0  0  0
  148.7136  136.5133  156.5647 H   0  0  0  0  0  0  0  0  0  0  0  0
  148.5765  134.4301  157.3652 H   0  0  0  0  0  0  0  0  0  0  0  0
  148.2590  132.8758  159.2887 H   0  0  0  0  0  0  0  0  0  0  0  0
  147.7453  136.3369  161.8113 H   0  0  0  0  0  0  0  0  0  0  0  0
  148.9408  138.0392  155.3787 H   0  0  0  0  0  0  0  0  0  0  0  0
  149.6318  140.8202  157.9823 H   0  0  0  0  0  0  0  0  0  0  0  0
  151.9689  140.8082  158.7066 H   0  0  0  0  0  0  0  0  0  0  0  0
  152.4085  141.6310  157.2323 H   0  0  0  0  0  0  0  0  0  0  0  0
  150.5596  142.9054  159.3344 H   0  0  0  0  0  0  0  0  0  0  0  0
  152.3219  144.1227  157.0688 H   0  0  0  0  0  0  0  0  0  0  0  0
  151.2311  145.0391  158.2314 H   0  0  0  0  0  0  0  0  0  0  0  0
  152.5451  144.1266  160.1759 H   0  0  0  0  0  0  0  0  0  0  0  0
  153.6306  143.2078  159.0092 H   0  0  0  0  0  0  0  0  0  0  0  0
  149.7748  140.5578  153.5813 H   0  0  0  0  0  0  0  0  0  0  0  0
  148.8190  139.1030  153.6158 H   0  0  0  0  0  0  0  0  0  0  0  0
  147.8563  141.4885  152.6421 H   0  0  0  0  0  0  0  0  0  0  0  0
  146.8210  140.2734  153.3845 H   0  0  0  0  0  0  0  0  0  0  0  0
  148.0174  142.7193  154.7278 H   0  0  0  0  0  0  0  0  0  0  0  0
  146.3249  142.2173  154.7237 H   0  0  0  0  0  0  0  0  0  0  0  0
  146.7972  140.3190  156.1071 H   0  0  0  0  0  0  0  0  0  0  0  0
  147.7360  141.5680  156.8654 H   0  0  0  0  0  0  0  0  0  0  0  0
  1  2  2  0  0  0  0
  2  3  1  0  0  0  0
  2 11  1  0  0  0  0
  3  4  1  0  0  0  0
  3 24  1  0  0  0  0
  4 10  1  0  0  0  0
  4  5  2  0  0  0  0
  5  6  1  0  0  0  0
  5 25  1  0  0  0  0
  6  7  2  0  0  0  0
  6 26  1  0  0  0  0
  7  8  1  0  0  0  0
  7  9  1  0  0  0  0
  9 10  2  0  0  0  0
  9 27  1  0  0  0  0
 11 12  1  0  0  0  0
 11 28  1  0  0  0  0
 12 23  1  0  0  0  0
 12 13  1  0  0  0  0
 12 20  1  0  0  0  0
 13 14  2  0  0  0  0
 13 15  1  0  0  0  0
 15 16  1  0  0  0  0
 15 29  1  0  0  0  0
 16 17  1  0  0  0  0
 16 30  1  0  0  0  0
 16 31  1  0  0  0  0
 17 19  1  0  0  0  0
 17 18  1  0  0  0  0
 17 32  1  0  0  0  0
 18 19  1  0  0  0  0
 18 33  1  0  0  0  0
 18 34  1  0  0  0  0
 19 35  1  0  0  0  0
 19 36  1  0  0  0  0
 20 21  1  0  0  0  0
 20 37  1  0  0  0  0
 20 38  1  0  0  0  0
 21 22  1  0  0  0  0
 21 39  1  0  0  0  0
 21 40  1  0  0  0  0
 22 23  1  0  0  0  0
 22 41  1  0  0  0  0
 22 42  1  0  0  0  0
 23 43  1  0  0  0  0
 23 44  1  0  0  0  0
M  END
> <s_m_source_file>
AV-unprocessed.smi

> <i_m_source_file_index>
2291

> <i_lp_mmshare_version>
43012

> <i_f3d_flags>
0

> <s_epik_input>
bjFbY0hdYyhDbClbY0hdW2NIXWMxW05IXUMoPU8pW05IXUMyKFtDSDJdW0NIMl1bQ0gyXVtDSDJdMilDKD1PKVtOSF1bQ0gyXVtDSF0zW0NIMl1bQ0gyXTM=

> <s_epik_cmdline>
J2VwaWtfcHl0aG9uJywgJy1waCcsICc3LjAnLCAnLXRuJywgJzgnLCAnLW1hJywgJzIwMCcsICctbWV0YWxfYmluZGluZycsICctaW1hZScsICc8aW5maWxlLm1hZT4nLCAnLW9tYWUnLCAnPG91dGZpbGUubWFlPic=

> <r_lp_tautomer_probability>
1

> <r_epik_Ionization_Penalty>
3.27384e-05

> <r_epik_Ionization_Penalty_Charging>
0

> <r_epik_Ionization_Penalty_Neutral>
3.27384e-05

> <r_epik_State_Penalty>
-0

> <r_epik_Charging_Adjusted_Penalty>
0

> <i_epik_Tot_Q>
0

> <i_epik_Tot_abs_Q>
0

> <r_epik_Metal_State_Penalty>
-0

> <b_epik_Metal_Only>
0

> <s_lp_Force_Field>
OPLS_2005

> <r_lp_Energy>
31.8647

> <b_lp_Chiralities_Consistent>
1

> <s_lp_Variant>
AV-unprocessed.smi:2291-1

> <Gold.Version>
5.8.1

> <Gold.Id.Protein>
6NUR|6NUR_protein|mol2

> <Gold.PLP.Fitness>
42.7847

> <Gold.PLP.PLP>
-39.3187

> <Gold.PLP.part.hbond>
-4.0000

> <Gold.PLP.part.metal>
0.0000

> <Gold.PLP.part.buried>
-0.8923

> <Gold.PLP.part.nonpolar>
-35.0429

> <Gold.PLP.part.repulsive>
0.1412

> <Gold.PLP.ligand.clash>
0.0000

> <Gold.PLP.ligand.torsion>
0.7180

> <Gold.PLP.Chemscore.Hbond>
1.4184

> <Gold.PLP.Chemscore.CHOScore>
0.0000

> <Gold.PLP.Chemscore.Metal>
0.0000

> <Gold.Chemscore.Hbonds>
donor molecule, donor type, donor heavy atom, donor atom, acceptor molecule, acceptor atom, score
      P1  H  7989  7998       L1    14  0.72

> <Gold.PLP.Chemscore.Internal.Correction>
0.6467

> <Gold.Rescore>
     Score         DG    S(hbond)    S(metal)    S(lipo)     H(rot)  DE(clash)    DE(int)     intcor
     13.72     -16.82       1.08        0.00     103.40       1.71       0.09       3.00       ----

> <Gold.Chemscore.Fitness>
13.7239

> <Gold.Chemscore.DG>
-16.8171

> <Gold.Chemscore.ZeroCoef>
-5.4800

> <Gold.Chemscore.Hbond>
1.0798

> <Gold.Chemscore.Metal>
0.0000

> <Gold.Chemscore.Lipo>
103.3992

> <Gold.Chemscore.Internal_Hbond>
0.0000

> <Gold.Chemscore.DEClash>
0.0918

> <Gold.Chemscore.DEInternal>
3.0014

> <Gold.Chemscore.Rot>
1.7059

> <Gold.Chemscore.Internal.Correction>
   9.000000E+99

> <Gold.Chemscore.Hbonds>
donor molecule, donor type, donor heavy atom, donor atom, acceptor molecule, acceptor atom, score
      P1  H  7989  7998       L1    14  0.72

> <Gold.Chemscore.Hbond.Weighted>
-3.6065

> <Gold.Chemscore.Metal.Weighted>
-0.0000

> <Gold.Chemscore.Lipo.Weighted>
-12.0977

> <Gold.Chemscore.Internal_Hbond.Weighted>
0.0000

> <Gold.Chemscore.DEClash.Weighted>
0.0918

> <Gold.Chemscore.DEInternal.Weighted>
3.0014

> <Gold.Chemscore.Rot.Weighted>
4.3671

> <Gold.Chemscore.Internal.Correction.Weighted>
   9.000000E+99

> <Gold.Protein.RotatedTorsions>
[ 6907 6896 6895 6894 ] final -174.04 input  -60.11 | X-H torsion
[ 7974 7965 7964 7962 ] final   63.29 input  175.53 | X-H torsion
[ 8008 7997 7996 7995 ] final   50.78 input   59.86 | X-H torsion
[ 10167 10162 10161 10158 ] final  -16.44 input  -65.29 | X-H torsion
[ 10718 10713 10712 10709 ] final  -58.46 input   66.30 | X-H torsion
[ 10763 10752 10751 10750 ] final   60.09 input  -60.55 | X-H torsion
[ 11005 11000 10999 10996 ] final  118.19 input  -57.11 | X-H torsion

> <Gold.Protein.ActiveResidues>
 VAL166  LYS551  ARG553  GLY616  TRP617  ASP618  TYR619  PRO620  LYS621  CYS622 
 ASP623  PHE694  ASN695  SER759  ASP760  ASP761  ALA762  ILE779  LEU786  VAL792 
 PHE793  MET794  SER795  GLU796  ALA797  LYS798  CYS799  TRP800  GLU811  SER814 

> <Gold.Protein.RotatedAtoms>
  151.5659  133.3396  159.2979 H   0  0  0  0  0  0  0  0  0  0  0  0  # atno 6907 bound_to 6896
  150.8395  134.7685  159.6932 H   0  0  0  0  0  0  0  0  0  0  0  0  # atno 6908 bound_to 6896
  152.4465  134.5490  159.9913 H   0  0  0  0  0  0  0  0  0  0  0  0  # atno 6909 bound_to 6896
  145.8636  139.3331  143.0804 H   0  0  0  0  0  0  0  0  0  0  0  0  # atno 7974 bound_to 7965
  155.4244  140.3448  155.4274 H   0  0  0  0  0  0  0  0  0  0  0  0  # atno 8008 bound_to 7997
  156.1374  140.1532  156.9005 H   0  0  0  0  0  0  0  0  0  0  0  0  # atno 8009 bound_to 7997
  154.4943  140.0832  156.7642 H   0  0  0  0  0  0  0  0  0  0  0  0  # atno 8010 bound_to 7997
  140.7233  143.5116  150.9743 H   0  0  0  0  0  0  0  0  0  0  0  0  # atno 10167 bound_to 10162
  156.1134  130.4173  150.0580 H   0  0  0  0  0  0  0  0  0  0  0  0  # atno 10718 bound_to 10713
  152.9911  135.5548  154.5818 H   0  0  0  0  0  0  0  0  0  0  0  0  # atno 10763 bound_to 10752
  154.5197  135.2807  155.1275 H   0  0  0  0  0  0  0  0  0  0  0  0  # atno 10764 bound_to 10752
  154.2633  135.6377  153.5335 H   0  0  0  0  0  0  0  0  0  0  0  0  # atno 10765 bound_to 10752
  139.9100  134.9618  156.7465 H   0  0  0  0  0  0  0  0  0  0  0  0  # atno 11005 bound_to 11000
  145.9219  140.9109  143.0400 LP  0  0  0  0  0  0  0  0  0  0  0  0  # atno 17320 bound_to 7965
  144.6726  140.1301  143.7444 LP  0  0  0  0  0  0  0  0  0  0  0  0  # atno 17321 bound_to 7965
  139.8830  143.7048  152.3155 LP  0  0  0  0  0  0  0  0  0  0  0  0  # atno 17342 bound_to 10162
  139.7337  144.7576  151.0761 LP  0  0  0  0  0  0  0  0  0  0  0  0  # atno 17343 bound_to 10162
  156.8537  130.9468  151.3623 LP  0  0  0  0  0  0  0  0  0  0  0  0  # atno 17370 bound_to 10713
  157.6316  130.8734  149.9284 LP  0  0  0  0  0  0  0  0  0  0  0  0  # atno 17371 bound_to 10713
  140.6808  133.9476  155.7909 LP  0  0  0  0  0  0  0  0  0  0  0  0  # atno 17394 bound_to 11000
  141.0512  134.0483  157.3781 LP  0  0  0  0  0  0  0  0  0  0  0  0  # atno 17395 bound_to 11000

$$$$
