AV-unprocessed.smi:1037|AV-procd|sdf|4520|dock2
  -GOLD-   22720 2533D 1   1.00000     0.00000
 Structure written by MMmdl.
 29 29  0  0  0  0  0  0  0  0  1 V2000
  149.3173  140.4122  153.6204 N   0  0  0  0  0  0  0  0  0  0  0  0
  148.8865  141.3980  154.4106 C   0  0  0  0  0  0  0  0  0  0  0  0
  148.4204  142.4421  153.9569 O   0  0  0  0  0  0  0  0  0  0  0  0
  148.9780  141.1560  155.9229 C   0  0  0  0  0  0  0  0  0  0  0  0
  149.8317  142.1252  156.6053 N   0  0  0  0  0  0  0  0  0  0  0  0
  150.5531  141.8779  157.7097 C   0  0  0  0  0  0  0  0  0  0  0  0
  150.5406  140.7936  158.2944 O   0  0  0  0  0  0  0  0  0  0  0  0
  151.4003  143.0436  158.2386 C   0  0  0  0  0  0  0  0  0  0  0  0
  152.0834  142.7300  159.5053 N   0  0  0  0  0  0  0  0  0  0  0  0
  151.8255  143.5791  160.5963 C   0  0  0  0  0  0  0  0  0  0  0  0
  152.3910  143.3796  161.7944 C   0  0  0  0  0  0  0  0  0  0  0  0
  153.2856  142.2585  161.9484 C   0  0  0  0  0  0  0  0  0  0  0  0
  153.5510  141.4225  160.9180 C   0  0  0  0  0  0  0  0  0  0  0  0
  154.4929  140.2296  161.0644 C   0  0  0  0  0  0  0  0  0  0  0  0
  153.8711  139.0969  160.7346 F   0  0  0  0  0  0  0  0  0  0  0  0
  155.5534  140.3702  160.2683 F   0  0  0  0  0  0  0  0  0  0  0  0
  154.9373  140.1006  162.3156 F   0  0  0  0  0  0  0  0  0  0  0  0
  152.9205  141.6506  159.6016 C   0  0  0  0  0  0  0  0  0  0  0  0
  153.1298  140.9166  158.6341 O   0  0  0  0  0  0  0  0  0  0  0  0
  149.2841  140.5246  152.6174 H   0  0  0  0  0  0  0  0  0  0  0  0
  149.6801  139.5615  154.0256 H   0  0  0  0  0  0  0  0  0  0  0  0
  147.9757  141.2262  156.3457 H   0  0  0  0  0  0  0  0  0  0  0  0
  149.3309  140.1420  156.1195 H   0  0  0  0  0  0  0  0  0  0  0  0
  149.9004  143.0424  156.1892 H   0  0  0  0  0  0  0  0  0  0  0  0
  152.1306  143.3404  157.4832 H   0  0  0  0  0  0  0  0  0  0  0  0
  150.7472  143.9092  158.3570 H   0  0  0  0  0  0  0  0  0  0  0  0
  151.1389  144.3896  160.3996 H   0  0  0  0  0  0  0  0  0  0  0  0
  152.1792  144.0379  162.6241 H   0  0  0  0  0  0  0  0  0  0  0  0
  153.7432  142.0965  162.9129 H   0  0  0  0  0  0  0  0  0  0  0  0
  1  2  1  0  0  0  0
  1 20  1  0  0  0  0
  1 21  1  0  0  0  0
  2  3  2  0  0  0  0
  2  4  1  0  0  0  0
  4  5  1  0  0  0  0
  4 22  1  0  0  0  0
  4 23  1  0  0  0  0
  5  6  1  0  0  0  0
  5 24  1  0  0  0  0
  6  7  2  0  0  0  0
  6  8  1  0  0  0  0
  8  9  1  0  0  0  0
  8 25  1  0  0  0  0
  8 26  1  0  0  0  0
  9 18  1  0  0  0  0
  9 10  1  0  0  0  0
 10 11  2  0  0  0  0
 10 27  1  0  0  0  0
 11 12  1  0  0  0  0
 11 28  1  0  0  0  0
 12 13  2  0  0  0  0
 12 29  1  0  0  0  0
 13 14  1  0  0  0  0
 13 18  1  0  0  0  0
 14 15  1  0  0  0  0
 14 16  1  0  0  0  0
 14 17  1  0  0  0  0
 18 19  2  0  0  0  0
M  END
> <s_m_source_file>
AV-unprocessed.smi

> <i_m_source_file_index>
1037

> <i_lp_mmshare_version>
43012

> <i_f3d_flags>
0

> <s_epik_input>
W05IMl1DKD1PKVtDSDJdW05IXUMoPU8pW0NIMl1uMVtjSF1bY0hdW2NIXWMoQyhGKShGKUYpYzE9Tw==

> <s_epik_cmdline>
J2VwaWtfcHl0aG9uJywgJy1waCcsICc3LjAnLCAnLXRuJywgJzgnLCAnLW1hJywgJzIwMCcsICctbWV0YWxfYmluZGluZycsICctaW1hZScsICc8aW5maWxlLm1hZT4nLCAnLW9tYWUnLCAnPG91dGZpbGUubWFlPic=

> <r_lp_tautomer_probability>
1

> <r_epik_Ionization_Penalty>
9.73018e-08

> <r_epik_Ionization_Penalty_Charging>
1.58095e-09

> <r_epik_Ionization_Penalty_Neutral>
9.57208e-08

> <r_epik_State_Penalty>
-0

> <r_epik_Charging_Adjusted_Penalty>
1.58095e-09

> <i_epik_Tot_Q>
0

> <i_epik_Tot_abs_Q>
0

> <r_epik_Metal_State_Penalty>
-0

> <b_epik_Metal_Only>
0

> <s_lp_Force_Field>
OPLS_2005

> <r_lp_Energy>
7.91729

> <b_lp_Chiralities_Consistent>
1

> <s_lp_Variant>
AV-unprocessed.smi:1037-1

> <Gold.Version>
5.8.1

> <Gold.Id.Protein>
6NUR|6NUR_protein|mol2

> <Gold.PLP.Fitness>
47.5553

> <Gold.PLP.PLP>
-41.0361

> <Gold.PLP.part.hbond>
-4.1484

> <Gold.PLP.part.metal>
0.0000

> <Gold.PLP.part.buried>
-3.7491

> <Gold.PLP.part.nonpolar>
-35.0863

> <Gold.PLP.part.repulsive>
2.5780

> <Gold.PLP.ligand.clash>
0.2853

> <Gold.PLP.ligand.torsion>
0.2448

> <Gold.PLP.Chemscore.Hbond>
2.3097

> <Gold.PLP.Chemscore.CHOScore>
0.0000

> <Gold.PLP.Chemscore.Metal>
0.0000

> <Gold.Chemscore.Hbonds>
donor molecule, donor type, donor heavy atom, donor atom, acceptor molecule, acceptor atom, score
      L1  H     1    20       P1  7957  1.00
      L1  H     5    24       P1  8028  0.91
      P1  H  7997  8009       L1    19  0.08
      P1  H  8011  8017       L1     3  0.09
      P1  H  8022  8030       L1     3  0.21

> <Gold.PLP.Chemscore.Internal.Correction>
0.3649

> <Gold.Rescore>
     Score         DG    S(hbond)    S(metal)    S(lipo)     H(rot)  DE(clash)    DE(int)     intcor
      5.58     -12.30       1.77        0.00      67.95       2.74       0.29       6.43       ----

> <Gold.Chemscore.Fitness>
5.5835

> <Gold.Chemscore.DG>
-12.3047

> <Gold.Chemscore.ZeroCoef>
-5.4800

> <Gold.Chemscore.Hbond>
1.7657

> <Gold.Chemscore.Metal>
0.0000

> <Gold.Chemscore.Lipo>
67.9531

> <Gold.Chemscore.Internal_Hbond>
0.0000

> <Gold.Chemscore.DEClash>
0.2901

> <Gold.Chemscore.DEInternal>
6.4311

> <Gold.Chemscore.Rot>
2.7435

> <Gold.Chemscore.Internal.Correction>
   9.000000E+99

> <Gold.Chemscore.Hbonds>
donor molecule, donor type, donor heavy atom, donor atom, acceptor molecule, acceptor atom, score
      L1  H     1    20       P1  7957  0.93
      L1  H     5    24       P1  8028  0.84
      P1  H  7997  8009       L1    19  0.09
      P1  H  8011  8017       L1     3  0.01
      P1  H  8022  8030       L1     3  0.21

> <Gold.Chemscore.Hbond.Weighted>
-5.8976

> <Gold.Chemscore.Metal.Weighted>
-0.0000

> <Gold.Chemscore.Lipo.Weighted>
-7.9505

> <Gold.Chemscore.Internal_Hbond.Weighted>
0.0000

> <Gold.Chemscore.DEClash.Weighted>
0.2901

> <Gold.Chemscore.DEInternal.Weighted>
6.4311

> <Gold.Chemscore.Rot.Weighted>
7.0234

> <Gold.Chemscore.Internal.Correction.Weighted>
   9.000000E+99

> <Gold.Protein.RotatedTorsions>
[ 6907 6896 6895 6894 ] final   80.82 input  -60.11 | X-H torsion
[ 7974 7965 7964 7962 ] final  -73.85 input  175.53 | X-H torsion
[ 8008 7997 7996 7995 ] final  135.89 input   59.86 | X-H torsion
[ 10167 10162 10161 10158 ] final   28.54 input  -65.29 | X-H torsion
[ 10718 10713 10712 10709 ] final  -66.57 input   66.30 | X-H torsion
[ 10763 10752 10751 10750 ] final  -61.22 input  -60.55 | X-H torsion
[ 11005 11000 10999 10996 ] final  117.05 input  -57.11 | X-H torsion

> <Gold.Protein.ActiveResidues>
 VAL166  LYS551  ARG553  GLY616  TRP617  ASP618  TYR619  PRO620  LYS621  CYS622 
 ASP623  PHE694  ASN695  SER759  ASP760  ASP761  ALA762  ILE779  LEU786  VAL792 
 PHE793  MET794  SER795  GLU796  ALA797  LYS798  CYS799  TRP800  GLU811  SER814 

> <Gold.Protein.RotatedAtoms>
  152.5248  134.3298  159.9178 H   0  0  0  0  0  0  0  0  0  0  0  0  # atno 6907 bound_to 6896
  151.3247  133.4019  159.2665 H   0  0  0  0  0  0  0  0  0  0  0  0  # atno 6908 bound_to 6896
  150.9929  134.9277  159.7967 H   0  0  0  0  0  0  0  0  0  0  0  0  # atno 6909 bound_to 6896
  145.6468  140.9295  143.1006 H   0  0  0  0  0  0  0  0  0  0  0  0  # atno 7974 bound_to 7965
  156.3003  140.2459  156.3655 H   0  0  0  0  0  0  0  0  0  0  0  0  # atno 8008 bound_to 7997
  154.8837  140.0411  157.1817 H   0  0  0  0  0  0  0  0  0  0  0  0  # atno 8009 bound_to 7997
  154.8669  140.2929  155.5509 H   0  0  0  0  0  0  0  0  0  0  0  0  # atno 8010 bound_to 7997
  140.4844  144.0566  150.6275 H   0  0  0  0  0  0  0  0  0  0  0  0  # atno 10167 bound_to 10162
  156.0605  130.4264  150.1728 H   0  0  0  0  0  0  0  0  0  0  0  0  # atno 10718 bound_to 10713
  154.2813  135.6271  153.5348 H   0  0  0  0  0  0  0  0  0  0  0  0  # atno 10763 bound_to 10752
  152.9865  135.5633  154.5492 H   0  0  0  0  0  0  0  0  0  0  0  0  # atno 10764 bound_to 10752
  154.5083  135.2875  155.1339 H   0  0  0  0  0  0  0  0  0  0  0  0  # atno 10765 bound_to 10752
  139.9061  134.9605  156.7292 H   0  0  0  0  0  0  0  0  0  0  0  0  # atno 11005 bound_to 11000
  144.7137  139.8275  143.7406 LP  0  0  0  0  0  0  0  0  0  0  0  0  # atno 17320 bound_to 7965
  146.1236  139.4259  143.0212 LP  0  0  0  0  0  0  0  0  0  0  0  0  # atno 17321 bound_to 7965
  140.3817  143.2799  152.0162 LP  0  0  0  0  0  0  0  0  0  0  0  0  # atno 17342 bound_to 10162
  139.4839  144.6149  151.7364 LP  0  0  0  0  0  0  0  0  0  0  0  0  # atno 17343 bound_to 10162
  156.9797  130.9860  151.3440 LP  0  0  0  0  0  0  0  0  0  0  0  0  # atno 17370 bound_to 10713
  157.5610  130.8246  149.8266 LP  0  0  0  0  0  0  0  0  0  0  0  0  # atno 17371 bound_to 10713
  140.6939  133.9366  155.7983 LP  0  0  0  0  0  0  0  0  0  0  0  0  # atno 17394 bound_to 11000
  141.0421  134.0606  157.3889 LP  0  0  0  0  0  0  0  0  0  0  0  0  # atno 17395 bound_to 11000

$$$$
