AV-unprocessed.smi:3183|AV-procd|sdf|12158|dock7
  -GOLD-   2272017593D 1   1.00000     0.00000
 Structure written by MMmdl.
 43 44  0  0  0  0  0  0  0  0  2 V2000
  152.3758  143.4667  161.9277 C   0  0  0  0  0  0  0  0  0  0  0  0
  152.5510  143.4634  160.3986 C   0  0  1  0  0  0  0  0  0  0  0  0
  152.2514  142.0566  159.8427 C   0  0  0  0  0  0  0  0  0  0  0  0
  152.4256  141.9863  158.3177 C   0  0  0  0  0  0  0  0  0  0  0  0
  151.5711  143.0378  157.5908 C   0  0  1  0  0  0  0  0  0  0  0  0
  150.1319  142.7003  157.6746 N   0  3  0  0  0  0  0  0  0  0  0  0
  149.7560  141.4136  157.0559 C   0  0  0  0  0  0  0  0  0  0  0  0
  149.8422  141.4928  155.5246 C   0  0  0  0  0  0  0  0  0  0  0  0
  149.0554  140.4375  154.8077 C   0  0  0  0  0  0  0  0  0  0  0  0
  149.3102  139.1067  154.6150 C   0  0  0  0  0  0  0  0  0  0  0  0
  148.1969  138.6420  153.8630 C   0  0  0  0  0  0  0  0  0  0  0  0
  147.3236  139.5997  153.6085 N   0  0  0  0  0  0  0  0  0  0  0  0
  147.8459  140.7018  154.1858 N   0  0  0  0  0  0  0  0  0  0  0  0
  147.1097  141.9476  154.0829 C   0  0  0  0  0  0  0  0  0  0  0  0
  151.8397  144.4452  158.1539 C   0  0  0  0  0  0  0  0  0  0  0  0
  151.6777  144.5318  159.6882 C   0  0  2  0  0  0  0  0  0  0  0  0
  151.9837  145.9640  160.1622 C   0  0  0  0  0  0  0  0  0  0  0  0
  151.3318  143.3233  162.2083 H   0  0  0  0  0  0  0  0  0  0  0  0
  152.7186  144.4002  162.3732 H   0  0  0  0  0  0  0  0  0  0  0  0
  152.9551  142.6669  162.3900 H   0  0  0  0  0  0  0  0  0  0  0  0
  153.5983  143.6859  160.1883 H   0  0  0  0  0  0  0  0  0  0  0  0
  152.9115  141.3254  160.3110 H   0  0  0  0  0  0  0  0  0  0  0  0
  151.2356  141.7625  160.1108 H   0  0  0  0  0  0  0  0  0  0  0  0
  153.4764  142.1491  158.0745 H   0  0  0  0  0  0  0  0  0  0  0  0
  152.1836  140.9856  157.9573 H   0  0  0  0  0  0  0  0  0  0  0  0
  151.8672  143.0373  156.5405 H   0  0  0  0  0  0  0  0  0  0  0  0
  149.8702  142.6740  158.6498 H   0  0  0  0  0  0  0  0  0  0  0  0
  150.4197  140.6320  157.4285 H   0  0  0  0  0  0  0  0  0  0  0  0
  148.7408  141.1554  157.3609 H   0  0  0  0  0  0  0  0  0  0  0  0
  149.4966  142.4748  155.1986 H   0  0  0  0  0  0  0  0  0  0  0  0
  150.8881  141.4209  155.2230 H   0  0  0  0  0  0  0  0  0  0  0  0
  150.1646  138.5427  154.9587 H   0  0  0  0  0  0  0  0  0  0  0  0
  147.9986  137.6452  153.4974 H   0  0  0  0  0  0  0  0  0  0  0  0
  147.6385  142.7566  154.5855 H   0  0  0  0  0  0  0  0  0  0  0  0
  146.1276  141.8325  154.5425 H   0  0  0  0  0  0  0  0  0  0  0  0
  146.9812  142.2124  153.0330 H   0  0  0  0  0  0  0  0  0  0  0  0
  152.8561  144.7402  157.8881 H   0  0  0  0  0  0  0  0  0  0  0  0
  151.1826  145.1664  157.6656 H   0  0  0  0  0  0  0  0  0  0  0  0
  150.6328  144.3281  159.9271 H   0  0  0  0  0  0  0  0  0  0  0  0
  153.0381  146.2094  160.0303 H   0  0  0  0  0  0  0  0  0  0  0  0
  151.7357  146.1047  161.2141 H   0  0  0  0  0  0  0  0  0  0  0  0
  151.4019  146.6955  159.6011 H   0  0  0  0  0  0  0  0  0  0  0  0
  149.6081  143.4370  157.2240 H   0  0  0  0  0  0  0  0  0  0  0  0
  1  2  1  0  0  0  0
  1 18  1  0  0  0  0
  1 19  1  0  0  0  0
  1 20  1  0  0  0  0
  2 16  1  0  0  0  0
  2  3  1  0  0  0  0
  2 21  1  0  0  0  0
  3  4  1  0  0  0  0
  3 22  1  0  0  0  0
  3 23  1  0  0  0  0
  4  5  1  0  0  0  0
  4 24  1  0  0  0  0
  4 25  1  0  0  0  0
  5  6  1  0  0  0  0
  5 15  1  0  0  0  0
  5 26  1  0  0  0  0
  6  7  1  0  0  0  0
  6 27  1  0  0  0  0
  6 43  1  0  0  0  0
  7  8  1  0  0  0  0
  7 28  1  0  0  0  0
  7 29  1  0  0  0  0
  8  9  1  0  0  0  0
  8 30  1  0  0  0  0
  8 31  1  0  0  0  0
  9 13  1  0  0  0  0
  9 10  2  0  0  0  0
 10 11  1  0  0  0  0
 10 32  1  0  0  0  0
 11 12  2  0  0  0  0
 11 33  1  0  0  0  0
 12 13  1  0  0  0  0
 13 14  1  0  0  0  0
 14 34  1  0  0  0  0
 14 35  1  0  0  0  0
 14 36  1  0  0  0  0
 15 16  1  0  0  0  0
 15 37  1  0  0  0  0
 15 38  1  0  0  0  0
 16 17  1  0  0  0  0
 16 39  1  0  0  0  0
 17 40  1  0  0  0  0
 17 41  1  0  0  0  0
 17 42  1  0  0  0  0
M  CHG  1   6   1
M  END
> <s_m_source_file>
AV-unprocessed.smi

> <i_m_source_file_index>
3183

> <i_lp_mmshare_version>
43012

> <i_f3d_flags>
0

> <s_epik_input>
W0NIM11bQ0BASF0xW0NIMl1bQ0gyXVtDQEhdKFtDSDJdW0NASF0xW0NIM10pW05IXVtDSDJdW0NIMl1jMltjSF1bY0hdbm4yW0NIM10=

> <s_epik_cmdline>
J2VwaWtfcHl0aG9uJywgJy1waCcsICc3LjAnLCAnLXRuJywgJzgnLCAnLW1hJywgJzIwMCcsICctbWV0YWxfYmluZGluZycsICctaW1hZScsICc8aW5maWxlLm1hZT4nLCAnLW9tYWUnLCAnPG91dGZpbGUubWFlPic=

> <r_lp_tautomer_probability>
1

> <r_epik_Ionization_Penalty>
0.000327718

> <r_epik_Ionization_Penalty_Charging>
0.000294043

> <r_epik_Ionization_Penalty_Neutral>
3.36755e-05

> <r_epik_State_Penalty>
-0

> <r_epik_Charging_Adjusted_Penalty>
0.000294043

> <i_epik_Tot_Q>
1

> <i_epik_Tot_abs_Q>
1

> <r_epik_Metal_State_Penalty>
-0

> <b_epik_Metal_Only>
0

> <s_lp_Force_Field>
OPLS_2005

> <r_lp_Energy>
17.888

> <b_lp_Chiralities_Consistent>
1

> <s_lp_Variant>
AV-unprocessed.smi:3183-6

> <Gold.Version>
5.8.1

> <Gold.Id.Protein>
6NUR|6NUR_protein|mol2

> <Gold.PLP.Fitness>
50.7360

> <Gold.PLP.PLP>
-42.3974

> <Gold.PLP.part.hbond>
-1.0000

> <Gold.PLP.part.metal>
0.0000

> <Gold.PLP.part.buried>
-4.3334

> <Gold.PLP.part.nonpolar>
-37.5147

> <Gold.PLP.part.repulsive>
0.2180

> <Gold.PLP.ligand.clash>
0.0000

> <Gold.PLP.ligand.torsion>
0.3361

> <Gold.PLP.Chemscore.Hbond>
2.0000

> <Gold.PLP.Chemscore.CHOScore>
1.0000

> <Gold.PLP.Chemscore.Metal>
0.0000

> <Gold.Chemscore.Hbonds>
donor molecule, donor type, donor heavy atom, donor atom, acceptor molecule, acceptor atom, score
      L1  H     6    43       P1  8028  1.46
      L1  C    11    33       P1  7948  1.00

> <Gold.PLP.Chemscore.Internal.Correction>
0.0107

> <Gold.Rescore>
     Score         DG    S(hbond)    S(metal)    S(lipo)     H(rot)  DE(clash)    DE(int)     intcor
     19.74     -20.24       0.91        0.00     130.25       1.38       0.34       0.16       ----

> <Gold.Chemscore.Fitness>
19.7423

> <Gold.Chemscore.DG>
-20.2354

> <Gold.Chemscore.ZeroCoef>
-5.4800

> <Gold.Chemscore.Hbond>
0.9105

> <Gold.Chemscore.Metal>
0.0000

> <Gold.Chemscore.Lipo>
130.2485

> <Gold.Chemscore.Internal_Hbond>
0.0000

> <Gold.Chemscore.DEClash>
0.3371

> <Gold.Chemscore.DEInternal>
0.1561

> <Gold.Chemscore.Rot>
1.3768

> <Gold.Chemscore.Internal.Correction>
   9.000000E+99

> <Gold.Chemscore.Hbonds>
donor molecule, donor type, donor heavy atom, donor atom, acceptor molecule, acceptor atom, score
      L1  H     6    43       P1  8028  0.66

> <Gold.Chemscore.Hbond.Weighted>
-3.0411

> <Gold.Chemscore.Metal.Weighted>
-0.0000

> <Gold.Chemscore.Lipo.Weighted>
-15.2391

> <Gold.Chemscore.Internal_Hbond.Weighted>
0.0000

> <Gold.Chemscore.DEClash.Weighted>
0.3371

> <Gold.Chemscore.DEInternal.Weighted>
0.1561

> <Gold.Chemscore.Rot.Weighted>
3.5247

> <Gold.Chemscore.Internal.Correction.Weighted>
   9.000000E+99

> <Gold.Protein.RotatedTorsions>
[ 6907 6896 6895 6894 ] final  -97.00 input  -60.11 | X-H torsion
[ 7974 7965 7964 7962 ] final  101.25 input  175.53 | X-H torsion
[ 8008 7997 7996 7995 ] final    5.61 input   59.86 | X-H torsion
[ 10167 10162 10161 10158 ] final  -79.16 input  -65.29 | X-H torsion
[ 10718 10713 10712 10709 ] final   13.61 input   66.30 | X-H torsion
[ 10763 10752 10751 10750 ] final  104.24 input  -60.55 | X-H torsion
[ 11005 11000 10999 10996 ] final -146.20 input  -57.11 | X-H torsion

> <Gold.Protein.ActiveResidues>
 VAL166  LYS551  ARG553  GLY616  TRP617  ASP618  TYR619  PRO620  LYS621  CYS622 
 ASP623  PHE694  ASN695  SER759  ASP760  ASP761  ALA762  ILE779  LEU786  VAL792 
 PHE793  MET794  SER795  GLU796  ALA797  LYS798  CYS799  TRP800  GLU811  SER814 

> <Gold.Protein.RotatedAtoms>
  150.7004  134.1416  159.4106 H   0  0  0  0  0  0  0  0  0  0  0  0  # atno 6907 bound_to 6896
  151.9401  135.0215  160.0544 H   0  0  0  0  0  0  0  0  0  0  0  0  # atno 6908 bound_to 6896
  152.2101  133.4870  159.5142 H   0  0  0  0  0  0  0  0  0  0  0  0  # atno 6909 bound_to 6896
  145.3748  139.2391  143.3435 H   0  0  0  0  0  0  0  0  0  0  0  0  # atno 7974 bound_to 7965
  154.7306  140.2730  155.6459 H   0  0  0  0  0  0  0  0  0  0  0  0  # atno 8008 bound_to 7997
  156.2848  140.2716  156.1930 H   0  0  0  0  0  0  0  0  0  0  0  0  # atno 8009 bound_to 7997
  155.0387  140.0371  157.2491 H   0  0  0  0  0  0  0  0  0  0  0  0  # atno 8010 bound_to 7997
  140.4618  143.2451  151.8337 H   0  0  0  0  0  0  0  0  0  0  0  0  # atno 10167 bound_to 10162
  157.0271  130.6178  149.5730 H   0  0  0  0  0  0  0  0  0  0  0  0  # atno 10718 bound_to 10713
  153.3633  135.3950  155.1734 H   0  0  0  0  0  0  0  0  0  0  0  0  # atno 10763 bound_to 10752
  154.8682  135.3684  154.5072 H   0  0  0  0  0  0  0  0  0  0  0  0  # atno 10764 bound_to 10752
  153.5533  135.7082  153.5641 H   0  0  0  0  0  0  0  0  0  0  0  0  # atno 10765 bound_to 10752
  140.7844  134.3041  157.5035 H   0  0  0  0  0  0  0  0  0  0  0  0  # atno 11005 bound_to 11000
  146.2869  140.4406  142.8754 LP  0  0  0  0  0  0  0  0  0  0  0  0  # atno 17320 bound_to 7965
  144.8550  140.7057  143.6144 LP  0  0  0  0  0  0  0  0  0  0  0  0  # atno 17321 bound_to 7965
  139.4807  144.4998  151.9075 LP  0  0  0  0  0  0  0  0  0  0  0  0  # atno 17342 bound_to 10162
  140.4084  144.2402  150.5890 LP  0  0  0  0  0  0  0  0  0  0  0  0  # atno 17343 bound_to 10162
  156.0082  130.5171  150.7901 LP  0  0  0  0  0  0  0  0  0  0  0  0  # atno 17370 bound_to 10713
  157.5205  131.0931  151.0084 LP  0  0  0  0  0  0  0  0  0  0  0  0  # atno 17371 bound_to 10713
  139.8738  134.9337  156.3589 LP  0  0  0  0  0  0  0  0  0  0  0  0  # atno 17394 bound_to 11000
  140.9451  133.7488  156.0197 LP  0  0  0  0  0  0  0  0  0  0  0  0  # atno 17395 bound_to 11000

$$$$
