AV-unprocessed.smi:652|AV-procd|sdf|3195|dock1
  -GOLD-   22720 0123D 1   1.00000     0.00000
 Structure written by MMmdl.
 48 49  0  0  0  0  0  0  0  0  2 V2000
  145.0333  142.4339  155.7382 C   0  0  0  0  0  0  0  0  0  0  0  0
  146.2186  142.4682  154.7604 C   0  0  0  0  0  0  0  0  0  0  0  0
  146.0373  143.5533  153.6909 C   0  0  0  0  0  0  0  0  0  0  0  0
  146.3869  141.1701  154.1124 N   0  0  0  0  0  0  0  0  0  0  0  0
  147.4472  140.3598  154.2583 C   0  0  0  0  0  0  0  0  0  0  0  0
  148.4110  140.6313  154.9751 O   0  0  0  0  0  0  0  0  0  0  0  0
  147.4096  139.0483  153.4669 C   0  0  0  0  0  0  0  0  0  0  0  0
  147.4996  137.7985  154.3674 C   0  0  0  0  0  0  0  0  0  0  0  0
  148.8130  137.1137  154.2672 N   0  3  2  0  0  0  0  0  0  0  0  0
  148.9244  135.9771  155.2122 C   0  0  0  0  0  0  0  0  0  0  0  0
  150.2800  135.2713  155.0506 C   0  0  0  0  0  0  0  0  0  0  0  0
  151.3283  136.2129  155.2389 O   0  0  0  0  0  0  0  0  0  0  0  0
  151.2984  137.2549  154.2686 C   0  0  2  0  0  0  0  0  0  0  0  0
  152.5137  138.1633  154.5017 C   0  0  0  0  0  0  0  0  0  0  0  0
  153.0307  138.0271  155.8547 N   0  0  0  0  0  0  0  0  0  0  0  0
  152.5292  138.8256  156.8900 C   0  0  0  0  0  0  0  0  0  0  0  0
  151.1900  139.2774  156.9326 C   0  0  0  0  0  0  0  0  0  0  0  0
  150.8061  140.0698  158.0285 C   0  0  0  0  0  0  0  0  0  0  0  0
  151.7862  140.3515  158.9973 C   0  0  0  0  0  0  0  0  0  0  0  0
  153.0544  139.8931  158.9038 N   0  0  0  0  0  0  0  0  0  0  0  0
  153.4190  139.1390  157.8605 N   0  0  0  0  0  0  0  0  0  0  0  0
  149.9730  138.0273  154.4190 C   0  0  0  0  0  0  0  0  0  0  0  0
  144.9058  143.3982  156.2305 H   0  0  0  0  0  0  0  0  0  0  0  0
  145.1827  141.6868  156.5184 H   0  0  0  0  0  0  0  0  0  0  0  0
  144.1009  142.1979  155.2245 H   0  0  0  0  0  0  0  0  0  0  0  0
  147.1247  142.7046  155.3212 H   0  0  0  0  0  0  0  0  0  0  0  0
  145.9477  144.5400  154.1463 H   0  0  0  0  0  0  0  0  0  0  0  0
  145.1402  143.3795  153.0956 H   0  0  0  0  0  0  0  0  0  0  0  0
  146.8893  143.5821  153.0107 H   0  0  0  0  0  0  0  0  0  0  0  0
  145.6416  140.8708  153.5005 H   0  0  0  0  0  0  0  0  0  0  0  0
  146.4837  139.0153  152.8903 H   0  0  0  0  0  0  0  0  0  0  0  0
  148.2295  139.0679  152.7489 H   0  0  0  0  0  0  0  0  0  0  0  0
  147.2978  138.0550  155.4089 H   0  0  0  0  0  0  0  0  0  0  0  0
  146.7215  137.0953  154.0645 H   0  0  0  0  0  0  0  0  0  0  0  0
  148.8133  136.3398  156.2354 H   0  0  0  0  0  0  0  0  0  0  0  0
  148.1178  135.2647  155.0348 H   0  0  0  0  0  0  0  0  0  0  0  0
  150.3811  134.4776  155.7908 H   0  0  0  0  0  0  0  0  0  0  0  0
  150.3636  134.8039  154.0680 H   0  0  0  0  0  0  0  0  0  0  0  0
  151.3576  136.8279  153.2653 H   0  0  0  0  0  0  0  0  0  0  0  0
  153.3067  137.8941  153.8030 H   0  0  0  0  0  0  0  0  0  0  0  0
  152.2485  139.2036  154.3076 H   0  0  0  0  0  0  0  0  0  0  0  0
  153.5327  137.1846  156.0970 H   0  0  0  0  0  0  0  0  0  0  0  0
  150.4728  139.0364  156.1626 H   0  0  0  0  0  0  0  0  0  0  0  0
  149.7990  140.4475  158.1234 H   0  0  0  0  0  0  0  0  0  0  0  0
  151.5507  140.9545  159.8615 H   0  0  0  0  0  0  0  0  0  0  0  0
  149.9329  138.8147  153.6669 H   0  0  0  0  0  0  0  0  0  0  0  0
  149.9290  138.5139  155.3949 H   0  0  0  0  0  0  0  0  0  0  0  0
  148.8672  136.7176  153.3394 H   0  0  0  0  0  0  0  0  0  0  0  0
  1  2  1  0  0  0  0
  1 23  1  0  0  0  0
  1 24  1  0  0  0  0
  1 25  1  0  0  0  0
  2  3  1  0  0  0  0
  2  4  1  0  0  0  0
  2 26  1  0  0  0  0
  3 27  1  0  0  0  0
  3 28  1  0  0  0  0
  3 29  1  0  0  0  0
  4  5  1  0  0  0  0
  4 30  1  0  0  0  0
  5  6  2  0  0  0  0
  5  7  1  0  0  0  0
  7  8  1  0  0  0  0
  7 31  1  0  0  0  0
  7 32  1  0  0  0  0
  8  9  1  0  0  0  0
  8 33  1  0  0  0  0
  8 34  1  0  0  0  0
  9 22  1  0  0  0  0
  9 10  1  0  0  0  0
  9 48  1  0  0  0  0
 10 11  1  0  0  0  0
 10 35  1  0  0  0  0
 10 36  1  0  0  0  0
 11 12  1  0  0  0  0
 11 37  1  0  0  0  0
 11 38  1  0  0  0  0
 12 13  1  0  0  0  0
 13 14  1  0  0  0  0
 13 22  1  0  0  0  0
 13 39  1  0  0  0  0
 14 15  1  0  0  0  0
 14 40  1  0  0  0  0
 14 41  1  0  0  0  0
 15 16  1  0  0  0  0
 15 42  1  0  0  0  0
 16 21  1  0  0  0  0
 16 17  2  0  0  0  0
 17 18  1  0  0  0  0
 17 43  1  0  0  0  0
 18 19  2  0  0  0  0
 18 44  1  0  0  0  0
 19 20  1  0  0  0  0
 19 45  1  0  0  0  0
 20 21  2  0  0  0  0
 22 46  1  0  0  0  0
 22 47  1  0  0  0  0
M  CHG  1   9   1
M  END
> <s_m_source_file>
AV-unprocessed.smi

> <i_m_source_file_index>
652

> <i_lp_mmshare_version>
43012

> <i_f3d_flags>
0

> <s_epik_input>
W0NIM11bQ0hdKFtDSDNdKVtOSF1DKD1PKVtDSDJdW0NIMl1OMVtDSDJdW0NIMl1PW0NASF0oW0NIMl0xKVtDSDJdW05IXWMyW2NIXVtjSF1bY0hdbm4y

> <s_epik_cmdline>
J2VwaWtfcHl0aG9uJywgJy1waCcsICc3LjAnLCAnLXRuJywgJzgnLCAnLW1hJywgJzIwMCcsICctbWV0YWxfYmluZGluZycsICctaW1hZScsICc8aW5maWxlLm1hZT4nLCAnLW9tYWUnLCAnPG91dGZpbGUubWFlPic=

> <r_lp_tautomer_probability>
0.999978

> <r_epik_Ionization_Penalty>
0.433079

> <r_epik_Ionization_Penalty_Charging>
0.413784

> <r_epik_Ionization_Penalty_Neutral>
0.0192945

> <r_epik_State_Penalty>
0.425138

> <r_epik_Charging_Adjusted_Penalty>
0.838922

> <i_epik_Tot_Q>
1

> <i_epik_Tot_abs_Q>
1

> <r_epik_Metal_State_Penalty>
0.422073

> <b_epik_Metal_Only>
0

> <s_lp_Force_Field>
OPLS_2005

> <r_lp_Energy>
22.402

> <b_lp_Chiralities_Consistent>
1

> <s_lp_Variant>
AV-unprocessed.smi:652-4

> <Gold.Version>
5.8.1

> <Gold.Id.Protein>
6NUR|6NUR_protein|mol2

> <Gold.PLP.Fitness>
45.3387

> <Gold.PLP.PLP>
-32.6090

> <Gold.PLP.part.hbond>
-4.0000

> <Gold.PLP.part.metal>
0.0000

> <Gold.PLP.part.buried>
-5.1398

> <Gold.PLP.part.nonpolar>
-24.8826

> <Gold.PLP.part.repulsive>
0.4127

> <Gold.PLP.ligand.clash>
0.0000

> <Gold.PLP.ligand.torsion>
1.3160

> <Gold.PLP.Chemscore.Hbond>
4.9913

> <Gold.PLP.Chemscore.CHOScore>
0.0000

> <Gold.PLP.Chemscore.Metal>
0.0000

> <Gold.Chemscore.Hbonds>
donor molecule, donor type, donor heavy atom, donor atom, acceptor molecule, acceptor atom, score
      L1  H     4    30       P1 10175  0.49
      L1  H     9    48       P1  7948  2.00
      P1  H  7997  8008       L1    21  0.85
      P1  H 10752 10765       L1    12  0.95

> <Gold.PLP.Chemscore.Internal.Correction>
0.3879

> <Gold.Rescore>
     Score         DG    S(hbond)    S(metal)    S(lipo)     H(rot)  DE(clash)    DE(int)     intcor
     14.40     -16.13       2.73        0.00      62.59       2.26       0.06       1.67       ----

> <Gold.Chemscore.Fitness>
14.3996

> <Gold.Chemscore.DG>
-16.1344

> <Gold.Chemscore.ZeroCoef>
-5.4800

> <Gold.Chemscore.Hbond>
2.7292

> <Gold.Chemscore.Metal>
0.0000

> <Gold.Chemscore.Lipo>
62.5906

> <Gold.Chemscore.Internal_Hbond>
0.0000

> <Gold.Chemscore.DEClash>
0.0619

> <Gold.Chemscore.DEInternal>
1.6729

> <Gold.Chemscore.Rot>
2.2594

> <Gold.Chemscore.Internal.Correction>
   9.000000E+99

> <Gold.Chemscore.Hbonds>
donor molecule, donor type, donor heavy atom, donor atom, acceptor molecule, acceptor atom, score
      L1  H     4    30       P1 10175  0.37
      L1  H     9    48       P1  7948  0.94
      P1  H  7997  8008       L1    21  0.10
      P1  H 10752 10765       L1    12  0.18

> <Gold.Chemscore.Hbond.Weighted>
-9.1154

> <Gold.Chemscore.Metal.Weighted>
-0.0000

> <Gold.Chemscore.Lipo.Weighted>
-7.3231

> <Gold.Chemscore.Internal_Hbond.Weighted>
0.0000

> <Gold.Chemscore.DEClash.Weighted>
0.0619

> <Gold.Chemscore.DEInternal.Weighted>
1.6729

> <Gold.Chemscore.Rot.Weighted>
5.7841

> <Gold.Chemscore.Internal.Correction.Weighted>
   9.000000E+99

> <Gold.Protein.RotatedTorsions>
[ 6907 6896 6895 6894 ] final   -4.54 input  -60.11 | X-H torsion
[ 7974 7965 7964 7962 ] final   63.65 input  175.53 | X-H torsion
[ 8008 7997 7996 7995 ] final  -75.12 input   59.86 | X-H torsion
[ 10167 10162 10161 10158 ] final  -44.98 input  -65.29 | X-H torsion
[ 10718 10713 10712 10709 ] final  -43.94 input   66.30 | X-H torsion
[ 10763 10752 10751 10750 ] final -162.20 input  -60.55 | X-H torsion
[ 11005 11000 10999 10996 ] final  -62.59 input  -57.11 | X-H torsion

> <Gold.Protein.ActiveResidues>
 VAL166  LYS551  ARG553  GLY616  TRP617  ASP618  TYR619  PRO620  LYS621  CYS622 
 ASP623  PHE694  ASN695  SER759  ASP760  ASP761  ALA762  ILE779  LEU786  VAL792 
 PHE793  MET794  SER795  GLU796  ALA797  LYS798  CYS799  TRP800  GLU811  SER814 

> <Gold.Protein.RotatedAtoms>
  151.4960  135.1060  159.9815 H   0  0  0  0  0  0  0  0  0  0  0  0  # atno 6907 bound_to 6896
  152.4721  133.8050  159.6983 H   0  0  0  0  0  0  0  0  0  0  0  0  # atno 6908 bound_to 6896
  150.8737  133.7407  159.2979 H   0  0  0  0  0  0  0  0  0  0  0  0  # atno 6909 bound_to 6896
  145.8594  139.3305  143.0828 H   0  0  0  0  0  0  0  0  0  0  0  0  # atno 7974 bound_to 7965
  154.5389  140.0749  156.8476 H   0  0  0  0  0  0  0  0  0  0  0  0  # atno 8008 bound_to 7997
  155.3221  140.3396  155.4223 H   0  0  0  0  0  0  0  0  0  0  0  0  # atno 8009 bound_to 7997
  156.1855  140.1667  156.8179 H   0  0  0  0  0  0  0  0  0  0  0  0  # atno 8010 bound_to 7997
  140.6876  143.2903  151.3573 H   0  0  0  0  0  0  0  0  0  0  0  0  # atno 10167 bound_to 10162
  156.2437  130.4182  149.8730 H   0  0  0  0  0  0  0  0  0  0  0  0  # atno 10718 bound_to 10713
  154.7235  135.3031  154.9009 H   0  0  0  0  0  0  0  0  0  0  0  0  # atno 10763 bound_to 10752
  153.9873  135.6723  153.4756 H   0  0  0  0  0  0  0  0  0  0  0  0  # atno 10764 bound_to 10752
  153.0854  135.4986  154.8505 H   0  0  0  0  0  0  0  0  0  0  0  0  # atno 10765 bound_to 10752
  141.1365  133.6642  156.5551 H   0  0  0  0  0  0  0  0  0  0  0  0  # atno 11005 bound_to 11000
  145.9266  140.9078  143.0378 LP  0  0  0  0  0  0  0  0  0  0  0  0  # atno 17320 bound_to 7965
  144.6727  140.1361  143.7440 LP  0  0  0  0  0  0  0  0  0  0  0  0  # atno 17321 bound_to 7965
  139.6248  144.0835  152.2424 LP  0  0  0  0  0  0  0  0  0  0  0  0  # atno 17342 bound_to 10162
  140.0291  144.6094  150.7502 LP  0  0  0  0  0  0  0  0  0  0  0  0  # atno 17343 bound_to 10162
  156.6302  130.8663  151.3494 LP  0  0  0  0  0  0  0  0  0  0  0  0  # atno 17370 bound_to 10713
  157.7186  130.9529  150.1350 LP  0  0  0  0  0  0  0  0  0  0  0  0  # atno 17371 bound_to 10713
  140.4032  134.7338  157.4792 LP  0  0  0  0  0  0  0  0  0  0  0  0  # atno 17394 bound_to 11000
  140.0481  134.6171  155.8896 LP  0  0  0  0  0  0  0  0  0  0  0  0  # atno 17395 bound_to 11000

$$$$
