AV-unprocessed.smi:2818|AV-procd|sdf|10848|dock1
  -GOLD-   2272015293D 1   1.00000     0.00000
 Structure written by MMmdl.
 25 26  0  0  0  0  0  0  0  0  2 V2000
  152.2442  136.7735  155.9271 O   0  0  0  0  0  0  0  0  0  0  0  0
  152.6001  137.9368  156.2202 C   0  0  0  0  0  0  0  0  0  0  0  0
  153.6539  138.1758  156.8513 O   0  5  0  0  0  0  0  0  0  0  0  0
  151.7301  139.0885  155.7984 C   0  0  0  0  0  0  0  0  0  0  0  0
  150.8201  138.9588  154.7253 C   0  0  0  0  0  0  0  0  0  0  0  0
  150.0299  140.0685  154.3711 C   0  0  0  0  0  0  0  0  0  0  0  0
  150.0939  141.2580  155.0043 N   0  0  0  0  0  0  0  0  0  0  0  0
  150.9666  141.3883  156.0340 C   0  0  0  0  0  0  0  0  0  0  0  0
  151.0484  142.5978  156.6957 O   0  0  0  0  0  0  0  0  0  0  0  0
  150.7450  142.6613  158.0905 C   0  0  2  0  0  0  0  0  0  0  0  0
  150.6482  144.1059  158.5641 C   0  0  0  0  0  0  0  0  0  0  0  0
  152.0913  144.4318  158.9174 C   0  0  0  0  0  0  0  0  0  0  0  0
  152.5422  143.2392  159.5365 O   0  0  0  0  0  0  0  0  0  0  0  0
  151.9599  142.1266  158.8641 C   0  0  0  0  0  0  0  0  0  0  0  0
  151.7980  140.3344  156.4625 C   0  0  0  0  0  0  0  0  0  0  0  0
  150.7233  138.0316  154.1795 H   0  0  0  0  0  0  0  0  0  0  0  0
  149.3257  139.9982  153.5554 H   0  0  0  0  0  0  0  0  0  0  0  0
  149.8543  142.0806  158.3361 H   0  0  0  0  0  0  0  0  0  0  0  0
  150.2282  144.7884  157.8248 H   0  0  0  0  0  0  0  0  0  0  0  0
  150.0303  144.1603  159.4613 H   0  0  0  0  0  0  0  0  0  0  0  0
  152.6796  144.6246  158.0188 H   0  0  0  0  0  0  0  0  0  0  0  0
  152.1809  145.2906  159.5829 H   0  0  0  0  0  0  0  0  0  0  0  0
  151.6687  141.3764  159.5997 H   0  0  0  0  0  0  0  0  0  0  0  0
  152.6914  141.6695  158.1965 H   0  0  0  0  0  0  0  0  0  0  0  0
  152.4763  140.4892  157.2890 H   0  0  0  0  0  0  0  0  0  0  0  0
  1  2  2  0  0  0  0
  2  3  1  0  0  0  0
  2  4  1  0  0  0  0
  4 15  1  0  0  0  0
  4  5  2  0  0  0  0
  5  6  1  0  0  0  0
  5 16  1  0  0  0  0
  6  7  2  0  0  0  0
  6 17  1  0  0  0  0
  7  8  1  0  0  0  0
  8  9  1  0  0  0  0
  8 15  2  0  0  0  0
  9 10  1  0  0  0  0
 10 14  1  0  0  0  0
 10 11  1  0  0  0  0
 10 18  1  0  0  0  0
 11 12  1  0  0  0  0
 11 19  1  0  0  0  0
 11 20  1  0  0  0  0
 12 13  1  0  0  0  0
 12 21  1  0  0  0  0
 12 22  1  0  0  0  0
 13 14  1  0  0  0  0
 14 23  1  0  0  0  0
 14 24  1  0  0  0  0
 15 25  1  0  0  0  0
M  CHG  1   3  -1
M  END
> <s_m_source_file>
AV-unprocessed.smi

> <i_m_source_file_index>
2818

> <i_lp_mmshare_version>
43012

> <i_f3d_flags>
0

> <s_epik_input>
Tz1DKFtPSF0pYzFbY0hdW2NIXW5jKFtjSF0xKU9bQ0BASF0yW0NIMl1bQ0gyXU9bQ0gyXTI=

> <s_epik_cmdline>
J2VwaWtfcHl0aG9uJywgJy1waCcsICc3LjAnLCAnLXRuJywgJzgnLCAnLW1hJywgJzIwMCcsICctbWV0YWxfYmluZGluZycsICctaW1hZScsICc8aW5maWxlLm1hZT4nLCAnLW9tYWUnLCAnPG91dGZpbGUubWFlPic=

> <r_lp_tautomer_probability>
1

> <r_epik_Ionization_Penalty>
0.000147497

> <r_epik_Ionization_Penalty_Charging>
0.00010957

> <r_epik_Ionization_Penalty_Neutral>
3.79274e-05

> <r_epik_State_Penalty>
-0

> <r_epik_Charging_Adjusted_Penalty>
0.00010957

> <i_epik_Tot_Q>
-1

> <i_epik_Tot_abs_Q>
1

> <r_epik_Metal_State_Penalty>
-0

> <b_epik_Metal_Only>
0

> <s_lp_Force_Field>
OPLS_2005

> <r_lp_Energy>
14.7061

> <b_lp_Chiralities_Consistent>
1

> <s_lp_Variant>
AV-unprocessed.smi:2818-1

> <Gold.Version>
5.8.1

> <Gold.Id.Protein>
6NUR|6NUR_protein|mol2

> <Gold.PLP.Fitness>
42.0940

> <Gold.PLP.PLP>
-29.9474

> <Gold.PLP.part.hbond>
-2.9643

> <Gold.PLP.part.metal>
0.0000

> <Gold.PLP.part.buried>
-2.9048

> <Gold.PLP.part.nonpolar>
-24.4371

> <Gold.PLP.part.repulsive>
0.2715

> <Gold.PLP.ligand.clash>
0.0000

> <Gold.PLP.ligand.torsion>
0.3213

> <Gold.PLP.Chemscore.Hbond>
3.4080

> <Gold.PLP.Chemscore.CHOScore>
0.8451

> <Gold.PLP.Chemscore.Metal>
0.0000

> <Gold.Chemscore.Hbonds>
donor molecule, donor type, donor heavy atom, donor atom, acceptor molecule, acceptor atom, score
      P1  H  7997  8009       L1     3  1.35
      P1  H 10752 10765       L1     1  2.00
      L1  C     6    17       P1  7957  1.00

> <Gold.PLP.Chemscore.Internal.Correction>
0.0300

> <Gold.Rescore>
     Score         DG    S(hbond)    S(metal)    S(lipo)     H(rot)  DE(clash)    DE(int)     intcor
     15.68     -16.08       1.67        0.00      71.05       1.28       0.01       0.40       ----

> <Gold.Chemscore.Fitness>
15.6769

> <Gold.Chemscore.DG>
-16.0812

> <Gold.Chemscore.ZeroCoef>
-5.4800

> <Gold.Chemscore.Hbond>
1.6653

> <Gold.Chemscore.Metal>
0.0000

> <Gold.Chemscore.Lipo>
71.0517

> <Gold.Chemscore.Internal_Hbond>
0.0000

> <Gold.Chemscore.DEClash>
0.0060

> <Gold.Chemscore.DEInternal>
0.3983

> <Gold.Chemscore.Rot>
1.2788

> <Gold.Chemscore.Internal.Correction>
   9.000000E+99

> <Gold.Chemscore.Hbonds>
donor molecule, donor type, donor heavy atom, donor atom, acceptor molecule, acceptor atom, score
      P1  H  7997  8009       L1     3  0.54
      P1  H 10752 10765       L1     1  0.95

> <Gold.Chemscore.Hbond.Weighted>
-5.5620

> <Gold.Chemscore.Metal.Weighted>
-0.0000

> <Gold.Chemscore.Lipo.Weighted>
-8.3131

> <Gold.Chemscore.Internal_Hbond.Weighted>
0.0000

> <Gold.Chemscore.DEClash.Weighted>
0.0060

> <Gold.Chemscore.DEInternal.Weighted>
0.3983

> <Gold.Chemscore.Rot.Weighted>
3.2738

> <Gold.Chemscore.Internal.Correction.Weighted>
   9.000000E+99

> <Gold.Protein.RotatedTorsions>
[ 6907 6896 6895 6894 ] final  161.30 input  -60.11 | X-H torsion
[ 7974 7965 7964 7962 ] final  -42.84 input  175.53 | X-H torsion
[ 8008 7997 7996 7995 ] final -172.07 input   59.86 | X-H torsion
[ 10167 10162 10161 10158 ] final  -35.37 input  -65.29 | X-H torsion
[ 10718 10713 10712 10709 ] final  -66.29 input   66.30 | X-H torsion
[ 10763 10752 10751 10750 ] final -161.93 input  -60.55 | X-H torsion
[ 11005 11000 10999 10996 ] final   36.77 input  -57.11 | X-H torsion

> <Gold.Protein.ActiveResidues>
 VAL166  LYS551  ARG553  GLY616  TRP617  ASP618  TYR619  PRO620  LYS621  CYS622 
 ASP623  PHE694  ASN695  SER759  ASP760  ASP761  ALA762  ILE779  LEU786  VAL792 
 PHE793  MET794  SER795  GLU796  ALA797  LYS798  CYS799  TRP800  GLU811  SER814 

> <Gold.Protein.RotatedAtoms>
  151.9577  133.3685  159.4023 H   0  0  0  0  0  0  0  0  0  0  0  0  # atno 6907 bound_to 6896
  150.6969  134.4273  159.5242 H   0  0  0  0  0  0  0  0  0  0  0  0  # atno 6908 bound_to 6896
  152.1957  134.8632  160.0564 H   0  0  0  0  0  0  0  0  0  0  0  0  # atno 6909 bound_to 6896
  146.0077  140.7001  142.9239 H   0  0  0  0  0  0  0  0  0  0  0  0  # atno 7974 bound_to 7965
  155.9398  140.1106  157.1064 H   0  0  0  0  0  0  0  0  0  0  0  0  # atno 8008 bound_to 7997
  154.4087  140.1221  156.4978 H   0  0  0  0  0  0  0  0  0  0  0  0  # atno 8009 bound_to 7997
  155.6975  140.3472  155.4921 H   0  0  0  0  0  0  0  0  0  0  0  0  # atno 8010 bound_to 7997
  140.7166  143.3482  151.2211 H   0  0  0  0  0  0  0  0  0  0  0  0  # atno 10167 bound_to 10162
  156.0621  130.4260  150.1687 H   0  0  0  0  0  0  0  0  0  0  0  0  # atno 10718 bound_to 10713
  154.7260  135.3036  154.8971 H   0  0  0  0  0  0  0  0  0  0  0  0  # atno 10763 bound_to 10752
  153.9828  135.6728  153.4755 H   0  0  0  0  0  0  0  0  0  0  0  0  # atno 10764 bound_to 10752
  153.0875  135.4976  154.8545 H   0  0  0  0  0  0  0  0  0  0  0  0  # atno 10765 bound_to 10752
  140.2292  134.3548  155.7971 H   0  0  0  0  0  0  0  0  0  0  0  0  # atno 11005 bound_to 11000
  144.6941  140.3343  143.7210 LP  0  0  0  0  0  0  0  0  0  0  0  0  # atno 17320 bound_to 7965
  145.7391  139.1759  143.2386 LP  0  0  0  0  0  0  0  0  0  0  0  0  # atno 17321 bound_to 7965
  139.7007  143.9538  152.2904 LP  0  0  0  0  0  0  0  0  0  0  0  0  # atno 17342 bound_to 10162
  139.9230  144.6788  150.8441 LP  0  0  0  0  0  0  0  0  0  0  0  0  # atno 17343 bound_to 10162
  156.9753  130.9847  151.3449 LP  0  0  0  0  0  0  0  0  0  0  0  0  # atno 17370 bound_to 10713
  157.5637  130.8263  149.8299 LP  0  0  0  0  0  0  0  0  0  0  0  0  # atno 17371 bound_to 10713
  141.2219  133.7236  156.8703 LP  0  0  0  0  0  0  0  0  0  0  0  0  # atno 17394 bound_to 11000
  140.1768  134.9061  157.2901 LP  0  0  0  0  0  0  0  0  0  0  0  0  # atno 17395 bound_to 11000

$$$$
