AV-unprocessed.smi:1870|AV-procd|sdf|7594|dock9
  -GOLD-   22720 9303D 1   1.00000     0.00000
 Structure written by MMmdl.
 48 50  0  0  0  0  0  0  0  0  2 V2000
  144.5226  143.6858  153.2542 C   0  0  0  0  0  0  0  0  0  0  0  0
  145.0455  142.6460  154.2084 C   0  0  0  0  0  0  0  0  0  0  0  0
  145.9086  141.8078  153.7359 N   0  0  0  0  0  0  0  0  0  0  0  0
  146.4509  140.8111  154.5237 N   0  0  0  0  0  0  0  0  0  0  0  0
  147.4234  139.9587  153.8266 C   0  0  0  0  0  0  0  0  0  0  0  0
  148.7731  139.8479  154.5715 C   0  0  1  0  0  0  0  0  0  0  0  0
  149.6304  139.0556  153.7739 O   0  0  0  0  0  0  0  0  0  0  0  0
  149.4417  141.2187  154.8227 C   0  0  0  0  0  0  0  0  0  0  0  0
  150.1212  141.3103  156.1412 N   0  3  1  0  0  0  0  0  0  0  0  0
  151.2920  140.4068  156.2330 C   0  0  0  0  0  0  0  0  0  0  0  0
  151.7484  140.2811  157.6919 C   0  0  0  0  0  0  0  0  0  0  0  0
  151.9202  141.6329  158.3595 C   0  0  0  0  0  0  0  0  0  0  0  0
  152.6754  141.7373  159.5458 C   0  0  0  0  0  0  0  0  0  0  0  0
  152.8108  142.9814  160.1907 C   0  0  0  0  0  0  0  0  0  0  0  0
  152.1898  144.1242  159.6524 C   0  0  0  0  0  0  0  0  0  0  0  0
  151.4335  144.0238  158.4688 C   0  0  0  0  0  0  0  0  0  0  0  0
  151.2931  142.7806  157.8170 C   0  0  0  0  0  0  0  0  0  0  0  0
  150.4853  142.7011  156.5261 C   0  0  0  0  0  0  0  0  0  0  0  0
  146.1309  140.5959  155.8317 C   0  0  0  0  0  0  0  0  0  0  0  0
  146.6258  139.6816  156.4920 O   0  0  0  0  0  0  0  0  0  0  0  0
  145.1602  141.5547  156.3639 C   0  0  0  0  0  0  0  0  0  0  0  0
  144.8083  141.3743  157.7354 C   0  0  0  0  0  0  0  0  0  0  0  0
  144.5039  141.2343  158.8434 N   0  0  0  0  0  0  0  0  0  0  0  0
  144.6331  142.5476  155.6048 C   0  0  0  0  0  0  0  0  0  0  0  0
  143.6204  143.5654  156.1116 C   0  0  0  0  0  0  0  0  0  0  0  0
  143.4323  143.6943  153.2479 H   0  0  0  0  0  0  0  0  0  0  0  0
  144.8534  143.5017  152.2308 H   0  0  0  0  0  0  0  0  0  0  0  0
  144.8678  144.6797  153.5397 H   0  0  0  0  0  0  0  0  0  0  0  0
  146.9937  138.9649  153.6857 H   0  0  0  0  0  0  0  0  0  0  0  0
  147.5958  140.3415  152.8183 H   0  0  0  0  0  0  0  0  0  0  0  0
  148.6105  139.3200  155.5098 H   0  0  0  0  0  0  0  0  0  0  0  0
  149.5970  139.3669  152.8824 H   0  0  0  0  0  0  0  0  0  0  0  0
  150.1634  141.3978  154.0242 H   0  0  0  0  0  0  0  0  0  0  0  0
  148.7106  142.0254  154.7574 H   0  0  0  0  0  0  0  0  0  0  0  0
  151.0468  139.4144  155.8524 H   0  0  0  0  0  0  0  0  0  0  0  0
  152.0991  140.7958  155.6097 H   0  0  0  0  0  0  0  0  0  0  0  0
  151.0128  139.7127  158.2623 H   0  0  0  0  0  0  0  0  0  0  0  0
  152.6854  139.7249  157.7415 H   0  0  0  0  0  0  0  0  0  0  0  0
  153.1480  140.8622  159.9678 H   0  0  0  0  0  0  0  0  0  0  0  0
  153.3890  143.0584  161.0999 H   0  0  0  0  0  0  0  0  0  0  0  0
  152.2942  145.0786  160.1477 H   0  0  0  0  0  0  0  0  0  0  0  0
  150.9637  144.9068  158.0603 H   0  0  0  0  0  0  0  0  0  0  0  0
  151.0714  143.1625  155.7299 H   0  0  0  0  0  0  0  0  0  0  0  0
  149.5849  143.3015  156.6520 H   0  0  0  0  0  0  0  0  0  0  0  0
  143.4980  143.5204  157.1934 H   0  0  0  0  0  0  0  0  0  0  0  0
  142.6449  143.3855  155.6589 H   0  0  0  0  0  0  0  0  0  0  0  0
  143.9321  144.5810  155.8657 H   0  0  0  0  0  0  0  0  0  0  0  0
  149.4607  140.9751  156.8277 H   0  0  0  0  0  0  0  0  0  0  0  0
  1  2  1  0  0  0  0
  1 26  1  0  0  0  0
  1 27  1  0  0  0  0
  1 28  1  0  0  0  0
  2 24  1  0  0  0  0
  2  3  2  0  0  0  0
  3  4  1  0  0  0  0
  4  5  1  0  0  0  0
  4 19  1  0  0  0  0
  5  6  1  0  0  0  0
  5 29  1  0  0  0  0
  5 30  1  0  0  0  0
  6  7  1  0  0  0  0
  6  8  1  0  0  0  0
  6 31  1  0  0  0  0
  7 32  1  0  0  0  0
  8  9  1  0  0  0  0
  8 33  1  0  0  0  0
  8 34  1  0  0  0  0
  9 18  1  0  0  0  0
  9 10  1  0  0  0  0
  9 48  1  0  0  0  0
 10 11  1  0  0  0  0
 10 35  1  0  0  0  0
 10 36  1  0  0  0  0
 11 12  1  0  0  0  0
 11 37  1  0  0  0  0
 11 38  1  0  0  0  0
 12 17  2  0  0  0  0
 12 13  1  0  0  0  0
 13 14  2  0  0  0  0
 13 39  1  0  0  0  0
 14 15  1  0  0  0  0
 14 40  1  0  0  0  0
 15 16  2  0  0  0  0
 15 41  1  0  0  0  0
 16 17  1  0  0  0  0
 16 42  1  0  0  0  0
 17 18  1  0  0  0  0
 18 43  1  0  0  0  0
 18 44  1  0  0  0  0
 19 20  2  0  0  0  0
 19 21  1  0  0  0  0
 21 22  1  0  0  0  0
 21 24  2  0  0  0  0
 22 23  3  0  0  0  0
 24 25  1  0  0  0  0
 25 45  1  0  0  0  0
 25 46  1  0  0  0  0
 25 47  1  0  0  0  0
M  CHG  1   9   1
M  END
> <s_m_source_file>
AV-unprocessed.smi

> <i_m_source_file_index>
1870

> <i_lp_mmshare_version>
43012

> <i_f3d_flags>
0

> <s_epik_input>
TiNDYyhjMVtDSDNdKWMoPU8pbihuYzFbQ0gzXSlbQ0gyXVtDQEhdKFtPSF0pW0NIMl1OKFtDSDJdW0NIMl0yKVtDSDJdYyhjMjMpW2NIXVtjSF1bY0hdW2NIXTM=

> <s_epik_cmdline>
J2VwaWtfcHl0aG9uJywgJy1waCcsICc3LjAnLCAnLXRuJywgJzgnLCAnLW1hJywgJzIwMCcsICctbWV0YWxfYmluZGluZycsICctaW1hZScsICc8aW5maWxlLm1hZT4nLCAnLW9tYWUnLCAnPG91dGZpbGUubWFlPic=

> <r_epik_Ionization_Penalty>
0.0122865

> <r_epik_Ionization_Penalty_Charging>
0.0122864

> <r_epik_Ionization_Penalty_Neutral>
1.48087e-07

> <r_epik_State_Penalty>
0.00950248

> <r_epik_Charging_Adjusted_Penalty>
0.0217889

> <i_epik_Tot_Q>
1

> <i_epik_Tot_abs_Q>
1

> <r_epik_Metal_State_Penalty>
0.00950248

> <b_epik_Metal_Only>
0

> <s_lp_Force_Field>
OPLS_2005

> <r_lp_Energy>
36.9803

> <b_lp_Chiralities_Consistent>
1

> <s_lp_Variant>
AV-unprocessed.smi:1870-2

> <Gold.Version>
5.8.1

> <Gold.Id.Protein>
6NUR|6NUR_protein|mol2

> <Gold.PLP.Fitness>
50.7424

> <Gold.PLP.PLP>
-48.9646

> <Gold.PLP.part.hbond>
-1.0000

> <Gold.PLP.part.metal>
0.0000

> <Gold.PLP.part.buried>
-0.8570

> <Gold.PLP.part.nonpolar>
-46.4896

> <Gold.PLP.part.repulsive>
0.3463

> <Gold.PLP.ligand.clash>
0.0000

> <Gold.PLP.ligand.torsion>
0.6409

> <Gold.PLP.Chemscore.Hbond>
1.0000

> <Gold.PLP.Chemscore.CHOScore>
0.0000

> <Gold.PLP.Chemscore.Metal>
0.0000

> <Gold.Chemscore.Hbonds>
donor molecule, donor type, donor heavy atom, donor atom, acceptor molecule, acceptor atom, score
      L1  H     7    32       P1  7957  1.00

> <Gold.PLP.Chemscore.Internal.Correction>
0.0596

> <Gold.Rescore>
     Score         DG    S(hbond)    S(metal)    S(lipo)     H(rot)  DE(clash)    DE(int)     intcor
     15.98     -19.46       0.99        0.00     138.42       2.16       1.46       2.02       ----

> <Gold.Chemscore.Fitness>
15.9756

> <Gold.Chemscore.DG>
-19.4572

> <Gold.Chemscore.ZeroCoef>
-5.4800

> <Gold.Chemscore.Hbond>
0.9937

> <Gold.Chemscore.Metal>
0.0000

> <Gold.Chemscore.Lipo>
138.4194

> <Gold.Chemscore.Internal_Hbond>
0.0000

> <Gold.Chemscore.DEClash>
1.4591

> <Gold.Chemscore.DEInternal>
2.0225

> <Gold.Chemscore.Rot>
2.1628

> <Gold.Chemscore.Internal.Correction>
   9.000000E+99

> <Gold.Chemscore.Hbonds>
donor molecule, donor type, donor heavy atom, donor atom, acceptor molecule, acceptor atom, score
      L1  H     7    32       P1  7957  1.00

> <Gold.Chemscore.Hbond.Weighted>
-3.3189

> <Gold.Chemscore.Metal.Weighted>
-0.0000

> <Gold.Chemscore.Lipo.Weighted>
-16.1951

> <Gold.Chemscore.Internal_Hbond.Weighted>
0.0000

> <Gold.Chemscore.DEClash.Weighted>
1.4591

> <Gold.Chemscore.DEInternal.Weighted>
2.0225

> <Gold.Chemscore.Rot.Weighted>
5.5367

> <Gold.Chemscore.Internal.Correction.Weighted>
   9.000000E+99

> <Gold.Protein.RotatedTorsions>
[ 6907 6896 6895 6894 ] final  -37.22 input  -60.11 | X-H torsion
[ 7974 7965 7964 7962 ] final  -67.72 input  175.53 | X-H torsion
[ 8008 7997 7996 7995 ] final   52.72 input   59.86 | X-H torsion
[ 10167 10162 10161 10158 ] final  168.07 input  -65.29 | X-H torsion
[ 10718 10713 10712 10709 ] final  155.76 input   66.30 | X-H torsion
[ 10763 10752 10751 10750 ] final   -1.39 input  -60.55 | X-H torsion
[ 11005 11000 10999 10996 ] final    3.41 input  -57.11 | X-H torsion

> <Gold.Protein.ActiveResidues>
 VAL166  LYS551  ARG553  GLY616  TRP617  ASP618  TYR619  PRO620  LYS621  CYS622 
 ASP623  PHE694  ASN695  SER759  ASP760  ASP761  ALA762  ILE779  LEU786  VAL792 
 PHE793  MET794  SER795  GLU796  ALA797  LYS798  CYS799  TRP800  GLU811  SER814 

> <Gold.Protein.RotatedAtoms>
  151.0174  134.9443  159.8040 H   0  0  0  0  0  0  0  0  0  0  0  0  # atno 6907 bound_to 6896
  152.5317  134.2948  159.9066 H   0  0  0  0  0  0  0  0  0  0  0  0  # atno 6908 bound_to 6896
  151.2955  133.4104  159.2670 H   0  0  0  0  0  0  0  0  0  0  0  0  # atno 6909 bound_to 6896
  145.7256  140.9020  143.0607 H   0  0  0  0  0  0  0  0  0  0  0  0  # atno 7974 bound_to 7965
  155.4564  140.3460  155.4307 H   0  0  0  0  0  0  0  0  0  0  0  0  # atno 8008 bound_to 7997
  156.1188  140.1481  156.9264 H   0  0  0  0  0  0  0  0  0  0  0  0  # atno 8009 bound_to 7997
  154.4808  140.0870  156.7352 H   0  0  0  0  0  0  0  0  0  0  0  0  # atno 8010 bound_to 7997
  139.4959  144.3853  151.9577 H   0  0  0  0  0  0  0  0  0  0  0  0  # atno 10167 bound_to 10162
  157.2140  131.0704  151.1952 H   0  0  0  0  0  0  0  0  0  0  0  0  # atno 10718 bound_to 10713
  153.3442  135.6982  153.6842 H   0  0  0  0  0  0  0  0  0  0  0  0  # atno 10763 bound_to 10752
  153.5594  135.3538  155.2793 H   0  0  0  0  0  0  0  0  0  0  0  0  # atno 10764 bound_to 10752
  154.8642  135.4246  154.2662 H   0  0  0  0  0  0  0  0  0  0  0  0  # atno 10765 bound_to 10752
  140.5935  133.9902  155.8099 H   0  0  0  0  0  0  0  0  0  0  0  0  # atno 11005 bound_to 11000
  144.6906  139.9261  143.7470 LP  0  0  0  0  0  0  0  0  0  0  0  0  # atno 17320 bound_to 7965
  146.0585  139.3581  143.0595 LP  0  0  0  0  0  0  0  0  0  0  0  0  # atno 17321 bound_to 7965
  140.3290  144.3338  150.5991 LP  0  0  0  0  0  0  0  0  0  0  0  0  # atno 17342 bound_to 10162
  140.5660  143.2186  151.7682 LP  0  0  0  0  0  0  0  0  0  0  0  0  # atno 17343 bound_to 10162
  157.3643  130.7147  149.6522 LP  0  0  0  0  0  0  0  0  0  0  0  0  # atno 17370 bound_to 10713
  155.9688  130.4217  150.4480 LP  0  0  0  0  0  0  0  0  0  0  0  0  # atno 17371 bound_to 10713
  141.0920  133.9903  157.3222 LP  0  0  0  0  0  0  0  0  0  0  0  0  # atno 17394 bound_to 11000
  139.9264  135.0201  156.8248 LP  0  0  0  0  0  0  0  0  0  0  0  0  # atno 17395 bound_to 11000

$$$$
