AV-unprocessed.smi:1736|AV-procd|sdf|6992|dock10
  -GOLD-   22720 8203D 1   1.00000     0.00000
 Structure written by MMmdl.
 44 45  0  0  0  0  0  0  0  0  1 V2000
  152.5702  141.9859  159.3473 C   0  0  0  0  0  0  0  0  0  0  0  0
  152.4267  141.1178  158.1887 N   0  0  0  0  0  0  0  0  0  0  0  0
  152.1256  139.7441  158.5806 C   0  0  0  0  0  0  0  0  0  0  0  0
  151.9864  138.8243  157.3535 C   0  0  0  0  0  0  0  0  0  0  0  0
  150.9320  139.2894  156.4369 N   0  0  0  0  0  0  0  0  0  0  0  0
  150.6495  138.3771  155.2928 C   0  0  0  0  0  0  0  0  0  0  0  0
  149.5557  138.9195  154.3414 C   0  0  0  0  0  0  0  0  0  0  0  0
  151.9225  138.1471  154.4391 C   0  0  0  0  0  0  0  0  0  0  0  0
  150.1788  136.9737  155.7778 C   0  0  0  0  0  0  0  0  0  0  0  0
  149.5348  136.1925  154.7220 N   0  0  0  0  0  0  0  0  0  0  0  0
  148.5318  135.3199  154.8929 C   0  0  0  0  0  0  0  0  0  0  0  0
  148.0337  135.0566  155.9874 O   0  0  0  0  0  0  0  0  0  0  0  0
  148.1474  134.7878  153.7217 N   0  0  0  0  0  0  0  0  0  0  0  0
  147.1194  133.8361  153.5080 C   0  0  0  0  0  0  0  0  0  0  0  0
  147.0351  132.8028  152.5291 C   0  0  0  0  0  0  0  0  0  0  0  0
  145.9078  132.1161  152.6527 N   0  0  0  0  0  0  0  0  0  0  0  0
  145.2749  132.6983  153.6960 N   0  0  0  0  0  0  0  0  0  0  0  0
  145.9763  133.7487  154.2450 C   0  0  0  0  0  0  0  0  0  0  0  0
  151.2385  140.6785  156.0583 C   0  0  0  0  0  0  0  0  0  0  0  0
  151.3761  141.5893  157.2918 C   0  0  0  0  0  0  0  0  0  0  0  0
  144.3751  132.3705  154.0174 H   0  0  0  0  0  0  0  0  0  0  0  0
  153.3708  141.6322  159.9977 H   0  0  0  0  0  0  0  0  0  0  0  0
  151.6491  142.0217  159.9305 H   0  0  0  0  0  0  0  0  0  0  0  0
  152.8175  143.0024  159.0395 H   0  0  0  0  0  0  0  0  0  0  0  0
  152.9181  139.3641  159.2264 H   0  0  0  0  0  0  0  0  0  0  0  0
  151.2052  139.7143  159.1662 H   0  0  0  0  0  0  0  0  0  0  0  0
  152.9450  138.7711  156.8372 H   0  0  0  0  0  0  0  0  0  0  0  0
  151.7679  137.8226  157.7190 H   0  0  0  0  0  0  0  0  0  0  0  0
  149.3852  138.2334  153.5107 H   0  0  0  0  0  0  0  0  0  0  0  0
  149.8285  139.8791  153.9029 H   0  0  0  0  0  0  0  0  0  0  0  0
  148.5974  139.0458  154.8446 H   0  0  0  0  0  0  0  0  0  0  0  0
  151.7802  137.3427  153.7164 H   0  0  0  0  0  0  0  0  0  0  0  0
  152.7799  137.8793  155.0575 H   0  0  0  0  0  0  0  0  0  0  0  0
  152.1976  139.0291  153.8610 H   0  0  0  0  0  0  0  0  0  0  0  0
  151.0176  136.3895  156.1555 H   0  0  0  0  0  0  0  0  0  0  0  0
  149.5139  137.0746  156.6377 H   0  0  0  0  0  0  0  0  0  0  0  0
  149.8694  136.3493  153.7827 H   0  0  0  0  0  0  0  0  0  0  0  0
  148.6392  135.0984  152.8969 H   0  0  0  0  0  0  0  0  0  0  0  0
  147.7300  132.5271  151.7498 H   0  0  0  0  0  0  0  0  0  0  0  0
  145.6107  134.3218  155.0846 H   0  0  0  0  0  0  0  0  0  0  0  0
  152.1607  140.7213  155.4785 H   0  0  0  0  0  0  0  0  0  0  0  0
  150.4514  141.0927  155.4313 H   0  0  0  0  0  0  0  0  0  0  0  0
  150.4231  141.6348  157.8216 H   0  0  0  0  0  0  0  0  0  0  0  0
  151.5996  142.6055  156.9652 H   0  0  0  0  0  0  0  0  0  0  0  0
  1  2  1  0  0  0  0
  1 22  1  0  0  0  0
  1 23  1  0  0  0  0
  1 24  1  0  0  0  0
  2 20  1  0  0  0  0
  2  3  1  0  0  0  0
  3  4  1  0  0  0  0
  3 25  1  0  0  0  0
  3 26  1  0  0  0  0
  4  5  1  0  0  0  0
  4 27  1  0  0  0  0
  4 28  1  0  0  0  0
  5  6  1  0  0  0  0
  5 19  1  0  0  0  0
  6  7  1  0  0  0  0
  6  8  1  0  0  0  0
  6  9  1  0  0  0  0
  7 29  1  0  0  0  0
  7 30  1  0  0  0  0
  7 31  1  0  0  0  0
  8 32  1  0  0  0  0
  8 33  1  0  0  0  0
  8 34  1  0  0  0  0
  9 10  1  0  0  0  0
  9 35  1  0  0  0  0
  9 36  1  0  0  0  0
 10 11  1  0  0  0  0
 10 37  1  0  0  0  0
 11 12  2  0  0  0  0
 11 13  1  0  0  0  0
 13 14  1  0  0  0  0
 13 38  1  0  0  0  0
 14 18  2  0  0  0  0
 14 15  1  0  0  0  0
 15 16  2  0  0  0  0
 15 39  1  0  0  0  0
 16 17  1  0  0  0  0
 17 21  1  0  0  0  0
 17 18  1  0  0  0  0
 18 40  1  0  0  0  0
 19 20  1  0  0  0  0
 19 41  1  0  0  0  0
 19 42  1  0  0  0  0
 20 43  1  0  0  0  0
 20 44  1  0  0  0  0
M  END
> <s_m_source_file>
AV-unprocessed.smi

> <i_m_source_file_index>
1736

> <i_lp_mmshare_version>
43012

> <i_f3d_flags>
0

> <s_epik_input>
W0NIM11OMVtDSDJdW0NIMl1OKFtDSDJdW0NIMl0xKUMoW0NIM10pKFtDSDNdKVtDSDJdW05IXUMoPU8pW05IXWMyW2NIXW5bbkhdW2NIXTI=

> <s_epik_cmdline>
J2VwaWtfcHl0aG9uJywgJy1waCcsICc3LjAnLCAnLXRuJywgJzgnLCAnLW1hJywgJzIwMCcsICctbWV0YWxfYmluZGluZycsICctaW1hZScsICc8aW5maWxlLm1hZT4nLCAnLW9tYWUnLCAnPG91dGZpbGUubWFlPic=

> <r_lp_tautomer_probability>
0.5

> <r_epik_Ionization_Penalty>
3.08539

> <r_epik_Ionization_Penalty_Charging>
0

> <r_epik_Ionization_Penalty_Neutral>
3.08539

> <r_epik_State_Penalty>
2.1584

> <r_epik_Charging_Adjusted_Penalty>
2.1584

> <i_epik_Tot_Q>
0

> <i_epik_Tot_abs_Q>
0

> <r_epik_Metal_State_Penalty>
2.1584

> <b_epik_Metal_Only>
0

> <s_lp_Force_Field>
OPLS_2005

> <r_lp_Energy>
53.1153

> <b_lp_Chiralities_Consistent>
1

> <s_lp_Variant>
AV-unprocessed.smi:1736-3

> <Gold.Version>
5.8.1

> <Gold.Id.Protein>
6NUR|6NUR_protein|mol2

> <Gold.PLP.Fitness>
36.1841

> <Gold.PLP.PLP>
-26.6085

> <Gold.PLP.part.hbond>
-2.8213

> <Gold.PLP.part.metal>
0.0000

> <Gold.PLP.part.buried>
-3.2499

> <Gold.PLP.part.nonpolar>
-20.5706

> <Gold.PLP.part.repulsive>
0.2086

> <Gold.PLP.ligand.clash>
0.0000

> <Gold.PLP.ligand.torsion>
0.6624

> <Gold.PLP.Chemscore.Hbond>
2.6201

> <Gold.PLP.Chemscore.CHOScore>
1.0000

> <Gold.PLP.Chemscore.Metal>
0.0000

> <Gold.Chemscore.Hbonds>
donor molecule, donor type, donor heavy atom, donor atom, acceptor molecule, acceptor atom, score
      L1  H    10    37       P1  7948  0.59
      L1  H    13    38       P1  7948  1.00
      L1  H    17    21       P1 10957  1.00
      L1  C    15    39       P1 10747  0.96

> <Gold.PLP.Chemscore.Internal.Correction>
0.0401

> <Gold.Rescore>
     Score         DG    S(hbond)    S(metal)    S(lipo)     H(rot)  DE(clash)    DE(int)     intcor
     16.13     -17.76       2.62        0.00      64.98       1.59       0.08       1.54       ----

> <Gold.Chemscore.Fitness>
16.1322

> <Gold.Chemscore.DG>
-17.7561

> <Gold.Chemscore.ZeroCoef>
-5.4800

> <Gold.Chemscore.Hbond>
2.6179

> <Gold.Chemscore.Metal>
0.0000

> <Gold.Chemscore.Lipo>
64.9823

> <Gold.Chemscore.Internal_Hbond>
0.0000

> <Gold.Chemscore.DEClash>
0.0834

> <Gold.Chemscore.DEInternal>
1.5405

> <Gold.Chemscore.Rot>
1.5901

> <Gold.Chemscore.Internal.Correction>
   9.000000E+99

> <Gold.Chemscore.Hbonds>
donor molecule, donor type, donor heavy atom, donor atom, acceptor molecule, acceptor atom, score
      L1  H    10    37       P1  7948  0.17
      L1  H    13    38       P1  7948  0.50
      L1  H    17    21       P1 10957  0.39

> <Gold.Chemscore.Hbond.Weighted>
-8.7438

> <Gold.Chemscore.Metal.Weighted>
-0.0000

> <Gold.Chemscore.Lipo.Weighted>
-7.6029

> <Gold.Chemscore.Internal_Hbond.Weighted>
0.0000

> <Gold.Chemscore.DEClash.Weighted>
0.0834

> <Gold.Chemscore.DEInternal.Weighted>
1.5405

> <Gold.Chemscore.Rot.Weighted>
4.0706

> <Gold.Chemscore.Internal.Correction.Weighted>
   9.000000E+99

> <Gold.Protein.RotatedTorsions>
[ 6907 6896 6895 6894 ] final -128.96 input  -60.11 | X-H torsion
[ 7974 7965 7964 7962 ] final  123.67 input  175.53 | X-H torsion
[ 8008 7997 7996 7995 ] final  -31.24 input   59.86 | X-H torsion
[ 10167 10162 10161 10158 ] final   44.61 input  -65.29 | X-H torsion
[ 10718 10713 10712 10709 ] final  173.41 input   66.30 | X-H torsion
[ 10763 10752 10751 10750 ] final   91.45 input  -60.55 | X-H torsion
[ 11005 11000 10999 10996 ] final  -30.96 input  -57.11 | X-H torsion

> <Gold.Protein.ActiveResidues>
 VAL166  LYS551  ARG553  GLY616  TRP617  ASP618  TYR619  PRO620  LYS621  CYS622 
 ASP623  PHE694  ASN695  SER759  ASP760  ASP761  ALA762  ILE779  LEU786  VAL792 
 PHE793  MET794  SER795  GLU796  ALA797  LYS798  CYS799  TRP800  GLU811  SER814 

> <Gold.Protein.RotatedAtoms>
  150.9235  133.6852  159.2826 H   0  0  0  0  0  0  0  0  0  0  0  0  # atno 6907 bound_to 6896
  151.4298  135.1007  159.9648 H   0  0  0  0  0  0  0  0  0  0  0  0  # atno 6908 bound_to 6896
  152.4991  133.8667  159.7333 H   0  0  0  0  0  0  0  0  0  0  0  0  # atno 6909 bound_to 6896
  145.0932  139.3571  143.4850 H   0  0  0  0  0  0  0  0  0  0  0  0  # atno 7974 bound_to 7965
  154.4221  140.1770  156.1535 H   0  0  0  0  0  0  0  0  0  0  0  0  # atno 8008 bound_to 7997
  155.9896  140.3370  155.6716 H   0  0  0  0  0  0  0  0  0  0  0  0  # atno 8009 bound_to 7997
  155.6390  140.0678  157.2615 H   0  0  0  0  0  0  0  0  0  0  0  0  # atno 8010 bound_to 7997
  140.3325  144.2571  150.6166 H   0  0  0  0  0  0  0  0  0  0  0  0  # atno 10167 bound_to 10162
  156.9646  131.0071  151.2919 H   0  0  0  0  0  0  0  0  0  0  0  0  # atno 10718 bound_to 10713
  153.2084  135.4397  155.0350 H   0  0  0  0  0  0  0  0  0  0  0  0  # atno 10763 bound_to 10752
  154.8186  135.3327  154.7106 H   0  0  0  0  0  0  0  0  0  0  0  0  # atno 10764 bound_to 10752
  153.7546  135.6996  153.4994 H   0  0  0  0  0  0  0  0  0  0  0  0  # atno 10765 bound_to 10752
  140.9427  133.7269  156.1100 H   0  0  0  0  0  0  0  0  0  0  0  0  # atno 11005 bound_to 11000
  146.3531  140.0776  142.8619 LP  0  0  0  0  0  0  0  0  0  0  0  0  # atno 17320 bound_to 7965
  145.1041  140.9364  143.4695 LP  0  0  0  0  0  0  0  0  0  0  0  0  # atno 17321 bound_to 7965
  140.5384  143.2228  151.8125 LP  0  0  0  0  0  0  0  0  0  0  0  0  # atno 17342 bound_to 10162
  139.4854  144.4632  151.9516 LP  0  0  0  0  0  0  0  0  0  0  0  0  # atno 17343 bound_to 10162
  157.5634  130.8261  149.8296 LP  0  0  0  0  0  0  0  0  0  0  0  0  # atno 17370 bound_to 10713
  156.0308  130.3765  150.1694 LP  0  0  0  0  0  0  0  0  0  0  0  0  # atno 17371 bound_to 10713
  140.7712  134.3831  157.5507 LP  0  0  0  0  0  0  0  0  0  0  0  0  # atno 17394 bound_to 11000
  139.8825  134.9023  156.2829 LP  0  0  0  0  0  0  0  0  0  0  0  0  # atno 17395 bound_to 11000

$$$$
