AV-unprocessed.smi:3318|AV-procd|sdf|12762|dock5
  -GOLD-   2272019103D 1   1.00000     0.00000
 Structure written by MMmdl.
 45 46  0  0  0  0  0  0  0  0  3 V2000
  145.2564  137.9590  151.1486 C   0  0  0  0  0  0  0  0  0  0  0  0
  146.2270  139.0081  151.7021 C   0  0  0  0  0  0  0  0  0  0  0  0
  146.9377  138.5301  152.9806 C   0  0  0  0  0  0  0  0  0  0  0  0
  147.8909  139.5371  153.5137 N   0  3  2  0  0  0  0  0  0  0  0  0
  148.6640  139.0200  154.6727 C   0  0  0  0  0  0  0  0  0  0  0  0
  149.7370  140.0269  155.1226 C   0  0  0  0  0  0  0  0  0  0  0  0
  149.1185  141.3914  155.4693 C   0  0  1  0  0  0  0  0  0  0  0  0
  150.1827  142.3479  155.8519 N   0  3  0  0  0  0  0  0  0  0  0  0
  150.9019  142.0309  157.1054 C   0  0  0  0  0  0  0  0  0  0  0  0
  151.8818  143.1496  157.4935 C   0  0  0  0  0  0  0  0  0  0  0  0
  152.5595  142.9077  158.8305 C   0  0  0  0  0  0  0  0  0  0  0  0
  153.3287  141.7451  159.0515 C   0  0  0  0  0  0  0  0  0  0  0  0
  153.9357  141.5723  160.3107 C   0  0  0  0  0  0  0  0  0  0  0  0
  153.7476  142.5611  161.2955 C   0  0  0  0  0  0  0  0  0  0  0  0
  152.9594  143.6845  160.9764 C   0  0  0  0  0  0  0  0  0  0  0  0
  152.3723  143.8589  159.7724 N   0  0  0  0  0  0  0  0  0  0  0  0
  148.2967  141.8873  154.2634 C   0  0  0  0  0  0  0  0  0  0  0  0
  147.2527  140.8432  153.8283 C   0  0  0  0  0  0  0  0  0  0  0  0
  144.7655  138.3224  150.2456 H   0  0  0  0  0  0  0  0  0  0  0  0
  144.4799  137.7178  151.8751 H   0  0  0  0  0  0  0  0  0  0  0  0
  145.7765  137.0351  150.8940 H   0  0  0  0  0  0  0  0  0  0  0  0
  146.9678  139.2463  150.9379 H   0  0  0  0  0  0  0  0  0  0  0  0
  145.6719  139.9264  151.8913 H   0  0  0  0  0  0  0  0  0  0  0  0
  146.2131  138.2573  153.7495 H   0  0  0  0  0  0  0  0  0  0  0  0
  147.4849  137.6182  152.7369 H   0  0  0  0  0  0  0  0  0  0  0  0
  147.9839  138.7993  155.4971 H   0  0  0  0  0  0  0  0  0  0  0  0
  149.1492  138.0810  154.4029 H   0  0  0  0  0  0  0  0  0  0  0  0
  150.2720  139.6288  155.9860 H   0  0  0  0  0  0  0  0  0  0  0  0
  150.4770  140.1445  154.3291 H   0  0  0  0  0  0  0  0  0  0  0  0
  148.4559  141.2588  156.3263 H   0  0  0  0  0  0  0  0  0  0  0  0
  150.8691  142.3517  155.1102 H   0  0  0  0  0  0  0  0  0  0  0  0
  150.1834  141.8918  157.9128 H   0  0  0  0  0  0  0  0  0  0  0  0
  151.4409  141.0893  156.9909 H   0  0  0  0  0  0  0  0  0  0  0  0
  152.6386  143.2687  156.7167 H   0  0  0  0  0  0  0  0  0  0  0  0
  151.3487  144.1002  157.5424 H   0  0  0  0  0  0  0  0  0  0  0  0
  153.4573  141.0037  158.2763 H   0  0  0  0  0  0  0  0  0  0  0  0
  154.5350  140.6979  160.5171 H   0  0  0  0  0  0  0  0  0  0  0  0
  154.1996  142.4624  162.2715 H   0  0  0  0  0  0  0  0  0  0  0  0
  152.7957  144.4631  161.7068 H   0  0  0  0  0  0  0  0  0  0  0  0
  147.7821  142.8173  154.5050 H   0  0  0  0  0  0  0  0  0  0  0  0
  148.9604  142.1085  153.4263 H   0  0  0  0  0  0  0  0  0  0  0  0
  146.7197  141.2252  152.9584 H   0  0  0  0  0  0  0  0  0  0  0  0
  146.5104  140.7058  154.6160 H   0  0  0  0  0  0  0  0  0  0  0  0
  148.5631  139.7037  152.7783 H   0  0  0  0  0  0  0  0  0  0  0  0
  149.7872  143.2745  155.9238 H   0  0  0  0  0  0  0  0  0  0  0  0
  1  2  1  0  0  0  0
  1 19  1  0  0  0  0
  1 20  1  0  0  0  0
  1 21  1  0  0  0  0
  2  3  1  0  0  0  0
  2 22  1  0  0  0  0
  2 23  1  0  0  0  0
  3  4  1  0  0  0  0
  3 24  1  0  0  0  0
  3 25  1  0  0  0  0
  4 18  1  0  0  0  0
  4  5  1  0  0  0  0
  4 44  1  0  0  0  0
  5  6  1  0  0  0  0
  5 26  1  0  0  0  0
  5 27  1  0  0  0  0
  6  7  1  0  0  0  0
  6 28  1  0  0  0  0
  6 29  1  0  0  0  0
  7  8  1  0  0  0  0
  7 17  1  0  0  0  0
  7 30  1  0  0  0  0
  8  9  1  0  0  0  0
  8 31  1  0  0  0  0
  8 45  1  0  0  0  0
  9 10  1  0  0  0  0
  9 32  1  0  0  0  0
  9 33  1  0  0  0  0
 10 11  1  0  0  0  0
 10 34  1  0  0  0  0
 10 35  1  0  0  0  0
 11 16  1  0  0  0  0
 11 12  2  0  0  0  0
 12 13  1  0  0  0  0
 12 36  1  0  0  0  0
 13 14  2  0  0  0  0
 13 37  1  0  0  0  0
 14 15  1  0  0  0  0
 14 38  1  0  0  0  0
 15 16  2  0  0  0  0
 15 39  1  0  0  0  0
 17 18  1  0  0  0  0
 17 40  1  0  0  0  0
 17 41  1  0  0  0  0
 18 42  1  0  0  0  0
 18 43  1  0  0  0  0
M  CHG  1   4   1
M  CHG  1   8   1
M  END
> <s_m_source_file>
AV-unprocessed.smi

> <i_m_source_file_index>
3318

> <i_lp_mmshare_version>
43012

> <i_f3d_flags>
0

> <s_epik_input>
W0NIM11bQ0gyXVtDSDJdTjFbQ0gyXVtDSDJdW0NIXShbQ0gyXVtDSDJdMSlbTkhdW0NIMl1bQ0gyXWMyW2NIXVtjSF1bY0hdW2NIXW4y

> <s_epik_cmdline>
J2VwaWtfcHl0aG9uJywgJy1waCcsICc3LjAnLCAnLXRuJywgJzgnLCAnLW1hJywgJzIwMCcsICctbWV0YWxfYmluZGluZycsICctaW1hZScsICc8aW5maWxlLm1hZT4nLCAnLW9tYWUnLCAnPG91dGZpbGUubWFlPic=

> <r_epik_Ionization_Penalty>
0.0638186

> <r_epik_Ionization_Penalty_Charging>
0.0628538

> <r_epik_Ionization_Penalty_Neutral>
0.000964829

> <r_epik_State_Penalty>
0.0518488

> <r_epik_Charging_Adjusted_Penalty>
0.114703

> <i_epik_Tot_Q>
2

> <i_epik_Tot_abs_Q>
2

> <r_epik_Metal_State_Penalty>
0.0535981

> <b_epik_Metal_Only>
0

> <s_lp_Force_Field>
OPLS_2005

> <r_lp_Energy>
28.1617

> <b_lp_Chiralities_Consistent>
1

> <s_lp_Variant>
AV-unprocessed.smi:3318-1

> <Gold.Version>
5.8.1

> <Gold.Id.Protein>
6NUR|6NUR_protein|mol2

> <Gold.PLP.Fitness>
50.1303

> <Gold.PLP.PLP>
-41.1759

> <Gold.PLP.part.hbond>
-2.0000

> <Gold.PLP.part.metal>
0.0000

> <Gold.PLP.part.buried>
4.5715

> <Gold.PLP.part.nonpolar>
-44.3642

> <Gold.PLP.part.repulsive>
0.2540

> <Gold.PLP.ligand.clash>
0.0000

> <Gold.PLP.ligand.torsion>
0.0492

> <Gold.PLP.Chemscore.Hbond>
3.0000

> <Gold.PLP.Chemscore.CHOScore>
0.0000

> <Gold.PLP.Chemscore.Metal>
0.0000

> <Gold.Chemscore.Hbonds>
donor molecule, donor type, donor heavy atom, donor atom, acceptor molecule, acceptor atom, score
      L1  H     4    44       P1  7957  1.00
      L1  H     8    45       P1  8028  2.00

> <Gold.PLP.Chemscore.Internal.Correction>
0.0527

> <Gold.Rescore>
     Score         DG    S(hbond)    S(metal)    S(lipo)     H(rot)  DE(clash)    DE(int)     intcor
     20.44     -22.97       1.91        0.00     128.98       1.55       2.45       0.07       ----

> <Gold.Chemscore.Fitness>
20.4413

> <Gold.Chemscore.DG>
-22.9703

> <Gold.Chemscore.ZeroCoef>
-5.4800

> <Gold.Chemscore.Hbond>
1.9088

> <Gold.Chemscore.Metal>
0.0000

> <Gold.Chemscore.Lipo>
128.9846

> <Gold.Chemscore.Internal_Hbond>
0.0000

> <Gold.Chemscore.DEClash>
2.4542

> <Gold.Chemscore.DEInternal>
0.0748

> <Gold.Chemscore.Rot>
1.5532

> <Gold.Chemscore.Internal.Correction>
   9.000000E+99

> <Gold.Chemscore.Hbonds>
donor molecule, donor type, donor heavy atom, donor atom, acceptor molecule, acceptor atom, score
      L1  H     4    44       P1  7957  0.99
      L1  H     8    45       P1  8028  1.00

> <Gold.Chemscore.Hbond.Weighted>
-6.3753

> <Gold.Chemscore.Metal.Weighted>
-0.0000

> <Gold.Chemscore.Lipo.Weighted>
-15.0912

> <Gold.Chemscore.Internal_Hbond.Weighted>
0.0000

> <Gold.Chemscore.DEClash.Weighted>
2.4542

> <Gold.Chemscore.DEInternal.Weighted>
0.0748

> <Gold.Chemscore.Rot.Weighted>
3.9762

> <Gold.Chemscore.Internal.Correction.Weighted>
   9.000000E+99

> <Gold.Protein.RotatedTorsions>
[ 6907 6896 6895 6894 ] final -117.52 input  -60.11 | X-H torsion
[ 7974 7965 7964 7962 ] final   35.74 input  175.53 | X-H torsion
[ 8008 7997 7996 7995 ] final  166.66 input   59.86 | X-H torsion
[ 10167 10162 10161 10158 ] final  165.71 input  -65.29 | X-H torsion
[ 10718 10713 10712 10709 ] final   90.75 input   66.30 | X-H torsion
[ 10763 10752 10751 10750 ] final -146.20 input  -60.55 | X-H torsion
[ 11005 11000 10999 10996 ] final  153.03 input  -57.11 | X-H torsion

> <Gold.Protein.ActiveResidues>
 VAL166  LYS551  ARG553  GLY616  TRP617  ASP618  TYR619  PRO620  LYS621  CYS622 
 ASP623  PHE694  ASN695  SER759  ASP760  ASP761  ALA762  ILE779  LEU786  VAL792 
 PHE793  MET794  SER795  GLU796  ALA797  LYS798  CYS799  TRP800  GLU811  SER814 

> <Gold.Protein.RotatedAtoms>
  150.8144  133.8364  159.3167 H   0  0  0  0  0  0  0  0  0  0  0  0  # atno 6907 bound_to 6896
  151.6140  135.1036  160.0097 H   0  0  0  0  0  0  0  0  0  0  0  0  # atno 6908 bound_to 6896
  152.4235  133.7116  159.6538 H   0  0  0  0  0  0  0  0  0  0  0  0  # atno 6909 bound_to 6896
  146.1261  139.6104  142.9257 H   0  0  0  0  0  0  0  0  0  0  0  0  # atno 7974 bound_to 7965
  156.1699  140.1637  156.8465 H   0  0  0  0  0  0  0  0  0  0  0  0  # atno 8008 bound_to 7997
  154.5246  140.0770  156.8270 H   0  0  0  0  0  0  0  0  0  0  0  0  # atno 8009 bound_to 7997
  155.3533  140.3391  155.4242 H   0  0  0  0  0  0  0  0  0  0  0  0  # atno 8010 bound_to 7997
  139.4911  144.4103  151.9307 H   0  0  0  0  0  0  0  0  0  0  0  0  # atno 10167 bound_to 10162
  157.6959  131.0382  150.3625 H   0  0  0  0  0  0  0  0  0  0  0  0  # atno 10718 bound_to 10713
  154.8347  135.3393  154.6624 H   0  0  0  0  0  0  0  0  0  0  0  0  # atno 10763 bound_to 10752
  153.7240  135.6956  153.5010 H   0  0  0  0  0  0  0  0  0  0  0  0  # atno 10764 bound_to 10752
  153.2361  135.4400  155.0600 H   0  0  0  0  0  0  0  0  0  0  0  0  # atno 10765 bound_to 10752
  140.1361  134.8770  157.2269 H   0  0  0  0  0  0  0  0  0  0  0  0  # atno 11005 bound_to 11000
  145.5361  141.0424  143.2356 LP  0  0  0  0  0  0  0  0  0  0  0  0  # atno 17320 bound_to 7965
  144.7644  139.6880  143.7221 LP  0  0  0  0  0  0  0  0  0  0  0  0  # atno 17321 bound_to 7965
  140.3544  144.3049  150.5943 LP  0  0  0  0  0  0  0  0  0  0  0  0  # atno 17342 bound_to 10162
  140.5457  143.2215  151.8011 LP  0  0  0  0  0  0  0  0  0  0  0  0  # atno 17343 bound_to 10162
  156.4060  130.3925  149.6926 LP  0  0  0  0  0  0  0  0  0  0  0  0  # atno 17370 bound_to 10713
  156.4226  130.7776  151.2794 LP  0  0  0  0  0  0  0  0  0  0  0  0  # atno 17371 bound_to 10713
  140.2780  134.3383  155.7352 LP  0  0  0  0  0  0  0  0  0  0  0  0  # atno 17394 bound_to 11000
  141.2178  133.7462  156.9322 LP  0  0  0  0  0  0  0  0  0  0  0  0  # atno 17395 bound_to 11000

$$$$
