AV-unprocessed.smi:1389|AV-procd|sdf|5652|dock7
  -GOLD-   22720 5273D 1   1.00000     0.00000
 Structure written by MMmdl.
 53 55  0  0  0  0  0  0  0  0  3 V2000
  148.8964  138.8422  154.4422 C   0  0  0  0  0  0  0  0  0  0  0  0
  150.3864  138.6482  154.8188 C   0  0  2  0  0  0  0  0  0  0  0  0
  150.6561  137.1794  155.2504 C   0  0  0  0  0  0  0  0  0  0  0  0
  149.9407  136.1945  154.4407 N   0  0  0  0  0  0  0  0  0  0  0  0
  149.8143  134.8923  154.7361 C   0  0  0  0  0  0  0  0  0  0  0  0
  150.2688  134.3795  155.7585 O   0  0  0  0  0  0  0  0  0  0  0  0
  149.1482  134.2333  153.7731 N   0  0  0  0  0  0  0  0  0  0  0  0
  148.8424  132.8435  153.7175 C   0  0  0  0  0  0  0  0  0  0  0  0
  149.5186  131.8830  154.5124 C   0  0  0  0  0  0  0  0  0  0  0  0
  149.1563  130.5243  154.4257 C   0  0  0  0  0  0  0  0  0  0  0  0
  148.1179  130.1467  153.5548 C   0  0  0  0  0  0  0  0  0  0  0  0
  147.4830  131.0867  152.8237 N   0  3  0  0  0  0  0  0  0  0  0  0
  147.7938  132.4057  152.8684 C   0  0  0  0  0  0  0  0  0  0  0  0
  147.0652  133.3039  152.0693 N   0  0  0  0  0  0  0  0  0  0  0  0
  146.3135  132.7147  150.9729 C   0  0  0  0  0  0  0  0  0  0  0  0
  145.3317  133.7996  150.5237 C   0  0  0  0  0  0  0  0  0  0  0  0
  145.1948  134.7318  151.7339 C   0  0  0  0  0  0  0  0  0  0  0  0
  146.1252  134.1401  152.7965 C   0  0  0  0  0  0  0  0  0  0  0  0
  150.8405  139.6186  155.8728 N   0  3  0  0  0  0  0  0  0  0  0  0
  150.4893  141.0336  155.5637 C   0  0  0  0  0  0  0  0  0  0  0  0
  150.9981  141.9924  156.6526 C   0  0  0  0  0  0  0  0  0  0  0  0
  150.4576  141.6156  157.9085 O   0  0  0  0  0  0  0  0  0  0  0  0
  150.8861  140.3157  158.2808 C   0  0  0  0  0  0  0  0  0  0  0  0
  150.3869  139.2850  157.2534 C   0  0  0  0  0  0  0  0  0  0  0  0
  148.5634  138.1174  153.7007 H   0  0  0  0  0  0  0  0  0  0  0  0
  148.7068  139.8132  153.9861 H   0  0  0  0  0  0  0  0  0  0  0  0
  148.2497  138.7402  155.3142 H   0  0  0  0  0  0  0  0  0  0  0  0
  150.9713  138.8474  153.9194 H   0  0  0  0  0  0  0  0  0  0  0  0
  151.7060  136.9210  155.1291 H   0  0  0  0  0  0  0  0  0  0  0  0
  150.4334  137.0541  156.3115 H   0  0  0  0  0  0  0  0  0  0  0  0
  149.5327  136.5276  153.5792 H   0  0  0  0  0  0  0  0  0  0  0  0
  148.9181  134.7638  152.9455 H   0  0  0  0  0  0  0  0  0  0  0  0
  150.3015  132.1673  155.1988 H   0  0  0  0  0  0  0  0  0  0  0  0
  149.6655  129.7826  155.0239 H   0  0  0  0  0  0  0  0  0  0  0  0
  147.7739  129.1306  153.4263 H   0  0  0  0  0  0  0  0  0  0  0  0
  146.9754  132.4119  150.1610 H   0  0  0  0  0  0  0  0  0  0  0  0
  145.7657  131.8328  151.3077 H   0  0  0  0  0  0  0  0  0  0  0  0
  145.7385  134.3510  149.6751 H   0  0  0  0  0  0  0  0  0  0  0  0
  144.3758  133.3747  150.2160 H   0  0  0  0  0  0  0  0  0  0  0  0
  145.5154  135.7390  151.4649 H   0  0  0  0  0  0  0  0  0  0  0  0
  144.1674  134.7957  152.0931 H   0  0  0  0  0  0  0  0  0  0  0  0
  145.5527  133.5406  153.5057 H   0  0  0  0  0  0  0  0  0  0  0  0
  146.6436  134.9198  153.3554 H   0  0  0  0  0  0  0  0  0  0  0  0
  150.9285  141.3562  154.6223 H   0  0  0  0  0  0  0  0  0  0  0  0
  149.4068  141.1273  155.4634 H   0  0  0  0  0  0  0  0  0  0  0  0
  152.0888  141.9951  156.6932 H   0  0  0  0  0  0  0  0  0  0  0  0
  150.6871  143.0128  156.4281 H   0  0  0  0  0  0  0  0  0  0  0  0
  151.9737  140.2867  158.3664 H   0  0  0  0  0  0  0  0  0  0  0  0
  150.4850  140.0841  159.2677 H   0  0  0  0  0  0  0  0  0  0  0  0
  149.2974  139.2313  157.2770 H   0  0  0  0  0  0  0  0  0  0  0  0
  150.7699  138.3153  157.5673 H   0  0  0  0  0  0  0  0  0  0  0  0
  151.8494  139.5690  155.8911 H   0  0  0  0  0  0  0  0  0  0  0  0
  146.7292  130.7877  152.2047 H   0  0  0  0  0  0  0  0  0  0  0  0
  1  2  1  0  0  0  0
  1 25  1  0  0  0  0
  1 26  1  0  0  0  0
  1 27  1  0  0  0  0
  2  3  1  0  0  0  0
  2 19  1  0  0  0  0
  2 28  1  0  0  0  0
  3  4  1  0  0  0  0
  3 29  1  0  0  0  0
  3 30  1  0  0  0  0
  4  5  1  0  0  0  0
  4 31  1  0  0  0  0
  5  6  2  0  0  0  0
  5  7  1  0  0  0  0
  7  8  1  0  0  0  0
  7 32  1  0  0  0  0
  8 13  1  0  0  0  0
  8  9  2  0  0  0  0
  9 10  1  0  0  0  0
  9 33  1  0  0  0  0
 10 11  2  0  0  0  0
 10 34  1  0  0  0  0
 11 12  1  0  0  0  0
 11 35  1  0  0  0  0
 12 13  2  0  0  0  0
 12 53  1  0  0  0  0
 13 14  1  0  0  0  0
 14 18  1  0  0  0  0
 14 15  1  0  0  0  0
 15 16  1  0  0  0  0
 15 36  1  0  0  0  0
 15 37  1  0  0  0  0
 16 17  1  0  0  0  0
 16 38  1  0  0  0  0
 16 39  1  0  0  0  0
 17 18  1  0  0  0  0
 17 40  1  0  0  0  0
 17 41  1  0  0  0  0
 18 42  1  0  0  0  0
 18 43  1  0  0  0  0
 19 24  1  0  0  0  0
 19 20  1  0  0  0  0
 19 52  1  0  0  0  0
 20 21  1  0  0  0  0
 20 44  1  0  0  0  0
 20 45  1  0  0  0  0
 21 22  1  0  0  0  0
 21 46  1  0  0  0  0
 21 47  1  0  0  0  0
 22 23  1  0  0  0  0
 23 24  1  0  0  0  0
 23 48  1  0  0  0  0
 23 49  1  0  0  0  0
 24 50  1  0  0  0  0
 24 51  1  0  0  0  0
M  CHG  1  12   1
M  CHG  1  19   1
M  END
> <s_m_source_file>
AV-unprocessed.smi

> <i_m_source_file_index>
1389

> <i_lp_mmshare_version>
43012

> <i_f3d_flags>
0

> <s_epik_input>
W0NIMl0xW0NIMl1PW0NIMl1bQ0gyXU4xW0NASF0oW0NIM10pW0NIMl1bTkhdQyg9TylbTkhdYzJbY0hdW2NIXVtjSF1uYzJOM1tDSDJdW0NIMl1bQ0gyXVtDSDJdMw==

> <s_epik_cmdline>
J2VwaWtfcHl0aG9uJywgJy1waCcsICc3LjAnLCAnLXRuJywgJzgnLCAnLW1hJywgJzIwMCcsICctbWV0YWxfYmluZGluZycsICctaW1hZScsICc8aW5maWxlLm1hZT4nLCAnLW9tYWUnLCAnPG91dGZpbGUubWFlPic=

> <r_lp_tautomer_probability>
0.999994

> <r_epik_Ionization_Penalty>
1.80872

> <r_epik_Ionization_Penalty_Charging>
1.8087

> <r_epik_Ionization_Penalty_Neutral>
2.02981e-05

> <r_epik_State_Penalty>
1.84892

> <r_epik_Charging_Adjusted_Penalty>
3.65762

> <i_epik_Tot_Q>
2

> <i_epik_Tot_abs_Q>
2

> <r_epik_Metal_State_Penalty>
1.9311

> <b_epik_Metal_Only>
0

> <s_lp_Force_Field>
OPLS_2005

> <r_lp_Energy>
59.2072

> <b_lp_Chiralities_Consistent>
1

> <s_lp_Variant>
AV-unprocessed.smi:1389-7

> <Gold.Version>
5.8.1

> <Gold.Id.Protein>
6NUR|6NUR_protein|mol2

> <Gold.PLP.Fitness>
41.0971

> <Gold.PLP.PLP>
-38.1286

> <Gold.PLP.part.hbond>
-3.4200

> <Gold.PLP.part.metal>
0.0000

> <Gold.PLP.part.buried>
-4.5614

> <Gold.PLP.part.nonpolar>
-30.9037

> <Gold.PLP.part.repulsive>
0.3848

> <Gold.PLP.ligand.clash>
0.7851

> <Gold.PLP.ligand.torsion>
0.8262

> <Gold.PLP.Chemscore.Hbond>
1.7760

> <Gold.PLP.Chemscore.CHOScore>
0.0000

> <Gold.PLP.Chemscore.Metal>
0.0000

> <Gold.Chemscore.Hbonds>
donor molecule, donor type, donor heavy atom, donor atom, acceptor molecule, acceptor atom, score
      L1  H     4    31       P1  7948  0.99
      L1  H     7    32       P1  7948  0.70

> <Gold.PLP.Chemscore.Internal.Correction>
0.0780

> <Gold.Rescore>
     Score         DG    S(hbond)    S(metal)    S(lipo)     H(rot)  DE(clash)    DE(int)     intcor
     12.88     -15.20       1.48        0.00      77.11       1.66       0.02       2.30       ----

> <Gold.Chemscore.Fitness>
12.8812

> <Gold.Chemscore.DG>
-15.1982

> <Gold.Chemscore.ZeroCoef>
-5.4800

> <Gold.Chemscore.Hbond>
1.4824

> <Gold.Chemscore.Metal>
0.0000

> <Gold.Chemscore.Lipo>
77.1087

> <Gold.Chemscore.Internal_Hbond>
0.0000

> <Gold.Chemscore.DEClash>
0.0164

> <Gold.Chemscore.DEInternal>
2.3005

> <Gold.Chemscore.Rot>
1.6620

> <Gold.Chemscore.Internal.Correction>
   9.000000E+99

> <Gold.Chemscore.Hbonds>
donor molecule, donor type, donor heavy atom, donor atom, acceptor molecule, acceptor atom, score
      L1  H     4    31       P1  7948  0.66
      L1  H     7    32       P1  7948  0.07

> <Gold.Chemscore.Hbond.Weighted>
-4.9511

> <Gold.Chemscore.Metal.Weighted>
-0.0000

> <Gold.Chemscore.Lipo.Weighted>
-9.0217

> <Gold.Chemscore.Internal_Hbond.Weighted>
0.0000

> <Gold.Chemscore.DEClash.Weighted>
0.0164

> <Gold.Chemscore.DEInternal.Weighted>
2.3005

> <Gold.Chemscore.Rot.Weighted>
4.2547

> <Gold.Chemscore.Internal.Correction.Weighted>
   9.000000E+99

> <Gold.Protein.RotatedTorsions>
[ 6907 6896 6895 6894 ] final   13.14 input  -60.11 | X-H torsion
[ 7974 7965 7964 7962 ] final  -90.16 input  175.53 | X-H torsion
[ 8008 7997 7996 7995 ] final   98.46 input   59.86 | X-H torsion
[ 10167 10162 10161 10158 ] final  176.04 input  -65.29 | X-H torsion
[ 10718 10713 10712 10709 ] final -124.06 input   66.30 | X-H torsion
[ 10763 10752 10751 10750 ] final  138.92 input  -60.55 | X-H torsion
[ 11005 11000 10999 10996 ] final -135.39 input  -57.11 | X-H torsion

> <Gold.Protein.ActiveResidues>
 VAL166  LYS551  ARG553  GLY616  TRP617  ASP618  TYR619  PRO620  LYS621  CYS622 
 ASP623  PHE694  ASN695  SER759  ASP760  ASP761  ALA762  ILE779  LEU786  VAL792 
 PHE793  MET794  SER795  GLU796  ALA797  LYS798  CYS799  TRP800  GLU811  SER814 

> <Gold.Protein.RotatedAtoms>
  151.7816  135.0760  160.0374 H   0  0  0  0  0  0  0  0  0  0  0  0  # atno 6907 bound_to 6896
  152.3219  133.5858  159.5758 H   0  0  0  0  0  0  0  0  0  0  0  0  # atno 6908 bound_to 6896
  150.7374  133.9915  159.3650 H   0  0  0  0  0  0  0  0  0  0  0  0  # atno 6909 bound_to 6896
  145.4302  140.9555  143.2132 H   0  0  0  0  0  0  0  0  0  0  0  0  # atno 7974 bound_to 7965
  156.1006  140.3243  155.7937 H   0  0  0  0  0  0  0  0  0  0  0  0  # atno 8008 bound_to 7997
  155.4843  140.0556  157.2980 H   0  0  0  0  0  0  0  0  0  0  0  0  # atno 8009 bound_to 7997
  154.4694  140.2004  156.0048 H   0  0  0  0  0  0  0  0  0  0  0  0  # atno 8010 bound_to 7997
  139.5199  144.2961  152.0420 H   0  0  0  0  0  0  0  0  0  0  0  0  # atno 10167 bound_to 10162
  156.1555  130.6565  150.9975 H   0  0  0  0  0  0  0  0  0  0  0  0  # atno 10718 bound_to 10713
  153.8975  135.3026  155.3448 H   0  0  0  0  0  0  0  0  0  0  0  0  # atno 10763 bound_to 10752
  154.7686  135.4897  153.9607 H   0  0  0  0  0  0  0  0  0  0  0  0  # atno 10764 bound_to 10752
  153.1263  135.6794  153.9351 H   0  0  0  0  0  0  0  0  0  0  0  0  # atno 10765 bound_to 10752
  140.8903  134.1820  157.4532 H   0  0  0  0  0  0  0  0  0  0  0  0  # atno 11005 bound_to 11000
  144.8188  139.5829  143.6996 LP  0  0  0  0  0  0  0  0  0  0  0  0  # atno 17320 bound_to 7965
  146.2611  139.6413  142.9361 LP  0  0  0  0  0  0  0  0  0  0  0  0  # atno 17321 bound_to 7965
  140.2411  144.4268  150.6260 LP  0  0  0  0  0  0  0  0  0  0  0  0  # atno 17342 bound_to 10162
  140.6290  143.2185  151.6536 LP  0  0  0  0  0  0  0  0  0  0  0  0  # atno 17343 bound_to 10162
  157.6691  131.0865  150.7656 LP  0  0  0  0  0  0  0  0  0  0  0  0  # atno 17370 bound_to 10713
  156.7721  130.4832  149.5416 LP  0  0  0  0  0  0  0  0  0  0  0  0  # atno 17371 bound_to 10713
  139.8729  134.9855  156.5286 LP  0  0  0  0  0  0  0  0  0  0  0  0  # atno 17394 bound_to 11000
  140.8355  133.8246  155.9025 LP  0  0  0  0  0  0  0  0  0  0  0  0  # atno 17395 bound_to 11000

$$$$
