AV-unprocessed.smi:1285|AV-procd|sdf|5373|dock2
  -GOLD-   22720 4513D 1   1.00000     0.00000
 Structure written by MMmdl.
 47 48  0  0  0  0  0  0  0  0  2 V2000
  149.8321  133.8332  155.3726 C   0  0  0  0  0  0  0  0  0  0  0  0
  149.1015  133.9344  154.0214 C   0  0  0  0  0  0  0  0  0  0  0  0
  147.5697  134.2169  154.0917 C   0  0  1  0  0  0  0  0  0  0  0  0
  146.8826  133.0934  154.9110 C   0  0  0  0  0  0  0  0  0  0  0  0
  147.3216  135.5658  154.8381 C   0  0  0  0  0  0  0  0  0  0  0  0
  148.0782  136.6937  154.2927 N   0  0  0  0  0  0  0  0  0  0  0  0
  148.6579  137.6697  155.0099 C   0  0  0  0  0  0  0  0  0  0  0  0
  148.5958  137.7285  156.2379 O   0  0  0  0  0  0  0  0  0  0  0  0
  149.4178  138.7398  154.2105 C   0  0  1  0  0  0  0  0  0  0  0  0
  148.9610  140.1728  154.5503 C   0  0  0  0  0  0  0  0  0  0  0  0
  150.8556  138.5685  154.3756 N   0  0  0  0  0  0  0  0  0  0  0  0
  151.6314  137.5166  154.1048 C   0  0  0  0  0  0  0  0  0  0  0  0
  152.9067  137.6918  154.4205 N   0  0  0  0  0  0  0  0  0  0  0  0
  152.8444  138.9596  154.9256 C   0  0  0  0  0  0  0  0  0  0  0  0
  151.6384  139.5272  154.9305 N   0  0  0  0  0  0  0  0  0  0  0  0
  146.9663  134.2752  152.7088 N   0  3  0  0  0  0  0  0  0  0  0  0
  147.0252  133.0096  151.9244 C   0  0  0  0  0  0  0  0  0  0  0  0
  146.5949  133.2605  150.4705 C   0  0  0  0  0  0  0  0  0  0  0  0
  145.2775  133.7920  150.4519 O   0  0  0  0  0  0  0  0  0  0  0  0
  145.2018  135.0384  151.1297 C   0  0  0  0  0  0  0  0  0  0  0  0
  145.5982  134.8583  152.6052 C   0  0  0  0  0  0  0  0  0  0  0  0
  150.8949  133.6495  155.2151 H   0  0  0  0  0  0  0  0  0  0  0  0
  149.4534  133.0124  155.9815 H   0  0  0  0  0  0  0  0  0  0  0  0
  149.7493  134.7525  155.9516 H   0  0  0  0  0  0  0  0  0  0  0  0
  149.5988  134.7155  153.4469 H   0  0  0  0  0  0  0  0  0  0  0  0
  149.2835  133.0064  153.4803 H   0  0  0  0  0  0  0  0  0  0  0  0
  147.1006  133.1777  155.9759 H   0  0  0  0  0  0  0  0  0  0  0  0
  147.2165  132.1010  154.6071 H   0  0  0  0  0  0  0  0  0  0  0  0
  145.7977  133.1241  154.8073 H   0  0  0  0  0  0  0  0  0  0  0  0
  146.2586  135.8110  154.8590 H   0  0  0  0  0  0  0  0  0  0  0  0
  147.6006  135.4739  155.8878 H   0  0  0  0  0  0  0  0  0  0  0  0
  148.1962  136.7168  153.2903 H   0  0  0  0  0  0  0  0  0  0  0  0
  149.1958  138.5752  153.1546 H   0  0  0  0  0  0  0  0  0  0  0  0
  147.8909  140.2957  154.3792 H   0  0  0  0  0  0  0  0  0  0  0  0
  149.4765  140.9027  153.9257 H   0  0  0  0  0  0  0  0  0  0  0  0
  149.1607  140.4312  155.5910 H   0  0  0  0  0  0  0  0  0  0  0  0
  151.2554  136.6018  153.6709 H   0  0  0  0  0  0  0  0  0  0  0  0
  153.7123  139.4767  155.3075 H   0  0  0  0  0  0  0  0  0  0  0  0
  148.0292  132.5892  151.9172 H   0  0  0  0  0  0  0  0  0  0  0  0
  146.3665  132.2605  152.3647 H   0  0  0  0  0  0  0  0  0  0  0  0
  147.2860  133.9406  149.9699 H   0  0  0  0  0  0  0  0  0  0  0  0
  146.6050  132.3259  149.9093 H   0  0  0  0  0  0  0  0  0  0  0  0
  145.8459  135.7714  150.6411 H   0  0  0  0  0  0  0  0  0  0  0  0
  144.1815  135.4160  151.0592 H   0  0  0  0  0  0  0  0  0  0  0  0
  144.8735  134.2135  153.1025 H   0  0  0  0  0  0  0  0  0  0  0  0
  145.5374  135.8363  153.0785 H   0  0  0  0  0  0  0  0  0  0  0  0
  147.5590  134.9233  152.2100 H   0  0  0  0  0  0  0  0  0  0  0  0
  1  2  1  0  0  0  0
  1 22  1  0  0  0  0
  1 23  1  0  0  0  0
  1 24  1  0  0  0  0
  2  3  1  0  0  0  0
  2 25  1  0  0  0  0
  2 26  1  0  0  0  0
  3  4  1  0  0  0  0
  3  5  1  0  0  0  0
  3 16  1  0  0  0  0
  4 27  1  0  0  0  0
  4 28  1  0  0  0  0
  4 29  1  0  0  0  0
  5  6  1  0  0  0  0
  5 30  1  0  0  0  0
  5 31  1  0  0  0  0
  6  7  1  0  0  0  0
  6 32  1  0  0  0  0
  7  8  2  0  0  0  0
  7  9  1  0  0  0  0
  9 10  1  0  0  0  0
  9 11  1  0  0  0  0
  9 33  1  0  0  0  0
 10 34  1  0  0  0  0
 10 35  1  0  0  0  0
 10 36  1  0  0  0  0
 11 15  1  0  0  0  0
 11 12  1  0  0  0  0
 12 13  2  0  0  0  0
 12 37  1  0  0  0  0
 13 14  1  0  0  0  0
 14 15  2  0  0  0  0
 14 38  1  0  0  0  0
 16 21  1  0  0  0  0
 16 17  1  0  0  0  0
 16 47  1  0  0  0  0
 17 18  1  0  0  0  0
 17 39  1  0  0  0  0
 17 40  1  0  0  0  0
 18 19  1  0  0  0  0
 18 41  1  0  0  0  0
 18 42  1  0  0  0  0
 19 20  1  0  0  0  0
 20 21  1  0  0  0  0
 20 43  1  0  0  0  0
 20 44  1  0  0  0  0
 21 45  1  0  0  0  0
 21 46  1  0  0  0  0
M  CHG  1  16   1
M  END
> <s_m_source_file>
AV-unprocessed.smi

> <i_m_source_file_index>
1285

> <i_lp_mmshare_version>
43012

> <i_f3d_flags>
0

> <s_epik_input>
W0NIMl0xW0NIMl1PW0NIMl1bQ0gyXU4xW0NAQF0oW0NIM10pKFtDSDJdW0NIM10pW0NIMl1bTkhdQyg9TylbQ0BIXShbQ0gzXSluMltjSF1uW2NIXW4y

> <s_epik_cmdline>
J2VwaWtfcHl0aG9uJywgJy1waCcsICc3LjAnLCAnLXRuJywgJzgnLCAnLW1hJywgJzIwMCcsICctbWV0YWxfYmluZGluZycsICctaW1hZScsICc8aW5maWxlLm1hZT4nLCAnLW9tYWUnLCAnPG91dGZpbGUubWFlPic=

> <r_lp_tautomer_probability>
1

> <r_epik_Ionization_Penalty>
0.569304

> <r_epik_Ionization_Penalty_Charging>
0.569295

> <r_epik_Ionization_Penalty_Neutral>
8.22697e-06

> <r_epik_State_Penalty>
0.581114

> <r_epik_Charging_Adjusted_Penalty>
1.15041

> <i_epik_Tot_Q>
1

> <i_epik_Tot_abs_Q>
1

> <r_epik_Metal_State_Penalty>
0.581117

> <b_epik_Metal_Only>
0

> <s_lp_Force_Field>
OPLS_2005

> <r_lp_Energy>
40.9155

> <b_lp_Chiralities_Consistent>
1

> <s_lp_Variant>
AV-unprocessed.smi:1285-7

> <Gold.Version>
5.8.1

> <Gold.Id.Protein>
6NUR|6NUR_protein|mol2

> <Gold.PLP.Fitness>
47.9713

> <Gold.PLP.PLP>
-33.6962

> <Gold.PLP.part.hbond>
-4.0000

> <Gold.PLP.part.metal>
0.0000

> <Gold.PLP.part.buried>
-3.2693

> <Gold.PLP.part.nonpolar>
-27.4162

> <Gold.PLP.part.repulsive>
0.4467

> <Gold.PLP.ligand.clash>
0.0000

> <Gold.PLP.ligand.torsion>
0.6097

> <Gold.PLP.Chemscore.Hbond>
4.0761

> <Gold.PLP.Chemscore.CHOScore>
0.9632

> <Gold.PLP.Chemscore.Metal>
0.0000

> <Gold.Chemscore.Hbonds>
donor molecule, donor type, donor heavy atom, donor atom, acceptor molecule, acceptor atom, score
      L1  H     6    32       P1  7948  1.00
      L1  H    16    47       P1  7948  2.00
      P1  H  7989  7998       L1    15  1.00
      P1  H 10752 10764       L1    13  0.07
      L1  C    12    37       P1  7949  0.99

> <Gold.PLP.Chemscore.Internal.Correction>
0.3770

> <Gold.Rescore>
     Score         DG    S(hbond)    S(metal)    S(lipo)     H(rot)  DE(clash)    DE(int)     intcor
     10.36     -11.46       2.14        0.00      50.46       2.76       0.32       0.79       ----

> <Gold.Chemscore.Fitness>
10.3568

> <Gold.Chemscore.DG>
-11.4641

> <Gold.Chemscore.ZeroCoef>
-5.4800

> <Gold.Chemscore.Hbond>
2.1387

> <Gold.Chemscore.Metal>
0.0000

> <Gold.Chemscore.Lipo>
50.4581

> <Gold.Chemscore.Internal_Hbond>
0.0000

> <Gold.Chemscore.DEClash>
0.3183

> <Gold.Chemscore.DEInternal>
0.7890

> <Gold.Chemscore.Rot>
2.7589

> <Gold.Chemscore.Internal.Correction>
   9.000000E+99

> <Gold.Chemscore.Hbonds>
donor molecule, donor type, donor heavy atom, donor atom, acceptor molecule, acceptor atom, score
      L1  H     6    32       P1  7948  0.96
      L1  H    16    47       P1  7948  0.90
      P1  H  7989  7998       L1    15  0.16

> <Gold.Chemscore.Hbond.Weighted>
-7.1432

> <Gold.Chemscore.Metal.Weighted>
-0.0000

> <Gold.Chemscore.Lipo.Weighted>
-5.9036

> <Gold.Chemscore.Internal_Hbond.Weighted>
0.0000

> <Gold.Chemscore.DEClash.Weighted>
0.3183

> <Gold.Chemscore.DEInternal.Weighted>
0.7890

> <Gold.Chemscore.Rot.Weighted>
7.0627

> <Gold.Chemscore.Internal.Correction.Weighted>
   9.000000E+99

> <Gold.Protein.RotatedTorsions>
[ 6907 6896 6895 6894 ] final   45.88 input  -60.11 | X-H torsion
[ 7974 7965 7964 7962 ] final  -84.42 input  175.53 | X-H torsion
[ 8008 7997 7996 7995 ] final  -25.37 input   59.86 | X-H torsion
[ 10167 10162 10161 10158 ] final   -3.96 input  -65.29 | X-H torsion
[ 10718 10713 10712 10709 ] final   11.39 input   66.30 | X-H torsion
[ 10763 10752 10751 10750 ] final  -77.73 input  -60.55 | X-H torsion
[ 11005 11000 10999 10996 ] final -122.84 input  -57.11 | X-H torsion

> <Gold.Protein.ActiveResidues>
 VAL166  LYS551  ARG553  GLY616  TRP617  ASP618  TYR619  PRO620  LYS621  CYS622 
 ASP623  PHE694  ASN695  SER759  ASP760  ASP761  ALA762  ILE779  LEU786  VAL792 
 PHE793  MET794  SER795  GLU796  ALA797  LYS798  CYS799  TRP800  GLU811  SER814 

> <Gold.Protein.RotatedAtoms>
  152.2498  134.8144  160.0447 H   0  0  0  0  0  0  0  0  0  0  0  0  # atno 6907 bound_to 6896
  151.8829  133.3494  159.3780 H   0  0  0  0  0  0  0  0  0  0  0  0  # atno 6908 bound_to 6896
  150.7080  134.4927  159.5567 H   0  0  0  0  0  0  0  0  0  0  0  0  # atno 6909 bound_to 6896
  145.5068  140.9543  143.1729 H   0  0  0  0  0  0  0  0  0  0  0  0  # atno 7974 bound_to 7965
  154.4479  140.1928  156.0609 H   0  0  0  0  0  0  0  0  0  0  0  0  # atno 8008 bound_to 7997
  156.0583  140.3300  155.7405 H   0  0  0  0  0  0  0  0  0  0  0  0  # atno 8009 bound_to 7997
  155.5451  140.0590  157.2853 H   0  0  0  0  0  0  0  0  0  0  0  0  # atno 8010 bound_to 7997
  140.6910  143.6479  150.8376 H   0  0  0  0  0  0  0  0  0  0  0  0  # atno 10167 bound_to 10162
  156.9948  130.6056  149.5690 H   0  0  0  0  0  0  0  0  0  0  0  0  # atno 10718 bound_to 10713
  154.5167  135.5754  153.6648 H   0  0  0  0  0  0  0  0  0  0  0  0  # atno 10763 bound_to 10752
  152.9908  135.6172  154.2808 H   0  0  0  0  0  0  0  0  0  0  0  0  # atno 10764 bound_to 10752
  154.2726  135.2853  155.2711 H   0  0  0  0  0  0  0  0  0  0  0  0  # atno 10765 bound_to 10752
  140.9964  134.0465  157.3592 H   0  0  0  0  0  0  0  0  0  0  0  0  # atno 11005 bound_to 11000
  144.7749  139.6652  143.7179 LP  0  0  0  0  0  0  0  0  0  0  0  0  # atno 17320 bound_to 7965
  146.2191  139.5603  142.9630 LP  0  0  0  0  0  0  0  0  0  0  0  0  # atno 17321 bound_to 7965
  140.0192  143.5560  152.2807 LP  0  0  0  0  0  0  0  0  0  0  0  0  # atno 17342 bound_to 10162
  139.6312  144.7644  151.2531 LP  0  0  0  0  0  0  0  0  0  0  0  0  # atno 17343 bound_to 10162
  156.0193  130.5288  150.8229 LP  0  0  0  0  0  0  0  0  0  0  0  0  # atno 17370 bound_to 10713
  157.5432  131.0941  150.9798 LP  0  0  0  0  0  0  0  0  0  0  0  0  # atno 17371 bound_to 10713
  139.9017  135.0167  156.7299 LP  0  0  0  0  0  0  0  0  0  0  0  0  # atno 17394 bound_to 11000
  140.6959  133.9349  155.7994 LP  0  0  0  0  0  0  0  0  0  0  0  0  # atno 17395 bound_to 11000

$$$$
