AV-unprocessed.smi:1918|AV-procd|sdf|7772|dock2
  -GOLD-   22720 9513D 1   1.00000     0.00000
 Structure written by MMmdl.
 36 38  0  0  0  0  0  0  0  0  2 V2000
  151.9002  137.9072  154.3017 C   0  0  0  0  0  0  0  0  0  0  0  0
  150.7126  138.8078  154.3588 C   0  0  0  0  0  0  0  0  0  0  0  0
  149.5536  138.6528  153.6583 N   0  3  0  0  0  0  0  0  0  0  0  0
  148.6721  139.6899  153.9684 C   0  0  0  0  0  0  0  0  0  0  0  0
  147.3853  139.9606  153.5135 C   0  0  0  0  0  0  0  0  0  0  0  0
  146.7590  141.1118  154.0351 C   0  0  0  0  0  0  0  0  0  0  0  0
  147.4099  141.9423  154.9708 C   0  0  0  0  0  0  0  0  0  0  0  0
  148.7147  141.6579  155.4248 C   0  0  0  0  0  0  0  0  0  0  0  0
  149.3259  140.5180  154.9036 C   0  0  0  0  0  0  0  0  0  0  0  0
  150.5792  139.9345  155.1152 N   0  0  0  0  0  0  0  0  0  0  0  0
  151.5152  140.5681  156.0557 C   0  0  0  0  0  0  0  0  0  0  0  0
  151.0164  140.5362  157.5142 C   0  0  1  0  0  0  0  0  0  0  0  0
  151.6446  139.4770  158.2119 O   0  0  0  0  0  0  0  0  0  0  0  0
  151.2153  141.8861  158.1902 C   0  0  0  0  0  0  0  0  0  0  0  0
  150.2724  142.9246  158.0160 C   0  0  0  0  0  0  0  0  0  0  0  0
  150.4572  144.1676  158.6516 C   0  0  0  0  0  0  0  0  0  0  0  0
  151.5831  144.3805  159.4692 C   0  0  0  0  0  0  0  0  0  0  0  0
  151.7602  145.5754  160.0809 F   0  0  0  0  0  0  0  0  0  0  0  0
  152.5225  143.3483  159.6534 C   0  0  0  0  0  0  0  0  0  0  0  0
  152.3392  142.1038  159.0196 C   0  0  0  0  0  0  0  0  0  0  0  0
  153.2469  141.1168  159.2163 F   0  0  0  0  0  0  0  0  0  0  0  0
  151.6863  137.0284  153.6928 H   0  0  0  0  0  0  0  0  0  0  0  0
  152.1716  137.5761  155.3041 H   0  0  0  0  0  0  0  0  0  0  0  0
  152.7495  138.4340  153.8663 H   0  0  0  0  0  0  0  0  0  0  0  0
  146.8847  139.3258  152.7971 H   0  0  0  0  0  0  0  0  0  0  0  0
  145.7595  141.3628  153.7109 H   0  0  0  0  0  0  0  0  0  0  0  0
  146.8983  142.8159  155.3484 H   0  0  0  0  0  0  0  0  0  0  0  0
  149.2053  142.2995  156.1421 H   0  0  0  0  0  0  0  0  0  0  0  0
  152.4732  140.0539  155.9708 H   0  0  0  0  0  0  0  0  0  0  0  0
  151.6884  141.5933  155.7256 H   0  0  0  0  0  0  0  0  0  0  0  0
  149.9507  140.3061  157.5209 H   0  0  0  0  0  0  0  0  0  0  0  0
  151.2947  138.6590  157.8926 H   0  0  0  0  0  0  0  0  0  0  0  0
  149.4000  142.7729  157.3973 H   0  0  0  0  0  0  0  0  0  0  0  0
  149.7337  144.9577  158.5131 H   0  0  0  0  0  0  0  0  0  0  0  0
  153.3842  143.5103  160.2842 H   0  0  0  0  0  0  0  0  0  0  0  0
  149.3808  137.8910  153.0151 H   0  0  0  0  0  0  0  0  0  0  0  0
  1  2  1  0  0  0  0
  1 22  1  0  0  0  0
  1 23  1  0  0  0  0
  1 24  1  0  0  0  0
  2 10  1  0  0  0  0
  2  3  2  0  0  0  0
  3  4  1  0  0  0  0
  3 36  1  0  0  0  0
  4  9  2  0  0  0  0
  4  5  1  0  0  0  0
  5  6  2  0  0  0  0
  5 25  1  0  0  0  0
  6  7  1  0  0  0  0
  6 26  1  0  0  0  0
  7  8  2  0  0  0  0
  7 27  1  0  0  0  0
  8  9  1  0  0  0  0
  8 28  1  0  0  0  0
  9 10  1  0  0  0  0
 10 11  1  0  0  0  0
 11 12  1  0  0  0  0
 11 29  1  0  0  0  0
 11 30  1  0  0  0  0
 12 13  1  0  0  0  0
 12 14  1  0  0  0  0
 12 31  1  0  0  0  0
 13 32  1  0  0  0  0
 14 20  1  0  0  0  0
 14 15  2  0  0  0  0
 15 16  1  0  0  0  0
 15 33  1  0  0  0  0
 16 17  2  0  0  0  0
 16 34  1  0  0  0  0
 17 18  1  0  0  0  0
 17 19  1  0  0  0  0
 19 20  2  0  0  0  0
 19 35  1  0  0  0  0
 20 21  1  0  0  0  0
M  CHG  1   3   1
M  END
> <s_m_source_file>
AV-unprocessed.smi

> <i_m_source_file_index>
1918

> <i_lp_mmshare_version>
43012

> <i_f3d_flags>
0

> <s_epik_input>
W2NIXTFbY0hdW2NIXVtjSF1jKGMxMiluKGMobjIpW0NIM10pW0NIMl1bQ0BIXShbT0hdKWMzW2NIXVtjSF1jKEYpW2NIXWMzRg==

> <s_epik_cmdline>
J2VwaWtfcHl0aG9uJywgJy1waCcsICc3LjAnLCAnLXRuJywgJzgnLCAnLW1hJywgJzIwMCcsICctbWV0YWxfYmluZGluZycsICctaW1hZScsICc8aW5maWxlLm1hZT4nLCAnLW9tYWUnLCAnPG91dGZpbGUubWFlPic=

> <r_epik_Ionization_Penalty>
0.963869

> <r_epik_Ionization_Penalty_Charging>
0.963868

> <r_epik_Ionization_Penalty_Neutral>
1.79538e-06

> <r_epik_State_Penalty>
1.00924

> <r_epik_Charging_Adjusted_Penalty>
1.9731

> <i_epik_Tot_Q>
1

> <i_epik_Tot_abs_Q>
1

> <r_epik_Metal_State_Penalty>
4.98304

> <b_epik_Metal_Only>
0

> <s_lp_Force_Field>
OPLS_2005

> <r_lp_Energy>
14.6769

> <b_lp_Chiralities_Consistent>
1

> <s_lp_Variant>
AV-unprocessed.smi:1918-4

> <Gold.Version>
5.8.1

> <Gold.Id.Protein>
6NUR|6NUR_protein|mol2

> <Gold.PLP.Fitness>
53.0204

> <Gold.PLP.PLP>
-49.6061

> <Gold.PLP.part.hbond>
-1.9826

> <Gold.PLP.part.metal>
0.0000

> <Gold.PLP.part.buried>
-1.1384

> <Gold.PLP.part.nonpolar>
-46.6398

> <Gold.PLP.part.repulsive>
0.0716

> <Gold.PLP.ligand.clash>
0.0000

> <Gold.PLP.ligand.torsion>
1.3055

> <Gold.PLP.Chemscore.Hbond>
2.0000

> <Gold.PLP.Chemscore.CHOScore>
0.0000

> <Gold.PLP.Chemscore.Metal>
0.0000

> <Gold.Chemscore.Hbonds>
donor molecule, donor type, donor heavy atom, donor atom, acceptor molecule, acceptor atom, score
      L1  H     3    36       P1  7948  2.00

> <Gold.PLP.Chemscore.Internal.Correction>
0.0252

> <Gold.Rescore>
     Score         DG    S(hbond)    S(metal)    S(lipo)     H(rot)  DE(clash)    DE(int)     intcor
     14.34     -17.41       0.99        0.00     115.99       1.94       0.13       2.95       ----

> <Gold.Chemscore.Fitness>
14.3382

> <Gold.Chemscore.DG>
-17.4097

> <Gold.Chemscore.ZeroCoef>
-5.4800

> <Gold.Chemscore.Hbond>
0.9935

> <Gold.Chemscore.Metal>
0.0000

> <Gold.Chemscore.Lipo>
115.9941

> <Gold.Chemscore.Internal_Hbond>
0.0000

> <Gold.Chemscore.DEClash>
0.1262

> <Gold.Chemscore.DEInternal>
2.9453

> <Gold.Chemscore.Rot>
1.9375

> <Gold.Chemscore.Internal.Correction>
   9.000000E+99

> <Gold.Chemscore.Hbonds>
donor molecule, donor type, donor heavy atom, donor atom, acceptor molecule, acceptor atom, score
      L1  H     3    36       P1  7948  0.88

> <Gold.Chemscore.Hbond.Weighted>
-3.3182

> <Gold.Chemscore.Metal.Weighted>
-0.0000

> <Gold.Chemscore.Lipo.Weighted>
-13.5713

> <Gold.Chemscore.Internal_Hbond.Weighted>
0.0000

> <Gold.Chemscore.DEClash.Weighted>
0.1262

> <Gold.Chemscore.DEInternal.Weighted>
2.9453

> <Gold.Chemscore.Rot.Weighted>
4.9599

> <Gold.Chemscore.Internal.Correction.Weighted>
   9.000000E+99

> <Gold.Protein.RotatedTorsions>
[ 6907 6896 6895 6894 ] final -168.59 input  -60.11 | X-H torsion
[ 7974 7965 7964 7962 ] final  -36.70 input  175.53 | X-H torsion
[ 8008 7997 7996 7995 ] final   72.22 input   59.86 | X-H torsion
[ 10167 10162 10161 10158 ] final  -80.36 input  -65.29 | X-H torsion
[ 10718 10713 10712 10709 ] final   87.80 input   66.30 | X-H torsion
[ 10763 10752 10751 10750 ] final  -29.01 input  -60.55 | X-H torsion
[ 11005 11000 10999 10996 ] final -110.94 input  -57.11 | X-H torsion

> <Gold.Protein.ActiveResidues>
 VAL166  LYS551  ARG553  GLY616  TRP617  ASP618  TYR619  PRO620  LYS621  CYS622 
 ASP623  PHE694  ASN695  SER759  ASP760  ASP761  ALA762  ILE779  LEU786  VAL792 
 PHE793  MET794  SER795  GLU796  ALA797  LYS798  CYS799  TRP800  GLU811  SER814 

> <Gold.Protein.RotatedAtoms>
  151.4781  133.3553  159.2833 H   0  0  0  0  0  0  0  0  0  0  0  0  # atno 6907 bound_to 6896
  150.8916  134.8322  159.7308 H   0  0  0  0  0  0  0  0  0  0  0  0  # atno 6908 bound_to 6896
  152.4826  134.4691  159.9681 H   0  0  0  0  0  0  0  0  0  0  0  0  # atno 6909 bound_to 6896
  146.0639  140.6309  142.8984 H   0  0  0  0  0  0  0  0  0  0  0  0  # atno 7974 bound_to 7965
  155.7655  140.3485  155.5220 H   0  0  0  0  0  0  0  0  0  0  0  0  # atno 8008 bound_to 7997
  155.8872  140.1012  157.1465 H   0  0  0  0  0  0  0  0  0  0  0  0  # atno 8009 bound_to 7997
  154.4030  140.1311  156.4257 H   0  0  0  0  0  0  0  0  0  0  0  0  # atno 8010 bound_to 7997
  140.4510  143.2483  151.8488 H   0  0  0  0  0  0  0  0  0  0  0  0  # atno 10167 bound_to 10162
  157.6943  131.0269  150.3177 H   0  0  0  0  0  0  0  0  0  0  0  0  # atno 10718 bound_to 10713
  153.7577  135.6921  153.4932 H   0  0  0  0  0  0  0  0  0  0  0  0  # atno 10763 bound_to 10752
  153.1960  135.4454  155.0206 H   0  0  0  0  0  0  0  0  0  0  0  0  # atno 10764 bound_to 10752
  154.8164  135.3401  154.7094 H   0  0  0  0  0  0  0  0  0  0  0  0  # atno 10765 bound_to 10752
  141.0763  133.9295  157.2382 H   0  0  0  0  0  0  0  0  0  0  0  0  # atno 11005 bound_to 11000
  144.7191  140.4312  143.7022 LP  0  0  0  0  0  0  0  0  0  0  0  0  # atno 17320 bound_to 7965
  145.6511  139.1565  143.2861 LP  0  0  0  0  0  0  0  0  0  0  0  0  # atno 17321 bound_to 7965
  139.4797  144.5120  151.8920 LP  0  0  0  0  0  0  0  0  0  0  0  0  # atno 17342 bound_to 10162
  140.4207  144.2247  150.5887 LP  0  0  0  0  0  0  0  0  0  0  0  0  # atno 17343 bound_to 10162
  156.3669  130.3856  149.7206 LP  0  0  0  0  0  0  0  0  0  0  0  0  # atno 17370 bound_to 10713
  156.4634  130.7962  151.2982 LP  0  0  0  0  0  0  0  0  0  0  0  0  # atno 17371 bound_to 10713
  139.9576  135.0162  156.9170 LP  0  0  0  0  0  0  0  0  0  0  0  0  # atno 17394 bound_to 11000
  140.5566  134.0576  155.7385 LP  0  0  0  0  0  0  0  0  0  0  0  0  # atno 17395 bound_to 11000

$$$$
