AV-unprocessed.smi:1965|AV-procd|sdf|7946|dock1
  -GOLD-   2272010113D 1   1.00000     0.00000
 Structure written by MMmdl.
 36 38  0  0  0  0  0  0  0  0  3 V2000
  149.4546  136.2786  159.1637 O   0  0  0  0  0  0  0  0  0  0  0  0
  148.5904  137.1357  159.3428 C   0  0  0  0  0  0  0  0  0  0  0  0
  147.8821  137.2534  160.4957 N   0  5  0  0  0  0  0  0  0  0  0  0
  147.3911  136.1891  161.1571 C   0  0  0  0  0  0  0  0  0  0  0  0
  146.5740  136.2964  162.2113 N   0  0  0  0  0  0  0  0  0  0  0  0
  146.1869  135.0641  162.7410 C   0  0  0  0  0  0  0  0  0  0  0  0
  146.7212  133.9941  162.0738 C   0  0  0  0  0  0  0  0  0  0  0  0
  147.7272  134.5050  160.7487 S   0  0  0  0  0  0  0  0  0  0  0  0
  148.3180  138.0006  158.3468 N   0  0  0  0  0  0  0  0  0  0  0  0
  148.9503  138.0125  157.0318 C   0  0  2  0  0  0  0  0  0  0  0  0
  150.4521  138.2588  157.0877 C   0  0  0  0  0  0  0  0  0  0  0  0
  150.7816  138.7046  155.6595 C   0  0  0  0  0  0  0  0  0  0  0  0
  149.5442  139.3010  155.0979 N   0  3  2  0  0  0  0  0  0  0  0  0
  149.7193  140.6834  154.5774 C   0  0  0  0  0  0  0  0  0  0  0  0
  148.3627  141.3811  154.3999 C   0  0  0  0  0  0  0  0  0  0  0  0
  147.6225  141.5210  155.7435 C   0  0  0  0  0  0  0  0  0  0  0  0
  148.0631  140.4621  156.7727 C   0  0  0  0  0  0  0  0  0  0  0  0
  148.4485  139.1249  156.0922 C   0  0  2  0  0  0  0  0  0  0  0  0
  145.5274  135.0419  163.5957 H   0  0  0  0  0  0  0  0  0  0  0  0
  146.5822  132.9429  162.2766 H   0  0  0  0  0  0  0  0  0  0  0  0
  147.6033  138.6930  158.5174 H   0  0  0  0  0  0  0  0  0  0  0  0
  148.7900  137.0444  156.5522 H   0  0  0  0  0  0  0  0  0  0  0  0
  150.6770  139.0648  157.7881 H   0  0  0  0  0  0  0  0  0  0  0  0
  151.0160  137.3779  157.3967 H   0  0  0  0  0  0  0  0  0  0  0  0
  151.6343  139.3846  155.6402 H   0  0  0  0  0  0  0  0  0  0  0  0
  151.0425  137.8401  155.0485 H   0  0  0  0  0  0  0  0  0  0  0  0
  150.3339  141.2694  155.2630 H   0  0  0  0  0  0  0  0  0  0  0  0
  150.2571  140.6397  153.6298 H   0  0  0  0  0  0  0  0  0  0  0  0
  148.4926  142.3621  153.9420 H   0  0  0  0  0  0  0  0  0  0  0  0
  147.7532  140.7998  153.7065 H   0  0  0  0  0  0  0  0  0  0  0  0
  147.7915  142.5131  156.1633 H   0  0  0  0  0  0  0  0  0  0  0  0
  146.5490  141.4463  155.5668 H   0  0  0  0  0  0  0  0  0  0  0  0
  148.9179  140.8390  157.3361 H   0  0  0  0  0  0  0  0  0  0  0  0
  147.2625  140.3206  157.4991 H   0  0  0  0  0  0  0  0  0  0  0  0
  147.5672  138.7626  155.5607 H   0  0  0  0  0  0  0  0  0  0  0  0
  149.2871  138.7247  154.3095 H   0  0  0  0  0  0  0  0  0  0  0  0
  1  2  2  0  0  0  0
  2  3  1  0  0  0  0
  2  9  1  0  0  0  0
  3  4  1  0  0  0  0
  4  8  1  0  0  0  0
  4  5  2  0  0  0  0
  5  6  1  0  0  0  0
  6  7  2  0  0  0  0
  6 19  1  0  0  0  0
  7  8  1  0  0  0  0
  7 20  1  0  0  0  0
  9 10  1  0  0  0  0
  9 21  1  0  0  0  0
 10 18  1  0  0  0  0
 10 11  1  0  0  0  0
 10 22  1  0  0  0  0
 11 12  1  0  0  0  0
 11 23  1  0  0  0  0
 11 24  1  0  0  0  0
 12 13  1  0  0  0  0
 12 25  1  0  0  0  0
 12 26  1  0  0  0  0
 13 18  1  0  0  0  0
 13 14  1  0  0  0  0
 13 36  1  0  0  0  0
 14 15  1  0  0  0  0
 14 27  1  0  0  0  0
 14 28  1  0  0  0  0
 15 16  1  0  0  0  0
 15 29  1  0  0  0  0
 15 30  1  0  0  0  0
 16 17  1  0  0  0  0
 16 31  1  0  0  0  0
 16 32  1  0  0  0  0
 17 18  1  0  0  0  0
 17 33  1  0  0  0  0
 17 34  1  0  0  0  0
 18 35  1  0  0  0  0
M  CHG  1   3  -1
M  CHG  1  13   1
M  END
> <s_m_source_file>
AV-unprocessed.smi

> <i_m_source_file_index>
1965

> <i_lp_mmshare_version>
43012

> <i_f3d_flags>
0

> <s_epik_input>
czFbY0hdW2NIXW5jMVtOSF1DKD1PKVtOSF1bQ0BIXShbQ0gyXVtDSDJdMilbQ0BASF0oTjIzKVtDSDJdW0NIMl1bQ0gyXVtDSDJdMw==

> <s_epik_cmdline>
J2VwaWtfcHl0aG9uJywgJy1waCcsICc3LjAnLCAnLXRuJywgJzgnLCAnLW1hJywgJzIwMCcsICctbWV0YWxfYmluZGluZycsICctaW1hZScsICc8aW5maWxlLm1hZT4nLCAnLW9tYWUnLCAnPG91dGZpbGUubWFlPic=

> <r_lp_tautomer_probability>
1

> <r_epik_Ionization_Penalty>
7.4116

> <r_epik_Ionization_Penalty_Charging>
6.13869

> <r_epik_Ionization_Penalty_Neutral>
1.27291

> <r_epik_State_Penalty>
6.13761

> <r_epik_Charging_Adjusted_Penalty>
12.2763

> <i_epik_Tot_Q>
0

> <i_epik_Tot_abs_Q>
2

> <r_epik_Metal_State_Penalty>
2.08142

> <b_epik_Metal_Only>
1

> <s_lp_Force_Field>
OPLS_2005

> <r_lp_Energy>
32.0333

> <b_lp_Chiralities_Consistent>
1

> <s_lp_Variant>
AV-unprocessed.smi:1965-15

> <Gold.Version>
5.8.1

> <Gold.Id.Protein>
6NUR|6NUR_protein|mol2

> <Gold.PLP.Fitness>
37.2561

> <Gold.PLP.PLP>
-25.7412

> <Gold.PLP.part.hbond>
-3.0000

> <Gold.PLP.part.metal>
0.0000

> <Gold.PLP.part.buried>
-2.9557

> <Gold.PLP.part.nonpolar>
-20.4093

> <Gold.PLP.part.repulsive>
0.1853

> <Gold.PLP.ligand.clash>
0.0000

> <Gold.PLP.ligand.torsion>
0.3579

> <Gold.PLP.Chemscore.Hbond>
4.0720

> <Gold.PLP.Chemscore.CHOScore>
0.0000

> <Gold.PLP.Chemscore.Metal>
0.0000

> <Gold.Chemscore.Hbonds>
donor molecule, donor type, donor heavy atom, donor atom, acceptor molecule, acceptor atom, score
      P1  H  6896  6907       L1     1  0.78
      P1  H  6931  6943       L1     3  1.34
      P1  H  6934  6947       L1     3  1.63

> <Gold.PLP.Chemscore.Internal.Correction>
0.0146

> <Gold.Rescore>
     Score         DG    S(hbond)    S(metal)    S(lipo)     H(rot)  DE(clash)    DE(int)     intcor
     14.25     -15.97       2.04        0.00      53.36       1.00       0.00       1.71       ----

> <Gold.Chemscore.Fitness>
14.2528

> <Gold.Chemscore.DG>
-15.9724

> <Gold.Chemscore.ZeroCoef>
-5.4800

> <Gold.Chemscore.Hbond>
2.0388

> <Gold.Chemscore.Metal>
0.0000

> <Gold.Chemscore.Lipo>
53.3562

> <Gold.Chemscore.Internal_Hbond>
0.0000

> <Gold.Chemscore.DEClash>
0.0048

> <Gold.Chemscore.DEInternal>
1.7147

> <Gold.Chemscore.Rot>
1.0000

> <Gold.Chemscore.Internal.Correction>
   9.000000E+99

> <Gold.Chemscore.Hbonds>
donor molecule, donor type, donor heavy atom, donor atom, acceptor molecule, acceptor atom, score
      P1  H  6896  6907       L1     1  0.75
      P1  H  6931  6943       L1     3  0.22
      P1  H  6934  6947       L1     3  0.71

> <Gold.Chemscore.Hbond.Weighted>
-6.8097

> <Gold.Chemscore.Metal.Weighted>
-0.0000

> <Gold.Chemscore.Lipo.Weighted>
-6.2427

> <Gold.Chemscore.Internal_Hbond.Weighted>
0.0000

> <Gold.Chemscore.DEClash.Weighted>
0.0048

> <Gold.Chemscore.DEInternal.Weighted>
1.7147

> <Gold.Chemscore.Rot.Weighted>
2.5600

> <Gold.Chemscore.Internal.Correction.Weighted>
   9.000000E+99

> <Gold.Protein.RotatedTorsions>
[ 6907 6896 6895 6894 ] final  -70.25 input  -60.11 | X-H torsion
[ 7974 7965 7964 7962 ] final  129.49 input  175.53 | X-H torsion
[ 8008 7997 7996 7995 ] final  -46.13 input   59.86 | X-H torsion
[ 10167 10162 10161 10158 ] final -102.29 input  -65.29 | X-H torsion
[ 10718 10713 10712 10709 ] final  -34.66 input   66.30 | X-H torsion
[ 10763 10752 10751 10750 ] final  -15.15 input  -60.55 | X-H torsion
[ 11005 11000 10999 10996 ] final  179.03 input  -57.11 | X-H torsion

> <Gold.Protein.ActiveResidues>
 VAL166  LYS551  ARG553  GLY616  TRP617  ASP618  TYR619  PRO620  LYS621  CYS622 
 ASP623  PHE694  ASN695  SER759  ASP760  ASP761  ALA762  ILE779  LEU786  VAL792 
 PHE793  MET794  SER795  GLU796  ALA797  LYS798  CYS799  TRP800  GLU811  SER814 

> <Gold.Protein.RotatedAtoms>
  150.7266  134.5480  159.5779 H   0  0  0  0  0  0  0  0  0  0  0  0  # atno 6907 bound_to 6896
  152.2974  134.7648  160.0374 H   0  0  0  0  0  0  0  0  0  0  0  0  # atno 6908 bound_to 6896
  151.8240  133.3363  159.3629 H   0  0  0  0  0  0  0  0  0  0  0  0  # atno 6909 bound_to 6896
  145.0281  139.4071  143.5164 H   0  0  0  0  0  0  0  0  0  0  0  0  # atno 7974 bound_to 7965
  154.4005  140.1379  156.3961 H   0  0  0  0  0  0  0  0  0  0  0  0  # atno 8008 bound_to 7997
  155.7868  140.3480  155.5307 H   0  0  0  0  0  0  0  0  0  0  0  0  # atno 8009 bound_to 7997
  155.8619  140.0958  157.1598 H   0  0  0  0  0  0  0  0  0  0  0  0  # atno 8010 bound_to 7997
  140.2322  143.3598  152.0876 H   0  0  0  0  0  0  0  0  0  0  0  0  # atno 10167 bound_to 10162
  156.3479  130.4304  149.7730 H   0  0  0  0  0  0  0  0  0  0  0  0  # atno 10718 bound_to 10713
  153.5389  135.7013  153.5646 H   0  0  0  0  0  0  0  0  0  0  0  0  # atno 10763 bound_to 10752
  153.3620  135.3967  155.1725 H   0  0  0  0  0  0  0  0  0  0  0  0  # atno 10764 bound_to 10752
  154.8676  135.3791  154.4892 H   0  0  0  0  0  0  0  0  0  0  0  0  # atno 10765 bound_to 10752
  140.4017  134.6771  157.4565 H   0  0  0  0  0  0  0  0  0  0  0  0  # atno 11005 bound_to 11000
  146.3495  139.9815  142.8695 LP  0  0  0  0  0  0  0  0  0  0  0  0  # atno 17320 bound_to 7965
  145.1807  140.9766  143.4268 LP  0  0  0  0  0  0  0  0  0  0  0  0  # atno 17321 bound_to 7965
  139.5106  144.6887  151.5819 LP  0  0  0  0  0  0  0  0  0  0  0  0  # atno 17342 bound_to 10162
  140.6177  143.9318  150.6501 LP  0  0  0  0  0  0  0  0  0  0  0  0  # atno 17343 bound_to 10162
  156.4941  130.8098  151.3106 LP  0  0  0  0  0  0  0  0  0  0  0  0  # atno 17370 bound_to 10713
  157.7457  130.9966  150.2785 LP  0  0  0  0  0  0  0  0  0  0  0  0  # atno 17371 bound_to 10713
  140.0332  134.6376  155.9079 LP  0  0  0  0  0  0  0  0  0  0  0  0  # atno 17394 bound_to 11000
  141.1854  133.6555  156.5197 LP  0  0  0  0  0  0  0  0  0  0  0  0  # atno 17395 bound_to 11000

$$$$
