AV-unprocessed.smi:598|AV-procd|sdf|3028|dock2
  -GOLD-   2262023543D 1   1.00000     0.00000
 Structure written by MMmdl.
 43 44  0  0  0  0  0  0  0  0  3 V2000
  146.4786  132.8566  151.4152 C   0  0  0  0  0  0  0  0  0  0  0  0
  146.1076  134.2358  151.9897 C   0  0  1  0  0  0  0  0  0  0  0  0
  144.6208  134.5340  151.7049 C   0  0  0  0  0  0  0  0  0  0  0  0
  144.1897  135.9041  152.2449 C   0  0  0  0  0  0  0  0  0  0  0  0
  144.4822  136.0199  153.7480 C   0  0  0  0  0  0  0  0  0  0  0  0
  145.9622  135.7404  154.0683 C   0  0  2  0  0  0  0  0  0  0  0  0
  146.7903  136.8378  153.5617 N   0  0  0  0  0  0  0  0  0  0  0  0
  146.6799  138.1343  153.8905 C   0  0  0  0  0  0  0  0  0  0  0  0
  145.8580  138.5599  154.7035 O   0  0  0  0  0  0  0  0  0  0  0  0
  147.6683  139.0808  153.1937 C   0  0  0  0  0  0  0  0  0  0  0  0
  148.7457  139.5640  154.0744 N   0  0  0  0  0  0  0  0  0  0  0  0
  149.9022  138.7646  154.1658 C   0  0  0  0  0  0  0  0  0  0  0  0
  150.9488  139.1055  154.9431 C   0  0  0  0  0  0  0  0  0  0  0  0
  152.1276  138.2712  155.0262 N   0  3  0  0  0  0  0  0  0  0  0  0
  152.1793  137.2554  154.3401 O   0  0  0  0  0  0  0  0  0  0  0  0
  153.0387  138.6011  155.7798 O   0  5  0  0  0  0  0  0  0  0  0  0
  150.8541  140.3398  155.6983 C   0  0  0  0  0  0  0  0  0  0  0  0
  149.7493  141.1071  155.6180 C   0  0  0  0  0  0  0  0  0  0  0  0
  148.6103  140.7328  154.7733 C   0  0  0  0  0  0  0  0  0  0  0  0
  147.5964  141.4273  154.6990 O   0  0  0  0  0  0  0  0  0  0  0  0
  146.4106  134.3625  153.5091 C   0  0  2  0  0  0  0  0  0  0  0  0
  147.8801  134.0553  153.8616 C   0  0  0  0  0  0  0  0  0  0  0  0
  145.9681  132.0540  151.9485 H   0  0  0  0  0  0  0  0  0  0  0  0
  147.5506  132.6696  151.4715 H   0  0  0  0  0  0  0  0  0  0  0  0
  146.2013  132.7835  150.3629 H   0  0  0  0  0  0  0  0  0  0  0  0
  146.7040  134.9788  151.4581 H   0  0  0  0  0  0  0  0  0  0  0  0
  144.4316  134.4944  150.6314 H   0  0  0  0  0  0  0  0  0  0  0  0
  143.9985  133.7584  152.1537 H   0  0  0  0  0  0  0  0  0  0  0  0
  144.7089  136.6942  151.7011 H   0  0  0  0  0  0  0  0  0  0  0  0
  143.1253  136.0553  152.0626 H   0  0  0  0  0  0  0  0  0  0  0  0
  144.1972  137.0087  154.1097 H   0  0  0  0  0  0  0  0  0  0  0  0
  143.8571  135.3081  154.2890 H   0  0  0  0  0  0  0  0  0  0  0  0
  146.0471  135.7059  155.1558 H   0  0  0  0  0  0  0  0  0  0  0  0
  147.5021  136.5860  152.8911 H   0  0  0  0  0  0  0  0  0  0  0  0
  148.0877  138.5621  152.3299 H   0  0  0  0  0  0  0  0  0  0  0  0
  147.1146  139.9239  152.7757 H   0  0  0  0  0  0  0  0  0  0  0  0
  149.8716  137.8630  153.5708 H   0  0  0  0  0  0  0  0  0  0  0  0
  151.6680  140.6575  156.3337 H   0  0  0  0  0  0  0  0  0  0  0  0
  149.6993  142.0222  156.1897 H   0  0  0  0  0  0  0  0  0  0  0  0
  145.8083  133.6101  154.0208 H   0  0  0  0  0  0  0  0  0  0  0  0
  148.5704  134.6703  153.2841 H   0  0  0  0  0  0  0  0  0  0  0  0
  148.1287  133.0111  153.6741 H   0  0  0  0  0  0  0  0  0  0  0  0
  148.0743  134.2399  154.9185 H   0  0  0  0  0  0  0  0  0  0  0  0
  1  2  1  0  0  0  0
  1 23  1  0  0  0  0
  1 24  1  0  0  0  0
  1 25  1  0  0  0  0
  2 21  1  0  0  0  0
  2  3  1  0  0  0  0
  2 26  1  0  0  0  0
  3  4  1  0  0  0  0
  3 27  1  0  0  0  0
  3 28  1  0  0  0  0
  4  5  1  0  0  0  0
  4 29  1  0  0  0  0
  4 30  1  0  0  0  0
  5  6  1  0  0  0  0
  5 31  1  0  0  0  0
  5 32  1  0  0  0  0
  6  7  1  0  0  0  0
  6 21  1  0  0  0  0
  6 33  1  0  0  0  0
  7  8  1  0  0  0  0
  7 34  1  0  0  0  0
  8  9  2  0  0  0  0
  8 10  1  0  0  0  0
 10 11  1  0  0  0  0
 10 35  1  0  0  0  0
 10 36  1  0  0  0  0
 11 19  1  0  0  0  0
 11 12  1  0  0  0  0
 12 13  2  0  0  0  0
 12 37  1  0  0  0  0
 13 14  1  0  0  0  0
 13 17  1  0  0  0  0
 14 15  2  0  0  0  0
 14 16  1  0  0  0  0
 17 18  2  0  0  0  0
 17 38  1  0  0  0  0
 18 19  1  0  0  0  0
 18 39  1  0  0  0  0
 19 20  2  0  0  0  0
 21 22  1  0  0  0  0
 21 40  1  0  0  0  0
 22 41  1  0  0  0  0
 22 42  1  0  0  0  0
 22 43  1  0  0  0  0
M  CHG  1  14   1
M  CHG  1  16  -1
M  END
> <s_m_source_file>
AV-unprocessed.smi

> <i_m_source_file_index>
598

> <i_lp_mmshare_version>
43012

> <i_f3d_flags>
0

> <s_epik_input>
W0NIM11bQ0BASF0xW0NIMl1bQ0gyXVtDSDJdW0NASF0oW0NASF0xW0NIM10pW05IXUMoPU8pW0NIMl1uMltjSF1jKFtOK10oPU8pW08tXSlbY0hdW2NIXWMyPU8=

> <s_epik_cmdline>
J2VwaWtfcHl0aG9uJywgJy1waCcsICc3LjAnLCAnLXRuJywgJzgnLCAnLW1hJywgJzIwMCcsICctbWV0YWxfYmluZGluZycsICctaW1hZScsICc8aW5maWxlLm1hZT4nLCAnLW9tYWUnLCAnPG91dGZpbGUubWFlPic=

> <r_lp_tautomer_probability>
1

> <r_epik_Ionization_Penalty>
1.91291e-08

> <r_epik_Ionization_Penalty_Charging>
8.21931e-11

> <r_epik_Ionization_Penalty_Neutral>
1.90469e-08

> <r_epik_State_Penalty>
-0

> <r_epik_Charging_Adjusted_Penalty>
8.21931e-11

> <i_epik_Tot_Q>
0

> <i_epik_Tot_abs_Q>
2

> <r_epik_Metal_State_Penalty>
-0

> <b_epik_Metal_Only>
0

> <s_lp_Force_Field>
OPLS_2005

> <r_lp_Energy>
23.1067

> <b_lp_Chiralities_Consistent>
1

> <s_lp_Variant>
AV-unprocessed.smi:598-8

> <Gold.Version>
5.8.1

> <Gold.Id.Protein>
6NUR|6NUR_protein|mol2

> <Gold.PLP.Fitness>
44.0570

> <Gold.PLP.PLP>
-33.5992

> <Gold.PLP.part.hbond>
-3.0000

> <Gold.PLP.part.metal>
0.0000

> <Gold.PLP.part.buried>
-0.3791

> <Gold.PLP.part.nonpolar>
-30.2839

> <Gold.PLP.part.repulsive>
0.3525

> <Gold.PLP.ligand.clash>
0.0000

> <Gold.PLP.ligand.torsion>
0.5348

> <Gold.PLP.Chemscore.Hbond>
2.8320

> <Gold.PLP.Chemscore.CHOScore>
1.0000

> <Gold.PLP.Chemscore.Metal>
0.0000

> <Gold.Chemscore.Hbonds>
donor molecule, donor type, donor heavy atom, donor atom, acceptor molecule, acceptor atom, score
      L1  H     7    34       P1  7948  1.00
      P1  H  7997  8010       L1    16  0.93
      P1  H 10752 10763       L1    15  0.85
      L1  C    12    37       P1  7948  1.00

> <Gold.PLP.Chemscore.Internal.Correction>
0.0314

> <Gold.Rescore>
     Score         DG    S(hbond)    S(metal)    S(lipo)     H(rot)  DE(clash)    DE(int)     intcor
     17.70     -18.27       2.80        0.00      63.18       1.54       0.04       0.53       ----

> <Gold.Chemscore.Fitness>
17.6970

> <Gold.Chemscore.DG>
-18.2687

> <Gold.Chemscore.ZeroCoef>
-5.4800

> <Gold.Chemscore.Hbond>
2.7956

> <Gold.Chemscore.Metal>
0.0000

> <Gold.Chemscore.Lipo>
63.1798

> <Gold.Chemscore.Internal_Hbond>
0.0000

> <Gold.Chemscore.DEClash>
0.0372

> <Gold.Chemscore.DEInternal>
0.5345

> <Gold.Chemscore.Rot>
1.5393

> <Gold.Chemscore.Internal.Correction>
   9.000000E+99

> <Gold.Chemscore.Hbonds>
donor molecule, donor type, donor heavy atom, donor atom, acceptor molecule, acceptor atom, score
      L1  H     7    34       P1  7948  1.00
      P1  H  7997  8010       L1    16  0.85
      P1  H 10752 10763       L1    15  0.85

> <Gold.Chemscore.Hbond.Weighted>
-9.3374

> <Gold.Chemscore.Metal.Weighted>
-0.0000

> <Gold.Chemscore.Lipo.Weighted>
-7.3920

> <Gold.Chemscore.Internal_Hbond.Weighted>
0.0000

> <Gold.Chemscore.DEClash.Weighted>
0.0372

> <Gold.Chemscore.DEInternal.Weighted>
0.5345

> <Gold.Chemscore.Rot.Weighted>
3.9407

> <Gold.Chemscore.Internal.Correction.Weighted>
   9.000000E+99

> <Gold.Protein.RotatedTorsions>
[ 6907 6896 6895 6894 ] final -141.82 input  -60.11 | X-H torsion
[ 7974 7965 7964 7962 ] final   84.02 input  175.53 | X-H torsion
[ 8008 7997 7996 7995 ] final   90.98 input   59.86 | X-H torsion
[ 10167 10162 10161 10158 ] final   86.99 input  -65.29 | X-H torsion
[ 10718 10713 10712 10709 ] final  -87.37 input   66.30 | X-H torsion
[ 10763 10752 10751 10750 ] final   37.97 input  -60.55 | X-H torsion
[ 11005 11000 10999 10996 ] final   25.53 input  -57.11 | X-H torsion

> <Gold.Protein.ActiveResidues>
 VAL166  LYS551  ARG553  GLY616  TRP617  ASP618  TYR619  PRO620  LYS621  CYS622 
 ASP623  PHE694  ASN695  SER759  ASP760  ASP761  ALA762  ILE779  LEU786  VAL792 
 PHE793  MET794  SER795  GLU796  ALA797  LYS798  CYS799  TRP800  GLU811  SER814 

> <Gold.Protein.RotatedAtoms>
  151.0788  133.5406  159.2621 H   0  0  0  0  0  0  0  0  0  0  0  0  # atno 6907 bound_to 6896
  151.2317  135.0556  159.9000 H   0  0  0  0  0  0  0  0  0  0  0  0  # atno 6908 bound_to 6896
  152.5421  134.0576  159.8191 H   0  0  0  0  0  0  0  0  0  0  0  0  # atno 6909 bound_to 6896
  145.6042  139.2357  143.2229 H   0  0  0  0  0  0  0  0  0  0  0  0  # atno 7974 bound_to 7965
  156.0184  140.3343  155.7013 H   0  0  0  0  0  0  0  0  0  0  0  0  # atno 8008 bound_to 7997
  155.6058  140.0660  157.2738 H   0  0  0  0  0  0  0  0  0  0  0  0  # atno 8009 bound_to 7997
  154.4307  140.1802  156.1208 H   0  0  0  0  0  0  0  0  0  0  0  0  # atno 8010 bound_to 7997
  139.8819  144.6435  150.8834 H   0  0  0  0  0  0  0  0  0  0  0  0  # atno 10167 bound_to 10162
  155.9985  130.4798  150.4857 H   0  0  0  0  0  0  0  0  0  0  0  0  # atno 10718 bound_to 10713
  153.0018  135.6263  154.2230 H   0  0  0  0  0  0  0  0  0  0  0  0  # atno 10763 bound_to 10752
  154.1972  135.2806  155.3004 H   0  0  0  0  0  0  0  0  0  0  0  0  # atno 10764 bound_to 10752
  154.5712  135.5676  153.7156 H   0  0  0  0  0  0  0  0  0  0  0  0  # atno 10765 bound_to 10752
  140.3468  134.2272  155.7684 H   0  0  0  0  0  0  0  0  0  0  0  0  # atno 11005 bound_to 11000
  146.1553  140.6866  142.9303 LP  0  0  0  0  0  0  0  0  0  0  0  0  # atno 17320 bound_to 7965
  144.7297  140.4634  143.6947 LP  0  0  0  0  0  0  0  0  0  0  0  0  # atno 17321 bound_to 7965
  140.7743  143.3579  151.1885 LP  0  0  0  0  0  0  0  0  0  0  0  0  # atno 17342 bound_to 10162
  139.7188  143.9256  152.2977 LP  0  0  0  0  0  0  0  0  0  0  0  0  # atno 17343 bound_to 10162
  157.2858  131.0616  151.2167 LP  0  0  0  0  0  0  0  0  0  0  0  0  # atno 17370 bound_to 10713
  157.3198  130.6931  149.6262 LP  0  0  0  0  0  0  0  0  0  0  0  0  # atno 17371 bound_to 10713
  141.2023  133.7940  157.0397 LP  0  0  0  0  0  0  0  0  0  0  0  0  # atno 17394 bound_to 11000
  140.0735  134.9688  157.1507 LP  0  0  0  0  0  0  0  0  0  0  0  0  # atno 17395 bound_to 11000

$$$$
