AV-unprocessed.smi:2604|AV-procd|sdf|10190|dock8
  -GOLD-   2272014203D 1   1.00000     0.00000
 Structure written by MMmdl.
 26 27  0  0  0  0  0  0  0  0  2 V2000
  150.9052  141.4143  157.8583 C   0  0  0  0  0  0  0  0  0  0  0  0
  152.1305  140.7234  157.7801 C   0  0  0  0  0  0  0  0  0  0  0  0
  152.4822  139.9567  156.7257 N   0  0  0  0  0  0  0  0  0  0  0  0
  151.6124  139.8565  155.6980 C   0  0  0  0  0  0  0  0  0  0  0  0
  150.3613  140.5106  155.6696 C   0  0  0  0  0  0  0  0  0  0  0  0
  149.4301  140.3391  154.4806 C   0  0  1  0  0  0  0  0  0  0  0  0
  149.2793  138.8482  154.1008 C   0  0  0  0  0  0  0  0  0  0  0  0
  148.4061  138.7007  152.9186 N   0  3  0  0  0  0  0  0  0  0  0  0
  147.0961  139.3432  153.1417 C   0  0  0  0  0  0  0  0  0  0  0  0
  147.2939  140.8206  153.5266 C   0  0  0  0  0  0  0  0  0  0  0  0
  148.1077  140.9113  154.7349 N   0  0  0  0  0  0  0  0  0  0  0  0
  150.0036  141.3036  156.7825 C   0  0  0  0  0  0  0  0  0  0  0  0
  150.6637  142.0140  158.7234 H   0  0  0  0  0  0  0  0  0  0  0  0
  152.8459  140.7868  158.5866 H   0  0  0  0  0  0  0  0  0  0  0  0
  151.9258  139.2333  154.8732 H   0  0  0  0  0  0  0  0  0  0  0  0
  149.8708  140.8781  153.6402 H   0  0  0  0  0  0  0  0  0  0  0  0
  150.2527  138.4144  153.8704 H   0  0  0  0  0  0  0  0  0  0  0  0
  148.8621  138.2751  154.9303 H   0  0  0  0  0  0  0  0  0  0  0  0
  148.8531  139.1424  152.1282 H   0  0  0  0  0  0  0  0  0  0  0  0
  146.5005  139.2638  152.2319 H   0  0  0  0  0  0  0  0  0  0  0  0
  146.5562  138.8105  153.9260 H   0  0  0  0  0  0  0  0  0  0  0  0
  147.7668  141.3756  152.7152 H   0  0  0  0  0  0  0  0  0  0  0  0
  146.3285  141.2905  153.7155 H   0  0  0  0  0  0  0  0  0  0  0  0
  148.2046  141.8796  155.0081 H   0  0  0  0  0  0  0  0  0  0  0  0
  149.0545  141.8186  156.8152 H   0  0  0  0  0  0  0  0  0  0  0  0
  148.2716  137.7198  152.7192 H   0  0  0  0  0  0  0  0  0  0  0  0
  1 12  1  0  0  0  0
  1  2  2  0  0  0  0
  1 13  1  0  0  0  0
  2  3  1  0  0  0  0
  2 14  1  0  0  0  0
  3  4  2  0  0  0  0
  4  5  1  0  0  0  0
  4 15  1  0  0  0  0
  5  6  1  0  0  0  0
  5 12  2  0  0  0  0
  6 11  1  0  0  0  0
  6  7  1  0  0  0  0
  6 16  1  0  0  0  0
  7  8  1  0  0  0  0
  7 17  1  0  0  0  0
  7 18  1  0  0  0  0
  8  9  1  0  0  0  0
  8 19  1  0  0  0  0
  8 26  1  0  0  0  0
  9 10  1  0  0  0  0
  9 20  1  0  0  0  0
  9 21  1  0  0  0  0
 10 11  1  0  0  0  0
 10 22  1  0  0  0  0
 10 23  1  0  0  0  0
 11 24  1  0  0  0  0
 12 25  1  0  0  0  0
M  CHG  1   8   1
M  END
> <s_m_source_file>
AV-unprocessed.smi

> <i_m_source_file_index>
2604

> <i_lp_mmshare_version>
43012

> <i_f3d_flags>
0

> <s_epik_input>
W2NIXTFbY0hdW2NIXW5bY0hdYzFbQ0BASF0yW0NIMl1bTkhdW0NIMl1bQ0gyXVtOSF0y

> <s_epik_cmdline>
J2VwaWtfcHl0aG9uJywgJy1waCcsICc3LjAnLCAnLXRuJywgJzgnLCAnLW1hJywgJzIwMCcsICctbWV0YWxfYmluZGluZycsICctaW1hZScsICc8aW5maWxlLm1hZT4nLCAnLW9tYWUnLCAnPG91dGZpbGUubWFlPic=

> <r_epik_Ionization_Penalty>
0.0181456

> <r_epik_Ionization_Penalty_Charging>
0.010317

> <r_epik_Ionization_Penalty_Neutral>
0.00782861

> <r_epik_State_Penalty>
0.306622

> <r_epik_Charging_Adjusted_Penalty>
0.316939

> <i_epik_Tot_Q>
1

> <i_epik_Tot_abs_Q>
1

> <r_epik_Metal_State_Penalty>
0.302658

> <b_epik_Metal_Only>
0

> <s_lp_Force_Field>
OPLS_2005

> <r_lp_Energy>
10.6943

> <b_lp_Chiralities_Consistent>
1

> <s_lp_Variant>
AV-unprocessed.smi:2604-2

> <Gold.Version>
5.8.1

> <Gold.Id.Protein>
6NUR|6NUR_protein|mol2

> <Gold.PLP.Fitness>
35.5247

> <Gold.PLP.PLP>
-24.7517

> <Gold.PLP.part.hbond>
-2.8861

> <Gold.PLP.part.metal>
0.0000

> <Gold.PLP.part.buried>
-1.7483

> <Gold.PLP.part.nonpolar>
-19.5695

> <Gold.PLP.part.repulsive>
0.0763

> <Gold.PLP.ligand.clash>
0.0000

> <Gold.PLP.ligand.torsion>
0.1949

> <Gold.PLP.Chemscore.Hbond>
3.7183

> <Gold.PLP.Chemscore.CHOScore>
0.0000

> <Gold.PLP.Chemscore.Metal>
0.0000

> <Gold.Chemscore.Hbonds>
donor molecule, donor type, donor heavy atom, donor atom, acceptor molecule, acceptor atom, score
      L1  H     8    19       P1  7957  0.93
      L1  H     8    26       P1  7948  1.76
      P1  H  7997  8010       L1     3  1.00

> <Gold.PLP.Chemscore.Internal.Correction>
0.0081

> <Gold.Rescore>
     Score         DG    S(hbond)    S(metal)    S(lipo)     H(rot)  DE(clash)    DE(int)     intcor
     18.76     -18.98       2.74        0.00      59.11       1.00       0.08       0.14       ----

> <Gold.Chemscore.Fitness>
18.7626

> <Gold.Chemscore.DG>
-18.9844

> <Gold.Chemscore.ZeroCoef>
-5.4800

> <Gold.Chemscore.Hbond>
2.7389

> <Gold.Chemscore.Metal>
0.0000

> <Gold.Chemscore.Lipo>
59.1139

> <Gold.Chemscore.Internal_Hbond>
0.0000

> <Gold.Chemscore.DEClash>
0.0814

> <Gold.Chemscore.DEInternal>
0.1404

> <Gold.Chemscore.Rot>
1.0000

> <Gold.Chemscore.Internal.Correction>
   9.000000E+99

> <Gold.Chemscore.Hbonds>
donor molecule, donor type, donor heavy atom, donor atom, acceptor molecule, acceptor atom, score
      L1  H     8    19       P1  7957  0.88
      L1  H     8    26       P1  7948  0.87
      P1  H  7997  8010       L1     3  0.75

> <Gold.Chemscore.Hbond.Weighted>
-9.1481

> <Gold.Chemscore.Metal.Weighted>
-0.0000

> <Gold.Chemscore.Lipo.Weighted>
-6.9163

> <Gold.Chemscore.Internal_Hbond.Weighted>
0.0000

> <Gold.Chemscore.DEClash.Weighted>
0.0814

> <Gold.Chemscore.DEInternal.Weighted>
0.1404

> <Gold.Chemscore.Rot.Weighted>
2.5600

> <Gold.Chemscore.Internal.Correction.Weighted>
   9.000000E+99

> <Gold.Protein.RotatedTorsions>
[ 6907 6896 6895 6894 ] final  176.57 input  -60.11 | X-H torsion
[ 7974 7965 7964 7962 ] final   38.46 input  175.53 | X-H torsion
[ 8008 7997 7996 7995 ] final   78.35 input   59.86 | X-H torsion
[ 10167 10162 10161 10158 ] final  -13.15 input  -65.29 | X-H torsion
[ 10718 10713 10712 10709 ] final -133.30 input   66.30 | X-H torsion
[ 10763 10752 10751 10750 ] final   64.13 input  -60.55 | X-H torsion
[ 11005 11000 10999 10996 ] final  -16.52 input  -57.11 | X-H torsion

> <Gold.Protein.ActiveResidues>
 VAL166  LYS551  ARG553  GLY616  TRP617  ASP618  TYR619  PRO620  LYS621  CYS622 
 ASP623  PHE694  ASN695  SER759  ASP760  ASP761  ALA762  ILE779  LEU786  VAL792 
 PHE793  MET794  SER795  GLU796  ALA797  LYS798  CYS799  TRP800  GLU811  SER814 

> <Gold.Protein.RotatedAtoms>
  151.7180  133.3314  159.3307 H   0  0  0  0  0  0  0  0  0  0  0  0  # atno 6907 bound_to 6896
  150.7665  134.6473  159.6278 H   0  0  0  0  0  0  0  0  0  0  0  0  # atno 6908 bound_to 6896
  152.3670  134.6793  160.0240 H   0  0  0  0  0  0  0  0  0  0  0  0  # atno 6909 bound_to 6896
  146.1060  139.5769  142.9383 H   0  0  0  0  0  0  0  0  0  0  0  0  # atno 7974 bound_to 7965
  155.8545  140.3456  155.5715 H   0  0  0  0  0  0  0  0  0  0  0  0  # atno 8008 bound_to 7997
  155.8001  140.0884  157.1981 H   0  0  0  0  0  0  0  0  0  0  0  0  # atno 8009 bound_to 7997
  154.4009  140.1467  156.3251 H   0  0  0  0  0  0  0  0  0  0  0  0  # atno 8010 bound_to 7997
  140.7176  143.5457  150.9358 H   0  0  0  0  0  0  0  0  0  0  0  0  # atno 10167 bound_to 10162
  156.2435  130.7110  151.0981 H   0  0  0  0  0  0  0  0  0  0  0  0  # atno 10718 bound_to 10713
  153.0044  135.5404  154.6461 H   0  0  0  0  0  0  0  0  0  0  0  0  # atno 10763 bound_to 10752
  154.5704  135.2841  155.0835 H   0  0  0  0  0  0  0  0  0  0  0  0  # atno 10764 bound_to 10752
  154.2002  135.6485  153.5137 H   0  0  0  0  0  0  0  0  0  0  0  0  # atno 10765 bound_to 10752
  140.8076  133.8165  155.9531 H   0  0  0  0  0  0  0  0  0  0  0  0  # atno 11005 bound_to 11000
  145.5760  141.0388  143.2148 LP  0  0  0  0  0  0  0  0  0  0  0  0  # atno 17320 bound_to 7965
  144.7471  139.7291  143.7288 LP  0  0  0  0  0  0  0  0  0  0  0  0  # atno 17321 bound_to 7965
  139.9180  143.6640  152.3102 LP  0  0  0  0  0  0  0  0  0  0  0  0  # atno 17342 bound_to 10162
  139.7046  144.7630  151.1214 LP  0  0  0  0  0  0  0  0  0  0  0  0  # atno 17343 bound_to 10162
  157.7185  131.0695  150.6231 LP  0  0  0  0  0  0  0  0  0  0  0  0  # atno 17370 bound_to 10713
  156.6305  130.4431  149.5788 LP  0  0  0  0  0  0  0  0  0  0  0  0  # atno 17371 bound_to 10713
  140.9231  134.2117  157.4914 LP  0  0  0  0  0  0  0  0  0  0  0  0  # atno 17394 bound_to 11000
  139.8716  134.9801  156.5061 LP  0  0  0  0  0  0  0  0  0  0  0  0  # atno 17395 bound_to 11000

$$$$
