AV-unprocessed.smi:1198|AV-procd|sdf|5013|dock7
  -GOLD-   22720 4 33D 1   1.00000     0.00000
 Structure written by MMmdl.
 40 41  0  0  0  0  0  0  0  0  2 V2000
  150.5603  142.1460  157.5826 C   0  0  0  0  0  0  0  0  0  0  0  0
  150.8896  141.7952  156.2427 O   0  0  0  0  0  0  0  0  0  0  0  0
  150.6104  140.5136  155.8141 C   0  0  0  0  0  0  0  0  0  0  0  0
  150.3166  139.5282  156.7773 C   0  0  0  0  0  0  0  0  0  0  0  0
  150.0336  138.2191  156.3437 C   0  0  0  0  0  0  0  0  0  0  0  0
  150.0605  137.9293  154.9645 C   0  0  0  0  0  0  0  0  0  0  0  0
  149.7546  136.6030  154.5546 N   0  0  0  0  0  0  0  0  0  0  0  0
  149.7742  135.4761  155.2874 C   0  0  0  0  0  0  0  0  0  0  0  0
  150.0231  135.4138  156.4911 O   0  0  0  0  0  0  0  0  0  0  0  0
  149.4590  134.4058  154.5436 N   0  0  0  0  0  0  0  0  0  0  0  0
  149.4143  133.0274  155.0231 C   0  0  0  0  0  0  0  0  0  0  0  0
  149.1076  132.0230  153.8950 C   0  0  1  0  0  0  0  0  0  0  0  0
  149.2142  130.5614  154.3305 C   0  0  0  0  0  0  0  0  0  0  0  0
  148.3538  129.7910  153.3205 C   0  0  0  0  0  0  0  0  0  0  0  0
  147.4861  130.7885  152.6527 N   0  3  1  0  0  0  0  0  0  0  0  0
  146.0714  130.3833  152.5185 C   0  0  0  0  0  0  0  0  0  0  0  0
  147.6846  132.0823  153.3346 C   0  0  0  0  0  0  0  0  0  0  0  0
  150.3529  138.9922  154.0749 C   0  0  0  0  0  0  0  0  0  0  0  0
  150.6244  140.2494  154.4844 N   0  0  0  0  0  0  0  0  0  0  0  0
  150.8400  143.1836  157.7640 H   0  0  0  0  0  0  0  0  0  0  0  0
  151.1006  141.5280  158.3011 H   0  0  0  0  0  0  0  0  0  0  0  0
  149.4888  142.0557  157.7669 H   0  0  0  0  0  0  0  0  0  0  0  0
  150.3083  139.7727  157.8293 H   0  0  0  0  0  0  0  0  0  0  0  0
  149.8030  137.4483  157.0648 H   0  0  0  0  0  0  0  0  0  0  0  0
  149.4478  136.5070  153.5976 H   0  0  0  0  0  0  0  0  0  0  0  0
  149.2630  134.5512  153.5637 H   0  0  0  0  0  0  0  0  0  0  0  0
  150.3889  132.7992  155.4553 H   0  0  0  0  0  0  0  0  0  0  0  0
  148.6926  132.9265  155.8359 H   0  0  0  0  0  0  0  0  0  0  0  0
  149.8081  132.1849  153.0738 H   0  0  0  0  0  0  0  0  0  0  0  0
  150.2447  130.2063  154.3604 H   0  0  0  0  0  0  0  0  0  0  0  0
  148.7941  130.4388  155.3300 H   0  0  0  0  0  0  0  0  0  0  0  0
  148.9744  129.3088  152.5648 H   0  0  0  0  0  0  0  0  0  0  0  0
  147.7775  129.0115  153.8217 H   0  0  0  0  0  0  0  0  0  0  0  0
  145.6119  130.2278  153.4957 H   0  0  0  0  0  0  0  0  0  0  0  0
  145.9935  129.4558  151.9506 H   0  0  0  0  0  0  0  0  0  0  0  0
  145.5044  131.1510  151.9911 H   0  0  0  0  0  0  0  0  0  0  0  0
  146.9669  132.1800  154.1512 H   0  0  0  0  0  0  0  0  0  0  0  0
  147.5347  132.9182  152.6507 H   0  0  0  0  0  0  0  0  0  0  0  0
  150.3553  138.8603  153.0045 H   0  0  0  0  0  0  0  0  0  0  0  0
  147.8560  130.9021  151.7197 H   0  0  0  0  0  0  0  0  0  0  0  0
  1  2  1  0  0  0  0
  1 20  1  0  0  0  0
  1 21  1  0  0  0  0
  1 22  1  0  0  0  0
  2  3  1  0  0  0  0
  3 19  1  0  0  0  0
  3  4  2  0  0  0  0
  4  5  1  0  0  0  0
  4 23  1  0  0  0  0
  5  6  2  0  0  0  0
  5 24  1  0  0  0  0
  6  7  1  0  0  0  0
  6 18  1  0  0  0  0
  7  8  1  0  0  0  0
  7 25  1  0  0  0  0
  8  9  2  0  0  0  0
  8 10  1  0  0  0  0
 10 11  1  0  0  0  0
 10 26  1  0  0  0  0
 11 12  1  0  0  0  0
 11 27  1  0  0  0  0
 11 28  1  0  0  0  0
 12 17  1  0  0  0  0
 12 13  1  0  0  0  0
 12 29  1  0  0  0  0
 13 14  1  0  0  0  0
 13 30  1  0  0  0  0
 13 31  1  0  0  0  0
 14 15  1  0  0  0  0
 14 32  1  0  0  0  0
 14 33  1  0  0  0  0
 15 16  1  0  0  0  0
 15 17  1  0  0  0  0
 15 40  1  0  0  0  0
 16 34  1  0  0  0  0
 16 35  1  0  0  0  0
 16 36  1  0  0  0  0
 17 37  1  0  0  0  0
 17 38  1  0  0  0  0
 18 19  2  0  0  0  0
 18 39  1  0  0  0  0
M  CHG  1  15   1
M  END
> <s_m_source_file>
AV-unprocessed.smi

> <i_m_source_file_index>
1198

> <i_lp_mmshare_version>
43012

> <i_f3d_flags>
0

> <s_epik_input>
W0NIM11PYzFbY0hdW2NIXWMoW2NIXW4xKVtOSF1DKD1PKVtOSF1bQ0gyXVtDQEBIXTJbQ0gyXVtDSDJdTihbQ0gzXSlbQ0gyXTI=

> <s_epik_cmdline>
J2VwaWtfcHl0aG9uJywgJy1waCcsICc3LjAnLCAnLXRuJywgJzgnLCAnLW1hJywgJzIwMCcsICctbWV0YWxfYmluZGluZycsICctaW1hZScsICc8aW5maWxlLm1hZT4nLCAnLW9tYWUnLCAnPG91dGZpbGUubWFlPic=

> <r_lp_tautomer_probability>
1

> <r_epik_Ionization_Penalty>
0.00131396

> <r_epik_Ionization_Penalty_Charging>
0.0012301

> <r_epik_Ionization_Penalty_Neutral>
8.38549e-05

> <r_epik_State_Penalty>
0.00081314

> <r_epik_Charging_Adjusted_Penalty>
0.00204324

> <i_epik_Tot_Q>
1

> <i_epik_Tot_abs_Q>
1

> <r_epik_Metal_State_Penalty>
-0

> <b_epik_Metal_Only>
0

> <s_lp_Force_Field>
OPLS_2005

> <r_lp_Energy>
29.2509

> <b_lp_Chiralities_Consistent>
1

> <s_lp_Variant>
AV-unprocessed.smi:1198-4

> <Gold.Version>
5.8.1

> <Gold.Id.Protein>
6NUR|6NUR_protein|mol2

> <Gold.PLP.Fitness>
41.7645

> <Gold.PLP.PLP>
-30.0241

> <Gold.PLP.part.hbond>
-3.2928

> <Gold.PLP.part.metal>
0.0000

> <Gold.PLP.part.buried>
-3.7296

> <Gold.PLP.part.nonpolar>
-22.4318

> <Gold.PLP.part.repulsive>
0.2493

> <Gold.PLP.ligand.clash>
0.0092

> <Gold.PLP.ligand.torsion>
0.3017

> <Gold.PLP.Chemscore.Hbond>
3.1141

> <Gold.PLP.Chemscore.CHOScore>
1.0000

> <Gold.PLP.Chemscore.Metal>
0.0000

> <Gold.Chemscore.Hbonds>
donor molecule, donor type, donor heavy atom, donor atom, acceptor molecule, acceptor atom, score
      L1  H     7    25       P1  7948  1.00
      L1  H    10    26       P1  7948  0.09
      L1  H    15    40       P1 10747  1.00
      P1  H  7989  7998       L1    19  1.00
      L1  C    18    39       P1  7957  1.00

> <Gold.PLP.Chemscore.Internal.Correction>
0.0106

> <Gold.Rescore>
     Score         DG    S(hbond)    S(metal)    S(lipo)     H(rot)  DE(clash)    DE(int)     intcor
     16.20     -17.88       2.75        0.00      60.65       1.51       0.06       1.63       ----

> <Gold.Chemscore.Fitness>
16.1987

> <Gold.Chemscore.DG>
-17.8841

> <Gold.Chemscore.ZeroCoef>
-5.4800

> <Gold.Chemscore.Hbond>
2.7504

> <Gold.Chemscore.Metal>
0.0000

> <Gold.Chemscore.Lipo>
60.6497

> <Gold.Chemscore.Internal_Hbond>
0.0000

> <Gold.Chemscore.DEClash>
0.0589

> <Gold.Chemscore.DEInternal>
1.6266

> <Gold.Chemscore.Rot>
1.5149

> <Gold.Chemscore.Internal.Correction>
   9.000000E+99

> <Gold.Chemscore.Hbonds>
donor molecule, donor type, donor heavy atom, donor atom, acceptor molecule, acceptor atom, score
      L1  H     7    25       P1  7948  0.78
      L1  H    10    26       P1  7948  0.01
      L1  H    15    40       P1 10747  1.00
      P1  H  7989  7998       L1    19  0.61

> <Gold.Chemscore.Hbond.Weighted>
-9.1862

> <Gold.Chemscore.Metal.Weighted>
-0.0000

> <Gold.Chemscore.Lipo.Weighted>
-7.0960

> <Gold.Chemscore.Internal_Hbond.Weighted>
0.0000

> <Gold.Chemscore.DEClash.Weighted>
0.0589

> <Gold.Chemscore.DEInternal.Weighted>
1.6266

> <Gold.Chemscore.Rot.Weighted>
3.8781

> <Gold.Chemscore.Internal.Correction.Weighted>
   9.000000E+99

> <Gold.Protein.RotatedTorsions>
[ 6907 6896 6895 6894 ] final   63.58 input  -60.11 | X-H torsion
[ 7974 7965 7964 7962 ] final  132.30 input  175.53 | X-H torsion
[ 8008 7997 7996 7995 ] final -157.54 input   59.86 | X-H torsion
[ 10167 10162 10161 10158 ] final  143.15 input  -65.29 | X-H torsion
[ 10718 10713 10712 10709 ] final -115.16 input   66.30 | X-H torsion
[ 10763 10752 10751 10750 ] final  130.09 input  -60.55 | X-H torsion
[ 11005 11000 10999 10996 ] final  149.55 input  -57.11 | X-H torsion

> <Gold.Protein.ActiveResidues>
 VAL166  LYS551  ARG553  GLY616  TRP617  ASP618  TYR619  PRO620  LYS621  CYS622 
 ASP623  PHE694  ASN695  SER759  ASP760  ASP761  ALA762  ILE779  LEU786  VAL792 
 PHE793  MET794  SER795  GLU796  ALA797  LYS798  CYS799  TRP800  GLU811  SER814 

> <Gold.Protein.RotatedAtoms>
  152.4264  134.5860  159.9960 H   0  0  0  0  0  0  0  0  0  0  0  0  # atno 6907 bound_to 6896
  151.5995  133.3352  159.3052 H   0  0  0  0  0  0  0  0  0  0  0  0  # atno 6908 bound_to 6896
  150.8154  134.7369  159.6790 H   0  0  0  0  0  0  0  0  0  0  0  0  # atno 6909 bound_to 6896
  144.9982  139.4338  143.5305 H   0  0  0  0  0  0  0  0  0  0  0  0  # atno 7974 bound_to 7965
  155.7340  140.0805  157.2276 H   0  0  0  0  0  0  0  0  0  0  0  0  # atno 8008 bound_to 7997
  154.4029  140.1590  156.2596 H   0  0  0  0  0  0  0  0  0  0  0  0  # atno 8009 bound_to 7997
  155.9082  140.3405  155.6081 H   0  0  0  0  0  0  0  0  0  0  0  0  # atno 8010 bound_to 7997
  139.4976  144.6059  151.6378 H   0  0  0  0  0  0  0  0  0  0  0  0  # atno 10167 bound_to 10162
  156.0877  130.6066  150.8870 H   0  0  0  0  0  0  0  0  0  0  0  0  # atno 10718 bound_to 10713
  153.7523  135.3208  155.3323 H   0  0  0  0  0  0  0  0  0  0  0  0  # atno 10763 bound_to 10752
  154.8259  135.4570  154.0919 H   0  0  0  0  0  0  0  0  0  0  0  0  # atno 10764 bound_to 10752
  153.2126  135.6937  153.8179 H   0  0  0  0  0  0  0  0  0  0  0  0  # atno 10765 bound_to 10752
  140.1055  134.8957  157.1859 H   0  0  0  0  0  0  0  0  0  0  0  0  # atno 11005 bound_to 11000
  146.3446  139.9355  142.8748 LP  0  0  0  0  0  0  0  0  0  0  0  0  # atno 17320 bound_to 7965
  145.2190  140.9927  143.4057 LP  0  0  0  0  0  0  0  0  0  0  0  0  # atno 17321 bound_to 7965
  140.5721  144.0091  150.6222 LP  0  0  0  0  0  0  0  0  0  0  0  0  # atno 17342 bound_to 10162
  140.3212  143.3136  152.0782 LP  0  0  0  0  0  0  0  0  0  0  0  0  # atno 17343 bound_to 10162
  157.6017  131.0941  150.8948 LP  0  0  0  0  0  0  0  0  0  0  0  0  # atno 17370 bound_to 10713
  156.9104  130.5279  149.5280 LP  0  0  0  0  0  0  0  0  0  0  0  0  # atno 17371 bound_to 10713
  140.3162  134.2968  155.7256 LP  0  0  0  0  0  0  0  0  0  0  0  0  # atno 17394 bound_to 11000
  141.2117  133.7681  156.9847 LP  0  0  0  0  0  0  0  0  0  0  0  0  # atno 17395 bound_to 11000

$$$$
