AV-unprocessed.smi:1570|AV-procd|sdf|6320|dock8
  -GOLD-   22720 6523D 1   1.00000     0.00000
 Structure written by MMmdl.
 52 54  0  0  0  0  0  0  0  0  2 V2000
  153.5753  142.0036  162.2128 C   0  0  0  0  0  0  0  0  0  0  0  0
  153.8771  141.1085  161.0037 C   0  0  0  0  0  0  0  0  0  0  0  0
  152.8737  141.2810  159.9564 N   0  0  0  0  0  0  0  0  0  0  0  0
  152.2849  140.2979  159.2358 C   0  0  0  0  0  0  0  0  0  0  0  0
  152.4912  139.0903  159.3550 O   0  0  0  0  0  0  0  0  0  0  0  0
  151.4584  140.8753  158.3316 N   0  0  0  0  0  0  0  0  0  0  0  0
  150.6570  140.1913  157.3174 C   0  0  0  0  0  0  0  0  0  0  0  0
  151.5139  139.2716  156.4235 C   0  0  2  0  0  0  0  0  0  0  0  0
  152.7821  139.8762  156.2715 O   0  0  0  0  0  0  0  0  0  0  0  0
  150.9055  139.0435  155.0226 C   0  0  0  0  0  0  0  0  0  0  0  0
  149.5148  139.5505  154.9145 N   0  3  1  0  0  0  0  0  0  0  0  0
  149.4337  141.0173  154.7053 C   0  0  0  0  0  0  0  0  0  0  0  0
  147.9675  141.4897  154.6582 C   0  0  2  0  0  0  0  0  0  0  0  0
  147.2800  141.4948  156.0351 C   0  0  0  0  0  0  0  0  0  0  0  0
  147.2372  140.7359  153.6901 O   0  0  0  0  0  0  0  0  0  0  0  0
  147.2715  139.3237  153.8806 C   0  0  1  0  0  0  0  0  0  0  0  0
  146.4489  138.6760  152.7612 C   0  0  0  0  0  0  0  0  0  0  0  0
  148.7327  138.8413  153.8762 C   0  0  0  0  0  0  0  0  0  0  0  0
  151.5317  142.2687  158.4695 C   0  0  0  0  0  0  0  0  0  0  0  0
  150.8875  143.3016  157.7665 C   0  0  0  0  0  0  0  0  0  0  0  0
  151.1925  144.6297  158.1460 C   0  0  0  0  0  0  0  0  0  0  0  0
  152.1127  144.8932  159.1937 C   0  0  0  0  0  0  0  0  0  0  0  0
  152.7469  143.8342  159.8851 C   0  0  0  0  0  0  0  0  0  0  0  0
  152.4238  142.5244  159.4895 C   0  0  0  0  0  0  0  0  0  0  0  0
  154.3268  141.8707  162.9911 H   0  0  0  0  0  0  0  0  0  0  0  0
  152.6029  141.7669  162.6460 H   0  0  0  0  0  0  0  0  0  0  0  0
  153.5707  143.0574  161.9322 H   0  0  0  0  0  0  0  0  0  0  0  0
  154.8678  141.3404  160.6095 H   0  0  0  0  0  0  0  0  0  0  0  0
  153.9118  140.0631  161.3110 H   0  0  0  0  0  0  0  0  0  0  0  0
  149.8535  139.6223  157.7884 H   0  0  0  0  0  0  0  0  0  0  0  0
  150.1651  140.9511  156.7083 H   0  0  0  0  0  0  0  0  0  0  0  0
  151.6619  138.3235  156.9393 H   0  0  0  0  0  0  0  0  0  0  0  0
  152.8971  140.1129  155.3633 H   0  0  0  0  0  0  0  0  0  0  0  0
  151.5066  139.5216  154.2492 H   0  0  0  0  0  0  0  0  0  0  0  0
  150.9288  137.9743  154.8059 H   0  0  0  0  0  0  0  0  0  0  0  0
  149.9659  141.5543  155.4899 H   0  0  0  0  0  0  0  0  0  0  0  0
  149.9271  141.2704  153.7655 H   0  0  0  0  0  0  0  0  0  0  0  0
  147.9636  142.5204  154.3019 H   0  0  0  0  0  0  0  0  0  0  0  0
  147.7839  142.1822  156.7150 H   0  0  0  0  0  0  0  0  0  0  0  0
  147.2869  140.5124  156.5066 H   0  0  0  0  0  0  0  0  0  0  0  0
  146.2425  141.8184  155.9502 H   0  0  0  0  0  0  0  0  0  0  0  0
  146.8045  139.0687  154.8320 H   0  0  0  0  0  0  0  0  0  0  0  0
  146.4346  137.5902  152.8622 H   0  0  0  0  0  0  0  0  0  0  0  0
  146.8587  138.9155  151.7794 H   0  0  0  0  0  0  0  0  0  0  0  0
  145.4161  139.0247  152.7849 H   0  0  0  0  0  0  0  0  0  0  0  0
  149.1881  139.0095  152.8987 H   0  0  0  0  0  0  0  0  0  0  0  0
  148.7612  137.7672  154.0630 H   0  0  0  0  0  0  0  0  0  0  0  0
  150.1901  143.0947  156.9684 H   0  0  0  0  0  0  0  0  0  0  0  0
  150.7198  145.4532  157.6312 H   0  0  0  0  0  0  0  0  0  0  0  0
  152.3324  145.9151  159.4662 H   0  0  0  0  0  0  0  0  0  0  0  0
  153.4505  144.0292  160.6807 H   0  0  0  0  0  0  0  0  0  0  0  0
  149.0677  139.3458  155.7971 H   0  0  0  0  0  0  0  0  0  0  0  0
  1  2  1  0  0  0  0
  1 25  1  0  0  0  0
  1 26  1  0  0  0  0
  1 27  1  0  0  0  0
  2  3  1  0  0  0  0
  2 28  1  0  0  0  0
  2 29  1  0  0  0  0
  3 24  1  0  0  0  0
  3  4  1  0  0  0  0
  4  5  2  0  0  0  0
  4  6  1  0  0  0  0
  6  7  1  0  0  0  0
  6 19  1  0  0  0  0
  7  8  1  0  0  0  0
  7 30  1  0  0  0  0
  7 31  1  0  0  0  0
  8  9  1  0  0  0  0
  8 10  1  0  0  0  0
  8 32  1  0  0  0  0
  9 33  1  0  0  0  0
 10 11  1  0  0  0  0
 10 34  1  0  0  0  0
 10 35  1  0  0  0  0
 11 18  1  0  0  0  0
 11 12  1  0  0  0  0
 11 52  1  0  0  0  0
 12 13  1  0  0  0  0
 12 36  1  0  0  0  0
 12 37  1  0  0  0  0
 13 14  1  0  0  0  0
 13 15  1  0  0  0  0
 13 38  1  0  0  0  0
 14 39  1  0  0  0  0
 14 40  1  0  0  0  0
 14 41  1  0  0  0  0
 15 16  1  0  0  0  0
 16 17  1  0  0  0  0
 16 18  1  0  0  0  0
 16 42  1  0  0  0  0
 17 43  1  0  0  0  0
 17 44  1  0  0  0  0
 17 45  1  0  0  0  0
 18 46  1  0  0  0  0
 18 47  1  0  0  0  0
 19 24  2  0  0  0  0
 19 20  1  0  0  0  0
 20 21  2  0  0  0  0
 20 48  1  0  0  0  0
 21 22  1  0  0  0  0
 21 49  1  0  0  0  0
 22 23  2  0  0  0  0
 22 50  1  0  0  0  0
 23 24  1  0  0  0  0
 23 51  1  0  0  0  0
M  CHG  1  11   1
M  END
> <s_m_source_file>
AV-unprocessed.smi

> <i_m_source_file_index>
1570

> <i_lp_mmshare_version>
43012

> <i_f3d_flags>
0

> <s_epik_input>
W2NIXTFbY0hdW2NIXVtjSF1jKGMxMiluKFtDSDJdW0NIM10pYyg9TyluMltDSDJdW0NASF0oW09IXSlbQ0gyXU4zW0NIMl1bQ0BASF0oW0NIM10pT1tDQEBIXShbQ0gzXSlbQ0gyXTM=

> <s_epik_cmdline>
J2VwaWtfcHl0aG9uJywgJy1waCcsICc3LjAnLCAnLXRuJywgJzgnLCAnLW1hJywgJzIwMCcsICctbWV0YWxfYmluZGluZycsICctaW1hZScsICc8aW5maWxlLm1hZT4nLCAnLW9tYWUnLCAnPG91dGZpbGUubWFlPic=

> <r_epik_Ionization_Penalty>
0.706332

> <r_epik_Ionization_Penalty_Charging>
0.706318

> <r_epik_Ionization_Penalty_Neutral>
1.42224e-05

> <r_epik_State_Penalty>
0.729493

> <r_epik_Charging_Adjusted_Penalty>
1.43581

> <i_epik_Tot_Q>
1

> <i_epik_Tot_abs_Q>
1

> <r_epik_Metal_State_Penalty>
0.729493

> <b_epik_Metal_Only>
0

> <s_lp_Force_Field>
OPLS_2005

> <r_lp_Energy>
53.5828

> <b_lp_Chiralities_Consistent>
1

> <s_lp_Variant>
AV-unprocessed.smi:1570-9

> <Gold.Version>
5.8.1

> <Gold.Id.Protein>
6NUR|6NUR_protein|mol2

> <Gold.PLP.Fitness>
50.0025

> <Gold.PLP.PLP>
-51.8785

> <Gold.PLP.part.hbond>
-1.0000

> <Gold.PLP.part.metal>
0.0000

> <Gold.PLP.part.buried>
-1.9165

> <Gold.PLP.part.nonpolar>
-48.9860

> <Gold.PLP.part.repulsive>
0.2448

> <Gold.PLP.ligand.clash>
0.4883

> <Gold.PLP.ligand.torsion>
1.4281

> <Gold.PLP.Chemscore.Hbond>
0.4640

> <Gold.PLP.Chemscore.CHOScore>
0.0000

> <Gold.PLP.Chemscore.Metal>
0.0000

> <Gold.Chemscore.Hbonds>
donor molecule, donor type, donor heavy atom, donor atom, acceptor molecule, acceptor atom, score
      P1  H  7997  8008       L1     9  0.48

> <Gold.PLP.Chemscore.Internal.Correction>
0.0764

> <Gold.Rescore>
     Score         DG    S(hbond)    S(metal)    S(lipo)     H(rot)  DE(clash)    DE(int)     intcor
     15.39     -16.86       0.06        0.00     142.09       2.13       0.07       1.40       ----

> <Gold.Chemscore.Fitness>
15.3948

> <Gold.Chemscore.DG>
-16.8562

> <Gold.Chemscore.ZeroCoef>
-5.4800

> <Gold.Chemscore.Hbond>
0.0614

> <Gold.Chemscore.Metal>
0.0000

> <Gold.Chemscore.Lipo>
142.0919

> <Gold.Chemscore.Internal_Hbond>
0.0000

> <Gold.Chemscore.DEClash>
0.0655

> <Gold.Chemscore.DEInternal>
1.3959

> <Gold.Chemscore.Rot>
2.1303

> <Gold.Chemscore.Internal.Correction>
   9.000000E+99

> <Gold.Chemscore.Hbonds>
donor molecule, donor type, donor heavy atom, donor atom, acceptor molecule, acceptor atom, score
      P1  H  7997  8008       L1     9  0.14

> <Gold.Chemscore.Hbond.Weighted>
-0.2050

> <Gold.Chemscore.Metal.Weighted>
-0.0000

> <Gold.Chemscore.Lipo.Weighted>
-16.6248

> <Gold.Chemscore.Internal_Hbond.Weighted>
0.0000

> <Gold.Chemscore.DEClash.Weighted>
0.0655

> <Gold.Chemscore.DEInternal.Weighted>
1.3959

> <Gold.Chemscore.Rot.Weighted>
5.4535

> <Gold.Chemscore.Internal.Correction.Weighted>
   9.000000E+99

> <Gold.Protein.RotatedTorsions>
[ 6907 6896 6895 6894 ] final  132.00 input  -60.11 | X-H torsion
[ 7974 7965 7964 7962 ] final   23.99 input  175.53 | X-H torsion
[ 8008 7997 7996 7995 ] final  -81.05 input   59.86 | X-H torsion
[ 10167 10162 10161 10158 ] final  143.83 input  -65.29 | X-H torsion
[ 10718 10713 10712 10709 ] final  -61.54 input   66.30 | X-H torsion
[ 10763 10752 10751 10750 ] final   88.35 input  -60.55 | X-H torsion
[ 11005 11000 10999 10996 ] final  112.26 input  -57.11 | X-H torsion

> <Gold.Protein.ActiveResidues>
 VAL166  LYS551  ARG553  GLY616  TRP617  ASP618  TYR619  PRO620  LYS621  CYS622 
 ASP623  PHE694  ASN695  SER759  ASP760  ASP761  ALA762  ILE779  LEU786  VAL792 
 PHE793  MET794  SER795  GLU796  ALA797  LYS798  CYS799  TRP800  GLU811  SER814 

> <Gold.Protein.RotatedAtoms>
  152.3369  133.6022  159.5848 H   0  0  0  0  0  0  0  0  0  0  0  0  # atno 6907 bound_to 6896
  150.7455  133.9782  159.3576 H   0  0  0  0  0  0  0  0  0  0  0  0  # atno 6908 bound_to 6896
  151.7651  135.0801  160.0402 H   0  0  0  0  0  0  0  0  0  0  0  0  # atno 6909 bound_to 6896
  146.1958  139.7667  142.8798 H   0  0  0  0  0  0  0  0  0  0  0  0  # atno 7974 bound_to 7965
  154.5944  140.0653  156.9284 H   0  0  0  0  0  0  0  0  0  0  0  0  # atno 8008 bound_to 7997
  155.2239  140.3332  155.4294 H   0  0  0  0  0  0  0  0  0  0  0  0  # atno 8009 bound_to 7997
  156.2277  140.1827  156.7305 H   0  0  0  0  0  0  0  0  0  0  0  0  # atno 8010 bound_to 7997
  139.4960  144.6014  151.6473 H   0  0  0  0  0  0  0  0  0  0  0  0  # atno 10167 bound_to 10162
  156.0915  130.4199  150.1008 H   0  0  0  0  0  0  0  0  0  0  0  0  # atno 10718 bound_to 10713
  153.1759  135.4510  154.9964 H   0  0  0  0  0  0  0  0  0  0  0  0  # atno 10763 bound_to 10752
  154.7998  135.3251  154.7581 H   0  0  0  0  0  0  0  0  0  0  0  0  # atno 10764 bound_to 10752
  153.8051  135.6959  153.4904 H   0  0  0  0  0  0  0  0  0  0  0  0  # atno 10765 bound_to 10752
  139.8923  134.9526  156.6559 H   0  0  0  0  0  0  0  0  0  0  0  0  # atno 11005 bound_to 11000
  145.3647  141.0332  143.3265 LP  0  0  0  0  0  0  0  0  0  0  0  0  # atno 17320 bound_to 7965
  144.8578  139.5222  143.6826 LP  0  0  0  0  0  0  0  0  0  0  0  0  # atno 17321 bound_to 7965
  140.5664  144.0182  150.6195 LP  0  0  0  0  0  0  0  0  0  0  0  0  # atno 17342 bound_to 10162
  140.3285  143.3092  152.0711 LP  0  0  0  0  0  0  0  0  0  0  0  0  # atno 17343 bound_to 10162
  156.9017  130.9622  151.3575 LP  0  0  0  0  0  0  0  0  0  0  0  0  # atno 17370 bound_to 10713
  157.6065  130.8551  149.8884 LP  0  0  0  0  0  0  0  0  0  0  0  0  # atno 17371 bound_to 10713
  140.7485  133.8918  155.8329 LP  0  0  0  0  0  0  0  0  0  0  0  0  # atno 17394 bound_to 11000
  141.0020  134.1137  157.4307 LP  0  0  0  0  0  0  0  0  0  0  0  0  # atno 17395 bound_to 11000

$$$$
