AV-unprocessed.smi:1893|AV-procd|sdf|7672|dock9
  -GOLD-   22720 9413D 1   1.00000     0.00000
 Structure written by MMmdl.
 43 44  0  0  0  0  0  0  0  0  2 V2000
  144.4966  133.1729  149.9566 C   0  0  0  0  0  0  0  0  0  0  0  0
  144.0951  132.4360  151.2530 C   0  0  1  0  0  0  0  0  0  0  0  0
  145.0960  131.3236  151.6307 C   0  0  0  0  0  0  0  0  0  0  0  0
  146.4155  131.8927  152.1731 C   0  0  0  0  0  0  0  0  0  0  0  0
  146.1357  132.8488  153.3391 C   0  0  0  0  0  0  0  0  0  0  0  0
  145.1380  133.9450  152.9318 C   0  0  0  0  0  0  0  0  0  0  0  0
  143.8751  133.3517  152.4125 N   0  3  1  0  0  0  0  0  0  0  0  0
  142.7975  134.3498  152.1922 C   0  0  0  0  0  0  0  0  0  0  0  0
  142.3829  135.0517  153.4997 C   0  0  0  0  0  0  0  0  0  0  0  0
  141.3880  136.0904  153.2621 N   0  0  0  0  0  0  0  0  0  0  0  0
  140.8004  136.8245  154.2206 C   0  0  0  0  0  0  0  0  0  0  0  0
  141.0752  136.7083  155.4155 O   0  0  0  0  0  0  0  0  0  0  0  0
  139.7408  137.8342  153.7534 C   0  0  2  0  0  0  0  0  0  0  0  0
  140.1996  139.2962  153.9291 C   0  0  0  0  0  0  0  0  0  0  0  0
  138.4699  137.5670  154.4164 N   0  0  0  0  0  0  0  0  0  0  0  0
  138.1884  136.7474  155.4319 C   0  0  0  0  0  0  0  0  0  0  0  0
  136.9232  136.7897  155.8248 N   0  0  0  0  0  0  0  0  0  0  0  0
  136.4464  137.7301  154.9562 C   0  0  0  0  0  0  0  0  0  0  0  0
  137.3338  138.2378  154.1011 N   0  0  0  0  0  0  0  0  0  0  0  0
  144.6198  132.4660  149.1358 H   0  0  0  0  0  0  0  0  0  0  0  0
  145.4365  133.7141  150.0589 H   0  0  0  0  0  0  0  0  0  0  0  0
  143.7357  133.8884  149.6456 H   0  0  0  0  0  0  0  0  0  0  0  0
  143.1429  131.9424  151.0536 H   0  0  0  0  0  0  0  0  0  0  0  0
  144.6482  130.6829  152.3919 H   0  0  0  0  0  0  0  0  0  0  0  0
  145.2909  130.6805  150.7718 H   0  0  0  0  0  0  0  0  0  0  0  0
  147.0662  131.0815  152.5013 H   0  0  0  0  0  0  0  0  0  0  0  0
  146.9524  132.4178  151.3827 H   0  0  0  0  0  0  0  0  0  0  0  0
  145.7347  132.2866  154.1837 H   0  0  0  0  0  0  0  0  0  0  0  0
  147.0670  133.3004  153.6828 H   0  0  0  0  0  0  0  0  0  0  0  0
  144.9318  134.5676  153.8016 H   0  0  0  0  0  0  0  0  0  0  0  0
  145.5805  134.6032  152.1837 H   0  0  0  0  0  0  0  0  0  0  0  0
  143.1179  135.0732  151.4408 H   0  0  0  0  0  0  0  0  0  0  0  0
  141.9167  133.8504  151.7854 H   0  0  0  0  0  0  0  0  0  0  0  0
  141.9537  134.3251  154.1903 H   0  0  0  0  0  0  0  0  0  0  0  0
  143.2413  135.4913  154.0083 H   0  0  0  0  0  0  0  0  0  0  0  0
  141.1067  136.2460  152.3046 H   0  0  0  0  0  0  0  0  0  0  0  0
  139.5827  137.6747  152.6854 H   0  0  0  0  0  0  0  0  0  0  0  0
  141.1274  139.4841  153.3881 H   0  0  0  0  0  0  0  0  0  0  0  0
  140.3713  139.5519  154.9755 H   0  0  0  0  0  0  0  0  0  0  0  0
  139.4503  139.9864  153.5404 H   0  0  0  0  0  0  0  0  0  0  0  0
  138.9259  136.1104  155.8978 H   0  0  0  0  0  0  0  0  0  0  0  0
  135.4169  138.0565  154.9600 H   0  0  0  0  0  0  0  0  0  0  0  0
  143.5328  132.7524  153.1499 H   0  0  0  0  0  0  0  0  0  0  0  0
  1  2  1  0  0  0  0
  1 20  1  0  0  0  0
  1 21  1  0  0  0  0
  1 22  1  0  0  0  0
  2  7  1  0  0  0  0
  2  3  1  0  0  0  0
  2 23  1  0  0  0  0
  3  4  1  0  0  0  0
  3 24  1  0  0  0  0
  3 25  1  0  0  0  0
  4  5  1  0  0  0  0
  4 26  1  0  0  0  0
  4 27  1  0  0  0  0
  5  6  1  0  0  0  0
  5 28  1  0  0  0  0
  5 29  1  0  0  0  0
  6  7  1  0  0  0  0
  6 30  1  0  0  0  0
  6 31  1  0  0  0  0
  7  8  1  0  0  0  0
  7 43  1  0  0  0  0
  8  9  1  0  0  0  0
  8 32  1  0  0  0  0
  8 33  1  0  0  0  0
  9 10  1  0  0  0  0
  9 34  1  0  0  0  0
  9 35  1  0  0  0  0
 10 11  1  0  0  0  0
 10 36  1  0  0  0  0
 11 12  2  0  0  0  0
 11 13  1  0  0  0  0
 13 14  1  0  0  0  0
 13 15  1  0  0  0  0
 13 37  1  0  0  0  0
 14 38  1  0  0  0  0
 14 39  1  0  0  0  0
 14 40  1  0  0  0  0
 15 19  1  0  0  0  0
 15 16  1  0  0  0  0
 16 17  2  0  0  0  0
 16 41  1  0  0  0  0
 17 18  1  0  0  0  0
 18 19  2  0  0  0  0
 18 42  1  0  0  0  0
M  CHG  1   7   1
M  END
> <s_m_source_file>
AV-unprocessed.smi

> <i_m_source_file_index>
1893

> <i_lp_mmshare_version>
43012

> <i_f3d_flags>
0

> <s_epik_input>
W0NIM11bQ0BASF0xW0NIMl1bQ0gyXVtDSDJdW0NIMl1OMVtDSDJdW0NIMl1bTkhdQyg9TylbQ0BIXShbQ0gzXSluMltjSF1uW2NIXW4y

> <s_epik_cmdline>
J2VwaWtfcHl0aG9uJywgJy1waCcsICc3LjAnLCAnLXRuJywgJzgnLCAnLW1hJywgJzIwMCcsICctbWV0YWxfYmluZGluZycsICctaW1hZScsICc8aW5maWxlLm1hZT4nLCAnLW9tYWUnLCAnPG91dGZpbGUubWFlPic=

> <r_lp_tautomer_probability>
1

> <r_epik_Ionization_Penalty>
0.00266409

> <r_epik_Ionization_Penalty_Charging>
0.00265606

> <r_epik_Ionization_Penalty_Neutral>
8.02794e-06

> <r_epik_State_Penalty>
0.00184955

> <r_epik_Charging_Adjusted_Penalty>
0.00450561

> <i_epik_Tot_Q>
1

> <i_epik_Tot_abs_Q>
1

> <r_epik_Metal_State_Penalty>
-0

> <b_epik_Metal_Only>
0

> <s_lp_Force_Field>
OPLS_2005

> <r_lp_Energy>
25.286

> <b_lp_Chiralities_Consistent>
1

> <s_lp_Variant>
AV-unprocessed.smi:1893-2

> <Gold.Version>
5.8.1

> <Gold.Id.Protein>
6NUR|6NUR_protein|mol2

> <Gold.PLP.Fitness>
40.5003

> <Gold.PLP.PLP>
-31.7651

> <Gold.PLP.part.hbond>
-1.8749

> <Gold.PLP.part.metal>
0.0000

> <Gold.PLP.part.buried>
-4.9632

> <Gold.PLP.part.nonpolar>
-24.5455

> <Gold.PLP.part.repulsive>
0.1254

> <Gold.PLP.ligand.clash>
0.0000

> <Gold.PLP.ligand.torsion>
0.2062

> <Gold.PLP.Chemscore.Hbond>
2.0000

> <Gold.PLP.Chemscore.CHOScore>
1.0000

> <Gold.PLP.Chemscore.Metal>
0.0000

> <Gold.Chemscore.Hbonds>
donor molecule, donor type, donor heavy atom, donor atom, acceptor molecule, acceptor atom, score
      L1  H     7    43       P1 10957  1.72
      L1  C    16    41       P1 11000  1.00

> <Gold.PLP.Chemscore.Internal.Correction>
0.1476

> <Gold.Rescore>
     Score         DG    S(hbond)    S(metal)    S(lipo)     H(rot)  DE(clash)    DE(int)     intcor
      7.56      -8.91       0.93        0.00      58.37       2.54       0.02       1.33       ----

> <Gold.Chemscore.Fitness>
7.5575

> <Gold.Chemscore.DG>
-8.9072

> <Gold.Chemscore.ZeroCoef>
-5.4800

> <Gold.Chemscore.Hbond>
0.9265

> <Gold.Chemscore.Metal>
0.0000

> <Gold.Chemscore.Lipo>
58.3695

> <Gold.Chemscore.Internal_Hbond>
0.0000

> <Gold.Chemscore.DEClash>
0.0234

> <Gold.Chemscore.DEInternal>
1.3262

> <Gold.Chemscore.Rot>
2.5377

> <Gold.Chemscore.Internal.Correction>
   9.000000E+99

> <Gold.Chemscore.Hbonds>
donor molecule, donor type, donor heavy atom, donor atom, acceptor molecule, acceptor atom, score
      L1  H     7    43       P1 10957  0.29

> <Gold.Chemscore.Hbond.Weighted>
-3.0945

> <Gold.Chemscore.Metal.Weighted>
-0.0000

> <Gold.Chemscore.Lipo.Weighted>
-6.8292

> <Gold.Chemscore.Internal_Hbond.Weighted>
0.0000

> <Gold.Chemscore.DEClash.Weighted>
0.0234

> <Gold.Chemscore.DEInternal.Weighted>
1.3262

> <Gold.Chemscore.Rot.Weighted>
6.4966

> <Gold.Chemscore.Internal.Correction.Weighted>
   9.000000E+99

> <Gold.Protein.RotatedTorsions>
[ 6907 6896 6895 6894 ] final   48.31 input  -60.11 | X-H torsion
[ 7974 7965 7964 7962 ] final  116.14 input  175.53 | X-H torsion
[ 8008 7997 7996 7995 ] final   93.68 input   59.86 | X-H torsion
[ 10167 10162 10161 10158 ] final  146.03 input  -65.29 | X-H torsion
[ 10718 10713 10712 10709 ] final -118.50 input   66.30 | X-H torsion
[ 10763 10752 10751 10750 ] final -167.52 input  -60.55 | X-H torsion
[ 11005 11000 10999 10996 ] final -103.33 input  -57.11 | X-H torsion

> <Gold.Protein.ActiveResidues>
 VAL166  LYS551  ARG553  GLY616  TRP617  ASP618  TYR619  PRO620  LYS621  CYS622 
 ASP623  PHE694  ASN695  SER759  ASP760  ASP761  ALA762  ILE779  LEU786  VAL792 
 PHE793  MET794  SER795  GLU796  ALA797  LYS798  CYS799  TRP800  GLU811  SER814 

> <Gold.Protein.RotatedAtoms>
  152.2781  134.7859  160.0401 H   0  0  0  0  0  0  0  0  0  0  0  0  # atno 6907 bound_to 6896
  151.8448  133.3424  159.3662 H   0  0  0  0  0  0  0  0  0  0  0  0  # atno 6908 bound_to 6896
  150.7178  134.5285  159.5733 H   0  0  0  0  0  0  0  0  0  0  0  0  # atno 6909 bound_to 6896
  145.1833  139.3038  143.4407 H   0  0  0  0  0  0  0  0  0  0  0  0  # atno 7974 bound_to 7965
  156.0495  140.3309  155.7335 H   0  0  0  0  0  0  0  0  0  0  0  0  # atno 8008 bound_to 7997
  155.5622  140.0620  157.2843 H   0  0  0  0  0  0  0  0  0  0  0  0  # atno 8009 bound_to 7997
  154.4429  140.1875  156.0783 H   0  0  0  0  0  0  0  0  0  0  0  0  # atno 8010 bound_to 7997
  139.4915  144.5859  151.6779 H   0  0  0  0  0  0  0  0  0  0  0  0  # atno 10167 bound_to 10162
  156.1111  130.6249  150.9299 H   0  0  0  0  0  0  0  0  0  0  0  0  # atno 10718 bound_to 10713
  154.6724  135.2941  154.9724 H   0  0  0  0  0  0  0  0  0  0  0  0  # atno 10763 bound_to 10752
  154.0747  135.6613  153.4833 H   0  0  0  0  0  0  0  0  0  0  0  0  # atno 10764 bound_to 10752
  153.0495  135.5183  154.7726 H   0  0  0  0  0  0  0  0  0  0  0  0  # atno 10765 bound_to 10752
  141.1150  133.8631  157.1472 H   0  0  0  0  0  0  0  0  0  0  0  0  # atno 11005 bound_to 11000
  146.3449  140.2020  142.8589 LP  0  0  0  0  0  0  0  0  0  0  0  0  # atno 17320 bound_to 7965
  145.0115  140.8717  143.5221 LP  0  0  0  0  0  0  0  0  0  0  0  0  # atno 17321 bound_to 7965
  140.5475  144.0479  150.6113 LP  0  0  0  0  0  0  0  0  0  0  0  0  # atno 17342 bound_to 10162
  140.3522  143.2956  152.0474 LP  0  0  0  0  0  0  0  0  0  0  0  0  # atno 17343 bound_to 10162
  157.6292  131.0923  150.8474 LP  0  0  0  0  0  0  0  0  0  0  0  0  # atno 17370 bound_to 10713
  156.8585  130.5105  149.5305 LP  0  0  0  0  0  0  0  0  0  0  0  0  # atno 17371 bound_to 10713
  140.0067  135.0005  157.0308 LP  0  0  0  0  0  0  0  0  0  0  0  0  # atno 17394 bound_to 11000
  140.4669  134.1426  155.7198 LP  0  0  0  0  0  0  0  0  0  0  0  0  # atno 17395 bound_to 11000

$$$$
