AV-unprocessed.smi:2069|AV-procd|sdf|8436|dock2
  -GOLD-   2272011133D 1   1.00000     0.00000
 Structure written by MMmdl.
 37 38  0  0  0  0  0  0  0  0  2 V2000
  145.1742  134.8134  162.0192 C   0  0  0  0  0  0  0  0  0  0  0  0
  146.3430  135.4476  161.3468 C   0  0  0  0  0  0  0  0  0  0  0  0
  146.5281  136.7696  161.3172 N   0  0  0  0  0  0  0  0  0  0  0  0
  147.6853  137.1200  160.6372 N   0  0  0  0  0  0  0  0  0  0  0  0
  148.3632  136.0614  160.1714 C   0  0  0  0  0  0  0  0  0  0  0  0
  149.5082  136.1891  159.4808 N   0  5  0  0  0  0  0  0  0  0  0  0
  149.8831  137.4001  159.0090 C   0  0  0  0  0  0  0  0  0  0  0  0
  149.1325  138.3198  158.6751 O   0  0  0  0  0  0  0  0  0  0  0  0
  151.2105  137.5556  158.9193 N   0  0  0  0  0  0  0  0  0  0  0  0
  151.8924  138.7522  158.4365 C   0  0  0  0  0  0  0  0  0  0  0  0
  152.0839  139.8132  159.5550 C   0  0  1  0  0  0  0  0  0  0  0  0
  153.2479  139.3619  160.4740 C   0  0  0  0  0  0  0  0  0  0  0  0
  152.2664  141.1900  159.0372 N   0  0  0  0  0  0  0  0  0  0  0  0
  151.1247  141.6537  158.2403 C   0  0  0  0  0  0  0  0  0  0  0  0
  151.2973  143.0949  157.7299 C   0  0  0  0  0  0  0  0  0  0  0  0
  151.5159  143.9710  158.8269 O   0  0  0  0  0  0  0  0  0  0  0  0
  152.6621  143.6030  159.5815 C   0  0  0  0  0  0  0  0  0  0  0  0
  152.4965  142.1669  160.1078 C   0  0  0  0  0  0  0  0  0  0  0  0
  147.5899  134.5178  160.5326 S   0  0  0  0  0  0  0  0  0  0  0  0
  145.3129  134.8309  163.1002 H   0  0  0  0  0  0  0  0  0  0  0  0
  145.0666  133.7779  161.6960 H   0  0  0  0  0  0  0  0  0  0  0  0
  144.2590  135.3524  161.7727 H   0  0  0  0  0  0  0  0  0  0  0  0
  151.7912  136.7797  159.2017 H   0  0  0  0  0  0  0  0  0  0  0  0
  152.8608  138.4823  158.0120 H   0  0  0  0  0  0  0  0  0  0  0  0
  151.2775  139.1307  157.6218 H   0  0  0  0  0  0  0  0  0  0  0  0
  151.1767  139.8010  160.1612 H   0  0  0  0  0  0  0  0  0  0  0  0
  153.1407  138.3307  160.8088 H   0  0  0  0  0  0  0  0  0  0  0  0
  153.3058  139.9509  161.3881 H   0  0  0  0  0  0  0  0  0  0  0  0
  154.2067  139.4391  159.9603 H   0  0  0  0  0  0  0  0  0  0  0  0
  150.9853  141.0249  157.3633 H   0  0  0  0  0  0  0  0  0  0  0  0
  150.2094  141.5852  158.8302 H   0  0  0  0  0  0  0  0  0  0  0  0
  152.1320  143.1594  157.0302 H   0  0  0  0  0  0  0  0  0  0  0  0
  150.4046  143.4153  157.1926 H   0  0  0  0  0  0  0  0  0  0  0  0
  153.5578  143.6878  158.9641 H   0  0  0  0  0  0  0  0  0  0  0  0
  152.7791  144.2993  160.4120 H   0  0  0  0  0  0  0  0  0  0  0  0
  151.6710  142.1356  160.8209 H   0  0  0  0  0  0  0  0  0  0  0  0
  153.4020  141.9248  160.6608 H   0  0  0  0  0  0  0  0  0  0  0  0
  1  2  1  0  0  0  0
  1 20  1  0  0  0  0
  1 21  1  0  0  0  0
  1 22  1  0  0  0  0
  2 19  1  0  0  0  0
  2  3  2  0  0  0  0
  3  4  1  0  0  0  0
  4  5  2  0  0  0  0
  5  6  1  0  0  0  0
  5 19  1  0  0  0  0
  6  7  1  0  0  0  0
  7  8  2  0  0  0  0
  7  9  1  0  0  0  0
  9 10  1  0  0  0  0
  9 23  1  0  0  0  0
 10 11  1  0  0  0  0
 10 24  1  0  0  0  0
 10 25  1  0  0  0  0
 11 12  1  0  0  0  0
 11 13  1  0  0  0  0
 11 26  1  0  0  0  0
 12 27  1  0  0  0  0
 12 28  1  0  0  0  0
 12 29  1  0  0  0  0
 13 18  1  0  0  0  0
 13 14  1  0  0  0  0
 14 15  1  0  0  0  0
 14 30  1  0  0  0  0
 14 31  1  0  0  0  0
 15 16  1  0  0  0  0
 15 32  1  0  0  0  0
 15 33  1  0  0  0  0
 16 17  1  0  0  0  0
 17 18  1  0  0  0  0
 17 34  1  0  0  0  0
 17 35  1  0  0  0  0
 18 36  1  0  0  0  0
 18 37  1  0  0  0  0
M  CHG  1   6  -1
M  END
> <s_m_source_file>
AV-unprocessed.smi

> <i_m_source_file_index>
2069

> <i_lp_mmshare_version>
43012

> <i_f3d_flags>
0

> <s_epik_input>
W0NIM11jMW5uYyhzMSlbTkhdQyg9TylbTkhdW0NIMl1bQ0BIXShbQ0gzXSlOMltDSDJdW0NIMl1PW0NIMl1bQ0gyXTI=

> <s_epik_cmdline>
J2VwaWtfcHl0aG9uJywgJy1waCcsICc3LjAnLCAnLXRuJywgJzgnLCAnLW1hJywgJzIwMCcsICctbWV0YWxfYmluZGluZycsICctaW1hZScsICc8aW5maWxlLm1hZT4nLCAnLW9tYWUnLCAnPG91dGZpbGUubWFlPic=

> <r_lp_tautomer_probability>
1

> <r_epik_Ionization_Penalty>
3.82002

> <r_epik_Ionization_Penalty_Charging>
3.36369

> <r_epik_Ionization_Penalty_Neutral>
0.456339

> <r_epik_State_Penalty>
3.571

> <r_epik_Charging_Adjusted_Penalty>
6.93469

> <i_epik_Tot_Q>
-1

> <i_epik_Tot_abs_Q>
1

> <r_epik_Metal_State_Penalty>
0.710436

> <b_epik_Metal_Only>
1

> <s_lp_Force_Field>
OPLS_2005

> <r_lp_Energy>
26.7527

> <b_lp_Chiralities_Consistent>
1

> <s_lp_Variant>
AV-unprocessed.smi:2069-6

> <Gold.Version>
5.8.1

> <Gold.Id.Protein>
6NUR|6NUR_protein|mol2

> <Gold.PLP.Fitness>
42.7624

> <Gold.PLP.PLP>
-33.7677

> <Gold.PLP.part.hbond>
-4.5426

> <Gold.PLP.part.metal>
0.0000

> <Gold.PLP.part.buried>
-5.1826

> <Gold.PLP.part.nonpolar>
-25.0784

> <Gold.PLP.part.repulsive>
0.1640

> <Gold.PLP.ligand.clash>
0.0000

> <Gold.PLP.ligand.torsion>
0.5952

> <Gold.PLP.Chemscore.Hbond>
3.3313

> <Gold.PLP.Chemscore.CHOScore>
0.0000

> <Gold.PLP.Chemscore.Metal>
0.0000

> <Gold.Chemscore.Hbonds>
donor molecule, donor type, donor heavy atom, donor atom, acceptor molecule, acceptor atom, score
      P1  H  6896  6907       L1     6  2.00
      P1  H  6931  6943       L1     4  0.54
      P1  H  6934  6947       L1     4  0.38

> <Gold.PLP.Chemscore.Internal.Correction>
0.1913

> <Gold.Rescore>
     Score         DG    S(hbond)    S(metal)    S(lipo)     H(rot)  DE(clash)    DE(int)     intcor
     12.95     -15.70       1.77        0.00      71.40       1.57       0.65       2.11       ----

> <Gold.Chemscore.Fitness>
12.9465

> <Gold.Chemscore.DG>
-15.7027

> <Gold.Chemscore.ZeroCoef>
-5.4800

> <Gold.Chemscore.Hbond>
1.7655

> <Gold.Chemscore.Metal>
0.0000

> <Gold.Chemscore.Lipo>
71.3961

> <Gold.Chemscore.Internal_Hbond>
0.0000

> <Gold.Chemscore.DEClash>
0.6486

> <Gold.Chemscore.DEInternal>
2.1076

> <Gold.Chemscore.Rot>
1.5732

> <Gold.Chemscore.Internal.Correction>
   9.000000E+99

> <Gold.Chemscore.Hbonds>
donor molecule, donor type, donor heavy atom, donor atom, acceptor molecule, acceptor atom, score
      P1  H  6896  6907       L1     6  0.91
      P1  H  6931  6943       L1     4  0.29
      P1  H  6934  6947       L1     4  0.01

> <Gold.Chemscore.Hbond.Weighted>
-5.8968

> <Gold.Chemscore.Metal.Weighted>
-0.0000

> <Gold.Chemscore.Lipo.Weighted>
-8.3533

> <Gold.Chemscore.Internal_Hbond.Weighted>
0.0000

> <Gold.Chemscore.DEClash.Weighted>
0.6486

> <Gold.Chemscore.DEInternal.Weighted>
2.1076

> <Gold.Chemscore.Rot.Weighted>
4.0274

> <Gold.Chemscore.Internal.Correction.Weighted>
   9.000000E+99

> <Gold.Protein.RotatedTorsions>
[ 6907 6896 6895 6894 ] final  -58.16 input  -60.11 | X-H torsion
[ 7974 7965 7964 7962 ] final   51.70 input  175.53 | X-H torsion
[ 8008 7997 7996 7995 ] final -106.97 input   59.86 | X-H torsion
[ 10167 10162 10161 10158 ] final   96.04 input  -65.29 | X-H torsion
[ 10718 10713 10712 10709 ] final    5.01 input   66.30 | X-H torsion
[ 10763 10752 10751 10750 ] final  137.39 input  -60.55 | X-H torsion
[ 11005 11000 10999 10996 ] final  -16.79 input  -57.11 | X-H torsion

> <Gold.Protein.ActiveResidues>
 VAL166  LYS551  ARG553  GLY616  TRP617  ASP618  TYR619  PRO620  LYS621  CYS622 
 ASP623  PHE694  ASN695  SER759  ASP760  ASP761  ALA762  ILE779  LEU786  VAL792 
 PHE793  MET794  SER795  GLU796  ALA797  LYS798  CYS799  TRP800  GLU811  SER814 

> <Gold.Protein.RotatedAtoms>
  150.8029  134.7134  159.6616 H   0  0  0  0  0  0  0  0  0  0  0  0  # atno 6907 bound_to 6896
  152.4147  134.6060  160.0022 H   0  0  0  0  0  0  0  0  0  0  0  0  # atno 6908 bound_to 6896
  151.6293  133.3296  159.3141 H   0  0  0  0  0  0  0  0  0  0  0  0  # atno 6909 bound_to 6896
  145.9887  139.4317  143.0087 H   0  0  0  0  0  0  0  0  0  0  0  0  # atno 7974 bound_to 7965
  154.9224  140.0407  157.2005 H   0  0  0  0  0  0  0  0  0  0  0  0  # atno 8008 bound_to 7997
  154.8241  140.2888  155.5745 H   0  0  0  0  0  0  0  0  0  0  0  0  # atno 8009 bound_to 7997
  156.2982  140.2513  156.3154 H   0  0  0  0  0  0  0  0  0  0  0  0  # atno 8010 bound_to 7997
  139.7932  144.6844  150.9864 H   0  0  0  0  0  0  0  0  0  0  0  0  # atno 10167 bound_to 10162
  156.9011  130.5722  149.5648 H   0  0  0  0  0  0  0  0  0  0  0  0  # atno 10718 bound_to 10713
  153.8723  135.3054  155.3442 H   0  0  0  0  0  0  0  0  0  0  0  0  # atno 10763 bound_to 10752
  154.7800  135.4840  153.9827 H   0  0  0  0  0  0  0  0  0  0  0  0  # atno 10764 bound_to 10752
  153.1399  135.6822  153.9139 H   0  0  0  0  0  0  0  0  0  0  0  0  # atno 10765 bound_to 10752
  140.8103  133.8146  155.9556 H   0  0  0  0  0  0  0  0  0  0  0  0  # atno 11005 bound_to 11000
  145.7662  140.9915  143.1174 LP  0  0  0  0  0  0  0  0  0  0  0  0  # atno 17320 bound_to 7965
  144.6882  139.9390  143.7474 LP  0  0  0  0  0  0  0  0  0  0  0  0  # atno 17321 bound_to 7965
  140.7820  143.4359  151.0624 LP  0  0  0  0  0  0  0  0  0  0  0  0  # atno 17342 bound_to 10162
  139.8035  143.8051  152.3165 LP  0  0  0  0  0  0  0  0  0  0  0  0  # atno 17343 bound_to 10162
  156.0581  130.5639  150.9135 LP  0  0  0  0  0  0  0  0  0  0  0  0  # atno 17370 bound_to 10713
  157.6025  131.0940  150.8935 LP  0  0  0  0  0  0  0  0  0  0  0  0  # atno 17371 bound_to 10713
  140.9205  134.2148  157.4930 LP  0  0  0  0  0  0  0  0  0  0  0  0  # atno 17394 bound_to 11000
  139.8714  134.9790  156.5019 LP  0  0  0  0  0  0  0  0  0  0  0  0  # atno 17395 bound_to 11000

$$$$
