AV-unprocessed.smi:234|AV-procd|sdf|1797|dock9
  -GOLD-   2262020363D 1   1.00000     0.00000
 Structure written by MMmdl.
 59 62  0  0  0  0  0  0  0  0  1 V2000
  146.0689  132.0532  152.8984 C   0  0  0  0  0  0  0  0  0  0  0  0
  147.4769  132.6553  152.7966 C   0  0  0  0  0  0  0  0  0  0  0  0
  148.4567  131.7939  153.3580 O   0  0  0  0  0  0  0  0  0  0  0  0
  148.4575  131.7541  154.7824 C   0  0  2  0  0  0  0  0  0  0  0  0
  148.5738  133.1721  155.3425 C   0  0  0  0  0  0  0  0  0  0  0  0
  150.0955  132.9752  155.2867 C   0  0  1  0  0  0  0  0  0  0  0  0
  150.8199  133.5615  156.4195 N   0  0  0  0  0  0  0  0  0  0  0  0
  152.2722  133.4232  156.4482 C   0  0  0  0  0  0  0  0  0  0  0  0
  150.4155  134.7741  156.8716 C   0  0  0  0  0  0  0  0  0  0  0  0
  149.7503  134.8774  158.0531 N   0  0  0  0  0  0  0  0  0  0  0  0
  149.3422  136.0716  158.4921 C   0  0  0  0  0  0  0  0  0  0  0  0
  149.4917  137.2672  157.9185 N   0  0  0  0  0  0  0  0  0  0  0  0
  150.1563  137.1680  156.7315 C   0  0  0  0  0  0  0  0  0  0  0  0
  150.6415  135.9698  156.1363 C   0  0  0  0  0  0  0  0  0  0  0  0
  151.2621  136.2566  154.9269 N   0  0  0  0  0  0  0  0  0  0  0  0
  151.1545  137.5528  154.8157 C   0  0  0  0  0  0  0  0  0  0  0  0
  150.5129  138.1818  155.8594 N   0  0  0  0  0  0  0  0  0  0  0  0
  150.2695  139.6100  155.9971 C   0  0  0  0  0  0  0  0  0  0  0  0
  149.5311  140.2264  154.7795 C   0  0  2  0  0  0  0  0  0  0  0  0
  150.4463  140.2756  153.6969 O   0  0  0  0  0  0  0  0  0  0  0  0
  149.0200  141.6429  155.0247 C   0  0  0  0  0  0  0  0  0  0  0  0
  147.8373  141.7469  154.0746 C   0  0  0  0  0  0  0  0  0  0  0  0
  147.2388  140.4679  154.1891 O   0  0  0  0  0  0  0  0  0  0  0  0
  148.2610  139.4778  154.2859 C   0  0  2  0  0  0  0  0  0  0  0  0
  147.7271  138.3550  155.1892 C   0  0  0  0  0  0  0  0  0  0  0  0
  149.8504  131.4437  155.3902 C   0  0  0  0  0  0  0  0  0  0  0  0
  149.7916  130.8235  156.7959 C   0  0  0  0  0  0  0  0  0  0  0  0
  150.7655  130.5449  154.5537 C   0  0  0  0  0  0  0  0  0  0  0  0
  145.3363  132.7007  152.4168 H   0  0  0  0  0  0  0  0  0  0  0  0
  145.7605  131.9204  153.9354 H   0  0  0  0  0  0  0  0  0  0  0  0
  146.0253  131.0802  152.4086 H   0  0  0  0  0  0  0  0  0  0  0  0
  147.7258  132.7998  151.7452 H   0  0  0  0  0  0  0  0  0  0  0  0
  147.5190  133.6410  153.2628 H   0  0  0  0  0  0  0  0  0  0  0  0
  147.6368  131.1876  155.2266 H   0  0  0  0  0  0  0  0  0  0  0  0
  148.1894  133.9556  154.6884 H   0  0  0  0  0  0  0  0  0  0  0  0
  148.1753  133.2629  156.3545 H   0  0  0  0  0  0  0  0  0  0  0  0
  150.5023  133.2590  154.3142 H   0  0  0  0  0  0  0  0  0  0  0  0
  152.7754  134.3907  156.4048 H   0  0  0  0  0  0  0  0  0  0  0  0
  152.6295  132.8343  155.6043 H   0  0  0  0  0  0  0  0  0  0  0  0
  152.5809  132.9200  157.3646 H   0  0  0  0  0  0  0  0  0  0  0  0
  148.8220  136.0683  159.4385 H   0  0  0  0  0  0  0  0  0  0  0  0
  151.5517  138.0920  153.9680 H   0  0  0  0  0  0  0  0  0  0  0  0
  149.6949  139.7687  156.9106 H   0  0  0  0  0  0  0  0  0  0  0  0
  151.2330  140.0968  156.1495 H   0  0  0  0  0  0  0  0  0  0  0  0
  149.9568  140.3928  152.8968 H   0  0  0  0  0  0  0  0  0  0  0  0
  148.6531  141.7371  156.0473 H   0  0  0  0  0  0  0  0  0  0  0  0
  149.7711  142.4185  154.8678 H   0  0  0  0  0  0  0  0  0  0  0  0
  147.1438  142.5424  154.3476 H   0  0  0  0  0  0  0  0  0  0  0  0
  148.1685  141.9108  153.0482 H   0  0  0  0  0  0  0  0  0  0  0  0
  148.4232  139.0673  153.2875 H   0  0  0  0  0  0  0  0  0  0  0  0
  148.4542  137.5501  155.2978 H   0  0  0  0  0  0  0  0  0  0  0  0
  146.8220  137.9195  154.7651 H   0  0  0  0  0  0  0  0  0  0  0  0
  147.4756  138.7259  156.1832 H   0  0  0  0  0  0  0  0  0  0  0  0
  150.7847  130.7097  157.2309 H   0  0  0  0  0  0  0  0  0  0  0  0
  149.3332  129.8343  156.7723 H   0  0  0  0  0  0  0  0  0  0  0  0
  149.2066  131.4292  157.4884 H   0  0  0  0  0  0  0  0  0  0  0  0
  151.7528  130.4416  155.0036 H   0  0  0  0  0  0  0  0  0  0  0  0
  150.9134  130.9420  153.5494 H   0  0  0  0  0  0  0  0  0  0  0  0
  150.3510  129.5423  154.4479 H   0  0  0  0  0  0  0  0  0  0  0  0
  1  2  1  0  0  0  0
  1 29  1  0  0  0  0
  1 30  1  0  0  0  0
  1 31  1  0  0  0  0
  2  3  1  0  0  0  0
  2 32  1  0  0  0  0
  2 33  1  0  0  0  0
  3  4  1  0  0  0  0
  4 26  1  0  0  0  0
  4  5  1  0  0  0  0
  4 34  1  0  0  0  0
  5  6  1  0  0  0  0
  5 35  1  0  0  0  0
  5 36  1  0  0  0  0
  6  7  1  0  0  0  0
  6 26  1  0  0  0  0
  6 37  1  0  0  0  0
  7  8  1  0  0  0  0
  7  9  1  0  0  0  0
  8 38  1  0  0  0  0
  8 39  1  0  0  0  0
  8 40  1  0  0  0  0
  9 14  1  0  0  0  0
  9 10  2  0  0  0  0
 10 11  1  0  0  0  0
 11 12  2  0  0  0  0
 11 41  1  0  0  0  0
 12 13  1  0  0  0  0
 13 17  1  0  0  0  0
 13 14  2  0  0  0  0
 14 15  1  0  0  0  0
 15 16  2  0  0  0  0
 16 17  1  0  0  0  0
 16 42  1  0  0  0  0
 17 18  1  0  0  0  0
 18 19  1  0  0  0  0
 18 43  1  0  0  0  0
 18 44  1  0  0  0  0
 19 24  1  0  0  0  0
 19 20  1  0  0  0  0
 19 21  1  0  0  0  0
 20 45  1  0  0  0  0
 21 22  1  0  0  0  0
 21 46  1  0  0  0  0
 21 47  1  0  0  0  0
 22 23  1  0  0  0  0
 22 48  1  0  0  0  0
 22 49  1  0  0  0  0
 23 24  1  0  0  0  0
 24 25  1  0  0  0  0
 24 50  1  0  0  0  0
 25 51  1  0  0  0  0
 25 52  1  0  0  0  0
 25 53  1  0  0  0  0
 26 27  1  0  0  0  0
 26 28  1  0  0  0  0
 27 54  1  0  0  0  0
 27 55  1  0  0  0  0
 27 56  1  0  0  0  0
 28 57  1  0  0  0  0
 28 58  1  0  0  0  0
 28 59  1  0  0  0  0
M  END
> <s_m_source_file>
AV-unprocessed.smi

> <i_m_source_file_index>
234

> <i_lp_mmshare_version>
43012

> <i_f3d_flags>
0

> <s_epik_input>
W0NIM11bQ0gyXU9bQ0BASF0oQzEoW0NIM10pW0NIM10pW0NIMl1bQ0BIXTFOKFtDSDNdKWMobltjSF1uMiljKGMyMyluW2NIXW4zW0NIMl1bQ0BAXTQoW09IXSlbQ0gyXVtDSDJdT1tDQEhdNFtDSDNd

> <s_epik_cmdline>
J2VwaWtfcHl0aG9uJywgJy1waCcsICc3LjAnLCAnLXRuJywgJzgnLCAnLW1hJywgJzIwMCcsICctbWV0YWxfYmluZGluZycsICctaW1hZScsICc8aW5maWxlLm1hZT4nLCAnLW9tYWUnLCAnPG91dGZpbGUubWFlPic=

> <r_lp_tautomer_probability>
1

> <r_epik_Ionization_Penalty>
0.00349132

> <r_epik_Ionization_Penalty_Charging>
0

> <r_epik_Ionization_Penalty_Neutral>
0.00349132

> <r_epik_State_Penalty>
0.00242418

> <r_epik_Charging_Adjusted_Penalty>
0.00242418

> <i_epik_Tot_Q>
0

> <i_epik_Tot_abs_Q>
0

> <r_epik_Metal_State_Penalty>
-0

> <b_epik_Metal_Only>
0

> <s_lp_Force_Field>
OPLS_2005

> <r_lp_Energy>
49.2938

> <b_lp_Chiralities_Consistent>
1

> <s_lp_Variant>
AV-unprocessed.smi:234-13

> <Gold.Version>
5.8.1

> <Gold.Id.Protein>
6NUR|6NUR_protein|mol2

> <Gold.PLP.Fitness>
42.0979

> <Gold.PLP.PLP>
-31.7890

> <Gold.PLP.part.hbond>
-3.6417

> <Gold.PLP.part.metal>
0.0000

> <Gold.PLP.part.buried>
-4.2970

> <Gold.PLP.part.nonpolar>
-24.1408

> <Gold.PLP.part.repulsive>
0.8352

> <Gold.PLP.ligand.clash>
0.0000

> <Gold.PLP.ligand.torsion>
1.0616

> <Gold.PLP.Chemscore.Hbond>
3.7520

> <Gold.PLP.Chemscore.CHOScore>
0.0000

> <Gold.PLP.Chemscore.Metal>
0.0000

> <Gold.Chemscore.Hbonds>
donor molecule, donor type, donor heavy atom, donor atom, acceptor molecule, acceptor atom, score
      L1  H    20    45       P1  7957  1.00
      P1  H  6896  6909       L1    10  1.00
      P1  H  7989  7998       L1    20  0.39
      P1  H 10752 10765       L1    15  1.00

> <Gold.PLP.Chemscore.Internal.Correction>
1.1761

> <Gold.Rescore>
     Score         DG    S(hbond)    S(metal)    S(lipo)     H(rot)  DE(clash)    DE(int)     intcor
     10.77     -15.67       2.36        0.00      77.09       2.62       1.59       3.31       ----

> <Gold.Chemscore.Fitness>
10.7705

> <Gold.Chemscore.DG>
-15.6742

> <Gold.Chemscore.ZeroCoef>
-5.4800

> <Gold.Chemscore.Hbond>
2.3615

> <Gold.Chemscore.Metal>
0.0000

> <Gold.Chemscore.Lipo>
77.0859

> <Gold.Chemscore.Internal_Hbond>
0.0000

> <Gold.Chemscore.DEClash>
1.5928

> <Gold.Chemscore.DEInternal>
3.3109

> <Gold.Chemscore.Rot>
2.6219

> <Gold.Chemscore.Internal.Correction>
   9.000000E+99

> <Gold.Chemscore.Hbonds>
donor molecule, donor type, donor heavy atom, donor atom, acceptor molecule, acceptor atom, score
      L1  H    20    45       P1  7957  0.96
      P1  H  6896  6909       L1    10  0.30
      P1  H  7989  7998       L1    20  0.17
      P1  H 10752 10765       L1    15  0.88

> <Gold.Chemscore.Hbond.Weighted>
-7.8873

> <Gold.Chemscore.Metal.Weighted>
-0.0000

> <Gold.Chemscore.Lipo.Weighted>
-9.0191

> <Gold.Chemscore.Internal_Hbond.Weighted>
0.0000

> <Gold.Chemscore.DEClash.Weighted>
1.5928

> <Gold.Chemscore.DEInternal.Weighted>
3.3109

> <Gold.Chemscore.Rot.Weighted>
6.7121

> <Gold.Chemscore.Internal.Correction.Weighted>
   9.000000E+99

> <Gold.Protein.RotatedTorsions>
[ 6907 6896 6895 6894 ] final   31.55 input  -60.11 | X-H torsion
[ 7974 7965 7964 7962 ] final  -32.20 input  175.53 | X-H torsion
[ 8008 7997 7996 7995 ] final  144.96 input   59.86 | X-H torsion
[ 10167 10162 10161 10158 ] final  155.72 input  -65.29 | X-H torsion
[ 10718 10713 10712 10709 ] final   41.77 input   66.30 | X-H torsion
[ 10763 10752 10751 10750 ] final  172.96 input  -60.55 | X-H torsion
[ 11005 11000 10999 10996 ] final -124.22 input  -57.11 | X-H torsion

> <Gold.Protein.ActiveResidues>
 VAL166  LYS551  ARG553  GLY616  TRP617  ASP618  TYR619  PRO620  LYS621  CYS622 
 ASP623  PHE694  ASN695  SER759  ASP760  ASP761  ALA762  ILE779  LEU786  VAL792 
 PHE793  MET794  SER795  GLU796  ALA797  LYS798  CYS799  TRP800  GLU811  SER814 

> <Gold.Protein.RotatedAtoms>
  152.0619  134.9589  160.0574 H   0  0  0  0  0  0  0  0  0  0  0  0  # atno 6907 bound_to 6896
  152.0949  133.4214  159.4569 H   0  0  0  0  0  0  0  0  0  0  0  0  # atno 6908 bound_to 6896
  150.6837  134.2748  159.4646 H   0  0  0  0  0  0  0  0  0  0  0  0  # atno 6909 bound_to 6896
  146.1008  140.5763  142.8822 H   0  0  0  0  0  0  0  0  0  0  0  0  # atno 7974 bound_to 7965
  156.2895  140.2222  156.5138 H   0  0  0  0  0  0  0  0  0  0  0  0  # atno 8008 bound_to 7997
  154.7586  140.0475  157.0976 H   0  0  0  0  0  0  0  0  0  0  0  0  # atno 8009 bound_to 7997
  155.0019  140.3102  155.4867 H   0  0  0  0  0  0  0  0  0  0  0  0  # atno 8010 bound_to 7997
  139.4821  144.5073  151.8078 H   0  0  0  0  0  0  0  0  0  0  0  0  # atno 10167 bound_to 10162
  157.3974  130.7840  149.7319 H   0  0  0  0  0  0  0  0  0  0  0  0  # atno 10718 bound_to 10713
  154.4334  135.2760  155.1897 H   0  0  0  0  0  0  0  0  0  0  0  0  # atno 10763 bound_to 10752
  154.3793  135.6091  153.5786 H   0  0  0  0  0  0  0  0  0  0  0  0  # atno 10764 bound_to 10752
  152.9837  135.5876  154.4649 H   0  0  0  0  0  0  0  0  0  0  0  0  # atno 10765 bound_to 10752
  140.9858  134.0609  157.3712 H   0  0  0  0  0  0  0  0  0  0  0  0  # atno 11005 bound_to 11000
  144.7431  140.4997  143.6855 LP  0  0  0  0  0  0  0  0  0  0  0  0  # atno 17320 bound_to 7965
  145.5857  139.1492  143.3210 LP  0  0  0  0  0  0  0  0  0  0  0  0  # atno 17321 bound_to 7965
  140.4572  144.1772  150.5902 LP  0  0  0  0  0  0  0  0  0  0  0  0  # atno 17342 bound_to 10162
  140.4522  143.2482  151.9332 LP  0  0  0  0  0  0  0  0  0  0  0  0  # atno 17343 bound_to 10162
  155.9814  130.4020  150.3474 LP  0  0  0  0  0  0  0  0  0  0  0  0  # atno 17370 bound_to 10713
  157.1598  131.0342  151.2846 LP  0  0  0  0  0  0  0  0  0  0  0  0  # atno 17371 bound_to 10713
  139.8970  135.0148  156.7078 LP  0  0  0  0  0  0  0  0  0  0  0  0  # atno 17394 bound_to 11000
  140.7117  133.9218  155.8088 LP  0  0  0  0  0  0  0  0  0  0  0  0  # atno 17395 bound_to 11000

$$$$
