AV-unprocessed.smi:34|AV-procd|sdf|239|dock4
  -GOLD-   2262015583D 1   1.00000     0.00000
 Structure written by MMmdl.
 54 58  0  0  0  0  0  0  0  0  2 V2000
  152.0223  139.4111  159.0060 O   0  0  0  0  0  0  0  0  0  0  0  0
  152.1389  140.3099  158.1702 C   0  0  0  0  0  0  0  0  0  0  0  0
  152.3166  140.1840  156.8306 N   0  5  0  0  0  0  0  0  0  0  0  0
  151.7116  139.1860  156.1686 C   0  0  0  0  0  0  0  0  0  0  0  0
  152.1480  138.8159  154.9372 N   0  0  0  0  0  0  0  0  0  0  0  0
  151.5457  137.8200  154.2765 C   0  0  0  0  0  0  0  0  0  0  0  0
  150.5037  137.0709  154.6519 N   0  0  0  0  0  0  0  0  0  0  0  0
  150.0503  137.4429  155.8838 C   0  0  0  0  0  0  0  0  0  0  0  0
  150.5930  138.4820  156.6931 C   0  0  0  0  0  0  0  0  0  0  0  0
  149.8887  138.5945  157.8827 N   0  0  0  0  0  0  0  0  0  0  0  0
  148.9738  137.6362  157.7462 C   0  0  0  0  0  0  0  0  0  0  0  0
  149.0029  136.9063  156.6105 N   0  0  0  0  0  0  0  0  0  0  0  0
  148.1134  135.7790  156.1750 C   0  0  2  0  0  0  0  0  0  0  0  0
  146.7843  136.1961  156.2750 O   0  0  0  0  0  0  0  0  0  0  0  0
  146.2361  135.7057  157.4915 C   0  0  1  0  0  0  0  0  0  0  0  0
  144.7044  135.7453  157.4618 C   0  0  0  0  0  0  0  0  0  0  0  0
  144.2229  135.6321  158.7907 O   0  0  0  0  0  0  0  0  0  0  0  0
  143.0532  135.0126  159.0364 C   0  0  0  0  0  0  0  0  0  0  0  0
  142.4031  134.4158  158.1759 O   0  0  0  0  0  0  0  0  0  0  0  0
  142.6277  135.1239  160.4617 C   0  0  0  0  0  0  0  0  0  0  0  0
  141.3151  134.7423  160.8249 C   0  0  0  0  0  0  0  0  0  0  0  0
  140.8845  134.8370  162.1626 C   0  0  0  0  0  0  0  0  0  0  0  0
  141.7615  135.3149  163.1537 C   0  0  0  0  0  0  0  0  0  0  0  0
  143.0698  135.6979  162.8053 C   0  0  0  0  0  0  0  0  0  0  0  0
  143.5022  135.6040  161.4680 C   0  0  0  0  0  0  0  0  0  0  0  0
  146.8394  134.3048  157.5726 C   0  0  1  0  0  0  0  0  0  0  0  0
  146.2000  133.4719  156.7486 F   0  0  0  0  0  0  0  0  0  0  0  0
  148.2603  134.5223  157.0705 C   0  0  2  0  0  0  0  0  0  0  0  0
  149.1444  134.6705  158.1679 O   0  0  0  0  0  0  0  0  0  0  0  0
  152.1591  141.7393  158.6411 C   0  0  0  0  0  0  0  0  0  0  0  0
  152.5561  142.0344  159.9652 C   0  0  0  0  0  0  0  0  0  0  0  0
  152.5575  143.3628  160.4336 C   0  0  0  0  0  0  0  0  0  0  0  0
  152.1522  144.4100  159.5850 C   0  0  0  0  0  0  0  0  0  0  0  0
  151.7418  144.1271  158.2688 C   0  0  0  0  0  0  0  0  0  0  0  0
  151.7404  142.7989  157.7997 C   0  0  0  0  0  0  0  0  0  0  0  0
  151.9600  137.5890  153.3064 H   0  0  0  0  0  0  0  0  0  0  0  0
  148.2415  137.4604  158.5202 H   0  0  0  0  0  0  0  0  0  0  0  0
  148.3815  135.6099  155.1314 H   0  0  0  0  0  0  0  0  0  0  0  0
  146.6073  136.2992  158.3288 H   0  0  0  0  0  0  0  0  0  0  0  0
  144.3507  136.6681  156.9999 H   0  0  0  0  0  0  0  0  0  0  0  0
  144.3215  134.9108  156.8726 H   0  0  0  0  0  0  0  0  0  0  0  0
  140.6237  134.3722  160.0815 H   0  0  0  0  0  0  0  0  0  0  0  0
  139.8799  134.5426  162.4277 H   0  0  0  0  0  0  0  0  0  0  0  0
  141.4312  135.3877  164.1794 H   0  0  0  0  0  0  0  0  0  0  0  0
  143.7442  136.0646  163.5651 H   0  0  0  0  0  0  0  0  0  0  0  0
  144.5125  135.9078  161.2355 H   0  0  0  0  0  0  0  0  0  0  0  0
  146.7859  133.8710  158.5719 H   0  0  0  0  0  0  0  0  0  0  0  0
  148.6012  133.6824  156.4639 H   0  0  0  0  0  0  0  0  0  0  0  0
  148.9146  135.4612  158.6327 H   0  0  0  0  0  0  0  0  0  0  0  0
  152.8685  141.2414  160.6293 H   0  0  0  0  0  0  0  0  0  0  0  0
  152.8684  143.5770  161.4453 H   0  0  0  0  0  0  0  0  0  0  0  0
  152.1523  145.4283  159.9445 H   0  0  0  0  0  0  0  0  0  0  0  0
  151.4242  144.9286  157.6187 H   0  0  0  0  0  0  0  0  0  0  0  0
  151.4109  142.6014  156.7897 H   0  0  0  0  0  0  0  0  0  0  0  0
  1  2  2  0  0  0  0
  2  3  1  0  0  0  0
  2 30  1  0  0  0  0
  3  4  1  0  0  0  0
  4  9  1  0  0  0  0
  4  5  2  0  0  0  0
  5  6  1  0  0  0  0
  6  7  2  0  0  0  0
  6 36  1  0  0  0  0
  7  8  1  0  0  0  0
  8 12  1  0  0  0  0
  8  9  2  0  0  0  0
  9 10  1  0  0  0  0
 10 11  2  0  0  0  0
 11 12  1  0  0  0  0
 11 37  1  0  0  0  0
 12 13  1  0  0  0  0
 13 28  1  0  0  0  0
 13 14  1  0  0  0  0
 13 38  1  0  0  0  0
 14 15  1  0  0  0  0
 15 16  1  0  0  0  0
 15 26  1  0  0  0  0
 15 39  1  0  0  0  0
 16 17  1  0  0  0  0
 16 40  1  0  0  0  0
 16 41  1  0  0  0  0
 17 18  1  0  0  0  0
 18 19  2  0  0  0  0
 18 20  1  0  0  0  0
 20 25  1  0  0  0  0
 20 21  2  0  0  0  0
 21 22  1  0  0  0  0
 21 42  1  0  0  0  0
 22 23  2  0  0  0  0
 22 43  1  0  0  0  0
 23 24  1  0  0  0  0
 23 44  1  0  0  0  0
 24 25  2  0  0  0  0
 24 45  1  0  0  0  0
 25 46  1  0  0  0  0
 26 27  1  0  0  0  0
 26 28  1  0  0  0  0
 26 47  1  0  0  0  0
 28 29  1  0  0  0  0
 28 48  1  0  0  0  0
 29 49  1  0  0  0  0
 30 35  1  0  0  0  0
 30 31  2  0  0  0  0
 31 32  1  0  0  0  0
 31 50  1  0  0  0  0
 32 33  2  0  0  0  0
 32 51  1  0  0  0  0
 33 34  1  0  0  0  0
 33 52  1  0  0  0  0
 34 35  2  0  0  0  0
 34 53  1  0  0  0  0
 35 54  1  0  0  0  0
M  CHG  1   3  -1
M  END
> <s_m_source_file>
AV-unprocessed.smi

> <i_m_source_file_index>
34

> <i_lp_mmshare_version>
43012

> <i_f3d_flags>
0

> <s_epik_input>
W2NIXTFbY0hdW2NIXVtjSF1bY0hdYzFDKD1PKVtOSF1jKG5bY0hdbjIpYyhjMjMpbltjSF1uM1tDQEBIXTRPW0NASF0oW0NAQEhdKEYpW0NASF00W09IXSlbQ0gyXU9DKD1PKWM1W2NIXVtjSF1bY0hdW2NIXVtjSF01

> <s_epik_cmdline>
J2VwaWtfcHl0aG9uJywgJy1waCcsICc3LjAnLCAnLXRuJywgJzgnLCAnLW1hJywgJzIwMCcsICctbWV0YWxfYmluZGluZycsICctaW1hZScsICc8aW5maWxlLm1hZT4nLCAnLW9tYWUnLCAnPG91dGZpbGUubWFlPic=

> <r_lp_tautomer_probability>
1

> <r_epik_Ionization_Penalty>
4.33227

> <r_epik_Ionization_Penalty_Charging>
3.41027

> <r_epik_Ionization_Penalty_Neutral>
0.922001

> <r_epik_State_Penalty>
3.41358

> <r_epik_Charging_Adjusted_Penalty>
6.82385

> <i_epik_Tot_Q>
-1

> <i_epik_Tot_abs_Q>
1

> <r_epik_Metal_State_Penalty>
0.496292

> <b_epik_Metal_Only>
1

> <s_epik_Chemistry_Notes>
This compound has an ester and may undergo hydrolysis at high or low pH. This compound contains an acetal/aminal-like group ( X-CH(R)-Y where X, Y are N, S, or O) that may be acid/base labile, releasing an aldehyde.

> <s_lp_Force_Field>
OPLS_2005

> <r_lp_Energy>
47.457

> <b_lp_Chiralities_Consistent>
1

> <s_lp_Variant>
AV-unprocessed.smi:34-25

> <Gold.Version>
5.8.1

> <Gold.Id.Protein>
6NUR|6NUR_protein|mol2

> <Gold.PLP.Fitness>
54.7565

> <Gold.PLP.PLP>
-41.1498

> <Gold.PLP.part.hbond>
-3.0000

> <Gold.PLP.part.metal>
0.0000

> <Gold.PLP.part.buried>
-6.8069

> <Gold.PLP.part.nonpolar>
-32.2434

> <Gold.PLP.part.repulsive>
0.2782

> <Gold.PLP.ligand.clash>
0.0000

> <Gold.PLP.ligand.torsion>
1.1850

> <Gold.PLP.Chemscore.Hbond>
4.0000

> <Gold.PLP.Chemscore.CHOScore>
0.9975

> <Gold.PLP.Chemscore.Metal>
0.0000

> <Gold.Chemscore.Hbonds>
donor molecule, donor type, donor heavy atom, donor atom, acceptor molecule, acceptor atom, score
      P1  H  6896  6908       L1    29  0.96
      P1  H  7997  8010       L1     3  1.85
      P1  H 11000 11005       L1    19  1.00
      L1  C     6    36       P1  7949  0.97

> <Gold.PLP.Chemscore.Internal.Correction>
0.9843

> <Gold.Rescore>
     Score         DG    S(hbond)    S(metal)    S(lipo)     H(rot)  DE(clash)    DE(int)     intcor
     11.71     -17.52       2.19        0.00      99.26       2.69       0.03       5.78       ----

> <Gold.Chemscore.Fitness>
11.7089

> <Gold.Chemscore.DG>
-17.5225

> <Gold.Chemscore.ZeroCoef>
-5.4800

> <Gold.Chemscore.Hbond>
2.1935

> <Gold.Chemscore.Metal>
0.0000

> <Gold.Chemscore.Lipo>
99.2622

> <Gold.Chemscore.Internal_Hbond>
0.0000

> <Gold.Chemscore.DEClash>
0.0321

> <Gold.Chemscore.DEInternal>
5.7814

> <Gold.Chemscore.Rot>
2.6944

> <Gold.Chemscore.Internal.Correction>
   9.000000E+99

> <Gold.Chemscore.Hbonds>
donor molecule, donor type, donor heavy atom, donor atom, acceptor molecule, acceptor atom, score
      P1  H  6896  6908       L1    29  0.27
      P1  H  7997  8010       L1     3  0.42
      P1  H 11000 11005       L1    19  0.98

> <Gold.Chemscore.Hbond.Weighted>
-7.3263

> <Gold.Chemscore.Metal.Weighted>
-0.0000

> <Gold.Chemscore.Lipo.Weighted>
-11.6137

> <Gold.Chemscore.Internal_Hbond.Weighted>
0.0000

> <Gold.Chemscore.DEClash.Weighted>
0.0321

> <Gold.Chemscore.DEInternal.Weighted>
5.7814

> <Gold.Chemscore.Rot.Weighted>
6.8975

> <Gold.Chemscore.Internal.Correction.Weighted>
   9.000000E+99

> <Gold.Protein.RotatedTorsions>
[ 6907 6896 6895 6894 ] final  131.59 input  -60.11 | X-H torsion
[ 7974 7965 7964 7962 ] final   94.70 input  175.53 | X-H torsion
[ 8008 7997 7996 7995 ] final   72.71 input   59.86 | X-H torsion
[ 10167 10162 10161 10158 ] final   62.37 input  -65.29 | X-H torsion
[ 10718 10713 10712 10709 ] final   88.96 input   66.30 | X-H torsion
[ 10763 10752 10751 10750 ] final -102.99 input  -60.55 | X-H torsion
[ 11005 11000 10999 10996 ] final -117.37 input  -57.11 | X-H torsion

> <Gold.Protein.ActiveResidues>
 VAL166  LYS551  ARG553  GLY616  TRP617  ASP618  TYR619  PRO620  LYS621  CYS622 
 ASP623  PHE694  ASN695  SER759  ASP760  ASP761  ALA762  ILE779  LEU786  VAL792 
 PHE793  MET794  SER795  GLU796  ALA797  LYS798  CYS799  TRP800  GLU811  SER814 

> <Gold.Protein.RotatedAtoms>
  152.3410  133.6067  159.5876 H   0  0  0  0  0  0  0  0  0  0  0  0  # atno 6907 bound_to 6896
  150.7479  133.9722  159.3558 H   0  0  0  0  0  0  0  0  0  0  0  0  # atno 6908 bound_to 6896
  151.7586  135.0816  160.0393 H   0  0  0  0  0  0  0  0  0  0  0  0  # atno 6909 bound_to 6896
  145.4621  139.2286  143.2981 H   0  0  0  0  0  0  0  0  0  0  0  0  # atno 7974 bound_to 7965
  155.7729  140.3484  155.5256 H   0  0  0  0  0  0  0  0  0  0  0  0  # atno 8008 bound_to 7997
  155.8804  140.1001  157.1510 H   0  0  0  0  0  0  0  0  0  0  0  0  # atno 8009 bound_to 7997
  154.4024  140.1323  156.4177 H   0  0  0  0  0  0  0  0  0  0  0  0  # atno 8010 bound_to 7997
  140.1447  144.4520  150.6792 H   0  0  0  0  0  0  0  0  0  0  0  0  # atno 10167 bound_to 10162
  157.6952  131.0315  150.3353 H   0  0  0  0  0  0  0  0  0  0  0  0  # atno 10718 bound_to 10713
  154.7775  135.4840  153.9774 H   0  0  0  0  0  0  0  0  0  0  0  0  # atno 10763 bound_to 10752
  153.1448  135.6780  153.8978 H   0  0  0  0  0  0  0  0  0  0  0  0  # atno 10764 bound_to 10752
  153.8641  135.3151  155.3417 H   0  0  0  0  0  0  0  0  0  0  0  0  # atno 10765 bound_to 10752
  141.0359  133.9910  157.3071 H   0  0  0  0  0  0  0  0  0  0  0  0  # atno 11005 bound_to 11000
  146.2445  140.5391  142.8920 LP  0  0  0  0  0  0  0  0  0  0  0  0  # atno 17320 bound_to 7965
  144.7996  140.6188  143.6487 LP  0  0  0  0  0  0  0  0  0  0  0  0  # atno 17321 bound_to 7965
  140.6739  143.2297  151.5556 LP  0  0  0  0  0  0  0  0  0  0  0  0  # atno 17342 bound_to 10162
  139.5455  144.2533  152.1433 LP  0  0  0  0  0  0  0  0  0  0  0  0  # atno 17343 bound_to 10162
  156.3822  130.3882  149.7093 LP  0  0  0  0  0  0  0  0  0  0  0  0  # atno 17370 bound_to 10713
  156.4472  130.7889  151.2910 LP  0  0  0  0  0  0  0  0  0  0  0  0  # atno 17371 bound_to 10713
  139.9240  135.0201  156.8168 LP  0  0  0  0  0  0  0  0  0  0  0  0  # atno 17394 bound_to 11000
  140.6323  133.9894  155.7668 LP  0  0  0  0  0  0  0  0  0  0  0  0  # atno 17395 bound_to 11000

$$$$
