AV-unprocessed.smi:39|AV-procd|sdf|354|dock7
  -GOLD-   2262016193D 1   1.00000     0.00000
 Structure written by MMmdl.
 32 33  0  0  0  0  0  0  0  0  3 V2000
  146.7236  142.0256  153.7362 C   0  0  0  0  0  0  0  0  0  0  0  0
  147.8783  141.0674  153.9793 C   0  0  0  0  0  0  0  0  0  0  0  0
  148.9118  141.3680  154.8075 C   0  0  0  0  0  0  0  0  0  0  0  0
  149.9807  140.5117  155.0490 N   0  0  0  0  0  0  0  0  0  0  0  0
  151.1326  140.8720  155.9679 C   0  0  2  0  0  0  0  0  0  0  0  0
  151.1995  139.9055  157.1670 C   0  0  0  0  0  0  0  0  0  0  0  0
  151.2517  140.8462  158.3629 C   0  0  1  0  0  0  0  0  0  0  0  0
  152.6364  141.2170  158.6881 N   0  0  0  0  0  0  0  0  0  0  0  0
  153.4624  140.2956  158.7302 N   0  3  0  0  0  0  0  0  0  0  0  0
  154.1409  139.3826  158.6986 N   0  5  0  0  0  0  0  0  0  0  0  0
  150.4463  142.0349  157.8263 C   0  0  1  0  0  0  0  0  0  0  0  0
  150.6233  143.3531  158.5988 C   0  0  0  0  0  0  0  0  0  0  0  0
  150.7303  144.4305  157.6931 O   0  0  0  0  0  0  0  0  0  0  0  0
  150.9422  142.1514  156.4981 O   0  0  0  0  0  0  0  0  0  0  0  0
  150.0247  139.2655  154.3903 C   0  0  0  0  0  0  0  0  0  0  0  0
  150.9482  138.4662  154.5407 O   0  0  0  0  0  0  0  0  0  0  0  0
  148.9634  138.9558  153.5425 N   0  0  0  0  0  0  0  0  0  0  0  0
  147.8653  139.7784  153.2824 C   0  0  0  0  0  0  0  0  0  0  0  0
  146.9863  139.3927  152.5133 O   0  0  0  0  0  0  0  0  0  0  0  0
  152.0255  140.8698  155.3396 H   0  0  0  0  0  0  0  0  0  0  0  0
  150.7515  140.4119  159.2308 H   0  0  0  0  0  0  0  0  0  0  0  0
  149.3913  141.7540  157.8023 H   0  0  0  0  0  0  0  0  0  0  0  0
  148.9918  138.0621  153.0739 H   0  0  0  0  0  0  0  0  0  0  0  0
  146.8332  142.9468  154.3094 H   0  0  0  0  0  0  0  0  0  0  0  0
  145.7782  141.5642  154.0236 H   0  0  0  0  0  0  0  0  0  0  0  0
  146.6675  142.2940  152.6808 H   0  0  0  0  0  0  0  0  0  0  0  0
  148.8842  142.3310  155.2942 H   0  0  0  0  0  0  0  0  0  0  0  0
  150.2931  139.2995  157.2097 H   0  0  0  0  0  0  0  0  0  0  0  0
  152.0582  139.2376  157.0854 H   0  0  0  0  0  0  0  0  0  0  0  0
  149.7523  143.5389  159.2280 H   0  0  0  0  0  0  0  0  0  0  0  0
  151.4959  143.3200  159.2516 H   0  0  0  0  0  0  0  0  0  0  0  0
  150.0800  144.3197  157.0166 H   0  0  0  0  0  0  0  0  0  0  0  0
  1  2  1  0  0  0  0
  1 24  1  0  0  0  0
  1 25  1  0  0  0  0
  1 26  1  0  0  0  0
  2 18  1  0  0  0  0
  2  3  2  0  0  0  0
  3  4  1  0  0  0  0
  3 27  1  0  0  0  0
  4  5  1  0  0  0  0
  4 15  1  0  0  0  0
  5 20  1  0  0  0  0
  5 14  1  0  0  0  0
  5  6  1  0  0  0  0
  6  7  1  0  0  0  0
  6 28  1  0  0  0  0
  6 29  1  0  0  0  0
  7 21  1  0  0  0  0
  7  8  1  0  0  0  0
  7 11  1  0  0  0  0
  8  9  2  0  0  0  0
  9 10  2  0  0  0  0
 11 22  1  0  0  0  0
 11 12  1  0  0  0  0
 11 14  1  0  0  0  0
 12 13  1  0  0  0  0
 12 30  1  0  0  0  0
 12 31  1  0  0  0  0
 13 32  1  0  0  0  0
 15 16  2  0  0  0  0
 15 17  1  0  0  0  0
 17 23  1  0  0  0  0
 17 18  1  0  0  0  0
 18 19  2  0  0  0  0
M  CHG  1   9   1
M  CHG  1  10  -1
M  END
> <s_m_source_file>
AV-unprocessed.smi

> <i_m_source_file_index>
39

> <i_lp_mmshare_version>
43012

> <i_f3d_flags>
0

> <s_epik_input>
Tz1jMVtuSF1jKD1PKW4oW2NIXWMxW0NIM10pW0NASF0yW0NIMl1bQ0BIXShOPVtOK109W04tXSlbQ0BIXShPMilbQ0gyXVtPSF0=

> <s_epik_cmdline>
J2VwaWtfcHl0aG9uJywgJy1waCcsICc3LjAnLCAnLXRuJywgJzgnLCAnLW1hJywgJzIwMCcsICctbWV0YWxfYmluZGluZycsICctaW1hZScsICc8aW5maWxlLm1hZT4nLCAnLW9tYWUnLCAnPG91dGZpbGUubWFlPic=

> <r_lp_tautomer_probability>
0.999537

> <r_epik_Ionization_Penalty>
0.00127512

> <r_epik_Ionization_Penalty_Charging>
0.00127507

> <r_epik_Ionization_Penalty_Neutral>
5.43433e-08

> <r_epik_State_Penalty>
0.000844892

> <r_epik_Charging_Adjusted_Penalty>
0.00211996

> <i_epik_Tot_Q>
0

> <i_epik_Tot_abs_Q>
2

> <r_epik_Metal_State_Penalty>
0.680636

> <b_epik_Metal_Only>
0

> <s_epik_Chemistry_Notes>
This compound contains an acetal/aminal-like group ( X-CH(R)-Y where X, Y are N, S, or O) that may be acid/base labile, releasing an aldehyde.

> <s_lp_Force_Field>
OPLS_2005

> <r_lp_Energy>
25.8418

> <b_lp_Chiralities_Consistent>
1

> <s_lp_Variant>
AV-unprocessed.smi:39-4

> <Gold.Version>
5.8.1

> <Gold.Id.Protein>
6NUR|6NUR_protein|mol2

> <Gold.PLP.Fitness>
40.6888

> <Gold.PLP.PLP>
-31.8336

> <Gold.PLP.part.hbond>
-4.9730

> <Gold.PLP.part.metal>
0.0000

> <Gold.PLP.part.buried>
-1.4872

> <Gold.PLP.part.nonpolar>
-24.5381

> <Gold.PLP.part.repulsive>
1.1965

> <Gold.PLP.ligand.clash>
0.0000

> <Gold.PLP.ligand.torsion>
0.8008

> <Gold.PLP.Chemscore.Hbond>
2.4690

> <Gold.PLP.Chemscore.CHOScore>
1.0000

> <Gold.PLP.Chemscore.Metal>
0.0000

> <Gold.Chemscore.Hbonds>
donor molecule, donor type, donor heavy atom, donor atom, acceptor molecule, acceptor atom, score
      L1  H    13    32       P1  8028  1.00
      L1  H    17    23       P1  7948  0.65
      P1  H  7997  8008       L1    10  0.74
      L1  C     3    27       P1  8028  1.00

> <Gold.PLP.Chemscore.Internal.Correction>
0.0499

> <Gold.Rescore>
     Score         DG    S(hbond)    S(metal)    S(lipo)     H(rot)  DE(clash)    DE(int)     intcor
      6.37     -10.00       1.88        0.00      45.17       2.75       1.85       1.79       ----

> <Gold.Chemscore.Fitness>
6.3652

> <Gold.Chemscore.DG>
-10.0003

> <Gold.Chemscore.ZeroCoef>
-5.4800

> <Gold.Chemscore.Hbond>
1.8807

> <Gold.Chemscore.Metal>
0.0000

> <Gold.Chemscore.Lipo>
45.1710

> <Gold.Chemscore.Internal_Hbond>
0.0000

> <Gold.Chemscore.DEClash>
1.8462

> <Gold.Chemscore.DEInternal>
1.7890

> <Gold.Chemscore.Rot>
2.7524

> <Gold.Chemscore.Internal.Correction>
   9.000000E+99

> <Gold.Chemscore.Hbonds>
donor molecule, donor type, donor heavy atom, donor atom, acceptor molecule, acceptor atom, score
      L1  H    13    32       P1  8028  0.78
      L1  H    17    23       P1  7948  0.65
      P1  H  7997  8008       L1    10  0.11

> <Gold.Chemscore.Hbond.Weighted>
-6.2815

> <Gold.Chemscore.Metal.Weighted>
-0.0000

> <Gold.Chemscore.Lipo.Weighted>
-5.2850

> <Gold.Chemscore.Internal_Hbond.Weighted>
0.0000

> <Gold.Chemscore.DEClash.Weighted>
1.8462

> <Gold.Chemscore.DEInternal.Weighted>
1.7890

> <Gold.Chemscore.Rot.Weighted>
7.0461

> <Gold.Chemscore.Internal.Correction.Weighted>
   9.000000E+99

> <Gold.Protein.RotatedTorsions>
[ 6907 6896 6895 6894 ] final  101.80 input  -60.11 | X-H torsion
[ 7974 7965 7964 7962 ] final -128.45 input  175.53 | X-H torsion
[ 8008 7997 7996 7995 ] final -129.52 input   59.86 | X-H torsion
[ 10167 10162 10161 10158 ] final  173.28 input  -65.29 | X-H torsion
[ 10718 10713 10712 10709 ] final  -19.81 input   66.30 | X-H torsion
[ 10763 10752 10751 10750 ] final  -73.83 input  -60.55 | X-H torsion
[ 11005 11000 10999 10996 ] final -146.79 input  -57.11 | X-H torsion

> <Gold.Protein.ActiveResidues>
 VAL166  LYS551  ARG553  GLY616  TRP617  ASP618  TYR619  PRO620  LYS621  CYS622 
 ASP623  PHE694  ASN695  SER759  ASP760  ASP761  ALA762  ILE779  LEU786  VAL792 
 PHE793  MET794  SER795  GLU796  ALA797  LYS798  CYS799  TRP800  GLU811  SER814 

> <Gold.Protein.RotatedAtoms>
  152.5340  134.0072  159.7921 H   0  0  0  0  0  0  0  0  0  0  0  0  # atno 6907 bound_to 6896
  151.0280  133.5808  159.2671 H   0  0  0  0  0  0  0  0  0  0  0  0  # atno 6908 bound_to 6896
  151.2823  135.0724  159.9227 H   0  0  0  0  0  0  0  0  0  0  0  0  # atno 6909 bound_to 6896
  144.9670  140.7506  143.4694 H   0  0  0  0  0  0  0  0  0  0  0  0  # atno 7974 bound_to 7965
  155.2806  140.0444  157.3015 H   0  0  0  0  0  0  0  0  0  0  0  0  # atno 8008 bound_to 7997
  154.5599  140.2343  155.8319 H   0  0  0  0  0  0  0  0  0  0  0  0  # atno 8009 bound_to 7997
  156.2039  140.3018  155.9592 H   0  0  0  0  0  0  0  0  0  0  0  0  # atno 8010 bound_to 7997
  139.5103  144.3278  152.0140 H   0  0  0  0  0  0  0  0  0  0  0  0  # atno 10167 bound_to 10162
  156.5405  130.4677  149.6501 H   0  0  0  0  0  0  0  0  0  0  0  0  # atno 10718 bound_to 10713
  154.4648  135.5884  153.6281 H   0  0  0  0  0  0  0  0  0  0  0  0  # atno 10763 bound_to 10752
  152.9827  135.6052  154.3440 H   0  0  0  0  0  0  0  0  0  0  0  0  # atno 10764 bound_to 10752
  154.3316  135.2842  155.2448 H   0  0  0  0  0  0  0  0  0  0  0  0  # atno 10765 bound_to 10752
  140.7783  134.3109  157.5053 H   0  0  0  0  0  0  0  0  0  0  0  0  # atno 11005 bound_to 11000
  145.2616  139.1990  143.4889 LP  0  0  0  0  0  0  0  0  0  0  0  0  # atno 17320 bound_to 7965
  146.3370  140.2546  142.8600 LP  0  0  0  0  0  0  0  0  0  0  0  0  # atno 17321 bound_to 7965
  140.2719  144.3955  150.6148 LP  0  0  0  0  0  0  0  0  0  0  0  0  # atno 17342 bound_to 10162
  140.6082  143.2168  151.6938 LP  0  0  0  0  0  0  0  0  0  0  0  0  # atno 17343 bound_to 10162
  156.2976  130.7159  151.2023 LP  0  0  0  0  0  0  0  0  0  0  0  0  # atno 17370 bound_to 10713
  157.7406  131.0515  150.5155 LP  0  0  0  0  0  0  0  0  0  0  0  0  # atno 17371 bound_to 10713
  139.8746  134.9303  156.3498 LP  0  0  0  0  0  0  0  0  0  0  0  0  # atno 17394 bound_to 11000
  140.9507  133.7453  156.0268 LP  0  0  0  0  0  0  0  0  0  0  0  0  # atno 17395 bound_to 11000

$$$$
