AV-unprocessed.smi:1440|AV-procd|sdf|5874|dock10
  -GOLD-   22720 5553D 1   1.00000     0.00000
 Structure written by MMmdl.
 41 42  0  0  0  0  0  0  0  0  1 V2000
  150.8854  142.6146  157.6420 C   0  0  0  0  0  0  0  0  0  0  0  0
  151.5832  141.2879  157.3103 C   0  0  2  0  0  0  0  0  0  0  0  0
  150.8740  140.5510  156.1579 C   0  0  0  0  0  0  0  0  0  0  0  0
  151.5648  139.2159  155.8247 C   0  0  0  0  0  0  0  0  0  0  0  0
  151.6952  138.3006  157.0574 C   0  0  2  0  0  0  0  0  0  0  0  0
  150.3824  137.7877  157.4467 N   0  0  0  0  0  0  0  0  0  0  0  0
  150.1405  136.9656  158.4787 C   0  0  0  0  0  0  0  0  0  0  0  0
  151.0234  136.5480  159.2298 O   0  0  0  0  0  0  0  0  0  0  0  0
  148.6712  136.5784  158.6892 C   0  0  0  0  0  0  0  0  0  0  0  0
  148.4534  135.7427  159.8674 N   0  0  0  0  0  0  0  0  0  0  0  0
  147.8738  136.1459  161.0096 C   0  0  0  0  0  0  0  0  0  0  0  0
  147.4584  137.2896  161.1934 O   0  0  0  0  0  0  0  0  0  0  0  0
  147.7413  135.0967  162.1142 C   0  0  0  0  0  0  0  0  0  0  0  0
  146.3538  134.7187  162.3115 N   0  0  0  0  0  0  0  0  0  0  0  0
  145.7650  133.5222  162.2607 C   0  0  0  0  0  0  0  0  0  0  0  0
  144.4591  133.5584  162.4872 N   0  0  0  0  0  0  0  0  0  0  0  0
  144.2987  134.9009  162.6851 C   0  0  0  0  0  0  0  0  0  0  0  0
  145.4030  135.6418  162.5909 N   0  0  0  0  0  0  0  0  0  0  0  0
  152.3810  139.0476  158.2213 C   0  0  0  0  0  0  0  0  0  0  0  0
  151.6831  140.3790  158.5502 C   0  0  0  0  0  0  0  0  0  0  0  0
  149.8588  142.4517  157.9717 H   0  0  0  0  0  0  0  0  0  0  0  0
  150.8558  143.2705  156.7715 H   0  0  0  0  0  0  0  0  0  0  0  0
  151.4102  143.1460  158.4365 H   0  0  0  0  0  0  0  0  0  0  0  0
  152.5975  141.5231  156.9847 H   0  0  0  0  0  0  0  0  0  0  0  0
  149.8315  140.3690  156.4222 H   0  0  0  0  0  0  0  0  0  0  0  0
  150.8573  141.1819  155.2686 H   0  0  0  0  0  0  0  0  0  0  0  0
  151.0232  138.7031  155.0288 H   0  0  0  0  0  0  0  0  0  0  0  0
  152.5595  139.4222  155.4275 H   0  0  0  0  0  0  0  0  0  0  0  0
  152.3170  137.4487  156.7763 H   0  0  0  0  0  0  0  0  0  0  0  0
  149.5968  138.0843  156.8857 H   0  0  0  0  0  0  0  0  0  0  0  0
  148.0857  137.4905  158.8071 H   0  0  0  0  0  0  0  0  0  0  0  0
  148.2932  136.0773  157.7962 H   0  0  0  0  0  0  0  0  0  0  0  0
  148.7599  134.7823  159.8069 H   0  0  0  0  0  0  0  0  0  0  0  0
  148.3131  134.2049  161.8540 H   0  0  0  0  0  0  0  0  0  0  0  0
  148.1531  135.4823  163.0482 H   0  0  0  0  0  0  0  0  0  0  0  0
  146.3016  132.6088  162.0498 H   0  0  0  0  0  0  0  0  0  0  0  0
  143.3392  135.3455  162.9046 H   0  0  0  0  0  0  0  0  0  0  0  0
  152.4221  138.4182  159.1110 H   0  0  0  0  0  0  0  0  0  0  0  0
  153.4181  139.2492  157.9508 H   0  0  0  0  0  0  0  0  0  0  0  0
  152.2319  140.8894  159.3421 H   0  0  0  0  0  0  0  0  0  0  0  0
  150.6862  140.1823  158.9467 H   0  0  0  0  0  0  0  0  0  0  0  0
  1  2  1  0  0  0  0
  1 21  1  0  0  0  0
  1 22  1  0  0  0  0
  1 23  1  0  0  0  0
  2 20  1  0  0  0  0
  2  3  1  0  0  0  0
  2 24  1  0  0  0  0
  3  4  1  0  0  0  0
  3 25  1  0  0  0  0
  3 26  1  0  0  0  0
  4  5  1  0  0  0  0
  4 27  1  0  0  0  0
  4 28  1  0  0  0  0
  5  6  1  0  0  0  0
  5 19  1  0  0  0  0
  5 29  1  0  0  0  0
  6  7  1  0  0  0  0
  6 30  1  0  0  0  0
  7  8  2  0  0  0  0
  7  9  1  0  0  0  0
  9 10  1  0  0  0  0
  9 31  1  0  0  0  0
  9 32  1  0  0  0  0
 10 11  1  0  0  0  0
 10 33  1  0  0  0  0
 11 12  2  0  0  0  0
 11 13  1  0  0  0  0
 13 14  1  0  0  0  0
 13 34  1  0  0  0  0
 13 35  1  0  0  0  0
 14 18  1  0  0  0  0
 14 15  1  0  0  0  0
 15 16  2  0  0  0  0
 15 36  1  0  0  0  0
 16 17  1  0  0  0  0
 17 18  2  0  0  0  0
 17 37  1  0  0  0  0
 19 20  1  0  0  0  0
 19 38  1  0  0  0  0
 19 39  1  0  0  0  0
 20 40  1  0  0  0  0
 20 41  1  0  0  0  0
M  END
> <s_m_source_file>
AV-unprocessed.smi

> <i_m_source_file_index>
1440

> <i_lp_mmshare_version>
43012

> <i_f3d_flags>
0

> <s_epik_input>
W0NIM11bQ0BASF0xW0NIMl1bQ0gyXVtDQEhdKFtDSDJdW0NIMl0xKVtOSF1DKD1PKVtDSDJdW05IXUMoPU8pW0NIMl1uMltjSF1uW2NIXW4y

> <s_epik_cmdline>
J2VwaWtfcHl0aG9uJywgJy1waCcsICc3LjAnLCAnLXRuJywgJzgnLCAnLW1hJywgJzIwMCcsICctbWV0YWxfYmluZGluZycsICctaW1hZScsICc8aW5maWxlLm1hZT4nLCAnLW9tYWUnLCAnPG91dGZpbGUubWFlPic=

> <r_lp_tautomer_probability>
1

> <r_epik_Ionization_Penalty>
7.34071e-06

> <r_epik_Ionization_Penalty_Charging>
0

> <r_epik_Ionization_Penalty_Neutral>
7.34071e-06

> <r_epik_State_Penalty>
-0

> <r_epik_Charging_Adjusted_Penalty>
0

> <i_epik_Tot_Q>
0

> <i_epik_Tot_abs_Q>
0

> <r_epik_Metal_State_Penalty>
-0

> <b_epik_Metal_Only>
0

> <s_lp_Force_Field>
OPLS_2005

> <r_lp_Energy>
6.43363

> <b_lp_Chiralities_Consistent>
1

> <s_lp_Variant>
AV-unprocessed.smi:1440-2

> <Gold.Version>
5.8.1

> <Gold.Id.Protein>
6NUR|6NUR_protein|mol2

> <Gold.PLP.Fitness>
42.2535

> <Gold.PLP.PLP>
-34.2710

> <Gold.PLP.part.hbond>
-3.0000

> <Gold.PLP.part.metal>
0.0000

> <Gold.PLP.part.buried>
-5.4124

> <Gold.PLP.part.nonpolar>
-26.2492

> <Gold.PLP.part.repulsive>
0.2596

> <Gold.PLP.ligand.clash>
0.0000

> <Gold.PLP.ligand.torsion>
0.1850

> <Gold.PLP.Chemscore.Hbond>
2.7771

> <Gold.PLP.Chemscore.CHOScore>
0.0000

> <Gold.PLP.Chemscore.Metal>
0.0000

> <Gold.Chemscore.Hbonds>
donor molecule, donor type, donor heavy atom, donor atom, acceptor molecule, acceptor atom, score
      P1  H  6896  6908       L1     8  1.00
      P1  H  6931  6943       L1    12  0.83
      P1  H  6934  6947       L1    12  0.96

> <Gold.PLP.Chemscore.Internal.Correction>
0.0210

> <Gold.Rescore>
     Score         DG    S(hbond)    S(metal)    S(lipo)     H(rot)  DE(clash)    DE(int)     intcor
     13.33     -13.83       2.75        0.00      55.65       2.86       0.00       0.50       ----

> <Gold.Chemscore.Fitness>
13.3322

> <Gold.Chemscore.DG>
-13.8342

> <Gold.Chemscore.ZeroCoef>
-5.4800

> <Gold.Chemscore.Hbond>
2.7454

> <Gold.Chemscore.Metal>
0.0000

> <Gold.Chemscore.Lipo>
55.6525

> <Gold.Chemscore.Internal_Hbond>
0.0000

> <Gold.Chemscore.DEClash>
0.0009

> <Gold.Chemscore.DEInternal>
0.5011

> <Gold.Chemscore.Rot>
2.8621

> <Gold.Chemscore.Internal.Correction>
   9.000000E+99

> <Gold.Chemscore.Hbonds>
donor molecule, donor type, donor heavy atom, donor atom, acceptor molecule, acceptor atom, score
      P1  H  6896  6908       L1     8  0.97
      P1  H  6931  6943       L1    12  0.36
      P1  H  6934  6947       L1    12  0.92

> <Gold.Chemscore.Hbond.Weighted>
-9.1698

> <Gold.Chemscore.Metal.Weighted>
-0.0000

> <Gold.Chemscore.Lipo.Weighted>
-6.5113

> <Gold.Chemscore.Internal_Hbond.Weighted>
0.0000

> <Gold.Chemscore.DEClash.Weighted>
0.0009

> <Gold.Chemscore.DEInternal.Weighted>
0.5011

> <Gold.Chemscore.Rot.Weighted>
7.3270

> <Gold.Chemscore.Internal.Correction.Weighted>
   9.000000E+99

> <Gold.Protein.RotatedTorsions>
[ 6907 6896 6895 6894 ] final -137.52 input  -60.11 | X-H torsion
[ 7974 7965 7964 7962 ] final    9.51 input  175.53 | X-H torsion
[ 8008 7997 7996 7995 ] final   29.01 input   59.86 | X-H torsion
[ 10167 10162 10161 10158 ] final -168.42 input  -65.29 | X-H torsion
[ 10718 10713 10712 10709 ] final -156.57 input   66.30 | X-H torsion
[ 10763 10752 10751 10750 ] final   78.55 input  -60.55 | X-H torsion
[ 11005 11000 10999 10996 ] final   -9.72 input  -57.11 | X-H torsion

> <Gold.Protein.ActiveResidues>
 VAL166  LYS551  ARG553  GLY616  TRP617  ASP618  TYR619  PRO620  LYS621  CYS622 
 ASP623  PHE694  ASN695  SER759  ASP760  ASP761  ALA762  ILE779  LEU786  VAL792 
 PHE793  MET794  SER795  GLU796  ALA797  LYS798  CYS799  TRP800  GLU811  SER814 

> <Gold.Protein.RotatedAtoms>
  151.0235  133.5855  159.2668 H   0  0  0  0  0  0  0  0  0  0  0  0  # atno 6907 bound_to 6896
  151.2962  135.0755  159.9232 H   0  0  0  0  0  0  0  0  0  0  0  0  # atno 6908 bound_to 6896
  152.5329  133.9925  159.7911 H   0  0  0  0  0  0  0  0  0  0  0  0  # atno 6909 bound_to 6896
  146.2402  139.9773  142.8440 H   0  0  0  0  0  0  0  0  0  0  0  0  # atno 7974 bound_to 7965
  155.0677  140.3197  155.4640 H   0  0  0  0  0  0  0  0  0  0  0  0  # atno 8008 bound_to 7997
  156.2798  140.2117  156.5749 H   0  0  0  0  0  0  0  0  0  0  0  0  # atno 8009 bound_to 7997
  154.7080  140.0501  157.0510 H   0  0  0  0  0  0  0  0  0  0  0  0  # atno 8010 bound_to 7997
  139.5986  144.1059  152.1717 H   0  0  0  0  0  0  0  0  0  0  0  0  # atno 10167 bound_to 10162
  156.5284  130.8509  151.2707 H   0  0  0  0  0  0  0  0  0  0  0  0  # atno 10718 bound_to 10713
  153.0883  135.4873  154.8639 H   0  0  0  0  0  0  0  0  0  0  0  0  # atno 10763 bound_to 10752
  154.7237  135.3045  154.9007 H   0  0  0  0  0  0  0  0  0  0  0  0  # atno 10764 bound_to 10752
  153.9664  135.6806  153.4799 H   0  0  0  0  0  0  0  0  0  0  0  0  # atno 10765 bound_to 10752
  140.7372  133.8700  155.8939 H   0  0  0  0  0  0  0  0  0  0  0  0  # atno 11005 bound_to 11000
  145.1625  140.9680  143.4369 LP  0  0  0  0  0  0  0  0  0  0  0  0  # atno 17320 bound_to 7965
  145.0103  139.3516  143.6123 LP  0  0  0  0  0  0  0  0  0  0  0  0  # atno 17321 bound_to 7965
  140.0650  144.5826  150.7234 LP  0  0  0  0  0  0  0  0  0  0  0  0  # atno 17342 bound_to 10162
  140.7232  143.2609  151.4210 LP  0  0  0  0  0  0  0  0  0  0  0  0  # atno 17343 bound_to 10162
  157.7426  130.9893  150.2527 LP  0  0  0  0  0  0  0  0  0  0  0  0  # atno 17370 bound_to 10713
  156.3083  130.3768  149.7685 LP  0  0  0  0  0  0  0  0  0  0  0  0  # atno 17371 bound_to 10713
  140.9869  134.1331  157.4444 LP  0  0  0  0  0  0  0  0  0  0  0  0  # atno 17394 bound_to 11000
  139.8814  135.0028  156.6150 LP  0  0  0  0  0  0  0  0  0  0  0  0  # atno 17395 bound_to 11000

$$$$
