AV-unprocessed.smi:2930|AV-procd|sdf|11241|dock4
  -GOLD-   2272016133D 1   1.00000     0.00000
 Structure written by MMmdl.
 40 41  0  0  0  0  0  0  0  0  1 V2000
  149.1632  132.1938  153.8000 C   0  0  0  0  0  0  0  0  0  0  0  0
  148.0701  133.2404  154.0560 C   0  0  1  0  0  0  0  0  0  0  0  0
  148.6368  134.5767  153.8902 N   0  0  0  0  0  0  0  0  0  0  0  0
  148.9752  135.4130  154.8822 C   0  0  0  0  0  0  0  0  0  0  0  0
  148.8472  135.1429  156.0758 O   0  0  0  0  0  0  0  0  0  0  0  0
  149.4437  136.5749  154.3964 N   0  0  0  0  0  0  0  0  0  0  0  0
  149.9126  137.7057  155.1170 C   0  0  0  0  0  0  0  0  0  0  0  0
  150.0411  137.7801  156.5246 C   0  0  0  0  0  0  0  0  0  0  0  0
  150.5141  138.8878  157.1350 N   0  0  0  0  0  0  0  0  0  0  0  0
  150.8652  139.9249  156.3634 C   0  0  0  0  0  0  0  0  0  0  0  0
  151.3491  141.0693  157.0040 N   0  0  0  0  0  0  0  0  0  0  0  0
  151.0328  142.4052  156.5066 C   0  0  0  0  0  0  0  0  0  0  0  0
  152.1897  140.9711  158.1938 C   0  0  0  0  0  0  0  0  0  0  0  0
  150.7925  139.9507  155.0258 N   0  0  0  0  0  0  0  0  0  0  0  0
  150.3237  138.8488  154.4034 C   0  0  0  0  0  0  0  0  0  0  0  0
  146.8719  133.0605  153.1217 C   0  0  0  0  0  0  0  0  0  0  0  0
  147.0367  133.2482  151.6050 C   0  0  0  0  0  0  0  0  0  0  0  0
  145.6173  133.8207  151.5682 C   0  0  0  0  0  0  0  0  0  0  0  0
  145.7786  134.1384  153.0573 C   0  0  0  0  0  0  0  0  0  0  0  0
  148.7836  131.1833  153.9529 H   0  0  0  0  0  0  0  0  0  0  0  0
  150.0061  132.3322  154.4780 H   0  0  0  0  0  0  0  0  0  0  0  0
  149.5421  132.2554  152.7792 H   0  0  0  0  0  0  0  0  0  0  0  0
  147.7415  133.1137  155.0892 H   0  0  0  0  0  0  0  0  0  0  0  0
  148.7738  134.8920  152.9411 H   0  0  0  0  0  0  0  0  0  0  0  0
  149.4179  136.6804  153.3926 H   0  0  0  0  0  0  0  0  0  0  0  0
  149.7913  136.9600  157.1792 H   0  0  0  0  0  0  0  0  0  0  0  0
  149.9541  142.5657  156.5084 H   0  0  0  0  0  0  0  0  0  0  0  0
  151.3975  142.5276  155.4864 H   0  0  0  0  0  0  0  0  0  0  0  0
  151.4862  143.1860  157.1174 H   0  0  0  0  0  0  0  0  0  0  0  0
  153.1043  140.4216  157.9683 H   0  0  0  0  0  0  0  0  0  0  0  0
  151.6611  140.4475  158.9909 H   0  0  0  0  0  0  0  0  0  0  0  0
  152.4759  141.9519  158.5736 H   0  0  0  0  0  0  0  0  0  0  0  0
  150.2744  138.8842  153.3250 H   0  0  0  0  0  0  0  0  0  0  0  0
  146.3890  132.0966  153.2986 H   0  0  0  0  0  0  0  0  0  0  0  0
  147.7954  133.9898  151.3486 H   0  0  0  0  0  0  0  0  0  0  0  0
  147.1741  132.3234  151.0442 H   0  0  0  0  0  0  0  0  0  0  0  0
  145.4919  134.6926  150.9255 H   0  0  0  0  0  0  0  0  0  0  0  0
  144.8582  133.0607  151.3766 H   0  0  0  0  0  0  0  0  0  0  0  0
  144.8984  133.9329  153.6672 H   0  0  0  0  0  0  0  0  0  0  0  0
  146.1639  135.1443  153.2327 H   0  0  0  0  0  0  0  0  0  0  0  0
  1  2  1  0  0  0  0
  1 20  1  0  0  0  0
  1 21  1  0  0  0  0
  1 22  1  0  0  0  0
  2  3  1  0  0  0  0
  2 16  1  0  0  0  0
  2 23  1  0  0  0  0
  3  4  1  0  0  0  0
  3 24  1  0  0  0  0
  4  5  2  0  0  0  0
  4  6  1  0  0  0  0
  6  7  1  0  0  0  0
  6 25  1  0  0  0  0
  7 15  1  0  0  0  0
  7  8  2  0  0  0  0
  8  9  1  0  0  0  0
  8 26  1  0  0  0  0
  9 10  2  0  0  0  0
 10 11  1  0  0  0  0
 10 14  1  0  0  0  0
 11 12  1  0  0  0  0
 11 13  1  0  0  0  0
 12 27  1  0  0  0  0
 12 28  1  0  0  0  0
 12 29  1  0  0  0  0
 13 30  1  0  0  0  0
 13 31  1  0  0  0  0
 13 32  1  0  0  0  0
 14 15  2  0  0  0  0
 15 33  1  0  0  0  0
 16 19  1  0  0  0  0
 16 17  1  0  0  0  0
 16 34  1  0  0  0  0
 17 18  1  0  0  0  0
 17 35  1  0  0  0  0
 17 36  1  0  0  0  0
 18 19  1  0  0  0  0
 18 37  1  0  0  0  0
 18 38  1  0  0  0  0
 19 39  1  0  0  0  0
 19 40  1  0  0  0  0
M  END
> <s_m_source_file>
AV-unprocessed.smi

> <i_m_source_file_index>
2930

> <i_lp_mmshare_version>
43012

> <i_f3d_flags>
0

> <s_epik_input>
W0NIMl0xW0NIMl1bQ0gyXVtDSF0xW0NASF0oW0NIM10pW05IXUMoPU8pW05IXWMyW2NIXW5jKE4oW0NIM10pW0NIM10pbltjSF0y

> <s_epik_cmdline>
J2VwaWtfcHl0aG9uJywgJy1waCcsICc3LjAnLCAnLXRuJywgJzgnLCAnLW1hJywgJzIwMCcsICctbWV0YWxfYmluZGluZycsICctaW1hZScsICc8aW5maWxlLm1hZT4nLCAnLW9tYWUnLCAnPG91dGZpbGUubWFlPic=

> <r_lp_tautomer_probability>
1

> <r_epik_Ionization_Penalty>
0.000323856

> <r_epik_Ionization_Penalty_Charging>
0

> <r_epik_Ionization_Penalty_Neutral>
0.000323856

> <r_epik_State_Penalty>
-0

> <r_epik_Charging_Adjusted_Penalty>
0

> <i_epik_Tot_Q>
0

> <i_epik_Tot_abs_Q>
0

> <r_epik_Metal_State_Penalty>
-0

> <b_epik_Metal_Only>
0

> <s_lp_Force_Field>
OPLS_2005

> <r_lp_Energy>
8.86729

> <b_lp_Chiralities_Consistent>
1

> <s_lp_Variant>
AV-unprocessed.smi:2930-2

> <Gold.Version>
5.8.1

> <Gold.Id.Protein>
6NUR|6NUR_protein|mol2

> <Gold.PLP.Fitness>
37.9555

> <Gold.PLP.PLP>
-27.4374

> <Gold.PLP.part.hbond>
-3.0000

> <Gold.PLP.part.metal>
0.0000

> <Gold.PLP.part.buried>
-2.8758

> <Gold.PLP.part.nonpolar>
-21.3724

> <Gold.PLP.part.repulsive>
0.1005

> <Gold.PLP.ligand.clash>
0.0000

> <Gold.PLP.ligand.torsion>
0.7926

> <Gold.PLP.Chemscore.Hbond>
2.9920

> <Gold.PLP.Chemscore.CHOScore>
1.0000

> <Gold.PLP.Chemscore.Metal>
0.0000

> <Gold.Chemscore.Hbonds>
donor molecule, donor type, donor heavy atom, donor atom, acceptor molecule, acceptor atom, score
      L1  H     3    24       P1  7948  0.93
      L1  H     6    25       P1  7948  1.00
      P1  H  7989  7998       L1    14  1.00
      L1  C    15    33       P1  7957  1.00

> <Gold.PLP.Chemscore.Internal.Correction>
0.1273

> <Gold.Rescore>
     Score         DG    S(hbond)    S(metal)    S(lipo)     H(rot)  DE(clash)    DE(int)     intcor
     14.89     -17.27       2.59        0.00      53.05       1.19       0.15       2.22       ----

> <Gold.Chemscore.Fitness>
14.8942

> <Gold.Chemscore.DG>
-17.2719

> <Gold.Chemscore.ZeroCoef>
-5.4800

> <Gold.Chemscore.Hbond>
2.5880

> <Gold.Chemscore.Metal>
0.0000

> <Gold.Chemscore.Lipo>
53.0497

> <Gold.Chemscore.Internal_Hbond>
0.0000

> <Gold.Chemscore.DEClash>
0.1527

> <Gold.Chemscore.DEInternal>
2.2249

> <Gold.Chemscore.Rot>
1.1949

> <Gold.Chemscore.Internal.Correction>
   9.000000E+99

> <Gold.Chemscore.Hbonds>
donor molecule, donor type, donor heavy atom, donor atom, acceptor molecule, acceptor atom, score
      L1  H     3    24       P1  7948  0.20
      L1  H     6    25       P1  7948  0.83
      P1  H  7989  7998       L1    14  0.25

> <Gold.Chemscore.Hbond.Weighted>
-8.6440

> <Gold.Chemscore.Metal.Weighted>
-0.0000

> <Gold.Chemscore.Lipo.Weighted>
-6.2068

> <Gold.Chemscore.Internal_Hbond.Weighted>
0.0000

> <Gold.Chemscore.DEClash.Weighted>
0.1527

> <Gold.Chemscore.DEInternal.Weighted>
2.2249

> <Gold.Chemscore.Rot.Weighted>
3.0590

> <Gold.Chemscore.Internal.Correction.Weighted>
   9.000000E+99

> <Gold.Protein.RotatedTorsions>
[ 6907 6896 6895 6894 ] final  127.78 input  -60.11 | X-H torsion
[ 7974 7965 7964 7962 ] final -105.34 input  175.53 | X-H torsion
[ 8008 7997 7996 7995 ] final  144.20 input   59.86 | X-H torsion
[ 10167 10162 10161 10158 ] final  -30.56 input  -65.29 | X-H torsion
[ 10718 10713 10712 10709 ] final -131.19 input   66.30 | X-H torsion
[ 10763 10752 10751 10750 ] final -168.59 input  -60.55 | X-H torsion
[ 11005 11000 10999 10996 ] final  123.92 input  -57.11 | X-H torsion

> <Gold.Protein.ActiveResidues>
 VAL166  LYS551  ARG553  GLY616  TRP617  ASP618  TYR619  PRO620  LYS621  CYS622 
 ASP623  PHE694  ASN695  SER759  ASP760  ASP761  ALA762  ILE779  LEU786  VAL792 
 PHE793  MET794  SER795  GLU796  ALA797  LYS798  CYS799  TRP800  GLU811  SER814 

> <Gold.Protein.RotatedAtoms>
  152.3780  133.6508  159.6138 H   0  0  0  0  0  0  0  0  0  0  0  0  # atno 6907 bound_to 6896
  150.7719  133.9160  159.3392 H   0  0  0  0  0  0  0  0  0  0  0  0  # atno 6908 bound_to 6896
  151.6971  135.0938  160.0295 H   0  0  0  0  0  0  0  0  0  0  0  0  # atno 6909 bound_to 6896
  145.2316  140.9173  143.3201 H   0  0  0  0  0  0  0  0  0  0  0  0  # atno 7974 bound_to 7965
  156.2913  140.2242  156.5015 H   0  0  0  0  0  0  0  0  0  0  0  0  # atno 8008 bound_to 7997
  154.7686  140.0468  157.1054 H   0  0  0  0  0  0  0  0  0  0  0  0  # atno 8009 bound_to 7997
  154.9902  140.3089  155.4913 H   0  0  0  0  0  0  0  0  0  0  0  0  # atno 8010 bound_to 7997
  140.7248  143.3839  151.1550 H   0  0  0  0  0  0  0  0  0  0  0  0  # atno 10167 bound_to 10162
  156.2219  130.6984  151.0765 H   0  0  0  0  0  0  0  0  0  0  0  0  # atno 10718 bound_to 10713
  154.6613  135.2925  154.9863 H   0  0  0  0  0  0  0  0  0  0  0  0  # atno 10763 bound_to 10752
  154.0922  135.6589  153.4858 H   0  0  0  0  0  0  0  0  0  0  0  0  # atno 10764 bound_to 10752
  153.0431  135.5222  154.7565 H   0  0  0  0  0  0  0  0  0  0  0  0  # atno 10765 bound_to 10752
  139.9335  134.9640  156.8332 H   0  0  0  0  0  0  0  0  0  0  0  0  # atno 11005 bound_to 11000
  144.9671  139.3919  143.6327 LP  0  0  0  0  0  0  0  0  0  0  0  0  # atno 17320 bound_to 7965
  146.3351  139.8751  142.8833 LP  0  0  0  0  0  0  0  0  0  0  0  0  # atno 17321 bound_to 7965
  139.7433  143.8891  152.3056 LP  0  0  0  0  0  0  0  0  0  0  0  0  # atno 17342 bound_to 10162
  139.8720  144.7063  150.8977 LP  0  0  0  0  0  0  0  0  0  0  0  0  # atno 17343 bound_to 10162
  157.7092  131.0742  150.6562 LP  0  0  0  0  0  0  0  0  0  0  0  0  # atno 17370 bound_to 10713
  156.6626  130.4516  149.5683 LP  0  0  0  0  0  0  0  0  0  0  0  0  # atno 17371 bound_to 10713
  140.6139  134.0057  155.7588 LP  0  0  0  0  0  0  0  0  0  0  0  0  # atno 17394 bound_to 11000
  141.0936  133.9878  157.3197 LP  0  0  0  0  0  0  0  0  0  0  0  0  # atno 17395 bound_to 11000

$$$$
