AV-unprocessed.smi:561|AV-procd|sdf|2939|dock5
  -GOLD-   2262023433D 1   1.00000     0.00000
 Structure written by MMmdl.
 36 37  0  0  0  0  0  0  0  0  1 V2000
  145.5746  136.8793  151.9840 C   0  0  0  0  0  0  0  0  0  0  0  0
  145.6485  135.3565  152.1690 C   0  0  1  0  0  0  0  0  0  0  0  0
  145.9775  134.6401  150.8454 C   0  0  0  0  0  0  0  0  0  0  0  0
  145.3644  133.3267  150.7656 N   0  0  0  0  0  0  0  0  0  0  0  0
  144.0318  133.0392  150.5022 C   0  0  0  0  0  0  0  0  0  0  0  0
  143.9111  131.6685  150.5390 C   0  0  0  0  0  0  0  0  0  0  0  0
  145.1496  131.0955  150.8197 N   0  0  0  0  0  0  0  0  0  0  0  0
  145.9604  132.1386  150.9390 C   0  0  0  0  0  0  0  0  0  0  0  0
  146.6550  135.0248  153.1743 N   0  0  0  0  0  0  0  0  0  0  0  0
  146.4326  134.3669  154.3265 C   0  0  0  0  0  0  0  0  0  0  0  0
  145.3109  134.0210  154.6981 O   0  0  0  0  0  0  0  0  0  0  0  0
  147.6408  134.0625  155.1384 C   0  0  0  0  0  0  0  0  0  0  0  0
  147.5159  133.7361  156.3868 N   0  0  0  0  0  0  0  0  0  0  0  0
  148.6043  133.4652  157.1896 N   0  0  0  0  0  0  0  0  0  0  0  0
  148.2778  133.4007  158.6139 C   0  0  0  0  0  0  0  0  0  0  0  0
  149.8649  133.2562  156.7293 C   0  0  0  0  0  0  0  0  0  0  0  0
  150.8381  133.0421  157.4517 O   0  0  0  0  0  0  0  0  0  0  0  0
  150.0444  133.2665  155.2081 C   0  0  0  0  0  0  0  0  0  0  0  0
  149.0128  134.1702  154.5050 C   0  0  0  0  0  0  0  0  0  0  0  0
  144.8139  137.1478  151.2504 H   0  0  0  0  0  0  0  0  0  0  0  0
  146.5268  137.2842  151.6397 H   0  0  0  0  0  0  0  0  0  0  0  0
  145.3183  137.3783  152.9192 H   0  0  0  0  0  0  0  0  0  0  0  0
  144.6707  135.0074  152.5067 H   0  0  0  0  0  0  0  0  0  0  0  0
  145.6216  135.2297  149.9995 H   0  0  0  0  0  0  0  0  0  0  0  0
  147.0562  134.5335  150.7211 H   0  0  0  0  0  0  0  0  0  0  0  0
  143.3002  133.8124  150.3190 H   0  0  0  0  0  0  0  0  0  0  0  0
  143.0349  131.0555  150.3871 H   0  0  0  0  0  0  0  0  0  0  0  0
  147.0120  132.0364  151.1654 H   0  0  0  0  0  0  0  0  0  0  0  0
  147.6095  135.2743  152.9585 H   0  0  0  0  0  0  0  0  0  0  0  0
  149.1169  133.1085  159.2465 H   0  0  0  0  0  0  0  0  0  0  0  0
  147.4782  132.6786  158.7838 H   0  0  0  0  0  0  0  0  0  0  0  0
  147.9287  134.3743  158.9599 H   0  0  0  0  0  0  0  0  0  0  0  0
  151.0579  133.5763  154.9510 H   0  0  0  0  0  0  0  0  0  0  0  0
  149.9318  132.2397  154.8582 H   0  0  0  0  0  0  0  0  0  0  0  0
  148.9725  133.8938  153.4508 H   0  0  0  0  0  0  0  0  0  0  0  0
  149.3439  135.2088  154.5387 H   0  0  0  0  0  0  0  0  0  0  0  0
  1  2  1  0  0  0  0
  1 20  1  0  0  0  0
  1 21  1  0  0  0  0
  1 22  1  0  0  0  0
  2  3  1  0  0  0  0
  2  9  1  0  0  0  0
  2 23  1  0  0  0  0
  3  4  1  0  0  0  0
  3 24  1  0  0  0  0
  3 25  1  0  0  0  0
  4  8  1  0  0  0  0
  4  5  1  0  0  0  0
  5  6  2  0  0  0  0
  5 26  1  0  0  0  0
  6  7  1  0  0  0  0
  6 27  1  0  0  0  0
  7  8  2  0  0  0  0
  8 28  1  0  0  0  0
  9 10  1  0  0  0  0
  9 29  1  0  0  0  0
 10 11  2  0  0  0  0
 10 12  1  0  0  0  0
 12 19  1  0  0  0  0
 12 13  2  0  0  0  0
 13 14  1  0  0  0  0
 14 15  1  0  0  0  0
 14 16  1  0  0  0  0
 15 30  1  0  0  0  0
 15 31  1  0  0  0  0
 15 32  1  0  0  0  0
 16 17  2  0  0  0  0
 16 18  1  0  0  0  0
 18 19  1  0  0  0  0
 18 33  1  0  0  0  0
 18 34  1  0  0  0  0
 19 35  1  0  0  0  0
 19 36  1  0  0  0  0
M  END
> <s_m_source_file>
AV-unprocessed.smi

> <i_m_source_file_index>
561

> <i_lp_mmshare_version>
43012

> <i_f3d_flags>
0

> <s_epik_input>
W2NIXTFuW2NIXVtjSF1uMVtDSDJdW0NAQEhdKFtDSDNdKVtOSF1DKD1PKUMyPU5OKFtDSDNdKUMoPU8pW0NIMl1bQ0gyXTI=

> <s_epik_cmdline>
J2VwaWtfcHl0aG9uJywgJy1waCcsICc3LjAnLCAnLXRuJywgJzgnLCAnLW1hJywgJzIwMCcsICctbWV0YWxfYmluZGluZycsICctaW1hZScsICc8aW5maWxlLm1hZT4nLCAnLW9tYWUnLCAnPG91dGZpbGUubWFlPic=

> <r_lp_tautomer_probability>
1

> <r_epik_Ionization_Penalty>
0.46798

> <r_epik_Ionization_Penalty_Charging>
0.467902

> <r_epik_Ionization_Penalty_Neutral>
7.78263e-05

> <r_epik_State_Penalty>
0.47192

> <r_epik_Charging_Adjusted_Penalty>
0.939822

> <i_epik_Tot_Q>
0

> <i_epik_Tot_abs_Q>
0

> <r_epik_Metal_State_Penalty>
0.280825

> <b_epik_Metal_Only>
0

> <s_epik_Chemistry_Notes>
This compound has an imine and may undergo hydrolysis.

> <s_lp_Force_Field>
OPLS_2005

> <r_lp_Energy>
18.7987

> <b_lp_Chiralities_Consistent>
1

> <s_lp_Variant>
AV-unprocessed.smi:561-4

> <Gold.Version>
5.8.1

> <Gold.Id.Protein>
6NUR|6NUR_protein|mol2

> <Gold.PLP.Fitness>
39.9866

> <Gold.PLP.PLP>
-26.4163

> <Gold.PLP.part.hbond>
-2.0000

> <Gold.PLP.part.metal>
0.0000

> <Gold.PLP.part.buried>
-3.6052

> <Gold.PLP.part.nonpolar>
-20.9488

> <Gold.PLP.part.repulsive>
0.1902

> <Gold.PLP.ligand.clash>
0.0000

> <Gold.PLP.ligand.torsion>
0.7334

> <Gold.PLP.Chemscore.Hbond>
2.0000

> <Gold.PLP.Chemscore.CHOScore>
3.0000

> <Gold.PLP.Chemscore.Metal>
0.0000

> <Gold.Chemscore.Hbonds>
donor molecule, donor type, donor heavy atom, donor atom, acceptor molecule, acceptor atom, score
      L1  H     9    29       P1  7948  1.00
      P1  H  6896  6907       L1    17  0.94
      L1  C     5    26       P1 10186  1.00
      L1  C     6    27       P1 10952  1.00
      L1  C     8    28       P1 10747  1.00

> <Gold.PLP.Chemscore.Internal.Correction>
0.0370

> <Gold.Rescore>
     Score         DG    S(hbond)    S(metal)    S(lipo)     H(rot)  DE(clash)    DE(int)     intcor
     12.79     -13.41       1.89        0.00      51.21       1.71       0.03       0.59       ----

> <Gold.Chemscore.Fitness>
12.7867

> <Gold.Chemscore.DG>
-13.4081

> <Gold.Chemscore.ZeroCoef>
-5.4800

> <Gold.Chemscore.Hbond>
1.8892

> <Gold.Chemscore.Metal>
0.0000

> <Gold.Chemscore.Lipo>
51.2141

> <Gold.Chemscore.Internal_Hbond>
0.0000

> <Gold.Chemscore.DEClash>
0.0338

> <Gold.Chemscore.DEInternal>
0.5876

> <Gold.Chemscore.Rot>
1.7086

> <Gold.Chemscore.Internal.Correction>
   9.000000E+99

> <Gold.Chemscore.Hbonds>
donor molecule, donor type, donor heavy atom, donor atom, acceptor molecule, acceptor atom, score
      L1  H     9    29       P1  7948  0.95
      P1  H  6896  6907       L1    17  0.91

> <Gold.Chemscore.Hbond.Weighted>
-6.3100

> <Gold.Chemscore.Metal.Weighted>
-0.0000

> <Gold.Chemscore.Lipo.Weighted>
-5.9921

> <Gold.Chemscore.Internal_Hbond.Weighted>
0.0000

> <Gold.Chemscore.DEClash.Weighted>
0.0338

> <Gold.Chemscore.DEInternal.Weighted>
0.5876

> <Gold.Chemscore.Rot.Weighted>
4.3739

> <Gold.Chemscore.Internal.Correction.Weighted>
   9.000000E+99

> <Gold.Protein.RotatedTorsions>
[ 6907 6896 6895 6894 ] final -159.08 input  -60.11 | X-H torsion
[ 7974 7965 7964 7962 ] final  -43.51 input  175.53 | X-H torsion
[ 8008 7997 7996 7995 ] final  -15.08 input   59.86 | X-H torsion
[ 10167 10162 10161 10158 ] final   61.78 input  -65.29 | X-H torsion
[ 10718 10713 10712 10709 ] final   21.13 input   66.30 | X-H torsion
[ 10763 10752 10751 10750 ] final   39.25 input  -60.55 | X-H torsion
[ 11005 11000 10999 10996 ] final -168.56 input  -57.11 | X-H torsion

> <Gold.Protein.ActiveResidues>
 VAL166  LYS551  ARG553  GLY616  TRP617  ASP618  TYR619  PRO620  LYS621  CYS622 
 ASP623  PHE694  ASN695  SER759  ASP760  ASP761  ALA762  ILE779  LEU786  VAL792 
 PHE793  MET794  SER795  GLU796  ALA797  LYS798  CYS799  TRP800  GLU811  SER814 

> <Gold.Protein.RotatedAtoms>
  151.3281  133.4012  159.2659 H   0  0  0  0  0  0  0  0  0  0  0  0  # atno 6907 bound_to 6896
  150.9978  134.9298  159.7947 H   0  0  0  0  0  0  0  0  0  0  0  0  # atno 6908 bound_to 6896
  152.5266  134.3246  159.9213 H   0  0  0  0  0  0  0  0  0  0  0  0  # atno 6909 bound_to 6896
  146.0011  140.7073  142.9270 H   0  0  0  0  0  0  0  0  0  0  0  0  # atno 7974 bound_to 7965
  154.5158  140.2206  155.9068 H   0  0  0  0  0  0  0  0  0  0  0  0  # atno 8008 bound_to 7997
  156.1606  140.3143  155.8766 H   0  0  0  0  0  0  0  0  0  0  0  0  # atno 8009 bound_to 7997
  155.3759  140.0469  157.3035 H   0  0  0  0  0  0  0  0  0  0  0  0  # atno 8010 bound_to 7997
  140.1510  144.4462  150.6759 H   0  0  0  0  0  0  0  0  0  0  0  0  # atno 10167 bound_to 10162
  157.1342  130.6604  149.5961 H   0  0  0  0  0  0  0  0  0  0  0  0  # atno 10718 bound_to 10713
  152.9973  135.6226  154.2435 H   0  0  0  0  0  0  0  0  0  0  0  0  # atno 10763 bound_to 10752
  154.2175  135.2797  155.2938 H   0  0  0  0  0  0  0  0  0  0  0  0  # atno 10764 bound_to 10752
  154.5556  135.5720  153.7019 H   0  0  0  0  0  0  0  0  0  0  0  0  # atno 10765 bound_to 10752
  140.5407  134.5526  157.5099 H   0  0  0  0  0  0  0  0  0  0  0  0  # atno 11005 bound_to 11000
  144.6920  140.3235  143.7228 LP  0  0  0  0  0  0  0  0  0  0  0  0  # atno 17320 bound_to 7965
  145.7485  139.1786  143.2335 LP  0  0  0  0  0  0  0  0  0  0  0  0  # atno 17321 bound_to 7965
  140.6702  143.2283  151.5643 LP  0  0  0  0  0  0  0  0  0  0  0  0  # atno 17342 bound_to 10162
  139.5426  144.2607  152.1380 LP  0  0  0  0  0  0  0  0  0  0  0  0  # atno 17343 bound_to 10162
  155.9801  130.4800  150.6756 LP  0  0  0  0  0  0  0  0  0  0  0  0  # atno 17370 bound_to 10713
  157.4365  131.0856  151.0986 LP  0  0  0  0  0  0  0  0  0  0  0  0  # atno 17371 bound_to 10713
  139.9506  134.7624  156.0458 LP  0  0  0  0  0  0  0  0  0  0  0  0  # atno 17394 bound_to 11000
  141.1229  133.6607  156.3261 LP  0  0  0  0  0  0  0  0  0  0  0  0  # atno 17395 bound_to 11000

$$$$
