AV-unprocessed.smi:1153|AV-procd|sdf|4899|dock2
  -GOLD-   22720 3473D 1   1.00000     0.00000
 Structure written by MMmdl.
 26 27  0  0  0  0  0  0  0  0  1 V2000
  153.5016  138.6554  160.5445 O   0  0  0  0  0  0  0  0  0  0  0  0
  154.4907  139.2407  160.9879 C   0  0  0  0  0  0  0  0  0  0  0  0
  154.9300  140.5904  160.4079 C   0  0  0  0  0  0  0  0  0  0  0  0
  153.9391  141.6337  160.6169 N   0  0  0  0  0  0  0  0  0  0  0  0
  153.3504  142.0344  161.7975 C   0  0  0  0  0  0  0  0  0  0  0  0
  152.4829  143.0444  161.4962 C   0  0  0  0  0  0  0  0  0  0  0  0
  152.6047  143.1968  160.0843 C   0  0  0  0  0  0  0  0  0  0  0  0
  151.8851  144.1655  159.1831 C   0  0  0  0  0  0  0  0  0  0  0  0
  151.4073  145.1833  159.8991 F   0  0  0  0  0  0  0  0  0  0  0  0
  152.7185  144.6454  158.2600 F   0  0  0  0  0  0  0  0  0  0  0  0
  150.8731  143.5520  158.5698 F   0  0  0  0  0  0  0  0  0  0  0  0
  153.4779  142.3439  159.5651 N   0  0  0  0  0  0  0  0  0  0  0  0
  155.2421  138.7626  161.9909 N   0  0  0  0  0  0  0  0  0  0  0  0
  155.0218  137.5318  162.6789 C   0  0  0  0  0  0  0  0  0  0  0  0
  153.6233  137.2499  163.1842 C   0  0  0  0  0  0  0  0  0  0  0  0
  154.7131  137.6005  164.1590 C   0  0  0  0  0  0  0  0  0  0  0  0
  155.8747  140.8869  160.8659 H   0  0  0  0  0  0  0  0  0  0  0  0
  155.1071  140.4983  159.3354 H   0  0  0  0  0  0  0  0  0  0  0  0
  153.5978  141.5744  162.7429 H   0  0  0  0  0  0  0  0  0  0  0  0
  151.8547  143.5937  162.1817 H   0  0  0  0  0  0  0  0  0  0  0  0
  156.0323  139.3144  162.2918 H   0  0  0  0  0  0  0  0  0  0  0  0
  155.5946  136.6655  162.3510 H   0  0  0  0  0  0  0  0  0  0  0  0
  152.8543  137.9979  163.0003 H   0  0  0  0  0  0  0  0  0  0  0  0
  153.2817  136.2169  163.1628 H   0  0  0  0  0  0  0  0  0  0  0  0
  155.0994  136.8018  164.7890 H   0  0  0  0  0  0  0  0  0  0  0  0
  154.6715  138.5827  164.6262 H   0  0  0  0  0  0  0  0  0  0  0  0
  1  2  2  0  0  0  0
  2  3  1  0  0  0  0
  2 13  1  0  0  0  0
  3  4  1  0  0  0  0
  3 17  1  0  0  0  0
  3 18  1  0  0  0  0
  4 12  1  0  0  0  0
  4  5  1  0  0  0  0
  5  6  2  0  0  0  0
  5 19  1  0  0  0  0
  6  7  1  0  0  0  0
  6 20  1  0  0  0  0
  7  8  1  0  0  0  0
  7 12  2  0  0  0  0
  8  9  1  0  0  0  0
  8 10  1  0  0  0  0
  8 11  1  0  0  0  0
 13 14  1  0  0  0  0
 13 21  1  0  0  0  0
 14 16  1  0  0  0  0
 14 15  1  0  0  0  0
 14 22  1  0  0  0  0
 15 16  1  0  0  0  0
 15 23  1  0  0  0  0
 15 24  1  0  0  0  0
 16 25  1  0  0  0  0
 16 26  1  0  0  0  0
M  END
> <s_m_source_file>
AV-unprocessed.smi

> <i_m_source_file_index>
1153

> <i_lp_mmshare_version>
43012

> <i_f3d_flags>
0

> <s_epik_input>
W0NIMl0xW0NIMl1bQ0hdMVtOSF1DKD1PKVtDSDJdbjJbY0hdW2NIXWMobjIpQyhGKShGKUY=

> <s_epik_cmdline>
J2VwaWtfcHl0aG9uJywgJy1waCcsICc3LjAnLCAnLXRuJywgJzgnLCAnLW1hJywgJzIwMCcsICctbWV0YWxfYmluZGluZycsICctaW1hZScsICc8aW5maWxlLm1hZT4nLCAnLW9tYWUnLCAnPG91dGZpbGUubWFlPic=

> <r_lp_tautomer_probability>
1

> <r_epik_Ionization_Penalty>
7.21317e-08

> <r_epik_Ionization_Penalty_Charging>
0

> <r_epik_Ionization_Penalty_Neutral>
7.21317e-08

> <r_epik_State_Penalty>
-0

> <r_epik_Charging_Adjusted_Penalty>
0

> <i_epik_Tot_Q>
0

> <i_epik_Tot_abs_Q>
0

> <r_epik_Metal_State_Penalty>
-0

> <b_epik_Metal_Only>
0

> <s_lp_Force_Field>
OPLS_2005

> <r_lp_Energy>
18.4383

> <b_lp_Chiralities_Consistent>
1

> <s_lp_Variant>
AV-unprocessed.smi:1153-1

> <Gold.Version>
5.8.1

> <Gold.Id.Protein>
6NUR|6NUR_protein|mol2

> <Gold.PLP.Fitness>
42.6916

> <Gold.PLP.PLP>
-44.5384

> <Gold.PLP.part.hbond>
0.0000

> <Gold.PLP.part.metal>
0.0000

> <Gold.PLP.part.buried>
-5.5947

> <Gold.PLP.part.nonpolar>
-38.5747

> <Gold.PLP.part.repulsive>
0.0000

> <Gold.PLP.ligand.clash>
0.0000

> <Gold.PLP.ligand.torsion>
0.9472

> <Gold.PLP.Chemscore.Hbond>
0.0000

> <Gold.PLP.Chemscore.CHOScore>
0.0000

> <Gold.PLP.Chemscore.Metal>
0.0000

> <Gold.PLP.Chemscore.Internal.Correction>
0.0476

> <Gold.Rescore>
     Score         DG    S(hbond)    S(metal)    S(lipo)     H(rot)  DE(clash)    DE(int)     intcor
      8.84     -10.51       0.00        0.00      78.85       1.64       0.00       1.67       ----

> <Gold.Chemscore.Fitness>
8.8433

> <Gold.Chemscore.DG>
-10.5143

> <Gold.Chemscore.ZeroCoef>
-5.4800

> <Gold.Chemscore.Hbond>
0.0000

> <Gold.Chemscore.Metal>
0.0000

> <Gold.Chemscore.Lipo>
78.8515

> <Gold.Chemscore.Internal_Hbond>
0.0000

> <Gold.Chemscore.DEClash>
0.0000

> <Gold.Chemscore.DEInternal>
1.6710

> <Gold.Chemscore.Rot>
1.6372

> <Gold.Chemscore.Internal.Correction>
   9.000000E+99

> <Gold.Chemscore.Hbond.Weighted>
-0.0000

> <Gold.Chemscore.Metal.Weighted>
-0.0000

> <Gold.Chemscore.Lipo.Weighted>
-9.2256

> <Gold.Chemscore.Internal_Hbond.Weighted>
0.0000

> <Gold.Chemscore.DEClash.Weighted>
0.0000

> <Gold.Chemscore.DEInternal.Weighted>
1.6710

> <Gold.Chemscore.Rot.Weighted>
4.1913

> <Gold.Chemscore.Internal.Correction.Weighted>
   9.000000E+99

> <Gold.Protein.RotatedTorsions>
[ 6907 6896 6895 6894 ] final   51.82 input  -60.11 | X-H torsion
[ 7974 7965 7964 7962 ] final  -55.55 input  175.53 | X-H torsion
[ 8008 7997 7996 7995 ] final   27.37 input   59.86 | X-H torsion
[ 10167 10162 10161 10158 ] final -110.04 input  -65.29 | X-H torsion
[ 10718 10713 10712 10709 ] final   64.42 input   66.30 | X-H torsion
[ 10763 10752 10751 10750 ] final   53.00 input  -60.55 | X-H torsion
[ 11005 11000 10999 10996 ] final  153.18 input  -57.11 | X-H torsion

> <Gold.Protein.ActiveResidues>
 VAL166  LYS551  ARG553  GLY616  TRP617  ASP618  TYR619  PRO620  LYS621  CYS622 
 ASP623  PHE694  ASN695  SER759  ASP760  ASP761  ALA762  ILE779  LEU786  VAL792 
 PHE793  MET794  SER795  GLU796  ALA797  LYS798  CYS799  TRP800  GLU811  SER814 

> <Gold.Protein.RotatedAtoms>
  152.3167  134.7431  160.0323 H   0  0  0  0  0  0  0  0  0  0  0  0  # atno 6907 bound_to 6896
  151.7893  133.3352  159.3502 H   0  0  0  0  0  0  0  0  0  0  0  0  # atno 6908 bound_to 6896
  150.7348  134.5788  159.5972 H   0  0  0  0  0  0  0  0  0  0  0  0  # atno 6909 bound_to 6896
  145.8728  140.8203  142.9879 H   0  0  0  0  0  0  0  0  0  0  0  0  # atno 7974 bound_to 7965
  155.0418  140.3170  155.4722 H   0  0  0  0  0  0  0  0  0  0  0  0  # atno 8008 bound_to 7997
  156.2853  140.2161  156.5485 H   0  0  0  0  0  0  0  0  0  0  0  0  # atno 8009 bound_to 7997
  154.7283  140.0483  157.0691 H   0  0  0  0  0  0  0  0  0  0  0  0  # atno 8010 bound_to 7997
  140.1488  143.4216  152.1509 H   0  0  0  0  0  0  0  0  0  0  0  0  # atno 10167 bound_to 10162
  157.6038  130.9159  149.9844 H   0  0  0  0  0  0  0  0  0  0  0  0  # atno 10718 bound_to 10713
  152.9792  135.5793  154.4670 H   0  0  0  0  0  0  0  0  0  0  0  0  # atno 10763 bound_to 10752
  154.4238  135.2772  155.1960 H   0  0  0  0  0  0  0  0  0  0  0  0  # atno 10764 bound_to 10752
  154.3697  135.6170  153.5787 H   0  0  0  0  0  0  0  0  0  0  0  0  # atno 10765 bound_to 10752
  140.1375  134.8761  157.2286 H   0  0  0  0  0  0  0  0  0  0  0  0  # atno 11005 bound_to 11000
  144.6726  140.1265  143.7446 LP  0  0  0  0  0  0  0  0  0  0  0  0  # atno 17320 bound_to 7965
  145.9116  139.2490  143.1434 LP  0  0  0  0  0  0  0  0  0  0  0  0  # atno 17321 bound_to 7965
  139.5436  144.7278  151.4655 LP  0  0  0  0  0  0  0  0  0  0  0  0  # atno 17342 bound_to 10162
  140.6715  143.8283  150.7005 LP  0  0  0  0  0  0  0  0  0  0  0  0  # atno 17343 bound_to 10162
  156.1119  130.3649  150.0034 LP  0  0  0  0  0  0  0  0  0  0  0  0  # atno 17370 bound_to 10713
  156.8131  130.9332  151.3643 LP  0  0  0  0  0  0  0  0  0  0  0  0  # atno 17371 bound_to 10713
  140.2764  134.3401  155.7357 LP  0  0  0  0  0  0  0  0  0  0  0  0  # atno 17394 bound_to 11000
  141.2180  133.7453  156.9299 LP  0  0  0  0  0  0  0  0  0  0  0  0  # atno 17395 bound_to 11000

$$$$
