AV-unprocessed.smi:704|AV-procd|sdf|3443|dock5
  -GOLD-   22720 0433D 1   1.00000     0.00000
 Structure written by MMmdl.
 38 39  0  0  0  0  0  0  0  0  1 V2000
  151.6678  138.2911  154.4756 C   0  0  0  0  0  0  0  0  0  0  0  0
  150.3229  138.1851  154.0213 O   0  0  0  0  0  0  0  0  0  0  0  0
  149.5090  139.2988  154.1044 C   0  0  0  0  0  0  0  0  0  0  0  0
  150.0231  140.4354  154.6384 N   0  0  0  0  0  0  0  0  0  0  0  0
  149.2317  141.5251  154.7149 C   0  0  0  0  0  0  0  0  0  0  0  0
  147.8999  141.5432  154.2621 C   0  0  0  0  0  0  0  0  0  0  0  0
  147.3638  140.3656  153.7095 C   0  0  0  0  0  0  0  0  0  0  0  0
  148.1774  139.2092  153.6362 C   0  0  0  0  0  0  0  0  0  0  0  0
  147.7388  137.9778  153.0773 N   0  0  0  0  0  0  0  0  0  0  0  0
  146.4822  137.5175  152.9618 C   0  0  0  0  0  0  0  0  0  0  0  0
  145.4715  138.0979  153.3584 O   0  0  0  0  0  0  0  0  0  0  0  0
  146.4605  136.3104  152.3799 N   0  0  0  0  0  0  0  0  0  0  0  0
  145.2542  135.5166  152.1399 C   0  0  1  0  0  0  0  0  0  0  0  0
  144.7831  135.6479  150.6790 C   0  0  0  0  0  0  0  0  0  0  0  0
  144.3725  134.2446  150.2155 C   0  0  0  0  0  0  0  0  0  0  0  0
  144.3721  133.3706  151.4727 C   0  0  0  0  0  0  0  0  0  0  0  0
  145.4081  133.9968  152.4181 C   0  0  1  0  0  0  0  0  0  0  0  0
  146.8163  133.4196  152.1554 C   0  0  0  0  0  0  0  0  0  0  0  0
  147.0207  132.8436  150.9681 N   0  0  0  0  0  0  0  0  0  0  0  0
  147.7014  133.4845  153.0069 O   0  0  0  0  0  0  0  0  0  0  0  0
  152.1693  137.3322  154.3451 H   0  0  0  0  0  0  0  0  0  0  0  0
  151.7119  138.5453  155.5356 H   0  0  0  0  0  0  0  0  0  0  0  0
  152.2247  139.0355  153.9048 H   0  0  0  0  0  0  0  0  0  0  0  0
  149.6758  142.4113  155.1436 H   0  0  0  0  0  0  0  0  0  0  0  0
  147.3045  142.4414  154.3322 H   0  0  0  0  0  0  0  0  0  0  0  0
  146.3498  140.3757  153.3404 H   0  0  0  0  0  0  0  0  0  0  0  0
  148.4735  137.3436  152.7987 H   0  0  0  0  0  0  0  0  0  0  0  0
  147.3384  135.9012  152.0952 H   0  0  0  0  0  0  0  0  0  0  0  0
  144.4547  135.8967  152.7792 H   0  0  0  0  0  0  0  0  0  0  0  0
  143.9459  136.3436  150.6117 H   0  0  0  0  0  0  0  0  0  0  0  0
  145.5714  136.0331  150.0305 H   0  0  0  0  0  0  0  0  0  0  0  0
  143.4023  134.2418  149.7180 H   0  0  0  0  0  0  0  0  0  0  0  0
  145.1037  133.8654  149.5003 H   0  0  0  0  0  0  0  0  0  0  0  0
  143.3886  133.4097  151.9426 H   0  0  0  0  0  0  0  0  0  0  0  0
  144.5736  132.3233  151.2422 H   0  0  0  0  0  0  0  0  0  0  0  0
  145.1408  133.7841  153.4548 H   0  0  0  0  0  0  0  0  0  0  0  0
  147.9253  132.4541  150.7451 H   0  0  0  0  0  0  0  0  0  0  0  0
  146.2693  132.8031  150.2949 H   0  0  0  0  0  0  0  0  0  0  0  0
  1  2  1  0  0  0  0
  1 21  1  0  0  0  0
  1 22  1  0  0  0  0
  1 23  1  0  0  0  0
  2  3  1  0  0  0  0
  3  8  1  0  0  0  0
  3  4  2  0  0  0  0
  4  5  1  0  0  0  0
  5  6  2  0  0  0  0
  5 24  1  0  0  0  0
  6  7  1  0  0  0  0
  6 25  1  0  0  0  0
  7  8  2  0  0  0  0
  7 26  1  0  0  0  0
  8  9  1  0  0  0  0
  9 10  1  0  0  0  0
  9 27  1  0  0  0  0
 10 11  2  0  0  0  0
 10 12  1  0  0  0  0
 12 13  1  0  0  0  0
 12 28  1  0  0  0  0
 13 17  1  0  0  0  0
 13 14  1  0  0  0  0
 13 29  1  0  0  0  0
 14 15  1  0  0  0  0
 14 30  1  0  0  0  0
 14 31  1  0  0  0  0
 15 16  1  0  0  0  0
 15 32  1  0  0  0  0
 15 33  1  0  0  0  0
 16 17  1  0  0  0  0
 16 34  1  0  0  0  0
 16 35  1  0  0  0  0
 17 18  1  0  0  0  0
 17 36  1  0  0  0  0
 18 19  1  0  0  0  0
 18 20  2  0  0  0  0
 19 37  1  0  0  0  0
 19 38  1  0  0  0  0
M  END
> <s_m_source_file>
AV-unprocessed.smi

> <i_m_source_file_index>
704

> <i_lp_mmshare_version>
43012

> <i_f3d_flags>
0

> <s_epik_input>
W0NIM11PYzFuW2NIXVtjSF1bY0hdYzFbTkhdQyg9TylbTkhdW0NAQEhdMltDSDJdW0NIMl1bQ0gyXVtDQEhdMkMoPU8pW05IMl0=

> <s_epik_cmdline>
J2VwaWtfcHl0aG9uJywgJy1waCcsICc3LjAnLCAnLXRuJywgJzgnLCAnLW1hJywgJzIwMCcsICctbWV0YWxfYmluZGluZycsICctaW1hZScsICc8aW5maWxlLm1hZT4nLCAnLW9tYWUnLCAnPG91dGZpbGUubWFlPic=

> <r_lp_tautomer_probability>
1

> <r_epik_Ionization_Penalty>
9.09123e-05

> <r_epik_Ionization_Penalty_Charging>
0

> <r_epik_Ionization_Penalty_Neutral>
9.09123e-05

> <r_epik_State_Penalty>
-0

> <r_epik_Charging_Adjusted_Penalty>
0

> <i_epik_Tot_Q>
0

> <i_epik_Tot_abs_Q>
0

> <r_epik_Metal_State_Penalty>
-0

> <b_epik_Metal_Only>
0

> <s_lp_Force_Field>
OPLS_2005

> <r_lp_Energy>
16.4561

> <b_lp_Chiralities_Consistent>
1

> <s_lp_Variant>
AV-unprocessed.smi:704-2

> <Gold.Version>
5.8.1

> <Gold.Id.Protein>
6NUR|6NUR_protein|mol2

> <Gold.PLP.Fitness>
44.1412

> <Gold.PLP.PLP>
-32.0799

> <Gold.PLP.part.hbond>
-3.7324

> <Gold.PLP.part.metal>
0.0000

> <Gold.PLP.part.buried>
-1.8442

> <Gold.PLP.part.nonpolar>
-27.7460

> <Gold.PLP.part.repulsive>
1.1055

> <Gold.PLP.ligand.clash>
0.1000

> <Gold.PLP.ligand.torsion>
1.0227

> <Gold.PLP.Chemscore.Hbond>
3.7280

> <Gold.PLP.Chemscore.CHOScore>
1.0000

> <Gold.PLP.Chemscore.Metal>
0.0000

> <Gold.Chemscore.Hbonds>
donor molecule, donor type, donor heavy atom, donor atom, acceptor molecule, acceptor atom, score
      L1  H     9    27       P1  7948  0.95
      L1  H    12    28       P1  7948  0.90
      L1  H    19    37       P1 10747  0.98
      P1  H  7989  7998       L1     4  0.93
      L1  C     5    24       P1  8028  1.00

> <Gold.PLP.Chemscore.Internal.Correction>
0.0228

> <Gold.Rescore>
     Score         DG    S(hbond)    S(metal)    S(lipo)     H(rot)  DE(clash)    DE(int)     intcor
     15.46     -17.72       2.89        0.00      62.83       1.86       0.27       1.98       ----

> <Gold.Chemscore.Fitness>
15.4599

> <Gold.Chemscore.DG>
-17.7171

> <Gold.Chemscore.ZeroCoef>
-5.4800

> <Gold.Chemscore.Hbond>
2.8923

> <Gold.Chemscore.Metal>
0.0000

> <Gold.Chemscore.Lipo>
62.8272

> <Gold.Chemscore.Internal_Hbond>
0.0000

> <Gold.Chemscore.DEClash>
0.2722

> <Gold.Chemscore.DEInternal>
1.9849

> <Gold.Chemscore.Rot>
1.8648

> <Gold.Chemscore.Internal.Correction>
   9.000000E+99

> <Gold.Chemscore.Hbonds>
donor molecule, donor type, donor heavy atom, donor atom, acceptor molecule, acceptor atom, score
      L1  H     9    27       P1  7948  0.85
      L1  H    12    28       P1  7948  0.88
      L1  H    19    37       P1 10747  0.91
      P1  H  7989  7998       L1     4  0.28

> <Gold.Chemscore.Hbond.Weighted>
-9.6602

> <Gold.Chemscore.Metal.Weighted>
-0.0000

> <Gold.Chemscore.Lipo.Weighted>
-7.3508

> <Gold.Chemscore.Internal_Hbond.Weighted>
0.0000

> <Gold.Chemscore.DEClash.Weighted>
0.2722

> <Gold.Chemscore.DEInternal.Weighted>
1.9849

> <Gold.Chemscore.Rot.Weighted>
4.7739

> <Gold.Chemscore.Internal.Correction.Weighted>
   9.000000E+99

> <Gold.Protein.RotatedTorsions>
[ 6907 6896 6895 6894 ] final   94.66 input  -60.11 | X-H torsion
[ 7974 7965 7964 7962 ] final -163.48 input  175.53 | X-H torsion
[ 8008 7997 7996 7995 ] final -179.50 input   59.86 | X-H torsion
[ 10167 10162 10161 10158 ] final  -56.46 input  -65.29 | X-H torsion
[ 10718 10713 10712 10709 ] final -144.23 input   66.30 | X-H torsion
[ 10763 10752 10751 10750 ] final   51.63 input  -60.55 | X-H torsion
[ 11005 11000 10999 10996 ] final  168.82 input  -57.11 | X-H torsion

> <Gold.Protein.ActiveResidues>
 VAL166  LYS551  ARG553  GLY616  TRP617  ASP618  TYR619  PRO620  LYS621  CYS622 
 ASP623  PHE694  ASN695  SER759  ASP760  ASP761  ALA762  ILE779  LEU786  VAL792 
 PHE793  MET794  SER795  GLU796  ALA797  LYS798  CYS799  TRP800  GLU811  SER814 

> <Gold.Protein.RotatedAtoms>
  152.5448  134.1159  159.8377 H   0  0  0  0  0  0  0  0  0  0  0  0  # atno 6907 bound_to 6896
  151.1220  133.5090  159.2609 H   0  0  0  0  0  0  0  0  0  0  0  0  # atno 6908 bound_to 6896
  151.1769  135.0353  159.8830 H   0  0  0  0  0  0  0  0  0  0  0  0  # atno 6909 bound_to 6896
  144.7325  140.3100  143.6189 H   0  0  0  0  0  0  0  0  0  0  0  0  # atno 7974 bound_to 7965
  156.0312  140.1282  157.0256 H   0  0  0  0  0  0  0  0  0  0  0  0  # atno 8008 bound_to 7997
  154.4351  140.1049  156.6173 H   0  0  0  0  0  0  0  0  0  0  0  0  # atno 8009 bound_to 7997
  155.5804  140.3468  155.4541 H   0  0  0  0  0  0  0  0  0  0  0  0  # atno 8010 bound_to 7997
  140.6316  143.2462  151.5227 H   0  0  0  0  0  0  0  0  0  0  0  0  # atno 10167 bound_to 10162
  156.3676  130.7771  151.1947 H   0  0  0  0  0  0  0  0  0  0  0  0  # atno 10718 bound_to 10713
  152.9786  135.5839  154.4447 H   0  0  0  0  0  0  0  0  0  0  0  0  # atno 10763 bound_to 10752
  154.4044  135.2769  155.2078 H   0  0  0  0  0  0  0  0  0  0  0  0  # atno 10764 bound_to 10752
  154.3895  135.6128  153.5889 H   0  0  0  0  0  0  0  0  0  0  0  0  # atno 10765 bound_to 10752
  140.2913  134.7671  157.3840 H   0  0  0  0  0  0  0  0  0  0  0  0  # atno 11005 bound_to 11000
  145.7674  139.1845  143.2232 LP  0  0  0  0  0  0  0  0  0  0  0  0  # atno 17320 bound_to 7965
  146.0938  140.7624  142.9582 LP  0  0  0  0  0  0  0  0  0  0  0  0  # atno 17321 bound_to 7965
  139.5529  144.2348  152.1563 LP  0  0  0  0  0  0  0  0  0  0  0  0  # atno 17342 bound_to 10162
  140.1593  144.5040  150.6641 LP  0  0  0  0  0  0  0  0  0  0  0  0  # atno 17343 bound_to 10162
  157.7480  131.0382  150.4490 LP  0  0  0  0  0  0  0  0  0  0  0  0  # atno 17370 bound_to 10713
  156.4712  130.4053  149.6517 LP  0  0  0  0  0  0  0  0  0  0  0  0  # atno 17371 bound_to 10713
  140.1193  134.5241  155.8197 LP  0  0  0  0  0  0  0  0  0  0  0  0  # atno 17394 bound_to 11000
  141.2146  133.6751  156.6836 LP  0  0  0  0  0  0  0  0  0  0  0  0  # atno 17395 bound_to 11000

$$$$
