AV-unprocessed.smi:1952|AV-procd|sdf|7891|dock6
  -GOLD-   2272010 43D 1   1.00000     0.00000
 Structure written by MMmdl.
 39 40  0  0  0  0  0  0  0  0  3 V2000
  152.9094  142.2569  159.7775 C   0  0  0  0  0  0  0  0  0  0  0  0
  152.1347  141.9176  158.5501 C   0  0  0  0  0  0  0  0  0  0  0  0
  151.2328  142.6182  157.8000 C   0  0  0  0  0  0  0  0  0  0  0  0
  150.8861  141.7003  156.7734 C   0  0  0  0  0  0  0  0  0  0  0  0
  149.9426  142.0546  155.7736 N   0  0  0  0  0  0  0  0  0  0  0  0
  149.6336  141.4009  154.6397 C   0  0  0  0  0  0  0  0  0  0  0  0
  150.2501  140.3776  154.3197 O   0  0  0  0  0  0  0  0  0  0  0  0
  148.6081  141.9908  153.9644 N   0  5  0  0  0  0  0  0  0  0  0  0
  147.3051  141.3719  153.6875 C   0  0  2  0  0  0  0  0  0  0  0  0
  146.4937  141.3280  154.9899 C   0  0  0  0  0  0  0  0  0  0  0  0
  147.5014  139.9527  153.0993 C   0  0  0  0  0  0  0  0  0  0  0  0
  146.2201  139.2044  152.9955 N   0  3  0  0  0  0  0  0  0  0  0  0
  146.1560  138.2902  151.8321 C   0  0  0  0  0  0  0  0  0  0  0  0
  144.7516  137.6727  151.7270 C   0  0  0  0  0  0  0  0  0  0  0  0
  144.4324  136.9972  152.9379 O   0  0  0  0  0  0  0  0  0  0  0  0
  144.4201  137.8799  154.0542 C   0  0  0  0  0  0  0  0  0  0  0  0
  145.8157  138.4976  154.2366 C   0  0  0  0  0  0  0  0  0  0  0  0
  151.5168  140.5410  156.8898 N   0  0  0  0  0  0  0  0  0  0  0  0
  152.3219  140.6754  158.0269 O   0  0  0  0  0  0  0  0  0  0  0  0
  152.2601  142.6966  160.5346 H   0  0  0  0  0  0  0  0  0  0  0  0
  153.6973  142.9746  159.5490 H   0  0  0  0  0  0  0  0  0  0  0  0
  153.3749  141.3695  160.2072 H   0  0  0  0  0  0  0  0  0  0  0  0
  150.8789  143.6254  157.9616 H   0  0  0  0  0  0  0  0  0  0  0  0
  149.4173  142.8981  155.9494 H   0  0  0  0  0  0  0  0  0  0  0  0
  146.7272  141.9571  152.9707 H   0  0  0  0  0  0  0  0  0  0  0  0
  145.5123  140.8830  154.8238 H   0  0  0  0  0  0  0  0  0  0  0  0
  146.3345  142.3304  155.3889 H   0  0  0  0  0  0  0  0  0  0  0  0
  146.9988  140.7396  155.7569 H   0  0  0  0  0  0  0  0  0  0  0  0
  147.9592  140.0472  152.1129 H   0  0  0  0  0  0  0  0  0  0  0  0
  148.2105  139.3815  153.7002 H   0  0  0  0  0  0  0  0  0  0  0  0
  146.3804  138.8403  150.9173 H   0  0  0  0  0  0  0  0  0  0  0  0
  146.9100  137.5085  151.9353 H   0  0  0  0  0  0  0  0  0  0  0  0
  144.0047  138.4404  151.5171 H   0  0  0  0  0  0  0  0  0  0  0  0
  144.7154  136.9593  150.9034 H   0  0  0  0  0  0  0  0  0  0  0  0
  143.6667  138.6565  153.9119 H   0  0  0  0  0  0  0  0  0  0  0  0
  144.1368  137.3202  154.9455 H   0  0  0  0  0  0  0  0  0  0  0  0
  146.5443  137.7205  154.4724 H   0  0  0  0  0  0  0  0  0  0  0  0
  145.8010  139.1904  155.0783 H   0  0  0  0  0  0  0  0  0  0  0  0
  145.5204  139.9145  152.8253 H   0  0  0  0  0  0  0  0  0  0  0  0
  1  2  1  0  0  0  0
  1 20  1  0  0  0  0
  1 21  1  0  0  0  0
  1 22  1  0  0  0  0
  2 19  1  0  0  0  0
  2  3  2  0  0  0  0
  3  4  1  0  0  0  0
  3 23  1  0  0  0  0
  4  5  1  0  0  0  0
  4 18  2  0  0  0  0
  5  6  1  0  0  0  0
  5 24  1  0  0  0  0
  6  7  2  0  0  0  0
  6  8  1  0  0  0  0
  8  9  1  0  0  0  0
  9 10  1  0  0  0  0
  9 11  1  0  0  0  0
  9 25  1  0  0  0  0
 10 26  1  0  0  0  0
 10 27  1  0  0  0  0
 10 28  1  0  0  0  0
 11 12  1  0  0  0  0
 11 29  1  0  0  0  0
 11 30  1  0  0  0  0
 12 17  1  0  0  0  0
 12 13  1  0  0  0  0
 12 39  1  0  0  0  0
 13 14  1  0  0  0  0
 13 31  1  0  0  0  0
 13 32  1  0  0  0  0
 14 15  1  0  0  0  0
 14 33  1  0  0  0  0
 14 34  1  0  0  0  0
 15 16  1  0  0  0  0
 16 17  1  0  0  0  0
 16 35  1  0  0  0  0
 16 36  1  0  0  0  0
 17 37  1  0  0  0  0
 17 38  1  0  0  0  0
 18 19  1  0  0  0  0
M  CHG  1   8  -1
M  CHG  1  12   1
M  END
> <s_m_source_file>
AV-unprocessed.smi

> <i_m_source_file_index>
1952

> <i_lp_mmshare_version>
43012

> <i_f3d_flags>
0

> <s_epik_input>
W0NIM11jMVtjSF1jKG5vMSlbTkhdQyg9TylbTkhdW0NASF0oW0NIM10pW0NIMl1OMltDSDJdW0NIMl1PW0NIMl1bQ0gyXTI=

> <s_epik_cmdline>
J2VwaWtfcHl0aG9uJywgJy1waCcsICc3LjAnLCAnLXRuJywgJzgnLCAnLW1hJywgJzIwMCcsICctbWV0YWxfYmluZGluZycsICctaW1hZScsICc8aW5maWxlLm1hZT4nLCAnLW9tYWUnLCAnPG91dGZpbGUubWFlPic=

> <r_epik_Ionization_Penalty>
6.76648

> <r_epik_Ionization_Penalty_Charging>
6.76648

> <r_epik_Ionization_Penalty_Neutral>
5.6208e-06

> <r_epik_State_Penalty>
7.45901

> <r_epik_Charging_Adjusted_Penalty>
14.2255

> <i_epik_Tot_Q>
0

> <i_epik_Tot_abs_Q>
2

> <r_epik_Metal_State_Penalty>
3.38802

> <b_epik_Metal_Only>
1

> <s_lp_Force_Field>
OPLS_2005

> <r_lp_Energy>
9.23167

> <b_lp_Chiralities_Consistent>
1

> <s_lp_Variant>
AV-unprocessed.smi:1952-9

> <Gold.Version>
5.8.1

> <Gold.Id.Protein>
6NUR|6NUR_protein|mol2

> <Gold.PLP.Fitness>
40.7627

> <Gold.PLP.PLP>
-29.8359

> <Gold.PLP.part.hbond>
-4.0000

> <Gold.PLP.part.metal>
0.0000

> <Gold.PLP.part.buried>
-2.5907

> <Gold.PLP.part.nonpolar>
-24.3509

> <Gold.PLP.part.repulsive>
0.5413

> <Gold.PLP.ligand.clash>
0.0000

> <Gold.PLP.ligand.torsion>
1.1539

> <Gold.PLP.Chemscore.Hbond>
4.3407

> <Gold.PLP.Chemscore.CHOScore>
0.0000

> <Gold.PLP.Chemscore.Metal>
0.0000

> <Gold.Chemscore.Hbonds>
donor molecule, donor type, donor heavy atom, donor atom, acceptor molecule, acceptor atom, score
      L1  H     5    24       P1  8028  1.00
      L1  H    12    39       P1 10175  2.00
      P1  H  7989  7998       L1     7  0.96
      P1  H  8011  8017       L1     8  0.25

> <Gold.PLP.Chemscore.Internal.Correction>
0.2123

> <Gold.Rescore>
     Score         DG    S(hbond)    S(metal)    S(lipo)     H(rot)  DE(clash)    DE(int)     intcor
     12.91     -17.09       2.59        0.00      60.00       1.58       0.13       4.05       ----

> <Gold.Chemscore.Fitness>
12.9108

> <Gold.Chemscore.DG>
-17.0932

> <Gold.Chemscore.ZeroCoef>
-5.4800

> <Gold.Chemscore.Hbond>
2.5861

> <Gold.Chemscore.Metal>
0.0000

> <Gold.Chemscore.Lipo>
59.9977

> <Gold.Chemscore.Internal_Hbond>
0.0000

> <Gold.Chemscore.DEClash>
0.1282

> <Gold.Chemscore.DEInternal>
4.0541

> <Gold.Chemscore.Rot>
1.5798

> <Gold.Chemscore.Internal.Correction>
   9.000000E+99

> <Gold.Chemscore.Hbonds>
donor molecule, donor type, donor heavy atom, donor atom, acceptor molecule, acceptor atom, score
      L1  H     5    24       P1  8028  0.98
      L1  H    12    39       P1 10175  0.95
      P1  H  7989  7998       L1     7  0.56
      P1  H  8011  8017       L1     8  0.02

> <Gold.Chemscore.Hbond.Weighted>
-8.6376

> <Gold.Chemscore.Metal.Weighted>
-0.0000

> <Gold.Chemscore.Lipo.Weighted>
-7.0197

> <Gold.Chemscore.Internal_Hbond.Weighted>
0.0000

> <Gold.Chemscore.DEClash.Weighted>
0.1282

> <Gold.Chemscore.DEInternal.Weighted>
4.0541

> <Gold.Chemscore.Rot.Weighted>
4.0442

> <Gold.Chemscore.Internal.Correction.Weighted>
   9.000000E+99

> <Gold.Protein.RotatedTorsions>
[ 6907 6896 6895 6894 ] final   30.03 input  -60.11 | X-H torsion
[ 7974 7965 7964 7962 ] final -171.64 input  175.53 | X-H torsion
[ 8008 7997 7996 7995 ] final   35.28 input   59.86 | X-H torsion
[ 10167 10162 10161 10158 ] final  -73.95 input  -65.29 | X-H torsion
[ 10718 10713 10712 10709 ] final   27.14 input   66.30 | X-H torsion
[ 10763 10752 10751 10750 ] final -142.03 input  -60.55 | X-H torsion
[ 11005 11000 10999 10996 ] final  -79.99 input  -57.11 | X-H torsion

> <Gold.Protein.ActiveResidues>
 VAL166  LYS551  ARG553  GLY616  TRP617  ASP618  TYR619  PRO620  LYS621  CYS622 
 ASP623  PHE694  ASN695  SER759  ASP760  ASP761  ALA762  ILE779  LEU786  VAL792 
 PHE793  MET794  SER795  GLU796  ALA797  LYS798  CYS799  TRP800  GLU811  SER814 

> <Gold.Protein.RotatedAtoms>
  152.0401  134.9716  160.0573 H   0  0  0  0  0  0  0  0  0  0  0  0  # atno 6907 bound_to 6896
  152.1159  133.4321  159.4661 H   0  0  0  0  0  0  0  0  0  0  0  0  # atno 6908 bound_to 6896
  150.6846  134.2512  159.4555 H   0  0  0  0  0  0  0  0  0  0  0  0  # atno 6909 bound_to 6896
  144.7155  140.1891  143.6350 H   0  0  0  0  0  0  0  0  0  0  0  0  # atno 7974 bound_to 7965
  155.1685  140.3289  155.4397 H   0  0  0  0  0  0  0  0  0  0  0  0  # atno 8008 bound_to 7997
  156.2518  140.1947  156.6740 H   0  0  0  0  0  0  0  0  0  0  0  0  # atno 8009 bound_to 7997
  154.6354  140.0577  156.9769 H   0  0  0  0  0  0  0  0  0  0  0  0  # atno 8010 bound_to 7997
  140.5068  143.2351  151.7660 H   0  0  0  0  0  0  0  0  0  0  0  0  # atno 10167 bound_to 10162
  157.2162  130.6957  149.6250 H   0  0  0  0  0  0  0  0  0  0  0  0  # atno 10718 bound_to 10713
  154.8524  135.3507  154.5963 H   0  0  0  0  0  0  0  0  0  0  0  0  # atno 10763 bound_to 10752
  153.6572  135.6991  153.5194 H   0  0  0  0  0  0  0  0  0  0  0  0  # atno 10764 bound_to 10752
  153.2847  135.4253  155.1069 H   0  0  0  0  0  0  0  0  0  0  0  0  # atno 10765 bound_to 10752
  141.1668  133.7130  156.8206 H   0  0  0  0  0  0  0  0  0  0  0  0  # atno 11005 bound_to 11000
  145.8785  139.2310  143.1619 LP  0  0  0  0  0  0  0  0  0  0  0  0  # atno 17320 bound_to 7965
  146.0017  140.8514  143.0015 LP  0  0  0  0  0  0  0  0  0  0  0  0  # atno 17321 bound_to 7965
  139.4885  144.4446  151.9725 LP  0  0  0  0  0  0  0  0  0  0  0  0  # atno 17342 bound_to 10162
  140.3537  144.3058  150.5945 LP  0  0  0  0  0  0  0  0  0  0  0  0  # atno 17343 bound_to 10162
  155.9686  130.4535  150.5814 LP  0  0  0  0  0  0  0  0  0  0  0  0  # atno 17370 bound_to 10713
  157.3623  131.0752  151.1626 LP  0  0  0  0  0  0  0  0  0  0  0  0  # atno 17371 bound_to 10713
  140.2122  134.8819  157.3286 LP  0  0  0  0  0  0  0  0  0  0  0  0  # atno 17394 bound_to 11000
  140.2075  134.4179  155.7630 LP  0  0  0  0  0  0  0  0  0  0  0  0  # atno 17395 bound_to 11000

$$$$
