AV-unprocessed.smi:2809|AV-procd|sdf|10826|dock5
  -GOLD-   2272015263D 1   1.00000     0.00000
 Structure written by MMmdl.
 44 45  0  0  0  0  0  0  0  0  1 V2000
  153.0951  143.2724  160.2961 C   0  0  0  0  0  0  0  0  0  0  0  0
  151.6448  143.0600  159.8491 C   0  0  0  0  0  0  0  0  0  0  0  0
  151.5467  142.2062  158.5990 C   0  0  0  0  0  0  0  0  0  0  0  0
  150.8393  142.6732  157.4737 C   0  0  0  0  0  0  0  0  0  0  0  0
  150.7474  141.8767  156.3163 C   0  0  0  0  0  0  0  0  0  0  0  0
  151.3567  140.6064  156.2630 C   0  0  0  0  0  0  0  0  0  0  0  0
  151.2097  139.8929  155.0933 O   0  0  0  0  0  0  0  0  0  0  0  0
  152.0360  138.7533  154.8879 C   0  0  0  0  0  0  0  0  0  0  0  0
  151.1678  137.5505  154.4825 C   0  0  1  0  0  0  0  0  0  0  0  0
  151.9703  136.6907  153.6984 O   0  0  0  0  0  0  0  0  0  0  0  0
  150.5821  136.7880  155.6920 C   0  0  0  0  0  0  0  0  0  0  0  0
  150.7166  135.3293  155.5439 N   0  0  0  0  0  0  0  0  0  0  0  0
  149.8430  134.7140  154.6327 C   0  0  0  0  0  0  0  0  0  0  0  0
  149.8651  133.4378  154.4261 N   0  0  0  0  0  0  0  0  0  0  0  0
  150.7728  132.6347  155.1228 C   0  0  0  0  0  0  0  0  0  0  0  0
  150.7104  131.1502  154.8094 C   0  0  0  0  0  0  0  0  0  0  0  0
  151.6437  133.1685  156.0223 C   0  0  0  0  0  0  0  0  0  0  0  0
  152.6493  132.3427  156.8148 C   0  0  0  0  0  0  0  0  0  0  0  0
  151.6286  134.6195  156.2692 C   0  0  0  0  0  0  0  0  0  0  0  0
  152.3808  135.1680  157.0771 O   0  0  0  0  0  0  0  0  0  0  0  0
  152.0724  140.1441  157.3960 C   0  0  0  0  0  0  0  0  0  0  0  0
  152.1645  140.9402  158.5544 C   0  0  0  0  0  0  0  0  0  0  0  0
  153.1374  143.8876  161.1952 H   0  0  0  0  0  0  0  0  0  0  0  0
  153.6766  143.7739  159.5221 H   0  0  0  0  0  0  0  0  0  0  0  0
  153.5819  142.3227  160.5196 H   0  0  0  0  0  0  0  0  0  0  0  0
  151.0758  142.5875  160.6507 H   0  0  0  0  0  0  0  0  0  0  0  0
  151.1702  144.0244  159.6642 H   0  0  0  0  0  0  0  0  0  0  0  0
  150.3645  143.6433  157.4941 H   0  0  0  0  0  0  0  0  0  0  0  0
  150.2012  142.2443  155.4599 H   0  0  0  0  0  0  0  0  0  0  0  0
  152.7408  138.9676  154.0827 H   0  0  0  0  0  0  0  0  0  0  0  0
  152.6159  138.5157  155.7816 H   0  0  0  0  0  0  0  0  0  0  0  0
  150.3647  137.9195  153.8435 H   0  0  0  0  0  0  0  0  0  0  0  0
  151.5102  136.5047  152.8939 H   0  0  0  0  0  0  0  0  0  0  0  0
  151.0253  137.1478  156.6230 H   0  0  0  0  0  0  0  0  0  0  0  0
  149.5219  137.0292  155.7900 H   0  0  0  0  0  0  0  0  0  0  0  0
  149.1495  135.3836  154.1210 H   0  0  0  0  0  0  0  0  0  0  0  0
  151.6604  130.8062  154.4001 H   0  0  0  0  0  0  0  0  0  0  0  0
  149.9325  130.9306  154.0768 H   0  0  0  0  0  0  0  0  0  0  0  0
  150.4904  130.5783  155.7112 H   0  0  0  0  0  0  0  0  0  0  0  0
  152.4321  132.4113  157.8811 H   0  0  0  0  0  0  0  0  0  0  0  0
  153.6598  132.7180  156.6495 H   0  0  0  0  0  0  0  0  0  0  0  0
  152.6460  131.2879  156.5449 H   0  0  0  0  0  0  0  0  0  0  0  0
  152.5606  139.1816  157.4026 H   0  0  0  0  0  0  0  0  0  0  0  0
  152.7127  140.5747  159.4104 H   0  0  0  0  0  0  0  0  0  0  0  0
  1  2  1  0  0  0  0
  1 23  1  0  0  0  0
  1 24  1  0  0  0  0
  1 25  1  0  0  0  0
  2  3  1  0  0  0  0
  2 26  1  0  0  0  0
  2 27  1  0  0  0  0
  3 22  1  0  0  0  0
  3  4  2  0  0  0  0
  4  5  1  0  0  0  0
  4 28  1  0  0  0  0
  5  6  2  0  0  0  0
  5 29  1  0  0  0  0
  6  7  1  0  0  0  0
  6 21  1  0  0  0  0
  7  8  1  0  0  0  0
  8  9  1  0  0  0  0
  8 30  1  0  0  0  0
  8 31  1  0  0  0  0
  9 10  1  0  0  0  0
  9 11  1  0  0  0  0
  9 32  1  0  0  0  0
 10 33  1  0  0  0  0
 11 12  1  0  0  0  0
 11 34  1  0  0  0  0
 11 35  1  0  0  0  0
 12 19  1  0  0  0  0
 12 13  1  0  0  0  0
 13 14  2  0  0  0  0
 13 36  1  0  0  0  0
 14 15  1  0  0  0  0
 15 16  1  0  0  0  0
 15 17  2  0  0  0  0
 16 37  1  0  0  0  0
 16 38  1  0  0  0  0
 16 39  1  0  0  0  0
 17 18  1  0  0  0  0
 17 19  1  0  0  0  0
 18 40  1  0  0  0  0
 18 41  1  0  0  0  0
 18 42  1  0  0  0  0
 19 20  2  0  0  0  0
 21 22  2  0  0  0  0
 21 43  1  0  0  0  0
 22 44  1  0  0  0  0
M  END
> <s_m_source_file>
AV-unprocessed.smi

> <i_m_source_file_index>
2809

> <i_lp_mmshare_version>
43012

> <i_f3d_flags>
0

> <s_epik_input>
W0NIM11bQ0gyXWMxW2NIXVtjSF1jKFtjSF1bY0hdMSlPW0NIMl1bQ0BIXShbT0hdKVtDSDJdbjJbY0hdbmMoW0NIM10pYyhbQ0gzXSljMj1P

> <s_epik_cmdline>
J2VwaWtfcHl0aG9uJywgJy1waCcsICc3LjAnLCAnLXRuJywgJzgnLCAnLW1hJywgJzIwMCcsICctbWV0YWxfYmluZGluZycsICctaW1hZScsICc8aW5maWxlLm1hZT4nLCAnLW9tYWUnLCAnPG91dGZpbGUubWFlPic=

> <r_lp_tautomer_probability>
1

> <r_epik_Ionization_Penalty>
3.74127e-05

> <r_epik_Ionization_Penalty_Charging>
8.43242e-08

> <r_epik_Ionization_Penalty_Neutral>
3.73284e-05

> <r_epik_State_Penalty>
-0

> <r_epik_Charging_Adjusted_Penalty>
8.43242e-08

> <i_epik_Tot_Q>
0

> <i_epik_Tot_abs_Q>
0

> <r_epik_Metal_State_Penalty>
-0

> <b_epik_Metal_Only>
0

> <s_lp_Force_Field>
OPLS_2005

> <r_lp_Energy>
23.3526

> <b_lp_Chiralities_Consistent>
1

> <s_lp_Variant>
AV-unprocessed.smi:2809-2

> <Gold.Version>
5.8.1

> <Gold.Id.Protein>
6NUR|6NUR_protein|mol2

> <Gold.PLP.Fitness>
52.6295

> <Gold.PLP.PLP>
-43.9027

> <Gold.PLP.part.hbond>
-3.7037

> <Gold.PLP.part.metal>
0.0000

> <Gold.PLP.part.buried>
-5.7217

> <Gold.PLP.part.nonpolar>
-34.5976

> <Gold.PLP.part.repulsive>
0.1421

> <Gold.PLP.ligand.clash>
0.0000

> <Gold.PLP.ligand.torsion>
1.6647

> <Gold.PLP.Chemscore.Hbond>
3.0000

> <Gold.PLP.Chemscore.CHOScore>
1.0000

> <Gold.PLP.Chemscore.Metal>
0.0000

> <Gold.Chemscore.Hbonds>
donor molecule, donor type, donor heavy atom, donor atom, acceptor molecule, acceptor atom, score
      L1  H    10    33       P1  7949  1.00
      P1  H  7989  7998       L1     7  0.95
      P1  H 10752 10763       L1    10  0.96
      L1  C    13    36       P1  7948  1.00

> <Gold.PLP.Chemscore.Internal.Correction>
0.0562

> <Gold.Rescore>
     Score         DG    S(hbond)    S(metal)    S(lipo)     H(rot)  DE(clash)    DE(int)     intcor
     18.75     -20.82       2.61        0.00     110.60       2.47       0.41       1.65       ----

> <Gold.Chemscore.Fitness>
18.7530

> <Gold.Chemscore.DG>
-20.8221

> <Gold.Chemscore.ZeroCoef>
-5.4800

> <Gold.Chemscore.Hbond>
2.6091

> <Gold.Chemscore.Metal>
0.0000

> <Gold.Chemscore.Lipo>
110.5965

> <Gold.Chemscore.Internal_Hbond>
0.0000

> <Gold.Chemscore.DEClash>
0.4149

> <Gold.Chemscore.DEInternal>
1.6542

> <Gold.Chemscore.Rot>
2.4657

> <Gold.Chemscore.Internal.Correction>
   9.000000E+99

> <Gold.Chemscore.Hbonds>
donor molecule, donor type, donor heavy atom, donor atom, acceptor molecule, acceptor atom, score
      L1  H    10    33       P1  7949  0.88
      P1  H  7989  7998       L1     7  0.19
      P1  H 10752 10763       L1    10  0.86

> <Gold.Chemscore.Hbond.Weighted>
-8.7144

> <Gold.Chemscore.Metal.Weighted>
-0.0000

> <Gold.Chemscore.Lipo.Weighted>
-12.9398

> <Gold.Chemscore.Internal_Hbond.Weighted>
0.0000

> <Gold.Chemscore.DEClash.Weighted>
0.4149

> <Gold.Chemscore.DEInternal.Weighted>
1.6542

> <Gold.Chemscore.Rot.Weighted>
6.3121

> <Gold.Chemscore.Internal.Correction.Weighted>
   9.000000E+99

> <Gold.Protein.RotatedTorsions>
[ 6907 6896 6895 6894 ] final  -24.88 input  -60.11 | X-H torsion
[ 7974 7965 7964 7962 ] final  172.04 input  175.53 | X-H torsion
[ 8008 7997 7996 7995 ] final  -66.14 input   59.86 | X-H torsion
[ 10167 10162 10161 10158 ] final -113.69 input  -65.29 | X-H torsion
[ 10718 10713 10712 10709 ] final   66.92 input   66.30 | X-H torsion
[ 10763 10752 10751 10750 ] final   45.76 input  -60.55 | X-H torsion
[ 11005 11000 10999 10996 ] final -115.76 input  -57.11 | X-H torsion

> <Gold.Protein.ActiveResidues>
 VAL166  LYS551  ARG553  GLY616  TRP617  ASP618  TYR619  PRO620  LYS621  CYS622 
 ASP623  PHE694  ASN695  SER759  ASP760  ASP761  ALA762  ILE779  LEU786  VAL792 
 PHE793  MET794  SER795  GLU796  ALA797  LYS798  CYS799  TRP800  GLU811  SER814 

> <Gold.Protein.RotatedAtoms>
  151.1831  135.0370  159.8800 H   0  0  0  0  0  0  0  0  0  0  0  0  # atno 6907 bound_to 6896
  152.5443  134.1040  159.8340 H   0  0  0  0  0  0  0  0  0  0  0  0  # atno 6908 bound_to 6896
  151.1160  133.5092  159.2636 H   0  0  0  0  0  0  0  0  0  0  0  0  # atno 6909 bound_to 6896
  144.7278  139.9440  143.6429 H   0  0  0  0  0  0  0  0  0  0  0  0  # atno 7974 bound_to 7965
  154.4715  140.0919  156.7157 H   0  0  0  0  0  0  0  0  0  0  0  0  # atno 8008 bound_to 7997
  155.4710  140.3464  155.4307 H   0  0  0  0  0  0  0  0  0  0  0  0  # atno 8009 bound_to 7997
  156.1047  140.1431  156.9408 H   0  0  0  0  0  0  0  0  0  0  0  0  # atno 8010 bound_to 7997
  140.1091  143.4543  152.1764 H   0  0  0  0  0  0  0  0  0  0  0  0  # atno 10167 bound_to 10162
  157.6199  130.9293  150.0173 H   0  0  0  0  0  0  0  0  0  0  0  0  # atno 10718 bound_to 10713
  152.9820  135.6029  154.3489 H   0  0  0  0  0  0  0  0  0  0  0  0  # atno 10763 bound_to 10752
  154.3180  135.2770  155.2535 H   0  0  0  0  0  0  0  0  0  0  0  0  # atno 10764 bound_to 10752
  154.4715  135.5940  153.6380 H   0  0  0  0  0  0  0  0  0  0  0  0  # atno 10765 bound_to 10752
  141.0466  133.9752  157.2907 H   0  0  0  0  0  0  0  0  0  0  0  0  # atno 11005 bound_to 11000
  146.0763  139.3751  143.0492 LP  0  0  0  0  0  0  0  0  0  0  0  0  # atno 17320 bound_to 7965
  145.7901  140.9818  143.1053 LP  0  0  0  0  0  0  0  0  0  0  0  0  # atno 17321 bound_to 7965
  139.5629  144.7417  151.4104 LP  0  0  0  0  0  0  0  0  0  0  0  0  # atno 17342 bound_to 10162
  140.6935  143.7804  150.7291 LP  0  0  0  0  0  0  0  0  0  0  0  0  # atno 17343 bound_to 10162
  156.1339  130.3643  149.9688 LP  0  0  0  0  0  0  0  0  0  0  0  0  # atno 17370 bound_to 10713
  156.7744  130.9198  151.3645 LP  0  0  0  0  0  0  0  0  0  0  0  0  # atno 17371 bound_to 10713
  139.9317  135.0199  156.8421 LP  0  0  0  0  0  0  0  0  0  0  0  0  # atno 17394 bound_to 11000
  140.6134  134.0061  155.7587 LP  0  0  0  0  0  0  0  0  0  0  0  0  # atno 17395 bound_to 11000

$$$$
