AV-unprocessed.smi:515|AV-procd|sdf|2780|dock8
  -GOLD-   2262023253D 1   1.00000     0.00000
 Structure written by MMmdl.
 47 49  0  0  0  0  0  0  0  0  1 V2000
  147.0901  140.3384  153.2244 C   0  0  0  0  0  0  0  0  0  0  0  0
  147.8380  141.4708  153.9283 C   0  0  0  0  0  0  0  0  0  0  0  0
  149.2118  141.1341  154.0284 O   0  0  0  0  0  0  0  0  0  0  0  0
  149.5328  140.5655  155.2872 C   0  0  0  0  0  0  0  0  0  0  0  0
  150.9923  140.0855  155.3071 C   0  0  0  0  0  0  0  0  0  0  0  0
  151.5113  139.8996  156.6597 N   0  0  0  0  0  0  0  0  0  0  0  0
  151.5382  140.7953  157.6834 C   0  0  0  0  0  0  0  0  0  0  0  0
  151.0271  142.2023  157.5711 C   0  0  0  0  0  0  0  0  0  0  0  0
  150.9957  142.9331  158.8371 N   0  0  0  0  0  0  0  0  0  0  0  0
  152.3331  143.1073  159.4033 C   0  0  0  0  0  0  0  0  0  0  0  0
  152.3205  143.9436  160.6952 C   0  0  0  0  0  0  0  0  0  0  0  0
  151.6821  145.1938  160.4594 O   0  0  0  0  0  0  0  0  0  0  0  0
  150.3524  145.0461  159.9739 C   0  0  0  0  0  0  0  0  0  0  0  0
  150.3761  144.2417  158.6638 C   0  0  0  0  0  0  0  0  0  0  0  0
  152.0868  140.3244  158.8085 N   0  0  0  0  0  0  0  0  0  0  0  0
  152.4426  139.0274  158.4729 C   0  0  0  0  0  0  0  0  0  0  0  0
  152.1213  138.7594  157.1828 C   0  0  0  0  0  0  0  0  0  0  0  0
  152.4195  137.4691  156.5476 C   0  0  0  0  0  0  0  0  0  0  0  0
  152.1583  137.2142  155.3740 O   0  0  0  0  0  0  0  0  0  0  0  0
  153.0242  136.5921  157.3854 N   0  0  0  0  0  0  0  0  0  0  0  0
  153.3705  136.7954  158.6933 C   0  0  0  0  0  0  0  0  0  0  0  0
  153.9292  135.9003  159.3274 O   0  0  0  0  0  0  0  0  0  0  0  0
  153.0769  138.0151  159.2483 N   0  0  0  0  0  0  0  0  0  0  0  0
  153.4306  138.2933  160.6413 C   0  0  0  0  0  0  0  0  0  0  0  0
  153.2521  135.6881  156.9982 H   0  0  0  0  0  0  0  0  0  0  0  0
  146.0276  140.5663  153.1399 H   0  0  0  0  0  0  0  0  0  0  0  0
  147.1885  139.4038  153.7766 H   0  0  0  0  0  0  0  0  0  0  0  0
  147.4788  140.1824  152.2180 H   0  0  0  0  0  0  0  0  0  0  0  0
  147.7170  142.3978  153.3657 H   0  0  0  0  0  0  0  0  0  0  0  0
  147.4170  141.6304  154.9221 H   0  0  0  0  0  0  0  0  0  0  0  0
  149.3628  141.3017  156.0727 H   0  0  0  0  0  0  0  0  0  0  0  0
  148.8729  139.7214  155.4917 H   0  0  0  0  0  0  0  0  0  0  0  0
  151.0854  139.1430  154.7674 H   0  0  0  0  0  0  0  0  0  0  0  0
  151.6108  140.7970  154.7643 H   0  0  0  0  0  0  0  0  0  0  0  0
  151.6489  142.7384  156.8524 H   0  0  0  0  0  0  0  0  0  0  0  0
  150.0336  142.1784  157.1253 H   0  0  0  0  0  0  0  0  0  0  0  0
  152.7804  142.1366  159.6171 H   0  0  0  0  0  0  0  0  0  0  0  0
  152.9807  143.5950  158.6732 H   0  0  0  0  0  0  0  0  0  0  0  0
  151.8058  143.4138  161.4951 H   0  0  0  0  0  0  0  0  0  0  0  0
  153.3392  144.1236  161.0384 H   0  0  0  0  0  0  0  0  0  0  0  0
  149.7338  144.5496  160.7231 H   0  0  0  0  0  0  0  0  0  0  0  0
  149.9226  146.0335  159.8054 H   0  0  0  0  0  0  0  0  0  0  0  0
  150.9158  144.8097  157.9041 H   0  0  0  0  0  0  0  0  0  0  0  0
  149.3560  144.1213  158.2975 H   0  0  0  0  0  0  0  0  0  0  0  0
  153.1061  137.4849  161.2983 H   0  0  0  0  0  0  0  0  0  0  0  0
  152.9697  139.2088  161.0121 H   0  0  0  0  0  0  0  0  0  0  0  0
  154.5115  138.4005  160.7410 H   0  0  0  0  0  0  0  0  0  0  0  0
  1  2  1  0  0  0  0
  1 26  1  0  0  0  0
  1 27  1  0  0  0  0
  1 28  1  0  0  0  0
  2  3  1  0  0  0  0
  2 29  1  0  0  0  0
  2 30  1  0  0  0  0
  3  4  1  0  0  0  0
  4  5  1  0  0  0  0
  4 31  1  0  0  0  0
  4 32  1  0  0  0  0
  5  6  1  0  0  0  0
  5 33  1  0  0  0  0
  5 34  1  0  0  0  0
  6 17  1  0  0  0  0
  6  7  1  0  0  0  0
  7  8  1  0  0  0  0
  7 15  2  0  0  0  0
  8  9  1  0  0  0  0
  8 35  1  0  0  0  0
  8 36  1  0  0  0  0
  9 14  1  0  0  0  0
  9 10  1  0  0  0  0
 10 11  1  0  0  0  0
 10 37  1  0  0  0  0
 10 38  1  0  0  0  0
 11 12  1  0  0  0  0
 11 39  1  0  0  0  0
 11 40  1  0  0  0  0
 12 13  1  0  0  0  0
 13 14  1  0  0  0  0
 13 41  1  0  0  0  0
 13 42  1  0  0  0  0
 14 43  1  0  0  0  0
 14 44  1  0  0  0  0
 15 16  1  0  0  0  0
 16 23  1  0  0  0  0
 16 17  2  0  0  0  0
 17 18  1  0  0  0  0
 18 19  2  0  0  0  0
 18 20  1  0  0  0  0
 20 25  1  0  0  0  0
 20 21  1  0  0  0  0
 21 22  2  0  0  0  0
 21 23  1  0  0  0  0
 23 24  1  0  0  0  0
 24 45  1  0  0  0  0
 24 46  1  0  0  0  0
 24 47  1  0  0  0  0
M  END
> <s_m_source_file>
AV-unprocessed.smi

> <i_m_source_file_index>
515

> <i_lp_mmshare_version>
43012

> <i_f3d_flags>
0

> <s_epik_input>
W0NIM11uMWMoPU8pW25IXWMoPU8pYyhjMTIpbihbQ0gyXVtDSDJdT1tDSDJdW0NIM10pYyhuMilbQ0gyXU4zW0NIMl1bQ0gyXU9bQ0gyXVtDSDJdMw==

> <s_epik_cmdline>
J2VwaWtfcHl0aG9uJywgJy1waCcsICc3LjAnLCAnLXRuJywgJzgnLCAnLW1hJywgJzIwMCcsICctbWV0YWxfYmluZGluZycsICctaW1hZScsICc8aW5maWxlLm1hZT4nLCAnLW9tYWUnLCAnPG91dGZpbGUubWFlPic=

> <r_epik_Ionization_Penalty>
0.0971954

> <r_epik_Ionization_Penalty_Charging>
0.000195337

> <r_epik_Ionization_Penalty_Neutral>
0.0970001

> <r_epik_State_Penalty>
0.0871068

> <r_epik_Charging_Adjusted_Penalty>
0.0873021

> <i_epik_Tot_Q>
0

> <i_epik_Tot_abs_Q>
0

> <r_epik_Metal_State_Penalty>
0.234549

> <b_epik_Metal_Only>
0

> <s_lp_Force_Field>
OPLS_2005

> <r_lp_Energy>
38.6843

> <b_lp_Chiralities_Consistent>
1

> <s_lp_Variant>
AV-unprocessed.smi:515-1

> <Gold.Version>
5.8.1

> <Gold.Id.Protein>
6NUR|6NUR_protein|mol2

> <Gold.PLP.Fitness>
46.6371

> <Gold.PLP.PLP>
-40.4840

> <Gold.PLP.part.hbond>
-4.0000

> <Gold.PLP.part.metal>
0.0000

> <Gold.PLP.part.buried>
-5.2536

> <Gold.PLP.part.nonpolar>
-32.7429

> <Gold.PLP.part.repulsive>
0.6495

> <Gold.PLP.ligand.clash>
0.0000

> <Gold.PLP.ligand.torsion>
0.4528

> <Gold.PLP.Chemscore.Hbond>
2.3440

> <Gold.PLP.Chemscore.CHOScore>
0.0000

> <Gold.PLP.Chemscore.Metal>
0.0000

> <Gold.Chemscore.Hbonds>
donor molecule, donor type, donor heavy atom, donor atom, acceptor molecule, acceptor atom, score
      P1  H  6896  6909       L1    22  0.96
      P1  H  8011  8017       L1     3  0.34
      P1  H 10752 10763       L1    19  0.83

> <Gold.PLP.Chemscore.Internal.Correction>
0.0268

> <Gold.Rescore>
     Score         DG    S(hbond)    S(metal)    S(lipo)     H(rot)  DE(clash)    DE(int)     intcor
     15.06     -15.75       1.63        0.00      88.23       2.15       0.15       0.55       ----

> <Gold.Chemscore.Fitness>
15.0571

> <Gold.Chemscore.DG>
-15.7487

> <Gold.Chemscore.ZeroCoef>
-5.4800

> <Gold.Chemscore.Hbond>
1.6285

> <Gold.Chemscore.Metal>
0.0000

> <Gold.Chemscore.Lipo>
88.2274

> <Gold.Chemscore.Internal_Hbond>
0.0000

> <Gold.Chemscore.DEClash>
0.1463

> <Gold.Chemscore.DEInternal>
0.5453

> <Gold.Chemscore.Rot>
2.1458

> <Gold.Chemscore.Internal.Correction>
   9.000000E+99

> <Gold.Chemscore.Hbonds>
donor molecule, donor type, donor heavy atom, donor atom, acceptor molecule, acceptor atom, score
      P1  H  6896  6909       L1    22  0.58
      P1  H  8011  8017       L1     3  0.03
      P1  H 10752 10763       L1    19  0.76

> <Gold.Chemscore.Hbond.Weighted>
-5.4392

> <Gold.Chemscore.Metal.Weighted>
-0.0000

> <Gold.Chemscore.Lipo.Weighted>
-10.3226

> <Gold.Chemscore.Internal_Hbond.Weighted>
0.0000

> <Gold.Chemscore.DEClash.Weighted>
0.1463

> <Gold.Chemscore.DEInternal.Weighted>
0.5453

> <Gold.Chemscore.Rot.Weighted>
5.4932

> <Gold.Chemscore.Internal.Correction.Weighted>
   9.000000E+99

> <Gold.Protein.RotatedTorsions>
[ 6907 6896 6895 6894 ] final -173.07 input  -60.11 | X-H torsion
[ 7974 7965 7964 7962 ] final  130.39 input  175.53 | X-H torsion
[ 8008 7997 7996 7995 ] final  109.67 input   59.86 | X-H torsion
[ 10167 10162 10161 10158 ] final   90.80 input  -65.29 | X-H torsion
[ 10718 10713 10712 10709 ] final  151.47 input   66.30 | X-H torsion
[ 10763 10752 10751 10750 ] final   61.79 input  -60.55 | X-H torsion
[ 11005 11000 10999 10996 ] final   50.38 input  -57.11 | X-H torsion

> <Gold.Protein.ActiveResidues>
 VAL166  LYS551  ARG553  GLY616  TRP617  ASP618  TYR619  PRO620  LYS621  CYS622 
 ASP623  PHE694  ASN695  SER759  ASP760  ASP761  ALA762  ILE779  LEU786  VAL792 
 PHE793  MET794  SER795  GLU796  ALA797  LYS798  CYS799  TRP800  GLU811  SER814 

> <Gold.Protein.RotatedAtoms>
  151.5502  133.3419  159.2951 H   0  0  0  0  0  0  0  0  0  0  0  0  # atno 6907 bound_to 6896
  150.8483  134.7802  159.6999 H   0  0  0  0  0  0  0  0  0  0  0  0  # atno 6908 bound_to 6896
  152.4536  134.5349  159.9873 H   0  0  0  0  0  0  0  0  0  0  0  0  # atno 6909 bound_to 6896
  145.0184  139.4155  143.5210 H   0  0  0  0  0  0  0  0  0  0  0  0  # atno 7974 bound_to 7965
  156.1997  140.3053  155.9500 H   0  0  0  0  0  0  0  0  0  0  0  0  # atno 8008 bound_to 7997
  155.2984  140.0445  157.3045 H   0  0  0  0  0  0  0  0  0  0  0  0  # atno 8009 bound_to 7997
  154.5554  140.2304  155.8427 H   0  0  0  0  0  0  0  0  0  0  0  0  # atno 8010 bound_to 7997
  139.8438  144.6628  150.9252 H   0  0  0  0  0  0  0  0  0  0  0  0  # atno 10167 bound_to 10162
  157.2702  131.0815  151.1605 H   0  0  0  0  0  0  0  0  0  0  0  0  # atno 10718 bound_to 10713
  152.9962  135.5488  154.6090 H   0  0  0  0  0  0  0  0  0  0  0  0  # atno 10763 bound_to 10752
  154.5415  135.2820  155.1093 H   0  0  0  0  0  0  0  0  0  0  0  0  # atno 10764 bound_to 10752
  154.2369  135.6423  153.5246 H   0  0  0  0  0  0  0  0  0  0  0  0  # atno 10765 bound_to 10752
  140.1022  134.5066  155.8752 H   0  0  0  0  0  0  0  0  0  0  0  0  # atno 11005 bound_to 11000
  146.3481  139.9668  142.8711 LP  0  0  0  0  0  0  0  0  0  0  0  0  # atno 17320 bound_to 7965
  145.1929  140.9819  143.4201 LP  0  0  0  0  0  0  0  0  0  0  0  0  # atno 17321 bound_to 7965
  140.7795  143.3889  151.1345 LP  0  0  0  0  0  0  0  0  0  0  0  0  # atno 17342 bound_to 10162
  139.7533  143.8746  152.3082 LP  0  0  0  0  0  0  0  0  0  0  0  0  # atno 17343 bound_to 10162
  157.3079  130.6875  149.6199 LP  0  0  0  0  0  0  0  0  0  0  0  0  # atno 17370 bound_to 10713
  155.9663  130.4372  150.5166 LP  0  0  0  0  0  0  0  0  0  0  0  0  # atno 17371 bound_to 10713
  141.2109  133.6700  156.6541 LP  0  0  0  0  0  0  0  0  0  0  0  0  # atno 17394 bound_to 11000
  140.3204  134.8012  157.4248 LP  0  0  0  0  0  0  0  0  0  0  0  0  # atno 17395 bound_to 11000

$$$$
