AV-unprocessed.smi:2857|AV-procd|sdf|10997|dock9
  -GOLD-   2272015453D 1   1.00000     0.00000
 Structure written by MMmdl.
 44 46  0  0  0  0  0  0  0  0  1 V2000
  150.6375  144.4839  159.4836 C   0  0  0  0  0  0  0  0  0  0  0  0
  151.6327  143.3478  159.6022 C   0  0  0  0  0  0  0  0  0  0  0  0
  152.4784  143.2561  160.7244 C   0  0  0  0  0  0  0  0  0  0  0  0
  153.3979  142.1970  160.8262 C   0  0  0  0  0  0  0  0  0  0  0  0
  153.4779  141.2236  159.8089 C   0  0  0  0  0  0  0  0  0  0  0  0
  154.4770  140.0888  159.9352 C   0  0  0  0  0  0  0  0  0  0  0  0
  152.6358  141.3042  158.6755 C   0  0  0  0  0  0  0  0  0  0  0  0
  152.7662  140.3206  157.7167 O   0  0  0  0  0  0  0  0  0  0  0  0
  151.7667  140.2115  156.7122 C   0  0  0  0  0  0  0  0  0  0  0  0
  152.0810  138.9862  155.8403 C   0  0  2  0  0  0  0  0  0  0  0  0
  153.4220  139.0842  155.4015 O   0  0  0  0  0  0  0  0  0  0  0  0
  151.1500  138.8982  154.6146 C   0  0  0  0  0  0  0  0  0  0  0  0
  149.9347  138.1459  154.8894 N   0  0  0  0  0  0  0  0  0  0  0  0
  150.0067  136.7995  155.0536 N   0  0  0  0  0  0  0  0  0  0  0  0
  148.7584  136.3941  155.2768 C   0  0  0  0  0  0  0  0  0  0  0  0
  147.8361  137.4759  155.2619 C   0  0  0  0  0  0  0  0  0  0  0  0
  146.3931  137.6068  155.4378 C   0  0  0  0  0  0  0  0  0  0  0  0
  145.8693  138.7894  155.3516 N   0  0  0  0  0  0  0  0  0  0  0  0
  146.6579  139.9171  155.0964 N   0  0  0  0  0  0  0  0  0  0  0  0
  145.9202  141.1764  155.0272 C   0  0  0  0  0  0  0  0  0  0  0  0
  148.0136  139.9035  154.9199 C   0  0  0  0  0  0  0  0  0  0  0  0
  148.6890  140.9089  154.7003 O   0  0  0  0  0  0  0  0  0  0  0  0
  148.6212  138.5541  155.0167 C   0  0  0  0  0  0  0  0  0  0  0  0
  151.7118  142.3765  158.5837 C   0  0  0  0  0  0  0  0  0  0  0  0
  150.7294  145.1833  160.3151 H   0  0  0  0  0  0  0  0  0  0  0  0
  149.6195  144.0938  159.4773 H   0  0  0  0  0  0  0  0  0  0  0  0
  150.8003  145.0347  158.5569 H   0  0  0  0  0  0  0  0  0  0  0  0
  152.4258  143.9955  161.5104 H   0  0  0  0  0  0  0  0  0  0  0  0
  154.0431  142.1356  161.6905 H   0  0  0  0  0  0  0  0  0  0  0  0
  155.2266  140.1575  159.1467 H   0  0  0  0  0  0  0  0  0  0  0  0
  153.9729  139.1261  159.8479 H   0  0  0  0  0  0  0  0  0  0  0  0
  154.9912  140.1140  160.8961 H   0  0  0  0  0  0  0  0  0  0  0  0
  150.8016  140.0684  157.2010 H   0  0  0  0  0  0  0  0  0  0  0  0
  151.7037  141.1154  156.1034 H   0  0  0  0  0  0  0  0  0  0  0  0
  151.9698  138.0780  156.4344 H   0  0  0  0  0  0  0  0  0  0  0  0
  153.9100  138.3646  155.7724 H   0  0  0  0  0  0  0  0  0  0  0  0
  150.8611  139.9012  154.2967 H   0  0  0  0  0  0  0  0  0  0  0  0
  151.6669  138.4530  153.7652 H   0  0  0  0  0  0  0  0  0  0  0  0
  148.5678  135.3433  155.4376 H   0  0  0  0  0  0  0  0  0  0  0  0
  145.7774  136.7296  155.6357 H   0  0  0  0  0  0  0  0  0  0  0  0
  146.0685  141.6569  154.0588 H   0  0  0  0  0  0  0  0  0  0  0  0
  146.2597  141.8621  155.8046 H   0  0  0  0  0  0  0  0  0  0  0  0
  144.8471  141.0300  155.1613 H   0  0  0  0  0  0  0  0  0  0  0  0
  151.0488  142.4755  157.7376 H   0  0  0  0  0  0  0  0  0  0  0  0
  1  2  1  0  0  0  0
  1 25  1  0  0  0  0
  1 26  1  0  0  0  0
  1 27  1  0  0  0  0
  2 24  1  0  0  0  0
  2  3  2  0  0  0  0
  3  4  1  0  0  0  0
  3 28  1  0  0  0  0
  4  5  2  0  0  0  0
  4 29  1  0  0  0  0
  5  6  1  0  0  0  0
  5  7  1  0  0  0  0
  6 30  1  0  0  0  0
  6 31  1  0  0  0  0
  6 32  1  0  0  0  0
  7  8  1  0  0  0  0
  7 24  2  0  0  0  0
  8  9  1  0  0  0  0
  9 10  1  0  0  0  0
  9 33  1  0  0  0  0
  9 34  1  0  0  0  0
 10 11  1  0  0  0  0
 10 12  1  0  0  0  0
 10 35  1  0  0  0  0
 11 36  1  0  0  0  0
 12 13  1  0  0  0  0
 12 37  1  0  0  0  0
 12 38  1  0  0  0  0
 13 23  1  0  0  0  0
 13 14  1  0  0  0  0
 14 15  2  0  0  0  0
 15 16  1  0  0  0  0
 15 39  1  0  0  0  0
 16 23  2  0  0  0  0
 16 17  1  0  0  0  0
 17 18  2  0  0  0  0
 17 40  1  0  0  0  0
 18 19  1  0  0  0  0
 19 20  1  0  0  0  0
 19 21  1  0  0  0  0
 20 41  1  0  0  0  0
 20 42  1  0  0  0  0
 20 43  1  0  0  0  0
 21 22  2  0  0  0  0
 21 23  1  0  0  0  0
 24 44  1  0  0  0  0
M  END
> <s_m_source_file>
AV-unprocessed.smi

> <i_m_source_file_index>
2857

> <i_lp_mmshare_version>
43012

> <i_f3d_flags>
0

> <s_epik_input>
W0NIM11jMVtjSF1bY0hdYyhbQ0gzXSljKFtjSF0xKU9bQ0gyXVtDQEhdKFtPSF0pW0NIMl1uKG5bY0hdMiljKGMyMyljKD1PKW4oW0NIM10pbltjSF0z

> <s_epik_cmdline>
J2VwaWtfcHl0aG9uJywgJy1waCcsICc3LjAnLCAnLXRuJywgJzgnLCAnLW1hJywgJzIwMCcsICctbWV0YWxfYmluZGluZycsICctaW1hZScsICc8aW5maWxlLm1hZT4nLCAnLW9tYWUnLCAnPG91dGZpbGUubWFlPic=

> <r_lp_tautomer_probability>
1

> <r_epik_Ionization_Penalty>
2.24607e-06

> <r_epik_Ionization_Penalty_Charging>
1.42095e-10

> <r_epik_Ionization_Penalty_Neutral>
2.24593e-06

> <r_epik_State_Penalty>
-0

> <r_epik_Charging_Adjusted_Penalty>
1.42095e-10

> <i_epik_Tot_Q>
0

> <i_epik_Tot_abs_Q>
0

> <r_epik_Metal_State_Penalty>
-0

> <b_epik_Metal_Only>
0

> <s_lp_Force_Field>
OPLS_2005

> <r_lp_Energy>
31.8826

> <b_lp_Chiralities_Consistent>
1

> <s_lp_Variant>
AV-unprocessed.smi:2857-1

> <Gold.Version>
5.8.1

> <Gold.Id.Protein>
6NUR|6NUR_protein|mol2

> <Gold.PLP.Fitness>
51.9405

> <Gold.PLP.PLP>
-48.6022

> <Gold.PLP.part.hbond>
-4.0000

> <Gold.PLP.part.metal>
0.0000

> <Gold.PLP.part.buried>
-5.3562

> <Gold.PLP.part.nonpolar>
-38.4814

> <Gold.PLP.part.repulsive>
0.4699

> <Gold.PLP.ligand.clash>
0.0000

> <Gold.PLP.ligand.torsion>
0.6488

> <Gold.PLP.Chemscore.Hbond>
1.5385

> <Gold.PLP.Chemscore.CHOScore>
0.0000

> <Gold.PLP.Chemscore.Metal>
0.0000

> <Gold.Chemscore.Hbonds>
donor molecule, donor type, donor heavy atom, donor atom, acceptor molecule, acceptor atom, score
      P1  H  7997  8010       L1     8  0.83

> <Gold.PLP.Chemscore.Internal.Correction>
0.0205

> <Gold.Rescore>
     Score         DG    S(hbond)    S(metal)    S(lipo)     H(rot)  DE(clash)    DE(int)     intcor
     17.26     -18.38       1.31        0.00     123.67       2.32       0.53       0.58       ----

> <Gold.Chemscore.Fitness>
17.2582

> <Gold.Chemscore.DG>
-18.3760

> <Gold.Chemscore.ZeroCoef>
-5.4800

> <Gold.Chemscore.Hbond>
1.3099

> <Gold.Chemscore.Metal>
0.0000

> <Gold.Chemscore.Lipo>
123.6696

> <Gold.Chemscore.Internal_Hbond>
0.0000

> <Gold.Chemscore.DEClash>
0.5339

> <Gold.Chemscore.DEInternal>
0.5838

> <Gold.Chemscore.Rot>
2.3236

> <Gold.Chemscore.Internal.Correction>
   9.000000E+99

> <Gold.Chemscore.Hbonds>
donor molecule, donor type, donor heavy atom, donor atom, acceptor molecule, acceptor atom, score
      P1  H  7997  8010       L1     8  0.20

> <Gold.Chemscore.Hbond.Weighted>
-4.3751

> <Gold.Chemscore.Metal.Weighted>
-0.0000

> <Gold.Chemscore.Lipo.Weighted>
-14.4693

> <Gold.Chemscore.Internal_Hbond.Weighted>
0.0000

> <Gold.Chemscore.DEClash.Weighted>
0.5339

> <Gold.Chemscore.DEInternal.Weighted>
0.5838

> <Gold.Chemscore.Rot.Weighted>
5.9484

> <Gold.Chemscore.Internal.Correction.Weighted>
   9.000000E+99

> <Gold.Protein.RotatedTorsions>
[ 6907 6896 6895 6894 ] final -148.08 input  -60.11 | X-H torsion
[ 7974 7965 7964 7962 ] final  -78.43 input  175.53 | X-H torsion
[ 8008 7997 7996 7995 ] final   62.96 input   59.86 | X-H torsion
[ 10167 10162 10161 10158 ] final   71.57 input  -65.29 | X-H torsion
[ 10718 10713 10712 10709 ] final  -74.10 input   66.30 | X-H torsion
[ 10763 10752 10751 10750 ] final  -13.97 input  -60.55 | X-H torsion
[ 11005 11000 10999 10996 ] final  -25.82 input  -57.11 | X-H torsion

> <Gold.Protein.ActiveResidues>
 VAL166  LYS551  ARG553  GLY616  TRP617  ASP618  TYR619  PRO620  LYS621  CYS622 
 ASP623  PHE694  ASN695  SER759  ASP760  ASP761  ALA762  ILE779  LEU786  VAL792 
 PHE793  MET794  SER795  GLU796  ALA797  LYS798  CYS799  TRP800  GLU811  SER814 

> <Gold.Protein.RotatedAtoms>
  151.1648  133.4822  159.2593 H   0  0  0  0  0  0  0  0  0  0  0  0  # atno 6907 bound_to 6896
  151.1417  135.0182  159.8638 H   0  0  0  0  0  0  0  0  0  0  0  0  # atno 6908 bound_to 6896
  152.5462  134.1541  159.8584 H   0  0  0  0  0  0  0  0  0  0  0  0  # atno 6909 bound_to 6896
  145.5865  140.9438  143.1315 H   0  0  0  0  0  0  0  0  0  0  0  0  # atno 7974 bound_to 7965
  155.6227  140.3496  155.4657 H   0  0  0  0  0  0  0  0  0  0  0  0  # atno 8008 bound_to 7997
  156.0066  140.1224  157.0519 H   0  0  0  0  0  0  0  0  0  0  0  0  # atno 8009 bound_to 7997
  154.4266  140.1090  156.5757 H   0  0  0  0  0  0  0  0  0  0  0  0  # atno 8010 bound_to 7997
  140.0447  144.5361  150.7408 H   0  0  0  0  0  0  0  0  0  0  0  0  # atno 10167 bound_to 10162
  156.0255  130.4409  150.2842 H   0  0  0  0  0  0  0  0  0  0  0  0  # atno 10718 bound_to 10713
  153.5212  135.7015  153.5730 H   0  0  0  0  0  0  0  0  0  0  0  0  # atno 10763 bound_to 10752
  153.3779  135.3928  155.1835 H   0  0  0  0  0  0  0  0  0  0  0  0  # atno 10764 bound_to 10752
  154.8694  135.3828  154.4701 H   0  0  0  0  0  0  0  0  0  0  0  0  # atno 10765 bound_to 10752
  140.8972  133.7548  156.0497 H   0  0  0  0  0  0  0  0  0  0  0  0  # atno 11005 bound_to 11000
  144.7370  139.7557  143.7325 LP  0  0  0  0  0  0  0  0  0  0  0  0  # atno 17320 bound_to 7965
  146.1678  139.4816  142.9947 LP  0  0  0  0  0  0  0  0  0  0  0  0  # atno 17321 bound_to 7965
  140.7244  143.2621  151.4170 LP  0  0  0  0  0  0  0  0  0  0  0  0  # atno 17342 bound_to 10162
  139.5991  144.1333  152.2178 LP  0  0  0  0  0  0  0  0  0  0  0  0  # atno 17343 bound_to 10162
  157.0945  131.0179  151.3109 LP  0  0  0  0  0  0  0  0  0  0  0  0  # atno 17370 bound_to 10713
  157.4828  130.7775  149.7430 LP  0  0  0  0  0  0  0  0  0  0  0  0  # atno 17371 bound_to 10713
  140.8274  134.3218  157.5361 LP  0  0  0  0  0  0  0  0  0  0  0  0  # atno 17394 bound_to 11000
  139.8737  134.9344  156.3606 LP  0  0  0  0  0  0  0  0  0  0  0  0  # atno 17395 bound_to 11000

$$$$
