AV-unprocessed.smi:2702|AV-procd|sdf|10432|dock1
  -GOLD-   2272014473D 1   1.00000     0.00000
 Structure written by MMmdl.
 47 48  0  0  0  0  0  0  0  0  1 V2000
  147.4970  136.5037  163.0914 C   0  0  0  0  0  0  0  0  0  0  0  0
  147.5790  137.1050  161.8115 O   0  0  0  0  0  0  0  0  0  0  0  0
  147.7878  136.1575  160.7769 C   0  0  0  0  0  0  0  0  0  0  0  0
  148.4492  136.8063  159.5764 C   0  0  0  0  0  0  0  0  0  0  0  0
  147.7427  137.5090  158.6603 C   0  0  0  0  0  0  0  0  0  0  0  0
  148.4122  138.1323  157.5184 C   0  0  0  0  0  0  0  0  0  0  0  0
  147.8041  138.7789  156.6652 O   0  0  0  0  0  0  0  0  0  0  0  0
  149.7640  137.9438  157.4716 N   0  0  0  0  0  0  0  0  0  0  0  0
  150.5857  138.5167  156.3893 C   0  0  0  0  0  0  0  0  0  0  0  0
  151.7299  139.4115  156.8901 C   0  0  0  0  0  0  0  0  0  0  0  0
  152.8743  139.2879  156.4511 O   0  0  0  0  0  0  0  0  0  0  0  0
  151.3938  140.3178  157.8203 N   0  0  0  0  0  0  0  0  0  0  0  0
  152.3026  141.2881  158.4291 C   0  0  2  0  0  0  0  0  0  0  0  0
  152.7829  140.7460  159.7888 C   0  0  0  0  0  0  0  0  0  0  0  0
  153.7045  141.7459  160.4931 C   0  0  0  0  0  0  0  0  0  0  0  0
  153.0022  143.0966  160.6676 C   0  0  0  0  0  0  0  0  0  0  0  0
  152.5318  143.6775  159.3191 C   0  0  2  0  0  0  0  0  0  0  0  0
  151.8687  145.0476  159.5522 C   0  0  0  0  0  0  0  0  0  0  0  0
  151.6131  142.6729  158.5668 C   0  0  1  0  0  0  0  0  0  0  0  0
  151.1737  143.2115  157.1873 C   0  0  0  0  0  0  0  0  0  0  0  0
  150.4521  137.2089  158.4575 C   0  0  0  0  0  0  0  0  0  0  0  0
  149.8354  136.6632  159.4568 N   0  0  0  0  0  0  0  0  0  0  0  0
  147.3325  137.2724  163.8465 H   0  0  0  0  0  0  0  0  0  0  0  0
  148.4205  135.9793  163.3405 H   0  0  0  0  0  0  0  0  0  0  0  0
  146.6673  135.7975  163.1435 H   0  0  0  0  0  0  0  0  0  0  0  0
  148.4290  135.3487  161.1304 H   0  0  0  0  0  0  0  0  0  0  0  0
  146.8346  135.7144  160.4836 H   0  0  0  0  0  0  0  0  0  0  0  0
  146.6733  137.6177  158.7668 H   0  0  0  0  0  0  0  0  0  0  0  0
  151.0094  137.7265  155.7659 H   0  0  0  0  0  0  0  0  0  0  0  0
  149.9633  139.1024  155.7106 H   0  0  0  0  0  0  0  0  0  0  0  0
  150.4316  140.3467  158.1247 H   0  0  0  0  0  0  0  0  0  0  0  0
  153.1749  141.4164  157.7847 H   0  0  0  0  0  0  0  0  0  0  0  0
  151.9249  140.5314  160.4276 H   0  0  0  0  0  0  0  0  0  0  0  0
  153.3102  139.8010  159.6518 H   0  0  0  0  0  0  0  0  0  0  0  0
  154.0053  141.3540  161.4650 H   0  0  0  0  0  0  0  0  0  0  0  0
  154.6193  141.8769  159.9137 H   0  0  0  0  0  0  0  0  0  0  0  0
  152.1492  142.9792  161.3377 H   0  0  0  0  0  0  0  0  0  0  0  0
  153.6832  143.7935  161.1575 H   0  0  0  0  0  0  0  0  0  0  0  0
  153.4201  143.8453  158.7078 H   0  0  0  0  0  0  0  0  0  0  0  0
  150.9175  144.9447  160.0753 H   0  0  0  0  0  0  0  0  0  0  0  0
  151.6842  145.5750  158.6170 H   0  0  0  0  0  0  0  0  0  0  0  0
  152.5082  145.6941  160.1538 H   0  0  0  0  0  0  0  0  0  0  0  0
  150.7114  142.5368  159.1661 H   0  0  0  0  0  0  0  0  0  0  0  0
  152.0352  143.4097  156.5488 H   0  0  0  0  0  0  0  0  0  0  0  0
  150.6024  144.1348  157.2745 H   0  0  0  0  0  0  0  0  0  0  0  0
  150.5299  142.5068  156.6612 H   0  0  0  0  0  0  0  0  0  0  0  0
  151.5324  137.1377  158.3201 H   0  0  0  0  0  0  0  0  0  0  0  0
  1  2  1  0  0  0  0
  1 23  1  0  0  0  0
  1 24  1  0  0  0  0
  1 25  1  0  0  0  0
  2  3  1  0  0  0  0
  3  4  1  0  0  0  0
  3 26  1  0  0  0  0
  3 27  1  0  0  0  0
  4 22  1  0  0  0  0
  4  5  2  0  0  0  0
  5  6  1  0  0  0  0
  5 28  1  0  0  0  0
  6  7  2  0  0  0  0
  6  8  1  0  0  0  0
  8  9  1  0  0  0  0
  8 21  1  0  0  0  0
  9 10  1  0  0  0  0
  9 29  1  0  0  0  0
  9 30  1  0  0  0  0
 10 11  2  0  0  0  0
 10 12  1  0  0  0  0
 12 13  1  0  0  0  0
 12 31  1  0  0  0  0
 13 19  1  0  0  0  0
 13 14  1  0  0  0  0
 13 32  1  0  0  0  0
 14 15  1  0  0  0  0
 14 33  1  0  0  0  0
 14 34  1  0  0  0  0
 15 16  1  0  0  0  0
 15 35  1  0  0  0  0
 15 36  1  0  0  0  0
 16 17  1  0  0  0  0
 16 37  1  0  0  0  0
 16 38  1  0  0  0  0
 17 18  1  0  0  0  0
 17 19  1  0  0  0  0
 17 39  1  0  0  0  0
 18 40  1  0  0  0  0
 18 41  1  0  0  0  0
 18 42  1  0  0  0  0
 19 20  1  0  0  0  0
 19 43  1  0  0  0  0
 20 44  1  0  0  0  0
 20 45  1  0  0  0  0
 20 46  1  0  0  0  0
 21 22  2  0  0  0  0
 21 47  1  0  0  0  0
M  END
> <s_m_source_file>
AV-unprocessed.smi

> <i_m_source_file_index>
2702

> <i_lp_mmshare_version>
43012

> <i_f3d_flags>
0

> <s_epik_input>
W0NIM11PW0NIMl1jMVtjSF1jKD1PKW4oW2NIXW4xKVtDSDJdQyg9TylbTkhdW0NAQEhdMltDSDJdW0NIMl1bQ0gyXVtDQEBIXShbQ0gzXSlbQ0BIXTJbQ0gzXQ==

> <s_epik_cmdline>
J2VwaWtfcHl0aG9uJywgJy1waCcsICc3LjAnLCAnLXRuJywgJzgnLCAnLW1hJywgJzIwMCcsICctbWV0YWxfYmluZGluZycsICctaW1hZScsICc8aW5maWxlLm1hZT4nLCAnLW9tYWUnLCAnPG91dGZpbGUubWFlPic=

> <r_lp_tautomer_probability>
1

> <r_epik_Ionization_Penalty>
1.22164e-06

> <r_epik_Ionization_Penalty_Charging>
3.17988e-07

> <r_epik_Ionization_Penalty_Neutral>
9.03656e-07

> <r_epik_State_Penalty>
-0

> <r_epik_Charging_Adjusted_Penalty>
3.17988e-07

> <i_epik_Tot_Q>
0

> <i_epik_Tot_abs_Q>
0

> <r_epik_Metal_State_Penalty>
-0

> <b_epik_Metal_Only>
0

> <s_lp_Force_Field>
OPLS_2005

> <r_lp_Energy>
18.2474

> <b_lp_Chiralities_Consistent>
1

> <s_lp_Variant>
AV-unprocessed.smi:2702-3

> <Gold.Version>
5.8.1

> <Gold.Id.Protein>
6NUR|6NUR_protein|mol2

> <Gold.PLP.Fitness>
52.4101

> <Gold.PLP.PLP>
-42.8748

> <Gold.PLP.part.hbond>
-3.9906

> <Gold.PLP.part.metal>
0.0000

> <Gold.PLP.part.buried>
-5.3965

> <Gold.PLP.part.nonpolar>
-33.2078

> <Gold.PLP.part.repulsive>
0.0720

> <Gold.PLP.ligand.clash>
0.0000

> <Gold.PLP.ligand.torsion>
0.8884

> <Gold.PLP.Chemscore.Hbond>
3.7373

> <Gold.PLP.Chemscore.CHOScore>
0.0000

> <Gold.PLP.Chemscore.Metal>
0.0000

> <Gold.Chemscore.Hbonds>
donor molecule, donor type, donor heavy atom, donor atom, acceptor molecule, acceptor atom, score
      P1  H  6896  6907       L1    22  0.94
      P1  H  6931  6943       L1     2  1.00
      P1  H  6934  6947       L1     2  0.54
      P1  H  7997  8008       L1    11  1.00

> <Gold.PLP.Chemscore.Internal.Correction>
0.1002

> <Gold.Rescore>
     Score         DG    S(hbond)    S(metal)    S(lipo)     H(rot)  DE(clash)    DE(int)     intcor
     22.54     -23.34       2.88        0.00     112.66       1.93       0.04       0.76       ----

> <Gold.Chemscore.Fitness>
22.5427

> <Gold.Chemscore.DG>
-23.3439

> <Gold.Chemscore.ZeroCoef>
-5.4800

> <Gold.Chemscore.Hbond>
2.8800

> <Gold.Chemscore.Metal>
0.0000

> <Gold.Chemscore.Lipo>
112.6632

> <Gold.Chemscore.Internal_Hbond>
0.0000

> <Gold.Chemscore.DEClash>
0.0368

> <Gold.Chemscore.DEInternal>
0.7643

> <Gold.Chemscore.Rot>
1.9284

> <Gold.Chemscore.Internal.Correction>
   9.000000E+99

> <Gold.Chemscore.Hbonds>
donor molecule, donor type, donor heavy atom, donor atom, acceptor molecule, acceptor atom, score
      P1  H  6896  6907       L1    22  0.36
      P1  H  6931  6943       L1     2  0.35
      P1  H  6934  6947       L1     2  0.40
      P1  H  7997  8008       L1    11  1.00

> <Gold.Chemscore.Hbond.Weighted>
-9.6191

> <Gold.Chemscore.Metal.Weighted>
-0.0000

> <Gold.Chemscore.Lipo.Weighted>
-13.1816

> <Gold.Chemscore.Internal_Hbond.Weighted>
0.0000

> <Gold.Chemscore.DEClash.Weighted>
0.0368

> <Gold.Chemscore.DEInternal.Weighted>
0.7643

> <Gold.Chemscore.Rot.Weighted>
4.9368

> <Gold.Chemscore.Internal.Correction.Weighted>
   9.000000E+99

> <Gold.Protein.RotatedTorsions>
[ 6907 6896 6895 6894 ] final  -46.69 input  -60.11 | X-H torsion
[ 7974 7965 7964 7962 ] final -123.76 input  175.53 | X-H torsion
[ 8008 7997 7996 7995 ] final  -46.50 input   59.86 | X-H torsion
[ 10167 10162 10161 10158 ] final  -40.42 input  -65.29 | X-H torsion
[ 10718 10713 10712 10709 ] final -103.53 input   66.30 | X-H torsion
[ 10763 10752 10751 10750 ] final   71.92 input  -60.55 | X-H torsion
[ 11005 11000 10999 10996 ] final  -21.05 input  -57.11 | X-H torsion

> <Gold.Protein.ActiveResidues>
 VAL166  LYS551  ARG553  GLY616  TRP617  ASP618  TYR619  PRO620  LYS621  CYS622 
 ASP623  PHE694  ASN695  SER759  ASP760  ASP761  ALA762  ILE779  LEU786  VAL792 
 PHE793  MET794  SER795  GLU796  ALA797  LYS798  CYS799  TRP800  GLU811  SER814 

> <Gold.Protein.RotatedAtoms>
  150.9086  134.8502  159.7409 H   0  0  0  0  0  0  0  0  0  0  0  0  # atno 6907 bound_to 6896
  152.4932  134.4393  159.9548 H   0  0  0  0  0  0  0  0  0  0  0  0  # atno 6908 bound_to 6896
  151.4438  133.3597  159.2820 H   0  0  0  0  0  0  0  0  0  0  0  0  # atno 6909 bound_to 6896
  145.0152  140.7941  143.4414 H   0  0  0  0  0  0  0  0  0  0  0  0  # atno 7974 bound_to 7965
  154.4008  140.1370  156.4022 H   0  0  0  0  0  0  0  0  0  0  0  0  # atno 8008 bound_to 7997
  155.7813  140.3481  155.5279 H   0  0  0  0  0  0  0  0  0  0  0  0  # atno 8009 bound_to 7997
  155.8671  140.0966  157.1565 H   0  0  0  0  0  0  0  0  0  0  0  0  # atno 8010 bound_to 7997
  140.7035  143.3154  151.2922 H   0  0  0  0  0  0  0  0  0  0  0  0  # atno 10167 bound_to 10162
  156.0269  130.5471  150.7265 H   0  0  0  0  0  0  0  0  0  0  0  0  # atno 10718 bound_to 10713
  153.0428  135.5119  154.7666 H   0  0  0  0  0  0  0  0  0  0  0  0  # atno 10763 bound_to 10752
  154.6590  135.2936  154.9893 H   0  0  0  0  0  0  0  0  0  0  0  0  # atno 10764 bound_to 10752
  154.0750  135.6672  153.4882 H   0  0  0  0  0  0  0  0  0  0  0  0  # atno 10765 bound_to 10752
  140.8524  133.7847  155.9981 H   0  0  0  0  0  0  0  0  0  0  0  0  # atno 11005 bound_to 11000
  145.1969  139.2272  143.5213 LP  0  0  0  0  0  0  0  0  0  0  0  0  # atno 17320 bound_to 7965
  146.3477  140.1777  142.8589 LP  0  0  0  0  0  0  0  0  0  0  0  0  # atno 17321 bound_to 7965
  139.6591  144.0222  152.2680 LP  0  0  0  0  0  0  0  0  0  0  0  0  # atno 17342 bound_to 10162
  139.9783  144.6446  150.7924 LP  0  0  0  0  0  0  0  0  0  0  0  0  # atno 17343 bound_to 10162
  157.4868  131.0907  151.0473 LP  0  0  0  0  0  0  0  0  0  0  0  0  # atno 17370 bound_to 10713
  157.0891  130.5934  149.5436 LP  0  0  0  0  0  0  0  0  0  0  0  0  # atno 17371 bound_to 10713
  140.8775  134.2652  157.5160 LP  0  0  0  0  0  0  0  0  0  0  0  0  # atno 17394 bound_to 11000
  139.8704  134.9598  156.4344 LP  0  0  0  0  0  0  0  0  0  0  0  0  # atno 17395 bound_to 11000

$$$$
