AV-unprocessed.smi:657|AV-procd|sdf|3229|dock8
  -GOLD-   22720 0173D 1   1.00000     0.00000
 Structure written by MMmdl.
 46 47  0  0  0  0  0  0  0  0  3 V2000
  147.7192  135.2879  154.7393 C   0  0  0  0  0  0  0  0  0  0  0  0
  148.1396  136.7083  155.1536 C   0  0  0  0  0  0  0  0  0  0  0  0
  147.4358  137.1541  156.4506 C   0  0  0  0  0  0  0  0  0  0  0  0
  147.9959  137.6881  154.0240 N   0  3  1  0  0  0  0  0  0  0  0  0
  146.5915  137.8193  153.5343 C   0  0  0  0  0  0  0  0  0  0  0  0
  146.5049  138.6601  152.2540 C   0  0  0  0  0  0  0  0  0  0  0  0
  147.0836  140.0542  152.4959 C   0  0  0  0  0  0  0  0  0  0  0  0
  148.5271  139.9209  152.9862 C   0  0  0  0  0  0  0  0  0  0  0  0
  148.6377  139.0283  154.2473 C   0  0  2  0  0  0  0  0  0  0  0  0
  150.1309  138.9237  154.6193 C   0  0  0  0  0  0  0  0  0  0  0  0
  150.6249  137.7973  154.7443 O   0  0  0  0  0  0  0  0  0  0  0  0
  150.6898  140.1551  154.7784 N   0  5  0  0  0  0  0  0  0  0  0  0
  151.2308  140.6472  156.0461 C   0  0  0  0  0  0  0  0  0  0  0  0
  150.7712  142.0989  156.3131 C   0  0  0  0  0  0  0  0  0  0  0  0
  151.3274  142.7158  157.5799 C   0  0  0  0  0  0  0  0  0  0  0  0
  151.1589  144.0595  158.0224 C   0  0  0  0  0  0  0  0  0  0  0  0
  151.7540  144.3048  159.1785 N   0  0  0  0  0  0  0  0  0  0  0  0
  152.3322  143.1334  159.5113 N   0  0  0  0  0  0  0  0  0  0  0  0
  153.0795  143.0316  160.7459 C   0  0  0  0  0  0  0  0  0  0  0  0
  152.1066  142.1620  158.5607 C   0  0  0  0  0  0  0  0  0  0  0  0
  148.0009  134.5671  155.5076 H   0  0  0  0  0  0  0  0  0  0  0  0
  148.2126  134.9859  153.8152 H   0  0  0  0  0  0  0  0  0  0  0  0
  146.6432  135.1962  154.5958 H   0  0  0  0  0  0  0  0  0  0  0  0
  149.1956  136.6037  155.3914 H   0  0  0  0  0  0  0  0  0  0  0  0
  147.6349  136.4467  157.2557 H   0  0  0  0  0  0  0  0  0  0  0  0
  146.3535  137.2075  156.3363 H   0  0  0  0  0  0  0  0  0  0  0  0
  147.7915  138.1275  156.7873 H   0  0  0  0  0  0  0  0  0  0  0  0
  146.1615  136.8409  153.3274 H   0  0  0  0  0  0  0  0  0  0  0  0
  145.9716  138.2807  154.3036 H   0  0  0  0  0  0  0  0  0  0  0  0
  147.0459  138.1652  151.4462 H   0  0  0  0  0  0  0  0  0  0  0  0
  145.4666  138.7404  151.9309 H   0  0  0  0  0  0  0  0  0  0  0  0
  147.0486  140.6433  151.5791 H   0  0  0  0  0  0  0  0  0  0  0  0
  146.4849  140.5864  153.2363 H   0  0  0  0  0  0  0  0  0  0  0  0
  149.1344  139.5093  152.1781 H   0  0  0  0  0  0  0  0  0  0  0  0
  148.9291  140.9137  153.1944 H   0  0  0  0  0  0  0  0  0  0  0  0
  148.0839  139.5223  155.0486 H   0  0  0  0  0  0  0  0  0  0  0  0
  150.9471  140.0262  156.8972 H   0  0  0  0  0  0  0  0  0  0  0  0
  152.3205  140.6277  156.0315 H   0  0  0  0  0  0  0  0  0  0  0  0
  151.0520  142.7082  155.4538 H   0  0  0  0  0  0  0  0  0  0  0  0
  149.6808  142.1214  156.3306 H   0  0  0  0  0  0  0  0  0  0  0  0
  150.6116  144.8577  157.5433 H   0  0  0  0  0  0  0  0  0  0  0  0
  153.3013  141.9862  160.9620 H   0  0  0  0  0  0  0  0  0  0  0  0
  152.4957  143.4459  161.5686 H   0  0  0  0  0  0  0  0  0  0  0  0
  154.0154  143.5831  160.6554 H   0  0  0  0  0  0  0  0  0  0  0  0
  152.4997  141.1615  158.6647 H   0  0  0  0  0  0  0  0  0  0  0  0
  148.5196  137.2828  153.2616 H   0  0  0  0  0  0  0  0  0  0  0  0
  1  2  1  0  0  0  0
  1 21  1  0  0  0  0
  1 22  1  0  0  0  0
  1 23  1  0  0  0  0
  2  3  1  0  0  0  0
  2  4  1  0  0  0  0
  2 24  1  0  0  0  0
  3 25  1  0  0  0  0
  3 26  1  0  0  0  0
  3 27  1  0  0  0  0
  4  9  1  0  0  0  0
  4  5  1  0  0  0  0
  4 46  1  0  0  0  0
  5  6  1  0  0  0  0
  5 28  1  0  0  0  0
  5 29  1  0  0  0  0
  6  7  1  0  0  0  0
  6 30  1  0  0  0  0
  6 31  1  0  0  0  0
  7  8  1  0  0  0  0
  7 32  1  0  0  0  0
  7 33  1  0  0  0  0
  8  9  1  0  0  0  0
  8 34  1  0  0  0  0
  8 35  1  0  0  0  0
  9 10  1  0  0  0  0
  9 36  1  0  0  0  0
 10 11  2  0  0  0  0
 10 12  1  0  0  0  0
 12 13  1  0  0  0  0
 13 14  1  0  0  0  0
 13 37  1  0  0  0  0
 13 38  1  0  0  0  0
 14 15  1  0  0  0  0
 14 39  1  0  0  0  0
 14 40  1  0  0  0  0
 15 20  2  0  0  0  0
 15 16  1  0  0  0  0
 16 17  2  0  0  0  0
 16 41  1  0  0  0  0
 17 18  1  0  0  0  0
 18 19  1  0  0  0  0
 18 20  1  0  0  0  0
 19 42  1  0  0  0  0
 19 43  1  0  0  0  0
 19 44  1  0  0  0  0
 20 45  1  0  0  0  0
M  CHG  1   4   1
M  CHG  1  12  -1
M  END
> <s_m_source_file>
AV-unprocessed.smi

> <i_m_source_file_index>
657

> <i_lp_mmshare_version>
43012

> <i_f3d_flags>
0

> <s_epik_input>
W0NIM11bQ0hdKFtDSDNdKU4xW0NIMl1bQ0gyXVtDSDJdW0NIMl1bQ0BIXTFDKD1PKVtOSF1bQ0gyXVtDSDJdYzJbY0hdbm4oW0NIM10pW2NIXTI=

> <s_epik_cmdline>
J2VwaWtfcHl0aG9uJywgJy1waCcsICc3LjAnLCAnLXRuJywgJzgnLCAnLW1hJywgJzIwMCcsICctbWV0YWxfYmluZGluZycsICctaW1hZScsICc8aW5maWxlLm1hZT4nLCAnLW9tYWUnLCAnPG91dGZpbGUubWFlPic=

> <r_lp_tautomer_probability>
1

> <r_epik_Ionization_Penalty>
6.1622

> <r_epik_Ionization_Penalty_Charging>
6.16146

> <r_epik_Ionization_Penalty_Neutral>
0.00073675

> <r_epik_State_Penalty>
6.18018

> <r_epik_Charging_Adjusted_Penalty>
12.3416

> <i_epik_Tot_Q>
0

> <i_epik_Tot_abs_Q>
2

> <r_epik_Metal_State_Penalty>
2.12232

> <b_epik_Metal_Only>
1

> <s_lp_Force_Field>
OPLS_2005

> <r_lp_Energy>
9.74682

> <b_lp_Chiralities_Consistent>
1

> <s_lp_Variant>
AV-unprocessed.smi:657-10

> <Gold.Version>
5.8.1

> <Gold.Id.Protein>
6NUR|6NUR_protein|mol2

> <Gold.PLP.Fitness>
42.9187

> <Gold.PLP.PLP>
-32.5394

> <Gold.PLP.part.hbond>
-2.0000

> <Gold.PLP.part.metal>
0.0000

> <Gold.PLP.part.buried>
3.2822

> <Gold.PLP.part.nonpolar>
-34.7649

> <Gold.PLP.part.repulsive>
0.2850

> <Gold.PLP.ligand.clash>
0.2156

> <Gold.PLP.ligand.torsion>
0.8040

> <Gold.PLP.Chemscore.Hbond>
3.0000

> <Gold.PLP.Chemscore.CHOScore>
1.0046

> <Gold.PLP.Chemscore.Metal>
0.0000

> <Gold.Chemscore.Hbonds>
donor molecule, donor type, donor heavy atom, donor atom, acceptor molecule, acceptor atom, score
      L1  H     4    46       P1  7948  2.00
      P1  H  7989  7998       L1    12  1.00
      L1  C    16    41       P1  8028  1.00
      L1  C    16    41       P1  8029  0.01

> <Gold.PLP.Chemscore.Internal.Correction>
0.1890

> <Gold.Rescore>
     Score         DG    S(hbond)    S(metal)    S(lipo)     H(rot)  DE(clash)    DE(int)     intcor
     13.36     -19.53       1.87        0.00     101.05       1.57       3.70       2.47       ----

> <Gold.Chemscore.Fitness>
13.3576

> <Gold.Chemscore.DG>
-19.5289

> <Gold.Chemscore.ZeroCoef>
-5.4800

> <Gold.Chemscore.Hbond>
1.8729

> <Gold.Chemscore.Metal>
0.0000

> <Gold.Chemscore.Lipo>
101.0531

> <Gold.Chemscore.Internal_Hbond>
0.0000

> <Gold.Chemscore.DEClash>
3.6987

> <Gold.Chemscore.DEInternal>
2.4727

> <Gold.Chemscore.Rot>
1.5741

> <Gold.Chemscore.Internal.Correction>
   9.000000E+99

> <Gold.Chemscore.Hbonds>
donor molecule, donor type, donor heavy atom, donor atom, acceptor molecule, acceptor atom, score
      L1  H     4    46       P1  7948  1.00
      P1  H  7989  7998       L1    12  0.59

> <Gold.Chemscore.Hbond.Weighted>
-6.2553

> <Gold.Chemscore.Metal.Weighted>
-0.0000

> <Gold.Chemscore.Lipo.Weighted>
-11.8232

> <Gold.Chemscore.Internal_Hbond.Weighted>
0.0000

> <Gold.Chemscore.DEClash.Weighted>
3.6987

> <Gold.Chemscore.DEInternal.Weighted>
2.4727

> <Gold.Chemscore.Rot.Weighted>
4.0297

> <Gold.Chemscore.Internal.Correction.Weighted>
   9.000000E+99

> <Gold.Protein.RotatedTorsions>
[ 6907 6896 6895 6894 ] final   75.81 input  -60.11 | X-H torsion
[ 7974 7965 7964 7962 ] final   97.67 input  175.53 | X-H torsion
[ 8008 7997 7996 7995 ] final  106.67 input   59.86 | X-H torsion
[ 10167 10162 10161 10158 ] final  135.03 input  -65.29 | X-H torsion
[ 10718 10713 10712 10709 ] final   89.45 input   66.30 | X-H torsion
[ 10763 10752 10751 10750 ] final  -65.90 input  -60.55 | X-H torsion
[ 11005 11000 10999 10996 ] final   19.94 input  -57.11 | X-H torsion

> <Gold.Protein.ActiveResidues>
 VAL166  LYS551  ARG553  GLY616  TRP617  ASP618  TYR619  PRO620  LYS621  CYS622 
 ASP623  PHE694  ASN695  SER759  ASP760  ASP761  ALA762  ILE779  LEU786  VAL792 
 PHE793  MET794  SER795  GLU796  ALA797  LYS798  CYS799  TRP800  GLU811  SER814 

> <Gold.Protein.RotatedAtoms>
  152.5044  134.4064  159.9433 H   0  0  0  0  0  0  0  0  0  0  0  0  # atno 6907 bound_to 6896
  151.4030  133.3745  159.2742 H   0  0  0  0  0  0  0  0  0  0  0  0  # atno 6908 bound_to 6896
  150.9348  134.8782  159.7633 H   0  0  0  0  0  0  0  0  0  0  0  0  # atno 6909 bound_to 6896
  145.4224  139.2320  143.3189 H   0  0  0  0  0  0  0  0  0  0  0  0  # atno 7974 bound_to 7965
  156.1762  140.3108  155.9063 H   0  0  0  0  0  0  0  0  0  0  0  0  # atno 8008 bound_to 7997
  155.3483  140.0469  157.3063 H   0  0  0  0  0  0  0  0  0  0  0  0  # atno 8009 bound_to 7997
  154.5292  140.2225  155.8844 H   0  0  0  0  0  0  0  0  0  0  0  0  # atno 8010 bound_to 7997
  139.5233  144.6538  151.5224 H   0  0  0  0  0  0  0  0  0  0  0  0  # atno 10167 bound_to 10162
  157.6955  131.0333  150.3427 H   0  0  0  0  0  0  0  0  0  0  0  0  # atno 10718 bound_to 10713
  154.3519  135.6135  153.5647 H   0  0  0  0  0  0  0  0  0  0  0  0  # atno 10763 bound_to 10752
  152.9798  135.5794  154.4734 H   0  0  0  0  0  0  0  0  0  0  0  0  # atno 10764 bound_to 10752
  154.4456  135.2851  155.1794 H   0  0  0  0  0  0  0  0  0  0  0  0  # atno 10765 bound_to 10752
  140.4081  134.1647  155.7666 H   0  0  0  0  0  0  0  0  0  0  0  0  # atno 11005 bound_to 11000
  146.2650  140.4950  142.8838 LP  0  0  0  0  0  0  0  0  0  0  0  0  # atno 17320 bound_to 7965
  144.8237  140.6592  143.6336 LP  0  0  0  0  0  0  0  0  0  0  0  0  # atno 17321 bound_to 7965
  140.6354  143.8994  150.6643 LP  0  0  0  0  0  0  0  0  0  0  0  0  # atno 17342 bound_to 10162
  140.2312  143.3734  152.1564 LP  0  0  0  0  0  0  0  0  0  0  0  0  # atno 17343 bound_to 10162
  156.3886  130.3893  149.7047 LP  0  0  0  0  0  0  0  0  0  0  0  0  # atno 17370 bound_to 10713
  156.4404  130.7858  151.2879 LP  0  0  0  0  0  0  0  0  0  0  0  0  # atno 17371 bound_to 10713
  141.1831  133.8370  157.1185 LP  0  0  0  0  0  0  0  0  0  0  0  0  # atno 17394 bound_to 11000
  140.0287  134.9911  157.0737 LP  0  0  0  0  0  0  0  0  0  0  0  0  # atno 17395 bound_to 11000

$$$$
