AV-unprocessed.smi:1908|AV-procd|sdf|7734|dock9
  -GOLD-   22720 9473D 1   1.00000     0.00000
 Structure written by MMmdl.
 27 27  0  0  0  0  0  0  0  0  2 V2000
  150.3772  145.0985  159.3550 C   0  0  0  0  0  0  0  0  0  0  0  0
  151.3522  144.0973  158.7219 C   0  0  0  0  0  0  0  0  0  0  0  0
  152.6573  144.7765  158.2792 C   0  0  0  0  0  0  0  0  0  0  0  0
  150.7081  143.4433  157.5870 N   0  0  0  0  0  0  0  0  0  0  0  0
  150.5764  142.1177  157.4243 C   0  0  0  0  0  0  0  0  0  0  0  0
  151.0169  141.2907  158.2239 O   0  0  0  0  0  0  0  0  0  0  0  0
  149.8655  141.6610  156.1435 C   0  0  0  0  0  0  0  0  0  0  0  0
  150.4715  140.4542  155.5584 N   0  0  0  0  0  0  0  0  0  0  0  0
  151.8282  140.2038  155.8307 C   0  0  0  0  0  0  0  0  0  0  0  0
  152.4624  139.1205  155.3433 C   0  0  0  0  0  0  0  0  0  0  0  0
  151.7049  138.1928  154.5126 C   0  0  0  0  0  0  0  0  0  0  0  0
  152.2689  137.2001  154.0561 O   0  0  0  0  0  0  0  0  0  0  0  0
  150.3901  138.4773  154.2800 N   0  5  0  0  0  0  0  0  0  0  0  0
  149.7576  139.5824  154.7839 C   0  0  0  0  0  0  0  0  0  0  0  0
  148.5691  139.8193  154.5634 O   0  0  0  0  0  0  0  0  0  0  0  0
  150.8222  145.5807  160.2259 H   0  0  0  0  0  0  0  0  0  0  0  0
  149.4645  144.6014  159.6854 H   0  0  0  0  0  0  0  0  0  0  0  0
  150.0950  145.8806  158.6496 H   0  0  0  0  0  0  0  0  0  0  0  0
  151.5907  143.3470  159.4777 H   0  0  0  0  0  0  0  0  0  0  0  0
  153.1509  145.2614  159.1216 H   0  0  0  0  0  0  0  0  0  0  0  0
  152.4710  145.5370  157.5202 H   0  0  0  0  0  0  0  0  0  0  0  0
  153.3584  144.0526  157.8622 H   0  0  0  0  0  0  0  0  0  0  0  0
  150.3155  144.0447  156.8773 H   0  0  0  0  0  0  0  0  0  0  0  0
  148.8057  141.4907  156.3433 H   0  0  0  0  0  0  0  0  0  0  0  0
  149.8928  142.4852  155.4298 H   0  0  0  0  0  0  0  0  0  0  0  0
  152.3137  140.9352  156.4598 H   0  0  0  0  0  0  0  0  0  0  0  0
  153.5040  138.9403  155.5644 H   0  0  0  0  0  0  0  0  0  0  0  0
  1  2  1  0  0  0  0
  1 16  1  0  0  0  0
  1 17  1  0  0  0  0
  1 18  1  0  0  0  0
  2  3  1  0  0  0  0
  2  4  1  0  0  0  0
  2 19  1  0  0  0  0
  3 20  1  0  0  0  0
  3 21  1  0  0  0  0
  3 22  1  0  0  0  0
  4  5  1  0  0  0  0
  4 23  1  0  0  0  0
  5  6  2  0  0  0  0
  5  7  1  0  0  0  0
  7  8  1  0  0  0  0
  7 24  1  0  0  0  0
  7 25  1  0  0  0  0
  8 14  1  0  0  0  0
  8  9  1  0  0  0  0
  9 10  2  0  0  0  0
  9 26  1  0  0  0  0
 10 11  1  0  0  0  0
 10 27  1  0  0  0  0
 11 12  2  0  0  0  0
 11 13  1  0  0  0  0
 13 14  1  0  0  0  0
 14 15  2  0  0  0  0
M  CHG  1  13  -1
M  END
> <s_m_source_file>
AV-unprocessed.smi

> <i_m_source_file_index>
1908

> <i_lp_mmshare_version>
43012

> <i_f3d_flags>
0

> <s_epik_input>
W0NIM11bQ0hdKFtDSDNdKVtOSF1DKD1PKVtDSDJdbjFbY0hdW2NIXWMoPU8pW25IXWMxPU8=

> <s_epik_cmdline>
J2VwaWtfcHl0aG9uJywgJy1waCcsICc3LjAnLCAnLXRuJywgJzgnLCAnLW1hJywgJzIwMCcsICctbWV0YWxfYmluZGluZycsICctaW1hZScsICc8aW5maWxlLm1hZT4nLCAnLW9tYWUnLCAnPG91dGZpbGUubWFlPic=

> <r_lp_tautomer_probability>
0.999537

> <r_epik_Ionization_Penalty>
3.07884

> <r_epik_Ionization_Penalty_Charging>
2.69291e-08

> <r_epik_Ionization_Penalty_Neutral>
3.07884

> <r_epik_State_Penalty>
3.07787

> <r_epik_Charging_Adjusted_Penalty>
3.07787

> <i_epik_Tot_Q>
-1

> <i_epik_Tot_abs_Q>
1

> <r_epik_Metal_State_Penalty>
0.459857

> <b_epik_Metal_Only>
1

> <s_lp_Force_Field>
OPLS_2005

> <r_lp_Energy>
10.6939

> <b_lp_Chiralities_Consistent>
1

> <s_lp_Variant>
AV-unprocessed.smi:1908-2

> <Gold.Version>
5.8.1

> <Gold.Id.Protein>
6NUR|6NUR_protein|mol2

> <Gold.PLP.Fitness>
37.4449

> <Gold.PLP.PLP>
-33.0693

> <Gold.PLP.part.hbond>
-1.9451

> <Gold.PLP.part.metal>
0.0000

> <Gold.PLP.part.buried>
-5.4006

> <Gold.PLP.part.nonpolar>
-28.0479

> <Gold.PLP.part.repulsive>
1.1462

> <Gold.PLP.ligand.clash>
0.0000

> <Gold.PLP.ligand.torsion>
0.7204

> <Gold.PLP.Chemscore.Hbond>
1.9360

> <Gold.PLP.Chemscore.CHOScore>
0.0000

> <Gold.PLP.Chemscore.Metal>
0.0000

> <Gold.Chemscore.Hbonds>
donor molecule, donor type, donor heavy atom, donor atom, acceptor molecule, acceptor atom, score
      L1  H     4    23       P1  8028  1.00
      P1  H 10752 10765       L1    12  0.88

> <Gold.PLP.Chemscore.Internal.Correction>
0.0083

> <Gold.Rescore>
     Score         DG    S(hbond)    S(metal)    S(lipo)     H(rot)  DE(clash)    DE(int)     intcor
     12.67     -14.72       1.94        0.00      61.39       1.72       0.08       1.96       ----

> <Gold.Chemscore.Fitness>
12.6736

> <Gold.Chemscore.DG>
-14.7186

> <Gold.Chemscore.ZeroCoef>
-5.4800

> <Gold.Chemscore.Hbond>
1.9368

> <Gold.Chemscore.Metal>
0.0000

> <Gold.Chemscore.Lipo>
61.3866

> <Gold.Chemscore.Internal_Hbond>
0.0000

> <Gold.Chemscore.DEClash>
0.0827

> <Gold.Chemscore.DEInternal>
1.9623

> <Gold.Chemscore.Rot>
1.7236

> <Gold.Chemscore.Internal.Correction>
   9.000000E+99

> <Gold.Chemscore.Hbonds>
donor molecule, donor type, donor heavy atom, donor atom, acceptor molecule, acceptor atom, score
      L1  H     4    23       P1  8028  0.95
      P1  H 10752 10765       L1    12  0.86

> <Gold.Chemscore.Hbond.Weighted>
-6.4688

> <Gold.Chemscore.Metal.Weighted>
-0.0000

> <Gold.Chemscore.Lipo.Weighted>
-7.1822

> <Gold.Chemscore.Internal_Hbond.Weighted>
0.0000

> <Gold.Chemscore.DEClash.Weighted>
0.0827

> <Gold.Chemscore.DEInternal.Weighted>
1.9623

> <Gold.Chemscore.Rot.Weighted>
4.4124

> <Gold.Chemscore.Internal.Correction.Weighted>
   9.000000E+99

> <Gold.Protein.RotatedTorsions>
[ 6907 6896 6895 6894 ] final  156.61 input  -60.11 | X-H torsion
[ 7974 7965 7964 7962 ] final   -9.62 input  175.53 | X-H torsion
[ 8008 7997 7996 7995 ] final -172.24 input   59.86 | X-H torsion
[ 10167 10162 10161 10158 ] final   49.53 input  -65.29 | X-H torsion
[ 10718 10713 10712 10709 ] final  102.49 input   66.30 | X-H torsion
[ 10763 10752 10751 10750 ] final  156.11 input  -60.55 | X-H torsion
[ 11005 11000 10999 10996 ] final -137.72 input  -57.11 | X-H torsion

> <Gold.Protein.ActiveResidues>
 VAL166  LYS551  ARG553  GLY616  TRP617  ASP618  TYR619  PRO620  LYS621  CYS622 
 ASP623  PHE694  ASN695  SER759  ASP760  ASP761  ALA762  ILE779  LEU786  VAL792 
 PHE793  MET794  SER795  GLU796  ALA797  LYS798  CYS799  TRP800  GLU811  SER814 

> <Gold.Protein.RotatedAtoms>
  152.0272  133.3922  159.4282 H   0  0  0  0  0  0  0  0  0  0  0  0  # atno 6907 bound_to 6896
  150.6885  134.3561  159.4939 H   0  0  0  0  0  0  0  0  0  0  0  0  # atno 6908 bound_to 6896
  152.1342  134.9111  160.0608 H   0  0  0  0  0  0  0  0  0  0  0  0  # atno 6909 bound_to 6896
  146.2246  140.2643  142.8353 H   0  0  0  0  0  0  0  0  0  0  0  0  # atno 7974 bound_to 7965
  155.9420  140.1110  157.1048 H   0  0  0  0  0  0  0  0  0  0  0  0  # atno 8008 bound_to 7997
  154.4091  140.1217  156.5006 H   0  0  0  0  0  0  0  0  0  0  0  0  # atno 8009 bound_to 7997
  155.6950  140.3472  155.4911 H   0  0  0  0  0  0  0  0  0  0  0  0  # atno 8010 bound_to 7997
  140.2819  144.3146  150.6262 H   0  0  0  0  0  0  0  0  0  0  0  0  # atno 10167 bound_to 10162
  157.6801  131.0754  150.5411 H   0  0  0  0  0  0  0  0  0  0  0  0  # atno 10718 bound_to 10713
  154.1791  135.2800  155.3057 H   0  0  0  0  0  0  0  0  0  0  0  0  # atno 10763 bound_to 10752
  154.6016  135.5527  153.7384 H   0  0  0  0  0  0  0  0  0  0  0  0  # atno 10764 bound_to 10752
  153.0143  135.6393  154.1930 H   0  0  0  0  0  0  0  0  0  0  0  0  # atno 10765 bound_to 10752
  140.8684  134.2081  157.4666 H   0  0  0  0  0  0  0  0  0  0  0  0  # atno 11005 bound_to 11000
  144.9316  140.7981  143.5686 LP  0  0  0  0  0  0  0  0  0  0  0  0  # atno 17320 bound_to 7965
  145.2587  139.2001  143.4903 LP  0  0  0  0  0  0  0  0  0  0  0  0  # atno 17321 bound_to 7965
  140.5804  143.2173  151.7438 LP  0  0  0  0  0  0  0  0  0  0  0  0  # atno 17342 bound_to 10162
  139.4960  144.4088  152.0103 LP  0  0  0  0  0  0  0  0  0  0  0  0  # atno 17343 bound_to 10162
  156.5718  130.4282  149.6016 LP  0  0  0  0  0  0  0  0  0  0  0  0  # atno 17370 bound_to 10713
  156.2734  130.7030  151.1834 LP  0  0  0  0  0  0  0  0  0  0  0  0  # atno 17371 bound_to 10713
  139.8710  134.9763  156.4915 LP  0  0  0  0  0  0  0  0  0  0  0  0  # atno 17394 bound_to 11000
  140.8601  133.8066  155.9257 LP  0  0  0  0  0  0  0  0  0  0  0  0  # atno 17395 bound_to 11000

$$$$
