AV-unprocessed.smi:2244|AV-procd|sdf|9072|dock1
  -GOLD-   2272012273D 1   1.00000     0.00000
 Structure written by MMmdl.
 49 51  0  0  0  0  0  0  0  0  1 V2000
  146.9379  128.6617  155.0500 C   0  0  0  0  0  0  0  0  0  0  0  0
  147.5072  129.1387  153.6949 C   0  0  0  0  0  0  0  0  0  0  0  0
  148.7562  128.2860  153.3899 C   0  0  0  0  0  0  0  0  0  0  0  0
  146.4253  128.8862  152.6240 C   0  0  0  0  0  0  0  0  0  0  0  0
  147.8871  130.6303  153.7097 C   0  0  0  0  0  0  0  0  0  0  0  0
  147.2795  131.5920  152.8714 C   0  0  0  0  0  0  0  0  0  0  0  0
  147.7168  132.9228  152.9782 C   0  0  0  0  0  0  0  0  0  0  0  0
  148.7295  133.2287  153.9098 C   0  0  0  0  0  0  0  0  0  0  0  0
  149.1188  134.5996  153.9408 N   0  0  0  0  0  0  0  0  0  0  0  0
  149.7058  135.3403  154.9049 C   0  0  0  0  0  0  0  0  0  0  0  0
  150.0075  134.8432  155.9889 O   0  0  0  0  0  0  0  0  0  0  0  0
  149.9414  136.6285  154.6065 N   0  0  0  0  0  0  0  0  0  0  0  0
  150.5519  137.6083  155.4991 C   0  0  2  0  0  0  0  0  0  0  0  0
  150.8745  138.8894  154.7183 C   0  0  0  0  0  0  0  0  0  0  0  0
  151.6223  139.8944  155.6076 C   0  0  0  0  0  0  0  0  0  0  0  0
  152.8057  139.3038  156.1411 O   0  0  0  0  0  0  0  0  0  0  0  0
  152.5985  138.1324  156.9322 C   0  0  1  0  0  0  0  0  0  0  0  0
  151.9348  138.4579  158.2638 C   0  0  0  0  0  0  0  0  0  0  0  0
  151.6346  139.8884  158.6430 C   0  0  0  0  0  0  0  0  0  0  0  0
  152.7133  139.1241  159.3738 C   0  0  0  0  0  0  0  0  0  0  0  0
  151.8475  137.0575  156.1220 C   0  0  0  0  0  0  0  0  0  0  0  0
  149.2673  132.2511  154.6832 N   0  0  0  0  0  0  0  0  0  0  0  0
  148.8566  130.9835  154.5884 N   0  0  0  0  0  0  0  0  0  0  0  0
  146.6704  127.6048  155.0162 H   0  0  0  0  0  0  0  0  0  0  0  0
  146.0354  129.2095  155.3235 H   0  0  0  0  0  0  0  0  0  0  0  0
  147.6626  128.7801  155.8563 H   0  0  0  0  0  0  0  0  0  0  0  0
  149.5367  128.4493  154.1339 H   0  0  0  0  0  0  0  0  0  0  0  0
  149.1798  128.5207  152.4129 H   0  0  0  0  0  0  0  0  0  0  0  0
  148.5200  127.2213  153.3899 H   0  0  0  0  0  0  0  0  0  0  0  0
  146.1232  127.8385  152.6035 H   0  0  0  0  0  0  0  0  0  0  0  0
  146.7783  129.1369  151.6231 H   0  0  0  0  0  0  0  0  0  0  0  0
  145.5320  129.4818  152.8166 H   0  0  0  0  0  0  0  0  0  0  0  0
  146.5047  131.3447  152.1622 H   0  0  0  0  0  0  0  0  0  0  0  0
  147.2813  133.6902  152.3546 H   0  0  0  0  0  0  0  0  0  0  0  0
  148.9592  135.0956  153.0762 H   0  0  0  0  0  0  0  0  0  0  0  0
  149.6640  136.9571  153.6921 H   0  0  0  0  0  0  0  0  0  0  0  0
  149.8408  137.8539  156.2896 H   0  0  0  0  0  0  0  0  0  0  0  0
  151.4916  138.6503  153.8507 H   0  0  0  0  0  0  0  0  0  0  0  0
  149.9587  139.3408  154.3350 H   0  0  0  0  0  0  0  0  0  0  0  0
  151.9072  140.7678  155.0204 H   0  0  0  0  0  0  0  0  0  0  0  0
  150.9785  140.2587  156.4083 H   0  0  0  0  0  0  0  0  0  0  0  0
  153.5920  137.7421  157.1566 H   0  0  0  0  0  0  0  0  0  0  0  0
  151.1986  137.7265  158.5892 H   0  0  0  0  0  0  0  0  0  0  0  0
  151.9503  140.6713  157.9564 H   0  0  0  0  0  0  0  0  0  0  0  0
  150.7048  140.0810  159.1742 H   0  0  0  0  0  0  0  0  0  0  0  0
  152.5034  138.8067  160.3932 H   0  0  0  0  0  0  0  0  0  0  0  0
  153.7471  139.3992  159.1752 H   0  0  0  0  0  0  0  0  0  0  0  0
  151.6358  136.1938  156.7536 H   0  0  0  0  0  0  0  0  0  0  0  0
  152.5030  136.6999  155.3262 H   0  0  0  0  0  0  0  0  0  0  0  0
  1  2  1  0  0  0  0
  1 24  1  0  0  0  0
  1 25  1  0  0  0  0
  1 26  1  0  0  0  0
  2  3  1  0  0  0  0
  2  4  1  0  0  0  0
  2  5  1  0  0  0  0
  3 27  1  0  0  0  0
  3 28  1  0  0  0  0
  3 29  1  0  0  0  0
  4 30  1  0  0  0  0
  4 31  1  0  0  0  0
  4 32  1  0  0  0  0
  5 23  1  0  0  0  0
  5  6  2  0  0  0  0
  6  7  1  0  0  0  0
  6 33  1  0  0  0  0
  7  8  2  0  0  0  0
  7 34  1  0  0  0  0
  8  9  1  0  0  0  0
  8 22  1  0  0  0  0
  9 10  1  0  0  0  0
  9 35  1  0  0  0  0
 10 11  2  0  0  0  0
 10 12  1  0  0  0  0
 12 13  1  0  0  0  0
 12 36  1  0  0  0  0
 13 21  1  0  0  0  0
 13 14  1  0  0  0  0
 13 37  1  0  0  0  0
 14 15  1  0  0  0  0
 14 38  1  0  0  0  0
 14 39  1  0  0  0  0
 15 16  1  0  0  0  0
 15 40  1  0  0  0  0
 15 41  1  0  0  0  0
 16 17  1  0  0  0  0
 17 18  1  0  0  0  0
 17 21  1  0  0  0  0
 17 42  1  0  0  0  0
 18 20  1  0  0  0  0
 18 19  1  0  0  0  0
 18 43  1  0  0  0  0
 19 20  1  0  0  0  0
 19 44  1  0  0  0  0
 19 45  1  0  0  0  0
 20 46  1  0  0  0  0
 20 47  1  0  0  0  0
 21 48  1  0  0  0  0
 21 49  1  0  0  0  0
 22 23  2  0  0  0  0
M  END
> <s_m_source_file>
AV-unprocessed.smi

> <i_m_source_file_index>
2244

> <i_lp_mmshare_version>
43012

> <i_f3d_flags>
0

> <s_epik_input>
W0NIM11DKFtDSDNdKShbQ0gzXSljMVtjSF1bY0hdYyhubjEpW05IXUMoPU8pW05IXVtDQEBIXTJbQ0gyXVtDSDJdT1tDQEhdKFtDSDJdMilbQ0hdM1tDSDJdW0NIMl0z

> <s_epik_cmdline>
J2VwaWtfcHl0aG9uJywgJy1waCcsICc3LjAnLCAnLXRuJywgJzgnLCAnLW1hJywgJzIwMCcsICctbWV0YWxfYmluZGluZycsICctaW1hZScsICc8aW5maWxlLm1hZT4nLCAnLW9tYWUnLCAnPG91dGZpbGUubWFlPic=

> <r_lp_tautomer_probability>
1

> <r_epik_Ionization_Penalty>
0.011369

> <r_epik_Ionization_Penalty_Charging>
0

> <r_epik_Ionization_Penalty_Neutral>
0.011369

> <r_epik_State_Penalty>
0.00456331

> <r_epik_Charging_Adjusted_Penalty>
0.00456331

> <i_epik_Tot_Q>
0

> <i_epik_Tot_abs_Q>
0

> <r_epik_Metal_State_Penalty>
-0

> <b_epik_Metal_Only>
0

> <s_lp_Force_Field>
OPLS_2005

> <r_lp_Energy>
29.5867

> <b_lp_Chiralities_Consistent>
1

> <s_lp_Variant>
AV-unprocessed.smi:2244-1

> <Gold.Version>
5.8.1

> <Gold.Id.Protein>
6NUR|6NUR_protein|mol2

> <Gold.PLP.Fitness>
39.8061

> <Gold.PLP.PLP>
-32.5504

> <Gold.PLP.part.hbond>
-3.0000

> <Gold.PLP.part.metal>
0.0000

> <Gold.PLP.part.buried>
-3.3594

> <Gold.PLP.part.nonpolar>
-26.3006

> <Gold.PLP.part.repulsive>
0.1437

> <Gold.PLP.ligand.clash>
0.0000

> <Gold.PLP.ligand.torsion>
1.0998

> <Gold.PLP.Chemscore.Hbond>
2.7691

> <Gold.PLP.Chemscore.CHOScore>
0.0000

> <Gold.PLP.Chemscore.Metal>
0.0000

> <Gold.Chemscore.Hbonds>
donor molecule, donor type, donor heavy atom, donor atom, acceptor molecule, acceptor atom, score
      L1  H     9    35       P1  7948  0.95
      L1  H    12    36       P1  7948  0.76
      P1  H  7997  8009       L1    16  1.00

> <Gold.PLP.Chemscore.Internal.Correction>
1.1481

> <Gold.Rescore>
     Score         DG    S(hbond)    S(metal)    S(lipo)     H(rot)  DE(clash)    DE(int)     intcor
     14.35     -18.63       2.15        0.00      79.54       1.30       0.07       4.21       ----

> <Gold.Chemscore.Fitness>
14.3517

> <Gold.Chemscore.DG>
-18.6261

> <Gold.Chemscore.ZeroCoef>
-5.4800

> <Gold.Chemscore.Hbond>
2.1463

> <Gold.Chemscore.Metal>
0.0000

> <Gold.Chemscore.Lipo>
79.5369

> <Gold.Chemscore.Internal_Hbond>
0.0000

> <Gold.Chemscore.DEClash>
0.0659

> <Gold.Chemscore.DEInternal>
4.2085

> <Gold.Chemscore.Rot>
1.3002

> <Gold.Chemscore.Internal.Correction>
   9.000000E+99

> <Gold.Chemscore.Hbonds>
donor molecule, donor type, donor heavy atom, donor atom, acceptor molecule, acceptor atom, score
      L1  H     9    35       P1  7948  0.21
      L1  H    12    36       P1  7948  0.54
      P1  H  7997  8009       L1    16  0.97

> <Gold.Chemscore.Hbond.Weighted>
-7.1687

> <Gold.Chemscore.Metal.Weighted>
-0.0000

> <Gold.Chemscore.Lipo.Weighted>
-9.3058

> <Gold.Chemscore.Internal_Hbond.Weighted>
0.0000

> <Gold.Chemscore.DEClash.Weighted>
0.0659

> <Gold.Chemscore.DEInternal.Weighted>
4.2085

> <Gold.Chemscore.Rot.Weighted>
3.3284

> <Gold.Chemscore.Internal.Correction.Weighted>
   9.000000E+99

> <Gold.Protein.RotatedTorsions>
[ 6907 6896 6895 6894 ] final   -5.09 input  -60.11 | X-H torsion
[ 7974 7965 7964 7962 ] final -122.72 input  175.53 | X-H torsion
[ 8008 7997 7996 7995 ] final -148.55 input   59.86 | X-H torsion
[ 10167 10162 10161 10158 ] final  168.26 input  -65.29 | X-H torsion
[ 10718 10713 10712 10709 ] final   20.70 input   66.30 | X-H torsion
[ 10763 10752 10751 10750 ] final -154.81 input  -60.55 | X-H torsion
[ 11005 11000 10999 10996 ] final   16.23 input  -57.11 | X-H torsion

> <Gold.Protein.ActiveResidues>
 VAL166  LYS551  ARG553  GLY616  TRP617  ASP618  TYR619  PRO620  LYS621  CYS622 
 ASP623  PHE694  ASN695  SER759  ASP760  ASP761  ALA762  ILE779  LEU786  VAL792 
 PHE793  MET794  SER795  GLU796  ALA797  LYS798  CYS799  TRP800  GLU811  SER814 

> <Gold.Protein.RotatedAtoms>
  151.4872  135.1055  159.9793 H   0  0  0  0  0  0  0  0  0  0  0  0  # atno 6907 bound_to 6896
  152.4755  133.8125  159.7021 H   0  0  0  0  0  0  0  0  0  0  0  0  # atno 6908 bound_to 6896
  150.8791  133.7335  159.2964 H   0  0  0  0  0  0  0  0  0  0  0  0  # atno 6909 bound_to 6896
  145.0264  140.8031  143.4350 H   0  0  0  0  0  0  0  0  0  0  0  0  # atno 7974 bound_to 7965
  155.5935  140.0655  157.2752 H   0  0  0  0  0  0  0  0  0  0  0  0  # atno 8008 bound_to 7997
  154.4298  140.1831  156.1146 H   0  0  0  0  0  0  0  0  0  0  0  0  # atno 8009 bound_to 7997
  156.0214  140.3316  155.7047 H   0  0  0  0  0  0  0  0  0  0  0  0  # atno 8010 bound_to 7997
  139.4964  144.3833  151.9598 H   0  0  0  0  0  0  0  0  0  0  0  0  # atno 10167 bound_to 10162
  157.1282  130.6579  149.5944 H   0  0  0  0  0  0  0  0  0  0  0  0  # atno 10718 bound_to 10713
  154.7832  135.3181  154.7944 H   0  0  0  0  0  0  0  0  0  0  0  0  # atno 10763 bound_to 10752
  153.8650  135.6850  153.4783 H   0  0  0  0  0  0  0  0  0  0  0  0  # atno 10764 bound_to 10752
  153.1475  135.4713  154.9526 H   0  0  0  0  0  0  0  0  0  0  0  0  # atno 10765 bound_to 10752
  140.4495  134.1239  155.7700 H   0  0  0  0  0  0  0  0  0  0  0  0  # atno 11005 bound_to 11000
  145.1828  139.2343  143.5284 LP  0  0  0  0  0  0  0  0  0  0  0  0  # atno 17320 bound_to 7965
  146.3493  140.1605  142.8591 LP  0  0  0  0  0  0  0  0  0  0  0  0  # atno 17321 bound_to 7965
  140.3270  144.3361  150.5996 LP  0  0  0  0  0  0  0  0  0  0  0  0  # atno 17342 bound_to 10162
  140.5676  143.2184  151.7656 LP  0  0  0  0  0  0  0  0  0  0  0  0  # atno 17343 bound_to 10162
  155.9813  130.4820  150.6823 LP  0  0  0  0  0  0  0  0  0  0  0  0  # atno 17370 bound_to 10713
  157.4416  131.0862  151.0938 LP  0  0  0  0  0  0  0  0  0  0  0  0  # atno 17371 bound_to 10713
  141.1670  133.8683  157.1684 LP  0  0  0  0  0  0  0  0  0  0  0  0  # atno 17394 bound_to 11000
  140.0016  135.0025  157.0203 LP  0  0  0  0  0  0  0  0  0  0  0  0  # atno 17395 bound_to 11000

$$$$
