AV-unprocessed.smi:1504|AV-procd|sdf|6072|dock9
  -GOLD-   22720 6193D 1   1.00000     0.00000
 Structure written by MMmdl.
 39 40  0  0  0  0  0  0  0  0  1 V2000
  155.7636  139.9948  159.3222 O   0  0  0  0  0  0  0  0  0  0  0  0
  155.6055  139.5618  160.4637 C   0  0  0  0  0  0  0  0  0  0  0  0
  154.8885  140.1827  161.4104 N   0  0  0  0  0  0  0  0  0  0  0  0
  154.1951  141.4550  161.2318 C   0  0  0  0  0  0  0  0  0  0  0  0
  153.2767  141.4676  159.9940 C   0  0  0  0  0  0  0  0  0  0  0  0
  152.5798  142.7988  159.7694 C   0  0  0  0  0  0  0  0  0  0  0  0
  152.8176  143.5504  158.5985 C   0  0  0  0  0  0  0  0  0  0  0  0
  152.1446  144.7773  158.4401 C   0  0  0  0  0  0  0  0  0  0  0  0
  151.2641  145.2036  159.4533 C   0  0  0  0  0  0  0  0  0  0  0  0
  151.0942  144.3791  160.5835 C   0  0  0  0  0  0  0  0  0  0  0  0
  151.7334  143.2003  160.7444 N   0  0  0  0  0  0  0  0  0  0  0  0
  156.1276  138.4117  160.9077 N   0  0  0  0  0  0  0  0  0  0  0  0
  156.9582  137.5215  160.1068 C   0  0  0  0  0  0  0  0  0  0  0  0
  156.2041  137.0373  158.8571 C   0  0  1  0  0  0  0  0  0  0  0  0
  157.0526  136.0878  157.9890 C   0  0  0  0  0  0  0  0  0  0  0  0
  156.1437  135.4453  156.9366 C   0  0  0  0  0  0  0  0  0  0  0  0
  154.5211  135.2279  157.7565 S   0  0  0  0  0  0  0  0  0  0  0  0
  153.4754  135.8359  156.9200 O   0  0  0  0  0  0  0  0  0  0  0  0
  154.3968  133.8436  158.2375 O   0  0  0  0  0  0  0  0  0  0  0  0
  154.8805  136.3220  159.1831 C   0  0  0  0  0  0  0  0  0  0  0  0
  154.8130  139.7457  162.3173 H   0  0  0  0  0  0  0  0  0  0  0  0
  153.6018  141.6363  162.1283 H   0  0  0  0  0  0  0  0  0  0  0  0
  154.9189  142.2691  161.1727 H   0  0  0  0  0  0  0  0  0  0  0  0
  153.8599  141.2210  159.1060 H   0  0  0  0  0  0  0  0  0  0  0  0
  152.5244  140.6828  160.0821 H   0  0  0  0  0  0  0  0  0  0  0  0
  153.4982  143.1953  157.8385 H   0  0  0  0  0  0  0  0  0  0  0  0
  152.3010  145.3801  157.5580 H   0  0  0  0  0  0  0  0  0  0  0  0
  150.7319  146.1393  159.3671 H   0  0  0  0  0  0  0  0  0  0  0  0
  150.4273  144.6743  161.3799 H   0  0  0  0  0  0  0  0  0  0  0  0
  155.9422  138.1344  161.8604 H   0  0  0  0  0  0  0  0  0  0  0  0
  157.8646  138.0539  159.8156 H   0  0  0  0  0  0  0  0  0  0  0  0
  157.2703  136.6657  160.7083 H   0  0  0  0  0  0  0  0  0  0  0  0
  155.9644  137.9049  158.2404 H   0  0  0  0  0  0  0  0  0  0  0  0
  157.8925  136.6059  157.5255 H   0  0  0  0  0  0  0  0  0  0  0  0
  157.4718  135.3019  158.6191 H   0  0  0  0  0  0  0  0  0  0  0  0
  156.0054  136.1135  156.0863 H   0  0  0  0  0  0  0  0  0  0  0  0
  156.5169  134.4876  156.5734 H   0  0  0  0  0  0  0  0  0  0  0  0
  154.9813  135.6919  160.0673 H   0  0  0  0  0  0  0  0  0  0  0  0
  154.0516  137.0117  159.3433 H   0  0  0  0  0  0  0  0  0  0  0  0
  1  2  2  0  0  0  0
  2  3  1  0  0  0  0
  2 12  1  0  0  0  0
  3  4  1  0  0  0  0
  3 21  1  0  0  0  0
  4  5  1  0  0  0  0
  4 22  1  0  0  0  0
  4 23  1  0  0  0  0
  5  6  1  0  0  0  0
  5 24  1  0  0  0  0
  5 25  1  0  0  0  0
  6 11  1  0  0  0  0
  6  7  2  0  0  0  0
  7  8  1  0  0  0  0
  7 26  1  0  0  0  0
  8  9  2  0  0  0  0
  8 27  1  0  0  0  0
  9 10  1  0  0  0  0
  9 28  1  0  0  0  0
 10 11  2  0  0  0  0
 10 29  1  0  0  0  0
 12 13  1  0  0  0  0
 12 30  1  0  0  0  0
 13 14  1  0  0  0  0
 13 31  1  0  0  0  0
 13 32  1  0  0  0  0
 14 20  1  0  0  0  0
 14 15  1  0  0  0  0
 14 33  1  0  0  0  0
 15 16  1  0  0  0  0
 15 34  1  0  0  0  0
 15 35  1  0  0  0  0
 16 17  1  0  0  0  0
 16 36  1  0  0  0  0
 16 37  1  0  0  0  0
 17 18  2  0  0  0  0
 17 19  2  0  0  0  0
 17 20  1  0  0  0  0
 20 38  1  0  0  0  0
 20 39  1  0  0  0  0
M  END
> <s_m_source_file>
AV-unprocessed.smi

> <i_m_source_file_index>
1504

> <i_lp_mmshare_version>
43012

> <i_f3d_flags>
0

> <s_epik_input>
Tz1TMSg9TylbQ0gyXVtDSDJdW0NASF0oW0NIMl0xKVtDSDJdW05IXUMoPU8pW05IXVtDSDJdW0NIMl1jMltjSF1bY0hdW2NIXVtjSF1uMg==

> <s_epik_cmdline>
J2VwaWtfcHl0aG9uJywgJy1waCcsICc3LjAnLCAnLXRuJywgJzgnLCAnLW1hJywgJzIwMCcsICctbWV0YWxfYmluZGluZycsICctaW1hZScsICc8aW5maWxlLm1hZT4nLCAnLW9tYWUnLCAnPG91dGZpbGUubWFlPic=

> <r_epik_Ionization_Penalty>
0.0431785

> <r_epik_Ionization_Penalty_Charging>
0

> <r_epik_Ionization_Penalty_Neutral>
0.0431785

> <r_epik_State_Penalty>
0.0364691

> <r_epik_Charging_Adjusted_Penalty>
0.0364691

> <i_epik_Tot_Q>
0

> <i_epik_Tot_abs_Q>
0

> <r_epik_Metal_State_Penalty>
0.0339827

> <b_epik_Metal_Only>
0

> <s_lp_Force_Field>
OPLS_2005

> <r_lp_Energy>
0.935995

> <b_lp_Chiralities_Consistent>
1

> <s_lp_Variant>
AV-unprocessed.smi:1504-2

> <Gold.Version>
5.8.1

> <Gold.Id.Protein>
6NUR|6NUR_protein|mol2

> <Gold.PLP.Fitness>
44.2061

> <Gold.PLP.PLP>
-35.3070

> <Gold.PLP.part.hbond>
-3.4073

> <Gold.PLP.part.metal>
0.0000

> <Gold.PLP.part.buried>
-5.1484

> <Gold.PLP.part.nonpolar>
-26.8876

> <Gold.PLP.part.repulsive>
0.0897

> <Gold.PLP.ligand.clash>
0.0000

> <Gold.PLP.ligand.torsion>
0.0414

> <Gold.PLP.Chemscore.Hbond>
2.9913

> <Gold.PLP.Chemscore.CHOScore>
0.0000

> <Gold.PLP.Chemscore.Metal>
0.0000

> <Gold.Chemscore.Hbonds>
donor molecule, donor type, donor heavy atom, donor atom, acceptor molecule, acceptor atom, score
      P1  H  6896  6908       L1    19  0.19
      P1  H  7997  8009       L1     1  1.00
      P1  H 10752 10764       L1    18  1.00

> <Gold.PLP.Chemscore.Internal.Correction>
0.0082

> <Gold.Rescore>
     Score         DG    S(hbond)    S(metal)    S(lipo)     H(rot)  DE(clash)    DE(int)     intcor
     17.95     -20.37       2.75        0.00      90.60       1.91       0.01       2.41       ----

> <Gold.Chemscore.Fitness>
17.9478

> <Gold.Chemscore.DG>
-20.3672

> <Gold.Chemscore.ZeroCoef>
-5.4800

> <Gold.Chemscore.Hbond>
2.7479

> <Gold.Chemscore.Metal>
0.0000

> <Gold.Chemscore.Lipo>
90.5994

> <Gold.Chemscore.Internal_Hbond>
0.0000

> <Gold.Chemscore.DEClash>
0.0102

> <Gold.Chemscore.DEInternal>
2.4092

> <Gold.Chemscore.Rot>
1.9105

> <Gold.Chemscore.Internal.Correction>
   9.000000E+99

> <Gold.Chemscore.Hbonds>
donor molecule, donor type, donor heavy atom, donor atom, acceptor molecule, acceptor atom, score
      P1  H  6896  6908       L1    19  0.08
      P1  H  7997  8009       L1     1  0.95
      P1  H 10752 10764       L1    18  0.91

> <Gold.Chemscore.Hbond.Weighted>
-9.1779

> <Gold.Chemscore.Metal.Weighted>
-0.0000

> <Gold.Chemscore.Lipo.Weighted>
-10.6001

> <Gold.Chemscore.Internal_Hbond.Weighted>
0.0000

> <Gold.Chemscore.DEClash.Weighted>
0.0102

> <Gold.Chemscore.DEInternal.Weighted>
2.4092

> <Gold.Chemscore.Rot.Weighted>
4.8908

> <Gold.Chemscore.Internal.Correction.Weighted>
   9.000000E+99

> <Gold.Protein.RotatedTorsions>
[ 6907 6896 6895 6894 ] final  -14.36 input  -60.11 | X-H torsion
[ 7974 7965 7964 7962 ] final  172.71 input  175.53 | X-H torsion
[ 8008 7997 7996 7995 ] final  100.67 input   59.86 | X-H torsion
[ 10167 10162 10161 10158 ] final  148.42 input  -65.29 | X-H torsion
[ 10718 10713 10712 10709 ] final    4.27 input   66.30 | X-H torsion
[ 10763 10752 10751 10750 ] final   -8.68 input  -60.55 | X-H torsion
[ 11005 11000 10999 10996 ] final -138.30 input  -57.11 | X-H torsion

> <Gold.Protein.ActiveResidues>
 VAL166  LYS551  ARG553  GLY616  TRP617  ASP618  TYR619  PRO620  LYS621  CYS622 
 ASP623  PHE694  ASN695  SER759  ASP760  ASP761  ALA762  ILE779  LEU786  VAL792 
 PHE793  MET794  SER795  GLU796  ALA797  LYS798  CYS799  TRP800  GLU811  SER814 

> <Gold.Protein.RotatedAtoms>
  151.3405  135.0862  159.9369 H   0  0  0  0  0  0  0  0  0  0  0  0  # atno 6907 bound_to 6896
  152.5212  133.9452  159.7655 H   0  0  0  0  0  0  0  0  0  0  0  0  # atno 6908 bound_to 6896
  150.9808  133.6194  159.2752 H   0  0  0  0  0  0  0  0  0  0  0  0  # atno 6909 bound_to 6896
  144.7261  139.9540  143.6433 H   0  0  0  0  0  0  0  0  0  0  0  0  # atno 7974 bound_to 7965
  156.1226  140.3209  155.8230 H   0  0  0  0  0  0  0  0  0  0  0  0  # atno 8008 bound_to 7997
  155.4477  140.0530  157.3021 H   0  0  0  0  0  0  0  0  0  0  0  0  # atno 8009 bound_to 7997
  154.4838  140.2064  155.9715 H   0  0  0  0  0  0  0  0  0  0  0  0  # atno 8010 bound_to 7997
  139.4875  144.5681  151.7107 H   0  0  0  0  0  0  0  0  0  0  0  0  # atno 10167 bound_to 10162
  156.8902  130.5685  149.5650 H   0  0  0  0  0  0  0  0  0  0  0  0  # atno 10718 bound_to 10713
  153.4440  135.7014  153.6151 H   0  0  0  0  0  0  0  0  0  0  0  0  # atno 10763 bound_to 10752
  153.4514  135.3757  155.2286 H   0  0  0  0  0  0  0  0  0  0  0  0  # atno 10764 bound_to 10752
  154.8728  135.3998  154.3842 H   0  0  0  0  0  0  0  0  0  0  0  0  # atno 10765 bound_to 10752
  140.8629  134.2147  157.4697 H   0  0  0  0  0  0  0  0  0  0  0  0  # atno 11005 bound_to 11000
  146.0689  139.3679  143.0535 LP  0  0  0  0  0  0  0  0  0  0  0  0  # atno 17320 bound_to 7965
  145.7994  140.9778  143.1007 LP  0  0  0  0  0  0  0  0  0  0  0  0  # atno 17321 bound_to 7965
  140.5263  144.0801  150.6038 LP  0  0  0  0  0  0  0  0  0  0  0  0  # atno 17342 bound_to 10162
  140.3776  143.2820  152.0207 LP  0  0  0  0  0  0  0  0  0  0  0  0  # atno 17343 bound_to 10162
  156.0633  130.5681  150.9237 LP  0  0  0  0  0  0  0  0  0  0  0  0  # atno 17370 bound_to 10713
  157.6088  131.0937  150.8831 LP  0  0  0  0  0  0  0  0  0  0  0  0  # atno 17371 bound_to 10713
  139.8708  134.9738  156.4822 LP  0  0  0  0  0  0  0  0  0  0  0  0  # atno 17394 bound_to 11000
  140.8662  133.8022  155.9317 LP  0  0  0  0  0  0  0  0  0  0  0  0  # atno 17395 bound_to 11000

$$$$
