AV-unprocessed.smi:21|AV-procd|sdf|139|dock4
  -GOLD-   2262015343D 1   1.00000     0.00000
 Structure written by MMmdl.
 62 65  0  0  0  0  0  0  0  0  2 V2000
  143.8712  132.6584  150.2752 C   0  0  0  0  0  0  0  0  0  0  0  0
  144.5804  133.2905  151.3292 O   0  0  0  0  0  0  0  0  0  0  0  0
  145.6942  134.0576  150.8903 C   0  0  1  0  0  0  0  0  0  0  0  0
  145.2887  135.5259  150.8737 C   0  0  0  0  0  0  0  0  0  0  0  0
  145.4945  135.9757  152.3233 C   0  0  2  0  0  0  0  0  0  0  0  0
  145.6920  137.4976  152.4861 C   0  0  0  0  0  0  0  0  0  0  0  0
  145.8059  137.9055  153.8877 N   0  0  0  0  0  0  0  0  0  0  0  0
  144.5788  138.0615  154.6582 C   0  0  0  0  0  0  0  0  0  0  0  0
  146.9507  138.5082  154.3135 C   0  0  0  0  0  0  0  0  0  0  0  0
  147.9470  138.6919  153.4072 N   0  0  0  0  0  0  0  0  0  0  0  0
  149.0897  139.2854  153.7592 C   0  0  0  0  0  0  0  0  0  0  0  0
  149.4398  139.7764  154.9473 N   0  0  0  0  0  0  0  0  0  0  0  0
  148.4470  139.6098  155.8656 C   0  0  0  0  0  0  0  0  0  0  0  0
  147.1861  138.9830  155.6404 C   0  0  0  0  0  0  0  0  0  0  0  0
  146.4450  139.0030  156.8173 N   0  0  0  0  0  0  0  0  0  0  0  0
  147.2202  139.5961  157.6819 C   0  0  0  0  0  0  0  0  0  0  0  0
  148.4342  140.0162  157.1898 N   0  0  0  0  0  0  0  0  0  0  0  0
  149.4724  140.7181  157.9320 C   0  0  0  0  0  0  0  0  0  0  0  0
  150.7989  140.9179  157.1463 C   0  0  2  0  0  0  0  0  0  0  0  0
  151.4837  139.5766  156.7897 C   0  0  0  0  0  0  0  0  0  0  0  0
  152.5999  139.7838  155.9489 O   0  0  0  0  0  0  0  0  0  0  0  0
  151.7774  141.8709  157.8815 C   0  0  2  0  0  0  0  0  0  0  0  0
  152.1272  141.4467  159.2987 C   0  0  0  0  0  0  0  0  0  0  0  0
  152.6949  142.7319  159.8898 C   0  0  0  0  0  0  0  0  0  0  0  0
  151.9934  143.7905  159.2477 O   0  0  0  0  0  0  0  0  0  0  0  0
  151.2362  143.2784  158.1560 C   0  0  0  0  0  0  0  0  0  0  0  0
  146.6812  135.2191  152.7845 N   0  3  1  0  0  0  0  0  0  0  0  0
  146.6853  134.9216  154.2340 C   0  0  0  0  0  0  0  0  0  0  0  0
  146.8260  134.0158  151.9295 C   0  0  0  0  0  0  0  0  0  0  0  0
  146.0212  133.7340  149.9005 H   0  0  0  0  0  0  0  0  0  0  0  0
  144.6320  135.6477  152.9066 H   0  0  0  0  0  0  0  0  0  0  0  0
  143.0476  132.0767  150.6889 H   0  0  0  0  0  0  0  0  0  0  0  0
  144.5072  131.9793  149.7068 H   0  0  0  0  0  0  0  0  0  0  0  0
  143.4486  133.3951  149.5908 H   0  0  0  0  0  0  0  0  0  0  0  0
  145.9582  136.0773  150.2117 H   0  0  0  0  0  0  0  0  0  0  0  0
  144.2692  135.6800  150.5181 H   0  0  0  0  0  0  0  0  0  0  0  0
  146.6128  137.7970  151.9849 H   0  0  0  0  0  0  0  0  0  0  0  0
  144.8996  138.0398  151.9698 H   0  0  0  0  0  0  0  0  0  0  0  0
  144.7652  137.9174  155.7231 H   0  0  0  0  0  0  0  0  0  0  0  0
  143.8374  137.3231  154.3522 H   0  0  0  0  0  0  0  0  0  0  0  0
  144.1489  139.0518  154.5055 H   0  0  0  0  0  0  0  0  0  0  0  0
  149.8278  139.3842  152.9767 H   0  0  0  0  0  0  0  0  0  0  0  0
  146.9187  139.7579  158.7069 H   0  0  0  0  0  0  0  0  0  0  0  0
  149.0709  141.6885  158.2256 H   0  0  0  0  0  0  0  0  0  0  0  0
  149.6499  140.1871  158.8669 H   0  0  0  0  0  0  0  0  0  0  0  0
  150.5363  141.3995  156.2030 H   0  0  0  0  0  0  0  0  0  0  0  0
  151.8515  139.0775  157.6856 H   0  0  0  0  0  0  0  0  0  0  0  0
  150.7874  138.8874  156.3119 H   0  0  0  0  0  0  0  0  0  0  0  0
  152.3134  139.7283  155.0498 H   0  0  0  0  0  0  0  0  0  0  0  0
  152.6971  141.9732  157.3040 H   0  0  0  0  0  0  0  0  0  0  0  0
  151.2271  141.1541  159.8415 H   0  0  0  0  0  0  0  0  0  0  0  0
  152.8344  140.6203  159.3515 H   0  0  0  0  0  0  0  0  0  0  0  0
  152.5838  142.7771  160.9733 H   0  0  0  0  0  0  0  0  0  0  0  0
  153.7555  142.8227  159.6523 H   0  0  0  0  0  0  0  0  0  0  0  0
  151.3160  143.9342  157.2887 H   0  0  0  0  0  0  0  0  0  0  0  0
  150.1878  143.2388  158.4554 H   0  0  0  0  0  0  0  0  0  0  0  0
  145.8455  134.2803  154.5056 H   0  0  0  0  0  0  0  0  0  0  0  0
  146.6187  135.8394  154.8185 H   0  0  0  0  0  0  0  0  0  0  0  0
  147.6081  134.4133  154.5148 H   0  0  0  0  0  0  0  0  0  0  0  0
  146.8254  133.0899  152.5062 H   0  0  0  0  0  0  0  0  0  0  0  0
  147.7934  134.0813  151.4304 H   0  0  0  0  0  0  0  0  0  0  0  0
  147.4859  135.7990  152.5923 H   0  0  0  0  0  0  0  0  0  0  0  0
  1  2  1  0  0  0  0
  1 32  1  0  0  0  0
  1 33  1  0  0  0  0
  1 34  1  0  0  0  0
  2  3  1  0  0  0  0
  3 30  1  0  0  0  0
  3 29  1  0  0  0  0
  3  4  1  0  0  0  0
  4  5  1  0  0  0  0
  4 35  1  0  0  0  0
  4 36  1  0  0  0  0
  5 31  1  0  0  0  0
  5  6  1  0  0  0  0
  5 27  1  0  0  0  0
  6  7  1  0  0  0  0
  6 37  1  0  0  0  0
  6 38  1  0  0  0  0
  7  8  1  0  0  0  0
  7  9  1  0  0  0  0
  8 39  1  0  0  0  0
  8 40  1  0  0  0  0
  8 41  1  0  0  0  0
  9 14  1  0  0  0  0
  9 10  2  0  0  0  0
 10 11  1  0  0  0  0
 11 12  2  0  0  0  0
 11 42  1  0  0  0  0
 12 13  1  0  0  0  0
 13 17  1  0  0  0  0
 13 14  2  0  0  0  0
 14 15  1  0  0  0  0
 15 16  2  0  0  0  0
 16 17  1  0  0  0  0
 16 43  1  0  0  0  0
 17 18  1  0  0  0  0
 18 19  1  0  0  0  0
 18 44  1  0  0  0  0
 18 45  1  0  0  0  0
 19 20  1  0  0  0  0
 19 22  1  0  0  0  0
 19 46  1  0  0  0  0
 20 21  1  0  0  0  0
 20 47  1  0  0  0  0
 20 48  1  0  0  0  0
 21 49  1  0  0  0  0
 22 26  1  0  0  0  0
 22 23  1  0  0  0  0
 22 50  1  0  0  0  0
 23 24  1  0  0  0  0
 23 51  1  0  0  0  0
 23 52  1  0  0  0  0
 24 25  1  0  0  0  0
 24 53  1  0  0  0  0
 24 54  1  0  0  0  0
 25 26  1  0  0  0  0
 26 55  1  0  0  0  0
 26 56  1  0  0  0  0
 27 28  1  0  0  0  0
 27 29  1  0  0  0  0
 27 62  1  0  0  0  0
 28 57  1  0  0  0  0
 28 58  1  0  0  0  0
 28 59  1  0  0  0  0
 29 60  1  0  0  0  0
 29 61  1  0  0  0  0
M  CHG  1  27   1
M  END
> <s_m_source_file>
AV-unprocessed.smi

> <i_m_source_file_index>
21

> <i_lp_mmshare_version>
43012

> <i_f3d_flags>
0

> <s_epik_input>
W0NIM11PW0NASF0xW0NIMl1bQ0BIXShOKFtDSDNdKVtDSDJdMSlbQ0gyXU4oW0NIM10pYyhuW2NIXW4yKWMoYzIzKW5bY0hdbjNbQ0gyXVtDQEhdKFtDSDJdW09IXSlbQ0BASF00W0NIMl1bQ0gyXU9bQ0gyXTQ=

> <s_epik_cmdline>
J2VwaWtfcHl0aG9uJywgJy1waCcsICc3LjAnLCAnLXRuJywgJzgnLCAnLW1hJywgJzIwMCcsICctbWV0YWxfYmluZGluZycsICctaW1hZScsICc8aW5maWxlLm1hZT4nLCAnLW9tYWUnLCAnPG91dGZpbGUubWFlPic=

> <r_lp_tautomer_probability>
1

> <r_epik_Ionization_Penalty>
0.0157465

> <r_epik_Ionization_Penalty_Charging>
0.015354

> <r_epik_Ionization_Penalty_Neutral>
0.000392529

> <r_epik_State_Penalty>
0.0120612

> <r_epik_Charging_Adjusted_Penalty>
0.0274152

> <i_epik_Tot_Q>
1

> <i_epik_Tot_abs_Q>
1

> <r_epik_Metal_State_Penalty>
0.0121253

> <b_epik_Metal_Only>
0

> <s_lp_Force_Field>
OPLS_2005

> <r_lp_Energy>
57.752

> <b_lp_Chiralities_Consistent>
1

> <s_lp_Variant>
AV-unprocessed.smi:21-19

> <Gold.Version>
5.8.1

> <Gold.Id.Protein>
6NUR|6NUR_protein|mol2

> <Gold.PLP.Fitness>
45.4873

> <Gold.PLP.PLP>
-34.8523

> <Gold.PLP.part.hbond>
-2.0000

> <Gold.PLP.part.metal>
0.0000

> <Gold.PLP.part.buried>
-5.2446

> <Gold.PLP.part.nonpolar>
-29.2160

> <Gold.PLP.part.repulsive>
1.1519

> <Gold.PLP.ligand.clash>
0.0000

> <Gold.PLP.ligand.torsion>
0.8644

> <Gold.PLP.Chemscore.Hbond>
3.0000

> <Gold.PLP.Chemscore.CHOScore>
0.9404

> <Gold.PLP.Chemscore.Metal>
0.0000

> <Gold.Chemscore.Hbonds>
donor molecule, donor type, donor heavy atom, donor atom, acceptor molecule, acceptor atom, score
      L1  H    27    62       P1  7948  2.00
      P1  H  7997  8010       L1    21  1.00
      L1  C    11    42       P1  7957  0.76

> <Gold.PLP.Chemscore.Internal.Correction>
0.5427

> <Gold.Rescore>
     Score         DG    S(hbond)    S(metal)    S(lipo)     H(rot)  DE(clash)    DE(int)     intcor
      9.48     -14.26       1.94        0.00      87.09       3.08       0.29       4.50       ----

> <Gold.Chemscore.Fitness>
9.4774

> <Gold.Chemscore.DG>
-14.2632

> <Gold.Chemscore.ZeroCoef>
-5.4800

> <Gold.Chemscore.Hbond>
1.9364

> <Gold.Chemscore.Metal>
0.0000

> <Gold.Chemscore.Lipo>
87.0915

> <Gold.Chemscore.Internal_Hbond>
0.0000

> <Gold.Chemscore.DEClash>
0.2854

> <Gold.Chemscore.DEInternal>
4.5004

> <Gold.Chemscore.Rot>
3.0758

> <Gold.Chemscore.Internal.Correction>
   9.000000E+99

> <Gold.Chemscore.Hbonds>
donor molecule, donor type, donor heavy atom, donor atom, acceptor molecule, acceptor atom, score
      L1  H    27    62       P1  7948  0.98
      P1  H  7997  8010       L1    21  0.96

> <Gold.Chemscore.Hbond.Weighted>
-6.4677

> <Gold.Chemscore.Metal.Weighted>
-0.0000

> <Gold.Chemscore.Lipo.Weighted>
-10.1897

> <Gold.Chemscore.Internal_Hbond.Weighted>
0.0000

> <Gold.Chemscore.DEClash.Weighted>
0.2854

> <Gold.Chemscore.DEInternal.Weighted>
4.5004

> <Gold.Chemscore.Rot.Weighted>
7.8741

> <Gold.Chemscore.Internal.Correction.Weighted>
   9.000000E+99

> <Gold.Protein.RotatedTorsions>
[ 6907 6896 6895 6894 ] final -135.42 input  -60.11 | X-H torsion
[ 7974 7965 7964 7962 ] final   98.74 input  175.53 | X-H torsion
[ 8008 7997 7996 7995 ] final   65.17 input   59.86 | X-H torsion
[ 10167 10162 10161 10158 ] final -178.70 input  -65.29 | X-H torsion
[ 10718 10713 10712 10709 ] final   40.53 input   66.30 | X-H torsion
[ 10763 10752 10751 10750 ] final    8.55 input  -60.55 | X-H torsion
[ 11005 11000 10999 10996 ] final  110.41 input  -57.11 | X-H torsion

> <Gold.Protein.ActiveResidues>
 VAL166  LYS551  ARG553  GLY616  TRP617  ASP618  TYR619  PRO620  LYS621  CYS622 
 ASP623  PHE694  ASN695  SER759  ASP760  ASP761  ALA762  ILE779  LEU786  VAL792 
 PHE793  MET794  SER795  GLU796  ALA797  LYS798  CYS799  TRP800  GLU811  SER814 

> <Gold.Protein.RotatedAtoms>
  150.9977  133.6087  159.2699 H   0  0  0  0  0  0  0  0  0  0  0  0  # atno 6907 bound_to 6896
  151.3285  135.0835  159.9340 H   0  0  0  0  0  0  0  0  0  0  0  0  # atno 6908 bound_to 6896
  152.5264  133.9611  159.7771 H   0  0  0  0  0  0  0  0  0  0  0  0  # atno 6909 bound_to 6896
  145.4082  139.2337  143.3262 H   0  0  0  0  0  0  0  0  0  0  0  0  # atno 7974 bound_to 7965
  155.6576  140.3497  155.4770 H   0  0  0  0  0  0  0  0  0  0  0  0  # atno 8008 bound_to 7997
  155.9796  140.1172  157.0762 H   0  0  0  0  0  0  0  0  0  0  0  0  # atno 8009 bound_to 7997
  154.4188  140.1141  156.5403 H   0  0  0  0  0  0  0  0  0  0  0  0  # atno 8010 bound_to 7997
  139.5420  144.2337  152.0914 H   0  0  0  0  0  0  0  0  0  0  0  0  # atno 10167 bound_to 10162
  157.3832  130.7765  149.7209 H   0  0  0  0  0  0  0  0  0  0  0  0  # atno 10718 bound_to 10713
  153.2238  135.6884  153.7969 H   0  0  0  0  0  0  0  0  0  0  0  0  # atno 10763 bound_to 10752
  153.7158  135.3275  155.3257 H   0  0  0  0  0  0  0  0  0  0  0  0  # atno 10764 bound_to 10752
  154.8282  135.4601  154.1097 H   0  0  0  0  0  0  0  0  0  0  0  0  # atno 10765 bound_to 10752
  139.8881  134.9483  156.6275 H   0  0  0  0  0  0  0  0  0  0  0  0  # atno 11005 bound_to 11000
  146.2718  140.4790  142.8811 LP  0  0  0  0  0  0  0  0  0  0  0  0  # atno 17320 bound_to 7965
  144.8327  140.6733  143.6280 LP  0  0  0  0  0  0  0  0  0  0  0  0  # atno 17321 bound_to 7965
  140.1817  144.4838  150.6525 LP  0  0  0  0  0  0  0  0  0  0  0  0  # atno 17342 bound_to 10162
  140.6654  143.2266  151.5756 LP  0  0  0  0  0  0  0  0  0  0  0  0  # atno 17343 bound_to 10162
  155.9780  130.4056  150.3674 LP  0  0  0  0  0  0  0  0  0  0  0  0  # atno 17370 bound_to 10713
  157.1780  131.0385  151.2762 LP  0  0  0  0  0  0  0  0  0  0  0  0  # atno 17371 bound_to 10713
  140.7692  133.8752  155.8478 LP  0  0  0  0  0  0  0  0  0  0  0  0  # atno 17394 bound_to 11000
  140.9856  134.1347  157.4455 LP  0  0  0  0  0  0  0  0  0  0  0  0  # atno 17395 bound_to 11000

$$$$
