AV-unprocessed.smi:473|AV-procd|sdf|2661|dock6
  -GOLD-   2262023 73D 1   1.00000     0.00000
 Structure written by MMmdl.
 42 44  0  0  0  0  0  0  0  0  1 V2000
  152.5354  142.7283  161.4551 C   0  0  0  0  0  0  0  0  0  0  0  0
  152.0003  142.4592  160.0597 C   0  0  0  0  0  0  0  0  0  0  0  0
  152.5358  141.3848  159.3139 C   0  0  0  0  0  0  0  0  0  0  0  0
  152.0637  141.0992  158.0140 C   0  0  0  0  0  0  0  0  0  0  0  0
  152.4372  140.1117  157.1183 N   0  0  0  0  0  0  0  0  0  0  0  0
  151.6355  140.3678  156.0884 C   0  0  0  0  0  0  0  0  0  0  0  0
  150.7860  141.4059  156.2111 N   0  0  0  0  0  0  0  0  0  0  0  0
  149.8241  141.8767  155.2305 C   0  0  0  0  0  0  0  0  0  0  0  0
  149.0470  140.7235  154.5664 C   0  0  2  0  0  0  0  0  0  0  0  0
  149.9027  140.0570  153.6583 O   0  0  0  0  0  0  0  0  0  0  0  0
  147.8142  141.2293  153.8011 C   0  0  0  0  0  0  0  0  0  0  0  0
  147.0538  142.0738  154.6552 O   0  0  0  0  0  0  0  0  0  0  0  0
  146.0274  142.7995  153.9901 C   0  0  0  0  0  0  0  0  0  0  0  0
  144.9885  143.2032  154.9912 C   0  0  0  0  0  0  0  0  0  0  0  0
  143.7837  143.8406  154.8805 C   0  0  0  0  0  0  0  0  0  0  0  0
  143.2493  143.9235  156.1959 C   0  0  0  0  0  0  0  0  0  0  0  0
  144.1641  143.3223  157.0125 C   0  0  0  0  0  0  0  0  0  0  0  0
  145.2284  142.8734  156.2936 O   0  0  0  0  0  0  0  0  0  0  0  0
  151.0342  141.9258  157.4762 C   0  0  0  0  0  0  0  0  0  0  0  0
  150.4943  142.9982  158.2076 C   0  0  0  0  0  0  0  0  0  0  0  0
  150.9763  143.2688  159.5054 C   0  0  0  0  0  0  0  0  0  0  0  0
  150.3840  144.4266  160.2891 C   0  0  0  0  0  0  0  0  0  0  0  0
  153.3150  142.0162  161.7267 H   0  0  0  0  0  0  0  0  0  0  0  0
  151.7366  142.6471  162.1926 H   0  0  0  0  0  0  0  0  0  0  0  0
  152.9619  143.7298  161.5142 H   0  0  0  0  0  0  0  0  0  0  0  0
  153.3151  140.7675  159.7358 H   0  0  0  0  0  0  0  0  0  0  0  0
  151.6656  139.7644  155.1927 H   0  0  0  0  0  0  0  0  0  0  0  0
  149.1344  142.5539  155.7358 H   0  0  0  0  0  0  0  0  0  0  0  0
  150.3485  142.4689  154.4790 H   0  0  0  0  0  0  0  0  0  0  0  0
  148.7318  140.0186  155.3370 H   0  0  0  0  0  0  0  0  0  0  0  0
  149.5694  140.1833  152.7834 H   0  0  0  0  0  0  0  0  0  0  0  0
  148.1407  141.8039  152.9333 H   0  0  0  0  0  0  0  0  0  0  0  0
  147.2124  140.3994  153.4266 H   0  0  0  0  0  0  0  0  0  0  0  0
  146.4289  143.6654  153.4617 H   0  0  0  0  0  0  0  0  0  0  0  0
  145.5740  142.1488  153.2424 H   0  0  0  0  0  0  0  0  0  0  0  0
  143.3425  144.2042  153.9644 H   0  0  0  0  0  0  0  0  0  0  0  0
  142.3130  144.3641  156.5051 H   0  0  0  0  0  0  0  0  0  0  0  0
  144.2130  143.1339  158.0750 H   0  0  0  0  0  0  0  0  0  0  0  0
  149.7137  143.6051  157.7729 H   0  0  0  0  0  0  0  0  0  0  0  0
  149.6270  144.9543  159.7082 H   0  0  0  0  0  0  0  0  0  0  0  0
  151.1597  145.1441  160.5572 H   0  0  0  0  0  0  0  0  0  0  0  0
  149.9131  144.0665  161.2040 H   0  0  0  0  0  0  0  0  0  0  0  0
  1  2  1  0  0  0  0
  1 23  1  0  0  0  0
  1 24  1  0  0  0  0
  1 25  1  0  0  0  0
  2 21  1  0  0  0  0
  2  3  2  0  0  0  0
  3  4  1  0  0  0  0
  3 26  1  0  0  0  0
  4 19  2  0  0  0  0
  4  5  1  0  0  0  0
  5  6  2  0  0  0  0
  6  7  1  0  0  0  0
  6 27  1  0  0  0  0
  7  8  1  0  0  0  0
  7 19  1  0  0  0  0
  8  9  1  0  0  0  0
  8 28  1  0  0  0  0
  8 29  1  0  0  0  0
  9 10  1  0  0  0  0
  9 11  1  0  0  0  0
  9 30  1  0  0  0  0
 10 31  1  0  0  0  0
 11 12  1  0  0  0  0
 11 32  1  0  0  0  0
 11 33  1  0  0  0  0
 12 13  1  0  0  0  0
 13 14  1  0  0  0  0
 13 34  1  0  0  0  0
 13 35  1  0  0  0  0
 14 18  1  0  0  0  0
 14 15  2  0  0  0  0
 15 16  1  0  0  0  0
 15 36  1  0  0  0  0
 16 17  2  0  0  0  0
 16 37  1  0  0  0  0
 17 18  1  0  0  0  0
 17 38  1  0  0  0  0
 19 20  1  0  0  0  0
 20 21  2  0  0  0  0
 20 39  1  0  0  0  0
 21 22  1  0  0  0  0
 22 40  1  0  0  0  0
 22 41  1  0  0  0  0
 22 42  1  0  0  0  0
M  END
> <s_m_source_file>
AV-unprocessed.smi

> <i_m_source_file_index>
473

> <i_lp_mmshare_version>
43012

> <i_f3d_flags>
0

> <s_epik_input>
W0NIM11jKFtjSF0xKWMoW0NIM10pW2NIXWMoYzEyKW4oW2NIXW4yKVtDSDJdW0NASF0oW09IXSlbQ0gyXU9bQ0gyXWMzW2NIXVtjSF1bY0hdbzM=

> <s_epik_cmdline>
J2VwaWtfcHl0aG9uJywgJy1waCcsICc3LjAnLCAnLXRuJywgJzgnLCAnLW1hJywgJzIwMCcsICctbWV0YWxfYmluZGluZycsICctaW1hZScsICc8aW5maWxlLm1hZT4nLCAnLW9tYWUnLCAnPG91dGZpbGUubWFlPic=

> <r_epik_Ionization_Penalty>
0.112477

> <r_epik_Ionization_Penalty_Charging>
0

> <r_epik_Ionization_Penalty_Neutral>
0.112477

> <r_epik_State_Penalty>
0.102177

> <r_epik_Charging_Adjusted_Penalty>
0.102177

> <i_epik_Tot_Q>
0

> <i_epik_Tot_abs_Q>
0

> <r_epik_Metal_State_Penalty>
0.000111506

> <b_epik_Metal_Only>
0

> <s_lp_Force_Field>
OPLS_2005

> <r_lp_Energy>
9.85232

> <b_lp_Chiralities_Consistent>
1

> <s_lp_Variant>
AV-unprocessed.smi:473-1

> <Gold.Version>
5.8.1

> <Gold.Id.Protein>
6NUR|6NUR_protein|mol2

> <Gold.PLP.Fitness>
55.1981

> <Gold.PLP.PLP>
-47.9251

> <Gold.PLP.part.hbond>
-3.0000

> <Gold.PLP.part.metal>
0.0000

> <Gold.PLP.part.buried>
-6.3393

> <Gold.PLP.part.nonpolar>
-38.8530

> <Gold.PLP.part.repulsive>
0.3017

> <Gold.PLP.ligand.clash>
0.0000

> <Gold.PLP.ligand.torsion>
0.4991

> <Gold.PLP.Chemscore.Hbond>
2.7232

> <Gold.PLP.Chemscore.CHOScore>
0.0000

> <Gold.PLP.Chemscore.Metal>
0.0000

> <Gold.Chemscore.Hbonds>
donor molecule, donor type, donor heavy atom, donor atom, acceptor molecule, acceptor atom, score
      L1  H    10    31       P1  7957  1.00
      P1  H  7989  7998       L1    10  0.68
      P1  H  7997  8008       L1     5  1.00

> <Gold.PLP.Chemscore.Internal.Correction>
0.1016

> <Gold.Rescore>
     Score         DG    S(hbond)    S(metal)    S(lipo)     H(rot)  DE(clash)    DE(int)     intcor
     18.02     -19.66       1.83        0.00     121.75       2.41       0.22       1.42       ----

> <Gold.Chemscore.Fitness>
18.0199

> <Gold.Chemscore.DG>
-19.6648

> <Gold.Chemscore.ZeroCoef>
-5.4800

> <Gold.Chemscore.Hbond>
1.8279

> <Gold.Chemscore.Metal>
0.0000

> <Gold.Chemscore.Lipo>
121.7524

> <Gold.Chemscore.Internal_Hbond>
0.0000

> <Gold.Chemscore.DEClash>
0.2202

> <Gold.Chemscore.DEInternal>
1.4247

> <Gold.Chemscore.Rot>
2.4083

> <Gold.Chemscore.Internal.Correction>
   9.000000E+99

> <Gold.Chemscore.Hbonds>
donor molecule, donor type, donor heavy atom, donor atom, acceptor molecule, acceptor atom, score
      L1  H    10    31       P1  7957  0.97
      P1  H  7989  7998       L1    10  0.14
      P1  H  7997  8008       L1     5  0.76

> <Gold.Chemscore.Hbond.Weighted>
-6.1051

> <Gold.Chemscore.Metal.Weighted>
-0.0000

> <Gold.Chemscore.Lipo.Weighted>
-14.2450

> <Gold.Chemscore.Internal_Hbond.Weighted>
0.0000

> <Gold.Chemscore.DEClash.Weighted>
0.2202

> <Gold.Chemscore.DEInternal.Weighted>
1.4247

> <Gold.Chemscore.Rot.Weighted>
6.1653

> <Gold.Chemscore.Internal.Correction.Weighted>
   9.000000E+99

> <Gold.Protein.RotatedTorsions>
[ 6907 6896 6895 6894 ] final -131.29 input  -60.11 | X-H torsion
[ 7974 7965 7964 7962 ] final   82.85 input  175.53 | X-H torsion
[ 8008 7997 7996 7995 ] final  -65.54 input   59.86 | X-H torsion
[ 10167 10162 10161 10158 ] final   91.17 input  -65.29 | X-H torsion
[ 10718 10713 10712 10709 ] final   31.75 input   66.30 | X-H torsion
[ 10763 10752 10751 10750 ] final   41.09 input  -60.55 | X-H torsion
[ 11005 11000 10999 10996 ] final  -84.91 input  -57.11 | X-H torsion

> <Gold.Protein.ActiveResidues>
 VAL166  LYS551  ARG553  GLY616  TRP617  ASP618  TYR619  PRO620  LYS621  CYS622 
 ASP623  PHE694  ASN695  SER759  ASP760  ASP761  ALA762  ILE779  LEU786  VAL792 
 PHE793  MET794  SER795  GLU796  ALA797  LYS798  CYS799  TRP800  GLU811  SER814 

> <Gold.Protein.RotatedAtoms>
  150.9493  133.6567  159.2774 H   0  0  0  0  0  0  0  0  0  0  0  0  # atno 6907 bound_to 6896
  151.3929  135.0957  159.9541 H   0  0  0  0  0  0  0  0  0  0  0  0  # atno 6908 bound_to 6896
  152.5103  133.9004  159.7493 H   0  0  0  0  0  0  0  0  0  0  0  0  # atno 6909 bound_to 6896
  145.6197  139.2383  143.2145 H   0  0  0  0  0  0  0  0  0  0  0  0  # atno 7974 bound_to 7965
  154.4678  140.0931  156.7067 H   0  0  0  0  0  0  0  0  0  0  0  0  # atno 8008 bound_to 7997
  155.4808  140.3467  155.4321 H   0  0  0  0  0  0  0  0  0  0  0  0  # atno 8009 bound_to 7997
  156.0987  140.1416  156.9485 H   0  0  0  0  0  0  0  0  0  0  0  0  # atno 8010 bound_to 7997
  139.8401  144.6645  150.9294 H   0  0  0  0  0  0  0  0  0  0  0  0  # atno 10167 bound_to 10162
  157.2765  130.7234  149.6533 H   0  0  0  0  0  0  0  0  0  0  0  0  # atno 10718 bound_to 10713
  152.9918  135.6172  154.2732 H   0  0  0  0  0  0  0  0  0  0  0  0  # atno 10763 bound_to 10752
  154.2464  135.2787  155.2835 H   0  0  0  0  0  0  0  0  0  0  0  0  # atno 10764 bound_to 10752
  154.5325  135.5784  153.6829 H   0  0  0  0  0  0  0  0  0  0  0  0  # atno 10765 bound_to 10752
  141.1646  133.7371  156.8937 H   0  0  0  0  0  0  0  0  0  0  0  0  # atno 11005 bound_to 11000
  146.1441  140.7017  142.9353 LP  0  0  0  0  0  0  0  0  0  0  0  0  # atno 17320 bound_to 7965
  144.7236  140.4454  143.6990 LP  0  0  0  0  0  0  0  0  0  0  0  0  # atno 17321 bound_to 7965
  140.7799  143.3921  151.1292 LP  0  0  0  0  0  0  0  0  0  0  0  0  # atno 17342 bound_to 10162
  139.7568  143.8695  152.3090 LP  0  0  0  0  0  0  0  0  0  0  0  0  # atno 17343 bound_to 10162
  155.9664  130.4351  150.5078 LP  0  0  0  0  0  0  0  0  0  0  0  0  # atno 17370 bound_to 10713
  157.3013  131.0646  151.2066 LP  0  0  0  0  0  0  0  0  0  0  0  0  # atno 17371 bound_to 10713
  140.1630  134.9152  157.2739 LP  0  0  0  0  0  0  0  0  0  0  0  0  # atno 17394 bound_to 11000
  140.2589  134.3595  155.7414 LP  0  0  0  0  0  0  0  0  0  0  0  0  # atno 17395 bound_to 11000

$$$$
