AV-unprocessed.smi:2588|AV-procd|sdf|10148|dock5
  -GOLD-   2272014163D 1   1.00000     0.00000
 Structure written by MMmdl.
 40 41  0  0  0  0  0  0  0  0  2 V2000
  152.4812  144.7840  158.9063 C   0  0  0  0  0  0  0  0  0  0  0  0
  151.5746  143.7632  159.6264 C   0  0  0  0  0  0  0  0  0  0  0  0
  152.1811  143.4709  161.0156 C   0  0  0  0  0  0  0  0  0  0  0  0
  151.3576  142.5211  158.8128 N   0  3  2  0  0  0  0  0  0  0  0  0
  152.5076  141.5711  158.8777 C   0  0  0  0  0  0  0  0  0  0  0  0
  152.2251  140.2626  158.1208 C   0  0  0  0  0  0  0  0  0  0  0  0
  151.8685  140.5357  156.6554 C   0  0  1  0  0  0  0  0  0  0  0  0
  151.5516  139.2833  155.9758 N   0  0  0  0  0  0  0  0  0  0  0  0
  150.8666  139.1811  154.8263 C   0  0  0  0  0  0  0  0  0  0  0  0
  150.4075  140.1554  154.2285 O   0  0  0  0  0  0  0  0  0  0  0  0
  150.6565  137.7572  154.2932 C   0  0  0  0  0  0  0  0  0  0  0  0
  150.3777  136.7796  155.3464 N   0  0  0  0  0  0  0  0  0  0  0  0
  151.2215  135.7214  155.4816 N   0  0  0  0  0  0  0  0  0  0  0  0
  150.8590  134.9513  156.4398 C   0  0  0  0  0  0  0  0  0  0  0  0
  149.4017  135.4324  157.3186 S   0  0  0  0  0  0  0  0  0  0  0  0
  149.3033  136.8435  156.2296 C   0  0  0  0  0  0  0  0  0  0  0  0
  148.4165  137.6927  156.2961 O   0  0  0  0  0  0  0  0  0  0  0  0
  150.6790  141.5055  156.6121 C   0  0  0  0  0  0  0  0  0  0  0  0
  150.9799  142.7947  157.3943 C   0  0  0  0  0  0  0  0  0  0  0  0
  152.7281  145.6200  159.5615 H   0  0  0  0  0  0  0  0  0  0  0  0
  152.0027  145.2242  158.0325 H   0  0  0  0  0  0  0  0  0  0  0  0
  153.4203  144.3284  158.5901 H   0  0  0  0  0  0  0  0  0  0  0  0
  150.6029  144.2341  159.7850 H   0  0  0  0  0  0  0  0  0  0  0  0
  152.4477  144.3948  161.5302 H   0  0  0  0  0  0  0  0  0  0  0  0
  153.0863  142.8677  160.9375 H   0  0  0  0  0  0  0  0  0  0  0  0
  151.4805  142.9565  161.6727 H   0  0  0  0  0  0  0  0  0  0  0  0
  153.4004  142.0517  158.4741 H   0  0  0  0  0  0  0  0  0  0  0  0
  152.7318  141.2993  159.9073 H   0  0  0  0  0  0  0  0  0  0  0  0
  153.0986  139.6117  158.1770 H   0  0  0  0  0  0  0  0  0  0  0  0
  151.4094  139.7287  158.6111 H   0  0  0  0  0  0  0  0  0  0  0  0
  152.7303  140.9979  156.1692 H   0  0  0  0  0  0  0  0  0  0  0  0
  151.8873  138.4320  156.4030 H   0  0  0  0  0  0  0  0  0  0  0  0
  149.8287  137.7545  153.5821 H   0  0  0  0  0  0  0  0  0  0  0  0
  151.5448  137.4628  153.7321 H   0  0  0  0  0  0  0  0  0  0  0  0
  151.3622  134.0381  156.7569 H   0  0  0  0  0  0  0  0  0  0  0  0
  150.4354  141.7574  155.5793 H   0  0  0  0  0  0  0  0  0  0  0  0
  149.7923  141.0255  157.0294 H   0  0  0  0  0  0  0  0  0  0  0  0
  150.0828  143.4088  157.3410 H   0  0  0  0  0  0  0  0  0  0  0  0
  151.7800  143.3528  156.9054 H   0  0  0  0  0  0  0  0  0  0  0  0
  150.5692  142.0451  159.2276 H   0  0  0  0  0  0  0  0  0  0  0  0
  1  2  1  0  0  0  0
  1 20  1  0  0  0  0
  1 21  1  0  0  0  0
  1 22  1  0  0  0  0
  2  3  1  0  0  0  0
  2  4  1  0  0  0  0
  2 23  1  0  0  0  0
  3 24  1  0  0  0  0
  3 25  1  0  0  0  0
  3 26  1  0  0  0  0
  4 19  1  0  0  0  0
  4  5  1  0  0  0  0
  4 40  1  0  0  0  0
  5  6  1  0  0  0  0
  5 27  1  0  0  0  0
  5 28  1  0  0  0  0
  6  7  1  0  0  0  0
  6 29  1  0  0  0  0
  6 30  1  0  0  0  0
  7  8  1  0  0  0  0
  7 18  1  0  0  0  0
  7 31  1  0  0  0  0
  8  9  1  0  0  0  0
  8 32  1  0  0  0  0
  9 10  2  0  0  0  0
  9 11  1  0  0  0  0
 11 12  1  0  0  0  0
 11 33  1  0  0  0  0
 11 34  1  0  0  0  0
 12 16  1  0  0  0  0
 12 13  1  0  0  0  0
 13 14  2  0  0  0  0
 14 15  1  0  0  0  0
 14 35  1  0  0  0  0
 15 16  1  0  0  0  0
 16 17  2  0  0  0  0
 18 19  1  0  0  0  0
 18 36  1  0  0  0  0
 18 37  1  0  0  0  0
 19 38  1  0  0  0  0
 19 39  1  0  0  0  0
M  CHG  1   4   1
M  END
> <s_m_source_file>
AV-unprocessed.smi

> <i_m_source_file_index>
2588

> <i_lp_mmshare_version>
43012

> <i_f3d_flags>
0

> <s_epik_input>
W0NIM11bQ0hdKFtDSDNdKU4xW0NIMl1bQ0gyXVtDSF0oW0NIMl1bQ0gyXTEpW05IXUMoPU8pW0NIMl1uMm5bY0hdc2MyPU8=

> <s_epik_cmdline>
J2VwaWtfcHl0aG9uJywgJy1waCcsICc3LjAnLCAnLXRuJywgJzgnLCAnLW1hJywgJzIwMCcsICctbWV0YWxfYmluZGluZycsICctaW1hZScsICc8aW5maWxlLm1hZT4nLCAnLW9tYWUnLCAnPG91dGZpbGUubWFlPic=

> <r_lp_tautomer_probability>
1

> <r_epik_Ionization_Penalty>
0.00923155

> <r_epik_Ionization_Penalty_Charging>
0.00923117

> <r_epik_Ionization_Penalty_Neutral>
3.88423e-07

> <r_epik_State_Penalty>
0.0069994

> <r_epik_Charging_Adjusted_Penalty>
0.0162306

> <i_epik_Tot_Q>
1

> <i_epik_Tot_abs_Q>
1

> <r_epik_Metal_State_Penalty>
0.0069994

> <b_epik_Metal_Only>
0

> <s_lp_Force_Field>
OPLS_2005

> <r_lp_Energy>
22.17

> <b_lp_Chiralities_Consistent>
1

> <s_lp_Variant>
AV-unprocessed.smi:2588-1

> <Gold.Version>
5.8.1

> <Gold.Id.Protein>
6NUR|6NUR_protein|mol2

> <Gold.PLP.Fitness>
39.2041

> <Gold.PLP.PLP>
-34.6884

> <Gold.PLP.part.hbond>
-2.0000

> <Gold.PLP.part.metal>
0.0000

> <Gold.PLP.part.buried>
-5.7780

> <Gold.PLP.part.nonpolar>
-28.0900

> <Gold.PLP.part.repulsive>
0.3983

> <Gold.PLP.ligand.clash>
0.0000

> <Gold.PLP.ligand.torsion>
0.7674

> <Gold.PLP.Chemscore.Hbond>
2.0000

> <Gold.PLP.Chemscore.CHOScore>
0.0000

> <Gold.PLP.Chemscore.Metal>
0.0000

> <Gold.Chemscore.Hbonds>
donor molecule, donor type, donor heavy atom, donor atom, acceptor molecule, acceptor atom, score
      P1  H  7989  7998       L1    10  1.00
      P1  H 10752 10763       L1    13  1.00

> <Gold.PLP.Chemscore.Internal.Correction>
0.0506

> <Gold.Rescore>
     Score         DG    S(hbond)    S(metal)    S(lipo)     H(rot)  DE(clash)    DE(int)     intcor
     15.27     -17.32       1.86        0.00      89.07       1.88       0.03       2.01       ----

> <Gold.Chemscore.Fitness>
15.2737

> <Gold.Chemscore.DG>
-17.3152

> <Gold.Chemscore.ZeroCoef>
-5.4800

> <Gold.Chemscore.Hbond>
1.8608

> <Gold.Chemscore.Metal>
0.0000

> <Gold.Chemscore.Lipo>
89.0742

> <Gold.Chemscore.Internal_Hbond>
0.0000

> <Gold.Chemscore.DEClash>
0.0275

> <Gold.Chemscore.DEInternal>
2.0140

> <Gold.Chemscore.Rot>
1.8756

> <Gold.Chemscore.Internal.Correction>
   9.000000E+99

> <Gold.Chemscore.Hbonds>
donor molecule, donor type, donor heavy atom, donor atom, acceptor molecule, acceptor atom, score
      P1  H  7989  7998       L1    10  0.63
      P1  H 10752 10763       L1    13  0.98

> <Gold.Chemscore.Hbond.Weighted>
-6.2151

> <Gold.Chemscore.Metal.Weighted>
-0.0000

> <Gold.Chemscore.Lipo.Weighted>
-10.4217

> <Gold.Chemscore.Internal_Hbond.Weighted>
0.0000

> <Gold.Chemscore.DEClash.Weighted>
0.0275

> <Gold.Chemscore.DEInternal.Weighted>
2.0140

> <Gold.Chemscore.Rot.Weighted>
4.8015

> <Gold.Chemscore.Internal.Correction.Weighted>
   9.000000E+99

> <Gold.Protein.RotatedTorsions>
[ 6907 6896 6895 6894 ] final  158.69 input  -60.11 | X-H torsion
[ 7974 7965 7964 7962 ] final -104.90 input  175.53 | X-H torsion
[ 8008 7997 7996 7995 ] final  152.63 input   59.86 | X-H torsion
[ 10167 10162 10161 10158 ] final  157.21 input  -65.29 | X-H torsion
[ 10718 10713 10712 10709 ] final -114.23 input   66.30 | X-H torsion
[ 10763 10752 10751 10750 ] final   64.59 input  -60.55 | X-H torsion
[ 11005 11000 10999 10996 ] final -141.67 input  -57.11 | X-H torsion

> <Gold.Protein.ActiveResidues>
 VAL166  LYS551  ARG553  GLY616  TRP617  ASP618  TYR619  PRO620  LYS621  CYS622 
 ASP623  PHE694  ASN695  SER759  ASP760  ASP761  ALA762  ILE779  LEU786  VAL792 
 PHE793  MET794  SER795  GLU796  ALA797  LYS798  CYS799  TRP800  GLU811  SER814 

> <Gold.Protein.RotatedAtoms>
  151.9967  133.3810  159.4165 H   0  0  0  0  0  0  0  0  0  0  0  0  # atno 6907 bound_to 6896
  150.6915  134.3878  159.5072 H   0  0  0  0  0  0  0  0  0  0  0  0  # atno 6908 bound_to 6896
  152.1619  134.8905  160.0591 H   0  0  0  0  0  0  0  0  0  0  0  0  # atno 6909 bound_to 6896
  145.2373  140.9192  143.3170 H   0  0  0  0  0  0  0  0  0  0  0  0  # atno 7974 bound_to 7965
  156.2620  140.2015  156.6363 H   0  0  0  0  0  0  0  0  0  0  0  0  # atno 8008 bound_to 7997
  154.6644  140.0557  157.0122 H   0  0  0  0  0  0  0  0  0  0  0  0  # atno 8009 bound_to 7997
  155.1229  140.3226  155.4496 H   0  0  0  0  0  0  0  0  0  0  0  0  # atno 8010 bound_to 7997
  139.4822  144.4938  151.8269 H   0  0  0  0  0  0  0  0  0  0  0  0  # atno 10167 bound_to 10162
  156.0816  130.6015  150.8747 H   0  0  0  0  0  0  0  0  0  0  0  0  # atno 10718 bound_to 10713
  153.0062  135.5387  154.6534 H   0  0  0  0  0  0  0  0  0  0  0  0  # atno 10763 bound_to 10752
  154.5761  135.2846  155.0782 H   0  0  0  0  0  0  0  0  0  0  0  0  # atno 10764 bound_to 10752
  154.1929  135.6497  153.5117 H   0  0  0  0  0  0  0  0  0  0  0  0  # atno 10765 bound_to 10752
  140.8302  134.2526  157.4860 H   0  0  0  0  0  0  0  0  0  0  0  0  # atno 11005 bound_to 11000
  144.9621  139.3969  143.6350 LP  0  0  0  0  0  0  0  0  0  0  0  0  # atno 17320 bound_to 7965
  146.3337  139.8679  142.8845 LP  0  0  0  0  0  0  0  0  0  0  0  0  # atno 17321 bound_to 7965
  140.4425  144.1967  150.5892 LP  0  0  0  0  0  0  0  0  0  0  0  0  # atno 17342 bound_to 10162
  140.4669  143.2427  151.9143 LP  0  0  0  0  0  0  0  0  0  0  0  0  # atno 17343 bound_to 10162
  157.5935  131.0944  150.9079 LP  0  0  0  0  0  0  0  0  0  0  0  0  # atno 17370 bound_to 10713
  156.9250  130.5329  149.5279 LP  0  0  0  0  0  0  0  0  0  0  0  0  # atno 17371 bound_to 10713
  139.8705  134.9582  156.4292 LP  0  0  0  0  0  0  0  0  0  0  0  0  # atno 17394 bound_to 11000
  140.9006  133.7782  155.9676 LP  0  0  0  0  0  0  0  0  0  0  0  0  # atno 17395 bound_to 11000

$$$$
