AV-unprocessed.smi:2845|AV-procd|sdf|10949|dock2
  -GOLD-   2272015403D 1   1.00000     0.00000
 Structure written by MMmdl.
 43 45  0  0  0  0  0  0  0  0  2 V2000
  152.3089  143.4680  159.9323 C   0  0  0  0  0  0  0  0  0  0  0  0
  151.9570  142.5856  158.7468 C   0  0  0  0  0  0  0  0  0  0  0  0
  150.9874  143.0460  157.8275 C   0  0  0  0  0  0  0  0  0  0  0  0
  150.6856  142.2155  156.7547 C   0  0  0  0  0  0  0  0  0  0  0  0
  149.7876  142.3776  155.6976 N   0  3  0  0  0  0  0  0  0  0  0  0
  149.8403  141.2862  154.8849 C   0  0  0  0  0  0  0  0  0  0  0  0
  150.7601  140.4298  155.4061 N   0  0  0  0  0  0  0  0  0  0  0  0
  151.2005  139.1147  154.9181 C   0  0  0  0  0  0  0  0  0  0  0  0
  151.0632  138.0027  155.9762 C   0  0  2  0  0  0  0  0  0  0  0  0
  151.5260  136.7733  155.4491 O   0  0  0  0  0  0  0  0  0  0  0  0
  149.6077  137.8496  156.4582 C   0  0  0  0  0  0  0  0  0  0  0  0
  149.5211  137.4010  157.8364 N   0  0  0  0  0  0  0  0  0  0  0  0
  150.4787  137.2124  158.7491 C   0  0  0  0  0  0  0  0  0  0  0  0
  150.0302  136.7786  159.9199 N   0  0  0  0  0  0  0  0  0  0  0  0
  148.6979  136.7255  159.6305 C   0  0  0  0  0  0  0  0  0  0  0  0
  147.4801  136.1704  160.8641 S   0  0  2  0  0  0  0  0  0  0  0  0
  145.9911  136.5156  159.8138 C   0  0  0  0  0  0  0  0  0  0  0  0
  147.4968  137.2219  161.9753 O   0  0  0  0  0  0  0  0  0  0  0  0
  148.3321  137.0843  158.4015 N   0  0  0  0  0  0  0  0  0  0  0  0
  151.3127  140.9673  156.5752 C   0  0  0  0  0  0  0  0  0  0  0  0
  152.2698  140.4988  157.4725 C   0  0  0  0  0  0  0  0  0  0  0  0
  152.5888  141.3272  158.5721 C   0  0  0  0  0  0  0  0  0  0  0  0
  153.6258  140.8391  159.5693 C   0  0  0  0  0  0  0  0  0  0  0  0
  151.7553  144.4071  159.9093 H   0  0  0  0  0  0  0  0  0  0  0  0
  153.3721  143.7090  159.9287 H   0  0  0  0  0  0  0  0  0  0  0  0
  152.0707  142.9632  160.8689 H   0  0  0  0  0  0  0  0  0  0  0  0
  150.5008  144.0020  157.9551 H   0  0  0  0  0  0  0  0  0  0  0  0
  149.2582  141.1293  153.9883 H   0  0  0  0  0  0  0  0  0  0  0  0
  150.5862  138.8753  154.0493 H   0  0  0  0  0  0  0  0  0  0  0  0
  152.2251  139.1912  154.5531 H   0  0  0  0  0  0  0  0  0  0  0  0
  151.6933  138.2510  156.8313 H   0  0  0  0  0  0  0  0  0  0  0  0
  150.8018  136.1660  155.4244 H   0  0  0  0  0  0  0  0  0  0  0  0
  149.0863  138.8046  156.3822 H   0  0  0  0  0  0  0  0  0  0  0  0
  149.0649  137.1473  155.8233 H   0  0  0  0  0  0  0  0  0  0  0  0
  151.5254  137.3922  158.5512 H   0  0  0  0  0  0  0  0  0  0  0  0
  146.2135  136.3599  158.7579 H   0  0  0  0  0  0  0  0  0  0  0  0
  145.6637  137.5460  159.9514 H   0  0  0  0  0  0  0  0  0  0  0  0
  145.1738  135.8518  160.0942 H   0  0  0  0  0  0  0  0  0  0  0  0
  152.7467  139.5384  157.3440 H   0  0  0  0  0  0  0  0  0  0  0  0
  153.9994  139.8492  159.3049 H   0  0  0  0  0  0  0  0  0  0  0  0
  153.1959  140.7758  160.5691 H   0  0  0  0  0  0  0  0  0  0  0  0
  154.4773  141.5193  159.5998 H   0  0  0  0  0  0  0  0  0  0  0  0
  149.1818  143.1729  155.5407 H   0  0  0  0  0  0  0  0  0  0  0  0
  1  2  1  0  0  0  0
  1 24  1  0  0  0  0
  1 25  1  0  0  0  0
  1 26  1  0  0  0  0
  2 22  1  0  0  0  0
  2  3  2  0  0  0  0
  3  4  1  0  0  0  0
  3 27  1  0  0  0  0
  4 20  2  0  0  0  0
  4  5  1  0  0  0  0
  5  6  2  0  0  0  0
  5 43  1  0  0  0  0
  6  7  1  0  0  0  0
  6 28  1  0  0  0  0
  7  8  1  0  0  0  0
  7 20  1  0  0  0  0
  8  9  1  0  0  0  0
  8 29  1  0  0  0  0
  8 30  1  0  0  0  0
  9 10  1  0  0  0  0
  9 11  1  0  0  0  0
  9 31  1  0  0  0  0
 10 32  1  0  0  0  0
 11 12  1  0  0  0  0
 11 33  1  0  0  0  0
 11 34  1  0  0  0  0
 12 19  1  0  0  0  0
 12 13  1  0  0  0  0
 13 14  2  0  0  0  0
 13 35  1  0  0  0  0
 14 15  1  0  0  0  0
 15 16  1  0  0  0  0
 15 19  2  0  0  0  0
 16 17  1  0  0  0  0
 16 18  2  0  0  0  0
 17 36  1  0  0  0  0
 17 37  1  0  0  0  0
 17 38  1  0  0  0  0
 20 21  1  0  0  0  0
 21 22  2  0  0  0  0
 21 39  1  0  0  0  0
 22 23  1  0  0  0  0
 23 40  1  0  0  0  0
 23 41  1  0  0  0  0
 23 42  1  0  0  0  0
M  CHG  1   5   1
M  END
> <s_m_source_file>
AV-unprocessed.smi

> <i_m_source_file_index>
2845

> <i_lp_mmshare_version>
43012

> <i_f3d_flags>
0

> <s_epik_input>
W0NIM11jKFtjSF0xKWMoW0NIM10pW2NIXWMoYzEyKW4oW2NIXW4yKVtDSDJdW0NASF0oW09IXSlbQ0gyXW4zW2NIXW5jKG4zKVtTQF0oPU8pW0NIM10=

> <s_epik_cmdline>
J2VwaWtfcHl0aG9uJywgJy1waCcsICc3LjAnLCAnLXRuJywgJzgnLCAnLW1hJywgJzIwMCcsICctbWV0YWxfYmluZGluZycsICctaW1hZScsICc8aW5maWxlLm1hZT4nLCAnLW9tYWUnLCAnPG91dGZpbGUubWFlPic=

> <r_lp_tautomer_probability>
1

> <r_epik_Ionization_Penalty>
1.12076

> <r_epik_Ionization_Penalty_Charging>
1.12075

> <r_epik_Ionization_Penalty_Neutral>
1.54566e-06

> <r_epik_State_Penalty>
1.17957

> <r_epik_Charging_Adjusted_Penalty>
2.30033

> <i_epik_Tot_Q>
1

> <i_epik_Tot_abs_Q>
1

> <r_epik_Metal_State_Penalty>
1.26402

> <b_epik_Metal_Only>
0

> <s_lp_Force_Field>
OPLS_2005

> <r_lp_Energy>
14.9183

> <b_lp_Chiralities_Consistent>
1

> <s_lp_Variant>
AV-unprocessed.smi:2845-7

> <Gold.Version>
5.8.1

> <Gold.Id.Protein>
6NUR|6NUR_protein|mol2

> <Gold.PLP.Fitness>
53.7622

> <Gold.PLP.PLP>
-38.9700

> <Gold.PLP.part.hbond>
-5.2520

> <Gold.PLP.part.metal>
0.0000

> <Gold.PLP.part.buried>
-1.5349

> <Gold.PLP.part.nonpolar>
-30.9430

> <Gold.PLP.part.repulsive>
0.1664

> <Gold.PLP.ligand.clash>
0.0000

> <Gold.PLP.ligand.torsion>
1.0543

> <Gold.PLP.Chemscore.Hbond>
5.2750

> <Gold.PLP.Chemscore.CHOScore>
0.0000

> <Gold.PLP.Chemscore.Metal>
0.0000

> <Gold.Chemscore.Hbonds>
donor molecule, donor type, donor heavy atom, donor atom, acceptor molecule, acceptor atom, score
      L1  H     5    43       P1  8028  2.00
      P1  H  6896  6909       L1    14  0.71
      P1  H  6931  6943       L1    18  0.91
      P1  H  6934  6947       L1    18  0.58
      P1  H 10752 10763       L1    10  1.00

> <Gold.PLP.Chemscore.Internal.Correction>
1.0757

> <Gold.Rescore>
     Score         DG    S(hbond)    S(metal)    S(lipo)     H(rot)  DE(clash)    DE(int)     intcor
     17.66     -18.67       3.08        0.00      85.43       2.77       0.08       0.92       ----

> <Gold.Chemscore.Fitness>
17.6635

> <Gold.Chemscore.DG>
-18.6687

> <Gold.Chemscore.ZeroCoef>
-5.4800

> <Gold.Chemscore.Hbond>
3.0777

> <Gold.Chemscore.Metal>
0.0000

> <Gold.Chemscore.Lipo>
85.4325

> <Gold.Chemscore.Internal_Hbond>
0.0000

> <Gold.Chemscore.DEClash>
0.0821

> <Gold.Chemscore.DEInternal>
0.9232

> <Gold.Chemscore.Rot>
2.7681

> <Gold.Chemscore.Internal.Correction>
   9.000000E+99

> <Gold.Chemscore.Hbonds>
donor molecule, donor type, donor heavy atom, donor atom, acceptor molecule, acceptor atom, score
      L1  H     5    43       P1  8028  0.93
      P1  H  6896  6909       L1    14  0.07
      P1  H  6931  6943       L1    18  0.74
      P1  H  6934  6947       L1    18  0.25
      P1  H 10752 10763       L1    10  0.24

> <Gold.Chemscore.Hbond.Weighted>
-10.2794

> <Gold.Chemscore.Metal.Weighted>
-0.0000

> <Gold.Chemscore.Lipo.Weighted>
-9.9956

> <Gold.Chemscore.Internal_Hbond.Weighted>
0.0000

> <Gold.Chemscore.DEClash.Weighted>
0.0821

> <Gold.Chemscore.DEInternal.Weighted>
0.9232

> <Gold.Chemscore.Rot.Weighted>
7.0863

> <Gold.Chemscore.Internal.Correction.Weighted>
   9.000000E+99

> <Gold.Protein.RotatedTorsions>
[ 6907 6896 6895 6894 ] final   73.98 input  -60.11 | X-H torsion
[ 7974 7965 7964 7962 ] final  -80.39 input  175.53 | X-H torsion
[ 8008 7997 7996 7995 ] final -176.92 input   59.86 | X-H torsion
[ 10167 10162 10161 10158 ] final   59.84 input  -65.29 | X-H torsion
[ 10718 10713 10712 10709 ] final   -0.67 input   66.30 | X-H torsion
[ 10763 10752 10751 10750 ] final   76.17 input  -60.55 | X-H torsion
[ 11005 11000 10999 10996 ] final  119.07 input  -57.11 | X-H torsion

> <Gold.Protein.ActiveResidues>
 VAL166  LYS551  ARG553  GLY616  TRP617  ASP618  TYR619  PRO620  LYS621  CYS622 
 ASP623  PHE694  ASN695  SER759  ASP760  ASP761  ALA762  ILE779  LEU786  VAL792 
 PHE793  MET794  SER795  GLU796  ALA797  LYS798  CYS799  TRP800  GLU811  SER814 

> <Gold.Protein.RotatedAtoms>
  152.4952  134.4340  159.9521 H   0  0  0  0  0  0  0  0  0  0  0  0  # atno 6907 bound_to 6896
  151.4319  133.3661  159.2778 H   0  0  0  0  0  0  0  0  0  0  0  0  # atno 6908 bound_to 6896
  150.9148  134.8589  159.7509 H   0  0  0  0  0  0  0  0  0  0  0  0  # atno 6909 bound_to 6896
  145.5606  140.9482  143.1449 H   0  0  0  0  0  0  0  0  0  0  0  0  # atno 7974 bound_to 7965
  156.0007  140.1220  157.0550 H   0  0  0  0  0  0  0  0  0  0  0  0  # atno 8008 bound_to 7997
  154.4241  140.1107  156.5761 H   0  0  0  0  0  0  0  0  0  0  0  0  # atno 8009 bound_to 7997
  155.6217  140.3472  155.4656 H   0  0  0  0  0  0  0  0  0  0  0  0  # atno 8010 bound_to 7997
  140.1720  144.4267  150.6656 H   0  0  0  0  0  0  0  0  0  0  0  0  # atno 10167 bound_to 10162
  156.8169  130.5443  149.5702 H   0  0  0  0  0  0  0  0  0  0  0  0  # atno 10718 bound_to 10713
  153.0706  135.4961  154.8297 H   0  0  0  0  0  0  0  0  0  0  0  0  # atno 10763 bound_to 10752
  154.7017  135.3003  154.9333 H   0  0  0  0  0  0  0  0  0  0  0  0  # atno 10764 bound_to 10752
  154.0054  135.6761  153.4814 H   0  0  0  0  0  0  0  0  0  0  0  0  # atno 10765 bound_to 10752
  139.9133  134.9625  156.7600 H   0  0  0  0  0  0  0  0  0  0  0  0  # atno 11005 bound_to 11000
  144.7485  139.7256  143.7282 LP  0  0  0  0  0  0  0  0  0  0  0  0  # atno 17320 bound_to 7965
  146.1854  139.5067  142.9839 LP  0  0  0  0  0  0  0  0  0  0  0  0  # atno 17321 bound_to 7965
  140.6576  143.2242  151.5933 LP  0  0  0  0  0  0  0  0  0  0  0  0  # atno 17342 bound_to 10162
  139.5333  144.2852  152.1197 LP  0  0  0  0  0  0  0  0  0  0  0  0  # atno 17343 bound_to 10162
  156.1011  130.5970  150.9896 LP  0  0  0  0  0  0  0  0  0  0  0  0  # atno 17370 bound_to 10713
  157.6477  131.0901  150.8118 LP  0  0  0  0  0  0  0  0  0  0  0  0  # atno 17371 bound_to 10713
  140.6705  133.9564  155.7854 LP  0  0  0  0  0  0  0  0  0  0  0  0  # atno 17394 bound_to 11000
  141.0581  134.0387  157.3696 LP  0  0  0  0  0  0  0  0  0  0  0  0  # atno 17395 bound_to 11000

$$$$
