AV-unprocessed.smi:819|AV-procd|sdf|3834|dock9
  -GOLD-   22720 1273D 1   1.00000     0.00000
 Structure written by MMmdl.
 40 41  0  0  0  0  0  0  0  0  1 V2000
  147.9006  135.7108  156.4790 C   0  0  0  0  0  0  0  0  0  0  0  0
  147.6028  136.7165  155.3540 C   0  0  2  0  0  0  0  0  0  0  0  0
  147.5603  135.9873  154.0876 N   0  0  0  0  0  0  0  0  0  0  0  0
  146.4845  135.3477  153.6036 C   0  0  0  0  0  0  0  0  0  0  0  0
  145.4100  135.2833  154.2009 O   0  0  0  0  0  0  0  0  0  0  0  0
  146.7342  134.8223  152.3921 N   0  0  0  0  0  0  0  0  0  0  0  0
  145.8539  134.0909  151.5495 C   0  0  0  0  0  0  0  0  0  0  0  0
  144.4800  134.4043  151.5975 C   0  0  0  0  0  0  0  0  0  0  0  0
  143.5871  133.7057  150.7627 C   0  0  0  0  0  0  0  0  0  0  0  0
  144.1075  132.7215  149.9005 C   0  0  0  0  0  0  0  0  0  0  0  0
  145.4208  132.4194  149.8298 N   0  0  0  0  0  0  0  0  0  0  0  0
  146.2717  133.0923  150.6346 C   0  0  0  0  0  0  0  0  0  0  0  0
  148.7267  137.7639  155.3202 C   0  0  0  0  0  0  0  0  0  0  0  0
  148.9164  138.5091  156.2829 O   0  0  0  0  0  0  0  0  0  0  0  0
  149.4671  137.8021  154.2024 N   0  0  0  0  0  0  0  0  0  0  0  0
  150.6052  138.6887  153.9782 C   0  0  0  0  0  0  0  0  0  0  0  0
  151.7096  138.4352  155.0225 C   0  0  0  0  0  0  0  0  0  0  0  0
  152.1157  139.8115  155.5524 C   0  0  0  0  0  0  0  0  0  0  0  0
  150.8482  140.6510  155.4312 C   0  0  0  0  0  0  0  0  0  0  0  0
  150.2062  140.1715  154.1293 C   0  0  0  0  0  0  0  0  0  0  0  0
  147.9539  136.2071  157.4489 H   0  0  0  0  0  0  0  0  0  0  0  0
  148.8452  135.1878  156.3203 H   0  0  0  0  0  0  0  0  0  0  0  0
  147.1151  134.9573  156.5443 H   0  0  0  0  0  0  0  0  0  0  0  0
  146.6394  137.1954  155.5405 H   0  0  0  0  0  0  0  0  0  0  0  0
  148.4002  135.9996  153.5280 H   0  0  0  0  0  0  0  0  0  0  0  0
  147.6399  135.0292  151.9972 H   0  0  0  0  0  0  0  0  0  0  0  0
  144.1112  135.1666  152.2684 H   0  0  0  0  0  0  0  0  0  0  0  0
  142.5287  133.9196  150.7821 H   0  0  0  0  0  0  0  0  0  0  0  0
  143.4522  132.1662  149.2458 H   0  0  0  0  0  0  0  0  0  0  0  0
  147.3096  132.8245  150.5138 H   0  0  0  0  0  0  0  0  0  0  0  0
  149.2428  137.1514  153.4636 H   0  0  0  0  0  0  0  0  0  0  0  0
  151.0055  138.5189  152.9768 H   0  0  0  0  0  0  0  0  0  0  0  0
  151.3260  137.8381  155.8514 H   0  0  0  0  0  0  0  0  0  0  0  0
  152.5579  137.8937  154.6024 H   0  0  0  0  0  0  0  0  0  0  0  0
  152.4986  139.7728  156.5726 H   0  0  0  0  0  0  0  0  0  0  0  0
  152.8962  140.2342  154.9186 H   0  0  0  0  0  0  0  0  0  0  0  0
  150.1838  140.4372  156.2696 H   0  0  0  0  0  0  0  0  0  0  0  0
  151.0504  141.7224  155.4301 H   0  0  0  0  0  0  0  0  0  0  0  0
  150.6185  140.7399  153.2949 H   0  0  0  0  0  0  0  0  0  0  0  0
  149.1279  140.3373  154.1246 H   0  0  0  0  0  0  0  0  0  0  0  0
  1  2  1  0  0  0  0
  1 21  1  0  0  0  0
  1 22  1  0  0  0  0
  1 23  1  0  0  0  0
  2  3  1  0  0  0  0
  2 13  1  0  0  0  0
  2 24  1  0  0  0  0
  3  4  1  0  0  0  0
  3 25  1  0  0  0  0
  4  5  2  0  0  0  0
  4  6  1  0  0  0  0
  6  7  1  0  0  0  0
  6 26  1  0  0  0  0
  7 12  1  0  0  0  0
  7  8  2  0  0  0  0
  8  9  1  0  0  0  0
  8 27  1  0  0  0  0
  9 10  2  0  0  0  0
  9 28  1  0  0  0  0
 10 11  1  0  0  0  0
 10 29  1  0  0  0  0
 11 12  2  0  0  0  0
 12 30  1  0  0  0  0
 13 14  2  0  0  0  0
 13 15  1  0  0  0  0
 15 16  1  0  0  0  0
 15 31  1  0  0  0  0
 16 20  1  0  0  0  0
 16 17  1  0  0  0  0
 16 32  1  0  0  0  0
 17 18  1  0  0  0  0
 17 33  1  0  0  0  0
 17 34  1  0  0  0  0
 18 19  1  0  0  0  0
 18 35  1  0  0  0  0
 18 36  1  0  0  0  0
 19 20  1  0  0  0  0
 19 37  1  0  0  0  0
 19 38  1  0  0  0  0
 20 39  1  0  0  0  0
 20 40  1  0  0  0  0
M  END
> <s_m_source_file>
AV-unprocessed.smi

> <i_m_source_file_index>
819

> <i_lp_mmshare_version>
43012

> <i_f3d_flags>
0

> <s_epik_input>
W0NIMl0xW0NIMl1bQ0gyXVtDSDJdW0NIXTFbTkhdQyg9TylbQ0BIXShbQ0gzXSlbTkhdQyg9TylbTkhdYzJbY0hdW2NIXVtjSF1uW2NIXTI=

> <s_epik_cmdline>
J2VwaWtfcHl0aG9uJywgJy1waCcsICc3LjAnLCAnLXRuJywgJzgnLCAnLW1hJywgJzIwMCcsICctbWV0YWxfYmluZGluZycsICctaW1hZScsICc8aW5maWxlLm1hZT4nLCAnLW9tYWUnLCAnPG91dGZpbGUubWFlPic=

> <r_epik_Ionization_Penalty>
0.00416979

> <r_epik_Ionization_Penalty_Charging>
0

> <r_epik_Ionization_Penalty_Neutral>
0.00416979

> <r_epik_State_Penalty>
0.00297037

> <r_epik_Charging_Adjusted_Penalty>
0.00297037

> <i_epik_Tot_Q>
0

> <i_epik_Tot_abs_Q>
0

> <r_epik_Metal_State_Penalty>
-0

> <b_epik_Metal_Only>
0

> <s_lp_Force_Field>
OPLS_2005

> <r_lp_Energy>
20.2836

> <b_lp_Chiralities_Consistent>
1

> <s_lp_Variant>
AV-unprocessed.smi:819-1

> <Gold.Version>
5.8.1

> <Gold.Id.Protein>
6NUR|6NUR_protein|mol2

> <Gold.PLP.Fitness>
43.6519

> <Gold.PLP.PLP>
-32.9029

> <Gold.PLP.part.hbond>
-3.0000

> <Gold.PLP.part.metal>
0.0000

> <Gold.PLP.part.buried>
-3.6509

> <Gold.PLP.part.nonpolar>
-26.0698

> <Gold.PLP.part.repulsive>
0.2361

> <Gold.PLP.ligand.clash>
0.0000

> <Gold.PLP.ligand.torsion>
0.5506

> <Gold.PLP.Chemscore.Hbond>
2.9760

> <Gold.PLP.Chemscore.CHOScore>
0.9711

> <Gold.PLP.Chemscore.Metal>
0.0000

> <Gold.Chemscore.Hbonds>
donor molecule, donor type, donor heavy atom, donor atom, acceptor molecule, acceptor atom, score
      L1  H     3    25       P1  7948  0.85
      L1  H     6    26       P1  7948  0.96
      L1  H    15    31       P1  7948  1.00
      L1  C    12    30       P1 10747  0.88

> <Gold.PLP.Chemscore.Internal.Correction>
0.0089

> <Gold.Rescore>
     Score         DG    S(hbond)    S(metal)    S(lipo)     H(rot)  DE(clash)    DE(int)     intcor
     16.16     -20.22       2.90        0.00      76.57       1.52       0.01       4.05       ----

> <Gold.Chemscore.Fitness>
16.1632

> <Gold.Chemscore.DG>
-20.2241

> <Gold.Chemscore.ZeroCoef>
-5.4800

> <Gold.Chemscore.Hbond>
2.8992

> <Gold.Chemscore.Metal>
0.0000

> <Gold.Chemscore.Lipo>
76.5697

> <Gold.Chemscore.Internal_Hbond>
0.0000

> <Gold.Chemscore.DEClash>
0.0144

> <Gold.Chemscore.DEInternal>
4.0465

> <Gold.Chemscore.Rot>
1.5225

> <Gold.Chemscore.Internal.Correction>
   9.000000E+99

> <Gold.Chemscore.Hbonds>
donor molecule, donor type, donor heavy atom, donor atom, acceptor molecule, acceptor atom, score
      L1  H     3    25       P1  7948  0.83
      L1  H     6    26       P1  7948  0.79
      L1  H    15    31       P1  7948  0.99

> <Gold.Chemscore.Hbond.Weighted>
-9.6832

> <Gold.Chemscore.Metal.Weighted>
-0.0000

> <Gold.Chemscore.Lipo.Weighted>
-8.9587

> <Gold.Chemscore.Internal_Hbond.Weighted>
0.0000

> <Gold.Chemscore.DEClash.Weighted>
0.0144

> <Gold.Chemscore.DEInternal.Weighted>
4.0465

> <Gold.Chemscore.Rot.Weighted>
3.8977

> <Gold.Chemscore.Internal.Correction.Weighted>
   9.000000E+99

> <Gold.Protein.RotatedTorsions>
[ 6907 6896 6895 6894 ] final  -15.09 input  -60.11 | X-H torsion
[ 7974 7965 7964 7962 ] final  128.85 input  175.53 | X-H torsion
[ 8008 7997 7996 7995 ] final -131.39 input   59.86 | X-H torsion
[ 10167 10162 10161 10158 ] final  137.85 input  -65.29 | X-H torsion
[ 10718 10713 10712 10709 ] final  -50.11 input   66.30 | X-H torsion
[ 10763 10752 10751 10750 ] final -140.49 input  -60.55 | X-H torsion
[ 11005 11000 10999 10996 ] final    7.49 input  -57.11 | X-H torsion

> <Gold.Protein.ActiveResidues>
 VAL166  LYS551  ARG553  GLY616  TRP617  ASP618  TYR619  PRO620  LYS621  CYS622 
 ASP623  PHE694  ASN695  SER759  ASP760  ASP761  ALA762  ILE779  LEU786  VAL792 
 PHE793  MET794  SER795  GLU796  ALA797  LYS798  CYS799  TRP800  GLU811  SER814 

> <Gold.Protein.RotatedAtoms>
  151.3294  135.0838  159.9333 H   0  0  0  0  0  0  0  0  0  0  0  0  # atno 6907 bound_to 6896
  152.5238  133.9558  159.7704 H   0  0  0  0  0  0  0  0  0  0  0  0  # atno 6908 bound_to 6896
  150.9894  133.6112  159.2740 H   0  0  0  0  0  0  0  0  0  0  0  0  # atno 6909 bound_to 6896
  145.0350  139.4013  143.5130 H   0  0  0  0  0  0  0  0  0  0  0  0  # atno 7974 bound_to 7965
  155.3115  140.0457  157.3035 H   0  0  0  0  0  0  0  0  0  0  0  0  # atno 8008 bound_to 7997
  154.5430  140.2294  155.8575 H   0  0  0  0  0  0  0  0  0  0  0  0  # atno 8009 bound_to 7997
  156.1898  140.3053  155.9317 H   0  0  0  0  0  0  0  0  0  0  0  0  # atno 8010 bound_to 7997
  139.5130  144.6387  151.5628 H   0  0  0  0  0  0  0  0  0  0  0  0  # atno 10167 bound_to 10162
  156.1831  130.4151  149.9478 H   0  0  0  0  0  0  0  0  0  0  0  0  # atno 10718 bound_to 10713
  154.8577  135.3551  154.5716 H   0  0  0  0  0  0  0  0  0  0  0  0  # atno 10763 bound_to 10752
  153.6329  135.7001  153.5274 H   0  0  0  0  0  0  0  0  0  0  0  0  # atno 10764 bound_to 10752
  153.3035  135.4199  155.1233 H   0  0  0  0  0  0  0  0  0  0  0  0  # atno 10765 bound_to 10752
  140.5476  134.0314  155.7925 H   0  0  0  0  0  0  0  0  0  0  0  0  # atno 11005 bound_to 11000
  146.3503  139.9920  142.8684 LP  0  0  0  0  0  0  0  0  0  0  0  0  # atno 17320 bound_to 7965
  145.1721  140.9726  143.4315 LP  0  0  0  0  0  0  0  0  0  0  0  0  # atno 17321 bound_to 7965
  140.6145  143.9374  150.6478 LP  0  0  0  0  0  0  0  0  0  0  0  0  # atno 17342 bound_to 10162
  140.2627  143.3512  152.1308 LP  0  0  0  0  0  0  0  0  0  0  0  0  # atno 17343 bound_to 10162
  156.7242  130.9018  151.3620 LP  0  0  0  0  0  0  0  0  0  0  0  0  # atno 17370 bound_to 10713
  157.6881  130.9206  150.0440 LP  0  0  0  0  0  0  0  0  0  0  0  0  # atno 17371 bound_to 10713
  141.1190  133.9492  157.2766 LP  0  0  0  0  0  0  0  0  0  0  0  0  # atno 17394 bound_to 11000
  139.9472  135.0182  156.8886 LP  0  0  0  0  0  0  0  0  0  0  0  0  # atno 17395 bound_to 11000

$$$$
