AV-unprocessed.smi:166|AV-procd|sdf|1391|dock5
  -GOLD-   2262019133D 1   1.00000     0.00000
 Structure written by MMmdl.
 54 58  0  0  0  0  0  0  0  0  1 V2000
  149.7015  143.3388  159.3140 O   0  0  0  0  0  0  0  0  0  0  0  0
  151.0968  143.3123  159.0657 C   0  0  2  0  0  0  0  0  0  0  0  0
  151.5168  141.8852  158.6408 C   0  0  0  0  0  0  0  0  0  0  0  0
  150.8403  141.4065  157.4450 N   0  0  0  0  0  0  0  0  0  0  0  0
  151.0199  141.8543  156.1552 C   0  0  0  0  0  0  0  0  0  0  0  0
  150.2913  141.2574  155.2518 N   0  0  0  0  0  0  0  0  0  0  0  0
  149.5591  140.3214  155.9720 C   0  0  0  0  0  0  0  0  0  0  0  0
  148.5853  139.3409  155.6308 C   0  0  0  0  0  0  0  0  0  0  0  0
  148.1296  139.1115  154.3818 N   0  0  0  0  0  0  0  0  0  0  0  0
  147.6933  140.3260  153.6998 C   0  0  0  0  0  0  0  0  0  0  0  0
  147.4162  140.0421  152.2148 C   0  0  0  0  0  0  0  0  0  0  0  0
  146.4206  138.8820  152.0585 C   0  0  0  0  0  0  0  0  0  0  0  0
  146.9217  137.6342  152.8068 C   0  0  2  0  0  0  0  0  0  0  0  0
  145.9124  136.6386  152.7012 O   0  0  0  0  0  0  0  0  0  0  0  0
  145.6237  136.2323  151.3721 C   0  0  0  0  0  0  0  0  0  0  0  0
  144.6134  135.1064  151.4167 C   0  0  0  0  0  0  0  0  0  0  0  0
  145.0772  133.6690  151.4841 C   0  0  0  0  0  0  0  0  0  0  0  0
  144.4227  134.1892  150.2300 C   0  0  0  0  0  0  0  0  0  0  0  0
  147.2099  137.9806  154.2828 C   0  0  0  0  0  0  0  0  0  0  0  0
  148.0819  138.5686  156.6240 N   0  0  0  0  0  0  0  0  0  0  0  0
  148.4973  138.7458  157.8820 C   0  0  0  0  0  0  0  0  0  0  0  0
  149.3903  139.6201  158.3518 N   0  0  0  0  0  0  0  0  0  0  0  0
  149.8996  140.3958  157.3515 C   0  0  0  0  0  0  0  0  0  0  0  0
  151.8152  143.7820  160.3259 C   0  0  0  0  0  0  0  0  0  0  0  0
  151.9296  145.2854  160.1156 C   0  0  0  0  0  0  0  0  0  0  0  0
  152.2203  145.3808  158.7324 O   0  0  0  0  0  0  0  0  0  0  0  0
  151.4334  144.4169  158.0406 C   0  0  0  0  0  0  0  0  0  0  0  0
  149.3943  142.4494  159.4018 H   0  0  0  0  0  0  0  0  0  0  0  0
  152.5922  141.8473  158.4614 H   0  0  0  0  0  0  0  0  0  0  0  0
  151.3185  141.1802  159.4493 H   0  0  0  0  0  0  0  0  0  0  0  0
  151.7132  142.6430  155.9015 H   0  0  0  0  0  0  0  0  0  0  0  0
  146.7908  140.7081  154.1790 H   0  0  0  0  0  0  0  0  0  0  0  0
  148.4573  141.0995  153.7929 H   0  0  0  0  0  0  0  0  0  0  0  0
  147.0287  140.9377  151.7285 H   0  0  0  0  0  0  0  0  0  0  0  0
  148.3504  139.7928  151.7101 H   0  0  0  0  0  0  0  0  0  0  0  0
  145.4482  139.1819  152.4519 H   0  0  0  0  0  0  0  0  0  0  0  0
  146.2734  138.6538  151.0024 H   0  0  0  0  0  0  0  0  0  0  0  0
  147.8366  137.2858  152.3235 H   0  0  0  0  0  0  0  0  0  0  0  0
  145.2239  137.0650  150.7914 H   0  0  0  0  0  0  0  0  0  0  0  0
  146.5210  135.8718  150.8696 H   0  0  0  0  0  0  0  0  0  0  0  0
  143.7224  135.3389  151.9972 H   0  0  0  0  0  0  0  0  0  0  0  0
  146.1482  133.4790  151.4497 H   0  0  0  0  0  0  0  0  0  0  0  0
  144.5020  132.9850  152.1049 H   0  0  0  0  0  0  0  0  0  0  0  0
  143.4102  133.8548  150.0133 H   0  0  0  0  0  0  0  0  0  0  0  0
  145.0578  134.3459  149.3601 H   0  0  0  0  0  0  0  0  0  0  0  0
  147.6431  137.1241  154.7999 H   0  0  0  0  0  0  0  0  0  0  0  0
  146.2741  138.2216  154.7880 H   0  0  0  0  0  0  0  0  0  0  0  0
  148.0511  138.0925  158.6174 H   0  0  0  0  0  0  0  0  0  0  0  0
  151.3019  143.5164  161.2510 H   0  0  0  0  0  0  0  0  0  0  0  0
  152.8184  143.3554  160.3706 H   0  0  0  0  0  0  0  0  0  0  0  0
  150.9845  145.7867  160.3302 H   0  0  0  0  0  0  0  0  0  0  0  0
  152.7109  145.7399  160.7250 H   0  0  0  0  0  0  0  0  0  0  0  0
  152.0094  144.0452  157.1940 H   0  0  0  0  0  0  0  0  0  0  0  0
  150.5366  144.8939  157.6413 H   0  0  0  0  0  0  0  0  0  0  0  0
  1  2  1  0  0  0  0
  1 28  1  0  0  0  0
  2 27  1  0  0  0  0
  2  3  1  0  0  0  0
  2 24  1  0  0  0  0
  3  4  1  0  0  0  0
  3 29  1  0  0  0  0
  3 30  1  0  0  0  0
  4 23  1  0  0  0  0
  4  5  1  0  0  0  0
  5  6  2  0  0  0  0
  5 31  1  0  0  0  0
  6  7  1  0  0  0  0
  7 23  2  0  0  0  0
  7  8  1  0  0  0  0
  8  9  1  0  0  0  0
  8 20  2  0  0  0  0
  9 19  1  0  0  0  0
  9 10  1  0  0  0  0
 10 11  1  0  0  0  0
 10 32  1  0  0  0  0
 10 33  1  0  0  0  0
 11 12  1  0  0  0  0
 11 34  1  0  0  0  0
 11 35  1  0  0  0  0
 12 13  1  0  0  0  0
 12 36  1  0  0  0  0
 12 37  1  0  0  0  0
 13 14  1  0  0  0  0
 13 19  1  0  0  0  0
 13 38  1  0  0  0  0
 14 15  1  0  0  0  0
 15 16  1  0  0  0  0
 15 39  1  0  0  0  0
 15 40  1  0  0  0  0
 16 18  1  0  0  0  0
 16 17  1  0  0  0  0
 16 41  1  0  0  0  0
 17 18  1  0  0  0  0
 17 42  1  0  0  0  0
 17 43  1  0  0  0  0
 18 44  1  0  0  0  0
 18 45  1  0  0  0  0
 19 46  1  0  0  0  0
 19 47  1  0  0  0  0
 20 21  1  0  0  0  0
 21 22  2  0  0  0  0
 21 48  1  0  0  0  0
 22 23  1  0  0  0  0
 24 25  1  0  0  0  0
 24 49  1  0  0  0  0
 24 50  1  0  0  0  0
 25 26  1  0  0  0  0
 25 51  1  0  0  0  0
 25 52  1  0  0  0  0
 26 27  1  0  0  0  0
 27 53  1  0  0  0  0
 27 54  1  0  0  0  0
M  END
> <s_m_source_file>
AV-unprocessed.smi

> <i_m_source_file_index>
166

> <i_lp_mmshare_version>
43012

> <i_f3d_flags>
0

> <s_epik_input>
W0NIMl0xT1tDSDJdW0NIMl1bQ0BAXTEoW09IXSlbQ0gyXW4oW2NIXW4yKWMoYzIzKW5bY0hdbmMzTjRbQ0gyXVtDSDJdW0NIMl1bQ0BIXShbQ0gyXTQpT1tDSDJdW0NIXTVbQ0gyXVtDSDJdNQ==

> <s_epik_cmdline>
J2VwaWtfcHl0aG9uJywgJy1waCcsICc3LjAnLCAnLXRuJywgJzgnLCAnLW1hJywgJzIwMCcsICctbWV0YWxfYmluZGluZycsICctaW1hZScsICc8aW5maWxlLm1hZT4nLCAnLW9tYWUnLCAnPG91dGZpbGUubWFlPic=

> <r_lp_tautomer_probability>
1

> <r_epik_Ionization_Penalty>
0.00342552

> <r_epik_Ionization_Penalty_Charging>
0

> <r_epik_Ionization_Penalty_Neutral>
0.00342552

> <r_epik_State_Penalty>
0.0022204

> <r_epik_Charging_Adjusted_Penalty>
0.0022204

> <i_epik_Tot_Q>
0

> <i_epik_Tot_abs_Q>
0

> <r_epik_Metal_State_Penalty>
-0

> <b_epik_Metal_Only>
0

> <s_lp_Force_Field>
OPLS_2005

> <r_lp_Energy>
47.9091

> <b_lp_Chiralities_Consistent>
1

> <s_lp_Variant>
AV-unprocessed.smi:166-4

> <Gold.Version>
5.8.1

> <Gold.Id.Protein>
6NUR|6NUR_protein|mol2

> <Gold.PLP.Fitness>
38.8120

> <Gold.PLP.PLP>
-38.0774

> <Gold.PLP.part.hbond>
-2.2144

> <Gold.PLP.part.metal>
0.0000

> <Gold.PLP.part.buried>
3.9913

> <Gold.PLP.part.nonpolar>
-39.1504

> <Gold.PLP.part.repulsive>
0.4656

> <Gold.PLP.ligand.clash>
0.0000

> <Gold.PLP.ligand.torsion>
0.4765

> <Gold.PLP.Chemscore.Hbond>
0.2886

> <Gold.PLP.Chemscore.CHOScore>
0.0000

> <Gold.PLP.Chemscore.Metal>
0.0000

> <Gold.Chemscore.Hbonds>
donor molecule, donor type, donor heavy atom, donor atom, acceptor molecule, acceptor atom, score
      P1  H  7989  7998       L1     6  0.31

> <Gold.PLP.Chemscore.Internal.Correction>
0.8218

> <Gold.Rescore>
     Score         DG    S(hbond)    S(metal)    S(lipo)     H(rot)  DE(clash)    DE(int)     intcor
      9.17     -12.87       0.20        0.00     116.30       2.68       3.21       0.49       ----

> <Gold.Chemscore.Fitness>
9.1744

> <Gold.Chemscore.DG>
-12.8745

> <Gold.Chemscore.ZeroCoef>
-5.4800

> <Gold.Chemscore.Hbond>
0.1953

> <Gold.Chemscore.Metal>
0.0000

> <Gold.Chemscore.Lipo>
116.3002

> <Gold.Chemscore.Internal_Hbond>
0.0000

> <Gold.Chemscore.DEClash>
3.2087

> <Gold.Chemscore.DEInternal>
0.4914

> <Gold.Chemscore.Rot>
2.6817

> <Gold.Chemscore.Internal.Correction>
   9.000000E+99

> <Gold.Chemscore.Hbonds>
donor molecule, donor type, donor heavy atom, donor atom, acceptor molecule, acceptor atom, score
      P1  H  7989  7998       L1     6  0.17

> <Gold.Chemscore.Hbond.Weighted>
-0.6524

> <Gold.Chemscore.Metal.Weighted>
-0.0000

> <Gold.Chemscore.Lipo.Weighted>
-13.6071

> <Gold.Chemscore.Internal_Hbond.Weighted>
0.0000

> <Gold.Chemscore.DEClash.Weighted>
3.2087

> <Gold.Chemscore.DEInternal.Weighted>
0.4914

> <Gold.Chemscore.Rot.Weighted>
6.8651

> <Gold.Chemscore.Internal.Correction.Weighted>
   9.000000E+99

> <Gold.Protein.RotatedTorsions>
[ 6907 6896 6895 6894 ] final  -37.40 input  -60.11 | X-H torsion
[ 7974 7965 7964 7962 ] final  135.75 input  175.53 | X-H torsion
[ 8008 7997 7996 7995 ] final   72.73 input   59.86 | X-H torsion
[ 10167 10162 10161 10158 ] final -110.42 input  -65.29 | X-H torsion
[ 10718 10713 10712 10709 ] final   34.09 input   66.30 | X-H torsion
[ 10763 10752 10751 10750 ] final   90.07 input  -60.55 | X-H torsion
[ 11005 11000 10999 10996 ] final  167.16 input  -57.11 | X-H torsion

> <Gold.Protein.ActiveResidues>
 VAL166  LYS551  ARG553  GLY616  TRP617  ASP618  TYR619  PRO620  LYS621  CYS622 
 ASP623  PHE694  ASN695  SER759  ASP760  ASP761  ALA762  ILE779  LEU786  VAL792 
 PHE793  MET794  SER795  GLU796  ALA797  LYS798  CYS799  TRP800  GLU811  SER814 

> <Gold.Protein.RotatedAtoms>
  151.0152  134.9427  159.8028 H   0  0  0  0  0  0  0  0  0  0  0  0  # atno 6907 bound_to 6896
  152.5312  134.2976  159.9076 H   0  0  0  0  0  0  0  0  0  0  0  0  # atno 6908 bound_to 6896
  151.2982  133.4092  159.2672 H   0  0  0  0  0  0  0  0  0  0  0  0  # atno 6909 bound_to 6896
  144.9632  139.4687  143.5469 H   0  0  0  0  0  0  0  0  0  0  0  0  # atno 7974 bound_to 7965
  155.7732  140.3484  155.5258 H   0  0  0  0  0  0  0  0  0  0  0  0  # atno 8008 bound_to 7997
  155.8802  140.1001  157.1511 H   0  0  0  0  0  0  0  0  0  0  0  0  # atno 8009 bound_to 7997
  154.4024  140.1324  156.4174 H   0  0  0  0  0  0  0  0  0  0  0  0  # atno 8010 bound_to 7997
  140.1447  143.4249  152.1537 H   0  0  0  0  0  0  0  0  0  0  0  0  # atno 10167 bound_to 10162
  157.3060  130.7375  149.6695 H   0  0  0  0  0  0  0  0  0  0  0  0  # atno 10718 bound_to 10713
  153.1937  135.4447  155.0181 H   0  0  0  0  0  0  0  0  0  0  0  0  # atno 10763 bound_to 10752
  154.8106  135.3292  154.7318 H   0  0  0  0  0  0  0  0  0  0  0  0  # atno 10764 bound_to 10752
  153.7770  135.6980  153.4951 H   0  0  0  0  0  0  0  0  0  0  0  0  # atno 10765 bound_to 10752
  140.2739  134.7805  157.3699 H   0  0  0  0  0  0  0  0  0  0  0  0  # atno 11005 bound_to 11000
  146.3359  139.8796  142.8826 LP  0  0  0  0  0  0  0  0  0  0  0  0  # atno 17320 bound_to 7965
  145.2668  141.0095  143.3794 LP  0  0  0  0  0  0  0  0  0  0  0  0  # atno 17321 bound_to 7965
  139.5455  144.7294  151.4598 LP  0  0  0  0  0  0  0  0  0  0  0  0  # atno 17342 bound_to 10162
  140.6739  143.8233  150.7034 LP  0  0  0  0  0  0  0  0  0  0  0  0  # atno 17343 bound_to 10162
  155.9674  130.4265  150.4704 LP  0  0  0  0  0  0  0  0  0  0  0  0  # atno 17370 bound_to 10713
  157.2694  131.0584  151.2270 LP  0  0  0  0  0  0  0  0  0  0  0  0  # atno 17371 bound_to 10713
  140.1347  134.5049  155.8078 LP  0  0  0  0  0  0  0  0  0  0  0  0  # atno 17394 bound_to 11000
  141.2173  133.6803  156.7103 LP  0  0  0  0  0  0  0  0  0  0  0  0  # atno 17395 bound_to 11000

$$$$
