AV-unprocessed.smi:665|AV-procd|sdf|3253|dock1
  -GOLD-   22720 0203D 1   1.00000     0.00000
 Structure written by MMmdl.
 43 44  0  0  0  0  0  0  0  0  1 V2000
  146.1975  130.3302  151.8816 C   0  0  0  0  0  0  0  0  0  0  0  0
  145.6468  131.5826  151.3574 N   0  0  0  0  0  0  0  0  0  0  0  0
  144.5379  131.4960  150.4985 C   0  0  0  0  0  0  0  0  0  0  0  0
  143.9674  132.5894  149.9741 C   0  0  0  0  0  0  0  0  0  0  0  0
  144.5172  133.8800  150.3136 C   0  0  0  0  0  0  0  0  0  0  0  0
  145.5814  133.9876  151.1488 C   0  0  0  0  0  0  0  0  0  0  0  0
  146.1796  135.2016  151.5303 N   0  0  0  0  0  0  0  0  0  0  0  0
  145.6020  136.3551  151.9149 C   0  0  0  0  0  0  0  0  0  0  0  0
  144.3919  136.5543  152.0187 O   0  0  0  0  0  0  0  0  0  0  0  0
  146.5308  137.2789  152.2016 N   0  0  0  0  0  0  0  0  0  0  0  0
  146.2731  138.6313  152.6899 C   0  0  0  0  0  0  0  0  0  0  0  0
  147.0590  139.6530  151.8509 C   0  0  0  0  0  0  0  0  0  0  0  0
  146.8719  141.0835  152.3889 C   0  0  0  0  0  0  0  0  0  0  0  0
  147.2344  141.2318  153.8881 C   0  0  0  0  0  0  0  0  0  0  0  0
  148.7591  141.1096  154.1004 C   0  0  0  0  0  0  0  0  0  0  0  0
  146.7998  142.6295  154.3702 C   0  0  0  0  0  0  0  0  0  0  0  0
  146.4754  140.1605  154.7103 C   0  0  0  0  0  0  0  0  0  0  0  0
  146.6632  138.7302  154.1741 C   0  0  0  0  0  0  0  0  0  0  0  0
  146.2108  132.7761  151.7104 C   0  0  0  0  0  0  0  0  0  0  0  0
  147.1897  132.8218  152.4595 O   0  0  0  0  0  0  0  0  0  0  0  0
  145.6591  129.4511  151.5260 H   0  0  0  0  0  0  0  0  0  0  0  0
  146.1520  130.3192  152.9715 H   0  0  0  0  0  0  0  0  0  0  0  0
  147.2406  130.2147  151.5835 H   0  0  0  0  0  0  0  0  0  0  0  0
  144.1838  130.4958  150.2950 H   0  0  0  0  0  0  0  0  0  0  0  0
  143.1147  132.5076  149.3164 H   0  0  0  0  0  0  0  0  0  0  0  0
  144.0539  134.7437  149.8657 H   0  0  0  0  0  0  0  0  0  0  0  0
  147.1887  135.1780  151.5573 H   0  0  0  0  0  0  0  0  0  0  0  0
  147.5001  137.0211  152.0874 H   0  0  0  0  0  0  0  0  0  0  0  0
  145.2113  138.8702  152.6051 H   0  0  0  0  0  0  0  0  0  0  0  0
  148.1183  139.3944  151.8402 H   0  0  0  0  0  0  0  0  0  0  0  0
  146.7277  139.6108  150.8125 H   0  0  0  0  0  0  0  0  0  0  0  0
  147.4598  141.7792  151.7890 H   0  0  0  0  0  0  0  0  0  0  0  0
  145.8295  141.3693  152.2400 H   0  0  0  0  0  0  0  0  0  0  0  0
  149.0209  141.2278  155.1524 H   0  0  0  0  0  0  0  0  0  0  0  0
  149.2973  141.8773  153.5434 H   0  0  0  0  0  0  0  0  0  0  0  0
  149.1502  140.1452  153.7784 H   0  0  0  0  0  0  0  0  0  0  0  0
  147.0306  142.7753  155.4261 H   0  0  0  0  0  0  0  0  0  0  0  0
  145.7265  142.7795  154.2473 H   0  0  0  0  0  0  0  0  0  0  0  0
  147.3052  143.4179  153.8113 H   0  0  0  0  0  0  0  0  0  0  0  0
  146.7820  140.2016  155.7562 H   0  0  0  0  0  0  0  0  0  0  0  0
  145.4085  140.3892  154.7032 H   0  0  0  0  0  0  0  0  0  0  0  0
  146.0558  138.0407  154.7616 H   0  0  0  0  0  0  0  0  0  0  0  0
  147.6976  138.4138  154.3117 H   0  0  0  0  0  0  0  0  0  0  0  0
  1  2  1  0  0  0  0
  1 21  1  0  0  0  0
  1 22  1  0  0  0  0
  1 23  1  0  0  0  0
  2 19  1  0  0  0  0
  2  3  1  0  0  0  0
  3  4  2  0  0  0  0
  3 24  1  0  0  0  0
  4  5  1  0  0  0  0
  4 25  1  0  0  0  0
  5  6  2  0  0  0  0
  5 26  1  0  0  0  0
  6  7  1  0  0  0  0
  6 19  1  0  0  0  0
  7  8  1  0  0  0  0
  7 27  1  0  0  0  0
  8  9  2  0  0  0  0
  8 10  1  0  0  0  0
 10 11  1  0  0  0  0
 10 28  1  0  0  0  0
 11 18  1  0  0  0  0
 11 12  1  0  0  0  0
 11 29  1  0  0  0  0
 12 13  1  0  0  0  0
 12 30  1  0  0  0  0
 12 31  1  0  0  0  0
 13 14  1  0  0  0  0
 13 32  1  0  0  0  0
 13 33  1  0  0  0  0
 14 15  1  0  0  0  0
 14 16  1  0  0  0  0
 14 17  1  0  0  0  0
 15 34  1  0  0  0  0
 15 35  1  0  0  0  0
 15 36  1  0  0  0  0
 16 37  1  0  0  0  0
 16 38  1  0  0  0  0
 16 39  1  0  0  0  0
 17 18  1  0  0  0  0
 17 40  1  0  0  0  0
 17 41  1  0  0  0  0
 18 42  1  0  0  0  0
 18 43  1  0  0  0  0
 19 20  2  0  0  0  0
M  END
> <s_m_source_file>
AV-unprocessed.smi

> <i_m_source_file_index>
665

> <i_lp_mmshare_version>
43012

> <i_f3d_flags>
0

> <s_epik_input>
W0NIM11uMVtjSF1bY0hdW2NIXWMoYzE9TylbTkhdQyg9TylbTkhdW0NIXShbQ0gyXVtDSDJdMilbQ0gyXVtDSDJdQzIoW0NIM10pW0NIM10=

> <s_epik_cmdline>
J2VwaWtfcHl0aG9uJywgJy1waCcsICc3LjAnLCAnLXRuJywgJzgnLCAnLW1hJywgJzIwMCcsICctbWV0YWxfYmluZGluZycsICctaW1hZScsICc8aW5maWxlLm1hZT4nLCAnLW9tYWUnLCAnPG91dGZpbGUubWFlPic=

> <r_lp_tautomer_probability>
1

> <r_epik_Ionization_Penalty>
2.65253e-05

> <r_epik_Ionization_Penalty_Charging>
5.1221e-06

> <r_epik_Ionization_Penalty_Neutral>
2.14032e-05

> <r_epik_State_Penalty>
-0

> <r_epik_Charging_Adjusted_Penalty>
5.1221e-06

> <i_epik_Tot_Q>
0

> <i_epik_Tot_abs_Q>
0

> <r_epik_Metal_State_Penalty>
-0

> <b_epik_Metal_Only>
0

> <s_lp_Force_Field>
OPLS_2005

> <r_lp_Energy>
25.5106

> <b_lp_Chiralities_Consistent>
1

> <s_lp_Variant>
AV-unprocessed.smi:665-1

> <Gold.Version>
5.8.1

> <Gold.Id.Protein>
6NUR|6NUR_protein|mol2

> <Gold.PLP.Fitness>
40.6285

> <Gold.PLP.PLP>
-35.6626

> <Gold.PLP.part.hbond>
-2.0000

> <Gold.PLP.part.metal>
0.0000

> <Gold.PLP.part.buried>
0.6545

> <Gold.PLP.part.nonpolar>
-34.4693

> <Gold.PLP.part.repulsive>
0.9946

> <Gold.PLP.ligand.clash>
0.0000

> <Gold.PLP.ligand.torsion>
0.4823

> <Gold.PLP.Chemscore.Hbond>
1.9760

> <Gold.PLP.Chemscore.CHOScore>
0.0000

> <Gold.PLP.Chemscore.Metal>
0.0000

> <Gold.Chemscore.Hbonds>
donor molecule, donor type, donor heavy atom, donor atom, acceptor molecule, acceptor atom, score
      L1  H     7    27       P1  7948  0.98
      L1  H    10    28       P1  7948  1.00

> <Gold.PLP.Chemscore.Internal.Correction>
0.0024

> <Gold.Rescore>
     Score         DG    S(hbond)    S(metal)    S(lipo)     H(rot)  DE(clash)    DE(int)     intcor
     17.06     -20.42       1.84        0.00      96.97       1.00       2.96       0.40       ----

> <Gold.Chemscore.Fitness>
17.0572

> <Gold.Chemscore.DG>
-20.4165

> <Gold.Chemscore.ZeroCoef>
-5.4800

> <Gold.Chemscore.Hbond>
1.8417

> <Gold.Chemscore.Metal>
0.0000

> <Gold.Chemscore.Lipo>
96.9680

> <Gold.Chemscore.Internal_Hbond>
0.0000

> <Gold.Chemscore.DEClash>
2.9580

> <Gold.Chemscore.DEInternal>
0.4013

> <Gold.Chemscore.Rot>
1.0000

> <Gold.Chemscore.Internal.Correction>
   9.000000E+99

> <Gold.Chemscore.Hbonds>
donor molecule, donor type, donor heavy atom, donor atom, acceptor molecule, acceptor atom, score
      L1  H     7    27       P1  7948  0.78
      L1  H    10    28       P1  7948  1.00

> <Gold.Chemscore.Hbond.Weighted>
-6.1513

> <Gold.Chemscore.Metal.Weighted>
-0.0000

> <Gold.Chemscore.Lipo.Weighted>
-11.3453

> <Gold.Chemscore.Internal_Hbond.Weighted>
0.0000

> <Gold.Chemscore.DEClash.Weighted>
2.9580

> <Gold.Chemscore.DEInternal.Weighted>
0.4013

> <Gold.Chemscore.Rot.Weighted>
2.5600

> <Gold.Chemscore.Internal.Correction.Weighted>
   9.000000E+99

> <Gold.Protein.RotatedTorsions>
[ 6907 6896 6895 6894 ] final   -1.63 input  -60.11 | X-H torsion
[ 7974 7965 7964 7962 ] final  -25.68 input  175.53 | X-H torsion
[ 8008 7997 7996 7995 ] final  162.31 input   59.86 | X-H torsion
[ 10167 10162 10161 10158 ] final  112.02 input  -65.29 | X-H torsion
[ 10718 10713 10712 10709 ] final   78.51 input   66.30 | X-H torsion
[ 10763 10752 10751 10750 ] final  -20.95 input  -60.55 | X-H torsion
[ 11005 11000 10999 10996 ] final   44.71 input  -57.11 | X-H torsion

> <Gold.Protein.ActiveResidues>
 VAL166  LYS551  ARG553  GLY616  TRP617  ASP618  TYR619  PRO620  LYS621  CYS622 
 ASP623  PHE694  ASN695  SER759  ASP760  ASP761  ALA762  ILE779  LEU786  VAL792 
 PHE793  MET794  SER795  GLU796  ALA797  LYS798  CYS799  TRP800  GLU811  SER814 

> <Gold.Protein.RotatedAtoms>
  151.5429  135.1068  159.9930 H   0  0  0  0  0  0  0  0  0  0  0  0  # atno 6907 bound_to 6896
  152.4527  133.7657  159.6782 H   0  0  0  0  0  0  0  0  0  0  0  0  # atno 6908 bound_to 6896
  150.8460  133.7794  159.3067 H   0  0  0  0  0  0  0  0  0  0  0  0  # atno 6909 bound_to 6896
  146.1475  140.4919  142.8625 H   0  0  0  0  0  0  0  0  0  0  0  0  # atno 7974 bound_to 7965
  156.2041  140.1754  156.7838 H   0  0  0  0  0  0  0  0  0  0  0  0  # atno 8008 bound_to 7997
  154.5631  140.0696  156.8880 H   0  0  0  0  0  0  0  0  0  0  0  0  # atno 8009 bound_to 7997
  155.2812  140.3349  155.4260 H   0  0  0  0  0  0  0  0  0  0  0  0  # atno 8010 bound_to 7997
  139.6567  144.7129  151.1944 H   0  0  0  0  0  0  0  0  0  0  0  0  # atno 10167 bound_to 10162
  157.6747  130.9871  150.1796 H   0  0  0  0  0  0  0  0  0  0  0  0  # atno 10718 bound_to 10713
  153.6284  135.6990  153.5284 H   0  0  0  0  0  0  0  0  0  0  0  0  # atno 10763 bound_to 10752
  153.2879  135.4166  155.1139 H   0  0  0  0  0  0  0  0  0  0  0  0  # atno 10764 bound_to 10752
  154.8527  135.3618  154.5826 H   0  0  0  0  0  0  0  0  0  0  0  0  # atno 10765 bound_to 10752
  140.1527  134.4441  155.8371 H   0  0  0  0  0  0  0  0  0  0  0  0  # atno 11005 bound_to 11000
  144.7864  140.5944  143.6571 LP  0  0  0  0  0  0  0  0  0  0  0  0  # atno 17320 bound_to 7965
  145.4903  139.1489  143.3713 LP  0  0  0  0  0  0  0  0  0  0  0  0  # atno 17321 bound_to 7965
  140.7562  143.6061  150.8651 LP  0  0  0  0  0  0  0  0  0  0  0  0  # atno 17342 bound_to 10162
  139.9714  143.6052  152.2972 LP  0  0  0  0  0  0  0  0  0  0  0  0  # atno 17343 bound_to 10162
  156.2532  130.3703  149.8210 LP  0  0  0  0  0  0  0  0  0  0  0  0  # atno 17370 bound_to 10713
  156.5977  130.8533  151.3424 LP  0  0  0  0  0  0  0  0  0  0  0  0  # atno 17371 bound_to 10713
  141.2201  133.6879  156.7451 LP  0  0  0  0  0  0  0  0  0  0  0  0  # atno 17394 bound_to 11000
  140.2585  134.8485  157.3736 LP  0  0  0  0  0  0  0  0  0  0  0  0  # atno 17395 bound_to 11000

$$$$
