AV-unprocessed.smi:110|AV-procd|sdf|1068|dock3
  -GOLD-   2262018153D 1   1.00000     0.00000
 Structure written by MMmdl.
 46 50  0  0  0  0  0  0  0  0  1 V2000
  146.5325  137.7496  151.3678 O   0  0  0  0  0  0  0  0  0  0  0  0
  145.7429  138.2698  152.4162 C   0  0  0  0  0  0  0  0  0  0  0  0
  146.5753  138.3712  153.7064 C   0  0  2  0  0  0  0  0  0  0  0  0
  147.8472  138.9675  153.4544 O   0  0  0  0  0  0  0  0  0  0  0  0
  148.8027  138.4890  154.3542 C   0  0  1  0  0  0  0  0  0  0  0  0
  149.3517  139.6275  155.1617 N   0  0  0  0  0  0  0  0  0  0  0  0
  148.8328  140.8988  155.2550 C   0  0  0  0  0  0  0  0  0  0  0  0
  149.4925  141.7180  156.0265 N   0  0  0  0  0  0  0  0  0  0  0  0
  150.5440  140.9542  156.5184 C   0  0  0  0  0  0  0  0  0  0  0  0
  151.6346  141.2078  157.3990 C   0  0  0  0  0  0  0  0  0  0  0  0
  151.8704  142.3926  158.0093 N   0  0  0  0  0  0  0  0  0  0  0  0
  151.6085  143.6438  157.2836 C   0  0  0  0  0  0  0  0  0  0  0  0
  151.5153  144.7746  158.3259 C   0  0  0  0  0  0  0  0  0  0  0  0
  151.8654  144.0377  159.5785 C   0  0  0  0  0  0  0  0  0  0  0  0
  152.0146  144.5740  160.8693 C   0  0  0  0  0  0  0  0  0  0  0  0
  152.3759  143.6982  161.9155 C   0  0  0  0  0  0  0  0  0  0  0  0
  152.5893  142.3243  161.6563 C   0  0  0  0  0  0  0  0  0  0  0  0
  152.4355  141.8081  160.3508 C   0  0  0  0  0  0  0  0  0  0  0  0
  152.0519  142.6844  159.3145 C   0  0  0  0  0  0  0  0  0  0  0  0
  152.5259  140.2049  157.6021 N   0  0  0  0  0  0  0  0  0  0  0  0
  152.3420  139.0167  157.0207 C   0  0  0  0  0  0  0  0  0  0  0  0
  151.3602  138.6322  156.2042 N   0  0  0  0  0  0  0  0  0  0  0  0
  150.4746  139.6423  155.9677 C   0  0  0  0  0  0  0  0  0  0  0  0
  148.1438  137.3885  155.2102 C   0  0  1  0  0  0  0  0  0  0  0  0
  147.7609  137.8168  156.5053 O   0  0  0  0  0  0  0  0  0  0  0  0
  146.9206  137.0352  154.3788 C   0  0  2  0  0  0  0  0  0  0  0  0
  147.2416  136.0450  153.4178 O   0  0  0  0  0  0  0  0  0  0  0  0
  146.0420  138.9777  154.4392 H   0  0  0  0  0  0  0  0  0  0  0  0
  149.6581  138.1207  153.7865 H   0  0  0  0  0  0  0  0  0  0  0  0
  148.8313  136.5490  155.3225 H   0  0  0  0  0  0  0  0  0  0  0  0
  146.0958  136.6594  154.9861 H   0  0  0  0  0  0  0  0  0  0  0  0
  147.3802  137.5188  151.7156 H   0  0  0  0  0  0  0  0  0  0  0  0
  145.4061  139.2603  152.1085 H   0  0  0  0  0  0  0  0  0  0  0  0
  144.8550  137.6537  152.5616 H   0  0  0  0  0  0  0  0  0  0  0  0
  147.9422  141.2038  154.7252 H   0  0  0  0  0  0  0  0  0  0  0  0
  152.4278  143.8326  156.5889 H   0  0  0  0  0  0  0  0  0  0  0  0
  150.6882  143.5708  156.7024 H   0  0  0  0  0  0  0  0  0  0  0  0
  152.2226  145.5804  158.1280 H   0  0  0  0  0  0  0  0  0  0  0  0
  150.5071  145.1842  158.3951 H   0  0  0  0  0  0  0  0  0  0  0  0
  151.8617  145.6269  161.0547 H   0  0  0  0  0  0  0  0  0  0  0  0
  152.4985  144.0809  162.9178 H   0  0  0  0  0  0  0  0  0  0  0  0
  152.8769  141.6647  162.4618 H   0  0  0  0  0  0  0  0  0  0  0  0
  152.6155  140.7608  160.1576 H   0  0  0  0  0  0  0  0  0  0  0  0
  153.0872  138.2667  157.2412 H   0  0  0  0  0  0  0  0  0  0  0  0
  148.0849  138.6946  156.6385 H   0  0  0  0  0  0  0  0  0  0  0  0
  147.8182  136.4273  152.7740 H   0  0  0  0  0  0  0  0  0  0  0  0
  1  2  1  0  0  0  0
  1 32  1  0  0  0  0
  2  3  1  0  0  0  0
  2 33  1  0  0  0  0
  2 34  1  0  0  0  0
  3 28  1  0  0  0  0
  3 26  1  0  0  0  0
  3  4  1  0  0  0  0
  4  5  1  0  0  0  0
  5 29  1  0  0  0  0
  5  6  1  0  0  0  0
  5 24  1  0  0  0  0
  6 23  1  0  0  0  0
  6  7  1  0  0  0  0
  7  8  2  0  0  0  0
  7 35  1  0  0  0  0
  8  9  1  0  0  0  0
  9 23  2  0  0  0  0
  9 10  1  0  0  0  0
 10 11  1  0  0  0  0
 10 20  2  0  0  0  0
 11 19  1  0  0  0  0
 11 12  1  0  0  0  0
 12 13  1  0  0  0  0
 12 36  1  0  0  0  0
 12 37  1  0  0  0  0
 13 14  1  0  0  0  0
 13 38  1  0  0  0  0
 13 39  1  0  0  0  0
 14 19  2  0  0  0  0
 14 15  1  0  0  0  0
 15 16  2  0  0  0  0
 15 40  1  0  0  0  0
 16 17  1  0  0  0  0
 16 41  1  0  0  0  0
 17 18  2  0  0  0  0
 17 42  1  0  0  0  0
 18 19  1  0  0  0  0
 18 43  1  0  0  0  0
 20 21  1  0  0  0  0
 21 22  2  0  0  0  0
 21 44  1  0  0  0  0
 22 23  1  0  0  0  0
 24 30  1  0  0  0  0
 24 25  1  0  0  0  0
 24 26  1  0  0  0  0
 25 45  1  0  0  0  0
 26 31  1  0  0  0  0
 26 27  1  0  0  0  0
 27 46  1  0  0  0  0
M  END
> <s_m_source_file>
AV-unprocessed.smi

> <i_m_source_file_index>
110

> <i_lp_mmshare_version>
43012

> <i_f3d_flags>
0

> <s_epik_input>
W09IXVtDSDJdW0NASF0xT1tDQEhdKFtDQEhdKFtPSF0pW0NAQEhdMVtPSF0pbihbY0hdbjIpYyhjMjMpbltjSF1uYzNOKFtDSDJdW0NIMl00KWMoYzQ1KVtjSF1bY0hdW2NIXVtjSF01

> <s_epik_cmdline>
J2VwaWtfcHl0aG9uJywgJy1waCcsICc3LjAnLCAnLXRuJywgJzgnLCAnLW1hJywgJzIwMCcsICctbWV0YWxfYmluZGluZycsICctaW1hZScsICc8aW5maWxlLm1hZT4nLCAnLW9tYWUnLCAnPG91dGZpbGUubWFlPic=

> <r_lp_tautomer_probability>
1

> <r_epik_Ionization_Penalty>
0.00068475

> <r_epik_Ionization_Penalty_Charging>
0

> <r_epik_Ionization_Penalty_Neutral>
0.00068475

> <r_epik_State_Penalty>
0.000417442

> <r_epik_Charging_Adjusted_Penalty>
0.000417442

> <i_epik_Tot_Q>
0

> <i_epik_Tot_abs_Q>
0

> <r_epik_Metal_State_Penalty>
-0

> <b_epik_Metal_Only>
0

> <s_epik_Chemistry_Notes>
This compound contains an acetal/aminal-like group ( X-CH(R)-Y where X, Y are N, S, or O) that may be acid/base labile, releasing an aldehyde.

> <s_lp_Force_Field>
OPLS_2005

> <r_lp_Energy>
62.6904

> <b_lp_Chiralities_Consistent>
1

> <s_lp_Variant>
AV-unprocessed.smi:110-6

> <Gold.Version>
5.8.1

> <Gold.Id.Protein>
6NUR|6NUR_protein|mol2

> <Gold.PLP.Fitness>
50.4418

> <Gold.PLP.PLP>
-45.7821

> <Gold.PLP.part.hbond>
-2.8368

> <Gold.PLP.part.metal>
0.0000

> <Gold.PLP.part.buried>
-6.8418

> <Gold.PLP.part.nonpolar>
-37.1944

> <Gold.PLP.part.repulsive>
0.3202

> <Gold.PLP.ligand.clash>
0.0000

> <Gold.PLP.ligand.torsion>
1.1709

> <Gold.PLP.Chemscore.Hbond>
2.3112

> <Gold.PLP.Chemscore.CHOScore>
0.0000

> <Gold.PLP.Chemscore.Metal>
0.0000

> <Gold.Chemscore.Hbonds>
donor molecule, donor type, donor heavy atom, donor atom, acceptor molecule, acceptor atom, score
      L1  H     1    32       P1  7948  1.00
      L1  H    27    46       P1  7948  0.80
      P1  H  7997  8010       L1    20  0.22

> <Gold.PLP.Chemscore.Internal.Correction>
0.0680

> <Gold.Rescore>
     Score         DG    S(hbond)    S(metal)    S(lipo)     H(rot)  DE(clash)    DE(int)     intcor
     14.59     -16.26       1.88        0.00     112.50       3.38       0.40       1.27       ----

> <Gold.Chemscore.Fitness>
14.5923

> <Gold.Chemscore.DG>
-16.2573

> <Gold.Chemscore.ZeroCoef>
-5.4800

> <Gold.Chemscore.Hbond>
1.8794

> <Gold.Chemscore.Metal>
0.0000

> <Gold.Chemscore.Lipo>
112.4993

> <Gold.Chemscore.Internal_Hbond>
0.0000

> <Gold.Chemscore.DEClash>
0.3955

> <Gold.Chemscore.DEInternal>
1.2695

> <Gold.Chemscore.Rot>
3.3837

> <Gold.Chemscore.Internal.Correction>
   9.000000E+99

> <Gold.Chemscore.Hbonds>
donor molecule, donor type, donor heavy atom, donor atom, acceptor molecule, acceptor atom, score
      L1  H     1    32       P1  7948  0.90
      L1  H    27    46       P1  7948  0.75

> <Gold.Chemscore.Hbond.Weighted>
-6.2771

> <Gold.Chemscore.Metal.Weighted>
-0.0000

> <Gold.Chemscore.Lipo.Weighted>
-13.1624

> <Gold.Chemscore.Internal_Hbond.Weighted>
0.0000

> <Gold.Chemscore.DEClash.Weighted>
0.3955

> <Gold.Chemscore.DEInternal.Weighted>
1.2695

> <Gold.Chemscore.Rot.Weighted>
8.6622

> <Gold.Chemscore.Internal.Correction.Weighted>
   9.000000E+99

> <Gold.Protein.RotatedTorsions>
[ 6907 6896 6895 6894 ] final  -34.68 input  -60.11 | X-H torsion
[ 7974 7965 7964 7962 ] final   65.91 input  175.53 | X-H torsion
[ 8008 7997 7996 7995 ] final   39.42 input   59.86 | X-H torsion
[ 10167 10162 10161 10158 ] final  -32.58 input  -65.29 | X-H torsion
[ 10718 10713 10712 10709 ] final   28.94 input   66.30 | X-H torsion
[ 10763 10752 10751 10750 ] final  101.86 input  -60.55 | X-H torsion
[ 11005 11000 10999 10996 ] final  118.42 input  -57.11 | X-H torsion

> <Gold.Protein.ActiveResidues>
 VAL166  LYS551  ARG553  GLY616  TRP617  ASP618  TYR619  PRO620  LYS621  CYS622 
 ASP623  PHE694  ASN695  SER759  ASP760  ASP761  ALA762  ILE779  LEU786  VAL792 
 PHE793  MET794  SER795  GLU796  ALA797  LYS798  CYS799  TRP800  GLU811  SER814 

> <Gold.Protein.RotatedAtoms>
  151.0495  134.9663  159.8203 H   0  0  0  0  0  0  0  0  0  0  0  0  # atno 6907 bound_to 6896
  152.5378  134.2555  159.8925 H   0  0  0  0  0  0  0  0  0  0  0  0  # atno 6908 bound_to 6896
  151.2570  133.4278  159.2648 H   0  0  0  0  0  0  0  0  0  0  0  0  # atno 6909 bound_to 6896
  145.8329  139.3150  143.0977 H   0  0  0  0  0  0  0  0  0  0  0  0  # atno 7974 bound_to 7965
  155.2363  140.3342  155.4297 H   0  0  0  0  0  0  0  0  0  0  0  0  # atno 8008 bound_to 7997
  156.2274  140.1835  156.7373 H   0  0  0  0  0  0  0  0  0  0  0  0  # atno 8009 bound_to 7997
  154.5922  140.0636  156.9239 H   0  0  0  0  0  0  0  0  0  0  0  0  # atno 8010 bound_to 7997
  140.7219  143.3684  151.1826 H   0  0  0  0  0  0  0  0  0  0  0  0  # atno 10167 bound_to 10162
  157.2401  130.7065  149.6354 H   0  0  0  0  0  0  0  0  0  0  0  0  # atno 10718 bound_to 10713
  153.3321  135.4030  155.1503 H   0  0  0  0  0  0  0  0  0  0  0  0  # atno 10763 bound_to 10752
  154.8625  135.3613  154.5457 H   0  0  0  0  0  0  0  0  0  0  0  0  # atno 10764 bound_to 10752
  153.5896  135.7074  153.5488 H   0  0  0  0  0  0  0  0  0  0  0  0  # atno 10765 bound_to 10752
  139.9109  134.9620  156.7500 H   0  0  0  0  0  0  0  0  0  0  0  0  # atno 11005 bound_to 11000
  145.9551  140.8879  143.0239 LP  0  0  0  0  0  0  0  0  0  0  0  0  # atno 17320 bound_to 7965
  144.6738  140.1734  143.7412 LP  0  0  0  0  0  0  0  0  0  0  0  0  # atno 17321 bound_to 7965
  139.7250  143.9162  152.2999 LP  0  0  0  0  0  0  0  0  0  0  0  0  # atno 17342 bound_to 10162
  139.8932  144.6954  150.8747 LP  0  0  0  0  0  0  0  0  0  0  0  0  # atno 17343 bound_to 10162
  155.9670  130.4461  150.5527 LP  0  0  0  0  0  0  0  0  0  0  0  0  # atno 17370 bound_to 10713
  157.3388  131.0713  151.1804 LP  0  0  0  0  0  0  0  0  0  0  0  0  # atno 17371 bound_to 10713
  140.6781  133.9499  155.7894 LP  0  0  0  0  0  0  0  0  0  0  0  0  # atno 17394 bound_to 11000
  141.0530  134.0457  157.3759 LP  0  0  0  0  0  0  0  0  0  0  0  0  # atno 17395 bound_to 11000

$$$$
