AV-unprocessed.smi:1641|AV-procd|sdf|6566|dock5
  -GOLD-   22720 7253D 1   1.00000     0.00000
 Structure written by MMmdl.
 41 42  0  0  0  0  0  0  0  0  3 V2000
  152.4237  141.5247  159.4305 C   0  0  0  0  0  0  0  0  0  0  0  0
  152.0415  140.8714  158.1469 C   0  0  0  0  0  0  0  0  0  0  0  0
  152.6960  139.8186  157.6511 N   0  0  0  0  0  0  0  0  0  0  0  0
  152.1574  139.3873  156.4476 N   0  0  0  0  0  0  0  0  0  0  0  0
  151.1005  140.1123  156.0546 C   0  0  0  0  0  0  0  0  0  0  0  0
  150.4386  139.8583  154.9136 N   0  5  0  0  0  0  0  0  0  0  0  0
  149.1357  140.1996  154.7978 C   0  0  0  0  0  0  0  0  0  0  0  0
  148.4990  140.9323  155.5582 O   0  0  0  0  0  0  0  0  0  0  0  0
  148.5307  139.6598  153.7322 N   0  0  0  0  0  0  0  0  0  0  0  0
  147.1360  139.8652  153.3689 C   0  0  0  0  0  0  0  0  0  0  0  0
  146.4228  138.5145  153.2029 C   0  0  0  0  0  0  0  0  0  0  0  0
  145.0699  138.5109  153.8128 N   0  3  1  0  0  0  0  0  0  0  0  0
  144.3739  137.2149  153.6327 C   0  0  0  0  0  0  0  0  0  0  0  0
  142.9525  137.2770  154.2221 C   0  0  1  0  0  0  0  0  0  0  0  0
  142.2264  135.9310  154.1233 C   0  0  0  0  0  0  0  0  0  0  0  0
  143.0357  137.6368  155.5965 O   0  0  0  0  0  0  0  0  0  0  0  0
  143.6208  138.9197  155.7905 C   0  0  1  0  0  0  0  0  0  0  0  0
  143.5739  139.2446  157.2876 C   0  0  0  0  0  0  0  0  0  0  0  0
  145.0606  138.9063  155.2429 C   0  0  0  0  0  0  0  0  0  0  0  0
  150.6980  141.4252  157.1615 S   0  0  0  0  0  0  0  0  0  0  0  0
  152.4145  140.7941  160.2396 H   0  0  0  0  0  0  0  0  0  0  0  0
  151.7232  142.3238  159.6735 H   0  0  0  0  0  0  0  0  0  0  0  0
  153.4244  141.9491  159.3500 H   0  0  0  0  0  0  0  0  0  0  0  0
  149.0835  139.0627  153.1349 H   0  0  0  0  0  0  0  0  0  0  0  0
  146.6627  140.4665  154.1455 H   0  0  0  0  0  0  0  0  0  0  0  0
  147.0838  140.4338  152.4391 H   0  0  0  0  0  0  0  0  0  0  0  0
  146.3313  138.3097  152.1350 H   0  0  0  0  0  0  0  0  0  0  0  0
  147.0216  137.7045  153.6231 H   0  0  0  0  0  0  0  0  0  0  0  0
  144.3195  136.9706  152.5710 H   0  0  0  0  0  0  0  0  0  0  0  0
  144.9499  136.4233  154.1153 H   0  0  0  0  0  0  0  0  0  0  0  0
  142.3649  138.0270  153.6892 H   0  0  0  0  0  0  0  0  0  0  0  0
  142.1206  135.6167  153.0847 H   0  0  0  0  0  0  0  0  0  0  0  0
  141.2267  135.9952  154.5536 H   0  0  0  0  0  0  0  0  0  0  0  0
  142.7683  135.1492  154.6563 H   0  0  0  0  0  0  0  0  0  0  0  0
  143.0313  139.6671  155.2563 H   0  0  0  0  0  0  0  0  0  0  0  0
  144.0038  140.2259  157.4906 H   0  0  0  0  0  0  0  0  0  0  0  0
  144.1291  138.5087  157.8699 H   0  0  0  0  0  0  0  0  0  0  0  0
  142.5466  139.2508  157.6527 H   0  0  0  0  0  0  0  0  0  0  0  0
  145.6753  138.2107  155.8169 H   0  0  0  0  0  0  0  0  0  0  0  0
  145.4998  139.8957  155.3656 H   0  0  0  0  0  0  0  0  0  0  0  0
  144.5259  139.1977  153.3103 H   0  0  0  0  0  0  0  0  0  0  0  0
  1  2  1  0  0  0  0
  1 21  1  0  0  0  0
  1 22  1  0  0  0  0
  1 23  1  0  0  0  0
  2 20  1  0  0  0  0
  2  3  2  0  0  0  0
  3  4  1  0  0  0  0
  4  5  2  0  0  0  0
  5  6  1  0  0  0  0
  5 20  1  0  0  0  0
  6  7  1  0  0  0  0
  7  8  2  0  0  0  0
  7  9  1  0  0  0  0
  9 10  1  0  0  0  0
  9 24  1  0  0  0  0
 10 11  1  0  0  0  0
 10 25  1  0  0  0  0
 10 26  1  0  0  0  0
 11 12  1  0  0  0  0
 11 27  1  0  0  0  0
 11 28  1  0  0  0  0
 12 19  1  0  0  0  0
 12 13  1  0  0  0  0
 12 41  1  0  0  0  0
 13 14  1  0  0  0  0
 13 29  1  0  0  0  0
 13 30  1  0  0  0  0
 14 15  1  0  0  0  0
 14 16  1  0  0  0  0
 14 31  1  0  0  0  0
 15 32  1  0  0  0  0
 15 33  1  0  0  0  0
 15 34  1  0  0  0  0
 16 17  1  0  0  0  0
 17 18  1  0  0  0  0
 17 19  1  0  0  0  0
 17 35  1  0  0  0  0
 18 36  1  0  0  0  0
 18 37  1  0  0  0  0
 18 38  1  0  0  0  0
 19 39  1  0  0  0  0
 19 40  1  0  0  0  0
M  CHG  1   6  -1
M  CHG  1  12   1
M  END
> <s_m_source_file>
AV-unprocessed.smi

> <i_m_source_file_index>
1641

> <i_lp_mmshare_version>
43012

> <i_f3d_flags>
0

> <s_epik_input>
W0NIM11jMW5uYyhzMSlbTkhdQyg9TylbTkhdW0NIMl1bQ0gyXU4yW0NIMl1bQ0BASF0oW0NIM10pT1tDQEBIXShbQ0gzXSlbQ0gyXTI=

> <s_epik_cmdline>
J2VwaWtfcHl0aG9uJywgJy1waCcsICc3LjAnLCAnLXRuJywgJzgnLCAnLW1hJywgJzIwMCcsICctbWV0YWxfYmluZGluZycsICctaW1hZScsICc8aW5maWxlLm1hZT4nLCAnLW9tYWUnLCAnPG91dGZpbGUubWFlPic=

> <r_lp_tautomer_probability>
1

> <r_epik_Ionization_Penalty>
3.5343

> <r_epik_Ionization_Penalty_Charging>
3.42778

> <r_epik_Ionization_Penalty_Neutral>
0.106519

> <r_epik_State_Penalty>
3.62118

> <r_epik_Charging_Adjusted_Penalty>
7.04896

> <i_epik_Tot_Q>
0

> <i_epik_Tot_abs_Q>
2

> <r_epik_Metal_State_Penalty>
1.13984

> <b_epik_Metal_Only>
1

> <s_lp_Force_Field>
OPLS_2005

> <r_lp_Energy>
7.34164

> <b_lp_Chiralities_Consistent>
1

> <s_lp_Variant>
AV-unprocessed.smi:1641-11

> <Gold.Version>
5.8.1

> <Gold.Id.Protein>
6NUR|6NUR_protein|mol2

> <Gold.PLP.Fitness>
42.6745

> <Gold.PLP.PLP>
-29.1677

> <Gold.PLP.part.hbond>
-4.1107

> <Gold.PLP.part.metal>
0.0000

> <Gold.PLP.part.buried>
-4.1260

> <Gold.PLP.part.nonpolar>
-21.5732

> <Gold.PLP.part.repulsive>
0.3498

> <Gold.PLP.ligand.clash>
0.0000

> <Gold.PLP.ligand.torsion>
0.5184

> <Gold.PLP.Chemscore.Hbond>
4.8244

> <Gold.PLP.Chemscore.CHOScore>
0.0000

> <Gold.PLP.Chemscore.Metal>
0.0000

> <Gold.Chemscore.Hbonds>
donor molecule, donor type, donor heavy atom, donor atom, acceptor molecule, acceptor atom, score
      L1  H     9    24       P1  7957  0.11
      L1  H    12    41       P1 10175  2.00
      P1  H  7989  7998       L1     6  0.80
      P1  H  7997  8008       L1     3  0.40

> <Gold.PLP.Chemscore.Internal.Correction>
0.0704

> <Gold.Rescore>
     Score         DG    S(hbond)    S(metal)    S(lipo)     H(rot)  DE(clash)    DE(int)     intcor
     14.98     -16.85       2.66        0.00      56.29       1.61       0.06       1.81       ----

> <Gold.Chemscore.Fitness>
14.9774

> <Gold.Chemscore.DG>
-16.8465

> <Gold.Chemscore.ZeroCoef>
-5.4800

> <Gold.Chemscore.Hbond>
2.6629

> <Gold.Chemscore.Metal>
0.0000

> <Gold.Chemscore.Lipo>
56.2922

> <Gold.Chemscore.Internal_Hbond>
0.0000

> <Gold.Chemscore.DEClash>
0.0604

> <Gold.Chemscore.DEInternal>
1.8087

> <Gold.Chemscore.Rot>
1.6070

> <Gold.Chemscore.Internal.Correction>
   9.000000E+99

> <Gold.Chemscore.Hbonds>
donor molecule, donor type, donor heavy atom, donor atom, acceptor molecule, acceptor atom, score
      L1  H     9    24       P1  7957  0.11
      L1  H    12    41       P1 10175  1.00
      P1  H  7989  7998       L1     6  0.21
      P1  H  7997  8008       L1     3  0.01

> <Gold.Chemscore.Hbond.Weighted>
-8.8942

> <Gold.Chemscore.Metal.Weighted>
-0.0000

> <Gold.Chemscore.Lipo.Weighted>
-6.5862

> <Gold.Chemscore.Internal_Hbond.Weighted>
0.0000

> <Gold.Chemscore.DEClash.Weighted>
0.0604

> <Gold.Chemscore.DEInternal.Weighted>
1.8087

> <Gold.Chemscore.Rot.Weighted>
4.1139

> <Gold.Chemscore.Internal.Correction.Weighted>
   9.000000E+99

> <Gold.Protein.RotatedTorsions>
[ 6907 6896 6895 6894 ] final  -45.71 input  -60.11 | X-H torsion
[ 7974 7965 7964 7962 ] final   94.61 input  175.53 | X-H torsion
[ 8008 7997 7996 7995 ] final  -63.71 input   59.86 | X-H torsion
[ 10167 10162 10161 10158 ] final   20.61 input  -65.29 | X-H torsion
[ 10718 10713 10712 10709 ] final  169.12 input   66.30 | X-H torsion
[ 10763 10752 10751 10750 ] final  -83.16 input  -60.55 | X-H torsion
[ 11005 11000 10999 10996 ] final -137.69 input  -57.11 | X-H torsion

> <Gold.Protein.ActiveResidues>
 VAL166  LYS551  ARG553  GLY616  TRP617  ASP618  TYR619  PRO620  LYS621  CYS622 
 ASP623  PHE694  ASN695  SER759  ASP760  ASP761  ALA762  ILE779  LEU786  VAL792 
 PHE793  MET794  SER795  GLU796  ALA797  LYS798  CYS799  TRP800  GLU811  SER814 

> <Gold.Protein.RotatedAtoms>
  150.9190  134.8608  159.7476 H   0  0  0  0  0  0  0  0  0  0  0  0  # atno 6907 bound_to 6896
  152.4983  134.4246  159.9502 H   0  0  0  0  0  0  0  0  0  0  0  0  # atno 6908 bound_to 6896
  151.4281  133.3638  159.2800 H   0  0  0  0  0  0  0  0  0  0  0  0  # atno 6909 bound_to 6896
  145.4633  139.2286  143.2975 H   0  0  0  0  0  0  0  0  0  0  0  0  # atno 7974 bound_to 7965
  154.4570  140.0969  156.6784 H   0  0  0  0  0  0  0  0  0  0  0  0  # atno 8008 bound_to 7997
  155.5109  140.3476  155.4370 H   0  0  0  0  0  0  0  0  0  0  0  0  # atno 8009 bound_to 7997
  156.0796  140.1369  156.9717 H   0  0  0  0  0  0  0  0  0  0  0  0  # atno 8010 bound_to 7997
  140.5490  143.9542  150.6566 H   0  0  0  0  0  0  0  0  0  0  0  0  # atno 10167 bound_to 10162
  157.0272  131.0249  151.2756 H   0  0  0  0  0  0  0  0  0  0  0  0  # atno 10718 bound_to 10713
  154.5844  135.5566  153.7217 H   0  0  0  0  0  0  0  0  0  0  0  0  # atno 10763 bound_to 10752
  153.0093  135.6328  154.1937 H   0  0  0  0  0  0  0  0  0  0  0  0  # atno 10764 bound_to 10752
  154.1878  135.2884  155.3012 H   0  0  0  0  0  0  0  0  0  0  0  0  # atno 10765 bound_to 10752
  140.8687  134.2078  157.4664 H   0  0  0  0  0  0  0  0  0  0  0  0  # atno 11005 bound_to 11000
  146.2439  140.5404  142.8922 LP  0  0  0  0  0  0  0  0  0  0  0  0  # atno 17320 bound_to 7965
  144.7990  140.6177  143.6491 LP  0  0  0  0  0  0  0  0  0  0  0  0  # atno 17321 bound_to 7965
  140.2963  143.3290  152.1014 LP  0  0  0  0  0  0  0  0  0  0  0  0  # atno 17342 bound_to 10162
  139.5019  144.6724  151.6210 LP  0  0  0  0  0  0  0  0  0  0  0  0  # atno 17343 bound_to 10162
  157.5205  130.7995  149.7804 LP  0  0  0  0  0  0  0  0  0  0  0  0  # atno 17370 bound_to 10713
  156.0082  130.3845  150.2357 LP  0  0  0  0  0  0  0  0  0  0  0  0  # atno 17371 bound_to 10713
  139.8711  134.9764  156.4919 LP  0  0  0  0  0  0  0  0  0  0  0  0  # atno 17394 bound_to 11000
  140.8599  133.8068  155.9254 LP  0  0  0  0  0  0  0  0  0  0  0  0  # atno 17395 bound_to 11000

$$$$
