AV-unprocessed.smi:16|AV-procd|sdf|91|dock4
  -GOLD-   2262015233D 1   1.00000     0.00000
 Structure written by MMmdl.
 60 64  0  0  0  0  0  0  0  0  2 V2000
  148.0479  142.1298  157.5983 C   0  0  0  0  0  0  0  0  0  0  0  0
  148.8236  143.0897  158.5128 C   0  0  0  0  0  0  0  0  0  0  0  0
  150.0698  143.6045  157.8839 N   0  3  1  0  0  0  0  0  0  0  0  0
  150.7553  144.6419  158.7007 C   0  0  0  0  0  0  0  0  0  0  0  0
  151.5142  144.0317  159.8946 C   0  0  0  0  0  0  0  0  0  0  0  0
  152.5062  142.9660  159.4115 C   0  0  1  0  0  0  0  0  0  0  0  0
  153.1532  142.3643  160.5268 O   0  0  0  0  0  0  0  0  0  0  0  0
  154.1375  141.4206  160.1154 C   0  0  0  0  0  0  0  0  0  0  0  0
  153.4681  140.2983  159.3041 C   0  0  0  0  0  0  0  0  0  0  0  0
  152.7167  140.8541  158.1825 N   0  0  0  0  0  0  0  0  0  0  0  0
  152.2026  139.8811  157.3966 C   0  0  0  0  0  0  0  0  0  0  0  0
  152.5227  139.8290  156.0763 N   0  0  0  0  0  0  0  0  0  0  0  0
  152.0374  138.8453  155.3126 C   0  0  0  0  0  0  0  0  0  0  0  0
  151.2386  137.8342  155.6617 N   0  0  0  0  0  0  0  0  0  0  0  0
  150.9134  137.8896  156.9858 C   0  0  0  0  0  0  0  0  0  0  0  0
  151.3508  138.8728  157.9163 C   0  0  0  0  0  0  0  0  0  0  0  0
  150.8417  138.5997  159.1783 N   0  0  0  0  0  0  0  0  0  0  0  0
  150.1449  137.5092  159.0059 C   0  0  0  0  0  0  0  0  0  0  0  0
  150.1134  137.0272  157.7158 N   0  0  0  0  0  0  0  0  0  0  0  0
  149.4748  135.8231  157.2699 C   0  0  0  0  0  0  0  0  0  0  0  0
  150.2693  134.6993  156.5985 C   0  0  0  0  0  0  0  0  0  0  0  0
  149.0804  134.4054  155.6567 C   0  0  0  0  0  0  0  0  0  0  0  0
  149.4500  134.2315  154.1757 C   0  0  0  0  0  0  0  0  0  0  0  0
  148.3019  134.2484  153.3521 O   0  0  0  0  0  0  0  0  0  0  0  0
  148.1528  133.2282  156.0341 C   0  0  0  0  0  0  0  0  0  0  0  0
  147.6484  133.3103  157.3519 O   0  0  0  0  0  0  0  0  0  0  0  0
  148.5777  135.8185  156.0278 C   0  0  0  0  0  0  0  0  0  0  0  0
  151.7620  141.8819  158.6043 C   0  0  2  0  0  0  0  0  0  0  0  0
  151.0172  142.5527  157.4215 C   0  0  0  0  0  0  0  0  0  0  0  0
  153.2581  143.4491  158.7836 H   0  0  0  0  0  0  0  0  0  0  0  0
  151.0345  141.4027  159.2607 H   0  0  0  0  0  0  0  0  0  0  0  0
  147.0823  141.8797  158.0387 H   0  0  0  0  0  0  0  0  0  0  0  0
  148.5789  141.1912  157.4423 H   0  0  0  0  0  0  0  0  0  0  0  0
  147.8588  142.5789  156.6227 H   0  0  0  0  0  0  0  0  0  0  0  0
  148.1695  143.9341  158.7329 H   0  0  0  0  0  0  0  0  0  0  0  0
  149.0351  142.6125  159.4695 H   0  0  0  0  0  0  0  0  0  0  0  0
  151.4610  145.1699  158.0580 H   0  0  0  0  0  0  0  0  0  0  0  0
  150.0406  145.3910  159.0431 H   0  0  0  0  0  0  0  0  0  0  0  0
  152.0467  144.8157  160.4340 H   0  0  0  0  0  0  0  0  0  0  0  0
  150.8109  143.5932  160.6034 H   0  0  0  0  0  0  0  0  0  0  0  0
  154.9119  141.9166  159.5279 H   0  0  0  0  0  0  0  0  0  0  0  0
  154.6242  141.0071  160.9988 H   0  0  0  0  0  0  0  0  0  0  0  0
  154.2255  139.6044  158.9368 H   0  0  0  0  0  0  0  0  0  0  0  0
  152.7979  139.7296  159.9506 H   0  0  0  0  0  0  0  0  0  0  0  0
  152.3331  138.8696  154.2741 H   0  0  0  0  0  0  0  0  0  0  0  0
  149.6307  137.0229  159.8223 H   0  0  0  0  0  0  0  0  0  0  0  0
  148.9339  135.4416  158.1366 H   0  0  0  0  0  0  0  0  0  0  0  0
  151.1469  135.0736  156.0684 H   0  0  0  0  0  0  0  0  0  0  0  0
  150.5379  133.8799  157.2658 H   0  0  0  0  0  0  0  0  0  0  0  0
  150.1347  135.0133  153.8448 H   0  0  0  0  0  0  0  0  0  0  0  0
  149.9630  133.2834  154.0107 H   0  0  0  0  0  0  0  0  0  0  0  0
  148.3552  134.9982  152.7792 H   0  0  0  0  0  0  0  0  0  0  0  0
  147.2988  133.1784  155.3578 H   0  0  0  0  0  0  0  0  0  0  0  0
  148.6751  132.2752  155.9459 H   0  0  0  0  0  0  0  0  0  0  0  0
  147.8677  134.1593  157.7049 H   0  0  0  0  0  0  0  0  0  0  0  0
  147.5110  135.8850  156.2439 H   0  0  0  0  0  0  0  0  0  0  0  0
  148.8730  136.5779  155.3017 H   0  0  0  0  0  0  0  0  0  0  0  0
  150.4882  141.8213  156.8127 H   0  0  0  0  0  0  0  0  0  0  0  0
  151.7441  143.0179  156.7542 H   0  0  0  0  0  0  0  0  0  0  0  0
  149.7581  144.0831  157.0508 H   0  0  0  0  0  0  0  0  0  0  0  0
  1  2  1  0  0  0  0
  1 32  1  0  0  0  0
  1 33  1  0  0  0  0
  1 34  1  0  0  0  0
  2  3  1  0  0  0  0
  2 35  1  0  0  0  0
  2 36  1  0  0  0  0
  3 29  1  0  0  0  0
  3  4  1  0  0  0  0
  3 60  1  0  0  0  0
  4  5  1  0  0  0  0
  4 37  1  0  0  0  0
  4 38  1  0  0  0  0
  5  6  1  0  0  0  0
  5 39  1  0  0  0  0
  5 40  1  0  0  0  0
  6 30  1  0  0  0  0
  6 28  1  0  0  0  0
  6  7  1  0  0  0  0
  7  8  1  0  0  0  0
  8  9  1  0  0  0  0
  8 41  1  0  0  0  0
  8 42  1  0  0  0  0
  9 10  1  0  0  0  0
  9 43  1  0  0  0  0
  9 44  1  0  0  0  0
 10 11  1  0  0  0  0
 10 28  1  0  0  0  0
 11 16  1  0  0  0  0
 11 12  2  0  0  0  0
 12 13  1  0  0  0  0
 13 14  2  0  0  0  0
 13 45  1  0  0  0  0
 14 15  1  0  0  0  0
 15 19  1  0  0  0  0
 15 16  2  0  0  0  0
 16 17  1  0  0  0  0
 17 18  2  0  0  0  0
 18 19  1  0  0  0  0
 18 46  1  0  0  0  0
 19 20  1  0  0  0  0
 20 27  1  0  0  0  0
 20 21  1  0  0  0  0
 20 47  1  0  0  0  0
 21 22  1  0  0  0  0
 21 48  1  0  0  0  0
 21 49  1  0  0  0  0
 22 23  1  0  0  0  0
 22 25  1  0  0  0  0
 22 27  1  0  0  0  0
 23 24  1  0  0  0  0
 23 50  1  0  0  0  0
 23 51  1  0  0  0  0
 24 52  1  0  0  0  0
 25 26  1  0  0  0  0
 25 53  1  0  0  0  0
 25 54  1  0  0  0  0
 26 55  1  0  0  0  0
 27 56  1  0  0  0  0
 27 57  1  0  0  0  0
 28 31  1  0  0  0  0
 28 29  1  0  0  0  0
 29 58  1  0  0  0  0
 29 59  1  0  0  0  0
M  CHG  1   3   1
M  END
> <s_m_source_file>
AV-unprocessed.smi

> <i_m_source_file_index>
16

> <i_lp_mmshare_version>
43012

> <i_f3d_flags>
0

> <s_epik_input>
W0NIM11bQ0gyXU4oW0NIMl1bQ0gyXTEpW0NIMl1bQ0BASF0oW0NAQEhdMTIpTihbQ0gyXVtDSDJdTzIpYyhuW2NIXW4zKWMoYzM0KW5bY0hdbjRbQ0hdKFtDSDJdNSlbQ0gyXUM1KFtDSDJdW09IXSlbQ0gyXVtPSF0=

> <s_epik_cmdline>
J2VwaWtfcHl0aG9uJywgJy1waCcsICc3LjAnLCAnLXRuJywgJzgnLCAnLW1hJywgJzIwMCcsICctbWV0YWxfYmluZGluZycsICctaW1hZScsICc8aW5maWxlLm1hZT4nLCAnLW9tYWUnLCAnPG91dGZpbGUubWFlPic=

> <r_lp_tautomer_probability>
1

> <r_epik_Ionization_Penalty>
0.0135603

> <r_epik_Ionization_Penalty_Charging>
0.0131385

> <r_epik_Ionization_Penalty_Neutral>
0.000421734

> <r_epik_State_Penalty>
0.0102091

> <r_epik_Charging_Adjusted_Penalty>
0.0233476

> <i_epik_Tot_Q>
1

> <i_epik_Tot_abs_Q>
1

> <r_epik_Metal_State_Penalty>
0.0103746

> <b_epik_Metal_Only>
0

> <s_lp_Force_Field>
OPLS_2005

> <r_lp_Energy>
58.6505

> <b_lp_Chiralities_Consistent>
1

> <s_lp_Variant>
AV-unprocessed.smi:16-5

> <Gold.Version>
5.8.1

> <Gold.Id.Protein>
6NUR|6NUR_protein|mol2

> <Gold.PLP.Fitness>
52.5266

> <Gold.PLP.PLP>
-40.7207

> <Gold.PLP.part.hbond>
-4.7056

> <Gold.PLP.part.metal>
0.0000

> <Gold.PLP.part.buried>
-4.7979

> <Gold.PLP.part.nonpolar>
-31.4062

> <Gold.PLP.part.repulsive>
0.0585

> <Gold.PLP.ligand.clash>
0.0000

> <Gold.PLP.ligand.torsion>
0.3973

> <Gold.PLP.Chemscore.Hbond>
4.0000

> <Gold.PLP.Chemscore.CHOScore>
0.0000

> <Gold.PLP.Chemscore.Metal>
0.0000

> <Gold.Chemscore.Hbonds>
donor molecule, donor type, donor heavy atom, donor atom, acceptor molecule, acceptor atom, score
      L1  H     3    60       P1  8028  2.00
      L1  H    24    52       P1  7948  1.00
      P1  H  7997  8008       L1    12  0.95

> <Gold.PLP.Chemscore.Internal.Correction>
0.6005

> <Gold.Rescore>
     Score         DG    S(hbond)    S(metal)    S(lipo)     H(rot)  DE(clash)    DE(int)     intcor
     16.33     -17.01       2.52        0.00      99.30       3.33       0.27       0.42       ----

> <Gold.Chemscore.Fitness>
16.3285

> <Gold.Chemscore.DG>
-17.0122

> <Gold.Chemscore.ZeroCoef>
-5.4800

> <Gold.Chemscore.Hbond>
2.5230

> <Gold.Chemscore.Metal>
0.0000

> <Gold.Chemscore.Lipo>
99.2961

> <Gold.Chemscore.Internal_Hbond>
0.0000

> <Gold.Chemscore.DEClash>
0.2660

> <Gold.Chemscore.DEInternal>
0.4178

> <Gold.Chemscore.Rot>
3.3251

> <Gold.Chemscore.Internal.Correction>
   9.000000E+99

> <Gold.Chemscore.Hbonds>
donor molecule, donor type, donor heavy atom, donor atom, acceptor molecule, acceptor atom, score
      L1  H     3    60       P1  8028  0.74
      L1  H    24    52       P1  7948  0.69
      P1  H  7997  8008       L1    12  0.21

> <Gold.Chemscore.Hbond.Weighted>
-8.4267

> <Gold.Chemscore.Metal.Weighted>
-0.0000

> <Gold.Chemscore.Lipo.Weighted>
-11.6176

> <Gold.Chemscore.Internal_Hbond.Weighted>
0.0000

> <Gold.Chemscore.DEClash.Weighted>
0.2660

> <Gold.Chemscore.DEInternal.Weighted>
0.4178

> <Gold.Chemscore.Rot.Weighted>
8.5122

> <Gold.Chemscore.Internal.Correction.Weighted>
   9.000000E+99

> <Gold.Protein.RotatedTorsions>
[ 6907 6896 6895 6894 ] final -140.46 input  -60.11 | X-H torsion
[ 7974 7965 7964 7962 ] final   -8.05 input  175.53 | X-H torsion
[ 8008 7997 7996 7995 ] final  -34.81 input   59.86 | X-H torsion
[ 10167 10162 10161 10158 ] final -106.05 input  -65.29 | X-H torsion
[ 10718 10713 10712 10709 ] final  129.08 input   66.30 | X-H torsion
[ 10763 10752 10751 10750 ] final -129.96 input  -60.55 | X-H torsion
[ 11005 11000 10999 10996 ] final  -40.83 input  -57.11 | X-H torsion

> <Gold.Protein.ActiveResidues>
 VAL166  LYS551  ARG553  GLY616  TRP617  ASP618  TYR619  PRO620  LYS621  CYS622 
 ASP623  PHE694  ASN695  SER759  ASP760  ASP761  ALA762  ILE779  LEU786  VAL792 
 PHE793  MET794  SER795  GLU796  ALA797  LYS798  CYS799  TRP800  GLU811  SER814 

> <Gold.Protein.RotatedAtoms>
  151.0610  133.5544  159.2634 H   0  0  0  0  0  0  0  0  0  0  0  0  # atno 6907 bound_to 6896
  151.2519  135.0624  159.9075 H   0  0  0  0  0  0  0  0  0  0  0  0  # atno 6908 bound_to 6896
  152.5397  134.0369  159.8104 H   0  0  0  0  0  0  0  0  0  0  0  0  # atno 6909 bound_to 6896
  146.2291  140.2410  142.8343 H   0  0  0  0  0  0  0  0  0  0  0  0  # atno 7974 bound_to 7965
  154.4111  140.1674  156.2110 H   0  0  0  0  0  0  0  0  0  0  0  0  # atno 8008 bound_to 7997
  155.9444  140.3405  155.6331 H   0  0  0  0  0  0  0  0  0  0  0  0  # atno 8009 bound_to 7997
  155.6948  140.0738  157.2424 H   0  0  0  0  0  0  0  0  0  0  0  0  # atno 8010 bound_to 7997
  140.1919  143.3885  152.1199 H   0  0  0  0  0  0  0  0  0  0  0  0  # atno 10167 bound_to 10162
  157.5187  131.1098  150.9186 H   0  0  0  0  0  0  0  0  0  0  0  0  # atno 10718 bound_to 10713
  154.8756  135.3878  154.4005 H   0  0  0  0  0  0  0  0  0  0  0  0  # atno 10763 bound_to 10752
  153.4730  135.7030  153.5987 H   0  0  0  0  0  0  0  0  0  0  0  0  # atno 10764 bound_to 10752
  153.4436  135.3850  155.2210 H   0  0  0  0  0  0  0  0  0  0  0  0  # atno 10765 bound_to 10752
  141.0203  133.6866  156.2375 H   0  0  0  0  0  0  0  0  0  0  0  0  # atno 11005 bound_to 11000
  144.9484  140.8153  143.5587 LP  0  0  0  0  0  0  0  0  0  0  0  0  # atno 17320 bound_to 7965
  145.2368  139.2090  143.5014 LP  0  0  0  0  0  0  0  0  0  0  0  0  # atno 17321 bound_to 7965
  139.5252  144.7093  151.5256 LP  0  0  0  0  0  0  0  0  0  0  0  0  # atno 17342 bound_to 10162
  140.6450  143.8813  150.6728 LP  0  0  0  0  0  0  0  0  0  0  0  0  # atno 17343 bound_to 10162
  156.9803  130.5524  149.5296 LP  0  0  0  0  0  0  0  0  0  0  0  0  # atno 17370 bound_to 10713
  156.0338  130.5427  150.8602 LP  0  0  0  0  0  0  0  0  0  0  0  0  # atno 17371 bound_to 10713
  140.6585  134.4993  157.5582 LP  0  0  0  0  0  0  0  0  0  0  0  0  # atno 17394 bound_to 11000
  139.9142  134.8281  156.1424 LP  0  0  0  0  0  0  0  0  0  0  0  0  # atno 17395 bound_to 11000

$$$$
