AV-unprocessed.smi:1687|AV-procd|sdf|6768|dock7
  -GOLD-   22720 7533D 1   1.00000     0.00000
 Structure written by MMmdl.
 45 46  0  0  0  0  0  0  0  0  2 V2000
  150.7865  137.1252  156.9033 C   0  0  0  0  0  0  0  0  0  0  0  0
  150.5240  136.5147  155.5155 C   0  0  2  0  0  0  0  0  0  0  0  0
  150.9419  137.4516  154.3668 C   0  0  0  0  0  0  0  0  0  0  0  0
  149.9628  138.6257  154.1861 C   0  0  0  0  0  0  0  0  0  0  0  0
  148.5748  138.1326  153.9845 N   0  3  2  0  0  0  0  0  0  0  0  0
  147.6212  139.1981  153.5562 C   0  0  2  0  0  0  0  0  0  0  0  0
  147.3505  140.2387  154.6654 C   0  0  0  0  0  0  0  0  0  0  0  0
  146.3356  138.5666  152.9736 C   0  0  0  0  0  0  0  0  0  0  0  0
  146.5249  137.1747  152.5732 N   0  0  0  0  0  0  0  0  0  0  0  0
  145.5445  136.2752  152.4013 C   0  0  0  0  0  0  0  0  0  0  0  0
  144.3508  136.5373  152.5532 O   0  0  0  0  0  0  0  0  0  0  0  0
  146.0397  135.0786  152.0397 N   0  0  0  0  0  0  0  0  0  0  0  0
  145.3276  133.8810  151.7641 C   0  0  0  0  0  0  0  0  0  0  0  0
  146.0816  132.6930  151.8952 C   0  0  0  0  0  0  0  0  0  0  0  0
  145.4661  131.4509  151.6465 C   0  0  0  0  0  0  0  0  0  0  0  0
  144.1109  131.4290  151.2721 C   0  0  0  0  0  0  0  0  0  0  0  0
  143.4330  132.6572  151.1632 C   0  0  0  0  0  0  0  0  0  0  0  0
  144.0209  133.8488  151.4010 N   0  0  0  0  0  0  0  0  0  0  0  0
  148.1191  137.2879  155.1228 C   0  0  0  0  0  0  0  0  0  0  0  0
  149.0577  136.0841  155.3216 C   0  0  0  0  0  0  0  0  0  0  0  0
  150.2146  138.0381  157.0670 H   0  0  0  0  0  0  0  0  0  0  0  0
  151.8413  137.3717  157.0275 H   0  0  0  0  0  0  0  0  0  0  0  0
  150.5208  136.4239  157.6950 H   0  0  0  0  0  0  0  0  0  0  0  0
  151.1419  135.6180  155.4513 H   0  0  0  0  0  0  0  0  0  0  0  0
  151.9523  137.8270  154.5332 H   0  0  0  0  0  0  0  0  0  0  0  0
  150.9822  136.8799  153.4384 H   0  0  0  0  0  0  0  0  0  0  0  0
  150.0022  139.2908  155.0490 H   0  0  0  0  0  0  0  0  0  0  0  0
  150.2771  139.2138  153.3233 H   0  0  0  0  0  0  0  0  0  0  0  0
  148.0911  139.7319  152.7287 H   0  0  0  0  0  0  0  0  0  0  0  0
  146.8065  141.0989  154.2750 H   0  0  0  0  0  0  0  0  0  0  0  0
  148.2759  140.6224  155.0938 H   0  0  0  0  0  0  0  0  0  0  0  0
  146.7527  139.8201  155.4758 H   0  0  0  0  0  0  0  0  0  0  0  0
  145.5482  138.5833  153.7280 H   0  0  0  0  0  0  0  0  0  0  0  0
  145.9564  139.1499  152.1339 H   0  0  0  0  0  0  0  0  0  0  0  0
  147.4763  136.8707  152.4255 H   0  0  0  0  0  0  0  0  0  0  0  0
  147.0430  135.0155  151.9505 H   0  0  0  0  0  0  0  0  0  0  0  0
  147.1221  132.7276  152.1847 H   0  0  0  0  0  0  0  0  0  0  0  0
  146.0248  130.5316  151.7422 H   0  0  0  0  0  0  0  0  0  0  0  0
  143.6042  130.4961  151.0738 H   0  0  0  0  0  0  0  0  0  0  0  0
  142.3917  132.6842  150.8784 H   0  0  0  0  0  0  0  0  0  0  0  0
  148.0776  137.8787  156.0383 H   0  0  0  0  0  0  0  0  0  0  0  0
  147.1096  136.9203  154.9422 H   0  0  0  0  0  0  0  0  0  0  0  0
  148.9882  135.4338  154.4483 H   0  0  0  0  0  0  0  0  0  0  0  0
  148.7245  135.4852  156.1701 H   0  0  0  0  0  0  0  0  0  0  0  0
  148.6361  137.5102  153.1916 H   0  0  0  0  0  0  0  0  0  0  0  0
  1  2  1  0  0  0  0
  1 21  1  0  0  0  0
  1 22  1  0  0  0  0
  1 23  1  0  0  0  0
  2 20  1  0  0  0  0
  2  3  1  0  0  0  0
  2 24  1  0  0  0  0
  3  4  1  0  0  0  0
  3 25  1  0  0  0  0
  3 26  1  0  0  0  0
  4  5  1  0  0  0  0
  4 27  1  0  0  0  0
  4 28  1  0  0  0  0
  5  6  1  0  0  0  0
  5 19  1  0  0  0  0
  5 45  1  0  0  0  0
  6  7  1  0  0  0  0
  6  8  1  0  0  0  0
  6 29  1  0  0  0  0
  7 30  1  0  0  0  0
  7 31  1  0  0  0  0
  7 32  1  0  0  0  0
  8  9  1  0  0  0  0
  8 33  1  0  0  0  0
  8 34  1  0  0  0  0
  9 10  1  0  0  0  0
  9 35  1  0  0  0  0
 10 11  2  0  0  0  0
 10 12  1  0  0  0  0
 12 13  1  0  0  0  0
 12 36  1  0  0  0  0
 13 18  1  0  0  0  0
 13 14  2  0  0  0  0
 14 15  1  0  0  0  0
 14 37  1  0  0  0  0
 15 16  2  0  0  0  0
 15 38  1  0  0  0  0
 16 17  1  0  0  0  0
 16 39  1  0  0  0  0
 17 18  2  0  0  0  0
 17 40  1  0  0  0  0
 19 20  1  0  0  0  0
 19 41  1  0  0  0  0
 19 42  1  0  0  0  0
 20 43  1  0  0  0  0
 20 44  1  0  0  0  0
M  CHG  1   5   1
M  END
> <s_m_source_file>
AV-unprocessed.smi

> <i_m_source_file_index>
1687

> <i_lp_mmshare_version>
43012

> <i_f3d_flags>
0

> <s_epik_input>
W0NIM11bQ0hdMVtDSDJdW0NIMl1OKFtDSDJdW0NIMl0xKVtDQEhdKFtDSDNdKVtDSDJdW05IXUMoPU8pW05IXWMyW2NIXVtjSF1bY0hdW2NIXW4y

> <s_epik_cmdline>
J2VwaWtfcHl0aG9uJywgJy1waCcsICc3LjAnLCAnLXRuJywgJzgnLCAnLW1hJywgJzIwMCcsICctbWV0YWxfYmluZGluZycsICctaW1hZScsICc8aW5maWxlLm1hZT4nLCAnLW9tYWUnLCAnPG91dGZpbGUubWFlPic=

> <r_epik_Ionization_Penalty>
0.00142891

> <r_epik_Ionization_Penalty_Charging>
0.00139388

> <r_epik_Ionization_Penalty_Neutral>
3.50347e-05

> <r_epik_State_Penalty>
0.000929204

> <r_epik_Charging_Adjusted_Penalty>
0.00232308

> <i_epik_Tot_Q>
1

> <i_epik_Tot_abs_Q>
1

> <r_epik_Metal_State_Penalty>
-0

> <b_epik_Metal_Only>
0

> <s_lp_Force_Field>
OPLS_2005

> <r_lp_Energy>
23.5172

> <b_lp_Chiralities_Consistent>
1

> <s_lp_Variant>
AV-unprocessed.smi:1687-3

> <Gold.Version>
5.8.1

> <Gold.Id.Protein>
6NUR|6NUR_protein|mol2

> <Gold.PLP.Fitness>
45.1308

> <Gold.PLP.PLP>
-31.9719

> <Gold.PLP.part.hbond>
-2.9383

> <Gold.PLP.part.metal>
0.0000

> <Gold.PLP.part.buried>
-5.5525

> <Gold.PLP.part.nonpolar>
-25.1058

> <Gold.PLP.part.repulsive>
0.4435

> <Gold.PLP.ligand.clash>
0.0000

> <Gold.PLP.ligand.torsion>
0.8509

> <Gold.PLP.Chemscore.Hbond>
3.9120

> <Gold.PLP.Chemscore.CHOScore>
1.0000

> <Gold.PLP.Chemscore.Metal>
0.0000

> <Gold.Chemscore.Hbonds>
donor molecule, donor type, donor heavy atom, donor atom, acceptor molecule, acceptor atom, score
      L1  H     5    45       P1  7948  2.00
      L1  H     9    35       P1  7948  1.00
      L1  H    12    36       P1  7948  0.45
      L1  C    17    40       P1 10186  0.88

> <Gold.PLP.Chemscore.Internal.Correction>
0.1247

> <Gold.Rescore>
     Score         DG    S(hbond)    S(metal)    S(lipo)     H(rot)  DE(clash)    DE(int)     intcor
     18.04     -20.44       2.85        0.00      79.16       1.50       0.09       2.32       ----

> <Gold.Chemscore.Fitness>
18.0387

> <Gold.Chemscore.DG>
-20.4418

> <Gold.Chemscore.ZeroCoef>
-5.4800

> <Gold.Chemscore.Hbond>
2.8529

> <Gold.Chemscore.Metal>
0.0000

> <Gold.Chemscore.Lipo>
79.1620

> <Gold.Chemscore.Internal_Hbond>
0.0000

> <Gold.Chemscore.DEClash>
0.0867

> <Gold.Chemscore.DEInternal>
2.3165

> <Gold.Chemscore.Rot>
1.4956

> <Gold.Chemscore.Internal.Correction>
   9.000000E+99

> <Gold.Chemscore.Hbonds>
donor molecule, donor type, donor heavy atom, donor atom, acceptor molecule, acceptor atom, score
      L1  H     5    45       P1  7948  1.00
      L1  H     9    35       P1  7948  1.00
      L1  H    12    36       P1  7948  0.43

> <Gold.Chemscore.Hbond.Weighted>
-9.5287

> <Gold.Chemscore.Metal.Weighted>
-0.0000

> <Gold.Chemscore.Lipo.Weighted>
-9.2620

> <Gold.Chemscore.Internal_Hbond.Weighted>
0.0000

> <Gold.Chemscore.DEClash.Weighted>
0.0867

> <Gold.Chemscore.DEInternal.Weighted>
2.3165

> <Gold.Chemscore.Rot.Weighted>
3.8289

> <Gold.Chemscore.Internal.Correction.Weighted>
   9.000000E+99

> <Gold.Protein.RotatedTorsions>
[ 6907 6896 6895 6894 ] final  -58.78 input  -60.11 | X-H torsion
[ 7974 7965 7964 7962 ] final  151.45 input  175.53 | X-H torsion
[ 8008 7997 7996 7995 ] final  169.28 input   59.86 | X-H torsion
[ 10167 10162 10161 10158 ] final -145.28 input  -65.29 | X-H torsion
[ 10718 10713 10712 10709 ] final -102.75 input   66.30 | X-H torsion
[ 10763 10752 10751 10750 ] final  -43.56 input  -60.55 | X-H torsion
[ 11005 11000 10999 10996 ] final  -90.26 input  -57.11 | X-H torsion

> <Gold.Protein.ActiveResidues>
 VAL166  LYS551  ARG553  GLY616  TRP617  ASP618  TYR619  PRO620  LYS621  CYS622 
 ASP623  PHE694  ASN695  SER759  ASP760  ASP761  ALA762  ILE779  LEU786  VAL792 
 PHE793  MET794  SER795  GLU796  ALA797  LYS798  CYS799  TRP800  GLU811  SER814 

> <Gold.Protein.RotatedAtoms>
  150.7981  134.7055  159.6573 H   0  0  0  0  0  0  0  0  0  0  0  0  # atno 6907 bound_to 6896
  152.4095  134.6146  160.0044 H   0  0  0  0  0  0  0  0  0  0  0  0  # atno 6908 bound_to 6896
  151.6393  133.3290  159.3162 H   0  0  0  0  0  0  0  0  0  0  0  0  # atno 6909 bound_to 6896
  144.8292  139.6539  143.6066 H   0  0  0  0  0  0  0  0  0  0  0  0  # atno 7974 bound_to 7965
  156.1471  140.1568  156.8828 H   0  0  0  0  0  0  0  0  0  0  0  0  # atno 8008 bound_to 7997
  154.5038  140.0818  156.7890 H   0  0  0  0  0  0  0  0  0  0  0  0  # atno 8009 bound_to 7997
  155.3967  140.3412  155.4256 H   0  0  0  0  0  0  0  0  0  0  0  0  # atno 8010 bound_to 7997
  139.7821  143.8086  152.2640 H   0  0  0  0  0  0  0  0  0  0  0  0  # atno 10167 bound_to 10162
  156.0240  130.5435  150.7153 H   0  0  0  0  0  0  0  0  0  0  0  0  # atno 10718 bound_to 10713
  153.9977  135.6697  153.4757 H   0  0  0  0  0  0  0  0  0  0  0  0  # atno 10763 bound_to 10752
  153.0676  135.4992  154.8231 H   0  0  0  0  0  0  0  0  0  0  0  0  # atno 10764 bound_to 10752
  154.7072  135.3090  154.9216 H   0  0  0  0  0  0  0  0  0  0  0  0  # atno 10765 bound_to 10752
  141.1569  133.7681  156.9712 H   0  0  0  0  0  0  0  0  0  0  0  0  # atno 11005 bound_to 11000
  146.2596  139.6379  142.9371 LP  0  0  0  0  0  0  0  0  0  0  0  0  # atno 17320 bound_to 7965
  145.4933  141.0438  143.2581 LP  0  0  0  0  0  0  0  0  0  0  0  0  # atno 17321 bound_to 7965
  139.8152  144.7319  150.9644 LP  0  0  0  0  0  0  0  0  0  0  0  0  # atno 17342 bound_to 10162
  140.7818  143.4212  151.0839 LP  0  0  0  0  0  0  0  0  0  0  0  0  # atno 17343 bound_to 10162
  157.4782  131.0900  151.0566 LP  0  0  0  0  0  0  0  0  0  0  0  0  # atno 17370 bound_to 10713
  157.1007  130.5981  149.5459 LP  0  0  0  0  0  0  0  0  0  0  0  0  # atno 17371 bound_to 10713
  140.1128  134.9466  157.2091 LP  0  0  0  0  0  0  0  0  0  0  0  0  # atno 17394 bound_to 11000
  140.3171  134.2958  155.7254 LP  0  0  0  0  0  0  0  0  0  0  0  0  # atno 17395 bound_to 11000

$$$$
