AV-unprocessed.smi:2440|AV-procd|sdf|9615|dock4
  -GOLD-   2272013253D 1   1.00000     0.00000
 Structure written by MMmdl.
 52 54  0  0  0  0  0  0  0  0  2 V2000
  147.3812  133.3900  152.5300 C   0  0  0  0  0  0  0  0  0  0  0  0
  148.1989  132.5804  153.5211 C   0  0  0  0  0  0  0  0  0  0  0  0
  147.9544  131.1984  153.6727 C   0  0  0  0  0  0  0  0  0  0  0  0
  148.6327  130.4104  154.5324 N   0  0  0  0  0  0  0  0  0  0  0  0
  149.5920  130.9836  155.2875 C   0  0  0  0  0  0  0  0  0  0  0  0
  149.9196  132.3517  155.2178 C   0  0  0  0  0  0  0  0  0  0  0  0
  149.2175  133.1749  154.3048 C   0  0  0  0  0  0  0  0  0  0  0  0
  149.4548  134.5725  154.1788 N   0  0  0  0  0  0  0  0  0  0  0  0
  150.3130  135.3422  154.8701 C   0  0  0  0  0  0  0  0  0  0  0  0
  151.1041  134.9399  155.7232 O   0  0  0  0  0  0  0  0  0  0  0  0
  150.2215  136.6263  154.4953 N   0  0  0  0  0  0  0  0  0  0  0  0
  151.0162  137.7210  155.0443 C   0  0  2  0  0  0  0  0  0  0  0  0
  151.1062  137.5871  156.5698 C   0  0  0  0  0  0  0  0  0  0  0  0
  151.8614  138.7716  157.1973 C   0  0  0  0  0  0  0  0  0  0  0  0
  151.2406  140.0781  156.8309 N   0  3  1  0  0  0  0  0  0  0  0  0
  151.8252  141.2913  157.4911 C   0  0  0  0  0  0  0  0  0  0  0  0
  151.9057  141.2083  159.0390 C   0  0  0  0  0  0  0  0  0  0  0  0
  152.4821  142.4912  159.6596 C   0  0  0  0  0  0  0  0  0  0  0  0
  151.6698  143.7247  159.2470 C   0  0  0  0  0  0  0  0  0  0  0  0
  151.5906  143.8345  157.7192 C   0  0  0  0  0  0  0  0  0  0  0  0
  151.0161  142.5517  157.0967 C   0  0  0  0  0  0  0  0  0  0  0  0
  151.1714  140.2296  155.3493 C   0  0  0  0  0  0  0  0  0  0  0  0
  150.3906  139.0797  154.6934 C   0  0  0  0  0  0  0  0  0  0  0  0
  146.6870  132.7562  151.9777 H   0  0  0  0  0  0  0  0  0  0  0  0
  148.0343  133.8819  151.8085 H   0  0  0  0  0  0  0  0  0  0  0  0
  146.8014  134.1531  153.0498 H   0  0  0  0  0  0  0  0  0  0  0  0
  147.1893  130.7074  153.0894 H   0  0  0  0  0  0  0  0  0  0  0  0
  150.1108  130.3328  155.9761 H   0  0  0  0  0  0  0  0  0  0  0  0
  150.6859  132.7414  155.8701 H   0  0  0  0  0  0  0  0  0  0  0  0
  148.9451  135.0301  153.4374 H   0  0  0  0  0  0  0  0  0  0  0  0
  149.5485  136.8646  153.7813 H   0  0  0  0  0  0  0  0  0  0  0  0
  152.0283  137.6762  154.6365 H   0  0  0  0  0  0  0  0  0  0  0  0
  150.1036  137.5324  156.9974 H   0  0  0  0  0  0  0  0  0  0  0  0
  151.6050  136.6534  156.8332 H   0  0  0  0  0  0  0  0  0  0  0  0
  151.8404  138.6198  158.2758 H   0  0  0  0  0  0  0  0  0  0  0  0
  152.9074  138.7613  156.8867 H   0  0  0  0  0  0  0  0  0  0  0  0
  152.8487  141.4053  157.1293 H   0  0  0  0  0  0  0  0  0  0  0  0
  150.9141  141.0247  159.4557 H   0  0  0  0  0  0  0  0  0  0  0  0
  152.5414  140.3789  159.3502 H   0  0  0  0  0  0  0  0  0  0  0  0
  152.4956  142.4038  160.7465 H   0  0  0  0  0  0  0  0  0  0  0  0
  153.5198  142.6150  159.3472 H   0  0  0  0  0  0  0  0  0  0  0  0
  150.6640  143.6590  159.6641 H   0  0  0  0  0  0  0  0  0  0  0  0
  152.1204  144.6258  159.6643 H   0  0  0  0  0  0  0  0  0  0  0  0
  150.9739  144.6900  157.4420 H   0  0  0  0  0  0  0  0  0  0  0  0
  152.5845  144.0262  157.3130 H   0  0  0  0  0  0  0  0  0  0  0  0
  150.9878  142.6812  156.0157 H   0  0  0  0  0  0  0  0  0  0  0  0
  149.9789  142.4325  157.4136 H   0  0  0  0  0  0  0  0  0  0  0  0
  150.6934  141.1694  155.0775 H   0  0  0  0  0  0  0  0  0  0  0  0
  152.1829  140.2686  154.9415 H   0  0  0  0  0  0  0  0  0  0  0  0
  150.3758  139.2181  153.6116 H   0  0  0  0  0  0  0  0  0  0  0  0
  149.3510  139.1107  155.0236 H   0  0  0  0  0  0  0  0  0  0  0  0
  150.2880  140.0219  157.1616 H   0  0  0  0  0  0  0  0  0  0  0  0
  1  2  1  0  0  0  0
  1 24  1  0  0  0  0
  1 25  1  0  0  0  0
  1 26  1  0  0  0  0
  2  7  1  0  0  0  0
  2  3  2  0  0  0  0
  3  4  1  0  0  0  0
  3 27  1  0  0  0  0
  4  5  2  0  0  0  0
  5  6  1  0  0  0  0
  5 28  1  0  0  0  0
  6  7  2  0  0  0  0
  6 29  1  0  0  0  0
  7  8  1  0  0  0  0
  8  9  1  0  0  0  0
  8 30  1  0  0  0  0
  9 10  2  0  0  0  0
  9 11  1  0  0  0  0
 11 12  1  0  0  0  0
 11 31  1  0  0  0  0
 12 23  1  0  0  0  0
 12 13  1  0  0  0  0
 12 32  1  0  0  0  0
 13 14  1  0  0  0  0
 13 33  1  0  0  0  0
 13 34  1  0  0  0  0
 14 15  1  0  0  0  0
 14 35  1  0  0  0  0
 14 36  1  0  0  0  0
 15 16  1  0  0  0  0
 15 22  1  0  0  0  0
 15 52  1  0  0  0  0
 16 21  1  0  0  0  0
 16 17  1  0  0  0  0
 16 37  1  0  0  0  0
 17 18  1  0  0  0  0
 17 38  1  0  0  0  0
 17 39  1  0  0  0  0
 18 19  1  0  0  0  0
 18 40  1  0  0  0  0
 18 41  1  0  0  0  0
 19 20  1  0  0  0  0
 19 42  1  0  0  0  0
 19 43  1  0  0  0  0
 20 21  1  0  0  0  0
 20 44  1  0  0  0  0
 20 45  1  0  0  0  0
 21 46  1  0  0  0  0
 21 47  1  0  0  0  0
 22 23  1  0  0  0  0
 22 48  1  0  0  0  0
 22 49  1  0  0  0  0
 23 50  1  0  0  0  0
 23 51  1  0  0  0  0
M  CHG  1  15   1
M  END
> <s_m_source_file>
AV-unprocessed.smi

> <i_m_source_file_index>
2440

> <i_lp_mmshare_version>
43012

> <i_f3d_flags>
0

> <s_epik_input>
W0NIM11jMVtjSF1uW2NIXVtjSF1jMVtOSF1DKD1PKVtOSF1bQ0hdMltDSDJdW0NIMl1OKFtDSDJdW0NIMl0yKVtDSF0zW0NIMl1bQ0gyXVtDSDJdW0NIMl1bQ0gyXTM=

> <s_epik_cmdline>
J2VwaWtfcHl0aG9uJywgJy1waCcsICc3LjAnLCAnLXRuJywgJzgnLCAnLW1hJywgJzIwMCcsICctbWV0YWxfYmluZGluZycsICctaW1hZScsICc8aW5maWxlLm1hZT4nLCAnLW9tYWUnLCAnPG91dGZpbGUubWFlPic=

> <r_epik_Ionization_Penalty>
0.180356

> <r_epik_Ionization_Penalty_Charging>
0.00171891

> <r_epik_Ionization_Penalty_Neutral>
0.178637

> <r_epik_State_Penalty>
0.173134

> <r_epik_Charging_Adjusted_Penalty>
0.174853

> <i_epik_Tot_Q>
1

> <i_epik_Tot_abs_Q>
1

> <r_epik_Metal_State_Penalty>
0.131816

> <b_epik_Metal_Only>
0

> <s_lp_Force_Field>
OPLS_2005

> <r_lp_Energy>
33.4917

> <b_lp_Chiralities_Consistent>
1

> <s_lp_Variant>
AV-unprocessed.smi:2440-1

> <Gold.Version>
5.8.1

> <Gold.Id.Protein>
6NUR|6NUR_protein|mol2

> <Gold.PLP.Fitness>
51.6426

> <Gold.PLP.PLP>
-44.1082

> <Gold.PLP.part.hbond>
-3.7608

> <Gold.PLP.part.metal>
0.0000

> <Gold.PLP.part.buried>
-0.9855

> <Gold.PLP.part.nonpolar>
-39.3162

> <Gold.PLP.part.repulsive>
0.2923

> <Gold.PLP.ligand.clash>
0.0000

> <Gold.PLP.ligand.torsion>
0.2437

> <Gold.PLP.Chemscore.Hbond>
2.6604

> <Gold.PLP.Chemscore.CHOScore>
0.0000

> <Gold.PLP.Chemscore.Metal>
0.0000

> <Gold.Chemscore.Hbonds>
donor molecule, donor type, donor heavy atom, donor atom, acceptor molecule, acceptor atom, score
      L1  H     8    30       P1  7948  0.96
      L1  H    11    31       P1  7948  0.67
      P1  H 10752 10764       L1    10  0.61

> <Gold.PLP.Chemscore.Internal.Correction>
0.0407

> <Gold.Rescore>
     Score         DG    S(hbond)    S(metal)    S(lipo)     H(rot)  DE(clash)    DE(int)     intcor
     19.10     -21.99       1.60        0.00     121.00       1.17       0.12       2.78       ----

> <Gold.Chemscore.Fitness>
19.1038

> <Gold.Chemscore.DG>
-21.9946

> <Gold.Chemscore.ZeroCoef>
-5.4800

> <Gold.Chemscore.Hbond>
1.6040

> <Gold.Chemscore.Metal>
0.0000

> <Gold.Chemscore.Lipo>
120.9964

> <Gold.Chemscore.Internal_Hbond>
0.0000

> <Gold.Chemscore.DEClash>
0.1155

> <Gold.Chemscore.DEInternal>
2.7752

> <Gold.Chemscore.Rot>
1.1715

> <Gold.Chemscore.Internal.Correction>
   9.000000E+99

> <Gold.Chemscore.Hbonds>
donor molecule, donor type, donor heavy atom, donor atom, acceptor molecule, acceptor atom, score
      L1  H     8    30       P1  7948  0.36
      L1  H    11    31       P1  7948  0.57
      P1  H 10752 10764       L1    10  0.21

> <Gold.Chemscore.Hbond.Weighted>
-5.3572

> <Gold.Chemscore.Metal.Weighted>
-0.0000

> <Gold.Chemscore.Lipo.Weighted>
-14.1566

> <Gold.Chemscore.Internal_Hbond.Weighted>
0.0000

> <Gold.Chemscore.DEClash.Weighted>
0.1155

> <Gold.Chemscore.DEInternal.Weighted>
2.7752

> <Gold.Chemscore.Rot.Weighted>
2.9991

> <Gold.Chemscore.Internal.Correction.Weighted>
   9.000000E+99

> <Gold.Protein.RotatedTorsions>
[ 6907 6896 6895 6894 ] final -139.01 input  -60.11 | X-H torsion
[ 7974 7965 7964 7962 ] final   -2.76 input  175.53 | X-H torsion
[ 8008 7997 7996 7995 ] final  -51.25 input   59.86 | X-H torsion
[ 10167 10162 10161 10158 ] final  118.50 input  -65.29 | X-H torsion
[ 10718 10713 10712 10709 ] final  -68.32 input   66.30 | X-H torsion
[ 10763 10752 10751 10750 ] final  -43.60 input  -60.55 | X-H torsion
[ 11005 11000 10999 10996 ] final -156.60 input  -57.11 | X-H torsion

> <Gold.Protein.ActiveResidues>
 VAL166  LYS551  ARG553  GLY616  TRP617  ASP618  TYR619  PRO620  LYS621  CYS622 
 ASP623  PHE694  ASN695  SER759  ASP760  ASP761  ALA762  ILE779  LEU786  VAL792 
 PHE793  MET794  SER795  GLU796  ALA797  LYS798  CYS799  TRP800  GLU811  SER814 

> <Gold.Protein.RotatedAtoms>
  151.0424  133.5695  159.2649 H   0  0  0  0  0  0  0  0  0  0  0  0  # atno 6907 bound_to 6896
  151.2736  135.0691  159.9153 H   0  0  0  0  0  0  0  0  0  0  0  0  # atno 6908 bound_to 6896
  152.5366  134.0150  159.8009 H   0  0  0  0  0  0  0  0  0  0  0  0  # atno 6909 bound_to 6896
  146.2400  140.1619  142.8332 H   0  0  0  0  0  0  0  0  0  0  0  0  # atno 7974 bound_to 7965
  154.4079  140.1252  156.4798 H   0  0  0  0  0  0  0  0  0  0  0  0  # atno 8008 bound_to 7997
  155.7097  140.3494  155.4949 H   0  0  0  0  0  0  0  0  0  0  0  0  # atno 8009 bound_to 7997
  155.9312  140.1070  157.1121 H   0  0  0  0  0  0  0  0  0  0  0  0  # atno 8010 bound_to 7997
  139.6107  144.7081  151.2850 H   0  0  0  0  0  0  0  0  0  0  0  0  # atno 10167 bound_to 10162
  156.0511  130.4293  150.1983 H   0  0  0  0  0  0  0  0  0  0  0  0  # atno 10718 bound_to 10713
  153.9982  135.6697  153.4757 H   0  0  0  0  0  0  0  0  0  0  0  0  # atno 10763 bound_to 10752
  153.0674  135.4993  154.8227 H   0  0  0  0  0  0  0  0  0  0  0  0  # atno 10764 bound_to 10752
  154.7069  135.3089  154.9220 H   0  0  0  0  0  0  0  0  0  0  0  0  # atno 10765 bound_to 10752
  140.6738  134.4219  157.5230 H   0  0  0  0  0  0  0  0  0  0  0  0  # atno 11005 bound_to 11000
  145.0082  140.8691  143.5240 LP  0  0  0  0  0  0  0  0  0  0  0  0  # atno 17320 bound_to 7965
  145.1649  139.2437  143.5372 LP  0  0  0  0  0  0  0  0  0  0  0  0  # atno 17321 bound_to 7965
  140.7317  143.6844  150.7974 LP  0  0  0  0  0  0  0  0  0  0  0  0  # atno 17342 bound_to 10162
  140.0438  143.5319  152.2705 LP  0  0  0  0  0  0  0  0  0  0  0  0  # atno 17343 bound_to 10162
  157.0066  130.9938  151.3377 LP  0  0  0  0  0  0  0  0  0  0  0  0  # atno 17370 bound_to 10713
  157.5438  130.8137  149.8061 LP  0  0  0  0  0  0  0  0  0  0  0  0  # atno 17371 bound_to 10713
  139.8973  134.8639  156.2050 LP  0  0  0  0  0  0  0  0  0  0  0  0  # atno 17394 bound_to 11000
  141.0371  133.6957  156.1532 LP  0  0  0  0  0  0  0  0  0  0  0  0  # atno 17395 bound_to 11000

$$$$
