AV-unprocessed.smi:157|AV-procd|sdf|1317|dock4
  -GOLD-   2262019 13D 1   1.00000     0.00000
 Structure written by MMmdl.
 36 38  0  0  0  0  0  0  0  0  2 V2000
  150.1670  135.9314  158.1283 O   0  0  0  0  0  0  0  0  0  0  0  0
  150.5121  135.9703  156.7600 C   0  0  0  0  0  0  0  0  0  0  0  0
  150.3995  137.4078  156.2226 C   0  0  1  0  0  0  0  0  0  0  0  0
  151.3921  138.2514  156.8004 O   0  0  0  0  0  0  0  0  0  0  0  0
  151.7530  139.2611  155.9033 C   0  0  2  0  0  0  0  0  0  0  0  0
  151.4296  140.5857  156.5156 N   0  0  0  0  0  0  0  0  0  0  0  0
  150.6632  141.5571  155.9751 C   0  0  0  0  0  0  0  0  0  0  0  0
  150.5470  142.6395  156.7259 N   0  3  0  0  0  0  0  0  0  0  0  0
  151.2853  142.4054  157.8663 C   0  0  0  0  0  0  0  0  0  0  0  0
  151.8365  141.1313  157.7111 C   0  0  0  0  0  0  0  0  0  0  0  0
  152.6845  140.4098  158.5649 N   0  0  0  0  0  0  0  0  0  0  0  0
  153.3389  140.9613  159.5347 C   0  0  0  0  0  0  0  0  0  0  0  0
  153.2935  142.2702  159.9864 N   0  0  0  0  0  0  0  0  0  0  0  0
  152.0493  142.9800  160.2262 C   0  0  0  0  0  0  0  0  0  0  0  0
  151.3451  143.4423  158.9435 C   0  0  1  0  0  0  0  0  0  0  0  0
  151.9425  144.6433  158.5028 O   0  0  0  0  0  0  0  0  0  0  0  0
  150.9371  139.0612  154.6221 C   0  0  0  0  0  0  0  0  0  0  0  0
  150.5637  137.5959  154.7077 C   0  0  1  0  0  0  0  0  0  0  0  0
  151.5913  136.7847  154.1705 O   0  0  0  0  0  0  0  0  0  0  0  0
  149.4338  137.8229  156.5173 H   0  0  0  0  0  0  0  0  0  0  0  0
  152.8322  139.2595  155.7471 H   0  0  0  0  0  0  0  0  0  0  0  0
  150.3184  143.7007  159.2049 H   0  0  0  0  0  0  0  0  0  0  0  0
  149.6389  137.3819  154.1709 H   0  0  0  0  0  0  0  0  0  0  0  0
  149.9875  136.8131  158.4183 H   0  0  0  0  0  0  0  0  0  0  0  0
  151.5373  135.6146  156.6553 H   0  0  0  0  0  0  0  0  0  0  0  0
  149.8795  135.2812  156.2001 H   0  0  0  0  0  0  0  0  0  0  0  0
  150.1888  141.4556  155.0154 H   0  0  0  0  0  0  0  0  0  0  0  0
  154.0330  140.3525  160.1159 H   0  0  0  0  0  0  0  0  0  0  0  0
  154.0229  142.5869  160.6097 H   0  0  0  0  0  0  0  0  0  0  0  0
  151.3872  142.3009  160.7657 H   0  0  0  0  0  0  0  0  0  0  0  0
  152.2278  143.8221  160.8961 H   0  0  0  0  0  0  0  0  0  0  0  0
  151.3831  145.0327  157.8479 H   0  0  0  0  0  0  0  0  0  0  0  0
  150.0361  139.6761  154.6572 H   0  0  0  0  0  0  0  0  0  0  0  0
  151.5128  139.3309  153.7357 H   0  0  0  0  0  0  0  0  0  0  0  0
  151.5007  136.7705  153.2296 H   0  0  0  0  0  0  0  0  0  0  0  0
  150.0182  143.4737  156.5042 H   0  0  0  0  0  0  0  0  0  0  0  0
  1  2  1  0  0  0  0
  1 24  1  0  0  0  0
  2  3  1  0  0  0  0
  2 25  1  0  0  0  0
  2 26  1  0  0  0  0
  3 20  1  0  0  0  0
  3 18  1  0  0  0  0
  3  4  1  0  0  0  0
  4  5  1  0  0  0  0
  5 21  1  0  0  0  0
  5  6  1  0  0  0  0
  5 17  1  0  0  0  0
  6 10  1  0  0  0  0
  6  7  1  0  0  0  0
  7  8  2  0  0  0  0
  7 27  1  0  0  0  0
  8  9  1  0  0  0  0
  8 36  1  0  0  0  0
  9 15  1  0  0  0  0
  9 10  2  0  0  0  0
 10 11  1  0  0  0  0
 11 12  2  0  0  0  0
 12 13  1  0  0  0  0
 12 28  1  0  0  0  0
 13 14  1  0  0  0  0
 13 29  1  0  0  0  0
 14 15  1  0  0  0  0
 14 30  1  0  0  0  0
 14 31  1  0  0  0  0
 15 22  1  0  0  0  0
 15 16  1  0  0  0  0
 16 32  1  0  0  0  0
 17 18  1  0  0  0  0
 17 33  1  0  0  0  0
 17 34  1  0  0  0  0
 18 23  1  0  0  0  0
 18 19  1  0  0  0  0
 19 35  1  0  0  0  0
M  CHG  1   8   1
M  END
> <s_m_source_file>
AV-unprocessed.smi

> <i_m_source_file_index>
157

> <i_lp_mmshare_version>
43012

> <i_f3d_flags>
0

> <s_epik_input>
W09IXVtDSDJdW0NASF0xT1tDQEhdKFtDSDJdW0NAQEhdMVtPSF0pbihbY0hdbjIpYyhjMjMpTj1bQ0hdW05IXVtDSDJdW0NASF0zW09IXQ==

> <s_epik_cmdline>
J2VwaWtfcHl0aG9uJywgJy1waCcsICc3LjAnLCAnLXRuJywgJzgnLCAnLW1hJywgJzIwMCcsICctbWV0YWxfYmluZGluZycsICctaW1hZScsICc8aW5maWxlLm1hZT4nLCAnLW9tYWUnLCAnPG91dGZpbGUubWFlPic=

> <r_epik_Ionization_Penalty>
1.68594

> <r_epik_Ionization_Penalty_Charging>
0

> <r_epik_Ionization_Penalty_Neutral>
1.68594

> <r_epik_State_Penalty>
1.79006

> <r_epik_Charging_Adjusted_Penalty>
1.79006

> <i_epik_Tot_Q>
1

> <i_epik_Tot_abs_Q>
1

> <r_epik_Metal_State_Penalty>
5.85324

> <b_epik_Metal_Only>
0

> <s_epik_Chemistry_Notes>
This compound has an imine and may undergo hydrolysis. This compound contains an acetal/aminal-like group ( X-CH(R)-Y where X, Y are N, S, or O) that may be acid/base labile, releasing an aldehyde.

> <s_lp_Force_Field>
OPLS_2005

> <r_lp_Energy>
54.1398

> <b_lp_Chiralities_Consistent>
1

> <s_lp_Variant>
AV-unprocessed.smi:157-27

> <Gold.Version>
5.8.1

> <Gold.Id.Protein>
6NUR|6NUR_protein|mol2

> <Gold.PLP.Fitness>
49.4423

> <Gold.PLP.PLP>
-34.4750

> <Gold.PLP.part.hbond>
-4.9097

> <Gold.PLP.part.metal>
0.0000

> <Gold.PLP.part.buried>
-5.7650

> <Gold.PLP.part.nonpolar>
-22.4699

> <Gold.PLP.part.repulsive>
0.1027

> <Gold.PLP.ligand.clash>
0.0000

> <Gold.PLP.ligand.torsion>
0.0953

> <Gold.PLP.Chemscore.Hbond>
5.0502

> <Gold.PLP.Chemscore.CHOScore>
0.0000

> <Gold.PLP.Chemscore.Metal>
0.0000

> <Gold.Chemscore.Hbonds>
donor molecule, donor type, donor heavy atom, donor atom, acceptor molecule, acceptor atom, score
      L1  H     8    36       P1  8028  2.00
      L1  H    19    35       P1  7949  1.00
      P1  H  6896  6907       L1     1  0.88
      P1  H 10752 10764       L1    19  0.65

> <Gold.PLP.Chemscore.Internal.Correction>
0.0074

> <Gold.Rescore>
     Score         DG    S(hbond)    S(metal)    S(lipo)     H(rot)  DE(clash)    DE(int)     intcor
     10.60     -11.38       2.73        0.00      52.75       3.67       0.05       0.74       ----

> <Gold.Chemscore.Fitness>
10.5952

> <Gold.Chemscore.DG>
-11.3845

> <Gold.Chemscore.ZeroCoef>
-5.4800

> <Gold.Chemscore.Hbond>
2.7297

> <Gold.Chemscore.Metal>
0.0000

> <Gold.Chemscore.Lipo>
52.7523

> <Gold.Chemscore.Internal_Hbond>
0.0000

> <Gold.Chemscore.DEClash>
0.0454

> <Gold.Chemscore.DEInternal>
0.7439

> <Gold.Chemscore.Rot>
3.6659

> <Gold.Chemscore.Internal.Correction>
   9.000000E+99

> <Gold.Chemscore.Hbonds>
donor molecule, donor type, donor heavy atom, donor atom, acceptor molecule, acceptor atom, score
      L1  H     8    36       P1  8028  1.00
      L1  H    19    35       P1  7949  0.89
      P1  H  6896  6907       L1     1  0.66
      P1  H 10752 10764       L1    19  0.06

> <Gold.Chemscore.Hbond.Weighted>
-9.1173

> <Gold.Chemscore.Metal.Weighted>
-0.0000

> <Gold.Chemscore.Lipo.Weighted>
-6.1720

> <Gold.Chemscore.Internal_Hbond.Weighted>
0.0000

> <Gold.Chemscore.DEClash.Weighted>
0.0454

> <Gold.Chemscore.DEInternal.Weighted>
0.7439

> <Gold.Chemscore.Rot.Weighted>
9.3848

> <Gold.Chemscore.Internal.Correction.Weighted>
   9.000000E+99

> <Gold.Protein.RotatedTorsions>
[ 6907 6896 6895 6894 ] final  -54.97 input  -60.11 | X-H torsion
[ 7974 7965 7964 7962 ] final  150.35 input  175.53 | X-H torsion
[ 8008 7997 7996 7995 ] final   35.03 input   59.86 | X-H torsion
[ 10167 10162 10161 10158 ] final  -24.27 input  -65.29 | X-H torsion
[ 10718 10713 10712 10709 ] final  -87.92 input   66.30 | X-H torsion
[ 10763 10752 10751 10750 ] final  -87.15 input  -60.55 | X-H torsion
[ 11005 11000 10999 10996 ] final   66.81 input  -57.11 | X-H torsion

> <Gold.Protein.ActiveResidues>
 VAL166  LYS551  ARG553  GLY616  TRP617  ASP618  TYR619  PRO620  LYS621  CYS622 
 ASP623  PHE694  ASN695  SER759  ASP760  ASP761  ALA762  ILE779  LEU786  VAL792 
 PHE793  MET794  SER795  GLU796  ALA797  LYS798  CYS799  TRP800  GLU811  SER814 

> <Gold.Protein.RotatedAtoms>
  150.8292  134.7537  159.6838 H   0  0  0  0  0  0  0  0  0  0  0  0  # atno 6907 bound_to 6896
  152.4399  134.5609  159.9903 H   0  0  0  0  0  0  0  0  0  0  0  0  # atno 6908 bound_to 6896
  151.5774  133.3344  159.3037 H   0  0  0  0  0  0  0  0  0  0  0  0  # atno 6909 bound_to 6896
  144.8371  139.6397  143.6033 H   0  0  0  0  0  0  0  0  0  0  0  0  # atno 7974 bound_to 7965
  155.1644  140.3286  155.4405 H   0  0  0  0  0  0  0  0  0  0  0  0  # atno 8008 bound_to 7997
  156.2531  140.1954  156.6701 H   0  0  0  0  0  0  0  0  0  0  0  0  # atno 8009 bound_to 7997
  154.6382  140.0573  156.9800 H   0  0  0  0  0  0  0  0  0  0  0  0  # atno 8010 bound_to 7997
  140.7288  143.4368  151.0717 H   0  0  0  0  0  0  0  0  0  0  0  0  # atno 10167 bound_to 10162
  155.9984  130.4817  150.4941 H   0  0  0  0  0  0  0  0  0  0  0  0  # atno 10718 bound_to 10713
  154.6304  135.5423  153.7674 H   0  0  0  0  0  0  0  0  0  0  0  0  # atno 10763 bound_to 10752
  153.0281  135.6434  154.1309 H   0  0  0  0  0  0  0  0  0  0  0  0  # atno 10764 bound_to 10752
  154.1240  135.2918  155.3181 H   0  0  0  0  0  0  0  0  0  0  0  0  # atno 10765 bound_to 10752
  139.9809  134.6745  156.0264 H   0  0  0  0  0  0  0  0  0  0  0  0  # atno 11005 bound_to 11000
  146.2668  139.6540  142.9324 LP  0  0  0  0  0  0  0  0  0  0  0  0  # atno 17320 bound_to 7965
  145.4772  141.0437  143.2666 LP  0  0  0  0  0  0  0  0  0  0  0  0  # atno 17321 bound_to 7965
  139.8031  143.8056  152.3165 LP  0  0  0  0  0  0  0  0  0  0  0  0  # atno 17342 bound_to 10162
  139.8079  144.7347  150.9736 LP  0  0  0  0  0  0  0  0  0  0  0  0  # atno 17343 bound_to 10162
  157.2933  131.0630  151.2119 LP  0  0  0  0  0  0  0  0  0  0  0  0  # atno 17370 bound_to 10713
  157.3124  130.6896  149.6223 LP  0  0  0  0  0  0  0  0  0  0  0  0  # atno 17371 bound_to 10713
  141.1481  133.6552  156.3929 LP  0  0  0  0  0  0  0  0  0  0  0  0  # atno 17394 bound_to 11000
  140.5098  134.6406  157.5280 LP  0  0  0  0  0  0  0  0  0  0  0  0  # atno 17395 bound_to 11000

$$$$
