AV-unprocessed.smi:2448|AV-procd|sdf|9654|dock4
  -GOLD-   2272013283D 1   1.00000     0.00000
 Structure written by MMmdl.
 37 38  0  0  0  0  0  0  0  0  1 V2000
  149.7292  143.2485  159.1445 O   0  0  0  0  0  0  0  0  0  0  0  0
  151.0372  143.3777  158.6153 C   0  0  2  0  0  0  0  0  0  0  0  0
  151.1107  142.5787  157.2987 C   0  0  0  0  0  0  0  0  0  0  0  0
  149.8262  142.5603  156.5928 N   0  0  0  0  0  0  0  0  0  0  0  0
  149.6175  141.4354  155.6696 C   0  0  1  0  0  0  0  0  0  0  0  0
  149.9197  140.0657  156.3309 C   0  0  0  0  0  0  0  0  0  0  0  0
  150.8757  139.1725  155.5608 C   0  0  0  0  0  0  0  0  0  0  0  0
  152.2572  139.4536  155.5298 C   0  0  0  0  0  0  0  0  0  0  0  0
  153.1032  138.5877  154.8081 C   0  0  0  0  0  0  0  0  0  0  0  0
  152.6581  137.5006  154.1422 N   0  0  0  0  0  0  0  0  0  0  0  0
  151.3332  137.2410  154.1705 C   0  0  0  0  0  0  0  0  0  0  0  0
  150.4020  138.0433  154.8596 C   0  0  0  0  0  0  0  0  0  0  0  0
  148.1723  141.4753  155.1295 C   0  0  0  0  0  0  0  0  0  0  0  0
  147.3146  141.6086  156.1420 F   0  0  0  0  0  0  0  0  0  0  0  0
  148.0120  142.5165  154.3126 F   0  0  0  0  0  0  0  0  0  0  0  0
  147.8828  140.3553  154.4657 F   0  0  0  0  0  0  0  0  0  0  0  0
  152.0737  142.9398  159.6658 C   0  0  0  0  0  0  0  0  0  0  0  0
  152.1341  144.0228  160.7473 C   0  0  0  0  0  0  0  0  0  0  0  0
  151.8344  145.6175  159.9453 S   0  0  0  0  0  0  0  0  0  0  0  0
  151.3014  144.8751  158.3795 C   0  0  0  0  0  0  0  0  0  0  0  0
  149.7893  143.2214  160.0871 H   0  0  0  0  0  0  0  0  0  0  0  0
  151.8842  142.9997  156.6550 H   0  0  0  0  0  0  0  0  0  0  0  0
  151.4321  141.5680  157.5342 H   0  0  0  0  0  0  0  0  0  0  0  0
  149.7183  143.4312  156.0825 H   0  0  0  0  0  0  0  0  0  0  0  0
  150.2697  141.5580  154.8036 H   0  0  0  0  0  0  0  0  0  0  0  0
  150.2973  140.2180  157.3430 H   0  0  0  0  0  0  0  0  0  0  0  0
  148.9936  139.5022  156.4449 H   0  0  0  0  0  0  0  0  0  0  0  0
  152.6624  140.3101  156.0485 H   0  0  0  0  0  0  0  0  0  0  0  0
  154.1662  138.7733  154.7659 H   0  0  0  0  0  0  0  0  0  0  0  0
  151.0045  136.3666  153.6288 H   0  0  0  0  0  0  0  0  0  0  0  0
  149.3523  137.7887  154.8560 H   0  0  0  0  0  0  0  0  0  0  0  0
  151.8481  141.9622  160.0933 H   0  0  0  0  0  0  0  0  0  0  0  0
  153.0529  142.8596  159.1912 H   0  0  0  0  0  0  0  0  0  0  0  0
  151.3464  143.8608  161.4835 H   0  0  0  0  0  0  0  0  0  0  0  0
  153.0874  144.0226  161.2760 H   0  0  0  0  0  0  0  0  0  0  0  0
  152.1219  145.0036  157.6724 H   0  0  0  0  0  0  0  0  0  0  0  0
  150.4373  145.3985  157.9683 H   0  0  0  0  0  0  0  0  0  0  0  0
  1  2  1  0  0  0  0
  1 21  1  0  0  0  0
  2 20  1  0  0  0  0
  2  3  1  0  0  0  0
  2 17  1  0  0  0  0
  3  4  1  0  0  0  0
  3 22  1  0  0  0  0
  3 23  1  0  0  0  0
  4  5  1  0  0  0  0
  4 24  1  0  0  0  0
  5  6  1  0  0  0  0
  5 13  1  0  0  0  0
  5 25  1  0  0  0  0
  6  7  1  0  0  0  0
  6 26  1  0  0  0  0
  6 27  1  0  0  0  0
  7 12  1  0  0  0  0
  7  8  2  0  0  0  0
  8  9  1  0  0  0  0
  8 28  1  0  0  0  0
  9 10  2  0  0  0  0
  9 29  1  0  0  0  0
 10 11  1  0  0  0  0
 11 12  2  0  0  0  0
 11 30  1  0  0  0  0
 12 31  1  0  0  0  0
 13 14  1  0  0  0  0
 13 15  1  0  0  0  0
 13 16  1  0  0  0  0
 17 18  1  0  0  0  0
 17 32  1  0  0  0  0
 17 33  1  0  0  0  0
 18 19  1  0  0  0  0
 18 34  1  0  0  0  0
 18 35  1  0  0  0  0
 19 20  1  0  0  0  0
 20 36  1  0  0  0  0
 20 37  1  0  0  0  0
M  END
> <s_m_source_file>
AV-unprocessed.smi

> <i_m_source_file_index>
2448

> <i_lp_mmshare_version>
43012

> <i_f3d_flags>
0

> <s_epik_input>
W0NIMl0xU1tDSDJdW0NIMl1bQ0BAXTEoW09IXSlbQ0gyXVtOSF1bQ0BASF0oQyhGKShGKUYpW0NIMl1jMltjSF1bY0hdbltjSF1bY0hdMg==

> <s_epik_cmdline>
J2VwaWtfcHl0aG9uJywgJy1waCcsICc3LjAnLCAnLXRuJywgJzgnLCAnLW1hJywgJzIwMCcsICctbWV0YWxfYmluZGluZycsICctaW1hZScsICc8aW5maWxlLm1hZT4nLCAnLW9tYWUnLCAnPG91dGZpbGUubWFlPic=

> <r_epik_Ionization_Penalty>
0.187708

> <r_epik_Ionization_Penalty_Charging>
0

> <r_epik_Ionization_Penalty_Neutral>
0.187708

> <r_epik_State_Penalty>
0.22769

> <r_epik_Charging_Adjusted_Penalty>
0.22769

> <i_epik_Tot_Q>
0

> <i_epik_Tot_abs_Q>
0

> <r_epik_Metal_State_Penalty>
0.176206

> <b_epik_Metal_Only>
0

> <s_lp_Force_Field>
OPLS_2005

> <r_lp_Energy>
32.1686

> <b_lp_Chiralities_Consistent>
1

> <s_lp_Variant>
AV-unprocessed.smi:2448-4

> <Gold.Version>
5.8.1

> <Gold.Id.Protein>
6NUR|6NUR_protein|mol2

> <Gold.PLP.Fitness>
46.4413

> <Gold.PLP.PLP>
-41.9600

> <Gold.PLP.part.hbond>
-2.8663

> <Gold.PLP.part.metal>
0.0000

> <Gold.PLP.part.buried>
0.5702

> <Gold.PLP.part.nonpolar>
-40.7961

> <Gold.PLP.part.repulsive>
0.1217

> <Gold.PLP.ligand.clash>
0.0000

> <Gold.PLP.ligand.torsion>
1.7328

> <Gold.PLP.Chemscore.Hbond>
1.4480

> <Gold.PLP.Chemscore.CHOScore>
0.9937

> <Gold.PLP.Chemscore.Metal>
0.0000

> <Gold.Chemscore.Hbonds>
donor molecule, donor type, donor heavy atom, donor atom, acceptor molecule, acceptor atom, score
      L1  H     4    24       P1  8028  1.00
      P1  H 10752 10765       L1    10  0.44
      L1  C    11    30       P1  7949  0.95

> <Gold.PLP.Chemscore.Internal.Correction>
0.6219

> <Gold.Rescore>
     Score         DG    S(hbond)    S(metal)    S(lipo)     H(rot)  DE(clash)    DE(int)     intcor
     15.76     -18.16       1.47        0.00     116.98       2.31       0.91       1.48       ----

> <Gold.Chemscore.Fitness>
15.7578

> <Gold.Chemscore.DG>
-18.1556

> <Gold.Chemscore.ZeroCoef>
-5.4800

> <Gold.Chemscore.Hbond>
1.4686

> <Gold.Chemscore.Metal>
0.0000

> <Gold.Chemscore.Lipo>
116.9802

> <Gold.Chemscore.Internal_Hbond>
0.0000

> <Gold.Chemscore.DEClash>
0.9138

> <Gold.Chemscore.DEInternal>
1.4840

> <Gold.Chemscore.Rot>
2.3111

> <Gold.Chemscore.Internal.Correction>
   9.000000E+99

> <Gold.Chemscore.Hbonds>
donor molecule, donor type, donor heavy atom, donor atom, acceptor molecule, acceptor atom, score
      L1  H     4    24       P1  8028  0.95
      P1  H 10752 10765       L1    10  0.07

> <Gold.Chemscore.Hbond.Weighted>
-4.9053

> <Gold.Chemscore.Metal.Weighted>
-0.0000

> <Gold.Chemscore.Lipo.Weighted>
-13.6867

> <Gold.Chemscore.Internal_Hbond.Weighted>
0.0000

> <Gold.Chemscore.DEClash.Weighted>
0.9138

> <Gold.Chemscore.DEInternal.Weighted>
1.4840

> <Gold.Chemscore.Rot.Weighted>
5.9164

> <Gold.Chemscore.Internal.Correction.Weighted>
   9.000000E+99

> <Gold.Protein.RotatedTorsions>
[ 6907 6896 6895 6894 ] final   54.47 input  -60.11 | X-H torsion
[ 7974 7965 7964 7962 ] final  -59.90 input  175.53 | X-H torsion
[ 8008 7997 7996 7995 ] final  175.10 input   59.86 | X-H torsion
[ 10167 10162 10161 10158 ] final -137.17 input  -65.29 | X-H torsion
[ 10718 10713 10712 10709 ] final -166.38 input   66.30 | X-H torsion
[ 10763 10752 10751 10750 ] final  126.13 input  -60.55 | X-H torsion
[ 11005 11000 10999 10996 ] final  137.93 input  -57.11 | X-H torsion

> <Gold.Protein.ActiveResidues>
 VAL166  LYS551  ARG553  GLY616  TRP617  ASP618  TYR619  PRO620  LYS621  CYS622 
 ASP623  PHE694  ASN695  SER759  ASP760  ASP761  ALA762  ILE779  LEU786  VAL792 
 PHE793  MET794  SER795  GLU796  ALA797  LYS798  CYS799  TRP800  GLU811  SER814 

> <Gold.Protein.RotatedAtoms>
  152.3442  134.7093  160.0254 H   0  0  0  0  0  0  0  0  0  0  0  0  # atno 6907 bound_to 6896
  151.7469  133.3319  159.3389 H   0  0  0  0  0  0  0  0  0  0  0  0  # atno 6908 bound_to 6896
  150.7499  134.6161  159.6156 H   0  0  0  0  0  0  0  0  0  0  0  0  # atno 6909 bound_to 6896
  145.8219  140.8534  143.0128 H   0  0  0  0  0  0  0  0  0  0  0  0  # atno 7974 bound_to 7965
  156.0905  140.1417  156.9598 H   0  0  0  0  0  0  0  0  0  0  0  0  # atno 8008 bound_to 7997
  154.4639  140.0933  156.7015 H   0  0  0  0  0  0  0  0  0  0  0  0  # atno 8009 bound_to 7997
  155.4927  140.3448  155.4360 H   0  0  0  0  0  0  0  0  0  0  0  0  # atno 8010 bound_to 7997
  139.8604  143.7084  152.2650 H   0  0  0  0  0  0  0  0  0  0  0  0  # atno 10167 bound_to 10162
  156.6670  130.9068  151.3038 H   0  0  0  0  0  0  0  0  0  0  0  0  # atno 10718 bound_to 10713
  153.6885  135.3303  155.3196 H   0  0  0  0  0  0  0  0  0  0  0  0  # atno 10763 bound_to 10752
  154.8446  135.4426  154.1533 H   0  0  0  0  0  0  0  0  0  0  0  0  # atno 10764 bound_to 10752
  153.2568  135.6987  153.7698 H   0  0  0  0  0  0  0  0  0  0  0  0  # atno 10765 bound_to 10752
  140.0148  134.9423  157.0353 H   0  0  0  0  0  0  0  0  0  0  0  0  # atno 11005 bound_to 11000
  144.6747  140.0546  143.7478 LP  0  0  0  0  0  0  0  0  0  0  0  0  # atno 17320 bound_to 7965
  145.9665  139.2838  143.1124 LP  0  0  0  0  0  0  0  0  0  0  0  0  # atno 17321 bound_to 7965
  139.7379  144.7567  151.0699 LP  0  0  0  0  0  0  0  0  0  0  0  0  # atno 17342 bound_to 10162
  140.7776  143.5008  150.9773 LP  0  0  0  0  0  0  0  0  0  0  0  0  # atno 17343 bound_to 10162
  157.7090  130.9418  150.1026 LP  0  0  0  0  0  0  0  0  0  0  0  0  # atno 17370 bound_to 10713
  156.1968  130.3658  149.8839 LP  0  0  0  0  0  0  0  0  0  0  0  0  # atno 17371 bound_to 10713
  140.4490  134.1602  155.7180 LP  0  0  0  0  0  0  0  0  0  0  0  0  # atno 17394 bound_to 11000
  141.1735  133.8560  157.1495 LP  0  0  0  0  0  0  0  0  0  0  0  0  # atno 17395 bound_to 11000

$$$$
