AV-unprocessed.smi:2154|AV-procd|sdf|8776|dock2
  -GOLD-   2272011553D 1   1.00000     0.00000
 Structure written by MMmdl.
 31 32  0  0  0  0  0  0  0  0  2 V2000
  149.7724  144.9594  159.8264 C   0  0  0  0  0  0  0  0  0  0  0  0
  151.2364  145.2721  160.0628 C   0  0  2  0  0  0  0  0  0  0  0  0
  152.2100  145.3139  158.9086 C   0  0  0  0  0  0  0  0  0  0  0  0
  152.3211  144.2190  159.9452 C   0  0  2  0  0  0  0  0  0  0  0  0
  152.0048  142.7744  159.5969 C   0  0  0  0  0  0  0  0  0  0  0  0
  151.8563  142.5051  158.1730 N   0  0  0  0  0  0  0  0  0  0  0  0
  150.8813  141.7615  157.6296 C   0  0  0  0  0  0  0  0  0  0  0  0
  149.9860  141.2345  158.2918 O   0  0  0  0  0  0  0  0  0  0  0  0
  150.9131  141.6208  156.1016 C   0  0  0  0  0  0  0  0  0  0  0  0
  151.1353  140.2358  155.6558 N   0  0  0  0  0  0  0  0  0  0  0  0
  150.2874  139.7261  154.6567 C   0  0  0  0  0  0  0  0  0  0  0  0
  150.4148  138.4693  154.1899 C   0  0  0  0  0  0  0  0  0  0  0  0
  151.4670  137.6290  154.7481 C   0  0  0  0  0  0  0  0  0  0  0  0
  151.6010  136.4803  154.3304 O   0  0  0  0  0  0  0  0  0  0  0  0
  152.2614  138.1677  155.7193 N   0  5  0  0  0  0  0  0  0  0  0  0
  152.1183  139.4470  156.1861 C   0  0  0  0  0  0  0  0  0  0  0  0
  152.8445  139.9127  157.0651 O   0  0  0  0  0  0  0  0  0  0  0  0
  149.6398  144.3223  158.9521 H   0  0  0  0  0  0  0  0  0  0  0  0
  149.2174  145.8829  159.6616 H   0  0  0  0  0  0  0  0  0  0  0  0
  149.3524  144.4526  160.6950 H   0  0  0  0  0  0  0  0  0  0  0  0
  151.3933  146.0107  160.8466 H   0  0  0  0  0  0  0  0  0  0  0  0
  151.8411  145.0392  157.9221 H   0  0  0  0  0  0  0  0  0  0  0  0
  152.9713  146.0914  158.9183 H   0  0  0  0  0  0  0  0  0  0  0  0
  153.1299  144.3188  160.6669 H   0  0  0  0  0  0  0  0  0  0  0  0
  152.8192  142.1504  159.9654 H   0  0  0  0  0  0  0  0  0  0  0  0
  151.1061  142.4494  160.1232 H   0  0  0  0  0  0  0  0  0  0  0  0
  152.5491  142.9033  157.5559 H   0  0  0  0  0  0  0  0  0  0  0  0
  149.9696  142.0005  155.7074 H   0  0  0  0  0  0  0  0  0  0  0  0
  151.6811  142.2756  155.6852 H   0  0  0  0  0  0  0  0  0  0  0  0
  149.5310  140.4106  154.3021 H   0  0  0  0  0  0  0  0  0  0  0  0
  149.7531  138.0922  153.4241 H   0  0  0  0  0  0  0  0  0  0  0  0
  1  2  1  0  0  0  0
  1 18  1  0  0  0  0
  1 19  1  0  0  0  0
  1 20  1  0  0  0  0
  2  4  1  0  0  0  0
  2  3  1  0  0  0  0
  2 21  1  0  0  0  0
  3  4  1  0  0  0  0
  3 22  1  0  0  0  0
  3 23  1  0  0  0  0
  4  5  1  0  0  0  0
  4 24  1  0  0  0  0
  5  6  1  0  0  0  0
  5 25  1  0  0  0  0
  5 26  1  0  0  0  0
  6  7  1  0  0  0  0
  6 27  1  0  0  0  0
  7  8  2  0  0  0  0
  7  9  1  0  0  0  0
  9 10  1  0  0  0  0
  9 28  1  0  0  0  0
  9 29  1  0  0  0  0
 10 16  1  0  0  0  0
 10 11  1  0  0  0  0
 11 12  2  0  0  0  0
 11 30  1  0  0  0  0
 12 13  1  0  0  0  0
 12 31  1  0  0  0  0
 13 14  2  0  0  0  0
 13 15  1  0  0  0  0
 15 16  1  0  0  0  0
 16 17  2  0  0  0  0
M  CHG  1  15  -1
M  END
> <s_m_source_file>
AV-unprocessed.smi

> <i_m_source_file_index>
2154

> <i_lp_mmshare_version>
43012

> <i_f3d_flags>
0

> <s_epik_input>
W0NIM11bQ0BASF0xW0NIMl1bQ0BIXTFbQ0gyXVtOSF1DKD1PKVtDSDJdbjJbY0hdW2NIXWMoPU8pW25IXWMyPU8=

> <s_epik_cmdline>
J2VwaWtfcHl0aG9uJywgJy1waCcsICc3LjAnLCAnLXRuJywgJzgnLCAnLW1hJywgJzIwMCcsICctbWV0YWxfYmluZGluZycsICctaW1hZScsICc8aW5maWxlLm1hZT4nLCAnLW9tYWUnLCAnPG91dGZpbGUubWFlPic=

> <r_lp_tautomer_probability>
0.999537

> <r_epik_Ionization_Penalty>
3.12283

> <r_epik_Ionization_Penalty_Charging>
2.83566e-08

> <r_epik_Ionization_Penalty_Neutral>
3.12283

> <r_epik_State_Penalty>
3.12192

> <r_epik_Charging_Adjusted_Penalty>
3.12192

> <i_epik_Tot_Q>
-1

> <i_epik_Tot_abs_Q>
1

> <r_epik_Metal_State_Penalty>
0.463748

> <b_epik_Metal_Only>
1

> <s_lp_Force_Field>
OPLS_2005

> <r_lp_Energy>
24.9188

> <b_lp_Chiralities_Consistent>
1

> <s_lp_Variant>
AV-unprocessed.smi:2154-7

> <Gold.Version>
5.8.1

> <Gold.Id.Protein>
6NUR|6NUR_protein|mol2

> <Gold.PLP.Fitness>
44.0033

> <Gold.PLP.PLP>
-38.9026

> <Gold.PLP.part.hbond>
-2.0000

> <Gold.PLP.part.metal>
0.0000

> <Gold.PLP.part.buried>
-4.9173

> <Gold.PLP.part.nonpolar>
-33.0429

> <Gold.PLP.part.repulsive>
1.3032

> <Gold.PLP.ligand.clash>
0.0000

> <Gold.PLP.ligand.torsion>
0.7210

> <Gold.PLP.Chemscore.Hbond>
2.0000

> <Gold.PLP.Chemscore.CHOScore>
0.0000

> <Gold.PLP.Chemscore.Metal>
0.0000

> <Gold.Chemscore.Hbonds>
donor molecule, donor type, donor heavy atom, donor atom, acceptor molecule, acceptor atom, score
      P1  H  7997  8009       L1    17  1.00
      P1  H 10752 10765       L1    14  1.00

> <Gold.PLP.Chemscore.Internal.Correction>
0.5426

> <Gold.Rescore>
     Score         DG    S(hbond)    S(metal)    S(lipo)     H(rot)  DE(clash)    DE(int)     intcor
     12.72     -16.01       1.94        0.00      77.49       1.96       0.07       3.21       ----

> <Gold.Chemscore.Fitness>
12.7247

> <Gold.Chemscore.DG>
-16.0109

> <Gold.Chemscore.ZeroCoef>
-5.4800

> <Gold.Chemscore.Hbond>
1.9416

> <Gold.Chemscore.Metal>
0.0000

> <Gold.Chemscore.Lipo>
77.4871

> <Gold.Chemscore.Internal_Hbond>
0.0000

> <Gold.Chemscore.DEClash>
0.0733

> <Gold.Chemscore.DEInternal>
3.2129

> <Gold.Chemscore.Rot>
1.9609

> <Gold.Chemscore.Internal.Correction>
   9.000000E+99

> <Gold.Chemscore.Hbonds>
donor molecule, donor type, donor heavy atom, donor atom, acceptor molecule, acceptor atom, score
      P1  H  7997  8009       L1    17  0.95
      P1  H 10752 10765       L1    14  0.97

> <Gold.Chemscore.Hbond.Weighted>
-6.4848

> <Gold.Chemscore.Metal.Weighted>
-0.0000

> <Gold.Chemscore.Lipo.Weighted>
-9.0660

> <Gold.Chemscore.Internal_Hbond.Weighted>
0.0000

> <Gold.Chemscore.DEClash.Weighted>
0.0733

> <Gold.Chemscore.DEInternal.Weighted>
3.2129

> <Gold.Chemscore.Rot.Weighted>
5.0200

> <Gold.Chemscore.Internal.Correction.Weighted>
   9.000000E+99

> <Gold.Protein.RotatedTorsions>
[ 6907 6896 6895 6894 ] final  -21.19 input  -60.11 | X-H torsion
[ 7974 7965 7964 7962 ] final  137.61 input  175.53 | X-H torsion
[ 8008 7997 7996 7995 ] final  168.53 input   59.86 | X-H torsion
[ 10167 10162 10161 10158 ] final  113.57 input  -65.29 | X-H torsion
[ 10718 10713 10712 10709 ] final -131.23 input   66.30 | X-H torsion
[ 10763 10752 10751 10750 ] final  162.75 input  -60.55 | X-H torsion
[ 11005 11000 10999 10996 ] final -176.61 input  -57.11 | X-H torsion

> <Gold.Protein.ActiveResidues>
 VAL166  LYS551  ARG553  GLY616  TRP617  ASP618  TYR619  PRO620  LYS621  CYS622 
 ASP623  PHE694  ASN695  SER759  ASP760  ASP761  ALA762  ILE779  LEU786  VAL792 
 PHE793  MET794  SER795  GLU796  ALA797  LYS798  CYS799  TRP800  GLU811  SER814 

> <Gold.Protein.RotatedAtoms>
  151.2370  135.0575  159.9009 H   0  0  0  0  0  0  0  0  0  0  0  0  # atno 6907 bound_to 6896
  152.5398  134.0475  159.8105 H   0  0  0  0  0  0  0  0  0  0  0  0  # atno 6908 bound_to 6896
  151.0664  133.5453  159.2662 H   0  0  0  0  0  0  0  0  0  0  0  0  # atno 6909 bound_to 6896
  144.9451  139.4885  143.5553 H   0  0  0  0  0  0  0  0  0  0  0  0  # atno 7974 bound_to 7965
  156.1538  140.1588  156.8726 H   0  0  0  0  0  0  0  0  0  0  0  0  # atno 8008 bound_to 7997
  154.5096  140.0804  156.8000 H   0  0  0  0  0  0  0  0  0  0  0  0  # atno 8009 bound_to 7997
  155.3843  140.3406  155.4250 H   0  0  0  0  0  0  0  0  0  0  0  0  # atno 8010 bound_to 7997
  139.6452  144.7126  151.2158 H   0  0  0  0  0  0  0  0  0  0  0  0  # atno 10167 bound_to 10162
  156.2224  130.6986  151.0770 H   0  0  0  0  0  0  0  0  0  0  0  0  # atno 10718 bound_to 10713
  154.2831  135.2763  155.2688 H   0  0  0  0  0  0  0  0  0  0  0  0  # atno 10763 bound_to 10752
  154.5200  135.5759  153.6676 H   0  0  0  0  0  0  0  0  0  0  0  0  # atno 10764 bound_to 10752
  152.9926  135.6202  154.2992 H   0  0  0  0  0  0  0  0  0  0  0  0  # atno 10765 bound_to 10752
  140.4502  134.6351  157.4797 H   0  0  0  0  0  0  0  0  0  0  0  0  # atno 11005 bound_to 11000
  146.3300  139.8497  142.8875 LP  0  0  0  0  0  0  0  0  0  0  0  0  # atno 17320 bound_to 7965
  145.2931  141.0173  143.3652 LP  0  0  0  0  0  0  0  0  0  0  0  0  # atno 17321 bound_to 7965
  140.7511  143.6244  150.8482 LP  0  0  0  0  0  0  0  0  0  0  0  0  # atno 17342 bound_to 10162
  139.9886  143.5872  152.2918 LP  0  0  0  0  0  0  0  0  0  0  0  0  # atno 17343 bound_to 10162
  157.7094  131.0741  150.6555 LP  0  0  0  0  0  0  0  0  0  0  0  0  # atno 17370 bound_to 10713
  156.6619  130.4514  149.5685 LP  0  0  0  0  0  0  0  0  0  0  0  0  # atno 17371 bound_to 10713
  140.0012  134.6833  155.9527 LP  0  0  0  0  0  0  0  0  0  0  0  0  # atno 17394 bound_to 11000
  141.1667  133.6537  156.4506 LP  0  0  0  0  0  0  0  0  0  0  0  0  # atno 17395 bound_to 11000

$$$$
