AV-unprocessed.smi:21|AV-procd|sdf|146|dock3
  -GOLD-   2262015363D 1   1.00000     0.00000
 Structure written by MMmdl.
 62 65  0  0  0  0  0  0  0  0  2 V2000
  145.2772  137.4249  153.5604 C   0  0  0  0  0  0  0  0  0  0  0  0
  146.3651  137.2239  154.4484 O   0  0  0  0  0  0  0  0  0  0  0  0
  146.3842  135.9348  155.0480 C   0  0  2  0  0  0  0  0  0  0  0  0
  147.6698  135.7852  155.8496 C   0  0  0  0  0  0  0  0  0  0  0  0
  148.7272  135.4184  154.7992 C   0  0  1  0  0  0  0  0  0  0  0  0
  149.9586  134.6752  155.3757 C   0  0  0  0  0  0  0  0  0  0  0  0
  150.8730  135.5697  156.0892 N   0  0  0  0  0  0  0  0  0  0  0  0
  151.9840  134.9767  156.8230 C   0  0  0  0  0  0  0  0  0  0  0  0
  150.9059  136.8928  155.7667 C   0  0  0  0  0  0  0  0  0  0  0  0
  150.8129  137.2320  154.4534 N   0  0  0  0  0  0  0  0  0  0  0  0
  150.8514  138.5112  154.0724 C   0  0  0  0  0  0  0  0  0  0  0  0
  150.9798  139.6008  154.8286 N   0  0  0  0  0  0  0  0  0  0  0  0
  151.0732  139.2767  156.1489 C   0  0  0  0  0  0  0  0  0  0  0  0
  151.0474  137.9631  156.7026 C   0  0  0  0  0  0  0  0  0  0  0  0
  151.1953  138.0428  158.0839 N   0  0  0  0  0  0  0  0  0  0  0  0
  151.2904  139.3199  158.3309 C   0  0  0  0  0  0  0  0  0  0  0  0
  151.2092  140.1349  157.2262 N   0  0  0  0  0  0  0  0  0  0  0  0
  151.2973  141.5845  157.2104 C   0  0  0  0  0  0  0  0  0  0  0  0
  151.1648  142.2592  158.6013 C   0  0  2  0  0  0  0  0  0  0  0  0
  150.4220  143.6066  158.4449 C   0  0  0  0  0  0  0  0  0  0  0  0
  149.0286  143.4214  158.2992 O   0  0  0  0  0  0  0  0  0  0  0  0
  152.5069  142.4033  159.3775 C   0  0  1  0  0  0  0  0  0  0  0  0
  152.3534  142.6471  160.8708 C   0  0  0  0  0  0  0  0  0  0  0  0
  153.7359  142.2938  161.3985 C   0  0  0  0  0  0  0  0  0  0  0  0
  154.1403  141.1801  160.6169 O   0  0  0  0  0  0  0  0  0  0  0  0
  153.4095  141.1585  159.3941 C   0  0  0  0  0  0  0  0  0  0  0  0
  147.9849  134.7085  153.7162 N   0  3  1  0  0  0  0  0  0  0  0  0
  148.3947  133.3210  153.3942 C   0  0  0  0  0  0  0  0  0  0  0  0
  146.5340  134.8368  153.9904 C   0  0  0  0  0  0  0  0  0  0  0  0
  145.5088  135.7893  155.6833 H   0  0  0  0  0  0  0  0  0  0  0  0
  149.0725  136.3459  154.3403 H   0  0  0  0  0  0  0  0  0  0  0  0
  145.3329  138.4284  153.1390 H   0  0  0  0  0  0  0  0  0  0  0  0
  144.3235  137.3346  154.0819 H   0  0  0  0  0  0  0  0  0  0  0  0
  145.2908  136.7148  152.7335 H   0  0  0  0  0  0  0  0  0  0  0  0
  147.9232  136.6836  156.4140 H   0  0  0  0  0  0  0  0  0  0  0  0
  147.5538  134.9676  156.5624 H   0  0  0  0  0  0  0  0  0  0  0  0
  149.6461  133.8423  156.0051 H   0  0  0  0  0  0  0  0  0  0  0  0
  150.5284  134.2282  154.5610 H   0  0  0  0  0  0  0  0  0  0  0  0
  152.2855  135.6123  157.6563 H   0  0  0  0  0  0  0  0  0  0  0  0
  152.8417  134.8227  156.1678 H   0  0  0  0  0  0  0  0  0  0  0  0
  151.6992  134.0084  157.2359 H   0  0  0  0  0  0  0  0  0  0  0  0
  150.7677  138.6860  153.0099 H   0  0  0  0  0  0  0  0  0  0  0  0
  151.4146  139.7035  159.3334 H   0  0  0  0  0  0  0  0  0  0  0  0
  152.2433  141.8659  156.7463 H   0  0  0  0  0  0  0  0  0  0  0  0
  150.5118  141.9462  156.5458 H   0  0  0  0  0  0  0  0  0  0  0  0
  150.5095  141.6336  159.2078 H   0  0  0  0  0  0  0  0  0  0  0  0
  150.5986  144.2409  159.3139 H   0  0  0  0  0  0  0  0  0  0  0  0
  150.7942  144.1643  157.5858 H   0  0  0  0  0  0  0  0  0  0  0  0
  148.6237  144.2664  158.1782 H   0  0  0  0  0  0  0  0  0  0  0  0
  153.0758  143.2356  158.9596 H   0  0  0  0  0  0  0  0  0  0  0  0
  152.0677  143.6711  161.1132 H   0  0  0  0  0  0  0  0  0  0  0  0
  151.6088  141.9720  161.2955 H   0  0  0  0  0  0  0  0  0  0  0  0
  154.4316  143.1167  161.2289 H   0  0  0  0  0  0  0  0  0  0  0  0
  153.7353  142.0594  162.4632 H   0  0  0  0  0  0  0  0  0  0  0  0
  152.8194  140.2417  159.3723 H   0  0  0  0  0  0  0  0  0  0  0  0
  154.0983  141.1374  158.5506 H   0  0  0  0  0  0  0  0  0  0  0  0
  148.2831  132.6618  154.2560 H   0  0  0  0  0  0  0  0  0  0  0  0
  149.4288  133.2829  153.0519 H   0  0  0  0  0  0  0  0  0  0  0  0
  147.7748  132.9266  152.5883 H   0  0  0  0  0  0  0  0  0  0  0  0
  146.1603  133.9004  154.4084 H   0  0  0  0  0  0  0  0  0  0  0  0
  145.9727  135.0298  153.0767 H   0  0  0  0  0  0  0  0  0  0  0  0
  148.1591  135.2497  152.8812 H   0  0  0  0  0  0  0  0  0  0  0  0
  1  2  1  0  0  0  0
  1 32  1  0  0  0  0
  1 33  1  0  0  0  0
  1 34  1  0  0  0  0
  2  3  1  0  0  0  0
  3 30  1  0  0  0  0
  3 29  1  0  0  0  0
  3  4  1  0  0  0  0
  4  5  1  0  0  0  0
  4 35  1  0  0  0  0
  4 36  1  0  0  0  0
  5 31  1  0  0  0  0
  5  6  1  0  0  0  0
  5 27  1  0  0  0  0
  6  7  1  0  0  0  0
  6 37  1  0  0  0  0
  6 38  1  0  0  0  0
  7  8  1  0  0  0  0
  7  9  1  0  0  0  0
  8 39  1  0  0  0  0
  8 40  1  0  0  0  0
  8 41  1  0  0  0  0
  9 14  1  0  0  0  0
  9 10  2  0  0  0  0
 10 11  1  0  0  0  0
 11 12  2  0  0  0  0
 11 42  1  0  0  0  0
 12 13  1  0  0  0  0
 13 17  1  0  0  0  0
 13 14  2  0  0  0  0
 14 15  1  0  0  0  0
 15 16  2  0  0  0  0
 16 17  1  0  0  0  0
 16 43  1  0  0  0  0
 17 18  1  0  0  0  0
 18 19  1  0  0  0  0
 18 44  1  0  0  0  0
 18 45  1  0  0  0  0
 19 20  1  0  0  0  0
 19 22  1  0  0  0  0
 19 46  1  0  0  0  0
 20 21  1  0  0  0  0
 20 47  1  0  0  0  0
 20 48  1  0  0  0  0
 21 49  1  0  0  0  0
 22 26  1  0  0  0  0
 22 23  1  0  0  0  0
 22 50  1  0  0  0  0
 23 24  1  0  0  0  0
 23 51  1  0  0  0  0
 23 52  1  0  0  0  0
 24 25  1  0  0  0  0
 24 53  1  0  0  0  0
 24 54  1  0  0  0  0
 25 26  1  0  0  0  0
 26 55  1  0  0  0  0
 26 56  1  0  0  0  0
 27 28  1  0  0  0  0
 27 29  1  0  0  0  0
 27 62  1  0  0  0  0
 28 57  1  0  0  0  0
 28 58  1  0  0  0  0
 28 59  1  0  0  0  0
 29 60  1  0  0  0  0
 29 61  1  0  0  0  0
M  CHG  1  27   1
M  END
> <s_m_source_file>
AV-unprocessed.smi

> <i_m_source_file_index>
21

> <i_lp_mmshare_version>
43012

> <i_f3d_flags>
0

> <s_epik_input>
W0NIM11PW0NASF0xW0NIMl1bQ0BIXShOKFtDSDNdKVtDSDJdMSlbQ0gyXU4oW0NIM10pYyhuW2NIXW4yKWMoYzIzKW5bY0hdbjNbQ0gyXVtDQEhdKFtDSDJdW09IXSlbQ0BASF00W0NIMl1bQ0gyXU9bQ0gyXTQ=

> <s_epik_cmdline>
J2VwaWtfcHl0aG9uJywgJy1waCcsICc3LjAnLCAnLXRuJywgJzgnLCAnLW1hJywgJzIwMCcsICctbWV0YWxfYmluZGluZycsICctaW1hZScsICc8aW5maWxlLm1hZT4nLCAnLW9tYWUnLCAnPG91dGZpbGUubWFlPic=

> <r_lp_tautomer_probability>
1

> <r_epik_Ionization_Penalty>
0.0157465

> <r_epik_Ionization_Penalty_Charging>
0.015354

> <r_epik_Ionization_Penalty_Neutral>
0.000392529

> <r_epik_State_Penalty>
0.0120612

> <r_epik_Charging_Adjusted_Penalty>
0.0274152

> <i_epik_Tot_Q>
1

> <i_epik_Tot_abs_Q>
1

> <r_epik_Metal_State_Penalty>
0.0121253

> <b_epik_Metal_Only>
0

> <s_lp_Force_Field>
OPLS_2005

> <r_lp_Energy>
61.785

> <b_lp_Chiralities_Consistent>
1

> <s_lp_Variant>
AV-unprocessed.smi:21-26

> <Gold.Version>
5.8.1

> <Gold.Id.Protein>
6NUR|6NUR_protein|mol2

> <Gold.PLP.Fitness>
49.9342

> <Gold.PLP.PLP>
-38.4706

> <Gold.PLP.part.hbond>
-4.0000

> <Gold.PLP.part.metal>
0.0000

> <Gold.PLP.part.buried>
-3.7908

> <Gold.PLP.part.nonpolar>
-29.9811

> <Gold.PLP.part.repulsive>
0.3488

> <Gold.PLP.ligand.clash>
0.0000

> <Gold.PLP.ligand.torsion>
2.1432

> <Gold.PLP.Chemscore.Hbond>
4.0000

> <Gold.PLP.Chemscore.CHOScore>
0.9683

> <Gold.PLP.Chemscore.Metal>
0.0000

> <Gold.Chemscore.Hbonds>
donor molecule, donor type, donor heavy atom, donor atom, acceptor molecule, acceptor atom, score
      L1  H    21    49       P1  8029  0.99
      L1  H    27    62       P1  7948  2.00
      P1  H  7989  7998       L1    12  1.00
      L1  C    11    42       P1  7957  0.90

> <Gold.PLP.Chemscore.Internal.Correction>
0.8451

> <Gold.Rescore>
     Score         DG    S(hbond)    S(metal)    S(lipo)     H(rot)  DE(clash)    DE(int)     intcor
      9.63     -14.61       1.82        0.00      93.43       3.08       0.10       4.87       ----

> <Gold.Chemscore.Fitness>
9.6303

> <Gold.Chemscore.DG>
-14.6078

> <Gold.Chemscore.ZeroCoef>
-5.4800

> <Gold.Chemscore.Hbond>
1.8176

> <Gold.Chemscore.Metal>
0.0000

> <Gold.Chemscore.Lipo>
93.4279

> <Gold.Chemscore.Internal_Hbond>
0.0000

> <Gold.Chemscore.DEClash>
0.1026

> <Gold.Chemscore.DEInternal>
4.8749

> <Gold.Chemscore.Rot>
3.0758

> <Gold.Chemscore.Internal.Correction>
   9.000000E+99

> <Gold.Chemscore.Hbonds>
donor molecule, donor type, donor heavy atom, donor atom, acceptor molecule, acceptor atom, score
      L1  H    21    49       P1  8029  0.24
      L1  H    27    62       P1  7948  0.96
      P1  H  7989  7998       L1    12  0.25

> <Gold.Chemscore.Hbond.Weighted>
-6.0709

> <Gold.Chemscore.Metal.Weighted>
-0.0000

> <Gold.Chemscore.Lipo.Weighted>
-10.9311

> <Gold.Chemscore.Internal_Hbond.Weighted>
0.0000

> <Gold.Chemscore.DEClash.Weighted>
0.1026

> <Gold.Chemscore.DEInternal.Weighted>
4.8749

> <Gold.Chemscore.Rot.Weighted>
7.8741

> <Gold.Chemscore.Internal.Correction.Weighted>
   9.000000E+99

> <Gold.Protein.RotatedTorsions>
[ 6907 6896 6895 6894 ] final  -93.25 input  -60.11 | X-H torsion
[ 7974 7965 7964 7962 ] final  -24.15 input  175.53 | X-H torsion
[ 8008 7997 7996 7995 ] final   97.92 input   59.86 | X-H torsion
[ 10167 10162 10161 10158 ] final -156.14 input  -65.29 | X-H torsion
[ 10718 10713 10712 10709 ] final  -11.59 input   66.30 | X-H torsion
[ 10763 10752 10751 10750 ] final   45.38 input  -60.55 | X-H torsion
[ 11005 11000 10999 10996 ] final   15.35 input  -57.11 | X-H torsion

> <Gold.Protein.ActiveResidues>
 VAL166  LYS551  ARG553  GLY616  TRP617  ASP618  TYR619  PRO620  LYS621  CYS622 
 ASP623  PHE694  ASN695  SER759  ASP760  ASP761  ALA762  ILE779  LEU786  VAL792 
 PHE793  MET794  SER795  GLU796  ALA797  LYS798  CYS799  TRP800  GLU811  SER814 

> <Gold.Protein.RotatedAtoms>
  150.6919  134.1997  159.4316 H   0  0  0  0  0  0  0  0  0  0  0  0  # atno 6907 bound_to 6896
  151.9964  134.9949  160.0573 H   0  0  0  0  0  0  0  0  0  0  0  0  # atno 6908 bound_to 6896
  152.1620  133.4553  159.4902 H   0  0  0  0  0  0  0  0  0  0  0  0  # atno 6909 bound_to 6896
  146.1572  140.4713  142.8586 H   0  0  0  0  0  0  0  0  0  0  0  0  # atno 7974 bound_to 7965
  156.0952  140.3251  155.7868 H   0  0  0  0  0  0  0  0  0  0  0  0  # atno 8008 bound_to 7997
  155.4930  140.0563  157.2968 H   0  0  0  0  0  0  0  0  0  0  0  0  # atno 8009 bound_to 7997
  154.4662  140.1990  156.0129 H   0  0  0  0  0  0  0  0  0  0  0  0  # atno 8010 bound_to 7997
  139.6874  143.9478  152.2368 H   0  0  0  0  0  0  0  0  0  0  0  0  # atno 10167 bound_to 10162
  156.6568  130.4970  149.6043 H   0  0  0  0  0  0  0  0  0  0  0  0  # atno 10718 bound_to 10713
  152.9825  135.6041  154.3427 H   0  0  0  0  0  0  0  0  0  0  0  0  # atno 10763 bound_to 10752
  154.3122  135.2771  155.2562 H   0  0  0  0  0  0  0  0  0  0  0  0  # atno 10764 bound_to 10752
  154.4766  135.5928  153.6415 H   0  0  0  0  0  0  0  0  0  0  0  0  # atno 10765 bound_to 10752
  140.4592  134.1144  155.7714 H   0  0  0  0  0  0  0  0  0  0  0  0  # atno 11005 bound_to 11000
  144.7979  140.6158  143.6498 LP  0  0  0  0  0  0  0  0  0  0  0  0  # atno 17320 bound_to 7965
  145.4678  139.1506  143.3831 LP  0  0  0  0  0  0  0  0  0  0  0  0  # atno 17321 bound_to 7965
  139.9285  144.6756  150.8387 LP  0  0  0  0  0  0  0  0  0  0  0  0  # atno 17342 bound_to 10162
  140.7672  143.3325  151.2379 LP  0  0  0  0  0  0  0  0  0  0  0  0  # atno 17343 bound_to 10162
  156.2042  130.6638  151.1200 LP  0  0  0  0  0  0  0  0  0  0  0  0  # atno 17370 bound_to 10713
  157.7123  131.0728  150.6457 LP  0  0  0  0  0  0  0  0  0  0  0  0  # atno 17371 bound_to 10713
  141.1629  133.8759  157.1798 LP  0  0  0  0  0  0  0  0  0  0  0  0  # atno 17394 bound_to 11000
  139.9956  135.0048  157.0075 LP  0  0  0  0  0  0  0  0  0  0  0  0  # atno 17395 bound_to 11000

$$$$
