AV-unprocessed.smi:670|AV-procd|sdf|3271|dock3
  -GOLD-   22720 0223D 1   1.00000     0.00000
 Structure written by MMmdl.
 45 46  0  0  0  0  0  0  0  0  1 V2000
  149.6145  141.1474  157.7665 C   0  0  0  0  0  0  0  0  0  0  0  0
  150.4596  142.2008  158.4994 C   0  0  2  0  0  0  0  0  0  0  0  0
  151.0803  143.2221  157.5251 C   0  0  0  0  0  0  0  0  0  0  0  0
  151.8961  144.2876  158.2755 C   0  0  0  0  0  0  0  0  0  0  0  0
  152.9743  143.6471  159.1643 C   0  0  0  0  0  0  0  0  0  0  0  0
  152.3657  142.6181  160.1330 C   0  0  0  0  0  0  0  0  0  0  0  0
  151.5454  141.5503  159.3839 C   0  0  2  0  0  0  0  0  0  0  0  0
  152.4124  140.8060  158.5400 O   0  0  0  0  0  0  0  0  0  0  0  0
  153.0558  139.7056  159.1599 C   0  0  0  0  0  0  0  0  0  0  0  0
  152.9489  138.4868  158.2322 C   0  0  0  0  0  0  0  0  0  0  0  0
  152.4469  138.8667  156.9148 N   0  0  0  0  0  0  0  0  0  0  0  0
  152.0904  138.0059  155.9481 C   0  0  0  0  0  0  0  0  0  0  0  0
  152.1127  136.7825  156.0938 O   0  0  0  0  0  0  0  0  0  0  0  0
  151.6450  138.6380  154.6206 C   0  0  0  0  0  0  0  0  0  0  0  0
  150.2197  138.9986  154.5856 N   0  0  0  0  0  0  0  0  0  0  0  0
  149.9863  140.3600  154.4637 N   0  0  0  0  0  0  0  0  0  0  0  0
  148.7766  140.8076  154.4383 C   0  0  0  0  0  0  0  0  0  0  0  0
  148.5908  142.1631  154.3182 O   0  0  0  0  0  0  0  0  0  0  0  0
  147.6447  139.9118  154.5320 C   0  0  0  0  0  0  0  0  0  0  0  0
  147.8816  138.5866  154.6457 C   0  0  0  0  0  0  0  0  0  0  0  0
  149.2415  138.0452  154.6761 C   0  0  0  0  0  0  0  0  0  0  0  0
  149.4842  136.8430  154.7747 O   0  0  0  0  0  0  0  0  0  0  0  0
  148.4739  142.4804  155.2003 H   0  0  0  0  0  0  0  0  0  0  0  0
  150.2246  140.5445  157.0939 H   0  0  0  0  0  0  0  0  0  0  0  0
  148.8298  141.6160  157.1721 H   0  0  0  0  0  0  0  0  0  0  0  0
  149.1338  140.4698  158.4723 H   0  0  0  0  0  0  0  0  0  0  0  0
  149.7829  142.7470  159.1582 H   0  0  0  0  0  0  0  0  0  0  0  0
  151.7209  142.7089  156.8060 H   0  0  0  0  0  0  0  0  0  0  0  0
  150.2957  143.7069  156.9433 H   0  0  0  0  0  0  0  0  0  0  0  0
  152.3594  144.9703  157.5626 H   0  0  0  0  0  0  0  0  0  0  0  0
  151.2283  144.8912  158.8914 H   0  0  0  0  0  0  0  0  0  0  0  0
  153.7218  143.1607  158.5362 H   0  0  0  0  0  0  0  0  0  0  0  0
  153.5003  144.4196  159.7256 H   0  0  0  0  0  0  0  0  0  0  0  0
  153.1550  142.1486  160.7202 H   0  0  0  0  0  0  0  0  0  0  0  0
  151.7207  143.1326  160.8464 H   0  0  0  0  0  0  0  0  0  0  0  0
  151.0563  140.8928  160.1054 H   0  0  0  0  0  0  0  0  0  0  0  0
  154.1042  139.9391  159.3486 H   0  0  0  0  0  0  0  0  0  0  0  0
  152.5872  139.4895  160.1213 H   0  0  0  0  0  0  0  0  0  0  0  0
  153.9140  137.9838  158.1531 H   0  0  0  0  0  0  0  0  0  0  0  0
  152.2582  137.7606  158.6609 H   0  0  0  0  0  0  0  0  0  0  0  0
  152.3954  139.8547  156.7135 H   0  0  0  0  0  0  0  0  0  0  0  0
  152.2576  139.5238  154.4424 H   0  0  0  0  0  0  0  0  0  0  0  0
  151.8798  137.9518  153.8046 H   0  0  0  0  0  0  0  0  0  0  0  0
  146.6375  140.3008  154.5102 H   0  0  0  0  0  0  0  0  0  0  0  0
  147.0462  137.9056  154.7167 H   0  0  0  0  0  0  0  0  0  0  0  0
  1  2  1  0  0  0  0
  1 24  1  0  0  0  0
  1 25  1  0  0  0  0
  1 26  1  0  0  0  0
  2  7  1  0  0  0  0
  2  3  1  0  0  0  0
  2 27  1  0  0  0  0
  3  4  1  0  0  0  0
  3 28  1  0  0  0  0
  3 29  1  0  0  0  0
  4  5  1  0  0  0  0
  4 30  1  0  0  0  0
  4 31  1  0  0  0  0
  5  6  1  0  0  0  0
  5 32  1  0  0  0  0
  5 33  1  0  0  0  0
  6  7  1  0  0  0  0
  6 34  1  0  0  0  0
  6 35  1  0  0  0  0
  7  8  1  0  0  0  0
  7 36  1  0  0  0  0
  8  9  1  0  0  0  0
  9 10  1  0  0  0  0
  9 37  1  0  0  0  0
  9 38  1  0  0  0  0
 10 11  1  0  0  0  0
 10 39  1  0  0  0  0
 10 40  1  0  0  0  0
 11 12  1  0  0  0  0
 11 41  1  0  0  0  0
 12 13  2  0  0  0  0
 12 14  1  0  0  0  0
 14 42  1  0  0  0  0
 14 43  1  0  0  0  0
 14 15  1  0  0  0  0
 15 16  1  0  0  0  0
 15 21  1  0  0  0  0
 16 17  2  0  0  0  0
 17 18  1  0  0  0  0
 17 19  1  0  0  0  0
 18 23  1  0  0  0  0
 19 44  1  0  0  0  0
 19 20  2  0  0  0  0
 20 45  1  0  0  0  0
 20 21  1  0  0  0  0
 21 22  2  0  0  0  0
M  END
> <s_m_source_file>
AV-unprocessed.smi

> <i_m_source_file_index>
670

> <i_lp_mmshare_version>
43012

> <i_f3d_flags>
0

> <s_epik_input>
W0NIM11bQ0BASF0xW0NIMl1bQ0gyXVtDSDJdW0NIMl1bQ0BIXTFPW0NIMl1bQ0gyXVtOSF1DKD1PKVtDSDJdbjJbbkhdYyg9TylbY0hdW2NIXWMyPU8=

> <s_epik_cmdline>
J2VwaWtfcHl0aG9uJywgJy1waCcsICc3LjAnLCAnLXRuJywgJzgnLCAnLW1hJywgJzIwMCcsICctbWV0YWxfYmluZGluZycsICctaW1hZScsICc8aW5maWxlLm1hZT4nLCAnLW9tYWUnLCAnPG91dGZpbGUubWFlPic=

> <r_lp_tautomer_probability>
0.9996

> <r_epik_Ionization_Penalty>
2.12726

> <r_epik_Ionization_Penalty_Charging>
3.83395e-08

> <r_epik_Ionization_Penalty_Neutral>
2.12726

> <r_epik_State_Penalty>
1.70432

> <r_epik_Charging_Adjusted_Penalty>
1.70432

> <i_epik_Tot_Q>
0

> <i_epik_Tot_abs_Q>
0

> <r_epik_Metal_State_Penalty>
1.70432

> <b_epik_Metal_Only>
0

> <s_lp_Force_Field>
OPLS_2005

> <r_lp_Energy>
20.0493

> <b_lp_Chiralities_Consistent>
1

> <s_lp_Variant>
AV-unprocessed.smi:670-7

> <Gold.Version>
5.8.1

> <Gold.Id.Protein>
6NUR|6NUR_protein|mol2

> <Gold.PLP.Fitness>
46.8135

> <Gold.PLP.PLP>
-42.3376

> <Gold.PLP.part.hbond>
-3.9023

> <Gold.PLP.part.metal>
0.0000

> <Gold.PLP.part.buried>
-6.5628

> <Gold.PLP.part.nonpolar>
-34.1629

> <Gold.PLP.part.repulsive>
1.5612

> <Gold.PLP.ligand.clash>
0.0000

> <Gold.PLP.ligand.torsion>
1.3983

> <Gold.PLP.Chemscore.Hbond>
2.3600

> <Gold.PLP.Chemscore.CHOScore>
0.0000

> <Gold.PLP.Chemscore.Metal>
0.0000

> <Gold.Chemscore.Hbonds>
donor molecule, donor type, donor heavy atom, donor atom, acceptor molecule, acceptor atom, score
      L1  H    18    23       P1  8028  0.11
      P1  H  7989  7998       L1    16  0.91
      P1  H  8011  8017       L1    18  0.07
      P1  H 10752 10765       L1    13  1.00

> <Gold.PLP.Chemscore.Internal.Correction>
0.1925

> <Gold.Rescore>
     Score         DG    S(hbond)    S(metal)    S(lipo)     H(rot)  DE(clash)    DE(int)     intcor
     14.36     -16.93       2.30        0.00      99.82       3.09       0.25       2.31       ----

> <Gold.Chemscore.Fitness>
14.3649

> <Gold.Chemscore.DG>
-16.9270

> <Gold.Chemscore.ZeroCoef>
-5.4800

> <Gold.Chemscore.Hbond>
2.2992

> <Gold.Chemscore.Metal>
0.0000

> <Gold.Chemscore.Lipo>
99.8155

> <Gold.Chemscore.Internal_Hbond>
0.0000

> <Gold.Chemscore.DEClash>
0.2509

> <Gold.Chemscore.DEInternal>
2.3112

> <Gold.Chemscore.Rot>
3.0901

> <Gold.Chemscore.Internal.Correction>
   9.000000E+99

> <Gold.Chemscore.Hbonds>
donor molecule, donor type, donor heavy atom, donor atom, acceptor molecule, acceptor atom, score
      L1  H    18    23       P1  8028  0.12
      P1  H  7989  7998       L1    16  0.23
      P1  H  8011  8017       L1    18  0.01
      P1  H 10752 10765       L1    13  0.92

> <Gold.Chemscore.Hbond.Weighted>
-7.6792

> <Gold.Chemscore.Metal.Weighted>
-0.0000

> <Gold.Chemscore.Lipo.Weighted>
-11.6784

> <Gold.Chemscore.Internal_Hbond.Weighted>
0.0000

> <Gold.Chemscore.DEClash.Weighted>
0.2509

> <Gold.Chemscore.DEInternal.Weighted>
2.3112

> <Gold.Chemscore.Rot.Weighted>
7.9106

> <Gold.Chemscore.Internal.Correction.Weighted>
   9.000000E+99

> <Gold.Protein.RotatedTorsions>
[ 6907 6896 6895 6894 ] final   -2.38 input  -60.11 | X-H torsion
[ 7974 7965 7964 7962 ] final  -63.87 input  175.53 | X-H torsion
[ 8008 7997 7996 7995 ] final -118.15 input   59.86 | X-H torsion
[ 10167 10162 10161 10158 ] final   87.76 input  -65.29 | X-H torsion
[ 10718 10713 10712 10709 ] final   39.43 input   66.30 | X-H torsion
[ 10763 10752 10751 10750 ] final -139.76 input  -60.55 | X-H torsion
[ 11005 11000 10999 10996 ] final -155.55 input  -57.11 | X-H torsion

> <Gold.Protein.ActiveResidues>
 VAL166  LYS551  ARG553  GLY616  TRP617  ASP618  TYR619  PRO620  LYS621  CYS622 
 ASP623  PHE694  ASN695  SER759  ASP760  ASP761  ALA762  ILE779  LEU786  VAL792 
 PHE793  MET794  SER795  GLU796  ALA797  LYS798  CYS799  TRP800  GLU811  SER814 

> <Gold.Protein.RotatedAtoms>
  151.5309  135.1068  159.9901 H   0  0  0  0  0  0  0  0  0  0  0  0  # atno 6907 bound_to 6896
  152.4579  133.7757  159.6833 H   0  0  0  0  0  0  0  0  0  0  0  0  # atno 6908 bound_to 6896
  150.8529  133.7693  159.3044 H   0  0  0  0  0  0  0  0  0  0  0  0  # atno 6909 bound_to 6896
  145.7737  140.8799  143.0367 H   0  0  0  0  0  0  0  0  0  0  0  0  # atno 7974 bound_to 7965
  155.0951  140.0395  157.2680 H   0  0  0  0  0  0  0  0  0  0  0  0  # atno 8008 bound_to 7997
  154.6801  140.2631  155.6892 H   0  0  0  0  0  0  0  0  0  0  0  0  # atno 8009 bound_to 7997
  156.2691  140.2780  156.1342 H   0  0  0  0  0  0  0  0  0  0  0  0  # atno 8010 bound_to 7997
  139.8741  144.6477  150.8916 H   0  0  0  0  0  0  0  0  0  0  0  0  # atno 10167 bound_to 10162
  157.3704  130.7698  149.7115 H   0  0  0  0  0  0  0  0  0  0  0  0  # atno 10718 bound_to 10713
  154.8599  135.3573  154.5599 H   0  0  0  0  0  0  0  0  0  0  0  0  # atno 10763 bound_to 10752
  153.6214  135.7006  153.5314 H   0  0  0  0  0  0  0  0  0  0  0  0  # atno 10764 bound_to 10752
  153.3125  135.4174  155.1308 H   0  0  0  0  0  0  0  0  0  0  0  0  # atno 10765 bound_to 10752
  140.6853  134.4100  157.5223 H   0  0  0  0  0  0  0  0  0  0  0  0  # atno 11005 bound_to 11000
  144.6808  139.9891  143.7484 LP  0  0  0  0  0  0  0  0  0  0  0  0  # atno 17320 bound_to 7965
  146.0144  139.3197  143.0850 LP  0  0  0  0  0  0  0  0  0  0  0  0  # atno 17321 bound_to 7965
  140.7756  143.3639  151.1775 LP  0  0  0  0  0  0  0  0  0  0  0  0  # atno 17342 bound_to 10162
  139.7257  143.9153  152.3001 LP  0  0  0  0  0  0  0  0  0  0  0  0  # atno 17343 bound_to 10162
  155.9754  130.4089  150.3849 LP  0  0  0  0  0  0  0  0  0  0  0  0  # atno 17370 bound_to 10713
  157.1939  131.0422  151.2686 LP  0  0  0  0  0  0  0  0  0  0  0  0  # atno 17371 bound_to 10713
  139.8939  134.8718  156.2200 LP  0  0  0  0  0  0  0  0  0  0  0  0  # atno 17394 bound_to 11000
  141.0285  133.7002  156.1389 LP  0  0  0  0  0  0  0  0  0  0  0  0  # atno 17395 bound_to 11000

$$$$
