AV-unprocessed.smi:2030|AV-procd|sdf|8225|dock5
  -GOLD-   2272010493D 1   1.00000     0.00000
 Structure written by MMmdl.
 36 37  0  0  0  0  0  0  0  0  2 V2000
  143.7551  132.6933  148.7531 C   0  0  0  0  0  0  0  0  0  0  0  0
  144.5260  133.0285  149.9487 N   0  0  0  0  0  0  0  0  0  0  0  0
  144.4849  134.3596  150.3108 N   0  0  0  0  0  0  0  0  0  0  0  0
  145.2846  134.8555  151.2025 C   0  0  0  0  0  0  0  0  0  0  0  0
  145.2104  136.3010  151.5477 C   0  0  0  0  0  0  0  0  0  0  0  0
  144.1449  136.8237  151.8764 O   0  0  0  0  0  0  0  0  0  0  0  0
  146.3667  136.9857  151.4766 N   0  0  0  0  0  0  0  0  0  0  0  0
  146.5196  138.4041  151.7765 C   0  0  0  0  0  0  0  0  0  0  0  0
  146.8595  138.6366  153.2580 C   0  0  0  0  0  0  0  0  0  0  0  0
  147.3274  140.0539  153.5235 C   0  0  0  0  0  0  0  0  0  0  0  0
  148.6577  140.3505  153.8918 C   0  0  0  0  0  0  0  0  0  0  0  0
  149.0234  141.6920  154.1297 C   0  0  0  0  0  0  0  0  0  0  0  0
  148.0531  142.7066  153.9943 C   0  0  0  0  0  0  0  0  0  0  0  0
  146.7391  142.3537  153.6247 C   0  0  0  0  0  0  0  0  0  0  0  0
  146.4274  141.0572  153.4065 N   0  3  0  0  0  0  0  0  0  0  0  0
  146.3219  133.9802  151.8781 C   0  0  0  0  0  0  0  0  0  0  0  0
  145.8916  132.5005  151.9217 C   0  0  0  0  0  0  0  0  0  0  0  0
  145.1881  132.0630  150.6338 C   0  0  0  0  0  0  0  0  0  0  0  0
  145.2248  130.8819  150.2889 O   0  0  0  0  0  0  0  0  0  0  0  0
  142.9660  131.9790  148.9925 H   0  0  0  0  0  0  0  0  0  0  0  0
  144.3988  132.2489  147.9926 H   0  0  0  0  0  0  0  0  0  0  0  0
  143.2820  133.5715  148.3108 H   0  0  0  0  0  0  0  0  0  0  0  0
  147.1980  136.4818  151.2012 H   0  0  0  0  0  0  0  0  0  0  0  0
  147.2866  138.8376  151.1324 H   0  0  0  0  0  0  0  0  0  0  0  0
  145.5844  138.9059  151.5265 H   0  0  0  0  0  0  0  0  0  0  0  0
  145.9876  138.4248  153.8784 H   0  0  0  0  0  0  0  0  0  0  0  0
  147.6405  137.9474  153.5817 H   0  0  0  0  0  0  0  0  0  0  0  0
  149.3895  139.5620  153.9928 H   0  0  0  0  0  0  0  0  0  0  0  0
  150.0360  141.9393  154.4130 H   0  0  0  0  0  0  0  0  0  0  0  0
  148.3127  143.7399  154.1721 H   0  0  0  0  0  0  0  0  0  0  0  0
  145.9343  143.0633  153.4988 H   0  0  0  0  0  0  0  0  0  0  0  0
  147.2714  134.0756  151.3502 H   0  0  0  0  0  0  0  0  0  0  0  0
  146.5034  134.3155  152.8999 H   0  0  0  0  0  0  0  0  0  0  0  0
  146.7530  131.8604  152.1151 H   0  0  0  0  0  0  0  0  0  0  0  0
  145.1934  132.3457  152.7451 H   0  0  0  0  0  0  0  0  0  0  0  0
  145.4698  140.8243  153.1414 H   0  0  0  0  0  0  0  0  0  0  0  0
  1  2  1  0  0  0  0
  1 20  1  0  0  0  0
  1 21  1  0  0  0  0
  1 22  1  0  0  0  0
  2 18  1  0  0  0  0
  2  3  1  0  0  0  0
  3  4  2  0  0  0  0
  4  5  1  0  0  0  0
  4 16  1  0  0  0  0
  5  6  2  0  0  0  0
  5  7  1  0  0  0  0
  7  8  1  0  0  0  0
  7 23  1  0  0  0  0
  8  9  1  0  0  0  0
  8 24  1  0  0  0  0
  8 25  1  0  0  0  0
  9 10  1  0  0  0  0
  9 26  1  0  0  0  0
  9 27  1  0  0  0  0
 10 15  1  0  0  0  0
 10 11  2  0  0  0  0
 11 12  1  0  0  0  0
 11 28  1  0  0  0  0
 12 13  2  0  0  0  0
 12 29  1  0  0  0  0
 13 14  1  0  0  0  0
 13 30  1  0  0  0  0
 14 15  2  0  0  0  0
 14 31  1  0  0  0  0
 15 36  1  0  0  0  0
 16 17  1  0  0  0  0
 16 32  1  0  0  0  0
 16 33  1  0  0  0  0
 17 18  1  0  0  0  0
 17 34  1  0  0  0  0
 17 35  1  0  0  0  0
 18 19  2  0  0  0  0
M  CHG  1  15   1
M  END
> <s_m_source_file>
AV-unprocessed.smi

> <i_m_source_file_index>
2030

> <i_lp_mmshare_version>
43012

> <i_f3d_flags>
0

> <s_epik_input>
Tz1DMVtDSDJdW0NIMl1DKD1OTjFbQ0gzXSlDKD1PKVtOSF1bQ0gyXVtDSDJdYzJbY0hdW2NIXVtjSF1bY0hdbjI=

> <s_epik_cmdline>
J2VwaWtfcHl0aG9uJywgJy1waCcsICc3LjAnLCAnLXRuJywgJzgnLCAnLW1hJywgJzIwMCcsICctbWV0YWxfYmluZGluZycsICctaW1hZScsICc8aW5maWxlLm1hZT4nLCAnLW9tYWUnLCAnPG91dGZpbGUubWFlPic=

> <r_epik_Ionization_Penalty>
2.09642

> <r_epik_Ionization_Penalty_Charging>
2.0963

> <r_epik_Ionization_Penalty_Neutral>
0.00011851

> <r_epik_State_Penalty>
2.23213

> <r_epik_Charging_Adjusted_Penalty>
4.32843

> <i_epik_Tot_Q>
1

> <i_epik_Tot_abs_Q>
1

> <r_epik_Metal_State_Penalty>
2.41268

> <b_epik_Metal_Only>
0

> <s_epik_Chemistry_Notes>
This compound has an imine and may undergo hydrolysis.

> <s_lp_Force_Field>
OPLS_2005

> <r_lp_Energy>
21.0672

> <b_lp_Chiralities_Consistent>
1

> <s_lp_Variant>
AV-unprocessed.smi:2030-2

> <Gold.Version>
5.8.1

> <Gold.Id.Protein>
6NUR|6NUR_protein|mol2

> <Gold.PLP.Fitness>
40.2980

> <Gold.PLP.PLP>
-34.1118

> <Gold.PLP.part.hbond>
-3.0000

> <Gold.PLP.part.metal>
0.0000

> <Gold.PLP.part.buried>
0.2687

> <Gold.PLP.part.nonpolar>
-33.9954

> <Gold.PLP.part.repulsive>
2.2480

> <Gold.PLP.ligand.clash>
0.0000

> <Gold.PLP.ligand.torsion>
1.2346

> <Gold.PLP.Chemscore.Hbond>
2.8800

> <Gold.PLP.Chemscore.CHOScore>
0.0000

> <Gold.PLP.Chemscore.Metal>
0.0000

> <Gold.Chemscore.Hbonds>
donor molecule, donor type, donor heavy atom, donor atom, acceptor molecule, acceptor atom, score
      L1  H     7    23       P1  7948  0.78
      L1  H    15    36       P1 10175  2.00

> <Gold.PLP.Chemscore.Internal.Correction>
0.0154

> <Gold.Rescore>
     Score         DG    S(hbond)    S(metal)    S(lipo)     H(rot)  DE(clash)    DE(int)     intcor
     13.27     -16.52       1.82        0.00      75.39       1.52       2.18       1.07       ----

> <Gold.Chemscore.Fitness>
13.2743

> <Gold.Chemscore.DG>
-16.5159

> <Gold.Chemscore.ZeroCoef>
-5.4800

> <Gold.Chemscore.Hbond>
1.8249

> <Gold.Chemscore.Metal>
0.0000

> <Gold.Chemscore.Lipo>
75.3929

> <Gold.Chemscore.Internal_Hbond>
0.0000

> <Gold.Chemscore.DEClash>
2.1753

> <Gold.Chemscore.DEInternal>
1.0664

> <Gold.Chemscore.Rot>
1.5157

> <Gold.Chemscore.Internal.Correction>
   9.000000E+99

> <Gold.Chemscore.Hbonds>
donor molecule, donor type, donor heavy atom, donor atom, acceptor molecule, acceptor atom, score
      L1  H     7    23       P1  7948  0.78
      L1  H    15    36       P1 10175  0.60

> <Gold.Chemscore.Hbond.Weighted>
-6.0950

> <Gold.Chemscore.Metal.Weighted>
-0.0000

> <Gold.Chemscore.Lipo.Weighted>
-8.8210

> <Gold.Chemscore.Internal_Hbond.Weighted>
0.0000

> <Gold.Chemscore.DEClash.Weighted>
2.1753

> <Gold.Chemscore.DEInternal.Weighted>
1.0664

> <Gold.Chemscore.Rot.Weighted>
3.8801

> <Gold.Chemscore.Internal.Correction.Weighted>
   9.000000E+99

> <Gold.Protein.RotatedTorsions>
[ 6907 6896 6895 6894 ] final  -76.58 input  -60.11 | X-H torsion
[ 7974 7965 7964 7962 ] final  115.10 input  175.53 | X-H torsion
[ 8008 7997 7996 7995 ] final   55.02 input   59.86 | X-H torsion
[ 10167 10162 10161 10158 ] final   38.94 input  -65.29 | X-H torsion
[ 10718 10713 10712 10709 ] final  -50.52 input   66.30 | X-H torsion
[ 10763 10752 10751 10750 ] final -166.22 input  -60.55 | X-H torsion
[ 11005 11000 10999 10996 ] final -111.18 input  -57.11 | X-H torsion

> <Gold.Protein.ActiveResidues>
 VAL166  LYS551  ARG553  GLY616  TRP617  ASP618  TYR619  PRO620  LYS621  CYS622 
 ASP623  PHE694  ASN695  SER759  ASP760  ASP761  ALA762  ILE779  LEU786  VAL792 
 PHE793  MET794  SER795  GLU796  ALA797  LYS798  CYS799  TRP800  GLU811  SER814 

> <Gold.Protein.RotatedAtoms>
  150.7023  134.4551  159.5354 H   0  0  0  0  0  0  0  0  0  0  0  0  # atno 6907 bound_to 6896
  152.2236  134.8386  160.0492 H   0  0  0  0  0  0  0  0  0  0  0  0  # atno 6908 bound_to 6896
  151.9227  133.3555  159.3939 H   0  0  0  0  0  0  0  0  0  0  0  0  # atno 6909 bound_to 6896
  145.1962  139.2975  143.4342 H   0  0  0  0  0  0  0  0  0  0  0  0  # atno 7974 bound_to 7965
  155.4943  140.3472  155.4360 H   0  0  0  0  0  0  0  0  0  0  0  0  # atno 8008 bound_to 7997
  156.0956  140.1422  156.9563 H   0  0  0  0  0  0  0  0  0  0  0  0  # atno 8009 bound_to 7997
  154.4661  140.0917  156.7002 H   0  0  0  0  0  0  0  0  0  0  0  0  # atno 8010 bound_to 7997
  140.3888  144.1880  150.6130 H   0  0  0  0  0  0  0  0  0  0  0  0  # atno 10167 bound_to 10162
  156.1793  130.4150  149.9531 H   0  0  0  0  0  0  0  0  0  0  0  0  # atno 10718 bound_to 10713
  154.6855  135.2962  154.9553 H   0  0  0  0  0  0  0  0  0  0  0  0  # atno 10763 bound_to 10752
  154.0534  135.6641  153.4807 H   0  0  0  0  0  0  0  0  0  0  0  0  # atno 10764 bound_to 10752
  153.0576  135.5135  154.7920 H   0  0  0  0  0  0  0  0  0  0  0  0  # atno 10765 bound_to 10752
  141.0749  133.9318  157.2410 H   0  0  0  0  0  0  0  0  0  0  0  0  # atno 11005 bound_to 11000
  146.3427  140.2191  142.8591 LP  0  0  0  0  0  0  0  0  0  0  0  0  # atno 17320 bound_to 7965
  144.9993  140.8617  143.5291 LP  0  0  0  0  0  0  0  0  0  0  0  0  # atno 17321 bound_to 7965
  140.4861  143.2363  151.8886 LP  0  0  0  0  0  0  0  0  0  0  0  0  # atno 17342 bound_to 10162
  139.4790  144.5217  151.8792 LP  0  0  0  0  0  0  0  0  0  0  0  0  # atno 17343 bound_to 10162
  156.7306  130.9042  151.3625 LP  0  0  0  0  0  0  0  0  0  0  0  0  # atno 17370 bound_to 10713
  157.6857  130.9183  150.0380 LP  0  0  0  0  0  0  0  0  0  0  0  0  # atno 17371 bound_to 10713
  139.9561  135.0165  156.9132 LP  0  0  0  0  0  0  0  0  0  0  0  0  # atno 17394 bound_to 11000
  140.5595  134.0549  155.7394 LP  0  0  0  0  0  0  0  0  0  0  0  0  # atno 17395 bound_to 11000

$$$$
