AV-unprocessed.smi:2340|AV-procd|sdf|9344|dock1
  -GOLD-   2272012563D 1   1.00000     0.00000
 Structure written by MMmdl.
 40 41  0  0  0  0  0  0  0  0  1 V2000
  143.7550  132.5915  148.2769 C   0  0  0  0  0  0  0  0  0  0  0  0
  144.4620  132.8073  149.5778 C   0  0  0  0  0  0  0  0  0  0  0  0
  145.5203  132.0869  150.0721 C   0  0  0  0  0  0  0  0  0  0  0  0
  146.0308  132.6702  151.6318 S   0  0  0  0  0  0  0  0  0  0  0  0
  144.7731  133.9015  151.5502 C   0  0  0  0  0  0  0  0  0  0  0  0
  144.5145  134.8961  152.6425 C   0  0  2  0  0  0  0  0  0  0  0  0
  143.1046  134.7453  153.2315 C   0  0  0  0  0  0  0  0  0  0  0  0
  144.8154  136.3432  152.2070 C   0  0  0  0  0  0  0  0  0  0  0  0
  146.1832  136.7245  152.5393 N   0  0  0  0  0  0  0  0  0  0  0  0
  146.5182  137.6641  153.4310 C   0  0  0  0  0  0  0  0  0  0  0  0
  145.7051  138.3049  154.0972 O   0  0  0  0  0  0  0  0  0  0  0  0
  147.8462  137.8211  153.5060 N   0  0  0  0  0  0  0  0  0  0  0  0
  148.5321  138.7606  154.3868 C   0  0  2  0  0  0  0  0  0  0  0  0
  148.0908  140.1869  154.1306 C   0  0  0  0  0  0  0  0  0  0  0  0
  149.2786  140.9834  154.6578 C   0  0  0  0  0  0  0  0  0  0  0  0
  150.4255  140.1735  154.4229 O   0  0  0  0  0  0  0  0  0  0  0  0
  150.0353  138.8440  154.0880 C   0  0  1  0  0  0  0  0  0  0  0  0
  150.8914  137.8330  154.8606 C   0  0  0  0  0  0  0  0  0  0  0  0
  144.0486  133.8357  150.4293 N   0  0  0  0  0  0  0  0  0  0  0  0
  144.1374  131.7133  147.7560 H   0  0  0  0  0  0  0  0  0  0  0  0
  143.8801  133.4483  147.6145 H   0  0  0  0  0  0  0  0  0  0  0  0
  142.6857  132.4434  148.4295 H   0  0  0  0  0  0  0  0  0  0  0  0
  146.0271  131.2488  149.6169 H   0  0  0  0  0  0  0  0  0  0  0  0
  145.2109  134.6617  153.4495 H   0  0  0  0  0  0  0  0  0  0  0  0
  142.9421  133.7332  153.6038 H   0  0  0  0  0  0  0  0  0  0  0  0
  142.3366  134.9536  152.4861 H   0  0  0  0  0  0  0  0  0  0  0  0
  142.9529  135.4322  154.0644 H   0  0  0  0  0  0  0  0  0  0  0  0
  144.6644  136.4394  151.1301 H   0  0  0  0  0  0  0  0  0  0  0  0
  144.1239  137.0363  152.6877 H   0  0  0  0  0  0  0  0  0  0  0  0
  146.9229  136.2515  152.0405 H   0  0  0  0  0  0  0  0  0  0  0  0
  148.4273  137.2462  152.9138 H   0  0  0  0  0  0  0  0  0  0  0  0
  148.3623  138.5216  155.4388 H   0  0  0  0  0  0  0  0  0  0  0  0
  147.9730  140.3677  153.0607 H   0  0  0  0  0  0  0  0  0  0  0  0
  147.1535  140.4427  154.6254 H   0  0  0  0  0  0  0  0  0  0  0  0
  149.3730  141.9593  154.1808 H   0  0  0  0  0  0  0  0  0  0  0  0
  149.1812  141.1394  155.7329 H   0  0  0  0  0  0  0  0  0  0  0  0
  150.2056  138.7248  153.0167 H   0  0  0  0  0  0  0  0  0  0  0  0
  150.6250  136.8092  154.5979 H   0  0  0  0  0  0  0  0  0  0  0  0
  150.7626  137.9476  155.9371 H   0  0  0  0  0  0  0  0  0  0  0  0
  151.9493  137.9670  154.6347 H   0  0  0  0  0  0  0  0  0  0  0  0
  1  2  1  0  0  0  0
  1 20  1  0  0  0  0
  1 21  1  0  0  0  0
  1 22  1  0  0  0  0
  2 19  1  0  0  0  0
  2  3  2  0  0  0  0
  3  4  1  0  0  0  0
  3 23  1  0  0  0  0
  4  5  1  0  0  0  0
  5  6  1  0  0  0  0
  5 19  2  0  0  0  0
  6  7  1  0  0  0  0
  6  8  1  0  0  0  0
  6 24  1  0  0  0  0
  7 25  1  0  0  0  0
  7 26  1  0  0  0  0
  7 27  1  0  0  0  0
  8  9  1  0  0  0  0
  8 28  1  0  0  0  0
  8 29  1  0  0  0  0
  9 10  1  0  0  0  0
  9 30  1  0  0  0  0
 10 11  2  0  0  0  0
 10 12  1  0  0  0  0
 12 13  1  0  0  0  0
 12 31  1  0  0  0  0
 13 17  1  0  0  0  0
 13 14  1  0  0  0  0
 13 32  1  0  0  0  0
 14 15  1  0  0  0  0
 14 33  1  0  0  0  0
 14 34  1  0  0  0  0
 15 16  1  0  0  0  0
 15 35  1  0  0  0  0
 15 36  1  0  0  0  0
 16 17  1  0  0  0  0
 17 18  1  0  0  0  0
 17 37  1  0  0  0  0
 18 38  1  0  0  0  0
 18 39  1  0  0  0  0
 18 40  1  0  0  0  0
M  END
> <s_m_source_file>
AV-unprocessed.smi

> <i_m_source_file_index>
2340

> <i_lp_mmshare_version>
43012

> <i_f3d_flags>
0

> <s_epik_input>
W0NIM11jMVtjSF1zYyhuMSlbQ0BIXShbQ0gzXSlbQ0gyXVtOSF1DKD1PKVtOSF1bQ0BASF0yW0NIMl1bQ0gyXU9bQ0BIXTJbQ0gzXQ==

> <s_epik_cmdline>
J2VwaWtfcHl0aG9uJywgJy1waCcsICc3LjAnLCAnLXRuJywgJzgnLCAnLW1hJywgJzIwMCcsICctbWV0YWxfYmluZGluZycsICctaW1hZScsICc8aW5maWxlLm1hZT4nLCAnLW9tYWUnLCAnPG91dGZpbGUubWFlPic=

> <r_epik_Ionization_Penalty>
0.00156622

> <r_epik_Ionization_Penalty_Charging>
0

> <r_epik_Ionization_Penalty_Neutral>
0.00156622

> <r_epik_State_Penalty>
0.00101902

> <r_epik_Charging_Adjusted_Penalty>
0.00101902

> <i_epik_Tot_Q>
0

> <i_epik_Tot_abs_Q>
0

> <r_epik_Metal_State_Penalty>
-0

> <b_epik_Metal_Only>
0

> <s_lp_Force_Field>
OPLS_2005

> <r_lp_Energy>
4.8577

> <b_lp_Chiralities_Consistent>
1

> <s_lp_Variant>
AV-unprocessed.smi:2340-1

> <Gold.Version>
5.8.1

> <Gold.Id.Protein>
6NUR|6NUR_protein|mol2

> <Gold.PLP.Fitness>
42.9228

> <Gold.PLP.PLP>
-35.4040

> <Gold.PLP.part.hbond>
-2.9632

> <Gold.PLP.part.metal>
0.0000

> <Gold.PLP.part.buried>
-3.0450

> <Gold.PLP.part.nonpolar>
-28.6037

> <Gold.PLP.part.repulsive>
0.4906

> <Gold.PLP.ligand.clash>
0.0000

> <Gold.PLP.ligand.torsion>
0.5878

> <Gold.PLP.Chemscore.Hbond>
2.8480

> <Gold.PLP.Chemscore.CHOScore>
0.0000

> <Gold.PLP.Chemscore.Metal>
0.0000

> <Gold.Chemscore.Hbonds>
donor molecule, donor type, donor heavy atom, donor atom, acceptor molecule, acceptor atom, score
      L1  H     9    30       P1  7948  0.85
      L1  H    12    31       P1  7948  1.00
      P1  H  7989  7998       L1    16  1.00

> <Gold.PLP.Chemscore.Internal.Correction>
0.1505

> <Gold.Rescore>
     Score         DG    S(hbond)    S(metal)    S(lipo)     H(rot)  DE(clash)    DE(int)     intcor
     20.15     -20.75       2.47        0.00      93.40       1.53       0.04       0.56       ----

> <Gold.Chemscore.Fitness>
20.1491

> <Gold.Chemscore.DG>
-20.7499

> <Gold.Chemscore.ZeroCoef>
-5.4800

> <Gold.Chemscore.Hbond>
2.4746

> <Gold.Chemscore.Metal>
0.0000

> <Gold.Chemscore.Lipo>
93.4015

> <Gold.Chemscore.Internal_Hbond>
0.0000

> <Gold.Chemscore.DEClash>
0.0398

> <Gold.Chemscore.DEInternal>
0.5611

> <Gold.Chemscore.Rot>
1.5325

> <Gold.Chemscore.Internal.Correction>
   9.000000E+99

> <Gold.Chemscore.Hbonds>
donor molecule, donor type, donor heavy atom, donor atom, acceptor molecule, acceptor atom, score
      L1  H     9    30       P1  7948  0.79
      L1  H    12    31       P1  7948  0.94
      P1  H  7989  7998       L1    16  0.84

> <Gold.Chemscore.Hbond.Weighted>
-8.2653

> <Gold.Chemscore.Metal.Weighted>
-0.0000

> <Gold.Chemscore.Lipo.Weighted>
-10.9280

> <Gold.Chemscore.Internal_Hbond.Weighted>
0.0000

> <Gold.Chemscore.DEClash.Weighted>
0.0398

> <Gold.Chemscore.DEInternal.Weighted>
0.5611

> <Gold.Chemscore.Rot.Weighted>
3.9233

> <Gold.Chemscore.Internal.Correction.Weighted>
   9.000000E+99

> <Gold.Protein.RotatedTorsions>
[ 6907 6896 6895 6894 ] final -117.78 input  -60.11 | X-H torsion
[ 7974 7965 7964 7962 ] final  -76.61 input  175.53 | X-H torsion
[ 8008 7997 7996 7995 ] final  -69.30 input   59.86 | X-H torsion
[ 10167 10162 10161 10158 ] final  129.82 input  -65.29 | X-H torsion
[ 10718 10713 10712 10709 ] final  131.78 input   66.30 | X-H torsion
[ 10763 10752 10751 10750 ] final -163.54 input  -60.55 | X-H torsion
[ 11005 11000 10999 10996 ] final  -20.34 input  -57.11 | X-H torsion

> <Gold.Protein.ActiveResidues>
 VAL166  LYS551  ARG553  GLY616  TRP617  ASP618  TYR619  PRO620  LYS621  CYS622 
 ASP623  PHE694  ASN695  SER759  ASP760  ASP761  ALA762  ILE779  LEU786  VAL792 
 PHE793  MET794  SER795  GLU796  ALA797  LYS798  CYS799  TRP800  GLU811  SER814 

> <Gold.Protein.RotatedAtoms>
  150.8165  133.8328  159.3157 H   0  0  0  0  0  0  0  0  0  0  0  0  # atno 6907 bound_to 6896
  151.6098  135.1039  160.0088 H   0  0  0  0  0  0  0  0  0  0  0  0  # atno 6908 bound_to 6896
  152.4256  133.7149  159.6557 H   0  0  0  0  0  0  0  0  0  0  0  0  # atno 6909 bound_to 6896
  145.6105  140.9387  143.1192 H   0  0  0  0  0  0  0  0  0  0  0  0  # atno 7974 bound_to 7965
  154.4929  140.0856  156.7633 H   0  0  0  0  0  0  0  0  0  0  0  0  # atno 8008 bound_to 7997
  155.4187  140.3445  155.4251 H   0  0  0  0  0  0  0  0  0  0  0  0  # atno 8009 bound_to 7997
  156.1354  140.1513  156.8990 H   0  0  0  0  0  0  0  0  0  0  0  0  # atno 8010 bound_to 7997
  139.5459  144.6773  151.4474 H   0  0  0  0  0  0  0  0  0  0  0  0  # atno 10167 bound_to 10162
  157.4934  131.1091  150.9525 H   0  0  0  0  0  0  0  0  0  0  0  0  # atno 10718 bound_to 10713
  154.7112  135.3007  154.9193 H   0  0  0  0  0  0  0  0  0  0  0  0  # atno 10763 bound_to 10752
  154.0094  135.6697  153.4768 H   0  0  0  0  0  0  0  0  0  0  0  0  # atno 10764 bound_to 10752
  153.0757  135.5036  154.8312 H   0  0  0  0  0  0  0  0  0  0  0  0  # atno 10765 bound_to 10752
  140.8455  133.7895  155.9908 H   0  0  0  0  0  0  0  0  0  0  0  0  # atno 11005 bound_to 11000
  144.7272  139.7839  143.7360 LP  0  0  0  0  0  0  0  0  0  0  0  0  # atno 17320 bound_to 7965
  146.1508  139.4590  143.0050 LP  0  0  0  0  0  0  0  0  0  0  0  0  # atno 17321 bound_to 7965
  140.6707  143.8300  150.6996 LP  0  0  0  0  0  0  0  0  0  0  0  0  # atno 17342 bound_to 10162
  140.1723  143.4184  152.1992 LP  0  0  0  0  0  0  0  0  0  0  0  0  # atno 17343 bound_to 10162
  157.0219  130.5677  149.5332 LP  0  0  0  0  0  0  0  0  0  0  0  0  # atno 17370 bound_to 10713
  156.0187  130.5281  150.8211 LP  0  0  0  0  0  0  0  0  0  0  0  0  # atno 17371 bound_to 10713
  140.8848  134.2567  157.5125 LP  0  0  0  0  0  0  0  0  0  0  0  0  # atno 17394 bound_to 11000
  139.8703  134.9633  156.4456 LP  0  0  0  0  0  0  0  0  0  0  0  0  # atno 17395 bound_to 11000

$$$$
