AV-unprocessed.smi:86|AV-procd|sdf|819|dock8
  -GOLD-   2262017223D 1   1.00000     0.00000
 Structure written by MMmdl.
 51 55  0  0  0  0  0  0  0  0  1 V2000
  158.0163  143.7140  165.4794 O   0  0  0  0  0  0  0  0  0  0  0  0
  158.5690  143.4401  166.7512 C   0  0  0  0  0  0  0  0  0  0  0  0
  157.4862  143.3867  167.8401 C   0  0  0  0  0  0  0  0  0  0  0  0
  156.4854  142.2708  167.4552 C   0  0  0  0  0  0  0  0  0  0  0  0
  155.6953  142.5301  166.2605 N   0  0  0  0  0  0  0  0  0  0  0  0
  154.9601  143.6599  165.9854 C   0  0  0  0  0  0  0  0  0  0  0  0
  154.3449  143.6556  164.8351 N   0  0  0  0  0  0  0  0  0  0  0  0
  154.6939  142.4387  164.2585 C   0  0  0  0  0  0  0  0  0  0  0  0
  154.3908  141.7882  163.0247 C   0  0  0  0  0  0  0  0  0  0  0  0
  153.5882  142.3005  162.0570 N   0  0  0  0  0  0  0  0  0  0  0  0
  152.9022  143.5842  162.1586 C   0  0  0  0  0  0  0  0  0  0  0  0
  152.1226  143.6754  160.8478 C   0  0  1  0  0  0  0  0  0  0  0  0
  151.7055  145.0561  160.3279 C   0  0  0  0  0  0  0  0  0  0  0  0
  151.0217  144.8895  158.9532 C   0  0  0  0  0  0  0  0  0  0  0  0
  151.8955  144.0941  157.9516 C   0  0  2  0  0  0  0  0  0  0  0  0
  151.1650  143.8668  156.7649 O   0  0  0  0  0  0  0  0  0  0  0  0
  152.3757  142.7420  158.5273 C   0  0  0  0  0  0  0  0  0  0  0  0
  153.0717  142.9955  159.8699 C   0  0  2  0  0  0  0  0  0  0  0  0
  153.5730  141.8011  160.6824 C   0  0  0  0  0  0  0  0  0  0  0  0
  154.9442  140.5645  162.8157 N   0  0  0  0  0  0  0  0  0  0  0  0
  155.7393  140.0115  163.7351 C   0  0  0  0  0  0  0  0  0  0  0  0
  156.1074  140.4988  164.9203 N   0  0  0  0  0  0  0  0  0  0  0  0
  155.5534  141.7246  165.1434 C   0  0  0  0  0  0  0  0  0  0  0  0
  158.0433  143.3948  169.2752 C   0  0  0  0  0  0  0  0  0  0  0  0
  157.7685  144.8022  169.4331 O   0  0  0  0  0  0  0  0  0  0  0  0
  156.9249  144.7549  168.2635 C   0  0  0  0  0  0  0  0  0  0  0  0
  158.4940  143.2183  164.8316 H   0  0  0  0  0  0  0  0  0  0  0  0
  159.1217  142.5016  166.7006 H   0  0  0  0  0  0  0  0  0  0  0  0
  159.3015  144.2176  166.9715 H   0  0  0  0  0  0  0  0  0  0  0  0
  157.0097  141.3279  167.2958 H   0  0  0  0  0  0  0  0  0  0  0  0
  155.7906  142.0850  168.2751 H   0  0  0  0  0  0  0  0  0  0  0  0
  154.8906  144.4923  166.6708 H   0  0  0  0  0  0  0  0  0  0  0  0
  152.2359  143.6239  163.0207 H   0  0  0  0  0  0  0  0  0  0  0  0
  153.6353  144.3878  162.2396 H   0  0  0  0  0  0  0  0  0  0  0  0
  151.2260  143.0605  160.9526 H   0  0  0  0  0  0  0  0  0  0  0  0
  151.0268  145.5385  161.0319 H   0  0  0  0  0  0  0  0  0  0  0  0
  152.5784  145.7035  160.2352 H   0  0  0  0  0  0  0  0  0  0  0  0
  150.0705  144.3739  159.0932 H   0  0  0  0  0  0  0  0  0  0  0  0
  150.7797  145.8703  158.5417 H   0  0  0  0  0  0  0  0  0  0  0  0
  152.7672  144.6963  157.6918 H   0  0  0  0  0  0  0  0  0  0  0  0
  150.4740  144.5091  156.7103 H   0  0  0  0  0  0  0  0  0  0  0  0
  151.5297  142.0676  158.6680 H   0  0  0  0  0  0  0  0  0  0  0  0
  153.0599  142.2534  157.8328 H   0  0  0  0  0  0  0  0  0  0  0  0
  153.9247  143.6548  159.6956 H   0  0  0  0  0  0  0  0  0  0  0  0
  154.5568  141.4773  160.3404 H   0  0  0  0  0  0  0  0  0  0  0  0
  152.8853  140.9574  160.6149 H   0  0  0  0  0  0  0  0  0  0  0  0
  156.1365  139.0388  163.4851 H   0  0  0  0  0  0  0  0  0  0  0  0
  157.4881  142.8018  170.0005 H   0  0  0  0  0  0  0  0  0  0  0  0
  159.1081  143.1675  169.3363 H   0  0  0  0  0  0  0  0  0  0  0  0
  157.1414  145.5600  167.5607 H   0  0  0  0  0  0  0  0  0  0  0  0
  155.8693  144.7581  168.5324 H   0  0  0  0  0  0  0  0  0  0  0  0
  1  2  1  0  0  0  0
  1 27  1  0  0  0  0
  2  3  1  0  0  0  0
  2 28  1  0  0  0  0
  2 29  1  0  0  0  0
  3 26  1  0  0  0  0
  3  4  1  0  0  0  0
  3 24  1  0  0  0  0
  4  5  1  0  0  0  0
  4 30  1  0  0  0  0
  4 31  1  0  0  0  0
  5 23  1  0  0  0  0
  5  6  1  0  0  0  0
  6  7  2  0  0  0  0
  6 32  1  0  0  0  0
  7  8  1  0  0  0  0
  8 23  2  0  0  0  0
  8  9  1  0  0  0  0
  9 10  1  0  0  0  0
  9 20  2  0  0  0  0
 10 19  1  0  0  0  0
 10 11  1  0  0  0  0
 11 12  1  0  0  0  0
 11 33  1  0  0  0  0
 11 34  1  0  0  0  0
 12 18  1  0  0  0  0
 12 13  1  0  0  0  0
 12 35  1  0  0  0  0
 13 14  1  0  0  0  0
 13 36  1  0  0  0  0
 13 37  1  0  0  0  0
 14 15  1  0  0  0  0
 14 38  1  0  0  0  0
 14 39  1  0  0  0  0
 15 16  1  0  0  0  0
 15 17  1  0  0  0  0
 15 40  1  0  0  0  0
 16 41  1  0  0  0  0
 17 18  1  0  0  0  0
 17 42  1  0  0  0  0
 17 43  1  0  0  0  0
 18 19  1  0  0  0  0
 18 44  1  0  0  0  0
 19 45  1  0  0  0  0
 19 46  1  0  0  0  0
 20 21  1  0  0  0  0
 21 22  2  0  0  0  0
 21 47  1  0  0  0  0
 22 23  1  0  0  0  0
 24 25  1  0  0  0  0
 24 48  1  0  0  0  0
 24 49  1  0  0  0  0
 25 26  1  0  0  0  0
 26 50  1  0  0  0  0
 26 51  1  0  0  0  0
M  END
> <s_m_source_file>
AV-unprocessed.smi

> <i_m_source_file_index>
86

> <i_lp_mmshare_version>
43012

> <i_f3d_flags>
0

> <s_epik_input>
W0NIMl0xT1tDSDJdQzEoW0NIMl1bT0hdKVtDSDJdbihbY0hdbjIpYyhjMjMpbltjSF1uYzNOKFtDSDJdNClbQ0gyXVtDQEBIXShbQ0BIXTQ1KVtDSDJdW0NASF0oW09IXSlbQ0gyXVtDSDJdNQ==

> <s_epik_cmdline>
J2VwaWtfcHl0aG9uJywgJy1waCcsICc3LjAnLCAnLXRuJywgJzgnLCAnLW1hJywgJzIwMCcsICctbWV0YWxfYmluZGluZycsICctaW1hZScsICc8aW5maWxlLm1hZT4nLCAnLW9tYWUnLCAnPG91dGZpbGUubWFlPic=

> <r_lp_tautomer_probability>
1

> <r_epik_Ionization_Penalty>
0.00425795

> <r_epik_Ionization_Penalty_Charging>
0

> <r_epik_Ionization_Penalty_Neutral>
0.00425795

> <r_epik_State_Penalty>
0.00299946

> <r_epik_Charging_Adjusted_Penalty>
0.00299946

> <i_epik_Tot_Q>
0

> <i_epik_Tot_abs_Q>
0

> <r_epik_Metal_State_Penalty>
-0

> <b_epik_Metal_Only>
0

> <s_lp_Force_Field>
OPLS_2005

> <r_lp_Energy>
53.3624

> <b_lp_Chiralities_Consistent>
1

> <s_lp_Variant>
AV-unprocessed.smi:86-8

> <Gold.Version>
5.8.1

> <Gold.Id.Protein>
6NUR|6NUR_protein|mol2

> <Gold.PLP.Fitness>
57.2580

> <Gold.PLP.PLP>
-55.2949

> <Gold.PLP.part.hbond>
-3.4315

> <Gold.PLP.part.metal>
0.0000

> <Gold.PLP.part.buried>
-4.2545

> <Gold.PLP.part.nonpolar>
-47.2290

> <Gold.PLP.part.repulsive>
0.2458

> <Gold.PLP.ligand.clash>
0.0000

> <Gold.PLP.ligand.torsion>
0.3098

> <Gold.PLP.Chemscore.Hbond>
0.7360

> <Gold.PLP.Chemscore.CHOScore>
0.0000

> <Gold.PLP.Chemscore.Metal>
0.0000

> <Gold.Chemscore.Hbonds>
donor molecule, donor type, donor heavy atom, donor atom, acceptor molecule, acceptor atom, score
      L1  H    16    41       P1  8028  0.74

> <Gold.PLP.Chemscore.Internal.Correction>
0.3747

> <Gold.Rescore>
     Score         DG    S(hbond)    S(metal)    S(lipo)     H(rot)  DE(clash)    DE(int)     intcor
     11.55     -14.65       0.72        0.00     118.12       2.76       0.52       2.58       ----

> <Gold.Chemscore.Fitness>
11.5466

> <Gold.Chemscore.DG>
-14.6451

> <Gold.Chemscore.ZeroCoef>
-5.4800

> <Gold.Chemscore.Hbond>
0.7239

> <Gold.Chemscore.Metal>
0.0000

> <Gold.Chemscore.Lipo>
118.1239

> <Gold.Chemscore.Internal_Hbond>
0.0000

> <Gold.Chemscore.DEClash>
0.5190

> <Gold.Chemscore.DEInternal>
2.5795

> <Gold.Chemscore.Rot>
2.7630

> <Gold.Chemscore.Internal.Correction>
   9.000000E+99

> <Gold.Chemscore.Hbonds>
donor molecule, donor type, donor heavy atom, donor atom, acceptor molecule, acceptor atom, score
      L1  H    16    41       P1  8028  0.70

> <Gold.Chemscore.Hbond.Weighted>
-2.4180

> <Gold.Chemscore.Metal.Weighted>
-0.0000

> <Gold.Chemscore.Lipo.Weighted>
-13.8205

> <Gold.Chemscore.Internal_Hbond.Weighted>
0.0000

> <Gold.Chemscore.DEClash.Weighted>
0.5190

> <Gold.Chemscore.DEInternal.Weighted>
2.5795

> <Gold.Chemscore.Rot.Weighted>
7.0734

> <Gold.Chemscore.Internal.Correction.Weighted>
   9.000000E+99

> <Gold.Protein.RotatedTorsions>
[ 6907 6896 6895 6894 ] final  -35.01 input  -60.11 | X-H torsion
[ 7974 7965 7964 7962 ] final  -32.45 input  175.53 | X-H torsion
[ 8008 7997 7996 7995 ] final  101.61 input   59.86 | X-H torsion
[ 10167 10162 10161 10158 ] final  -13.39 input  -65.29 | X-H torsion
[ 10718 10713 10712 10709 ] final  156.03 input   66.30 | X-H torsion
[ 10763 10752 10751 10750 ] final  100.16 input  -60.55 | X-H torsion
[ 11005 11000 10999 10996 ] final   47.84 input  -57.11 | X-H torsion

> <Gold.Protein.ActiveResidues>
 VAL166  LYS551  ARG553  GLY616  TRP617  ASP618  TYR619  PRO620  LYS621  CYS622 
 ASP623  PHE694  ASN695  SER759  ASP760  ASP761  ALA762  ILE779  LEU786  VAL792 
 PHE793  MET794  SER795  GLU796  ALA797  LYS798  CYS799  TRP800  GLU811  SER814 

> <Gold.Protein.RotatedAtoms>
  151.0453  134.9635  159.8182 H   0  0  0  0  0  0  0  0  0  0  0  0  # atno 6907 bound_to 6896
  152.5371  134.2606  159.8944 H   0  0  0  0  0  0  0  0  0  0  0  0  # atno 6908 bound_to 6896
  151.2620  133.4254  159.2650 H   0  0  0  0  0  0  0  0  0  0  0  0  # atno 6909 bound_to 6896
  146.0989  140.5794  142.8830 H   0  0  0  0  0  0  0  0  0  0  0  0  # atno 7974 bound_to 7965
  156.1316  140.3194  155.8357 H   0  0  0  0  0  0  0  0  0  0  0  0  # atno 8008 bound_to 7997
  155.4322  140.0519  157.3034 H   0  0  0  0  0  0  0  0  0  0  0  0  # atno 8009 bound_to 7997
  154.4903  140.2089  155.9575 H   0  0  0  0  0  0  0  0  0  0  0  0  # atno 8010 bound_to 7997
  140.7181  143.5431  150.9386 H   0  0  0  0  0  0  0  0  0  0  0  0  # atno 10167 bound_to 10162
  157.2104  131.0696  151.1973 H   0  0  0  0  0  0  0  0  0  0  0  0  # atno 10718 bound_to 10713
  153.3105  135.4088  155.1331 H   0  0  0  0  0  0  0  0  0  0  0  0  # atno 10763 bound_to 10752
  154.8574  135.3563  154.5730 H   0  0  0  0  0  0  0  0  0  0  0  0  # atno 10764 bound_to 10752
  153.6159  135.7066  153.5387 H   0  0  0  0  0  0  0  0  0  0  0  0  # atno 10765 bound_to 10752
  140.1243  134.4788  155.8572 H   0  0  0  0  0  0  0  0  0  0  0  0  # atno 11005 bound_to 11000
  144.7417  140.4959  143.6865 LP  0  0  0  0  0  0  0  0  0  0  0  0  # atno 17320 bound_to 7965
  145.5894  139.1494  143.3190 LP  0  0  0  0  0  0  0  0  0  0  0  0  # atno 17321 bound_to 7965
  139.9154  143.6670  152.3107 LP  0  0  0  0  0  0  0  0  0  0  0  0  # atno 17342 bound_to 10162
  139.7068  144.7627  151.1180 LP  0  0  0  0  0  0  0  0  0  0  0  0  # atno 17343 bound_to 10162
  157.3678  130.7165  149.6544 LP  0  0  0  0  0  0  0  0  0  0  0  0  # atno 17370 bound_to 10713
  155.9691  130.4207  150.4436 LP  0  0  0  0  0  0  0  0  0  0  0  0  # atno 17371 bound_to 10713
  141.2158  133.6772  156.6949 LP  0  0  0  0  0  0  0  0  0  0  0  0  # atno 17394 bound_to 11000
  140.2924  134.8230  157.4028 LP  0  0  0  0  0  0  0  0  0  0  0  0  # atno 17395 bound_to 11000

$$$$
