AV-unprocessed.smi:1607|AV-procd|sdf|6464|dock8
  -GOLD-   22720 7123D 1   1.00000     0.00000
 Structure written by MMmdl.
 39 40  0  0  0  0  0  0  0  0  2 V2000
  146.1575  131.7724  149.0429 C   0  0  0  0  0  0  0  0  0  0  0  0
  145.4714  132.3618  150.2878 C   0  0  1  0  0  0  0  0  0  0  0  0
  144.5210  131.3637  150.9750 C   0  0  0  0  0  0  0  0  0  0  0  0
  145.3021  130.2856  151.7396 C   0  0  0  0  0  0  0  0  0  0  0  0
  146.3128  130.9183  152.7093 C   0  0  0  0  0  0  0  0  0  0  0  0
  147.2339  131.8405  151.9962 N   0  3  2  0  0  0  0  0  0  0  0  0
  148.3198  132.3430  152.8751 C   0  0  0  0  0  0  0  0  0  0  0  0
  147.8155  133.3850  153.8928 C   0  0  0  0  0  0  0  0  0  0  0  0
  148.7263  134.5192  153.9979 N   0  0  0  0  0  0  0  0  0  0  0  0
  149.4402  134.8313  155.0907 C   0  0  0  0  0  0  0  0  0  0  0  0
  149.3846  134.1870  156.1381 O   0  0  0  0  0  0  0  0  0  0  0  0
  150.3544  136.0542  154.9877 C   0  0  0  0  0  0  0  0  0  0  0  0
  151.0235  136.3182  156.2482 N   0  0  0  0  0  0  0  0  0  0  0  0
  150.5475  136.7306  157.4249 C   0  0  0  0  0  0  0  0  0  0  0  0
  151.5094  136.8499  158.3272 N   0  0  0  0  0  0  0  0  0  0  0  0
  152.6450  136.4780  157.6272 N   0  0  0  0  0  0  0  0  0  0  0  0
  152.3628  136.1609  156.3934 N   0  0  0  0  0  0  0  0  0  0  0  0
  146.4888  132.9254  151.3010 C   0  0  0  0  0  0  0  0  0  0  0  0
  146.8110  130.9369  149.2938 H   0  0  0  0  0  0  0  0  0  0  0  0
  146.7655  132.5245  148.5391 H   0  0  0  0  0  0  0  0  0  0  0  0
  145.4213  131.4133  148.3231 H   0  0  0  0  0  0  0  0  0  0  0  0
  144.8641  133.1968  149.9357 H   0  0  0  0  0  0  0  0  0  0  0  0
  143.8815  131.9026  151.6755 H   0  0  0  0  0  0  0  0  0  0  0  0
  143.8538  130.9035  150.2452 H   0  0  0  0  0  0  0  0  0  0  0  0
  144.6098  129.6479  152.2904 H   0  0  0  0  0  0  0  0  0  0  0  0
  145.8230  129.6339  151.0377 H   0  0  0  0  0  0  0  0  0  0  0  0
  145.7912  131.4616  153.4989 H   0  0  0  0  0  0  0  0  0  0  0  0
  146.8829  130.1243  153.1935 H   0  0  0  0  0  0  0  0  0  0  0  0
  148.8048  131.5069  153.3813 H   0  0  0  0  0  0  0  0  0  0  0  0
  149.0855  132.8124  152.2558 H   0  0  0  0  0  0  0  0  0  0  0  0
  146.8176  133.7336  153.6205 H   0  0  0  0  0  0  0  0  0  0  0  0
  147.7298  132.9489  154.8873 H   0  0  0  0  0  0  0  0  0  0  0  0
  148.8309  135.1008  153.1788 H   0  0  0  0  0  0  0  0  0  0  0  0
  151.1122  135.9105  154.2158 H   0  0  0  0  0  0  0  0  0  0  0  0
  149.7638  136.9256  154.7012 H   0  0  0  0  0  0  0  0  0  0  0  0
  149.5063  136.9434  157.6181 H   0  0  0  0  0  0  0  0  0  0  0  0
  147.1754  133.5946  150.7835 H   0  0  0  0  0  0  0  0  0  0  0  0
  145.9696  133.5323  152.0448 H   0  0  0  0  0  0  0  0  0  0  0  0
  147.6826  131.2864  151.2806 H   0  0  0  0  0  0  0  0  0  0  0  0
  1  2  1  0  0  0  0
  1 19  1  0  0  0  0
  1 20  1  0  0  0  0
  1 21  1  0  0  0  0
  2 18  1  0  0  0  0
  2  3  1  0  0  0  0
  2 22  1  0  0  0  0
  3  4  1  0  0  0  0
  3 23  1  0  0  0  0
  3 24  1  0  0  0  0
  4  5  1  0  0  0  0
  4 25  1  0  0  0  0
  4 26  1  0  0  0  0
  5  6  1  0  0  0  0
  5 27  1  0  0  0  0
  5 28  1  0  0  0  0
  6  7  1  0  0  0  0
  6 18  1  0  0  0  0
  6 39  1  0  0  0  0
  7  8  1  0  0  0  0
  7 29  1  0  0  0  0
  7 30  1  0  0  0  0
  8  9  1  0  0  0  0
  8 31  1  0  0  0  0
  8 32  1  0  0  0  0
  9 10  1  0  0  0  0
  9 33  1  0  0  0  0
 10 11  2  0  0  0  0
 10 12  1  0  0  0  0
 12 13  1  0  0  0  0
 12 34  1  0  0  0  0
 12 35  1  0  0  0  0
 13 17  1  0  0  0  0
 13 14  1  0  0  0  0
 14 15  2  0  0  0  0
 14 36  1  0  0  0  0
 15 16  1  0  0  0  0
 16 17  2  0  0  0  0
 18 37  1  0  0  0  0
 18 38  1  0  0  0  0
M  CHG  1   6   1
M  END
> <s_m_source_file>
AV-unprocessed.smi

> <i_m_source_file_index>
1607

> <i_lp_mmshare_version>
43012

> <i_f3d_flags>
0

> <s_epik_input>
W0NIM11bQ0BASF0xW0NIMl1bQ0gyXVtDSDJdTihbQ0gyXTEpW0NIMl1bQ0gyXVtOSF1DKD1PKVtDSDJdbjJbY0hdbm5uMg==

> <s_epik_cmdline>
J2VwaWtfcHl0aG9uJywgJy1waCcsICc3LjAnLCAnLXRuJywgJzgnLCAnLW1hJywgJzIwMCcsICctbWV0YWxfYmluZGluZycsICctaW1hZScsICc8aW5maWxlLm1hZT4nLCAnLW9tYWUnLCAnPG91dGZpbGUubWFlPic=

> <r_lp_tautomer_probability>
1

> <r_epik_Ionization_Penalty>
0.00268321

> <r_epik_Ionization_Penalty_Charging>
0.00267875

> <r_epik_Ionization_Penalty_Neutral>
4.46125e-06

> <r_epik_State_Penalty>
0.00186642

> <r_epik_Charging_Adjusted_Penalty>
0.00454517

> <i_epik_Tot_Q>
1

> <i_epik_Tot_abs_Q>
1

> <r_epik_Metal_State_Penalty>
-0

> <b_epik_Metal_Only>
0

> <s_lp_Force_Field>
OPLS_2005

> <r_lp_Energy>
22.4706

> <b_lp_Chiralities_Consistent>
1

> <s_lp_Variant>
AV-unprocessed.smi:1607-2

> <Gold.Version>
5.8.1

> <Gold.Id.Protein>
6NUR|6NUR_protein|mol2

> <Gold.PLP.Fitness>
41.6974

> <Gold.PLP.PLP>
-31.3867

> <Gold.PLP.part.hbond>
-4.6067

> <Gold.PLP.part.metal>
0.0000

> <Gold.PLP.part.buried>
-3.2257

> <Gold.PLP.part.nonpolar>
-23.3440

> <Gold.PLP.part.repulsive>
0.0049

> <Gold.PLP.ligand.clash>
0.0000

> <Gold.PLP.ligand.torsion>
0.4484

> <Gold.PLP.Chemscore.Hbond>
3.7200

> <Gold.PLP.Chemscore.CHOScore>
0.0000

> <Gold.PLP.Chemscore.Metal>
0.0000

> <Gold.Chemscore.Hbonds>
donor molecule, donor type, donor heavy atom, donor atom, acceptor molecule, acceptor atom, score
      L1  H     6    39       P1 10747  1.00
      L1  H     9    33       P1  7948  1.00
      P1  H  6896  6909       L1    15  0.18
      P1  H 10752 10763       L1    17  1.00

> <Gold.PLP.Chemscore.Internal.Correction>
0.0475

> <Gold.Rescore>
     Score         DG    S(hbond)    S(metal)    S(lipo)     H(rot)  DE(clash)    DE(int)     intcor
     16.85     -17.41       3.18        0.00      70.20       2.69       0.04       0.52       ----

> <Gold.Chemscore.Fitness>
16.8530

> <Gold.Chemscore.DG>
-17.4090

> <Gold.Chemscore.ZeroCoef>
-5.4800

> <Gold.Chemscore.Hbond>
3.1766

> <Gold.Chemscore.Metal>
0.0000

> <Gold.Chemscore.Lipo>
70.2022

> <Gold.Chemscore.Internal_Hbond>
0.0000

> <Gold.Chemscore.DEClash>
0.0396

> <Gold.Chemscore.DEInternal>
0.5164

> <Gold.Chemscore.Rot>
2.6932

> <Gold.Chemscore.Internal.Correction>
   9.000000E+99

> <Gold.Chemscore.Hbonds>
donor molecule, donor type, donor heavy atom, donor atom, acceptor molecule, acceptor atom, score
      L1  H     6    39       P1 10747  0.98
      L1  H     9    33       P1  7948  0.45
      P1  H  6896  6909       L1    15  0.04
      P1  H 10752 10763       L1    17  0.97

> <Gold.Chemscore.Hbond.Weighted>
-10.6099

> <Gold.Chemscore.Metal.Weighted>
-0.0000

> <Gold.Chemscore.Lipo.Weighted>
-8.2137

> <Gold.Chemscore.Internal_Hbond.Weighted>
0.0000

> <Gold.Chemscore.DEClash.Weighted>
0.0396

> <Gold.Chemscore.DEInternal.Weighted>
0.5164

> <Gold.Chemscore.Rot.Weighted>
6.8945

> <Gold.Chemscore.Internal.Correction.Weighted>
   9.000000E+99

> <Gold.Protein.RotatedTorsions>
[ 6907 6896 6895 6894 ] final  110.76 input  -60.11 | X-H torsion
[ 7974 7965 7964 7962 ] final  -68.74 input  175.53 | X-H torsion
[ 8008 7997 7996 7995 ] final  101.58 input   59.86 | X-H torsion
[ 10167 10162 10161 10158 ] final  155.88 input  -65.29 | X-H torsion
[ 10718 10713 10712 10709 ] final  -22.26 input   66.30 | X-H torsion
[ 10763 10752 10751 10750 ] final   97.42 input  -60.55 | X-H torsion
[ 11005 11000 10999 10996 ] final -134.20 input  -57.11 | X-H torsion

> <Gold.Protein.ActiveResidues>
 VAL166  LYS551  ARG553  GLY616  TRP617  ASP618  TYR619  PRO620  LYS621  CYS622 
 ASP623  PHE694  ASN695  SER759  ASP760  ASP761  ALA762  ILE779  LEU786  VAL792 
 PHE793  MET794  SER795  GLU796  ALA797  LYS798  CYS799  TRP800  GLU811  SER814 

> <Gold.Protein.RotatedAtoms>
  152.5004  133.8754  159.7319 H   0  0  0  0  0  0  0  0  0  0  0  0  # atno 6907 bound_to 6896
  150.9230  133.6848  159.2834 H   0  0  0  0  0  0  0  0  0  0  0  0  # atno 6908 bound_to 6896
  151.4219  135.1003  159.9669 H   0  0  0  0  0  0  0  0  0  0  0  0  # atno 6909 bound_to 6896
  145.7127  140.9072  143.0672 H   0  0  0  0  0  0  0  0  0  0  0  0  # atno 7974 bound_to 7965
  156.1312  140.3195  155.8352 H   0  0  0  0  0  0  0  0  0  0  0  0  # atno 8008 bound_to 7997
  155.4328  140.0520  157.3034 H   0  0  0  0  0  0  0  0  0  0  0  0  # atno 8009 bound_to 7997
  154.4901  140.2088  155.9581 H   0  0  0  0  0  0  0  0  0  0  0  0  # atno 8010 bound_to 7997
  139.4821  144.5059  151.8098 H   0  0  0  0  0  0  0  0  0  0  0  0  # atno 10167 bound_to 10162
  156.5070  130.4601  149.6669 H   0  0  0  0  0  0  0  0  0  0  0  0  # atno 10718 bound_to 10713
  153.2768  135.4184  155.1040 H   0  0  0  0  0  0  0  0  0  0  0  0  # atno 10763 bound_to 10752
  154.8475  135.3485  154.6168 H   0  0  0  0  0  0  0  0  0  0  0  0  # atno 10764 bound_to 10752
  153.6588  135.7049  153.5242 H   0  0  0  0  0  0  0  0  0  0  0  0  # atno 10765 bound_to 10752
  140.9012  134.1688  157.4459 H   0  0  0  0  0  0  0  0  0  0  0  0  # atno 11005 bound_to 11000
  144.6937  139.9096  143.7463 LP  0  0  0  0  0  0  0  0  0  0  0  0  # atno 17320 bound_to 7965
  146.0698  139.3687  143.0530 LP  0  0  0  0  0  0  0  0  0  0  0  0  # atno 17321 bound_to 7965
  140.4557  144.1793  150.5901 LP  0  0  0  0  0  0  0  0  0  0  0  0  # atno 17342 bound_to 10162
  140.4538  143.2476  151.9312 LP  0  0  0  0  0  0  0  0  0  0  0  0  # atno 17343 bound_to 10162
  156.3277  130.7315  151.2238 LP  0  0  0  0  0  0  0  0  0  0  0  0  # atno 17370 bound_to 10713
  157.7455  131.0438  150.4763 LP  0  0  0  0  0  0  0  0  0  0  0  0  # atno 17371 bound_to 10713
  139.8742  134.9898  156.5476 LP  0  0  0  0  0  0  0  0  0  0  0  0  # atno 17394 bound_to 11000
  140.8228  133.8340  155.8911 LP  0  0  0  0  0  0  0  0  0  0  0  0  # atno 17395 bound_to 11000

$$$$
