AV-unprocessed.smi:2032|AV-procd|sdf|8255|dock6
  -GOLD-   2272010533D 1   1.00000     0.00000
 Structure written by MMmdl.
 42 43  0  0  0  0  0  0  0  0  3 V2000
  145.3926  132.5158  150.0916 C   0  0  0  0  0  0  0  0  0  0  0  0
  145.6802  131.9271  151.4770 C   0  0  2  0  0  0  0  0  0  0  0  0
  146.6895  132.7754  152.2715 C   0  0  0  0  0  0  0  0  0  0  0  0
  146.9876  132.1561  153.5915 N   0  3  2  0  0  0  0  0  0  0  0  0
  147.8792  133.0070  154.4475 C   0  0  2  0  0  0  0  0  0  0  0  0
  149.2439  133.3203  153.7847 C   0  0  0  0  0  0  0  0  0  0  0  0
  148.0803  132.3378  155.8326 C   0  0  0  0  0  0  0  0  0  0  0  0
  148.4467  133.2884  156.8799 N   0  0  0  0  0  0  0  0  0  0  0  0
  147.8455  133.4282  158.0706 C   0  0  0  0  0  0  0  0  0  0  0  0
  146.8988  132.6990  158.3743 O   0  0  0  0  0  0  0  0  0  0  0  0
  148.3841  134.4023  158.8373 N   0  5  0  0  0  0  0  0  0  0  0  0
  147.8068  134.7328  160.0041 C   0  0  0  0  0  0  0  0  0  0  0  0
  147.2386  133.8337  160.8157 N   0  0  0  0  0  0  0  0  0  0  0  0
  146.6978  134.3948  161.9740 C   0  0  0  0  0  0  0  0  0  0  0  0
  146.8510  135.7541  162.0421 C   0  0  0  0  0  0  0  0  0  0  0  0
  147.6823  136.3740  160.6441 S   0  0  0  0  0  0  0  0  0  0  0  0
  147.4388  130.7519  153.3854 C   0  0  0  0  0  0  0  0  0  0  0  0
  146.4228  129.9582  152.5411 C   0  0  2  0  0  0  0  0  0  0  0  0
  146.9068  128.5345  152.2434 C   0  0  0  0  0  0  0  0  0  0  0  0
  146.2148  130.6223  151.3019 O   0  0  0  0  0  0  0  0  0  0  0  0
  144.9702  133.5180  150.1708 H   0  0  0  0  0  0  0  0  0  0  0  0
  144.6783  131.8980  149.5467 H   0  0  0  0  0  0  0  0  0  0  0  0
  146.3012  132.5817  149.4921 H   0  0  0  0  0  0  0  0  0  0  0  0
  144.7392  131.8631  152.0264 H   0  0  0  0  0  0  0  0  0  0  0  0
  147.6158  132.8833  151.7046 H   0  0  0  0  0  0  0  0  0  0  0  0
  146.2750  133.7743  152.3890 H   0  0  0  0  0  0  0  0  0  0  0  0
  147.3789  133.9652  154.5969 H   0  0  0  0  0  0  0  0  0  0  0  0
  149.8771  133.9299  154.4283 H   0  0  0  0  0  0  0  0  0  0  0  0
  149.1331  133.8963  152.8663 H   0  0  0  0  0  0  0  0  0  0  0  0
  149.7943  132.4074  153.5551 H   0  0  0  0  0  0  0  0  0  0  0  0
  147.1628  131.8683  156.1810 H   0  0  0  0  0  0  0  0  0  0  0  0
  148.8130  131.5333  155.7536 H   0  0  0  0  0  0  0  0  0  0  0  0
  149.2190  133.9082  156.6826 H   0  0  0  0  0  0  0  0  0  0  0  0
  146.2209  133.7503  162.6973 H   0  0  0  0  0  0  0  0  0  0  0  0
  146.5266  136.4254  162.8228 H   0  0  0  0  0  0  0  0  0  0  0  0
  148.4184  130.7508  152.9042 H   0  0  0  0  0  0  0  0  0  0  0  0
  147.5393  130.2343  154.3388 H   0  0  0  0  0  0  0  0  0  0  0  0
  145.4735  129.8939  153.0764 H   0  0  0  0  0  0  0  0  0  0  0  0
  147.0736  127.9751  153.1643 H   0  0  0  0  0  0  0  0  0  0  0  0
  147.8424  128.5438  151.6832 H   0  0  0  0  0  0  0  0  0  0  0  0
  146.1710  127.9881  151.6527 H   0  0  0  0  0  0  0  0  0  0  0  0
  146.1105  132.0903  154.0884 H   0  0  0  0  0  0  0  0  0  0  0  0
  1  2  1  0  0  0  0
  1 21  1  0  0  0  0
  1 22  1  0  0  0  0
  1 23  1  0  0  0  0
  2 20  1  0  0  0  0
  2  3  1  0  0  0  0
  2 24  1  0  0  0  0
  3  4  1  0  0  0  0
  3 25  1  0  0  0  0
  3 26  1  0  0  0  0
  4  5  1  0  0  0  0
  4 17  1  0  0  0  0
  4 42  1  0  0  0  0
  5  6  1  0  0  0  0
  5  7  1  0  0  0  0
  5 27  1  0  0  0  0
  6 28  1  0  0  0  0
  6 29  1  0  0  0  0
  6 30  1  0  0  0  0
  7  8  1  0  0  0  0
  7 31  1  0  0  0  0
  7 32  1  0  0  0  0
  8  9  1  0  0  0  0
  8 33  1  0  0  0  0
  9 10  2  0  0  0  0
  9 11  1  0  0  0  0
 11 12  1  0  0  0  0
 12 16  1  0  0  0  0
 12 13  2  0  0  0  0
 13 14  1  0  0  0  0
 14 15  2  0  0  0  0
 14 34  1  0  0  0  0
 15 16  1  0  0  0  0
 15 35  1  0  0  0  0
 17 18  1  0  0  0  0
 17 36  1  0  0  0  0
 17 37  1  0  0  0  0
 18 19  1  0  0  0  0
 18 20  1  0  0  0  0
 18 38  1  0  0  0  0
 19 39  1  0  0  0  0
 19 40  1  0  0  0  0
 19 41  1  0  0  0  0
M  CHG  1   4   1
M  CHG  1  11  -1
M  END
> <s_m_source_file>
AV-unprocessed.smi

> <i_m_source_file_index>
2032

> <i_lp_mmshare_version>
43012

> <i_f3d_flags>
0

> <s_epik_input>
W0NIM11bQ0BASF0xW0NIMl1OKFtDSDJdW0NASF0oTzEpW0NIM10pW0NASF0oW0NIM10pW0NIMl1bTkhdQyg9TylbTkhdYzJuW2NIXVtjSF1zMg==

> <s_epik_cmdline>
J2VwaWtfcHl0aG9uJywgJy1waCcsICc3LjAnLCAnLXRuJywgJzgnLCAnLW1hJywgJzIwMCcsICctbWV0YWxfYmluZGluZycsICctaW1hZScsICc8aW5maWxlLm1hZT4nLCAnLW9tYWUnLCAnPG91dGZpbGUubWFlPic=

> <r_lp_tautomer_probability>
0.999

> <r_epik_Ionization_Penalty>
6.71699

> <r_epik_Ionization_Penalty_Charging>
5.88592

> <r_epik_Ionization_Penalty_Neutral>
0.831074

> <r_epik_State_Penalty>
6.08365

> <r_epik_Charging_Adjusted_Penalty>
11.9696

> <i_epik_Tot_Q>
0

> <i_epik_Tot_abs_Q>
2

> <r_epik_Metal_State_Penalty>
2.0947

> <b_epik_Metal_Only>
1

> <s_lp_Force_Field>
OPLS_2005

> <r_lp_Energy>
9.66165

> <b_lp_Chiralities_Consistent>
1

> <s_lp_Variant>
AV-unprocessed.smi:2032-25

> <Gold.Version>
5.8.1

> <Gold.Id.Protein>
6NUR|6NUR_protein|mol2

> <Gold.PLP.Fitness>
36.4951

> <Gold.PLP.PLP>
-31.4987

> <Gold.PLP.part.hbond>
-1.0000

> <Gold.PLP.part.metal>
0.0000

> <Gold.PLP.part.buried>
-5.4569

> <Gold.PLP.part.nonpolar>
-26.6452

> <Gold.PLP.part.repulsive>
1.1503

> <Gold.PLP.ligand.clash>
0.0000

> <Gold.PLP.ligand.torsion>
0.5378

> <Gold.PLP.Chemscore.Hbond>
2.0000

> <Gold.PLP.Chemscore.CHOScore>
0.0000

> <Gold.PLP.Chemscore.Metal>
0.0000

> <Gold.Chemscore.Hbonds>
donor molecule, donor type, donor heavy atom, donor atom, acceptor molecule, acceptor atom, score
      P1  H  6896  6908       L1    11  0.49

> <Gold.PLP.Chemscore.Internal.Correction>
0.0720

> <Gold.Rescore>
     Score         DG    S(hbond)    S(metal)    S(lipo)     H(rot)  DE(clash)    DE(int)     intcor
     10.78     -12.91       0.65        0.00      79.54       1.58       0.01       2.11       ----

> <Gold.Chemscore.Fitness>
10.7833

> <Gold.Chemscore.DG>
-12.9052

> <Gold.Chemscore.ZeroCoef>
-5.4800

> <Gold.Chemscore.Hbond>
0.6473

> <Gold.Chemscore.Metal>
0.0000

> <Gold.Chemscore.Lipo>
79.5356

> <Gold.Chemscore.Internal_Hbond>
0.0000

> <Gold.Chemscore.DEClash>
0.0106

> <Gold.Chemscore.DEInternal>
2.1113

> <Gold.Chemscore.Rot>
1.5791

> <Gold.Chemscore.Internal.Correction>
   9.000000E+99

> <Gold.Chemscore.Hbonds>
donor molecule, donor type, donor heavy atom, donor atom, acceptor molecule, acceptor atom, score
      P1  H  6896  6908       L1    11  0.10

> <Gold.Chemscore.Hbond.Weighted>
-2.1620

> <Gold.Chemscore.Metal.Weighted>
-0.0000

> <Gold.Chemscore.Lipo.Weighted>
-9.3057

> <Gold.Chemscore.Internal_Hbond.Weighted>
0.0000

> <Gold.Chemscore.DEClash.Weighted>
0.0106

> <Gold.Chemscore.DEInternal.Weighted>
2.1113

> <Gold.Chemscore.Rot.Weighted>
4.0425

> <Gold.Chemscore.Internal.Correction.Weighted>
   9.000000E+99

> <Gold.Protein.RotatedTorsions>
[ 6907 6896 6895 6894 ] final  142.56 input  -60.11 | X-H torsion
[ 7974 7965 7964 7962 ] final  150.12 input  175.53 | X-H torsion
[ 8008 7997 7996 7995 ] final   88.30 input   59.86 | X-H torsion
[ 10167 10162 10161 10158 ] final   -9.09 input  -65.29 | X-H torsion
[ 10718 10713 10712 10709 ] final    4.46 input   66.30 | X-H torsion
[ 10763 10752 10751 10750 ] final  114.48 input  -60.55 | X-H torsion
[ 11005 11000 10999 10996 ] final -173.94 input  -57.11 | X-H torsion

> <Gold.Protein.ActiveResidues>
 VAL166  LYS551  ARG553  GLY616  TRP617  ASP618  TYR619  PRO620  LYS621  CYS622 
 ASP623  PHE694  ASN695  SER759  ASP760  ASP761  ALA762  ILE779  LEU786  VAL792 
 PHE793  MET794  SER795  GLU796  ALA797  LYS798  CYS799  TRP800  GLU811  SER814 

> <Gold.Protein.RotatedAtoms>
  152.2172  133.4955  159.5141 H   0  0  0  0  0  0  0  0  0  0  0  0  # atno 6907 bound_to 6896
  150.7004  134.1390  159.4107 H   0  0  0  0  0  0  0  0  0  0  0  0  # atno 6908 bound_to 6896
  151.9311  135.0256  160.0580 H   0  0  0  0  0  0  0  0  0  0  0  0  # atno 6909 bound_to 6896
  144.8388  139.6367  143.6026 H   0  0  0  0  0  0  0  0  0  0  0  0  # atno 7974 bound_to 7965
  155.9861  140.3373  155.6708 H   0  0  0  0  0  0  0  0  0  0  0  0  # atno 8008 bound_to 7997
  155.6484  140.0703  157.2613 H   0  0  0  0  0  0  0  0  0  0  0  0  # atno 8009 bound_to 7997
  154.4205  140.1730  156.1635 H   0  0  0  0  0  0  0  0  0  0  0  0  # atno 8010 bound_to 7997
  140.7077  143.5897  150.8907 H   0  0  0  0  0  0  0  0  0  0  0  0  # atno 10167 bound_to 10162
  156.8929  130.5694  149.5649 H   0  0  0  0  0  0  0  0  0  0  0  0  # atno 10718 bound_to 10713
  153.5080  135.3624  155.2572 H   0  0  0  0  0  0  0  0  0  0  0  0  # atno 10763 bound_to 10752
  154.8744  135.4016  154.3402 H   0  0  0  0  0  0  0  0  0  0  0  0  # atno 10764 bound_to 10752
  153.4050  135.7076  153.6466 H   0  0  0  0  0  0  0  0  0  0  0  0  # atno 10765 bound_to 10752
  140.4801  134.6084  157.4916 H   0  0  0  0  0  0  0  0  0  0  0  0  # atno 11005 bound_to 11000
  146.2683  139.6573  142.9314 LP  0  0  0  0  0  0  0  0  0  0  0  0  # atno 17320 bound_to 7965
  145.4739  141.0436  143.2683 LP  0  0  0  0  0  0  0  0  0  0  0  0  # atno 17321 bound_to 7965
  139.9622  143.6151  152.2999 LP  0  0  0  0  0  0  0  0  0  0  0  0  # atno 17342 bound_to 10162
  139.6707  144.7661  151.1788 LP  0  0  0  0  0  0  0  0  0  0  0  0  # atno 17343 bound_to 10162
  156.0620  130.5670  150.9211 LP  0  0  0  0  0  0  0  0  0  0  0  0  # atno 17370 bound_to 10713
  157.6072  131.0938  150.8858 LP  0  0  0  0  0  0  0  0  0  0  0  0  # atno 17371 bound_to 10713
  139.9832  134.7104  155.9821 LP  0  0  0  0  0  0  0  0  0  0  0  0  # atno 17394 bound_to 11000
  141.1535  133.6545  156.4089 LP  0  0  0  0  0  0  0  0  0  0  0  0  # atno 17395 bound_to 11000

$$$$
