AV-unprocessed.smi:2170|AV-procd|sdf|8825|dock9
  -GOLD-   2272012 23D 1   1.00000     0.00000
 Structure written by MMmdl.
 45 46  0  0  0  0  0  0  0  0  2 V2000
  148.3017  132.6644  155.8144 C   0  0  0  0  0  0  0  0  0  0  0  0
  149.2137  133.6802  155.1033 C   0  0  0  0  0  0  0  0  0  0  0  0
  149.4255  133.3116  153.6237 C   0  0  0  0  0  0  0  0  0  0  0  0
  150.4967  133.8557  155.8290 N   0  0  0  0  0  0  0  0  0  0  0  0
  150.9965  132.6683  156.5514 C   0  0  0  0  0  0  0  0  0  0  0  0
  150.8223  135.4146  156.5378 S   0  0  0  0  0  0  0  0  0  0  0  0
  150.0413  135.4881  157.7838 O   0  0  0  0  0  0  0  0  0  0  0  0
  152.2878  135.5121  156.6398 O   0  0  0  0  0  0  0  0  0  0  0  0
  150.1883  136.3194  155.3511 N   0  5  0  0  0  0  0  0  0  0  0  0
  151.0085  137.3475  154.7381 C   0  0  0  0  0  0  0  0  0  0  0  0
  151.2915  138.4906  155.7022 C   0  0  0  0  0  0  0  0  0  0  0  0
  151.0261  139.8297  155.3422 C   0  0  0  0  0  0  0  0  0  0  0  0
  151.3058  140.8552  156.2668 C   0  0  0  0  0  0  0  0  0  0  0  0
  151.8428  140.5185  157.5319 C   0  0  0  0  0  0  0  0  0  0  0  0
  152.1241  141.5310  158.4753 N   0  0  0  0  0  0  0  0  0  0  0  0
  152.6622  141.1268  159.7731 C   0  0  0  0  0  0  0  0  0  0  0  0
  153.1649  142.3548  160.5504 C   0  0  0  0  0  0  0  0  0  0  0  0
  152.1154  143.3097  160.6663 O   0  0  0  0  0  0  0  0  0  0  0  0
  151.6787  143.7733  159.3930 C   0  0  0  0  0  0  0  0  0  0  0  0
  151.1290  142.5965  158.5685 C   0  0  0  0  0  0  0  0  0  0  0  0
  152.1052  139.2323  157.8714 N   0  0  0  0  0  0  0  0  0  0  0  0
  151.8333  138.2505  156.9843 C   0  0  0  0  0  0  0  0  0  0  0  0
  147.3349  132.5985  155.3150 H   0  0  0  0  0  0  0  0  0  0  0  0
  148.1123  132.9535  156.8481 H   0  0  0  0  0  0  0  0  0  0  0  0
  148.7343  131.6640  155.8209 H   0  0  0  0  0  0  0  0  0  0  0  0
  148.7016  134.6420  155.1024 H   0  0  0  0  0  0  0  0  0  0  0  0
  148.4839  133.3664  153.0768 H   0  0  0  0  0  0  0  0  0  0  0  0
  149.8063  132.2972  153.5030 H   0  0  0  0  0  0  0  0  0  0  0  0
  150.1231  133.9977  153.1420 H   0  0  0  0  0  0  0  0  0  0  0  0
  150.2942  132.3667  157.3276 H   0  0  0  0  0  0  0  0  0  0  0  0
  151.9505  132.8762  157.0343 H   0  0  0  0  0  0  0  0  0  0  0  0
  151.1611  131.8322  155.8737 H   0  0  0  0  0  0  0  0  0  0  0  0
  151.9607  136.9470  154.3881 H   0  0  0  0  0  0  0  0  0  0  0  0
  150.5284  137.7710  153.8552 H   0  0  0  0  0  0  0  0  0  0  0  0
  150.6151  140.0856  154.3752 H   0  0  0  0  0  0  0  0  0  0  0  0
  151.1173  141.8813  155.9900 H   0  0  0  0  0  0  0  0  0  0  0  0
  151.8851  140.6168  160.3442 H   0  0  0  0  0  0  0  0  0  0  0  0
  153.4846  140.4230  159.6386 H   0  0  0  0  0  0  0  0  0  0  0  0
  153.4895  142.0603  161.5485 H   0  0  0  0  0  0  0  0  0  0  0  0
  154.0274  142.8035  160.0545 H   0  0  0  0  0  0  0  0  0  0  0  0
  150.9019  144.5245  159.5366 H   0  0  0  0  0  0  0  0  0  0  0  0
  152.5019  144.2627  158.8701 H   0  0  0  0  0  0  0  0  0  0  0  0
  150.8339  142.9614  157.5858 H   0  0  0  0  0  0  0  0  0  0  0  0
  150.2307  142.1976  159.0414 H   0  0  0  0  0  0  0  0  0  0  0  0
  152.0625  137.2499  157.3249 H   0  0  0  0  0  0  0  0  0  0  0  0
  1  2  1  0  0  0  0
  1 23  1  0  0  0  0
  1 24  1  0  0  0  0
  1 25  1  0  0  0  0
  2  3  1  0  0  0  0
  2  4  1  0  0  0  0
  2 26  1  0  0  0  0
  3 27  1  0  0  0  0
  3 28  1  0  0  0  0
  3 29  1  0  0  0  0
  4  5  1  0  0  0  0
  4  6  1  0  0  0  0
  5 30  1  0  0  0  0
  5 31  1  0  0  0  0
  5 32  1  0  0  0  0
  6  7  2  0  0  0  0
  6  8  2  0  0  0  0
  6  9  1  0  0  0  0
  9 10  1  0  0  0  0
 10 11  1  0  0  0  0
 10 33  1  0  0  0  0
 10 34  1  0  0  0  0
 11 22  1  0  0  0  0
 11 12  2  0  0  0  0
 12 13  1  0  0  0  0
 12 35  1  0  0  0  0
 13 14  2  0  0  0  0
 13 36  1  0  0  0  0
 14 15  1  0  0  0  0
 14 21  1  0  0  0  0
 15 20  1  0  0  0  0
 15 16  1  0  0  0  0
 16 17  1  0  0  0  0
 16 37  1  0  0  0  0
 16 38  1  0  0  0  0
 17 18  1  0  0  0  0
 17 39  1  0  0  0  0
 17 40  1  0  0  0  0
 18 19  1  0  0  0  0
 19 20  1  0  0  0  0
 19 41  1  0  0  0  0
 19 42  1  0  0  0  0
 20 43  1  0  0  0  0
 20 44  1  0  0  0  0
 21 22  2  0  0  0  0
 22 45  1  0  0  0  0
M  CHG  1   9  -1
M  END
> <s_m_source_file>
AV-unprocessed.smi

> <i_m_source_file_index>
2170

> <i_lp_mmshare_version>
43012

> <i_f3d_flags>
0

> <s_epik_input>
W0NIM11bQ0hdKFtDSDNdKU4oW0NIM10pUyg9TykoPU8pW05IXVtDSDJdYzFbY0hdW2NIXWMobltjSF0xKU4yW0NIMl1bQ0gyXU9bQ0gyXVtDSDJdMg==

> <s_epik_cmdline>
J2VwaWtfcHl0aG9uJywgJy1waCcsICc3LjAnLCAnLXRuJywgJzgnLCAnLW1hJywgJzIwMCcsICctbWV0YWxfYmluZGluZycsICctaW1hZScsICc8aW5maWxlLm1hZT4nLCAnLW9tYWUnLCAnPG91dGZpbGUubWFlPic=

> <r_lp_tautomer_probability>
1

> <r_epik_Ionization_Penalty>
3.3971

> <r_epik_Ionization_Penalty_Charging>
3.31706

> <r_epik_Ionization_Penalty_Neutral>
0.0800436

> <r_epik_State_Penalty>
3.32044

> <r_epik_Charging_Adjusted_Penalty>
6.63751

> <i_epik_Tot_Q>
-1

> <i_epik_Tot_abs_Q>
1

> <r_epik_Metal_State_Penalty>
0.488406

> <b_epik_Metal_Only>
1

> <s_lp_Force_Field>
OPLS_2005

> <r_lp_Energy>
16.8192

> <b_lp_Chiralities_Consistent>
1

> <s_lp_Variant>
AV-unprocessed.smi:2170-2

> <Gold.Version>
5.8.1

> <Gold.Id.Protein>
6NUR|6NUR_protein|mol2

> <Gold.PLP.Fitness>
41.9634

> <Gold.PLP.PLP>
-37.4819

> <Gold.PLP.part.hbond>
-2.0000

> <Gold.PLP.part.metal>
0.0000

> <Gold.PLP.part.buried>
-5.3313

> <Gold.PLP.part.nonpolar>
-30.8686

> <Gold.PLP.part.repulsive>
0.1711

> <Gold.PLP.ligand.clash>
0.0000

> <Gold.PLP.ligand.torsion>
2.4354

> <Gold.PLP.Chemscore.Hbond>
1.7680

> <Gold.PLP.Chemscore.CHOScore>
0.0000

> <Gold.PLP.Chemscore.Metal>
0.0000

> <Gold.Chemscore.Hbonds>
donor molecule, donor type, donor heavy atom, donor atom, acceptor molecule, acceptor atom, score
      P1  H  6896  6908       L1     7  0.74
      P1  H 10752 10764       L1     8  1.00

> <Gold.PLP.Chemscore.Internal.Correction>
4.0484

> <Gold.Rescore>
     Score         DG    S(hbond)    S(metal)    S(lipo)     H(rot)  DE(clash)    DE(int)     intcor
     15.62     -18.00       1.76        0.00      90.58       1.54       0.02       2.37       ----

> <Gold.Chemscore.Fitness>
15.6167

> <Gold.Chemscore.DG>
-18.0048

> <Gold.Chemscore.ZeroCoef>
-5.4800

> <Gold.Chemscore.Hbond>
1.7583

> <Gold.Chemscore.Metal>
0.0000

> <Gold.Chemscore.Lipo>
90.5841

> <Gold.Chemscore.Internal_Hbond>
0.0000

> <Gold.Chemscore.DEClash>
0.0161

> <Gold.Chemscore.DEInternal>
2.3720

> <Gold.Chemscore.Rot>
1.5415

> <Gold.Chemscore.Internal.Correction>
   9.000000E+99

> <Gold.Chemscore.Hbonds>
donor molecule, donor type, donor heavy atom, donor atom, acceptor molecule, acceptor atom, score
      P1  H  6896  6908       L1     7  0.70
      P1  H 10752 10764       L1     8  0.98

> <Gold.Chemscore.Hbond.Weighted>
-5.8727

> <Gold.Chemscore.Metal.Weighted>
-0.0000

> <Gold.Chemscore.Lipo.Weighted>
-10.5983

> <Gold.Chemscore.Internal_Hbond.Weighted>
0.0000

> <Gold.Chemscore.DEClash.Weighted>
0.0161

> <Gold.Chemscore.DEInternal.Weighted>
2.3720

> <Gold.Chemscore.Rot.Weighted>
3.9462

> <Gold.Chemscore.Internal.Correction.Weighted>
   9.000000E+99

> <Gold.Protein.RotatedTorsions>
[ 6907 6896 6895 6894 ] final  165.84 input  -60.11 | X-H torsion
[ 7974 7965 7964 7962 ] final   47.76 input  175.53 | X-H torsion
[ 8008 7997 7996 7995 ] final  -87.50 input   59.86 | X-H torsion
[ 10167 10162 10161 10158 ] final   40.82 input  -65.29 | X-H torsion
[ 10718 10713 10712 10709 ] final  151.97 input   66.30 | X-H torsion
[ 10763 10752 10751 10750 ] final  -15.84 input  -60.55 | X-H torsion
[ 11005 11000 10999 10996 ] final   11.80 input  -57.11 | X-H torsion

> <Gold.Protein.ActiveResidues>
 VAL166  LYS551  ARG553  GLY616  TRP617  ASP618  TYR619  PRO620  LYS621  CYS622 
 ASP623  PHE694  ASN695  SER759  ASP760  ASP761  ALA762  ILE779  LEU786  VAL792 
 PHE793  MET794  SER795  GLU796  ALA797  LYS798  CYS799  TRP800  GLU811  SER814 

> <Gold.Protein.RotatedAtoms>
  151.8882  133.3510  159.3789 H   0  0  0  0  0  0  0  0  0  0  0  0  # atno 6907 bound_to 6896
  150.7110  134.4950  159.5543 H   0  0  0  0  0  0  0  0  0  0  0  0  # atno 6908 bound_to 6896
  152.2515  134.8128  160.0496 H   0  0  0  0  0  0  0  0  0  0  0  0  # atno 6909 bound_to 6896
  146.0267  139.4715  142.9863 H   0  0  0  0  0  0  0  0  0  0  0  0  # atno 7974 bound_to 7965
  154.6640  140.0565  157.0093 H   0  0  0  0  0  0  0  0  0  0  0  0  # atno 8008 bound_to 7997
  155.1186  140.3245  155.4484 H   0  0  0  0  0  0  0  0  0  0  0  0  # atno 8009 bound_to 7997
  156.2630  140.2001  156.6309 H   0  0  0  0  0  0  0  0  0  0  0  0  # atno 8010 bound_to 7997
  140.3704  144.2112  150.6133 H   0  0  0  0  0  0  0  0  0  0  0  0  # atno 10167 bound_to 10162
  157.2638  131.0803  151.1647 H   0  0  0  0  0  0  0  0  0  0  0  0  # atno 10718 bound_to 10713
  153.5494  135.7012  153.5598 H   0  0  0  0  0  0  0  0  0  0  0  0  # atno 10763 bound_to 10752
  153.3529  135.3990  155.1660 H   0  0  0  0  0  0  0  0  0  0  0  0  # atno 10764 bound_to 10752
  154.8663  135.3770  154.5004 H   0  0  0  0  0  0  0  0  0  0  0  0  # atno 10765 bound_to 10752
  140.4992  134.0763  155.7789 H   0  0  0  0  0  0  0  0  0  0  0  0  # atno 11005 bound_to 11000
  145.7106  141.0107  143.1455 LP  0  0  0  0  0  0  0  0  0  0  0  0  # atno 17320 bound_to 7965
  144.7013  139.8752  143.7443 LP  0  0  0  0  0  0  0  0  0  0  0  0  # atno 17321 bound_to 7965
  140.5039  143.2310  151.8638 LP  0  0  0  0  0  0  0  0  0  0  0  0  # atno 17342 bound_to 10162
  139.4804  144.5028  151.9037 LP  0  0  0  0  0  0  0  0  0  0  0  0  # atno 17343 bound_to 10162
  157.3146  130.6907  149.6235 LP  0  0  0  0  0  0  0  0  0  0  0  0  # atno 17370 bound_to 10713
  155.9663  130.4353  150.5087 LP  0  0  0  0  0  0  0  0  0  0  0  0  # atno 17371 bound_to 10713
  141.1444  133.9081  157.2249 LP  0  0  0  0  0  0  0  0  0  0  0  0  # atno 17394 bound_to 11000
  139.9723  135.0124  156.9544 LP  0  0  0  0  0  0  0  0  0  0  0  0  # atno 17395 bound_to 11000

$$$$
