AV-unprocessed.smi:692|AV-procd|sdf|3368|dock4
  -GOLD-   22720 0343D 1   1.00000     0.00000
 Structure written by MMmdl.
 37 38  0  0  0  0  0  0  0  0  1 V2000
  151.1223  140.3868  155.6303 C   0  0  0  0  0  0  0  0  0  0  0  0
  149.9597  141.3853  155.6025 C   0  0  0  0  0  0  0  0  0  0  0  0
  148.9017  141.0007  154.6134 C   0  0  0  0  0  0  0  0  0  0  0  0
  147.9243  141.8145  154.0944 C   0  0  0  0  0  0  0  0  0  0  0  0
  146.9016  140.9696  152.9633 S   0  0  0  0  0  0  0  0  0  0  0  0
  147.8531  139.5203  153.2456 C   0  0  0  0  0  0  0  0  0  0  0  0
  147.5694  138.2955  152.5866 N   0  0  0  0  0  0  0  0  0  0  0  0
  146.3692  137.7356  152.3536 C   0  0  0  0  0  0  0  0  0  0  0  0
  145.2832  138.2186  152.6756 O   0  0  0  0  0  0  0  0  0  0  0  0
  146.4964  136.5664  151.7097 N   0  0  0  0  0  0  0  0  0  0  0  0
  145.3891  135.7095  151.2962 C   0  0  2  0  0  0  0  0  0  0  0  0
  144.4897  135.4067  152.4958 C   0  0  0  0  0  0  0  0  0  0  0  0
  143.3003  134.5389  152.0670 C   0  0  0  0  0  0  0  0  0  0  0  0
  143.6963  133.3344  151.1994 C   0  0  0  0  0  0  0  0  0  0  0  0
  142.8964  132.4033  151.1005 O   0  0  0  0  0  0  0  0  0  0  0  0
  144.8856  133.3449  150.5500 N   0  0  0  0  0  0  0  0  0  0  0  0
  145.2670  132.2229  149.6904 C   0  0  0  0  0  0  0  0  0  0  0  0
  145.9106  134.3912  150.6916 C   0  0  0  0  0  0  0  0  0  0  0  0
  148.8502  139.6928  154.1208 N   0  0  0  0  0  0  0  0  0  0  0  0
  151.8790  140.6921  156.3533 H   0  0  0  0  0  0  0  0  0  0  0  0
  151.6032  140.3149  154.6543 H   0  0  0  0  0  0  0  0  0  0  0  0
  150.7791  139.3899  155.9094 H   0  0  0  0  0  0  0  0  0  0  0  0
  149.5271  141.4599  156.6008 H   0  0  0  0  0  0  0  0  0  0  0  0
  150.3459  142.3781  155.3693 H   0  0  0  0  0  0  0  0  0  0  0  0
  147.7467  142.8584  154.3067 H   0  0  0  0  0  0  0  0  0  0  0  0
  148.3747  137.7871  152.2521 H   0  0  0  0  0  0  0  0  0  0  0  0
  147.4270  136.2458  151.4849 H   0  0  0  0  0  0  0  0  0  0  0  0
  144.7904  136.2342  150.5486 H   0  0  0  0  0  0  0  0  0  0  0  0
  145.0584  134.8953  153.2742 H   0  0  0  0  0  0  0  0  0  0  0  0
  144.1235  136.3347  152.9368 H   0  0  0  0  0  0  0  0  0  0  0  0
  142.7595  134.1897  152.9472 H   0  0  0  0  0  0  0  0  0  0  0  0
  142.5989  135.1428  151.4905 H   0  0  0  0  0  0  0  0  0  0  0  0
  144.5944  132.1523  148.8344 H   0  0  0  0  0  0  0  0  0  0  0  0
  145.2223  131.2809  150.2393 H   0  0  0  0  0  0  0  0  0  0  0  0
  146.2825  132.3255  149.3056 H   0  0  0  0  0  0  0  0  0  0  0  0
  146.3636  134.5970  149.7205 H   0  0  0  0  0  0  0  0  0  0  0  0
  146.7019  133.9850  151.3236 H   0  0  0  0  0  0  0  0  0  0  0  0
  1  2  1  0  0  0  0
  1 20  1  0  0  0  0
  1 21  1  0  0  0  0
  1 22  1  0  0  0  0
  2  3  1  0  0  0  0
  2 23  1  0  0  0  0
  2 24  1  0  0  0  0
  3 19  1  0  0  0  0
  3  4  2  0  0  0  0
  4  5  1  0  0  0  0
  4 25  1  0  0  0  0
  5  6  1  0  0  0  0
  6  7  1  0  0  0  0
  6 19  2  0  0  0  0
  7  8  1  0  0  0  0
  7 26  1  0  0  0  0
  8  9  2  0  0  0  0
  8 10  1  0  0  0  0
 10 11  1  0  0  0  0
 10 27  1  0  0  0  0
 11 18  1  0  0  0  0
 11 12  1  0  0  0  0
 11 28  1  0  0  0  0
 12 13  1  0  0  0  0
 12 29  1  0  0  0  0
 12 30  1  0  0  0  0
 13 14  1  0  0  0  0
 13 31  1  0  0  0  0
 13 32  1  0  0  0  0
 14 15  2  0  0  0  0
 14 16  1  0  0  0  0
 16 17  1  0  0  0  0
 16 18  1  0  0  0  0
 17 33  1  0  0  0  0
 17 34  1  0  0  0  0
 17 35  1  0  0  0  0
 18 36  1  0  0  0  0
 18 37  1  0  0  0  0
M  END
> <s_m_source_file>
AV-unprocessed.smi

> <i_m_source_file_index>
692

> <i_lp_mmshare_version>
43012

> <i_f3d_flags>
0

> <s_epik_input>
W0NIM11bQ0gyXWMxW2NIXXNjKG4xKVtOSF1DKD1PKVtOSF1bQ0BASF0yW0NIMl1bQ0gyXUMoPU8pTihbQ0gzXSlbQ0gyXTI=

> <s_epik_cmdline>
J2VwaWtfcHl0aG9uJywgJy1waCcsICc3LjAnLCAnLXRuJywgJzgnLCAnLW1hJywgJzIwMCcsICctbWV0YWxfYmluZGluZycsICctaW1hZScsICc8aW5maWxlLm1hZT4nLCAnLW9tYWUnLCAnPG91dGZpbGUubWFlPic=

> <r_lp_tautomer_probability>
1

> <r_epik_Ionization_Penalty>
0.000165573

> <r_epik_Ionization_Penalty_Charging>
0

> <r_epik_Ionization_Penalty_Neutral>
0.000165573

> <r_epik_State_Penalty>
-0

> <r_epik_Charging_Adjusted_Penalty>
0

> <i_epik_Tot_Q>
0

> <i_epik_Tot_abs_Q>
0

> <r_epik_Metal_State_Penalty>
0.031163

> <b_epik_Metal_Only>
0

> <s_lp_Force_Field>
OPLS_2005

> <r_lp_Energy>
8.08929

> <b_lp_Chiralities_Consistent>
1

> <s_lp_Variant>
AV-unprocessed.smi:692-1

> <Gold.Version>
5.8.1

> <Gold.Id.Protein>
6NUR|6NUR_protein|mol2

> <Gold.PLP.Fitness>
39.2986

> <Gold.PLP.PLP>
-31.7991

> <Gold.PLP.part.hbond>
-2.7575

> <Gold.PLP.part.metal>
0.0000

> <Gold.PLP.part.buried>
-0.6032

> <Gold.PLP.part.nonpolar>
-32.0832

> <Gold.PLP.part.repulsive>
3.4208

> <Gold.PLP.ligand.clash>
0.0000

> <Gold.PLP.ligand.torsion>
0.6070

> <Gold.PLP.Chemscore.Hbond>
1.9040

> <Gold.PLP.Chemscore.CHOScore>
1.0000

> <Gold.PLP.Chemscore.Metal>
0.0000

> <Gold.Chemscore.Hbonds>
donor molecule, donor type, donor heavy atom, donor atom, acceptor molecule, acceptor atom, score
      L1  H     7    26       P1  7948  0.90
      L1  H    10    27       P1  7948  0.99
      L1  C     4    25       P1  8028  1.00

> <Gold.PLP.Chemscore.Internal.Correction>
0.0014

> <Gold.Rescore>
     Score         DG    S(hbond)    S(metal)    S(lipo)     H(rot)  DE(clash)    DE(int)     intcor
     12.63     -15.87       1.85        0.00      63.25       1.24       1.28       1.97       ----

> <Gold.Chemscore.Fitness>
12.6282

> <Gold.Chemscore.DG>
-15.8750

> <Gold.Chemscore.ZeroCoef>
-5.4800

> <Gold.Chemscore.Hbond>
1.8461

> <Gold.Chemscore.Metal>
0.0000

> <Gold.Chemscore.Lipo>
63.2474

> <Gold.Chemscore.Internal_Hbond>
0.0000

> <Gold.Chemscore.DEClash>
1.2779

> <Gold.Chemscore.DEInternal>
1.9688

> <Gold.Chemscore.Rot>
1.2386

> <Gold.Chemscore.Internal.Correction>
   9.000000E+99

> <Gold.Chemscore.Hbonds>
donor molecule, donor type, donor heavy atom, donor atom, acceptor molecule, acceptor atom, score
      L1  H     7    26       P1  7948  0.88
      L1  H    10    27       P1  7948  0.88

> <Gold.Chemscore.Hbond.Weighted>
-6.1658

> <Gold.Chemscore.Metal.Weighted>
-0.0000

> <Gold.Chemscore.Lipo.Weighted>
-7.3999

> <Gold.Chemscore.Internal_Hbond.Weighted>
0.0000

> <Gold.Chemscore.DEClash.Weighted>
1.2779

> <Gold.Chemscore.DEInternal.Weighted>
1.9688

> <Gold.Chemscore.Rot.Weighted>
3.1708

> <Gold.Chemscore.Internal.Correction.Weighted>
   9.000000E+99

> <Gold.Protein.RotatedTorsions>
[ 6907 6896 6895 6894 ] final -134.08 input  -60.11 | X-H torsion
[ 7974 7965 7964 7962 ] final -103.57 input  175.53 | X-H torsion
[ 8008 7997 7996 7995 ] final  -12.74 input   59.86 | X-H torsion
[ 10167 10162 10161 10158 ] final   91.13 input  -65.29 | X-H torsion
[ 10718 10713 10712 10709 ] final  166.16 input   66.30 | X-H torsion
[ 10763 10752 10751 10750 ] final   46.64 input  -60.55 | X-H torsion
[ 11005 11000 10999 10996 ] final   21.59 input  -57.11 | X-H torsion

> <Gold.Protein.ActiveResidues>
 VAL166  LYS551  ARG553  GLY616  TRP617  ASP618  TYR619  PRO620  LYS621  CYS622 
 ASP623  PHE694  ASN695  SER759  ASP760  ASP761  ALA762  ILE779  LEU786  VAL792 
 PHE793  MET794  SER795  GLU796  ALA797  LYS798  CYS799  TRP800  GLU811  SER814 

> <Gold.Protein.RotatedAtoms>
  150.9816  133.6240  159.2721 H   0  0  0  0  0  0  0  0  0  0  0  0  # atno 6907 bound_to 6896
  151.3493  135.0880  159.9407 H   0  0  0  0  0  0  0  0  0  0  0  0  # atno 6908 bound_to 6896
  152.5217  133.9411  159.7681 H   0  0  0  0  0  0  0  0  0  0  0  0  # atno 6909 bound_to 6896
  145.2542  140.9248  143.3078 H   0  0  0  0  0  0  0  0  0  0  0  0  # atno 7974 bound_to 7965
  154.5351  140.2268  155.8736 H   0  0  0  0  0  0  0  0  0  0  0  0  # atno 8008 bound_to 7997
  156.1803  140.3101  155.9100 H   0  0  0  0  0  0  0  0  0  0  0  0  # atno 8009 bound_to 7997
  155.3371  140.0448  157.3034 H   0  0  0  0  0  0  0  0  0  0  0  0  # atno 8010 bound_to 7997
  139.8405  144.6643  150.9289 H   0  0  0  0  0  0  0  0  0  0  0  0  # atno 10167 bound_to 10162
  157.0698  131.0363  151.2616 H   0  0  0  0  0  0  0  0  0  0  0  0  # atno 10718 bound_to 10713
  152.9808  135.6001  154.3633 H   0  0  0  0  0  0  0  0  0  0  0  0  # atno 10763 bound_to 10752
  154.3313  135.2768  155.2472 H   0  0  0  0  0  0  0  0  0  0  0  0  # atno 10764 bound_to 10752
  154.4595  135.5969  153.6301 H   0  0  0  0  0  0  0  0  0  0  0  0  # atno 10765 bound_to 10752
  140.3899  134.1830  155.7662 H   0  0  0  0  0  0  0  0  0  0  0  0  # atno 11005 bound_to 11000
  144.9476  139.4119  143.6418 LP  0  0  0  0  0  0  0  0  0  0  0  0  # atno 17320 bound_to 7965
  146.3294  139.8467  142.8880 LP  0  0  0  0  0  0  0  0  0  0  0  0  # atno 17321 bound_to 7965
  140.7798  143.3917  151.1298 LP  0  0  0  0  0  0  0  0  0  0  0  0  # atno 17342 bound_to 10162
  139.7564  143.8701  152.3089 LP  0  0  0  0  0  0  0  0  0  0  0  0  # atno 17343 bound_to 10162
  157.4887  130.7809  149.7486 LP  0  0  0  0  0  0  0  0  0  0  0  0  # atno 17370 bound_to 10713
  155.9954  130.3912  150.2822 LP  0  0  0  0  0  0  0  0  0  0  0  0  # atno 17371 bound_to 10713
  141.1894  133.8239  157.0957 LP  0  0  0  0  0  0  0  0  0  0  0  0  # atno 17394 bound_to 11000
  140.0414  134.9852  157.0969 LP  0  0  0  0  0  0  0  0  0  0  0  0  # atno 17395 bound_to 11000

$$$$
