AV-unprocessed.smi:3330|AV-procd|sdf|12804|dock7
  -GOLD-   2272019163D 1   1.00000     0.00000
 Structure written by MMmdl.
 39 40  0  0  0  0  0  0  0  0  2 V2000
  151.9112  138.9131  158.6728 C   0  0  0  0  0  0  0  0  0  0  0  0
  152.3620  140.3123  158.2213 C   0  0  1  0  0  0  0  0  0  0  0  0
  151.4865  140.7470  157.1069 N   0  3  0  0  0  0  0  0  0  0  0  0
  150.0546  140.4250  157.2734 C   0  0  0  0  0  0  0  0  0  0  0  0
  149.1748  141.6270  156.9018 C   0  0  0  0  0  0  0  0  0  0  0  0
  148.6376  141.4885  155.5462 N   0  0  0  0  0  0  0  0  0  0  0  0
  147.3998  141.8478  155.1830 C   0  0  0  0  0  0  0  0  0  0  0  0
  146.5269  142.3455  155.8931 O   0  0  0  0  0  0  0  0  0  0  0  0
  147.2184  141.5248  153.7159 C   0  0  0  0  0  0  0  0  0  0  0  0
  148.5196  140.9543  153.4389 N   0  0  0  0  0  0  0  0  0  0  0  0
  149.3131  140.9441  154.5175 C   0  0  0  0  0  0  0  0  0  0  0  0
  150.4594  140.4994  154.5520 O   0  0  0  0  0  0  0  0  0  0  0  0
  152.3377  141.3491  159.3793 C   0  0  1  0  0  0  0  0  0  0  0  0
  153.5075  141.1866  160.3687 C   0  0  0  0  0  0  0  0  0  0  0  0
  152.3042  142.7166  158.8707 N   0  0  0  0  0  0  0  0  0  0  0  0
  153.1955  143.7490  159.0915 C   0  0  0  0  0  0  0  0  0  0  0  0
  152.7699  144.8203  158.3598 C   0  0  0  0  0  0  0  0  0  0  0  0
  151.6002  144.3414  157.7074 C   0  0  0  0  0  0  0  0  0  0  0  0
  151.3296  143.0818  158.0079 N   0  0  0  0  0  0  0  0  0  0  0  0
  152.5896  138.4882  159.4124 H   0  0  0  0  0  0  0  0  0  0  0  0
  151.8890  138.2200  157.8310 H   0  0  0  0  0  0  0  0  0  0  0  0
  150.9119  138.9378  159.1087 H   0  0  0  0  0  0  0  0  0  0  0  0
  153.3845  140.2184  157.8509 H   0  0  0  0  0  0  0  0  0  0  0  0
  151.5688  141.7484  157.0056 H   0  0  0  0  0  0  0  0  0  0  0  0
  149.7910  139.5747  156.6452 H   0  0  0  0  0  0  0  0  0  0  0  0
  149.8753  140.1249  158.3064 H   0  0  0  0  0  0  0  0  0  0  0  0
  148.3604  141.7318  157.6208 H   0  0  0  0  0  0  0  0  0  0  0  0
  149.7552  142.5487  156.9737 H   0  0  0  0  0  0  0  0  0  0  0  0
  146.4190  140.8004  153.5576 H   0  0  0  0  0  0  0  0  0  0  0  0
  147.0378  142.4226  153.1242 H   0  0  0  0  0  0  0  0  0  0  0  0
  148.7821  140.5989  152.5307 H   0  0  0  0  0  0  0  0  0  0  0  0
  151.4196  141.1953  159.9500 H   0  0  0  0  0  0  0  0  0  0  0  0
  153.4420  140.2480  160.9181 H   0  0  0  0  0  0  0  0  0  0  0  0
  153.5070  141.9864  161.1102 H   0  0  0  0  0  0  0  0  0  0  0  0
  154.4712  141.2074  159.8589 H   0  0  0  0  0  0  0  0  0  0  0  0
  154.0528  143.6373  159.7387 H   0  0  0  0  0  0  0  0  0  0  0  0
  153.2269  145.7966  158.2957 H   0  0  0  0  0  0  0  0  0  0  0  0
  150.9486  144.8653  157.0238 H   0  0  0  0  0  0  0  0  0  0  0  0
  151.8210  140.3106  156.2592 H   0  0  0  0  0  0  0  0  0  0  0  0
  1  2  1  0  0  0  0
  1 20  1  0  0  0  0
  1 21  1  0  0  0  0
  1 22  1  0  0  0  0
  2  3  1  0  0  0  0
  2 13  1  0  0  0  0
  2 23  1  0  0  0  0
  3  4  1  0  0  0  0
  3 24  1  0  0  0  0
  3 39  1  0  0  0  0
  4  5  1  0  0  0  0
  4 25  1  0  0  0  0
  4 26  1  0  0  0  0
  5  6  1  0  0  0  0
  5 27  1  0  0  0  0
  5 28  1  0  0  0  0
  6 11  1  0  0  0  0
  6  7  1  0  0  0  0
  7  8  2  0  0  0  0
  7  9  1  0  0  0  0
  9 10  1  0  0  0  0
  9 29  1  0  0  0  0
  9 30  1  0  0  0  0
 10 11  1  0  0  0  0
 10 31  1  0  0  0  0
 11 12  2  0  0  0  0
 13 14  1  0  0  0  0
 13 15  1  0  0  0  0
 13 32  1  0  0  0  0
 14 33  1  0  0  0  0
 14 34  1  0  0  0  0
 14 35  1  0  0  0  0
 15 19  1  0  0  0  0
 15 16  1  0  0  0  0
 16 17  2  0  0  0  0
 16 36  1  0  0  0  0
 17 18  1  0  0  0  0
 17 37  1  0  0  0  0
 18 19  2  0  0  0  0
 18 38  1  0  0  0  0
M  CHG  1   3   1
M  END
> <s_m_source_file>
AV-unprocessed.smi

> <i_m_source_file_index>
3330

> <i_lp_mmshare_version>
43012

> <i_f3d_flags>
0

> <s_epik_input>
bjFbY0hdW2NIXVtjSF1uMVtDQEBIXShbQ0gzXSlbQ0BIXShbQ0gzXSlbTkhdW0NIMl1bQ0gyXU4yQyg9TylbQ0gyXVtOSF1DMj1P

> <s_epik_cmdline>
J2VwaWtfcHl0aG9uJywgJy1waCcsICc3LjAnLCAnLXRuJywgJzgnLCAnLW1hJywgJzIwMCcsICctbWV0YWxfYmluZGluZycsICctaW1hZScsICc8aW5maWxlLm1hZT4nLCAnLW9tYWUnLCAnPG91dGZpbGUubWFlPic=

> <r_lp_tautomer_probability>
1

> <r_epik_Ionization_Penalty>
0.0124905

> <r_epik_Ionization_Penalty_Charging>
0.0123685

> <r_epik_Ionization_Penalty_Neutral>
0.000122059

> <r_epik_State_Penalty>
0.00957041

> <r_epik_Charging_Adjusted_Penalty>
0.0219389

> <i_epik_Tot_Q>
1

> <i_epik_Tot_abs_Q>
1

> <r_epik_Metal_State_Penalty>
0.0858301

> <b_epik_Metal_Only>
0

> <s_lp_Force_Field>
OPLS_2005

> <r_lp_Energy>
25.1369

> <b_lp_Chiralities_Consistent>
1

> <s_lp_Variant>
AV-unprocessed.smi:3330-4

> <Gold.Version>
5.8.1

> <Gold.Id.Protein>
6NUR|6NUR_protein|mol2

> <Gold.PLP.Fitness>
46.9701

> <Gold.PLP.PLP>
-40.7565

> <Gold.PLP.part.hbond>
-1.9523

> <Gold.PLP.part.metal>
0.0000

> <Gold.PLP.part.buried>
-7.2791

> <Gold.PLP.part.nonpolar>
-33.2658

> <Gold.PLP.part.repulsive>
0.5797

> <Gold.PLP.ligand.clash>
0.0000

> <Gold.PLP.ligand.torsion>
1.4709

> <Gold.PLP.Chemscore.Hbond>
2.0000

> <Gold.PLP.Chemscore.CHOScore>
1.0000

> <Gold.PLP.Chemscore.Metal>
0.0000

> <Gold.Chemscore.Hbonds>
donor molecule, donor type, donor heavy atom, donor atom, acceptor molecule, acceptor atom, score
      L1  H    10    31       P1  7957  1.00
      P1  H  7989  7998       L1    12  0.99
      L1  C    18    38       P1  8028  1.00

> <Gold.PLP.Chemscore.Internal.Correction>
0.1555

> <Gold.Rescore>
     Score         DG    S(hbond)    S(metal)    S(lipo)     H(rot)  DE(clash)    DE(int)     intcor
     10.06     -15.45       1.92        0.00      88.85       2.67       0.06       5.33       ----

> <Gold.Chemscore.Fitness>
10.0608

> <Gold.Chemscore.DG>
-15.4513

> <Gold.Chemscore.ZeroCoef>
-5.4800

> <Gold.Chemscore.Hbond>
1.9168

> <Gold.Chemscore.Metal>
0.0000

> <Gold.Chemscore.Lipo>
88.8531

> <Gold.Chemscore.Internal_Hbond>
0.0000

> <Gold.Chemscore.DEClash>
0.0624

> <Gold.Chemscore.DEInternal>
5.3281

> <Gold.Chemscore.Rot>
2.6666

> <Gold.Chemscore.Internal.Correction>
   9.000000E+99

> <Gold.Chemscore.Hbonds>
donor molecule, donor type, donor heavy atom, donor atom, acceptor molecule, acceptor atom, score
      L1  H    10    31       P1  7957  1.00
      P1  H  7989  7998       L1    12  0.93

> <Gold.Chemscore.Hbond.Weighted>
-6.4020

> <Gold.Chemscore.Metal.Weighted>
-0.0000

> <Gold.Chemscore.Lipo.Weighted>
-10.3958

> <Gold.Chemscore.Internal_Hbond.Weighted>
0.0000

> <Gold.Chemscore.DEClash.Weighted>
0.0624

> <Gold.Chemscore.DEInternal.Weighted>
5.3281

> <Gold.Chemscore.Rot.Weighted>
6.8265

> <Gold.Chemscore.Internal.Correction.Weighted>
   9.000000E+99

> <Gold.Protein.RotatedTorsions>
[ 6907 6896 6895 6894 ] final -102.43 input  -60.11 | X-H torsion
[ 7974 7965 7964 7962 ] final  -44.58 input  175.53 | X-H torsion
[ 8008 7997 7996 7995 ] final -168.49 input   59.86 | X-H torsion
[ 10167 10162 10161 10158 ] final  150.98 input  -65.29 | X-H torsion
[ 10718 10713 10712 10709 ] final -124.92 input   66.30 | X-H torsion
[ 10763 10752 10751 10750 ] final  -14.65 input  -60.55 | X-H torsion
[ 11005 11000 10999 10996 ] final  -90.80 input  -57.11 | X-H torsion

> <Gold.Protein.ActiveResidues>
 VAL166  LYS551  ARG553  GLY616  TRP617  ASP618  TYR619  PRO620  LYS621  CYS622 
 ASP623  PHE694  ASN695  SER759  ASP760  ASP761  ALA762  ILE779  LEU786  VAL792 
 PHE793  MET794  SER795  GLU796  ALA797  LYS798  CYS799  TRP800  GLU811  SER814 

> <Gold.Protein.RotatedAtoms>
  150.7196  134.0582  159.3821 H   0  0  0  0  0  0  0  0  0  0  0  0  # atno 6907 bound_to 6896
  151.8561  135.0538  160.0473 H   0  0  0  0  0  0  0  0  0  0  0  0  # atno 6908 bound_to 6896
  152.2753  133.5384  159.5501 H   0  0  0  0  0  0  0  0  0  0  0  0  # atno 6909 bound_to 6896
  145.9906  140.7185  142.9319 H   0  0  0  0  0  0  0  0  0  0  0  0  # atno 7974 bound_to 7965
  155.8921  140.1026  157.1411 H   0  0  0  0  0  0  0  0  0  0  0  0  # atno 8008 bound_to 7997
  154.4016  140.1308  156.4393 H   0  0  0  0  0  0  0  0  0  0  0  0  # atno 8009 bound_to 7997
  155.7521  140.3465  155.5158 H   0  0  0  0  0  0  0  0  0  0  0  0  # atno 8010 bound_to 7997
  139.4845  144.5478  151.7454 H   0  0  0  0  0  0  0  0  0  0  0  0  # atno 10167 bound_to 10162
  156.1630  130.6615  151.0075 H   0  0  0  0  0  0  0  0  0  0  0  0  # atno 10718 bound_to 10713
  153.5315  135.7014  153.5681 H   0  0  0  0  0  0  0  0  0  0  0  0  # atno 10763 bound_to 10752
  153.3686  135.3950  155.1772 H   0  0  0  0  0  0  0  0  0  0  0  0  # atno 10764 bound_to 10752
  154.8684  135.3806  154.4812 H   0  0  0  0  0  0  0  0  0  0  0  0  # atno 10765 bound_to 10752
  141.1558  133.7715  156.9789 H   0  0  0  0  0  0  0  0  0  0  0  0  # atno 11005 bound_to 11000
  144.6888  140.3063  143.7255 LP  0  0  0  0  0  0  0  0  0  0  0  0  # atno 17320 bound_to 7965
  145.7636  139.1833  143.2253 LP  0  0  0  0  0  0  0  0  0  0  0  0  # atno 17321 bound_to 7965
  140.5027  144.1144  150.5975 LP  0  0  0  0  0  0  0  0  0  0  0  0  # atno 17342 bound_to 10162
  140.4043  143.2688  151.9910 LP  0  0  0  0  0  0  0  0  0  0  0  0  # atno 17343 bound_to 10162
  157.6746  131.0853  150.7526 LP  0  0  0  0  0  0  0  0  0  0  0  0  # atno 17370 bound_to 10713
  156.7588  130.4792  149.5441 LP  0  0  0  0  0  0  0  0  0  0  0  0  # atno 17371 bound_to 10713
  140.1079  134.9495  157.2021 LP  0  0  0  0  0  0  0  0  0  0  0  0  # atno 17394 bound_to 11000
  140.3232  134.2893  155.7242 LP  0  0  0  0  0  0  0  0  0  0  0  0  # atno 17395 bound_to 11000

$$$$
