AV-unprocessed.smi:212|AV-procd|sdf|1628|dock4
  -GOLD-   2262019573D 1   1.00000     0.00000
 Structure written by MMmdl.
 65 68  0  0  0  0  0  0  0  0  2 V2000
  142.9344  137.0328  155.6253 C   0  0  0  0  0  0  0  0  0  0  0  0
  143.5230  135.6096  155.5755 C   0  0  1  0  0  0  0  0  0  0  0  0
  144.1878  135.2660  154.2245 C   0  0  0  0  0  0  0  0  0  0  0  0
  144.6756  133.8609  154.2112 N   0  3  1  0  0  0  0  0  0  0  0  0
  145.2637  133.4547  152.9069 C   0  0  0  0  0  0  0  0  0  0  0  0
  144.2300  133.4634  151.7560 C   0  0  0  0  0  0  0  0  0  0  0  0
  144.2663  134.8152  151.0236 C   0  0  0  0  0  0  0  0  0  0  0  0
  144.4559  132.3120  150.7584 C   0  0  0  0  0  0  0  0  0  0  0  0
  142.9300  133.3352  152.2970 O   0  0  0  0  0  0  0  0  0  0  0  0
  145.5553  133.5550  155.3692 C   0  0  0  0  0  0  0  0  0  0  0  0
  144.8623  133.8985  156.7015 C   0  0  0  0  0  0  0  0  0  0  0  0
  144.4010  135.2832  156.7067 N   0  0  0  0  0  0  0  0  0  0  0  0
  145.3526  136.1533  157.1325 C   0  0  0  0  0  0  0  0  0  0  0  0
  145.1735  136.8781  158.2679 N   0  0  0  0  0  0  0  0  0  0  0  0
  146.1073  137.7473  158.6664 C   0  0  0  0  0  0  0  0  0  0  0  0
  147.2704  138.0468  158.0849 N   0  0  0  0  0  0  0  0  0  0  0  0
  147.4503  137.3282  156.9401 C   0  0  0  0  0  0  0  0  0  0  0  0
  146.5466  136.3746  156.3941 C   0  0  0  0  0  0  0  0  0  0  0  0
  147.0610  135.8522  155.2143 N   0  0  0  0  0  0  0  0  0  0  0  0
  148.2070  136.4606  155.0712 C   0  0  0  0  0  0  0  0  0  0  0  0
  148.5283  137.3500  156.0727 N   0  0  0  0  0  0  0  0  0  0  0  0
  149.7297  138.1586  156.1684 C   0  0  0  0  0  0  0  0  0  0  0  0
  149.4801  139.6862  156.2937 C   0  0  2  0  0  0  0  0  0  0  0  0
  149.1809  140.2535  154.8887 C   0  0  0  0  0  0  0  0  0  0  0  0
  150.2232  139.9611  153.9806 O   0  0  0  0  0  0  0  0  0  0  0  0
  150.5873  140.5197  157.0098 C   0  0  1  0  0  0  0  0  0  0  0  0
  150.3925  142.0228  157.0996 C   0  0  0  0  0  0  0  0  0  0  0  0
  151.4697  142.4010  158.1100 C   0  0  0  0  0  0  0  0  0  0  0  0
  151.5404  141.3075  159.0209 O   0  0  0  0  0  0  0  0  0  0  0  0
  150.9186  140.1532  158.4598 C   0  0  0  0  0  0  0  0  0  0  0  0
  142.1666  137.1566  154.8613 H   0  0  0  0  0  0  0  0  0  0  0  0
  143.6846  137.8034  155.4512 H   0  0  0  0  0  0  0  0  0  0  0  0
  142.4683  137.2305  156.5910 H   0  0  0  0  0  0  0  0  0  0  0  0
  142.6698  134.9379  155.6814 H   0  0  0  0  0  0  0  0  0  0  0  0
  143.4665  135.4093  153.4201 H   0  0  0  0  0  0  0  0  0  0  0  0
  145.0178  135.9412  154.0168 H   0  0  0  0  0  0  0  0  0  0  0  0
  146.1167  134.0910  152.6635 H   0  0  0  0  0  0  0  0  0  0  0  0
  145.6723  132.4459  152.9877 H   0  0  0  0  0  0  0  0  0  0  0  0
  145.2413  134.9903  150.5673 H   0  0  0  0  0  0  0  0  0  0  0  0
  144.0695  135.6441  151.7051 H   0  0  0  0  0  0  0  0  0  0  0  0
  143.5207  134.8595  150.2286 H   0  0  0  0  0  0  0  0  0  0  0  0
  145.4537  132.3614  150.3212 H   0  0  0  0  0  0  0  0  0  0  0  0
  143.7372  132.3507  149.9389 H   0  0  0  0  0  0  0  0  0  0  0  0
  144.3517  131.3360  151.2332 H   0  0  0  0  0  0  0  0  0  0  0  0
  142.9882  132.8650  153.1156 H   0  0  0  0  0  0  0  0  0  0  0  0
  145.8164  132.4961  155.3617 H   0  0  0  0  0  0  0  0  0  0  0  0
  146.4873  134.1145  155.2740 H   0  0  0  0  0  0  0  0  0  0  0  0
  143.9996  133.2479  156.8494 H   0  0  0  0  0  0  0  0  0  0  0  0
  145.5375  133.7038  157.5360 H   0  0  0  0  0  0  0  0  0  0  0  0
  145.8926  138.2783  159.5820 H   0  0  0  0  0  0  0  0  0  0  0  0
  148.8572  136.2674  154.2301 H   0  0  0  0  0  0  0  0  0  0  0  0
  150.3316  137.7969  157.0022 H   0  0  0  0  0  0  0  0  0  0  0  0
  150.3185  137.9575  155.2724 H   0  0  0  0  0  0  0  0  0  0  0  0
  148.5654  139.8097  156.8754 H   0  0  0  0  0  0  0  0  0  0  0  0
  148.2403  139.8601  154.5017 H   0  0  0  0  0  0  0  0  0  0  0  0
  149.0799  141.3385  154.9272 H   0  0  0  0  0  0  0  0  0  0  0  0
  149.8405  139.6861  153.1614 H   0  0  0  0  0  0  0  0  0  0  0  0
  151.5103  140.3964  156.4413 H   0  0  0  0  0  0  0  0  0  0  0  0
  150.5174  142.5276  156.1413 H   0  0  0  0  0  0  0  0  0  0  0  0
  149.4205  142.2959  157.4996 H   0  0  0  0  0  0  0  0  0  0  0  0
  152.4357  142.5046  157.6140 H   0  0  0  0  0  0  0  0  0  0  0  0
  151.2513  143.3369  158.6246 H   0  0  0  0  0  0  0  0  0  0  0  0
  150.0262  139.9456  159.0470 H   0  0  0  0  0  0  0  0  0  0  0  0
  151.5720  139.2829  158.5253 H   0  0  0  0  0  0  0  0  0  0  0  0
  143.8581  133.2807  154.3339 H   0  0  0  0  0  0  0  0  0  0  0  0
  1  2  1  0  0  0  0
  1 31  1  0  0  0  0
  1 32  1  0  0  0  0
  1 33  1  0  0  0  0
  2 12  1  0  0  0  0
  2  3  1  0  0  0  0
  2 34  1  0  0  0  0
  3  4  1  0  0  0  0
  3 35  1  0  0  0  0
  3 36  1  0  0  0  0
  4  5  1  0  0  0  0
  4 10  1  0  0  0  0
  4 65  1  0  0  0  0
  5  6  1  0  0  0  0
  5 37  1  0  0  0  0
  5 38  1  0  0  0  0
  6  7  1  0  0  0  0
  6  8  1  0  0  0  0
  6  9  1  0  0  0  0
  7 39  1  0  0  0  0
  7 40  1  0  0  0  0
  7 41  1  0  0  0  0
  8 42  1  0  0  0  0
  8 43  1  0  0  0  0
  8 44  1  0  0  0  0
  9 45  1  0  0  0  0
 10 11  1  0  0  0  0
 10 46  1  0  0  0  0
 10 47  1  0  0  0  0
 11 12  1  0  0  0  0
 11 48  1  0  0  0  0
 11 49  1  0  0  0  0
 12 13  1  0  0  0  0
 13 18  1  0  0  0  0
 13 14  2  0  0  0  0
 14 15  1  0  0  0  0
 15 16  2  0  0  0  0
 15 50  1  0  0  0  0
 16 17  1  0  0  0  0
 17 21  1  0  0  0  0
 17 18  2  0  0  0  0
 18 19  1  0  0  0  0
 19 20  2  0  0  0  0
 20 21  1  0  0  0  0
 20 51  1  0  0  0  0
 21 22  1  0  0  0  0
 22 23  1  0  0  0  0
 22 52  1  0  0  0  0
 22 53  1  0  0  0  0
 23 24  1  0  0  0  0
 23 26  1  0  0  0  0
 23 54  1  0  0  0  0
 24 25  1  0  0  0  0
 24 55  1  0  0  0  0
 24 56  1  0  0  0  0
 25 57  1  0  0  0  0
 26 30  1  0  0  0  0
 26 27  1  0  0  0  0
 26 58  1  0  0  0  0
 27 28  1  0  0  0  0
 27 59  1  0  0  0  0
 27 60  1  0  0  0  0
 28 29  1  0  0  0  0
 28 61  1  0  0  0  0
 28 62  1  0  0  0  0
 29 30  1  0  0  0  0
 30 63  1  0  0  0  0
 30 64  1  0  0  0  0
M  CHG  1   4   1
M  END
> <s_m_source_file>
AV-unprocessed.smi

> <i_m_source_file_index>
212

> <i_lp_mmshare_version>
43012

> <i_f3d_flags>
0

> <s_epik_input>
W0NIM11bQ0BASF0xW0NIMl1OKFtDSDJdQyhbQ0gzXSkoW0NIM10pW09IXSlbQ0gyXVtDSDJdTjFjKG5bY0hdbjIpYyhjMjMpbltjSF1uM1tDSDJdW0NASF0oW0NIMl1bT0hdKVtDQEBIXTRbQ0gyXVtDSDJdT1tDSDJdNA==

> <s_epik_cmdline>
J2VwaWtfcHl0aG9uJywgJy1waCcsICc3LjAnLCAnLXRuJywgJzgnLCAnLW1hJywgJzIwMCcsICctbWV0YWxfYmluZGluZycsICctaW1hZScsICc8aW5maWxlLm1hZT4nLCAnLW9tYWUnLCAnPG91dGZpbGUubWFlPic=

> <r_lp_tautomer_probability>
1

> <r_epik_Ionization_Penalty>
0.00182193

> <r_epik_Ionization_Penalty_Charging>
0.00173996

> <r_epik_Ionization_Penalty_Neutral>
8.19718e-05

> <r_epik_State_Penalty>
-0

> <r_epik_Charging_Adjusted_Penalty>
0.00173996

> <i_epik_Tot_Q>
1

> <i_epik_Tot_abs_Q>
1

> <r_epik_Metal_State_Penalty>
-0

> <b_epik_Metal_Only>
0

> <s_lp_Force_Field>
OPLS_2005

> <r_lp_Energy>
60.5032

> <b_lp_Chiralities_Consistent>
1

> <s_lp_Variant>
AV-unprocessed.smi:212-12

> <Gold.Version>
5.8.1

> <Gold.Id.Protein>
6NUR|6NUR_protein|mol2

> <Gold.PLP.Fitness>
42.6867

> <Gold.PLP.PLP>
-26.2499

> <Gold.PLP.part.hbond>
-4.0000

> <Gold.PLP.part.metal>
0.0000

> <Gold.PLP.part.buried>
-5.6093

> <Gold.PLP.part.nonpolar>
-17.2227

> <Gold.PLP.part.repulsive>
0.0929

> <Gold.PLP.ligand.clash>
0.0000

> <Gold.PLP.ligand.torsion>
1.3165

> <Gold.PLP.Chemscore.Hbond>
4.9040

> <Gold.PLP.Chemscore.CHOScore>
1.0000

> <Gold.PLP.Chemscore.Metal>
0.0000

> <Gold.Chemscore.Hbonds>
donor molecule, donor type, donor heavy atom, donor atom, acceptor molecule, acceptor atom, score
      L1  H     4    65       P1 10957  2.00
      L1  H     9    45       P1 10957  1.00
      L1  H    25    57       P1  7957  0.92
      P1  H  7989  7998       L1    25  0.98
      L1  C    20    51       P1  7948  1.00

> <Gold.PLP.Chemscore.Internal.Correction>
1.3579

> <Gold.Rescore>
     Score         DG    S(hbond)    S(metal)    S(lipo)     H(rot)  DE(clash)    DE(int)     intcor
     11.38     -15.46       3.43        0.00      67.82       3.68       0.03       4.05       ----

> <Gold.Chemscore.Fitness>
11.3754

> <Gold.Chemscore.DG>
-15.4588

> <Gold.Chemscore.ZeroCoef>
-5.4800

> <Gold.Chemscore.Hbond>
3.4333

> <Gold.Chemscore.Metal>
0.0000

> <Gold.Chemscore.Lipo>
67.8247

> <Gold.Chemscore.Internal_Hbond>
0.0000

> <Gold.Chemscore.DEClash>
0.0319

> <Gold.Chemscore.DEInternal>
4.0515

> <Gold.Chemscore.Rot>
3.6812

> <Gold.Chemscore.Internal.Correction>
   9.000000E+99

> <Gold.Chemscore.Hbonds>
donor molecule, donor type, donor heavy atom, donor atom, acceptor molecule, acceptor atom, score
      L1  H     4    65       P1 10957  0.98
      L1  H     9    45       P1 10957  0.43
      L1  H    25    57       P1  7957  0.83
      P1  H  7989  7998       L1    25  0.37

> <Gold.Chemscore.Hbond.Weighted>
-11.4672

> <Gold.Chemscore.Metal.Weighted>
-0.0000

> <Gold.Chemscore.Lipo.Weighted>
-7.9355

> <Gold.Chemscore.Internal_Hbond.Weighted>
0.0000

> <Gold.Chemscore.DEClash.Weighted>
0.0319

> <Gold.Chemscore.DEInternal.Weighted>
4.0515

> <Gold.Chemscore.Rot.Weighted>
9.4239

> <Gold.Chemscore.Internal.Correction.Weighted>
   9.000000E+99

> <Gold.Protein.RotatedTorsions>
[ 6907 6896 6895 6894 ] final -146.28 input  -60.11 | X-H torsion
[ 7974 7965 7964 7962 ] final  175.50 input  175.53 | X-H torsion
[ 8008 7997 7996 7995 ] final   66.56 input   59.86 | X-H torsion
[ 10167 10162 10161 10158 ] final -145.93 input  -65.29 | X-H torsion
[ 10718 10713 10712 10709 ] final  -28.76 input   66.30 | X-H torsion
[ 10763 10752 10751 10750 ] final  -39.26 input  -60.55 | X-H torsion
[ 11005 11000 10999 10996 ] final -119.92 input  -57.11 | X-H torsion

> <Gold.Protein.ActiveResidues>
 VAL166  LYS551  ARG553  GLY616  TRP617  ASP618  TYR619  PRO620  LYS621  CYS622 
 ASP623  PHE694  ASN695  SER759  ASP760  ASP761  ALA762  ILE779  LEU786  VAL792 
 PHE793  MET794  SER795  GLU796  ALA797  LYS798  CYS799  TRP800  GLU811  SER814 

> <Gold.Protein.RotatedAtoms>
  151.1395  133.4981  159.2596 H   0  0  0  0  0  0  0  0  0  0  0  0  # atno 6907 bound_to 6896
  151.1670  135.0300  159.8745 H   0  0  0  0  0  0  0  0  0  0  0  0  # atno 6908 bound_to 6896
  152.5462  134.1263  159.8473 H   0  0  0  0  0  0  0  0  0  0  0  0  # atno 6909 bound_to 6896
  144.7200  139.9956  143.6440 H   0  0  0  0  0  0  0  0  0  0  0  0  # atno 7974 bound_to 7965
  155.6792  140.3496  155.4849 H   0  0  0  0  0  0  0  0  0  0  0  0  # atno 8008 bound_to 7997
  155.9621  140.1139  157.0909 H   0  0  0  0  0  0  0  0  0  0  0  0  # atno 8009 bound_to 7997
  154.4145  140.1173  156.5179 H   0  0  0  0  0  0  0  0  0  0  0  0  # atno 8010 bound_to 7997
  139.7760  143.8169  152.2632 H   0  0  0  0  0  0  0  0  0  0  0  0  # atno 10167 bound_to 10162
  156.4211  130.4426  149.7183 H   0  0  0  0  0  0  0  0  0  0  0  0  # atno 10718 bound_to 10713
  153.9265  135.6776  153.4746 H   0  0  0  0  0  0  0  0  0  0  0  0  # atno 10763 bound_to 10752
  153.1001  135.4832  154.8849 H   0  0  0  0  0  0  0  0  0  0  0  0  # atno 10764 bound_to 10752
  154.7451  135.3170  154.8617 H   0  0  0  0  0  0  0  0  0  0  0  0  # atno 10765 bound_to 10752
  141.0181  134.0165  157.3321 H   0  0  0  0  0  0  0  0  0  0  0  0  # atno 11005 bound_to 11000
  146.0377  139.3392  143.0717 LP  0  0  0  0  0  0  0  0  0  0  0  0  # atno 17320 bound_to 7965
  145.8374  140.9598  143.0817 LP  0  0  0  0  0  0  0  0  0  0  0  0  # atno 17321 bound_to 7965
  139.8218  144.7292  150.9563 LP  0  0  0  0  0  0  0  0  0  0  0  0  # atno 17342 bound_to 10162
  140.7816  143.4152  151.0928 LP  0  0  0  0  0  0  0  0  0  0  0  0  # atno 17343 bound_to 10162
  156.4124  130.7728  151.2742 LP  0  0  0  0  0  0  0  0  0  0  0  0  # atno 17370 bound_to 10713
  157.7508  131.0207  150.3721 LP  0  0  0  0  0  0  0  0  0  0  0  0  # atno 17371 bound_to 10713
  139.9129  135.0193  156.7766 LP  0  0  0  0  0  0  0  0  0  0  0  0  # atno 17394 bound_to 11000
  140.6620  133.9637  155.7810 LP  0  0  0  0  0  0  0  0  0  0  0  0  # atno 17395 bound_to 11000

$$$$
