AV-unprocessed.smi:2061|AV-procd|sdf|8374|dock5
  -GOLD-   2272011 53D 1   1.00000     0.00000
 Structure written by MMmdl.
 44 45  0  0  0  0  0  0  0  0  2 V2000
  147.6157  132.7101  154.8103 C   0  0  0  0  0  0  0  0  0  0  0  0
  148.5475  133.7680  155.2946 C   0  0  0  0  0  0  0  0  0  0  0  0
  149.5718  134.4460  154.6971 C   0  0  0  0  0  0  0  0  0  0  0  0
  150.0374  135.3064  155.7289 C   0  0  0  0  0  0  0  0  0  0  0  0
  151.0394  136.1927  155.6246 N   0  5  0  0  0  0  0  0  0  0  0  0
  150.7763  137.5199  155.6076 C   0  0  0  0  0  0  0  0  0  0  0  0
  149.6687  138.0425  155.4649 O   0  0  0  0  0  0  0  0  0  0  0  0
  151.8655  138.2844  155.7754 N   0  0  0  0  0  0  0  0  0  0  0  0
  151.9099  139.7456  155.8052 C   0  0  0  0  0  0  0  0  0  0  0  0
  150.7064  140.3754  156.5629 C   0  0  2  0  0  0  0  0  0  0  0  0
  149.8543  141.2004  155.5646 C   0  0  0  0  0  0  0  0  0  0  0  0
  151.1110  141.1603  157.7543 N   0  0  0  0  0  0  0  0  0  0  0  0
  152.1043  140.4616  158.5773 C   0  0  0  0  0  0  0  0  0  0  0  0
  152.5468  141.2763  159.8077 C   0  0  1  0  0  0  0  0  0  0  0  0
  153.6394  140.5637  160.6116 C   0  0  0  0  0  0  0  0  0  0  0  0
  153.0580  142.5313  159.3772 O   0  0  0  0  0  0  0  0  0  0  0  0
  152.1046  143.2865  158.6407 C   0  0  1  0  0  0  0  0  0  0  0  0
  152.7469  144.6226  158.2525 C   0  0  0  0  0  0  0  0  0  0  0  0
  151.6583  142.4765  157.4083 C   0  0  0  0  0  0  0  0  0  0  0  0
  149.3452  135.1744  156.8481 N   0  0  0  0  0  0  0  0  0  0  0  0
  148.3913  134.1856  156.5797 O   0  0  0  0  0  0  0  0  0  0  0  0
  146.9151  133.1187  154.0822 H   0  0  0  0  0  0  0  0  0  0  0  0
  147.0398  132.2862  155.6332 H   0  0  0  0  0  0  0  0  0  0  0  0
  148.1672  131.9001  154.3327 H   0  0  0  0  0  0  0  0  0  0  0  0
  149.9341  134.3417  153.6854 H   0  0  0  0  0  0  0  0  0  0  0  0
  152.7460  137.8047  155.8906 H   0  0  0  0  0  0  0  0  0  0  0  0
  152.8507  139.9722  156.3029 H   0  0  0  0  0  0  0  0  0  0  0  0
  151.9856  140.1696  154.8026 H   0  0  0  0  0  0  0  0  0  0  0  0
  150.0808  139.5489  156.9034 H   0  0  0  0  0  0  0  0  0  0  0  0
  149.5784  140.6260  154.6817 H   0  0  0  0  0  0  0  0  0  0  0  0
  150.3927  142.0853  155.2242 H   0  0  0  0  0  0  0  0  0  0  0  0
  148.9065  141.5234  155.9920 H   0  0  0  0  0  0  0  0  0  0  0  0
  151.6999  139.5219  158.9491 H   0  0  0  0  0  0  0  0  0  0  0  0
  152.9763  140.2139  157.9701 H   0  0  0  0  0  0  0  0  0  0  0  0
  151.6887  141.4467  160.4604 H   0  0  0  0  0  0  0  0  0  0  0  0
  153.2918  139.5962  160.9746 H   0  0  0  0  0  0  0  0  0  0  0  0
  153.9351  141.1564  161.4775 H   0  0  0  0  0  0  0  0  0  0  0  0
  154.5291  140.3940  160.0042 H   0  0  0  0  0  0  0  0  0  0  0  0
  151.2413  143.4864  159.2781 H   0  0  0  0  0  0  0  0  0  0  0  0
  152.0473  145.2468  157.6961 H   0  0  0  0  0  0  0  0  0  0  0  0
  153.6283  144.4699  157.6290 H   0  0  0  0  0  0  0  0  0  0  0  0
  153.0570  145.1783  159.1377 H   0  0  0  0  0  0  0  0  0  0  0  0
  152.4998  142.3567  156.7239 H   0  0  0  0  0  0  0  0  0  0  0  0
  150.9123  143.0773  156.8923 H   0  0  0  0  0  0  0  0  0  0  0  0
  1  2  1  0  0  0  0
  1 22  1  0  0  0  0
  1 23  1  0  0  0  0
  1 24  1  0  0  0  0
  2 21  1  0  0  0  0
  2  3  2  0  0  0  0
  3  4  1  0  0  0  0
  3 25  1  0  0  0  0
  4  5  1  0  0  0  0
  4 20  2  0  0  0  0
  5  6  1  0  0  0  0
  6  7  2  0  0  0  0
  6  8  1  0  0  0  0
  8  9  1  0  0  0  0
  8 26  1  0  0  0  0
  9 10  1  0  0  0  0
  9 27  1  0  0  0  0
  9 28  1  0  0  0  0
 10 11  1  0  0  0  0
 10 12  1  0  0  0  0
 10 29  1  0  0  0  0
 11 30  1  0  0  0  0
 11 31  1  0  0  0  0
 11 32  1  0  0  0  0
 12 19  1  0  0  0  0
 12 13  1  0  0  0  0
 13 14  1  0  0  0  0
 13 33  1  0  0  0  0
 13 34  1  0  0  0  0
 14 15  1  0  0  0  0
 14 16  1  0  0  0  0
 14 35  1  0  0  0  0
 15 36  1  0  0  0  0
 15 37  1  0  0  0  0
 15 38  1  0  0  0  0
 16 17  1  0  0  0  0
 17 18  1  0  0  0  0
 17 19  1  0  0  0  0
 17 39  1  0  0  0  0
 18 40  1  0  0  0  0
 18 41  1  0  0  0  0
 18 42  1  0  0  0  0
 19 43  1  0  0  0  0
 19 44  1  0  0  0  0
 20 21  1  0  0  0  0
M  CHG  1   5  -1
M  END
> <s_m_source_file>
AV-unprocessed.smi

> <i_m_source_file_index>
2061

> <i_lp_mmshare_version>
43012

> <i_f3d_flags>
0

> <s_epik_input>
W0NIM11jMVtjSF1jKG5vMSlbTkhdQyg9TylbTkhdW0NIMl1bQ0BIXShbQ0gzXSlOMltDSDJdW0NAQEhdKFtDSDNdKU9bQ0BASF0oW0NIM10pW0NIMl0y

> <s_epik_cmdline>
J2VwaWtfcHl0aG9uJywgJy1waCcsICc3LjAnLCAnLXRuJywgJzgnLCAnLW1hJywgJzIwMCcsICctbWV0YWxfYmluZGluZycsICctaW1hZScsICc8aW5maWxlLm1hZT4nLCAnLW9tYWUnLCAnPG91dGZpbGUubWFlPic=

> <r_epik_Ionization_Penalty>
6.88367

> <r_epik_Ionization_Penalty_Charging>
6.57198

> <r_epik_Ionization_Penalty_Neutral>
0.311681

> <r_epik_State_Penalty>
6.77619

> <r_epik_Charging_Adjusted_Penalty>
13.3482

> <i_epik_Tot_Q>
-1

> <i_epik_Tot_abs_Q>
1

> <r_epik_Metal_State_Penalty>
2.70524

> <b_epik_Metal_Only>
1

> <s_lp_Force_Field>
OPLS_2005

> <r_lp_Energy>
21.032

> <b_lp_Chiralities_Consistent>
1

> <s_lp_Variant>
AV-unprocessed.smi:2061-15

> <Gold.Version>
5.8.1

> <Gold.Id.Protein>
6NUR|6NUR_protein|mol2

> <Gold.PLP.Fitness>
38.2016

> <Gold.PLP.PLP>
-35.6884

> <Gold.PLP.part.hbond>
-1.0000

> <Gold.PLP.part.metal>
0.0000

> <Gold.PLP.part.buried>
-5.4429

> <Gold.PLP.part.nonpolar>
-29.3351

> <Gold.PLP.part.repulsive>
0.3701

> <Gold.PLP.ligand.clash>
0.0000

> <Gold.PLP.ligand.torsion>
1.7717

> <Gold.PLP.Chemscore.Hbond>
2.0000

> <Gold.PLP.Chemscore.CHOScore>
0.0000

> <Gold.PLP.Chemscore.Metal>
0.0000

> <Gold.Chemscore.Hbonds>
donor molecule, donor type, donor heavy atom, donor atom, acceptor molecule, acceptor atom, score
      P1  H 10752 10764       L1     5  1.07

> <Gold.PLP.Chemscore.Internal.Correction>
0.0566

> <Gold.Rescore>
     Score         DG    S(hbond)    S(metal)    S(lipo)     H(rot)  DE(clash)    DE(int)     intcor
     11.90     -15.10       0.82        0.00      92.15       1.52       0.08       3.12       ----

> <Gold.Chemscore.Fitness>
11.9000

> <Gold.Chemscore.DG>
-15.0972

> <Gold.Chemscore.ZeroCoef>
-5.4800

> <Gold.Chemscore.Hbond>
0.8158

> <Gold.Chemscore.Metal>
0.0000

> <Gold.Chemscore.Lipo>
92.1472

> <Gold.Chemscore.Internal_Hbond>
0.0000

> <Gold.Chemscore.DEClash>
0.0811

> <Gold.Chemscore.DEInternal>
3.1162

> <Gold.Chemscore.Rot>
1.5190

> <Gold.Chemscore.Internal.Correction>
   9.000000E+99

> <Gold.Chemscore.Hbonds>
donor molecule, donor type, donor heavy atom, donor atom, acceptor molecule, acceptor atom, score
      P1  H 10752 10764       L1     5  0.50

> <Gold.Chemscore.Hbond.Weighted>
-2.7246

> <Gold.Chemscore.Metal.Weighted>
-0.0000

> <Gold.Chemscore.Lipo.Weighted>
-10.7812

> <Gold.Chemscore.Internal_Hbond.Weighted>
0.0000

> <Gold.Chemscore.DEClash.Weighted>
0.0811

> <Gold.Chemscore.DEInternal.Weighted>
3.1162

> <Gold.Chemscore.Rot.Weighted>
3.8886

> <Gold.Chemscore.Internal.Correction.Weighted>
   9.000000E+99

> <Gold.Protein.RotatedTorsions>
[ 6907 6896 6895 6894 ] final  160.47 input  -60.11 | X-H torsion
[ 7974 7965 7964 7962 ] final -110.89 input  175.53 | X-H torsion
[ 8008 7997 7996 7995 ] final  174.61 input   59.86 | X-H torsion
[ 10167 10162 10161 10158 ] final  167.68 input  -65.29 | X-H torsion
[ 10718 10713 10712 10709 ] final   27.76 input   66.30 | X-H torsion
[ 10763 10752 10751 10750 ] final  -44.41 input  -60.55 | X-H torsion
[ 11005 11000 10999 10996 ] final  178.19 input  -57.11 | X-H torsion

> <Gold.Protein.ActiveResidues>
 VAL166  LYS551  ARG553  GLY616  TRP617  ASP618  TYR619  PRO620  LYS621  CYS622 
 ASP623  PHE694  ASN695  SER759  ASP760  ASP761  ALA762  ILE779  LEU786  VAL792 
 PHE793  MET794  SER795  GLU796  ALA797  LYS798  CYS799  TRP800  GLU811  SER814 

> <Gold.Protein.RotatedAtoms>
  151.9702  133.3723  159.4067 H   0  0  0  0  0  0  0  0  0  0  0  0  # atno 6907 bound_to 6896
  150.6950  134.4148  159.5187 H   0  0  0  0  0  0  0  0  0  0  0  0  # atno 6908 bound_to 6896
  152.1851  134.8720  160.0573 H   0  0  0  0  0  0  0  0  0  0  0  0  # atno 6909 bound_to 6896
  145.1628  140.8887  143.3581 H   0  0  0  0  0  0  0  0  0  0  0  0  # atno 7974 bound_to 7965
  156.0956  140.1430  156.9535 H   0  0  0  0  0  0  0  0  0  0  0  0  # atno 8008 bound_to 7997
  154.4669  140.0923  156.7090 H   0  0  0  0  0  0  0  0  0  0  0  0  # atno 8009 bound_to 7997
  155.4847  140.3446  155.4347 H   0  0  0  0  0  0  0  0  0  0  0  0  # atno 8010 bound_to 7997
  139.4951  144.3896  151.9532 H   0  0  0  0  0  0  0  0  0  0  0  0  # atno 10167 bound_to 10162
  157.2245  130.6994  149.6285 H   0  0  0  0  0  0  0  0  0  0  0  0  # atno 10718 bound_to 10713
  154.0115  135.6681  153.4765 H   0  0  0  0  0  0  0  0  0  0  0  0  # atno 10763 bound_to 10752
  153.0619  135.5023  154.8108 H   0  0  0  0  0  0  0  0  0  0  0  0  # atno 10764 bound_to 10752
  154.6992  135.3075  154.9330 H   0  0  0  0  0  0  0  0  0  0  0  0  # atno 10765 bound_to 10752
  140.3924  134.6850  157.4515 H   0  0  0  0  0  0  0  0  0  0  0  0  # atno 11005 bound_to 11000
  145.0314  139.3338  143.6023 LP  0  0  0  0  0  0  0  0  0  0  0  0  # atno 17320 bound_to 7965
  146.3480  139.9652  142.8712 LP  0  0  0  0  0  0  0  0  0  0  0  0  # atno 17321 bound_to 7965
  140.3333  144.3290  150.5982 LP  0  0  0  0  0  0  0  0  0  0  0  0  # atno 17342 bound_to 10162
  140.5627  143.2190  151.7737 LP  0  0  0  0  0  0  0  0  0  0  0  0  # atno 17343 bound_to 10162
  155.9680  130.4509  150.5715 LP  0  0  0  0  0  0  0  0  0  0  0  0  # atno 17370 bound_to 10713
  157.3542  131.0739  151.1689 LP  0  0  0  0  0  0  0  0  0  0  0  0  # atno 17371 bound_to 10713
  140.0397  134.6285  155.8997 LP  0  0  0  0  0  0  0  0  0  0  0  0  # atno 17394 bound_to 11000
  141.1886  133.6563  156.5332 LP  0  0  0  0  0  0  0  0  0  0  0  0  # atno 17395 bound_to 11000

$$$$
