AV-unprocessed.smi:1766|AV-procd|sdf|7138|dock9
  -GOLD-   22720 8373D 1   1.00000     0.00000
 Structure written by MMmdl.
 40 42  0  0  0  0  0  0  0  0  2 V2000
  149.8838  138.1505  158.9419 N   0  0  0  0  0  0  0  0  0  0  0  0
  151.2007  137.9429  158.8634 C   0  0  0  0  0  0  0  0  0  0  0  0
  151.7731  137.1106  159.5651 O   0  0  0  0  0  0  0  0  0  0  0  0
  151.9776  138.7984  157.8570 C   0  0  0  0  0  0  0  0  0  0  0  0
  152.0062  140.2394  158.2668 C   0  0  0  0  0  0  0  0  0  0  0  0
  152.5734  140.7323  159.4045 N   0  3  0  0  0  0  0  0  0  0  0  0
  152.4080  142.1164  159.4550 C   0  0  0  0  0  0  0  0  0  0  0  0
  152.8128  143.0460  160.4081 C   0  0  0  0  0  0  0  0  0  0  0  0
  152.4862  144.3942  160.1557 C   0  0  0  0  0  0  0  0  0  0  0  0
  151.7823  144.7736  158.9949 C   0  0  0  0  0  0  0  0  0  0  0  0
  151.3739  143.8214  158.0385 C   0  0  0  0  0  0  0  0  0  0  0  0
  151.7038  142.4896  158.2920 C   0  0  0  0  0  0  0  0  0  0  0  0
  151.4839  141.3004  157.5843 N   0  0  0  0  0  0  0  0  0  0  0  0
  150.7736  141.3387  156.2948 C   0  0  0  0  0  0  0  0  0  0  0  0
  149.2412  141.2691  156.4571 C   0  0  1  0  0  0  0  0  0  0  0  0
  148.7763  142.5586  156.7977 O   0  0  0  0  0  0  0  0  0  0  0  0
  148.5473  140.7117  155.2220 C   0  0  0  0  0  0  0  0  0  0  0  0
  147.7373  141.5393  154.4131 C   0  0  0  0  0  0  0  0  0  0  0  0
  147.1266  141.0204  153.2548 C   0  0  0  0  0  0  0  0  0  0  0  0
  147.3214  139.6720  152.8991 C   0  0  0  0  0  0  0  0  0  0  0  0
  146.7387  139.1745  151.7828 F   0  0  0  0  0  0  0  0  0  0  0  0
  148.1252  138.8417  153.7032 C   0  0  0  0  0  0  0  0  0  0  0  0
  148.7357  139.3598  154.8617 C   0  0  0  0  0  0  0  0  0  0  0  0
  149.3314  137.6141  159.5957 H   0  0  0  0  0  0  0  0  0  0  0  0
  149.4429  138.8443  158.3553 H   0  0  0  0  0  0  0  0  0  0  0  0
  153.0020  138.4351  157.7645 H   0  0  0  0  0  0  0  0  0  0  0  0
  151.5159  138.7013  156.8746 H   0  0  0  0  0  0  0  0  0  0  0  0
  153.3522  142.7574  161.2982 H   0  0  0  0  0  0  0  0  0  0  0  0
  152.7816  145.1523  160.8666 H   0  0  0  0  0  0  0  0  0  0  0  0
  151.5501  145.8164  158.8339 H   0  0  0  0  0  0  0  0  0  0  0  0
  150.8375  144.1279  157.1531 H   0  0  0  0  0  0  0  0  0  0  0  0
  151.0521  142.2752  155.8098 H   0  0  0  0  0  0  0  0  0  0  0  0
  151.1444  140.5450  155.6463 H   0  0  0  0  0  0  0  0  0  0  0  0
  149.0025  140.6256  157.3045 H   0  0  0  0  0  0  0  0  0  0  0  0
  149.0039  143.1541  156.1000 H   0  0  0  0  0  0  0  0  0  0  0  0
  147.5909  142.5780  154.6715 H   0  0  0  0  0  0  0  0  0  0  0  0
  146.5117  141.6582  152.6373 H   0  0  0  0  0  0  0  0  0  0  0  0
  148.2762  137.8076  153.4303 H   0  0  0  0  0  0  0  0  0  0  0  0
  149.3580  138.7177  155.4675 H   0  0  0  0  0  0  0  0  0  0  0  0
  153.0370  140.1595  160.0979 H   0  0  0  0  0  0  0  0  0  0  0  0
  1  2  1  0  0  0  0
  1 24  1  0  0  0  0
  1 25  1  0  0  0  0
  2  3  2  0  0  0  0
  2  4  1  0  0  0  0
  4  5  1  0  0  0  0
  4 26  1  0  0  0  0
  4 27  1  0  0  0  0
  5 13  1  0  0  0  0
  5  6  2  0  0  0  0
  6  7  1  0  0  0  0
  6 40  1  0  0  0  0
  7 12  2  0  0  0  0
  7  8  1  0  0  0  0
  8  9  2  0  0  0  0
  8 28  1  0  0  0  0
  9 10  1  0  0  0  0
  9 29  1  0  0  0  0
 10 11  2  0  0  0  0
 10 30  1  0  0  0  0
 11 12  1  0  0  0  0
 11 31  1  0  0  0  0
 12 13  1  0  0  0  0
 13 14  1  0  0  0  0
 14 15  1  0  0  0  0
 14 32  1  0  0  0  0
 14 33  1  0  0  0  0
 15 16  1  0  0  0  0
 15 17  1  0  0  0  0
 15 34  1  0  0  0  0
 16 35  1  0  0  0  0
 17 23  1  0  0  0  0
 17 18  2  0  0  0  0
 18 19  1  0  0  0  0
 18 36  1  0  0  0  0
 19 20  2  0  0  0  0
 19 37  1  0  0  0  0
 20 21  1  0  0  0  0
 20 22  1  0  0  0  0
 22 23  2  0  0  0  0
 22 38  1  0  0  0  0
 23 39  1  0  0  0  0
M  CHG  1   6   1
M  END
> <s_m_source_file>
AV-unprocessed.smi

> <i_m_source_file_index>
1766

> <i_lp_mmshare_version>
43012

> <i_f3d_flags>
0

> <s_epik_input>
W2NIXTFbY0hdW2NIXVtjSF1jKGMxMiluKGMobjIpW0NIMl1DKD1PKVtOSDJdKVtDSDJdW0NASF0oW09IXSljM1tjSF1bY0hdYyhGKVtjSF1bY0hdMw==

> <s_epik_cmdline>
J2VwaWtfcHl0aG9uJywgJy1waCcsICc3LjAnLCAnLXRuJywgJzgnLCAnLW1hJywgJzIwMCcsICctbWV0YWxfYmluZGluZycsICctaW1hZScsICc8aW5maWxlLm1hZT4nLCAnLW9tYWUnLCAnPG91dGZpbGUubWFlPic=

> <r_epik_Ionization_Penalty>
1.66646

> <r_epik_Ionization_Penalty_Charging>
1.66645

> <r_epik_Ionization_Penalty_Neutral>
2.12833e-06

> <r_epik_State_Penalty>
1.76975

> <r_epik_Charging_Adjusted_Penalty>
3.43621

> <i_epik_Tot_Q>
1

> <i_epik_Tot_abs_Q>
1

> <r_epik_Metal_State_Penalty>
1.80493

> <b_epik_Metal_Only>
0

> <s_lp_Force_Field>
OPLS_2005

> <r_lp_Energy>
15.5136

> <b_lp_Chiralities_Consistent>
1

> <s_lp_Variant>
AV-unprocessed.smi:1766-4

> <Gold.Version>
5.8.1

> <Gold.Id.Protein>
6NUR|6NUR_protein|mol2

> <Gold.PLP.Fitness>
50.0662

> <Gold.PLP.PLP>
-46.0780

> <Gold.PLP.part.hbond>
-1.6169

> <Gold.PLP.part.metal>
0.0000

> <Gold.PLP.part.buried>
-1.6990

> <Gold.PLP.part.nonpolar>
-42.5075

> <Gold.PLP.part.repulsive>
0.3414

> <Gold.PLP.ligand.clash>
0.0000

> <Gold.PLP.ligand.torsion>
0.8297

> <Gold.PLP.Chemscore.Hbond>
1.8640

> <Gold.PLP.Chemscore.CHOScore>
0.0000

> <Gold.PLP.Chemscore.Metal>
0.0000

> <Gold.Chemscore.Hbonds>
donor molecule, donor type, donor heavy atom, donor atom, acceptor molecule, acceptor atom, score
      L1  H    16    35       P1  8028  0.83
      P1  H  6896  6907       L1     3  1.00

> <Gold.PLP.Chemscore.Internal.Correction>
0.0556

> <Gold.Rescore>
     Score         DG    S(hbond)    S(metal)    S(lipo)     H(rot)  DE(clash)    DE(int)     intcor
     16.81     -18.10       1.85        0.00     121.81       3.05       0.57       0.72       ----

> <Gold.Chemscore.Fitness>
16.8149

> <Gold.Chemscore.DG>
-18.1031

> <Gold.Chemscore.ZeroCoef>
-5.4800

> <Gold.Chemscore.Hbond>
1.8479

> <Gold.Chemscore.Metal>
0.0000

> <Gold.Chemscore.Lipo>
121.8086

> <Gold.Chemscore.Internal_Hbond>
0.0000

> <Gold.Chemscore.DEClash>
0.5658

> <Gold.Chemscore.DEInternal>
0.7224

> <Gold.Chemscore.Rot>
3.0470

> <Gold.Chemscore.Internal.Correction>
   9.000000E+99

> <Gold.Chemscore.Hbonds>
donor molecule, donor type, donor heavy atom, donor atom, acceptor molecule, acceptor atom, score
      L1  H    16    35       P1  8028  0.83
      P1  H  6896  6907       L1     3  0.96

> <Gold.Chemscore.Hbond.Weighted>
-6.1719

> <Gold.Chemscore.Metal.Weighted>
-0.0000

> <Gold.Chemscore.Lipo.Weighted>
-14.2516

> <Gold.Chemscore.Internal_Hbond.Weighted>
0.0000

> <Gold.Chemscore.DEClash.Weighted>
0.5658

> <Gold.Chemscore.DEInternal.Weighted>
0.7224

> <Gold.Chemscore.Rot.Weighted>
7.8004

> <Gold.Chemscore.Internal.Correction.Weighted>
   9.000000E+99

> <Gold.Protein.RotatedTorsions>
[ 6907 6896 6895 6894 ] final   -6.44 input  -60.11 | X-H torsion
[ 7974 7965 7964 7962 ] final   85.10 input  175.53 | X-H torsion
[ 8008 7997 7996 7995 ] final   25.81 input   59.86 | X-H torsion
[ 10167 10162 10161 10158 ] final -116.13 input  -65.29 | X-H torsion
[ 10718 10713 10712 10709 ] final    2.88 input   66.30 | X-H torsion
[ 10763 10752 10751 10750 ] final -175.62 input  -60.55 | X-H torsion
[ 11005 11000 10999 10996 ] final -134.38 input  -57.11 | X-H torsion

> <Gold.Protein.ActiveResidues>
 VAL166  LYS551  ARG553  GLY616  TRP617  ASP618  TYR619  PRO620  LYS621  CYS622 
 ASP623  PHE694  ASN695  SER759  ASP760  ASP761  ALA762  ILE779  LEU786  VAL792 
 PHE793  MET794  SER795  GLU796  ALA797  LYS798  CYS799  TRP800  GLU811  SER814 

> <Gold.Protein.RotatedAtoms>
  151.4655  135.1042  159.9736 H   0  0  0  0  0  0  0  0  0  0  0  0  # atno 6907 bound_to 6896
  152.4837  133.8313  159.7115 H   0  0  0  0  0  0  0  0  0  0  0  0  # atno 6908 bound_to 6896
  150.8928  133.7160  159.2927 H   0  0  0  0  0  0  0  0  0  0  0  0  # atno 6909 bound_to 6896
  145.5899  139.2336  143.2305 H   0  0  0  0  0  0  0  0  0  0  0  0  # atno 7974 bound_to 7965
  155.0175  140.3144  155.4806 H   0  0  0  0  0  0  0  0  0  0  0  0  # atno 8008 bound_to 7997
  156.2898  140.2203  156.5234 H   0  0  0  0  0  0  0  0  0  0  0  0  # atno 8009 bound_to 7997
  154.7480  140.0468  157.0857 H   0  0  0  0  0  0  0  0  0  0  0  0  # atno 8010 bound_to 7997
  140.0825  143.4774  152.1917 H   0  0  0  0  0  0  0  0  0  0  0  0  # atno 10167 bound_to 10162
  156.8695  130.5615  149.5658 H   0  0  0  0  0  0  0  0  0  0  0  0  # atno 10718 bound_to 10713
  154.5822  135.2837  155.0721 H   0  0  0  0  0  0  0  0  0  0  0  0  # atno 10763 bound_to 10752
  154.2053  135.6417  153.5103 H   0  0  0  0  0  0  0  0  0  0  0  0  # atno 10764 bound_to 10752
  153.0092  135.5479  154.6479 H   0  0  0  0  0  0  0  0  0  0  0  0  # atno 10765 bound_to 10752
  140.8995  134.1708  157.4470 H   0  0  0  0  0  0  0  0  0  0  0  0  # atno 11005 bound_to 11000
  146.1654  140.6725  142.9258 LP  0  0  0  0  0  0  0  0  0  0  0  0  # atno 17320 bound_to 7965
  144.7356  140.4798  143.6906 LP  0  0  0  0  0  0  0  0  0  0  0  0  # atno 17321 bound_to 7965
  139.5771  144.7493  151.3736 LP  0  0  0  0  0  0  0  0  0  0  0  0  # atno 17342 bound_to 10162
  140.7070  143.7487  150.7500 LP  0  0  0  0  0  0  0  0  0  0  0  0  # atno 17343 bound_to 10162
  156.0734  130.5762  150.9427 LP  0  0  0  0  0  0  0  0  0  0  0  0  # atno 17370 bound_to 10713
  157.6204  131.0930  150.8633 LP  0  0  0  0  0  0  0  0  0  0  0  0  # atno 17371 bound_to 10713
  139.8740  134.9892  156.5447 LP  0  0  0  0  0  0  0  0  0  0  0  0  # atno 17394 bound_to 11000
  140.8247  133.8326  155.8928 LP  0  0  0  0  0  0  0  0  0  0  0  0  # atno 17395 bound_to 11000

$$$$
