AV-unprocessed.smi:21|AV-procd|sdf|139|dock2
  -GOLD-   2262015343D 1   1.00000     0.00000
 Structure written by MMmdl.
 62 65  0  0  0  0  0  0  0  0  2 V2000
  143.8797  135.5086  151.5664 C   0  0  0  0  0  0  0  0  0  0  0  0
  143.8981  134.1066  151.3484 O   0  0  0  0  0  0  0  0  0  0  0  0
  144.9868  133.6663  150.5469 C   0  0  1  0  0  0  0  0  0  0  0  0
  146.2839  134.0265  151.2598 C   0  0  0  0  0  0  0  0  0  0  0  0
  146.4877  132.8735  152.2473 C   0  0  2  0  0  0  0  0  0  0  0  0
  147.9516  132.6843  152.6976 C   0  0  0  0  0  0  0  0  0  0  0  0
  148.2210  133.2801  154.0077 N   0  0  0  0  0  0  0  0  0  0  0  0
  147.8582  134.6764  154.2136 C   0  0  0  0  0  0  0  0  0  0  0  0
  149.1339  132.6922  154.8300 C   0  0  0  0  0  0  0  0  0  0  0  0
  149.9097  133.5009  155.5993 N   0  0  0  0  0  0  0  0  0  0  0  0
  150.8159  132.9862  156.4334 C   0  0  0  0  0  0  0  0  0  0  0  0
  151.1023  131.7052  156.6621 N   0  0  0  0  0  0  0  0  0  0  0  0
  150.3252  130.8799  155.9060 C   0  0  0  0  0  0  0  0  0  0  0  0
  149.3328  131.2838  154.9650 C   0  0  0  0  0  0  0  0  0  0  0  0
  148.7554  130.1556  154.3917 N   0  0  0  0  0  0  0  0  0  0  0  0
  149.3714  129.1523  154.9521 C   0  0  0  0  0  0  0  0  0  0  0  0
  150.3146  129.4948  155.8931 N   0  0  0  0  0  0  0  0  0  0  0  0
  151.1274  128.5754  156.6778 C   0  0  0  0  0  0  0  0  0  0  0  0
  152.2143  127.8224  155.8603 C   0  0  2  0  0  0  0  0  0  0  0  0
  152.1236  126.2865  156.0282 C   0  0  0  0  0  0  0  0  0  0  0  0
  150.8974  125.7925  155.5302 O   0  0  0  0  0  0  0  0  0  0  0  0
  153.6437  128.3387  156.1711 C   0  0  2  0  0  0  0  0  0  0  0  0
  153.7268  129.8269  156.4695 C   0  0  0  0  0  0  0  0  0  0  0  0
  155.2134  130.1102  156.2881 C   0  0  0  0  0  0  0  0  0  0  0  0
  155.6537  129.2101  155.2776 O   0  0  0  0  0  0  0  0  0  0  0  0
  154.6380  128.2492  155.0081 C   0  0  0  0  0  0  0  0  0  0  0  0
  145.9766  131.6785  151.5372 N   0  3  1  0  0  0  0  0  0  0  0  0
  145.4203  130.6357  152.4274 C   0  0  0  0  0  0  0  0  0  0  0  0
  145.0315  132.1310  150.4874 C   0  0  0  0  0  0  0  0  0  0  0  0
  144.9482  134.1235  149.5566 H   0  0  0  0  0  0  0  0  0  0  0  0
  145.8512  133.0534  153.1158 H   0  0  0  0  0  0  0  0  0  0  0  0
  143.0107  135.7712  152.1696 H   0  0  0  0  0  0  0  0  0  0  0  0
  143.8171  136.0649  150.6308 H   0  0  0  0  0  0  0  0  0  0  0  0
  144.7705  135.8327  152.1058 H   0  0  0  0  0  0  0  0  0  0  0  0
  147.0996  134.0479  150.5353 H   0  0  0  0  0  0  0  0  0  0  0  0
  146.2443  135.0030  151.7439 H   0  0  0  0  0  0  0  0  0  0  0  0
  148.1700  131.6189  152.7743 H   0  0  0  0  0  0  0  0  0  0  0  0
  148.6342  133.0589  151.9345 H   0  0  0  0  0  0  0  0  0  0  0  0
  147.6744  134.8808  155.2690 H   0  0  0  0  0  0  0  0  0  0  0  0
  146.9458  134.9199  153.6686 H   0  0  0  0  0  0  0  0  0  0  0  0
  148.6482  135.3382  153.8578 H   0  0  0  0  0  0  0  0  0  0  0  0
  151.3917  133.7024  157.0011 H   0  0  0  0  0  0  0  0  0  0  0  0
  149.1418  128.1262  154.7030 H   0  0  0  0  0  0  0  0  0  0  0  0
  151.6008  129.1496  157.4748 H   0  0  0  0  0  0  0  0  0  0  0  0
  150.4658  127.8736  157.1849 H   0  0  0  0  0  0  0  0  0  0  0  0
  152.0217  128.0373  154.8079 H   0  0  0  0  0  0  0  0  0  0  0  0
  152.9152  125.7870  155.4706 H   0  0  0  0  0  0  0  0  0  0  0  0
  152.2418  125.9912  157.0708 H   0  0  0  0  0  0  0  0  0  0  0  0
  150.7727  126.1254  154.6543 H   0  0  0  0  0  0  0  0  0  0  0  0
  154.0620  127.7838  157.0119 H   0  0  0  0  0  0  0  0  0  0  0  0
  153.1487  130.3945  155.7387 H   0  0  0  0  0  0  0  0  0  0  0  0
  153.3725  130.0996  157.4624 H   0  0  0  0  0  0  0  0  0  0  0  0
  155.4099  131.1469  156.0143 H   0  0  0  0  0  0  0  0  0  0  0  0
  155.7563  129.8925  157.2087 H   0  0  0  0  0  0  0  0  0  0  0  0
  155.0672  127.2529  154.8999 H   0  0  0  0  0  0  0  0  0  0  0  0
  154.1568  128.5150  154.0657 H   0  0  0  0  0  0  0  0  0  0  0  0
  144.5510  131.0070  152.9721 H   0  0  0  0  0  0  0  0  0  0  0  0
  146.1649  130.3076  153.1531 H   0  0  0  0  0  0  0  0  0  0  0  0
  145.1136  129.7650  151.8471 H   0  0  0  0  0  0  0  0  0  0  0  0
  144.0425  131.6830  150.5931 H   0  0  0  0  0  0  0  0  0  0  0  0
  145.4287  131.8062  149.5251 H   0  0  0  0  0  0  0  0  0  0  0  0
  146.7638  131.2730  151.0509 H   0  0  0  0  0  0  0  0  0  0  0  0
  1  2  1  0  0  0  0
  1 32  1  0  0  0  0
  1 33  1  0  0  0  0
  1 34  1  0  0  0  0
  2  3  1  0  0  0  0
  3 30  1  0  0  0  0
  3 29  1  0  0  0  0
  3  4  1  0  0  0  0
  4  5  1  0  0  0  0
  4 35  1  0  0  0  0
  4 36  1  0  0  0  0
  5 31  1  0  0  0  0
  5  6  1  0  0  0  0
  5 27  1  0  0  0  0
  6  7  1  0  0  0  0
  6 37  1  0  0  0  0
  6 38  1  0  0  0  0
  7  8  1  0  0  0  0
  7  9  1  0  0  0  0
  8 39  1  0  0  0  0
  8 40  1  0  0  0  0
  8 41  1  0  0  0  0
  9 14  1  0  0  0  0
  9 10  2  0  0  0  0
 10 11  1  0  0  0  0
 11 12  2  0  0  0  0
 11 42  1  0  0  0  0
 12 13  1  0  0  0  0
 13 17  1  0  0  0  0
 13 14  2  0  0  0  0
 14 15  1  0  0  0  0
 15 16  2  0  0  0  0
 16 17  1  0  0  0  0
 16 43  1  0  0  0  0
 17 18  1  0  0  0  0
 18 19  1  0  0  0  0
 18 44  1  0  0  0  0
 18 45  1  0  0  0  0
 19 20  1  0  0  0  0
 19 22  1  0  0  0  0
 19 46  1  0  0  0  0
 20 21  1  0  0  0  0
 20 47  1  0  0  0  0
 20 48  1  0  0  0  0
 21 49  1  0  0  0  0
 22 26  1  0  0  0  0
 22 23  1  0  0  0  0
 22 50  1  0  0  0  0
 23 24  1  0  0  0  0
 23 51  1  0  0  0  0
 23 52  1  0  0  0  0
 24 25  1  0  0  0  0
 24 53  1  0  0  0  0
 24 54  1  0  0  0  0
 25 26  1  0  0  0  0
 26 55  1  0  0  0  0
 26 56  1  0  0  0  0
 27 28  1  0  0  0  0
 27 29  1  0  0  0  0
 27 62  1  0  0  0  0
 28 57  1  0  0  0  0
 28 58  1  0  0  0  0
 28 59  1  0  0  0  0
 29 60  1  0  0  0  0
 29 61  1  0  0  0  0
M  CHG  1  27   1
M  END
> <s_m_source_file>
AV-unprocessed.smi

> <i_m_source_file_index>
21

> <i_lp_mmshare_version>
43012

> <i_f3d_flags>
0

> <s_epik_input>
W0NIM11PW0NASF0xW0NIMl1bQ0BIXShOKFtDSDNdKVtDSDJdMSlbQ0gyXU4oW0NIM10pYyhuW2NIXW4yKWMoYzIzKW5bY0hdbjNbQ0gyXVtDQEhdKFtDSDJdW09IXSlbQ0BASF00W0NIMl1bQ0gyXU9bQ0gyXTQ=

> <s_epik_cmdline>
J2VwaWtfcHl0aG9uJywgJy1waCcsICc3LjAnLCAnLXRuJywgJzgnLCAnLW1hJywgJzIwMCcsICctbWV0YWxfYmluZGluZycsICctaW1hZScsICc8aW5maWxlLm1hZT4nLCAnLW9tYWUnLCAnPG91dGZpbGUubWFlPic=

> <r_lp_tautomer_probability>
1

> <r_epik_Ionization_Penalty>
0.0157465

> <r_epik_Ionization_Penalty_Charging>
0.015354

> <r_epik_Ionization_Penalty_Neutral>
0.000392529

> <r_epik_State_Penalty>
0.0120612

> <r_epik_Charging_Adjusted_Penalty>
0.0274152

> <i_epik_Tot_Q>
1

> <i_epik_Tot_abs_Q>
1

> <r_epik_Metal_State_Penalty>
0.0121253

> <b_epik_Metal_Only>
0

> <s_lp_Force_Field>
OPLS_2005

> <r_lp_Energy>
57.752

> <b_lp_Chiralities_Consistent>
1

> <s_lp_Variant>
AV-unprocessed.smi:21-19

> <Gold.Version>
5.8.1

> <Gold.Id.Protein>
6NUR|6NUR_protein|mol2

> <Gold.PLP.Fitness>
50.8777

> <Gold.PLP.PLP>
-46.1808

> <Gold.PLP.part.hbond>
-2.0000

> <Gold.PLP.part.metal>
0.0000

> <Gold.PLP.part.buried>
-5.7731

> <Gold.PLP.part.nonpolar>
-38.6774

> <Gold.PLP.part.repulsive>
0.3114

> <Gold.PLP.ligand.clash>
0.0000

> <Gold.PLP.ligand.torsion>
2.4647

> <Gold.PLP.Chemscore.Hbond>
2.0000

> <Gold.PLP.Chemscore.CHOScore>
0.9611

> <Gold.PLP.Chemscore.Metal>
0.0000

> <Gold.Chemscore.Hbonds>
donor molecule, donor type, donor heavy atom, donor atom, acceptor molecule, acceptor atom, score
      L1  H    27    62       P1 10747  0.13

> <Gold.PLP.Chemscore.Internal.Correction>
0.7429

> <Gold.Rescore>
     Score         DG    S(hbond)    S(metal)    S(lipo)     H(rot)  DE(clash)    DE(int)     intcor
     12.75     -14.88       2.00        0.00      90.60       3.08       0.11       2.02       ----

> <Gold.Chemscore.Fitness>
12.7492

> <Gold.Chemscore.DG>
-14.8791

> <Gold.Chemscore.ZeroCoef>
-5.4800

> <Gold.Chemscore.Hbond>
1.9979

> <Gold.Chemscore.Metal>
0.0000

> <Gold.Chemscore.Lipo>
90.6002

> <Gold.Chemscore.Internal_Hbond>
0.0000

> <Gold.Chemscore.DEClash>
0.1144

> <Gold.Chemscore.DEInternal>
2.0154

> <Gold.Chemscore.Rot>
3.0758

> <Gold.Chemscore.Internal.Correction>
   9.000000E+99

> <Gold.Chemscore.Hbonds>
donor molecule, donor type, donor heavy atom, donor atom, acceptor molecule, acceptor atom, score
      L1  H    27    62       P1 10747  0.16

> <Gold.Chemscore.Hbond.Weighted>
-6.6730

> <Gold.Chemscore.Metal.Weighted>
-0.0000

> <Gold.Chemscore.Lipo.Weighted>
-10.6002

> <Gold.Chemscore.Internal_Hbond.Weighted>
0.0000

> <Gold.Chemscore.DEClash.Weighted>
0.1144

> <Gold.Chemscore.DEInternal.Weighted>
2.0154

> <Gold.Chemscore.Rot.Weighted>
7.8741

> <Gold.Chemscore.Internal.Correction.Weighted>
   9.000000E+99

> <Gold.Protein.RotatedTorsions>
[ 6907 6896 6895 6894 ] final   41.42 input  -60.11 | X-H torsion
[ 7974 7965 7964 7962 ] final -106.33 input  175.53 | X-H torsion
[ 8008 7997 7996 7995 ] final   16.55 input   59.86 | X-H torsion
[ 10167 10162 10161 10158 ] final  171.32 input  -65.29 | X-H torsion
[ 10718 10713 10712 10709 ] final  123.44 input   66.30 | X-H torsion
[ 10763 10752 10751 10750 ] final -162.87 input  -60.55 | X-H torsion
[ 11005 11000 10999 10996 ] final   46.85 input  -57.11 | X-H torsion

> <Gold.Protein.ActiveResidues>
 VAL166  LYS551  ARG553  GLY616  TRP617  ASP618  TYR619  PRO620  LYS621  CYS622 
 ASP623  PHE694  ASN695  SER759  ASP760  ASP761  ALA762  ILE779  LEU786  VAL792 
 PHE793  MET794  SER795  GLU796  ALA797  LYS798  CYS799  TRP800  GLU811  SER814 

> <Gold.Protein.RotatedAtoms>
  152.1950  134.8639  160.0513 H   0  0  0  0  0  0  0  0  0  0  0  0  # atno 6907 bound_to 6896
  151.9513  133.3662  159.4009 H   0  0  0  0  0  0  0  0  0  0  0  0  # atno 6908 bound_to 6896
  150.6943  134.4261  159.5271 H   0  0  0  0  0  0  0  0  0  0  0  0  # atno 6909 bound_to 6896
  145.2192  140.9127  143.3269 H   0  0  0  0  0  0  0  0  0  0  0  0  # atno 7974 bound_to 7965
  154.8785  140.2969  155.5439 H   0  0  0  0  0  0  0  0  0  0  0  0  # atno 8008 bound_to 7997
  156.3022  140.2447  156.3718 H   0  0  0  0  0  0  0  0  0  0  0  0  # atno 8009 bound_to 7997
  154.8742  140.0400  157.1732 H   0  0  0  0  0  0  0  0  0  0  0  0  # atno 8010 bound_to 7997
  139.5043  144.3498  151.9934 H   0  0  0  0  0  0  0  0  0  0  0  0  # atno 10167 bound_to 10162
  157.5664  131.1086  150.8446 H   0  0  0  0  0  0  0  0  0  0  0  0  # atno 10718 bound_to 10713
  154.7174  135.3018  154.9101 H   0  0  0  0  0  0  0  0  0  0  0  0  # atno 10763 bound_to 10752
  153.9984  135.6710  153.4762 H   0  0  0  0  0  0  0  0  0  0  0  0  # atno 10764 bound_to 10752
  153.0805  135.5011  154.8409 H   0  0  0  0  0  0  0  0  0  0  0  0  # atno 10765 bound_to 10752
  140.1331  134.4679  155.8506 H   0  0  0  0  0  0  0  0  0  0  0  0  # atno 11005 bound_to 11000
  144.9781  139.3811  143.6275 LP  0  0  0  0  0  0  0  0  0  0  0  0  # atno 17320 bound_to 7965
  146.3380  139.8910  142.8809 LP  0  0  0  0  0  0  0  0  0  0  0  0  # atno 17321 bound_to 7965
  140.2935  144.3727  150.6081 LP  0  0  0  0  0  0  0  0  0  0  0  0  # atno 17342 bound_to 10162
  140.5928  143.2167  151.7220 LP  0  0  0  0  0  0  0  0  0  0  0  0  # atno 17343 bound_to 10162
  156.8929  130.5219  149.5285 LP  0  0  0  0  0  0  0  0  0  0  0  0  # atno 17370 bound_to 10713
  156.0712  130.5745  150.9387 LP  0  0  0  0  0  0  0  0  0  0  0  0  # atno 17371 bound_to 10713
  141.2174  133.6804  156.7107 LP  0  0  0  0  0  0  0  0  0  0  0  0  # atno 17394 bound_to 11000
  140.2816  134.8312  157.3938 LP  0  0  0  0  0  0  0  0  0  0  0  0  # atno 17395 bound_to 11000

$$$$
