AV-unprocessed.smi:1841|AV-procd|sdf|7496|dock2
  -GOLD-   22720 9193D 1   1.00000     0.00000
 Structure written by MMmdl.
 40 41  0  0  0  0  0  0  0  0  1 V2000
  138.8099  137.1763  153.1865 C   0  0  0  0  0  0  0  0  0  0  0  0
  140.2266  137.1900  153.1990 O   0  0  0  0  0  0  0  0  0  0  0  0
  140.7761  136.0312  153.8039 C   0  0  0  0  0  0  0  0  0  0  0  0
  142.2231  136.3178  154.2154 C   0  0  0  0  0  0  0  0  0  0  0  0
  143.0268  136.3899  153.0417 O   0  0  0  0  0  0  0  0  0  0  0  0
  144.2356  137.0513  153.1094 C   0  0  0  0  0  0  0  0  0  0  0  0
  145.0477  137.0889  151.9592 C   0  0  0  0  0  0  0  0  0  0  0  0
  146.2811  137.7659  152.0157 C   0  0  0  0  0  0  0  0  0  0  0  0
  146.6685  138.3843  153.2295 C   0  0  0  0  0  0  0  0  0  0  0  0
  147.8766  139.1093  153.4306 N   0  0  0  0  0  0  0  0  0  0  0  0
  148.5233  139.4074  154.5732 C   0  0  0  0  0  0  0  0  0  0  0  0
  148.1388  139.1018  155.7015 O   0  0  0  0  0  0  0  0  0  0  0  0
  149.8308  140.1996  154.4092 C   0  0  2  0  0  0  0  0  0  0  0  0
  151.0309  139.4347  155.0044 C   0  0  0  0  0  0  0  0  0  0  0  0
  151.4518  140.2782  156.1961 C   0  0  0  0  0  0  0  0  0  0  0  0
  152.3333  139.9325  156.9813 O   0  0  0  0  0  0  0  0  0  0  0  0
  150.7378  141.4051  156.2602 N   0  0  0  0  0  0  0  0  0  0  0  0
  150.8664  142.4367  157.2802 C   0  0  0  0  0  0  0  0  0  0  0  0
  149.8021  141.5506  155.1584 C   0  0  0  0  0  0  0  0  0  0  0  0
  145.7817  138.2875  154.3224 C   0  0  0  0  0  0  0  0  0  0  0  0
  144.5978  137.6416  154.2746 N   0  0  0  0  0  0  0  0  0  0  0  0
  138.4388  138.0829  152.7086 H   0  0  0  0  0  0  0  0  0  0  0  0
  138.4071  137.1403  154.1994 H   0  0  0  0  0  0  0  0  0  0  0  0
  138.4285  136.3213  152.6269 H   0  0  0  0  0  0  0  0  0  0  0  0
  140.1898  135.7763  154.6881 H   0  0  0  0  0  0  0  0  0  0  0  0
  140.7348  135.1777  153.1252 H   0  0  0  0  0  0  0  0  0  0  0  0
  142.2746  137.2440  154.7906 H   0  0  0  0  0  0  0  0  0  0  0  0
  142.5818  135.5067  154.8512 H   0  0  0  0  0  0  0  0  0  0  0  0
  144.7274  136.6099  151.0456 H   0  0  0  0  0  0  0  0  0  0  0  0
  146.8879  137.7951  151.1254 H   0  0  0  0  0  0  0  0  0  0  0  0
  148.3088  139.4555  152.5861 H   0  0  0  0  0  0  0  0  0  0  0  0
  150.0061  140.3819  153.3473 H   0  0  0  0  0  0  0  0  0  0  0  0
  150.7901  138.4191  155.3231 H   0  0  0  0  0  0  0  0  0  0  0  0
  151.8539  139.3772  154.2916 H   0  0  0  0  0  0  0  0  0  0  0  0
  151.8913  142.8065  157.3254 H   0  0  0  0  0  0  0  0  0  0  0  0
  150.6004  142.0392  158.2603 H   0  0  0  0  0  0  0  0  0  0  0  0
  150.2112  143.2820  157.0685 H   0  0  0  0  0  0  0  0  0  0  0  0
  150.1346  142.3609  154.5083 H   0  0  0  0  0  0  0  0  0  0  0  0
  148.8103  141.8144  155.5305 H   0  0  0  0  0  0  0  0  0  0  0  0
  146.0282  138.7447  155.2697 H   0  0  0  0  0  0  0  0  0  0  0  0
  1  2  1  0  0  0  0
  1 22  1  0  0  0  0
  1 23  1  0  0  0  0
  1 24  1  0  0  0  0
  2  3  1  0  0  0  0
  3  4  1  0  0  0  0
  3 25  1  0  0  0  0
  3 26  1  0  0  0  0
  4  5  1  0  0  0  0
  4 27  1  0  0  0  0
  4 28  1  0  0  0  0
  5  6  1  0  0  0  0
  6 21  1  0  0  0  0
  6  7  2  0  0  0  0
  7  8  1  0  0  0  0
  7 29  1  0  0  0  0
  8  9  2  0  0  0  0
  8 30  1  0  0  0  0
  9 10  1  0  0  0  0
  9 20  1  0  0  0  0
 10 11  1  0  0  0  0
 10 31  1  0  0  0  0
 11 12  2  0  0  0  0
 11 13  1  0  0  0  0
 13 19  1  0  0  0  0
 13 14  1  0  0  0  0
 13 32  1  0  0  0  0
 14 15  1  0  0  0  0
 14 33  1  0  0  0  0
 14 34  1  0  0  0  0
 15 16  2  0  0  0  0
 15 17  1  0  0  0  0
 17 18  1  0  0  0  0
 17 19  1  0  0  0  0
 18 35  1  0  0  0  0
 18 36  1  0  0  0  0
 18 37  1  0  0  0  0
 19 38  1  0  0  0  0
 19 39  1  0  0  0  0
 20 21  2  0  0  0  0
 20 40  1  0  0  0  0
M  END
> <s_m_source_file>
AV-unprocessed.smi

> <i_m_source_file_index>
1841

> <i_lp_mmshare_version>
43012

> <i_f3d_flags>
0

> <s_epik_input>
W0NIM11PW0NIMl1bQ0gyXU9jMVtjSF1bY0hdYyhbY0hdbjEpW05IXUMoPU8pW0NAQEhdMltDSDJdQyg9TylOKFtDSDNdKVtDSDJdMg==

> <s_epik_cmdline>
J2VwaWtfcHl0aG9uJywgJy1waCcsICc3LjAnLCAnLXRuJywgJzgnLCAnLW1hJywgJzIwMCcsICctbWV0YWxfYmluZGluZycsICctaW1hZScsICc8aW5maWxlLm1hZT4nLCAnLW9tYWUnLCAnPG91dGZpbGUubWFlPic=

> <r_lp_tautomer_probability>
1

> <r_epik_Ionization_Penalty>
1.70347e-05

> <r_epik_Ionization_Penalty_Charging>
0

> <r_epik_Ionization_Penalty_Neutral>
1.70347e-05

> <r_epik_State_Penalty>
-0

> <r_epik_Charging_Adjusted_Penalty>
0

> <i_epik_Tot_Q>
0

> <i_epik_Tot_abs_Q>
0

> <r_epik_Metal_State_Penalty>
-0

> <b_epik_Metal_Only>
0

> <s_lp_Force_Field>
OPLS_2005

> <r_lp_Energy>
17.4372

> <b_lp_Chiralities_Consistent>
1

> <s_lp_Variant>
AV-unprocessed.smi:1841-1

> <Gold.Version>
5.8.1

> <Gold.Id.Protein>
6NUR|6NUR_protein|mol2

> <Gold.PLP.Fitness>
37.3827

> <Gold.PLP.PLP>
-32.0140

> <Gold.PLP.part.hbond>
-2.0000

> <Gold.PLP.part.metal>
0.0000

> <Gold.PLP.part.buried>
2.2739

> <Gold.PLP.part.nonpolar>
-33.2833

> <Gold.PLP.part.repulsive>
0.4581

> <Gold.PLP.ligand.clash>
0.0000

> <Gold.PLP.ligand.torsion>
0.3279

> <Gold.PLP.Chemscore.Hbond>
2.0000

> <Gold.PLP.Chemscore.CHOScore>
0.0000

> <Gold.PLP.Chemscore.Metal>
0.0000

> <Gold.Chemscore.Hbonds>
donor molecule, donor type, donor heavy atom, donor atom, acceptor molecule, acceptor atom, score
      L1  H    10    31       P1  7957  1.00
      P1  H  7997  8009       L1    16  0.84

> <Gold.PLP.Chemscore.Internal.Correction>
0.0245

> <Gold.Rescore>
     Score         DG    S(hbond)    S(metal)    S(lipo)     H(rot)  DE(clash)    DE(int)     intcor
     12.45     -15.32       1.99        0.00      70.00       1.95       1.23       1.63       ----

> <Gold.Chemscore.Fitness>
12.4533

> <Gold.Chemscore.DG>
-15.3193

> <Gold.Chemscore.ZeroCoef>
-5.4800

> <Gold.Chemscore.Hbond>
1.9860

> <Gold.Chemscore.Metal>
0.0000

> <Gold.Chemscore.Lipo>
69.9998

> <Gold.Chemscore.Internal_Hbond>
0.0000

> <Gold.Chemscore.DEClash>
1.2341

> <Gold.Chemscore.DEInternal>
1.6319

> <Gold.Chemscore.Rot>
1.9468

> <Gold.Chemscore.Internal.Correction>
   9.000000E+99

> <Gold.Chemscore.Hbonds>
donor molecule, donor type, donor heavy atom, donor atom, acceptor molecule, acceptor atom, score
      L1  H    10    31       P1  7957  0.96
      P1  H  7997  8009       L1    16  0.80

> <Gold.Chemscore.Hbond.Weighted>
-6.6332

> <Gold.Chemscore.Metal.Weighted>
-0.0000

> <Gold.Chemscore.Lipo.Weighted>
-8.1900

> <Gold.Chemscore.Internal_Hbond.Weighted>
0.0000

> <Gold.Chemscore.DEClash.Weighted>
1.2341

> <Gold.Chemscore.DEInternal.Weighted>
1.6319

> <Gold.Chemscore.Rot.Weighted>
4.9839

> <Gold.Chemscore.Internal.Correction.Weighted>
   9.000000E+99

> <Gold.Protein.RotatedTorsions>
[ 6907 6896 6895 6894 ] final -166.84 input  -60.11 | X-H torsion
[ 7974 7965 7964 7962 ] final  -57.29 input  175.53 | X-H torsion
[ 8008 7997 7996 7995 ] final -165.28 input   59.86 | X-H torsion
[ 10167 10162 10161 10158 ] final   62.97 input  -65.29 | X-H torsion
[ 10718 10713 10712 10709 ] final  -27.42 input   66.30 | X-H torsion
[ 10763 10752 10751 10750 ] final   77.71 input  -60.55 | X-H torsion
[ 11005 11000 10999 10996 ] final  175.07 input  -57.11 | X-H torsion

> <Gold.Protein.ActiveResidues>
 VAL166  LYS551  ARG553  GLY616  TRP617  ASP618  TYR619  PRO620  LYS621  CYS622 
 ASP623  PHE694  ASN695  SER759  ASP760  ASP761  ALA762  ILE779  LEU786  VAL792 
 PHE793  MET794  SER795  GLU796  ALA797  LYS798  CYS799  TRP800  GLU811  SER814 

> <Gold.Protein.RotatedAtoms>
  151.4501  133.3620  159.2793 H   0  0  0  0  0  0  0  0  0  0  0  0  # atno 6907 bound_to 6896
  150.9097  134.8515  159.7428 H   0  0  0  0  0  0  0  0  0  0  0  0  # atno 6908 bound_to 6896
  152.4925  134.4429  159.9601 H   0  0  0  0  0  0  0  0  0  0  0  0  # atno 6909 bound_to 6896
  145.8528  140.8340  142.9977 H   0  0  0  0  0  0  0  0  0  0  0  0  # atno 7974 bound_to 7965
  155.8476  140.0958  157.1695 H   0  0  0  0  0  0  0  0  0  0  0  0  # atno 8008 bound_to 7997
  154.3984  140.1389  156.3867 H   0  0  0  0  0  0  0  0  0  0  0  0  # atno 8009 bound_to 7997
  155.7996  140.3453  155.5398 H   0  0  0  0  0  0  0  0  0  0  0  0  # atno 8010 bound_to 7997
  140.1381  144.4580  150.6827 H   0  0  0  0  0  0  0  0  0  0  0  0  # atno 10167 bound_to 10162
  156.4383  130.4459  149.7070 H   0  0  0  0  0  0  0  0  0  0  0  0  # atno 10718 bound_to 10713
  153.0819  135.4904  154.8519 H   0  0  0  0  0  0  0  0  0  0  0  0  # atno 10763 bound_to 10752
  154.7161  135.3030  154.9123 H   0  0  0  0  0  0  0  0  0  0  0  0  # atno 10764 bound_to 10752
  153.9802  135.6790  153.4803 H   0  0  0  0  0  0  0  0  0  0  0  0  # atno 10765 bound_to 10752
  140.3582  134.7136  157.4313 H   0  0  0  0  0  0  0  0  0  0  0  0  # atno 11005 bound_to 11000
  144.6728  140.0979  143.7462 LP  0  0  0  0  0  0  0  0  0  0  0  0  # atno 17320 bound_to 7965
  145.9338  139.2623  143.1309 LP  0  0  0  0  0  0  0  0  0  0  0  0  # atno 17321 bound_to 7965
  140.6777  143.2312  151.5465 LP  0  0  0  0  0  0  0  0  0  0  0  0  # atno 17342 bound_to 10162
  139.5486  144.2456  152.1488 LP  0  0  0  0  0  0  0  0  0  0  0  0  # atno 17343 bound_to 10162
  156.3945  130.7643  151.2647 LP  0  0  0  0  0  0  0  0  0  0  0  0  # atno 17370 bound_to 10713
  157.7507  131.0258  150.3935 LP  0  0  0  0  0  0  0  0  0  0  0  0  # atno 17371 bound_to 10713
  140.0648  134.5945  155.8708 LP  0  0  0  0  0  0  0  0  0  0  0  0  # atno 17394 bound_to 11000
  141.1992  133.6605  156.5831 LP  0  0  0  0  0  0  0  0  0  0  0  0  # atno 17395 bound_to 11000

$$$$
