AV-unprocessed.smi:2922|AV-procd|sdf|11198|dock1
  -GOLD-   2272016 93D 1   1.00000     0.00000
 Structure written by MMmdl.
 30 31  0  0  0  0  0  0  0  0  1 V2000
  147.8810  138.9653  152.5299 N   0  0  0  0  0  0  0  0  0  0  0  0
  148.1379  139.7256  153.5985 C   0  0  0  0  0  0  0  0  0  0  0  0
  147.4932  140.7451  153.8369 O   0  0  0  0  0  0  0  0  0  0  0  0
  149.2606  139.2669  154.5479 C   0  0  2  0  0  0  0  0  0  0  0  0
  148.7874  139.0076  155.9931 C   0  0  0  0  0  0  0  0  0  0  0  0
  149.5857  139.9932  156.8310 C   0  0  0  0  0  0  0  0  0  0  0  0
  149.9670  141.0685  155.8211 C   0  0  1  0  0  0  0  0  0  0  0  0
  151.1923  141.9003  156.2286 C   0  0  0  0  0  0  0  0  0  0  0  0
  150.8259  143.0486  157.0463 N   0  0  0  0  0  0  0  0  0  0  0  0
  151.2092  143.2331  158.3624 C   0  0  0  0  0  0  0  0  0  0  0  0
  150.8928  144.3880  158.9620 N   0  0  0  0  0  0  0  0  0  0  0  0
  151.2850  144.5426  160.2456 C   0  0  0  0  0  0  0  0  0  0  0  0
  151.9949  143.5333  160.9256 C   0  0  0  0  0  0  0  0  0  0  0  0
  152.5002  143.7247  162.5638 Cl  0  0  0  0  0  0  0  0  0  0  0  0
  152.2709  142.3593  160.1966 C   0  0  0  0  0  0  0  0  0  0  0  0
  151.8748  142.2140  158.9127 N   0  0  0  0  0  0  0  0  0  0  0  0
  150.2508  140.2892  154.6682 O   0  0  0  0  0  0  0  0  0  0  0  0
  147.1530  139.2340  151.8841 H   0  0  0  0  0  0  0  0  0  0  0  0
  148.4190  138.1248  152.3742 H   0  0  0  0  0  0  0  0  0  0  0  0
  149.7265  138.3760  154.1256 H   0  0  0  0  0  0  0  0  0  0  0  0
  147.7203  139.1956  156.1207 H   0  0  0  0  0  0  0  0  0  0  0  0
  148.9753  137.9798  156.3042 H   0  0  0  0  0  0  0  0  0  0  0  0
  149.0225  140.3871  157.6774 H   0  0  0  0  0  0  0  0  0  0  0  0
  150.4816  139.5053  157.2177 H   0  0  0  0  0  0  0  0  0  0  0  0
  149.1045  141.7088  155.6273 H   0  0  0  0  0  0  0  0  0  0  0  0
  151.9008  141.2805  156.7791 H   0  0  0  0  0  0  0  0  0  0  0  0
  151.7169  142.2558  155.3415 H   0  0  0  0  0  0  0  0  0  0  0  0
  150.1205  143.6742  156.6852 H   0  0  0  0  0  0  0  0  0  0  0  0
  151.0312  145.4744  160.7292 H   0  0  0  0  0  0  0  0  0  0  0  0
  152.8101  141.5360  160.6416 H   0  0  0  0  0  0  0  0  0  0  0  0
  1  2  1  0  0  0  0
  1 18  1  0  0  0  0
  1 19  1  0  0  0  0
  2  3  2  0  0  0  0
  2  4  1  0  0  0  0
  4 17  1  0  0  0  0
  4  5  1  0  0  0  0
  4 20  1  0  0  0  0
  5  6  1  0  0  0  0
  5 21  1  0  0  0  0
  5 22  1  0  0  0  0
  6  7  1  0  0  0  0
  6 23  1  0  0  0  0
  6 24  1  0  0  0  0
  7  8  1  0  0  0  0
  7 17  1  0  0  0  0
  7 25  1  0  0  0  0
  8  9  1  0  0  0  0
  8 26  1  0  0  0  0
  8 27  1  0  0  0  0
  9 10  1  0  0  0  0
  9 28  1  0  0  0  0
 10 16  1  0  0  0  0
 10 11  2  0  0  0  0
 11 12  1  0  0  0  0
 12 13  2  0  0  0  0
 12 29  1  0  0  0  0
 13 14  1  0  0  0  0
 13 15  1  0  0  0  0
 15 16  2  0  0  0  0
 15 30  1  0  0  0  0
M  END
> <s_m_source_file>
AV-unprocessed.smi

> <i_m_source_file_index>
2922

> <i_lp_mmshare_version>
43012

> <i_f3d_flags>
0

> <s_epik_input>
W05IMl1DKD1PKVtDQEBIXTFbQ0gyXVtDSDJdW0NASF0oTzEpW0NIMl1bTkhdYzJuW2NIXWMoQ2wpW2NIXW4y

> <s_epik_cmdline>
J2VwaWtfcHl0aG9uJywgJy1waCcsICc3LjAnLCAnLXRuJywgJzgnLCAnLW1hJywgJzIwMCcsICctbWV0YWxfYmluZGluZycsICctaW1hZScsICc8aW5maWxlLm1hZT4nLCAnLW9tYWUnLCAnPG91dGZpbGUubWFlPic=

> <r_lp_tautomer_probability>
1

> <r_epik_Ionization_Penalty>
6.13883e-06

> <r_epik_Ionization_Penalty_Charging>
0

> <r_epik_Ionization_Penalty_Neutral>
6.13883e-06

> <r_epik_State_Penalty>
-0

> <r_epik_Charging_Adjusted_Penalty>
0

> <i_epik_Tot_Q>
0

> <i_epik_Tot_abs_Q>
0

> <r_epik_Metal_State_Penalty>
-0

> <b_epik_Metal_Only>
0

> <s_lp_Force_Field>
OPLS_2005

> <r_lp_Energy>
9.74106

> <b_lp_Chiralities_Consistent>
1

> <s_lp_Variant>
AV-unprocessed.smi:2922-1

> <Gold.Version>
5.8.1

> <Gold.Id.Protein>
6NUR|6NUR_protein|mol2

> <Gold.PLP.Fitness>
38.5604

> <Gold.PLP.PLP>
-30.1262

> <Gold.PLP.part.hbond>
-4.0000

> <Gold.PLP.part.metal>
0.0000

> <Gold.PLP.part.buried>
-6.0439

> <Gold.PLP.part.nonpolar>
-20.5216

> <Gold.PLP.part.repulsive>
0.4345

> <Gold.PLP.ligand.clash>
0.0000

> <Gold.PLP.ligand.torsion>
0.2978

> <Gold.PLP.Chemscore.Hbond>
3.0000

> <Gold.PLP.Chemscore.CHOScore>
0.0000

> <Gold.PLP.Chemscore.Metal>
0.0000

> <Gold.Chemscore.Hbonds>
donor molecule, donor type, donor heavy atom, donor atom, acceptor molecule, acceptor atom, score
      L1  H     1    19       P1  7948  1.00
      L1  H     9    28       P1  8028  1.00
      P1  H  7989  7998       L1    17  1.00

> <Gold.PLP.Chemscore.Internal.Correction>
0.0298

> <Gold.Rescore>
     Score         DG    S(hbond)    S(metal)    S(lipo)     H(rot)  DE(clash)    DE(int)     intcor
     17.81     -18.46       2.91        0.00      69.57       1.91       0.33       0.32       ----

> <Gold.Chemscore.Fitness>
17.8070

> <Gold.Chemscore.DG>
-18.4552

> <Gold.Chemscore.ZeroCoef>
-5.4800

> <Gold.Chemscore.Hbond>
2.9147

> <Gold.Chemscore.Metal>
0.0000

> <Gold.Chemscore.Lipo>
69.5747

> <Gold.Chemscore.Internal_Hbond>
0.0000

> <Gold.Chemscore.DEClash>
0.3267

> <Gold.Chemscore.DEInternal>
0.3215

> <Gold.Chemscore.Rot>
1.9142

> <Gold.Chemscore.Internal.Correction>
   9.000000E+99

> <Gold.Chemscore.Hbonds>
donor molecule, donor type, donor heavy atom, donor atom, acceptor molecule, acceptor atom, score
      L1  H     1    19       P1  7948  0.96
      L1  H     9    28       P1  8028  1.00
      P1  H  7989  7998       L1    17  0.93

> <Gold.Chemscore.Hbond.Weighted>
-9.7352

> <Gold.Chemscore.Metal.Weighted>
-0.0000

> <Gold.Chemscore.Lipo.Weighted>
-8.1402

> <Gold.Chemscore.Internal_Hbond.Weighted>
0.0000

> <Gold.Chemscore.DEClash.Weighted>
0.3267

> <Gold.Chemscore.DEInternal.Weighted>
0.3215

> <Gold.Chemscore.Rot.Weighted>
4.9002

> <Gold.Chemscore.Internal.Correction.Weighted>
   9.000000E+99

> <Gold.Protein.RotatedTorsions>
[ 6907 6896 6895 6894 ] final   30.72 input  -60.11 | X-H torsion
[ 7974 7965 7964 7962 ] final  145.34 input  175.53 | X-H torsion
[ 8008 7997 7996 7995 ] final -129.04 input   59.86 | X-H torsion
[ 10167 10162 10161 10158 ] final -167.18 input  -65.29 | X-H torsion
[ 10718 10713 10712 10709 ] final   78.04 input   66.30 | X-H torsion
[ 10763 10752 10751 10750 ] final  140.97 input  -60.55 | X-H torsion
[ 11005 11000 10999 10996 ] final -151.27 input  -57.11 | X-H torsion

> <Gold.Protein.ActiveResidues>
 VAL166  LYS551  ARG553  GLY616  TRP617  ASP618  TYR619  PRO620  LYS621  CYS622 
 ASP623  PHE694  ASN695  SER759  ASP760  ASP761  ALA762  ILE779  LEU786  VAL792 
 PHE793  MET794  SER795  GLU796  ALA797  LYS798  CYS799  TRP800  GLU811  SER814 

> <Gold.Protein.RotatedAtoms>
  152.0500  134.9659  160.0574 H   0  0  0  0  0  0  0  0  0  0  0  0  # atno 6907 bound_to 6896
  152.1064  133.4272  159.4619 H   0  0  0  0  0  0  0  0  0  0  0  0  # atno 6908 bound_to 6896
  150.6841  134.2619  159.4596 H   0  0  0  0  0  0  0  0  0  0  0  0  # atno 6909 bound_to 6896
  144.8761  139.5771  143.5864 H   0  0  0  0  0  0  0  0  0  0  0  0  # atno 7974 bound_to 7965
  155.2726  140.0440  157.3008 H   0  0  0  0  0  0  0  0  0  0  0  0  # atno 8008 bound_to 7997
  154.5644  140.2355  155.8254 H   0  0  0  0  0  0  0  0  0  0  0  0  # atno 8009 bound_to 7997
  156.2073  140.3009  155.9663 H   0  0  0  0  0  0  0  0  0  0  0  0  # atno 8010 bound_to 7997
  139.6066  144.0901  152.1799 H   0  0  0  0  0  0  0  0  0  0  0  0  # atno 10167 bound_to 10162
  157.6731  130.9850  150.1729 H   0  0  0  0  0  0  0  0  0  0  0  0  # atno 10718 bound_to 10713
  153.9314  135.2989  155.3445 H   0  0  0  0  0  0  0  0  0  0  0  0  # atno 10763 bound_to 10752
  154.7524  135.4973  153.9317 H   0  0  0  0  0  0  0  0  0  0  0  0  # atno 10764 bound_to 10752
  153.1089  135.6754  153.9640 H   0  0  0  0  0  0  0  0  0  0  0  0  # atno 10765 bound_to 10752
  140.7314  134.3617  157.5166 H   0  0  0  0  0  0  0  0  0  0  0  0  # atno 11005 bound_to 11000
  146.2963  139.7289  142.9124 LP  0  0  0  0  0  0  0  0  0  0  0  0  # atno 17320 bound_to 7965
  145.4040  141.0388  143.3054 LP  0  0  0  0  0  0  0  0  0  0  0  0  # atno 17321 bound_to 7965
  140.0509  144.5933  150.7336 LP  0  0  0  0  0  0  0  0  0  0  0  0  # atno 17342 bound_to 10162
  140.7289  143.2667  151.4023 LP  0  0  0  0  0  0  0  0  0  0  0  0  # atno 17343 bound_to 10162
  156.2479  130.3697  149.8264 LP  0  0  0  0  0  0  0  0  0  0  0  0  # atno 17370 bound_to 10713
  156.6046  130.8561  151.3440 LP  0  0  0  0  0  0  0  0  0  0  0  0  # atno 17371 bound_to 10713
  139.8825  134.9020  156.2824 LP  0  0  0  0  0  0  0  0  0  0  0  0  # atno 17394 bound_to 11000
  140.9918  133.7204  156.0825 LP  0  0  0  0  0  0  0  0  0  0  0  0  # atno 17395 bound_to 11000

$$$$
