AV-unprocessed.smi:322|AV-procd|sdf|2336|dock1
  -GOLD-   2262022243D 1   1.00000     0.00000
 Structure written by MMmdl.
 43 45  0  0  0  0  0  0  0  0  1 V2000
  153.2265  138.9081  155.6905 O   0  0  0  0  0  0  0  0  0  0  0  0
  152.4830  138.5806  156.8471 C   0  0  0  0  0  0  0  0  0  0  0  0
  152.4339  139.6807  157.8695 C   0  0  0  0  0  0  0  0  0  0  0  0
  152.9800  139.5686  159.0827 N   0  0  0  0  0  0  0  0  0  0  0  0
  152.7102  140.7956  159.6559 C   0  0  0  0  0  0  0  0  0  0  0  0
  153.0271  141.3012  160.9370 C   0  0  0  0  0  0  0  0  0  0  0  0
  152.6409  142.6069  161.3046 C   0  0  0  0  0  0  0  0  0  0  0  0
  151.9344  143.4241  160.3987 C   0  0  0  0  0  0  0  0  0  0  0  0
  151.6092  142.9399  159.1172 C   0  0  0  0  0  0  0  0  0  0  0  0
  151.9968  141.6356  158.7553 C   0  0  0  0  0  0  0  0  0  0  0  0
  151.8379  140.8705  157.6039 N   0  0  0  0  0  0  0  0  0  0  0  0
  151.1706  141.2876  156.3783 C   0  0  0  0  0  0  0  0  0  0  0  0
  149.6452  141.4394  156.5544 C   0  0  1  0  0  0  0  0  0  0  0  0
  149.3077  142.6858  157.1300 O   0  0  0  0  0  0  0  0  0  0  0  0
  148.8563  141.2578  155.2475 C   0  0  0  0  0  0  0  0  0  0  0  0
  147.5681  141.8385  155.3746 O   0  0  0  0  0  0  0  0  0  0  0  0
  146.9800  142.1661  154.1266 C   0  0  0  0  0  0  0  0  0  0  0  0
  145.8467  143.1637  154.2755 C   0  0  0  0  0  0  0  0  0  0  0  0
  144.9755  143.0982  155.3845 C   0  0  0  0  0  0  0  0  0  0  0  0
  143.9345  144.0367  155.5244 C   0  0  0  0  0  0  0  0  0  0  0  0
  143.7639  145.0490  154.5601 C   0  0  0  0  0  0  0  0  0  0  0  0
  142.4883  146.1981  154.7308 Cl  0  0  0  0  0  0  0  0  0  0  0  0
  144.6372  145.1241  153.4576 C   0  0  0  0  0  0  0  0  0  0  0  0
  145.6785  144.1858  153.3177 C   0  0  0  0  0  0  0  0  0  0  0  0
  152.7241  138.6611  154.9293 H   0  0  0  0  0  0  0  0  0  0  0  0
  151.4640  138.3294  156.5516 H   0  0  0  0  0  0  0  0  0  0  0  0
  152.9245  137.6870  157.2869 H   0  0  0  0  0  0  0  0  0  0  0  0
  153.5681  140.6830  161.6378 H   0  0  0  0  0  0  0  0  0  0  0  0
  152.8876  142.9830  162.2867 H   0  0  0  0  0  0  0  0  0  0  0  0
  151.6418  144.4228  160.6880 H   0  0  0  0  0  0  0  0  0  0  0  0
  151.0658  143.5624  158.4217 H   0  0  0  0  0  0  0  0  0  0  0  0
  151.6135  142.2300  156.0533 H   0  0  0  0  0  0  0  0  0  0  0  0
  151.3918  140.5662  155.5912 H   0  0  0  0  0  0  0  0  0  0  0  0
  149.2959  140.6833  157.2576 H   0  0  0  0  0  0  0  0  0  0  0  0
  149.3013  143.3395  156.4472 H   0  0  0  0  0  0  0  0  0  0  0  0
  149.3896  141.7563  154.4366 H   0  0  0  0  0  0  0  0  0  0  0  0
  148.7831  140.2016  154.9824 H   0  0  0  0  0  0  0  0  0  0  0  0
  147.7306  142.5957  153.4618 H   0  0  0  0  0  0  0  0  0  0  0  0
  146.6021  141.2592  153.6515 H   0  0  0  0  0  0  0  0  0  0  0  0
  145.1010  142.3288  156.1324 H   0  0  0  0  0  0  0  0  0  0  0  0
  143.2692  143.9799  156.3733 H   0  0  0  0  0  0  0  0  0  0  0  0
  144.5111  145.9019  152.7189 H   0  0  0  0  0  0  0  0  0  0  0  0
  146.3465  144.2527  152.4715 H   0  0  0  0  0  0  0  0  0  0  0  0
  1  2  1  0  0  0  0
  1 25  1  0  0  0  0
  2  3  1  0  0  0  0
  2 26  1  0  0  0  0
  2 27  1  0  0  0  0
  3 11  1  0  0  0  0
  3  4  2  0  0  0  0
  4  5  1  0  0  0  0
  5 10  2  0  0  0  0
  5  6  1  0  0  0  0
  6  7  2  0  0  0  0
  6 28  1  0  0  0  0
  7  8  1  0  0  0  0
  7 29  1  0  0  0  0
  8  9  2  0  0  0  0
  8 30  1  0  0  0  0
  9 10  1  0  0  0  0
  9 31  1  0  0  0  0
 10 11  1  0  0  0  0
 11 12  1  0  0  0  0
 12 13  1  0  0  0  0
 12 32  1  0  0  0  0
 12 33  1  0  0  0  0
 13 14  1  0  0  0  0
 13 15  1  0  0  0  0
 13 34  1  0  0  0  0
 14 35  1  0  0  0  0
 15 16  1  0  0  0  0
 15 36  1  0  0  0  0
 15 37  1  0  0  0  0
 16 17  1  0  0  0  0
 17 18  1  0  0  0  0
 17 38  1  0  0  0  0
 17 39  1  0  0  0  0
 18 24  1  0  0  0  0
 18 19  2  0  0  0  0
 19 20  1  0  0  0  0
 19 40  1  0  0  0  0
 20 21  2  0  0  0  0
 20 41  1  0  0  0  0
 21 22  1  0  0  0  0
 21 23  1  0  0  0  0
 23 24  2  0  0  0  0
 23 42  1  0  0  0  0
 24 43  1  0  0  0  0
M  END
> <s_m_source_file>
AV-unprocessed.smi

> <i_m_source_file_index>
322

> <i_lp_mmshare_version>
43012

> <i_f3d_flags>
0

> <s_epik_input>
W2NIXTFbY0hdW2NIXVtjSF1jKGMxMiluKGMobjIpW0NIMl1bT0hdKVtDSDJdW0NASF0oW09IXSlbQ0gyXU9bQ0gyXWMzW2NIXVtjSF1jKENsKVtjSF1bY0hdMw==

> <s_epik_cmdline>
J2VwaWtfcHl0aG9uJywgJy1waCcsICc3LjAnLCAnLXRuJywgJzgnLCAnLW1hJywgJzIwMCcsICctbWV0YWxfYmluZGluZycsICctaW1hZScsICc8aW5maWxlLm1hZT4nLCAnLW9tYWUnLCAnPG91dGZpbGUubWFlPic=

> <r_epik_Ionization_Penalty>
0.0649918

> <r_epik_Ionization_Penalty_Charging>
0

> <r_epik_Ionization_Penalty_Neutral>
0.0649918

> <r_epik_State_Penalty>
0.0565791

> <r_epik_Charging_Adjusted_Penalty>
0.0565791

> <i_epik_Tot_Q>
0

> <i_epik_Tot_abs_Q>
0

> <r_epik_Metal_State_Penalty>
5.93658e-05

> <b_epik_Metal_Only>
0

> <s_lp_Force_Field>
OPLS_2005

> <r_lp_Energy>
15.9671

> <b_lp_Chiralities_Consistent>
1

> <s_lp_Variant>
AV-unprocessed.smi:322-2

> <Gold.Version>
5.8.1

> <Gold.Id.Protein>
6NUR|6NUR_protein|mol2

> <Gold.PLP.Fitness>
56.7791

> <Gold.PLP.PLP>
-52.8325

> <Gold.PLP.part.hbond>
-1.4983

> <Gold.PLP.part.metal>
0.0000

> <Gold.PLP.part.buried>
-7.1291

> <Gold.PLP.part.nonpolar>
-44.3502

> <Gold.PLP.part.repulsive>
0.1259

> <Gold.PLP.ligand.clash>
0.0000

> <Gold.PLP.ligand.torsion>
1.0876

> <Gold.PLP.Chemscore.Hbond>
1.9440

> <Gold.PLP.Chemscore.CHOScore>
0.0000

> <Gold.PLP.Chemscore.Metal>
0.0000

> <Gold.Chemscore.Hbonds>
donor molecule, donor type, donor heavy atom, donor atom, acceptor molecule, acceptor atom, score
      L1  H    14    35       P1  8028  1.00
      P1  H  7997  8008       L1     1  1.00

> <Gold.PLP.Chemscore.Internal.Correction>
0.2898

> <Gold.Rescore>
     Score         DG    S(hbond)    S(metal)    S(lipo)     H(rot)  DE(clash)    DE(int)     intcor
     18.42     -19.69       1.86        0.00     137.00       3.13       0.07       1.20       ----

> <Gold.Chemscore.Fitness>
18.4243

> <Gold.Chemscore.DG>
-19.6892

> <Gold.Chemscore.ZeroCoef>
-5.4800

> <Gold.Chemscore.Hbond>
1.8570

> <Gold.Chemscore.Metal>
0.0000

> <Gold.Chemscore.Lipo>
137.0017

> <Gold.Chemscore.Internal_Hbond>
0.0000

> <Gold.Chemscore.DEClash>
0.0659

> <Gold.Chemscore.DEInternal>
1.1990

> <Gold.Chemscore.Rot>
3.1337

> <Gold.Chemscore.Internal.Correction>
   9.000000E+99

> <Gold.Chemscore.Hbonds>
donor molecule, donor type, donor heavy atom, donor atom, acceptor molecule, acceptor atom, score
      L1  H    14    35       P1  8028  0.99
      P1  H  7997  8008       L1     1  0.59

> <Gold.Chemscore.Hbond.Weighted>
-6.2023

> <Gold.Chemscore.Metal.Weighted>
-0.0000

> <Gold.Chemscore.Lipo.Weighted>
-16.0292

> <Gold.Chemscore.Internal_Hbond.Weighted>
0.0000

> <Gold.Chemscore.DEClash.Weighted>
0.0659

> <Gold.Chemscore.DEInternal.Weighted>
1.1990

> <Gold.Chemscore.Rot.Weighted>
8.0224

> <Gold.Chemscore.Internal.Correction.Weighted>
   9.000000E+99

> <Gold.Protein.RotatedTorsions>
[ 6907 6896 6895 6894 ] final  -24.94 input  -60.11 | X-H torsion
[ 7974 7965 7964 7962 ] final  -84.38 input  175.53 | X-H torsion
[ 8008 7997 7996 7995 ] final  -31.45 input   59.86 | X-H torsion
[ 10167 10162 10161 10158 ] final   55.73 input  -65.29 | X-H torsion
[ 10718 10713 10712 10709 ] final -133.26 input   66.30 | X-H torsion
[ 10763 10752 10751 10750 ] final  -94.57 input  -60.55 | X-H torsion
[ 11005 11000 10999 10996 ] final   31.80 input  -57.11 | X-H torsion

> <Gold.Protein.ActiveResidues>
 VAL166  LYS551  ARG553  GLY616  TRP617  ASP618  TYR619  PRO620  LYS621  CYS622 
 ASP623  PHE694  ASN695  SER759  ASP760  ASP761  ALA762  ILE779  LEU786  VAL792 
 PHE793  MET794  SER795  GLU796  ALA797  LYS798  CYS799  TRP800  GLU811  SER814 

> <Gold.Protein.RotatedAtoms>
  151.1822  135.0366  159.8797 H   0  0  0  0  0  0  0  0  0  0  0  0  # atno 6907 bound_to 6896
  152.5444  134.1050  159.8344 H   0  0  0  0  0  0  0  0  0  0  0  0  # atno 6908 bound_to 6896
  151.1168  133.5086  159.2636 H   0  0  0  0  0  0  0  0  0  0  0  0  # atno 6909 bound_to 6896
  145.5073  140.9542  143.1726 H   0  0  0  0  0  0  0  0  0  0  0  0  # atno 7974 bound_to 7965
  154.4213  140.1764  156.1569 H   0  0  0  0  0  0  0  0  0  0  0  0  # atno 8008 bound_to 7997
  155.9870  140.3372  155.6692 H   0  0  0  0  0  0  0  0  0  0  0  0  # atno 8009 bound_to 7997
  155.6424  140.0681  157.2605 H   0  0  0  0  0  0  0  0  0  0  0  0  # atno 8010 bound_to 7997
  140.2163  144.3836  150.6468 H   0  0  0  0  0  0  0  0  0  0  0  0  # atno 10167 bound_to 10162
  156.2431  130.7108  151.0977 H   0  0  0  0  0  0  0  0  0  0  0  0  # atno 10718 bound_to 10713
  154.7068  135.5152  153.8606 H   0  0  0  0  0  0  0  0  0  0  0  0  # atno 10763 bound_to 10752
  153.0747  135.6612  154.0179 H   0  0  0  0  0  0  0  0  0  0  0  0  # atno 10764 bound_to 10752
  154.0029  135.3009  155.3380 H   0  0  0  0  0  0  0  0  0  0  0  0  # atno 10765 bound_to 10752
  140.2801  134.2983  155.7803 H   0  0  0  0  0  0  0  0  0  0  0  0  # atno 11005 bound_to 11000
  144.7747  139.6657  143.7180 LP  0  0  0  0  0  0  0  0  0  0  0  0  # atno 17320 bound_to 7965
  146.2188  139.5598  142.9632 LP  0  0  0  0  0  0  0  0  0  0  0  0  # atno 17321 bound_to 7965
  140.6287  143.2184  151.6541 LP  0  0  0  0  0  0  0  0  0  0  0  0  # atno 17342 bound_to 10162
  139.5161  144.3358  152.0785 LP  0  0  0  0  0  0  0  0  0  0  0  0  # atno 17343 bound_to 10162
  157.7184  131.0696  150.6237 LP  0  0  0  0  0  0  0  0  0  0  0  0  # atno 17370 bound_to 10713
  156.6311  130.4432  149.5786 LP  0  0  0  0  0  0  0  0  0  0  0  0  # atno 17371 bound_to 10713
  141.2164  133.7520  156.9467 LP  0  0  0  0  0  0  0  0  0  0  0  0  # atno 17394 bound_to 11000
  140.1292  134.9367  157.2312 LP  0  0  0  0  0  0  0  0  0  0  0  0  # atno 17395 bound_to 11000

$$$$
