AV-unprocessed.smi:2723|AV-procd|sdf|10506|dock4
  -GOLD-   2272014553D 1   1.00000     0.00000
 Structure written by MMmdl.
 35 36  0  0  0  0  0  0  0  0  1 V2000
  149.1293  133.2278  153.0810 C   0  0  0  0  0  0  0  0  0  0  0  0
  150.3074  133.3831  154.0486 C   0  0  0  0  0  0  0  0  0  0  0  0
  150.0984  134.5312  155.0495 C   0  0  0  0  0  0  0  0  0  0  0  0
  150.3143  135.8316  154.4264 N   0  0  0  0  0  0  0  0  0  0  0  0
  151.2416  136.7250  154.8067 C   0  0  0  0  0  0  0  0  0  0  0  0
  152.0118  136.5429  155.7496 O   0  0  0  0  0  0  0  0  0  0  0  0
  151.3113  138.0258  154.0041 C   0  0  0  0  0  0  0  0  0  0  0  0
  150.9086  139.1937  154.8583 C   0  0  0  0  0  0  0  0  0  0  0  0
  149.8559  140.0501  154.6431 C   0  0  0  0  0  0  0  0  0  0  0  0
  149.7414  141.2700  155.8812 S   0  0  0  0  0  0  0  0  0  0  0  0
  151.1613  140.5648  156.6599 C   0  0  0  0  0  0  0  0  0  0  0  0
  151.7907  141.0303  157.8526 N   0  0  0  0  0  0  0  0  0  0  0  0
  151.3153  142.2160  158.5595 C   0  0  0  0  0  0  0  0  0  0  0  0
  152.0804  142.2489  159.8868 C   0  0  0  0  0  0  0  0  0  0  0  0
  153.2459  141.2786  159.7051 C   0  0  0  0  0  0  0  0  0  0  0  0
  152.8681  140.4981  158.4568 C   0  0  0  0  0  0  0  0  0  0  0  0
  153.5129  139.5154  158.0938 O   0  0  0  0  0  0  0  0  0  0  0  0
  151.6446  139.5021  156.0075 N   0  0  0  0  0  0  0  0  0  0  0  0
  149.3061  132.4100  152.3820 H   0  0  0  0  0  0  0  0  0  0  0  0
  148.9751  134.1365  152.4984 H   0  0  0  0  0  0  0  0  0  0  0  0
  148.2053  133.0120  153.6182 H   0  0  0  0  0  0  0  0  0  0  0  0
  150.4524  132.4444  154.5846 H   0  0  0  0  0  0  0  0  0  0  0  0
  151.2207  133.5560  153.4778 H   0  0  0  0  0  0  0  0  0  0  0  0
  149.0785  134.5069  155.4339 H   0  0  0  0  0  0  0  0  0  0  0  0
  150.7576  134.4138  155.9114 H   0  0  0  0  0  0  0  0  0  0  0  0
  149.7251  136.0654  153.6404 H   0  0  0  0  0  0  0  0  0  0  0  0
  152.3238  138.1509  153.6172 H   0  0  0  0  0  0  0  0  0  0  0  0
  150.6579  137.9493  153.1342 H   0  0  0  0  0  0  0  0  0  0  0  0
  149.1399  140.0329  153.8348 H   0  0  0  0  0  0  0  0  0  0  0  0
  151.5373  143.1019  157.9627 H   0  0  0  0  0  0  0  0  0  0  0  0
  150.2374  142.1802  158.7259 H   0  0  0  0  0  0  0  0  0  0  0  0
  152.4179  143.2555  160.1355 H   0  0  0  0  0  0  0  0  0  0  0  0
  151.4371  141.9066  160.6988 H   0  0  0  0  0  0  0  0  0  0  0  0
  154.1821  141.8099  159.5297 H   0  0  0  0  0  0  0  0  0  0  0  0
  153.3725  140.6203  160.5651 H   0  0  0  0  0  0  0  0  0  0  0  0
  1  2  1  0  0  0  0
  1 19  1  0  0  0  0
  1 20  1  0  0  0  0
  1 21  1  0  0  0  0
  2  3  1  0  0  0  0
  2 22  1  0  0  0  0
  2 23  1  0  0  0  0
  3  4  1  0  0  0  0
  3 24  1  0  0  0  0
  3 25  1  0  0  0  0
  4  5  1  0  0  0  0
  4 26  1  0  0  0  0
  5  6  2  0  0  0  0
  5  7  1  0  0  0  0
  7  8  1  0  0  0  0
  7 27  1  0  0  0  0
  7 28  1  0  0  0  0
  8 18  1  0  0  0  0
  8  9  2  0  0  0  0
  9 10  1  0  0  0  0
  9 29  1  0  0  0  0
 10 11  1  0  0  0  0
 11 12  1  0  0  0  0
 11 18  2  0  0  0  0
 12 16  1  0  0  0  0
 12 13  1  0  0  0  0
 13 14  1  0  0  0  0
 13 30  1  0  0  0  0
 13 31  1  0  0  0  0
 14 15  1  0  0  0  0
 14 32  1  0  0  0  0
 14 33  1  0  0  0  0
 15 16  1  0  0  0  0
 15 34  1  0  0  0  0
 15 35  1  0  0  0  0
 16 17  2  0  0  0  0
M  END
> <s_m_source_file>
AV-unprocessed.smi

> <i_m_source_file_index>
2723

> <i_lp_mmshare_version>
43012

> <i_f3d_flags>
0

> <s_epik_input>
W0NIM11bQ0gyXVtDSDJdW05IXUMoPU8pW0NIMl1jMVtjSF1zYyhuMSlOMltDSDJdW0NIMl1bQ0gyXUMyPU8=

> <s_epik_cmdline>
J2VwaWtfcHl0aG9uJywgJy1waCcsICc3LjAnLCAnLXRuJywgJzgnLCAnLW1hJywgJzIwMCcsICctbWV0YWxfYmluZGluZycsICctaW1hZScsICc8aW5maWxlLm1hZT4nLCAnLW9tYWUnLCAnPG91dGZpbGUubWFlPic=

> <r_lp_tautomer_probability>
1

> <r_epik_Ionization_Penalty>
2.96769e-05

> <r_epik_Ionization_Penalty_Charging>
0

> <r_epik_Ionization_Penalty_Neutral>
2.96769e-05

> <r_epik_State_Penalty>
-0

> <r_epik_Charging_Adjusted_Penalty>
0

> <i_epik_Tot_Q>
0

> <i_epik_Tot_abs_Q>
0

> <r_epik_Metal_State_Penalty>
-0

> <b_epik_Metal_Only>
0

> <s_lp_Force_Field>
OPLS_2005

> <r_lp_Energy>
15.8709

> <b_lp_Chiralities_Consistent>
1

> <s_lp_Variant>
AV-unprocessed.smi:2723-1

> <Gold.Version>
5.8.1

> <Gold.Id.Protein>
6NUR|6NUR_protein|mol2

> <Gold.PLP.Fitness>
48.6441

> <Gold.PLP.PLP>
-36.7907

> <Gold.PLP.part.hbond>
-3.1638

> <Gold.PLP.part.metal>
0.0000

> <Gold.PLP.part.buried>
-1.1060

> <Gold.PLP.part.nonpolar>
-31.8291

> <Gold.PLP.part.repulsive>
0.0829

> <Gold.PLP.ligand.clash>
0.0000

> <Gold.PLP.ligand.torsion>
0.1024

> <Gold.PLP.Chemscore.Hbond>
3.0000

> <Gold.PLP.Chemscore.CHOScore>
1.0000

> <Gold.PLP.Chemscore.Metal>
0.0000

> <Gold.Chemscore.Hbonds>
donor molecule, donor type, donor heavy atom, donor atom, acceptor molecule, acceptor atom, score
      L1  H     4    26       P1  7948  1.00
      P1  H  7997  8009       L1    17  1.00
      P1  H 10752 10765       L1     6  0.93
      L1  C     9    29       P1  7957  0.52

> <Gold.PLP.Chemscore.Internal.Correction>
0.0583

> <Gold.Rescore>
     Score         DG    S(hbond)    S(metal)    S(lipo)     H(rot)  DE(clash)    DE(int)     intcor
     16.39     -18.07       2.49        0.00      72.52       1.64       0.03       1.65       ----

> <Gold.Chemscore.Fitness>
16.3877

> <Gold.Chemscore.DG>
-18.0706

> <Gold.Chemscore.ZeroCoef>
-5.4800

> <Gold.Chemscore.Hbond>
2.4896

> <Gold.Chemscore.Metal>
0.0000

> <Gold.Chemscore.Lipo>
72.5200

> <Gold.Chemscore.Internal_Hbond>
0.0000

> <Gold.Chemscore.DEClash>
0.0343

> <Gold.Chemscore.DEInternal>
1.6486

> <Gold.Chemscore.Rot>
1.6444

> <Gold.Chemscore.Internal.Correction>
   9.000000E+99

> <Gold.Chemscore.Hbonds>
donor molecule, donor type, donor heavy atom, donor atom, acceptor molecule, acceptor atom, score
      L1  H     4    26       P1  7948  0.25
      P1  H  7997  8009       L1    17  0.68
      P1  H 10752 10765       L1     6  0.49

> <Gold.Chemscore.Hbond.Weighted>
-8.3153

> <Gold.Chemscore.Metal.Weighted>
-0.0000

> <Gold.Chemscore.Lipo.Weighted>
-8.4848

> <Gold.Chemscore.Internal_Hbond.Weighted>
0.0000

> <Gold.Chemscore.DEClash.Weighted>
0.0343

> <Gold.Chemscore.DEInternal.Weighted>
1.6486

> <Gold.Chemscore.Rot.Weighted>
4.2096

> <Gold.Chemscore.Internal.Correction.Weighted>
   9.000000E+99

> <Gold.Protein.RotatedTorsions>
[ 6907 6896 6895 6894 ] final -135.59 input  -60.11 | X-H torsion
[ 7974 7965 7964 7962 ] final -158.04 input  175.53 | X-H torsion
[ 8008 7997 7996 7995 ] final  135.92 input   59.86 | X-H torsion
[ 10167 10162 10161 10158 ] final  -31.78 input  -65.29 | X-H torsion
[ 10718 10713 10712 10709 ] final  -30.56 input   66.30 | X-H torsion
[ 10763 10752 10751 10750 ] final -140.35 input  -60.55 | X-H torsion
[ 11005 11000 10999 10996 ] final  -52.01 input  -57.11 | X-H torsion

> <Gold.Protein.ActiveResidues>
 VAL166  LYS551  ARG553  GLY616  TRP617  ASP618  TYR619  PRO620  LYS621  CYS622 
 ASP623  PHE694  ASN695  SER759  ASP760  ASP761  ALA762  ILE779  LEU786  VAL792 
 PHE793  MET794  SER795  GLU796  ALA797  LYS798  CYS799  TRP800  GLU811  SER814 

> <Gold.Protein.RotatedAtoms>
  150.9998  133.6068  159.2696 H   0  0  0  0  0  0  0  0  0  0  0  0  # atno 6907 bound_to 6896
  151.3258  135.0829  159.9331 H   0  0  0  0  0  0  0  0  0  0  0  0  # atno 6908 bound_to 6896
  152.5270  133.9636  159.7783 H   0  0  0  0  0  0  0  0  0  0  0  0  # atno 6909 bound_to 6896
  144.7522  140.3883  143.6039 H   0  0  0  0  0  0  0  0  0  0  0  0  # atno 7974 bound_to 7965
  156.3004  140.2458  156.3660 H   0  0  0  0  0  0  0  0  0  0  0  0  # atno 8008 bound_to 7997
  154.8832  140.0412  157.1814 H   0  0  0  0  0  0  0  0  0  0  0  0  # atno 8009 bound_to 7997
  154.8674  140.2930  155.5506 H   0  0  0  0  0  0  0  0  0  0  0  0  # atno 8010 bound_to 7997
  140.7231  143.3744  151.1716 H   0  0  0  0  0  0  0  0  0  0  0  0  # atno 10167 bound_to 10162
  156.3982  130.4385  149.7342 H   0  0  0  0  0  0  0  0  0  0  0  0  # atno 10718 bound_to 10713
  154.8581  135.3556  154.5693 H   0  0  0  0  0  0  0  0  0  0  0  0  # atno 10763 bound_to 10752
  153.6306  135.7002  153.5281 H   0  0  0  0  0  0  0  0  0  0  0  0  # atno 10764 bound_to 10752
  153.3053  135.4194  155.1248 H   0  0  0  0  0  0  0  0  0  0  0  0  # atno 10765 bound_to 10752
  141.0902  133.6634  156.3962 H   0  0  0  0  0  0  0  0  0  0  0  0  # atno 11005 bound_to 11000
  145.6903  139.1637  143.2650 LP  0  0  0  0  0  0  0  0  0  0  0  0  # atno 17320 bound_to 7965
  146.1487  140.6955  142.9332 LP  0  0  0  0  0  0  0  0  0  0  0  0  # atno 17321 bound_to 7965
  139.7322  143.9055  152.3023 LP  0  0  0  0  0  0  0  0  0  0  0  0  # atno 17342 bound_to 10162
  139.8848  144.6998  150.8837 LP  0  0  0  0  0  0  0  0  0  0  0  0  # atno 17343 bound_to 10162
  156.4369  130.7842  151.2863 LP  0  0  0  0  0  0  0  0  0  0  0  0  # atno 17370 bound_to 10713
  157.7502  131.0137  150.3434 LP  0  0  0  0  0  0  0  0  0  0  0  0  # atno 17371 bound_to 10713
  140.5270  134.6249  157.5337 LP  0  0  0  0  0  0  0  0  0  0  0  0  # atno 17394 bound_to 11000
  139.9726  134.7267  156.0011 LP  0  0  0  0  0  0  0  0  0  0  0  0  # atno 17395 bound_to 11000

$$$$
