AV-unprocessed.smi:1672|AV-procd|sdf|6701|dock6
  -GOLD-   22720 7433D 1   1.00000     0.00000
 Structure written by MMmdl.
 48 50  0  0  0  0  0  0  0  0  2 V2000
  151.6195  140.7056  155.5525 C   0  0  0  0  0  0  0  0  0  0  0  0
  150.1861  140.2732  155.2138 C   0  0  2  0  0  0  0  0  0  0  0  0
  150.1665  139.0496  154.2826 C   0  0  0  0  0  0  0  0  0  0  0  0
  148.7271  138.6425  153.9282 C   0  0  0  0  0  0  0  0  0  0  0  0
  147.9869  139.7735  153.3077 N   0  3  1  0  0  0  0  0  0  0  0  0
  146.6340  139.3909  152.8295 C   0  0  0  0  0  0  0  0  0  0  0  0
  146.6327  138.0154  152.1259 C   0  0  2  0  0  0  0  0  0  0  0  0
  146.3854  138.2096  150.7483 O   0  0  0  0  0  0  0  0  0  0  0  0
  145.5685  137.0357  152.6615 C   0  0  0  0  0  0  0  0  0  0  0  0
  145.9703  135.6381  152.5632 N   0  0  0  0  0  0  0  0  0  0  0  0
  146.8781  134.9641  153.3160 C   0  0  0  0  0  0  0  0  0  0  0  0
  147.6385  135.6025  154.4383 C   0  0  0  0  0  0  0  0  0  0  0  0
  149.0333  135.5928  154.2212 O   0  0  0  0  0  0  0  0  0  0  0  0
  147.0476  133.6788  153.0055 N   0  0  0  0  0  0  0  0  0  0  0  0
  146.1747  133.5005  151.9512 C   0  0  0  0  0  0  0  0  0  0  0  0
  145.8892  132.3508  151.1809 C   0  0  0  0  0  0  0  0  0  0  0  0
  144.9407  132.4073  150.1390 C   0  0  0  0  0  0  0  0  0  0  0  0
  144.2649  133.6112  149.8539 C   0  0  0  0  0  0  0  0  0  0  0  0
  144.5343  134.7685  150.6097 C   0  0  0  0  0  0  0  0  0  0  0  0
  145.4840  134.7078  151.6478 C   0  0  0  0  0  0  0  0  0  0  0  0
  147.9592  140.9599  154.2007 C   0  0  0  0  0  0  0  0  0  0  0  0
  149.3829  141.4141  154.5663 C   0  0  0  0  0  0  0  0  0  0  0  0
  152.1666  141.0047  154.6579 H   0  0  0  0  0  0  0  0  0  0  0  0
  152.1732  139.8938  156.0255 H   0  0  0  0  0  0  0  0  0  0  0  0
  151.6219  141.5503  156.2421 H   0  0  0  0  0  0  0  0  0  0  0  0
  149.6935  139.9975  156.1476 H   0  0  0  0  0  0  0  0  0  0  0  0
  150.7189  139.2694  153.3676 H   0  0  0  0  0  0  0  0  0  0  0  0
  150.6772  138.2110  154.7571 H   0  0  0  0  0  0  0  0  0  0  0  0
  148.7583  137.7894  153.2516 H   0  0  0  0  0  0  0  0  0  0  0  0
  148.2018  138.3109  154.8254 H   0  0  0  0  0  0  0  0  0  0  0  0
  145.9533  139.4044  153.6814 H   0  0  0  0  0  0  0  0  0  0  0  0
  146.2537  140.1374  152.1303 H   0  0  0  0  0  0  0  0  0  0  0  0
  147.6100  137.5464  152.2158 H   0  0  0  0  0  0  0  0  0  0  0  0
  145.4511  138.2565  150.6115 H   0  0  0  0  0  0  0  0  0  0  0  0
  145.3570  137.2570  153.7081 H   0  0  0  0  0  0  0  0  0  0  0  0
  144.6225  137.1690  152.1360 H   0  0  0  0  0  0  0  0  0  0  0  0
  147.3123  136.6379  154.5421 H   0  0  0  0  0  0  0  0  0  0  0  0
  147.4151  135.1121  155.3847 H   0  0  0  0  0  0  0  0  0  0  0  0
  149.1980  135.8544  153.3280 H   0  0  0  0  0  0  0  0  0  0  0  0
  146.4012  131.4236  151.3917 H   0  0  0  0  0  0  0  0  0  0  0  0
  144.7313  131.5225  149.5557 H   0  0  0  0  0  0  0  0  0  0  0  0
  143.5401  133.6455  149.0535 H   0  0  0  0  0  0  0  0  0  0  0  0
  144.0158  135.6897  150.3900 H   0  0  0  0  0  0  0  0  0  0  0  0
  147.4401  141.7813  153.7050 H   0  0  0  0  0  0  0  0  0  0  0  0
  147.3936  140.7246  155.1035 H   0  0  0  0  0  0  0  0  0  0  0  0
  149.3327  142.2673  155.2439 H   0  0  0  0  0  0  0  0  0  0  0  0
  149.8949  141.7635  153.6685 H   0  0  0  0  0  0  0  0  0  0  0  0
  148.5057  140.0523  152.4867 H   0  0  0  0  0  0  0  0  0  0  0  0
  1  2  1  0  0  0  0
  1 23  1  0  0  0  0
  1 24  1  0  0  0  0
  1 25  1  0  0  0  0
  2 22  1  0  0  0  0
  2  3  1  0  0  0  0
  2 26  1  0  0  0  0
  3  4  1  0  0  0  0
  3 27  1  0  0  0  0
  3 28  1  0  0  0  0
  4  5  1  0  0  0  0
  4 29  1  0  0  0  0
  4 30  1  0  0  0  0
  5  6  1  0  0  0  0
  5 21  1  0  0  0  0
  5 48  1  0  0  0  0
  6  7  1  0  0  0  0
  6 31  1  0  0  0  0
  6 32  1  0  0  0  0
  7  8  1  0  0  0  0
  7  9  1  0  0  0  0
  7 33  1  0  0  0  0
  8 34  1  0  0  0  0
  9 10  1  0  0  0  0
  9 35  1  0  0  0  0
  9 36  1  0  0  0  0
 10 20  1  0  0  0  0
 10 11  1  0  0  0  0
 11 12  1  0  0  0  0
 11 14  2  0  0  0  0
 12 13  1  0  0  0  0
 12 37  1  0  0  0  0
 12 38  1  0  0  0  0
 13 39  1  0  0  0  0
 14 15  1  0  0  0  0
 15 20  2  0  0  0  0
 15 16  1  0  0  0  0
 16 17  2  0  0  0  0
 16 40  1  0  0  0  0
 17 18  1  0  0  0  0
 17 41  1  0  0  0  0
 18 19  2  0  0  0  0
 18 42  1  0  0  0  0
 19 20  1  0  0  0  0
 19 43  1  0  0  0  0
 21 22  1  0  0  0  0
 21 44  1  0  0  0  0
 21 45  1  0  0  0  0
 22 46  1  0  0  0  0
 22 47  1  0  0  0  0
M  CHG  1   5   1
M  END
> <s_m_source_file>
AV-unprocessed.smi

> <i_m_source_file_index>
1672

> <i_lp_mmshare_version>
43012

> <i_f3d_flags>
0

> <s_epik_input>
W0NIM11bQ0hdMVtDSDJdW0NIMl1OKFtDSDJdW0NIMl0xKVtDSDJdW0NASF0oW09IXSlbQ0gyXW4oYyhuMilbQ0gyXVtPSF0pYyhjMjMpW2NIXVtjSF1bY0hdW2NIXTM=

> <s_epik_cmdline>
J2VwaWtfcHl0aG9uJywgJy1waCcsICc3LjAnLCAnLXRuJywgJzgnLCAnLW1hJywgJzIwMCcsICctbWV0YWxfYmluZGluZycsICctaW1hZScsICc8aW5maWxlLm1hZT4nLCAnLW9tYWUnLCAnPG91dGZpbGUubWFlPic=

> <r_epik_Ionization_Penalty>
0.0498263

> <r_epik_Ionization_Penalty_Charging>
0.00181365

> <r_epik_Ionization_Penalty_Neutral>
0.0480127

> <r_epik_State_Penalty>
0.0408546

> <r_epik_Charging_Adjusted_Penalty>
0.0426682

> <i_epik_Tot_Q>
1

> <i_epik_Tot_abs_Q>
1

> <r_epik_Metal_State_Penalty>
4.22946e-05

> <b_epik_Metal_Only>
0

> <s_lp_Force_Field>
OPLS_2005

> <r_lp_Energy>
22.4872

> <b_lp_Chiralities_Consistent>
1

> <s_lp_Variant>
AV-unprocessed.smi:1672-1

> <Gold.Version>
5.8.1

> <Gold.Id.Protein>
6NUR|6NUR_protein|mol2

> <Gold.PLP.Fitness>
50.3732

> <Gold.PLP.PLP>
-41.1031

> <Gold.PLP.part.hbond>
-4.6624

> <Gold.PLP.part.metal>
0.0000

> <Gold.PLP.part.buried>
0.9200

> <Gold.PLP.part.nonpolar>
-36.6395

> <Gold.PLP.part.repulsive>
0.1799

> <Gold.PLP.ligand.clash>
0.0000

> <Gold.PLP.ligand.torsion>
1.3626

> <Gold.PLP.Chemscore.Hbond>
3.9913

> <Gold.PLP.Chemscore.CHOScore>
0.0000

> <Gold.PLP.Chemscore.Metal>
0.0000

> <Gold.Chemscore.Hbonds>
donor molecule, donor type, donor heavy atom, donor atom, acceptor molecule, acceptor atom, score
      L1  H     5    48       P1  7957  1.00
      L1  H     8    34       P1 10171  1.00
      L1  H    13    39       P1  7948  0.94
      P1  H  7954  7966       L1     8  0.98

> <Gold.PLP.Chemscore.Internal.Correction>
0.0216

> <Gold.Rescore>
     Score         DG    S(hbond)    S(metal)    S(lipo)     H(rot)  DE(clash)    DE(int)     intcor
     20.12     -22.94       3.75        0.00     105.23       2.88       1.54       1.28       ----

> <Gold.Chemscore.Fitness>
20.1173

> <Gold.Chemscore.DG>
-22.9406

> <Gold.Chemscore.ZeroCoef>
-5.4800

> <Gold.Chemscore.Hbond>
3.7473

> <Gold.Chemscore.Metal>
0.0000

> <Gold.Chemscore.Lipo>
105.2284

> <Gold.Chemscore.Internal_Hbond>
0.0000

> <Gold.Chemscore.DEClash>
1.5430

> <Gold.Chemscore.DEInternal>
1.2803

> <Gold.Chemscore.Rot>
2.8778

> <Gold.Chemscore.Internal.Correction>
   9.000000E+99

> <Gold.Chemscore.Hbonds>
donor molecule, donor type, donor heavy atom, donor atom, acceptor molecule, acceptor atom, score
      L1  H     5    48       P1  7957  1.00
      L1  H     8    34       P1 10171  0.99
      L1  H    13    39       P1  7948  0.63
      P1  H  7954  7966       L1     8  0.40

> <Gold.Chemscore.Hbond.Weighted>
-12.5159

> <Gold.Chemscore.Metal.Weighted>
-0.0000

> <Gold.Chemscore.Lipo.Weighted>
-12.3117

> <Gold.Chemscore.Internal_Hbond.Weighted>
0.0000

> <Gold.Chemscore.DEClash.Weighted>
1.5430

> <Gold.Chemscore.DEInternal.Weighted>
1.2803

> <Gold.Chemscore.Rot.Weighted>
7.3671

> <Gold.Chemscore.Internal.Correction.Weighted>
   9.000000E+99

> <Gold.Protein.RotatedTorsions>
[ 6907 6896 6895 6894 ] final -118.82 input  -60.11 | X-H torsion
[ 7974 7965 7964 7962 ] final   90.95 input  175.53 | X-H torsion
[ 8008 7997 7996 7995 ] final -136.25 input   59.86 | X-H torsion
[ 10167 10162 10161 10158 ] final   60.07 input  -65.29 | X-H torsion
[ 10718 10713 10712 10709 ] final   76.65 input   66.30 | X-H torsion
[ 10763 10752 10751 10750 ] final   19.24 input  -60.55 | X-H torsion
[ 11005 11000 10999 10996 ] final  -86.98 input  -57.11 | X-H torsion

> <Gold.Protein.ActiveResidues>
 VAL166  LYS551  ARG553  GLY616  TRP617  ASP618  TYR619  PRO620  LYS621  CYS622 
 ASP623  PHE694  ASN695  SER759  ASP760  ASP761  ALA762  ILE779  LEU786  VAL792 
 PHE793  MET794  SER795  GLU796  ALA797  LYS798  CYS799  TRP800  GLU811  SER814 

> <Gold.Protein.RotatedAtoms>
  150.8252  133.8184  159.3121 H   0  0  0  0  0  0  0  0  0  0  0  0  # atno 6907 bound_to 6896
  151.5931  135.1050  160.0053 H   0  0  0  0  0  0  0  0  0  0  0  0  # atno 6908 bound_to 6896
  152.4338  133.7282  159.6629 H   0  0  0  0  0  0  0  0  0  0  0  0  # atno 6909 bound_to 6896
  145.5121  139.2277  143.2719 H   0  0  0  0  0  0  0  0  0  0  0  0  # atno 7974 bound_to 7965
  155.3922  140.0500  157.3040 H   0  0  0  0  0  0  0  0  0  0  0  0  # atno 8008 bound_to 7997
  154.5031  140.2164  155.9268 H   0  0  0  0  0  0  0  0  0  0  0  0  # atno 8009 bound_to 7997
  156.1492  140.3139  155.8625 H   0  0  0  0  0  0  0  0  0  0  0  0  # atno 8010 bound_to 7997
  140.1696  144.4290  150.6668 H   0  0  0  0  0  0  0  0  0  0  0  0  # atno 10167 bound_to 10162
  157.6681  130.9784  150.1527 H   0  0  0  0  0  0  0  0  0  0  0  0  # atno 10718 bound_to 10713
  153.1179  135.6712  153.9386 H   0  0  0  0  0  0  0  0  0  0  0  0  # atno 10763 bound_to 10752
  153.8910  135.3047  155.3448 H   0  0  0  0  0  0  0  0  0  0  0  0  # atno 10764 bound_to 10752
  154.7594  135.4996  153.9514 H   0  0  0  0  0  0  0  0  0  0  0  0  # atno 10765 bound_to 10752
  141.1623  133.7485  156.9240 H   0  0  0  0  0  0  0  0  0  0  0  0  # atno 11005 bound_to 11000
  146.2160  140.5928  142.9038 LP  0  0  0  0  0  0  0  0  0  0  0  0  # atno 17320 bound_to 7965
  144.7722  140.5661  143.6662 LP  0  0  0  0  0  0  0  0  0  0  0  0  # atno 17321 bound_to 7965
  140.6590  143.2246  151.5900 LP  0  0  0  0  0  0  0  0  0  0  0  0  # atno 17342 bound_to 10162
  139.5344  144.2824  152.1219 LP  0  0  0  0  0  0  0  0  0  0  0  0  # atno 17343 bound_to 10162
  156.2322  130.3683  149.8431 LP  0  0  0  0  0  0  0  0  0  0  0  0  # atno 17370 bound_to 10713
  156.6255  130.8644  151.3484 LP  0  0  0  0  0  0  0  0  0  0  0  0  # atno 17371 bound_to 10713
  140.1432  134.9280  157.2494 LP  0  0  0  0  0  0  0  0  0  0  0  0  # atno 17394 bound_to 11000
  140.2811  134.3348  155.7343 LP  0  0  0  0  0  0  0  0  0  0  0  0  # atno 17395 bound_to 11000

$$$$
