AV-unprocessed.smi:234|AV-procd|sdf|1790|dock8
  -GOLD-   2262020353D 1   1.00000     0.00000
 Structure written by MMmdl.
 59 62  0  0  0  0  0  0  0  0  1 V2000
  151.1460  141.7245  157.5879 C   0  0  0  0  0  0  0  0  0  0  0  0
  151.5624  140.5770  156.6653 C   0  0  0  0  0  0  0  0  0  0  0  0
  150.9590  140.7674  155.3969 O   0  0  0  0  0  0  0  0  0  0  0  0
  149.5443  140.6602  155.4358 C   0  0  1  0  0  0  0  0  0  0  0  0
  148.8342  141.1343  154.1650 C   0  0  0  0  0  0  0  0  0  0  0  0
  147.8741  139.9662  154.4051 C   0  0  1  0  0  0  0  0  0  0  0  0
  147.4081  139.3218  153.1746 N   0  0  0  0  0  0  0  0  0  0  0  0
  147.0249  140.2082  152.0833 C   0  0  0  0  0  0  0  0  0  0  0  0
  146.4824  138.3484  153.3411 C   0  0  0  0  0  0  0  0  0  0  0  0
  145.9025  138.1548  154.5556 N   0  0  0  0  0  0  0  0  0  0  0  0
  144.9900  137.1914  154.7149 C   0  0  0  0  0  0  0  0  0  0  0  0
  144.5194  136.3291  153.8110 N   0  0  0  0  0  0  0  0  0  0  0  0
  145.0951  136.5279  152.5904 C   0  0  0  0  0  0  0  0  0  0  0  0
  146.0705  137.5124  152.2698 C   0  0  0  0  0  0  0  0  0  0  0  0
  146.4208  137.4192  150.9290 N   0  0  0  0  0  0  0  0  0  0  0  0
  145.6956  136.4302  150.4820 C   0  0  0  0  0  0  0  0  0  0  0  0
  144.8768  135.8328  151.4143 N   0  0  0  0  0  0  0  0  0  0  0  0
  143.9753  134.7134  151.1947 C   0  0  0  0  0  0  0  0  0  0  0  0
  144.7049  133.3932  150.8489 C   0  0  2  0  0  0  0  0  0  0  0  0
  145.3569  133.5461  149.5977 O   0  0  0  0  0  0  0  0  0  0  0  0
  143.7865  132.1828  150.7592 C   0  0  0  0  0  0  0  0  0  0  0  0
  144.7368  131.0271  151.0453 C   0  0  0  0  0  0  0  0  0  0  0  0
  145.6180  131.5316  152.0388 O   0  0  0  0  0  0  0  0  0  0  0  0
  145.7046  132.9528  151.9433 C   0  0  1  0  0  0  0  0  0  0  0  0
  147.1644  133.3993  151.7612 C   0  0  0  0  0  0  0  0  0  0  0  0
  149.0280  139.2289  155.1465 C   0  0  0  0  0  0  0  0  0  0  0  0
  149.9691  138.3454  154.3066 C   0  0  0  0  0  0  0  0  0  0  0  0
  148.6322  138.4164  156.3793 C   0  0  0  0  0  0  0  0  0  0  0  0
  151.5881  141.6086  158.5774 H   0  0  0  0  0  0  0  0  0  0  0  0
  150.0627  141.7571  157.7066 H   0  0  0  0  0  0  0  0  0  0  0  0
  151.4689  142.6858  157.1875 H   0  0  0  0  0  0  0  0  0  0  0  0
  152.6484  140.5549  156.5649 H   0  0  0  0  0  0  0  0  0  0  0  0
  151.2505  139.6244  157.0956 H   0  0  0  0  0  0  0  0  0  0  0  0
  149.1076  141.0805  156.3453 H   0  0  0  0  0  0  0  0  0  0  0  0
  148.3785  142.1218  154.2394 H   0  0  0  0  0  0  0  0  0  0  0  0
  149.4434  141.0343  153.2650 H   0  0  0  0  0  0  0  0  0  0  0  0
  147.0680  140.2573  155.0823 H   0  0  0  0  0  0  0  0  0  0  0  0
  146.7200  139.6441  151.2008 H   0  0  0  0  0  0  0  0  0  0  0  0
  147.8620  140.8431  151.7934 H   0  0  0  0  0  0  0  0  0  0  0  0
  146.1969  140.8516  152.3828 H   0  0  0  0  0  0  0  0  0  0  0  0
  144.5796  137.0969  155.7093 H   0  0  0  0  0  0  0  0  0  0  0  0
  145.7430  136.1032  149.4535 H   0  0  0  0  0  0  0  0  0  0  0  0
  143.3614  134.5833  152.0869 H   0  0  0  0  0  0  0  0  0  0  0  0
  143.2900  134.9876  150.3916 H   0  0  0  0  0  0  0  0  0  0  0  0
  145.3837  132.7049  149.1679 H   0  0  0  0  0  0  0  0  0  0  0  0
  143.0286  132.2247  151.5426 H   0  0  0  0  0  0  0  0  0  0  0  0
  143.2734  132.0887  149.8012 H   0  0  0  0  0  0  0  0  0  0  0  0
  144.2196  130.1302  151.3863 H   0  0  0  0  0  0  0  0  0  0  0  0
  145.3131  130.7715  150.1551 H   0  0  0  0  0  0  0  0  0  0  0  0
  145.3561  133.3267  152.9069 H   0  0  0  0  0  0  0  0  0  0  0  0
  147.2355  134.4840  151.6782 H   0  0  0  0  0  0  0  0  0  0  0  0
  147.6122  132.9603  150.8694 H   0  0  0  0  0  0  0  0  0  0  0  0
  147.7697  133.0922  152.6143 H   0  0  0  0  0  0  0  0  0  0  0  0
  149.5099  137.3895  154.0538 H   0  0  0  0  0  0  0  0  0  0  0  0
  150.8909  138.1235  154.8451 H   0  0  0  0  0  0  0  0  0  0  0  0
  150.2540  138.8214  153.3684 H   0  0  0  0  0  0  0  0  0  0  0  0
  148.1730  137.4661  156.1055 H   0  0  0  0  0  0  0  0  0  0  0  0
  147.9140  138.9542  156.9986 H   0  0  0  0  0  0  0  0  0  0  0  0
  149.4979  138.1948  157.0040 H   0  0  0  0  0  0  0  0  0  0  0  0
  1  2  1  0  0  0  0
  1 29  1  0  0  0  0
  1 30  1  0  0  0  0
  1 31  1  0  0  0  0
  2  3  1  0  0  0  0
  2 32  1  0  0  0  0
  2 33  1  0  0  0  0
  3  4  1  0  0  0  0
  4 26  1  0  0  0  0
  4  5  1  0  0  0  0
  4 34  1  0  0  0  0
  5  6  1  0  0  0  0
  5 35  1  0  0  0  0
  5 36  1  0  0  0  0
  6  7  1  0  0  0  0
  6 26  1  0  0  0  0
  6 37  1  0  0  0  0
  7  8  1  0  0  0  0
  7  9  1  0  0  0  0
  8 38  1  0  0  0  0
  8 39  1  0  0  0  0
  8 40  1  0  0  0  0
  9 14  1  0  0  0  0
  9 10  2  0  0  0  0
 10 11  1  0  0  0  0
 11 12  2  0  0  0  0
 11 41  1  0  0  0  0
 12 13  1  0  0  0  0
 13 17  1  0  0  0  0
 13 14  2  0  0  0  0
 14 15  1  0  0  0  0
 15 16  2  0  0  0  0
 16 17  1  0  0  0  0
 16 42  1  0  0  0  0
 17 18  1  0  0  0  0
 18 19  1  0  0  0  0
 18 43  1  0  0  0  0
 18 44  1  0  0  0  0
 19 24  1  0  0  0  0
 19 20  1  0  0  0  0
 19 21  1  0  0  0  0
 20 45  1  0  0  0  0
 21 22  1  0  0  0  0
 21 46  1  0  0  0  0
 21 47  1  0  0  0  0
 22 23  1  0  0  0  0
 22 48  1  0  0  0  0
 22 49  1  0  0  0  0
 23 24  1  0  0  0  0
 24 25  1  0  0  0  0
 24 50  1  0  0  0  0
 25 51  1  0  0  0  0
 25 52  1  0  0  0  0
 25 53  1  0  0  0  0
 26 27  1  0  0  0  0
 26 28  1  0  0  0  0
 27 54  1  0  0  0  0
 27 55  1  0  0  0  0
 27 56  1  0  0  0  0
 28 57  1  0  0  0  0
 28 58  1  0  0  0  0
 28 59  1  0  0  0  0
M  END
> <s_m_source_file>
AV-unprocessed.smi

> <i_m_source_file_index>
234

> <i_lp_mmshare_version>
43012

> <i_f3d_flags>
0

> <s_epik_input>
W0NIM11bQ0gyXU9bQ0BASF0oQzEoW0NIM10pW0NIM10pW0NIMl1bQ0BIXTFOKFtDSDNdKWMobltjSF1uMiljKGMyMyluW2NIXW4zW0NIMl1bQ0BAXTQoW09IXSlbQ0gyXVtDSDJdT1tDQEhdNFtDSDNd

> <s_epik_cmdline>
J2VwaWtfcHl0aG9uJywgJy1waCcsICc3LjAnLCAnLXRuJywgJzgnLCAnLW1hJywgJzIwMCcsICctbWV0YWxfYmluZGluZycsICctaW1hZScsICc8aW5maWxlLm1hZT4nLCAnLW9tYWUnLCAnPG91dGZpbGUubWFlPic=

> <r_lp_tautomer_probability>
1

> <r_epik_Ionization_Penalty>
0.00349132

> <r_epik_Ionization_Penalty_Charging>
0

> <r_epik_Ionization_Penalty_Neutral>
0.00349132

> <r_epik_State_Penalty>
0.00242418

> <r_epik_Charging_Adjusted_Penalty>
0.00242418

> <i_epik_Tot_Q>
0

> <i_epik_Tot_abs_Q>
0

> <r_epik_Metal_State_Penalty>
-0

> <b_epik_Metal_Only>
0

> <s_lp_Force_Field>
OPLS_2005

> <r_lp_Energy>
47.69

> <b_lp_Chiralities_Consistent>
1

> <s_lp_Variant>
AV-unprocessed.smi:234-6

> <Gold.Version>
5.8.1

> <Gold.Id.Protein>
6NUR|6NUR_protein|mol2

> <Gold.PLP.Fitness>
45.5185

> <Gold.PLP.PLP>
-38.0332

> <Gold.PLP.part.hbond>
-2.8504

> <Gold.PLP.part.metal>
0.0000

> <Gold.PLP.part.buried>
0.7162

> <Gold.PLP.part.nonpolar>
-38.4353

> <Gold.PLP.part.repulsive>
3.9534

> <Gold.PLP.ligand.clash>
0.0000

> <Gold.PLP.ligand.torsion>
0.8711

> <Gold.PLP.Chemscore.Hbond>
1.8160

> <Gold.PLP.Chemscore.CHOScore>
1.0000

> <Gold.PLP.Chemscore.Metal>
0.0000

> <Gold.Chemscore.Hbonds>
donor molecule, donor type, donor heavy atom, donor atom, acceptor molecule, acceptor atom, score
      P1  H  7954  7966       L1    15  0.89
      P1  H  7989  7998       L1     3  0.82
      L1  C    16    42       P1  7921  1.00

> <Gold.PLP.Chemscore.Internal.Correction>
0.7794

> <Gold.Rescore>
     Score         DG    S(hbond)    S(metal)    S(lipo)     H(rot)  DE(clash)    DE(int)     intcor
     11.18     -14.49       1.26        0.00      98.36       2.62       2.35       0.96       ----

> <Gold.Chemscore.Fitness>
11.1778

> <Gold.Chemscore.DG>
-14.4907

> <Gold.Chemscore.ZeroCoef>
-5.4800

> <Gold.Chemscore.Hbond>
1.2619

> <Gold.Chemscore.Metal>
0.0000

> <Gold.Chemscore.Lipo>
98.3597

> <Gold.Chemscore.Internal_Hbond>
0.0000

> <Gold.Chemscore.DEClash>
2.3513

> <Gold.Chemscore.DEInternal>
0.9616

> <Gold.Chemscore.Rot>
2.6219

> <Gold.Chemscore.Internal.Correction>
   9.000000E+99

> <Gold.Chemscore.Hbonds>
donor molecule, donor type, donor heavy atom, donor atom, acceptor molecule, acceptor atom, score
      P1  H  7954  7966       L1    15  0.81
      P1  H  7989  7998       L1     3  0.64

> <Gold.Chemscore.Hbond.Weighted>
-4.2147

> <Gold.Chemscore.Metal.Weighted>
-0.0000

> <Gold.Chemscore.Lipo.Weighted>
-11.5081

> <Gold.Chemscore.Internal_Hbond.Weighted>
0.0000

> <Gold.Chemscore.DEClash.Weighted>
2.3513

> <Gold.Chemscore.DEInternal.Weighted>
0.9616

> <Gold.Chemscore.Rot.Weighted>
6.7121

> <Gold.Chemscore.Internal.Correction.Weighted>
   9.000000E+99

> <Gold.Protein.RotatedTorsions>
[ 6907 6896 6895 6894 ] final -163.85 input  -60.11 | X-H torsion
[ 7974 7965 7964 7962 ] final  -85.09 input  175.53 | X-H torsion
[ 8008 7997 7996 7995 ] final   38.56 input   59.86 | X-H torsion
[ 10167 10162 10161 10158 ] final -110.67 input  -65.29 | X-H torsion
[ 10718 10713 10712 10709 ] final  -15.65 input   66.30 | X-H torsion
[ 10763 10752 10751 10750 ] final  169.13 input  -60.55 | X-H torsion
[ 11005 11000 10999 10996 ] final   20.34 input  -57.11 | X-H torsion

> <Gold.Protein.ActiveResidues>
 VAL166  LYS551  ARG553  GLY616  TRP617  ASP618  TYR619  PRO620  LYS621  CYS622 
 ASP623  PHE694  ASN695  SER759  ASP760  ASP761  ALA762  ILE779  LEU786  VAL792 
 PHE793  MET794  SER795  GLU796  ALA797  LYS798  CYS799  TRP800  GLU811  SER814 

> <Gold.Protein.RotatedAtoms>
  151.4026  133.3752  159.2733 H   0  0  0  0  0  0  0  0  0  0  0  0  # atno 6907 bound_to 6896
  150.9422  134.8831  159.7630 H   0  0  0  0  0  0  0  0  0  0  0  0  # atno 6908 bound_to 6896
  152.5076  134.3977  159.9458 H   0  0  0  0  0  0  0  0  0  0  0  0  # atno 6909 bound_to 6896
  145.4979  140.9549  143.1776 H   0  0  0  0  0  0  0  0  0  0  0  0  # atno 7974 bound_to 7965
  155.2222  140.3332  155.4314 H   0  0  0  0  0  0  0  0  0  0  0  0  # atno 8008 bound_to 7997
  156.2328  140.1858  156.7244 H   0  0  0  0  0  0  0  0  0  0  0  0  # atno 8009 bound_to 7997
  154.6008  140.0623  156.9351 H   0  0  0  0  0  0  0  0  0  0  0  0  # atno 8010 bound_to 7997
  140.1419  143.4272  152.1556 H   0  0  0  0  0  0  0  0  0  0  0  0  # atno 10167 bound_to 10162
  156.5988  130.4818  149.6248 H   0  0  0  0  0  0  0  0  0  0  0  0  # atno 10718 bound_to 10713
  154.3787  135.2753  155.2224 H   0  0  0  0  0  0  0  0  0  0  0  0  # atno 10763 bound_to 10752
  154.4340  135.5970  153.6090 H   0  0  0  0  0  0  0  0  0  0  0  0  # atno 10764 bound_to 10752
  152.9835  135.6002  154.4027 H   0  0  0  0  0  0  0  0  0  0  0  0  # atno 10765 bound_to 10752
  140.4037  134.1691  155.7664 H   0  0  0  0  0  0  0  0  0  0  0  0  # atno 11005 bound_to 11000
  144.7797  139.6553  143.7160 LP  0  0  0  0  0  0  0  0  0  0  0  0  # atno 17320 bound_to 7965
  146.2244  139.5696  142.9597 LP  0  0  0  0  0  0  0  0  0  0  0  0  # atno 17321 bound_to 7965
  139.5468  144.7305  151.4559 LP  0  0  0  0  0  0  0  0  0  0  0  0  # atno 17342 bound_to 10162
  140.6755  143.8199  150.7053 LP  0  0  0  0  0  0  0  0  0  0  0  0  # atno 17343 bound_to 10162
  156.2487  130.6894  151.1624 LP  0  0  0  0  0  0  0  0  0  0  0  0  # atno 17370 bound_to 10713
  157.7285  131.0631  150.5818 LP  0  0  0  0  0  0  0  0  0  0  0  0  # atno 17371 bound_to 10713
  141.1847  133.8338  157.1130 LP  0  0  0  0  0  0  0  0  0  0  0  0  # atno 17394 bound_to 11000
  140.0317  134.9898  157.0794 LP  0  0  0  0  0  0  0  0  0  0  0  0  # atno 17395 bound_to 11000

$$$$
