AV-unprocessed.smi:450|AV-procd|sdf|2607|dock7
  -GOLD-   2262023 03D 1   1.00000     0.00000
 Structure written by MMmdl.
 32 32  0  0  0  0  0  0  0  0  1 V2000
  145.1790  135.4174  152.4869 C   0  0  0  0  0  0  0  0  0  0  0  0
  145.6267  136.6492  151.6867 C   0  0  0  0  0  0  0  0  0  0  0  0
  146.1978  137.7849  152.5579 C   0  0  2  0  0  0  0  0  0  0  0  0
  146.6563  138.9775  151.7071 C   0  0  0  0  0  0  0  0  0  0  0  0
  147.3238  137.3024  153.3560 N   0  0  0  0  0  0  0  0  0  0  0  0
  147.3494  137.1790  154.6921 C   0  0  0  0  0  0  0  0  0  0  0  0
  146.3992  137.4720  155.4194 O   0  0  0  0  0  0  0  0  0  0  0  0
  148.6568  136.6337  155.2796 C   0  0  0  0  0  0  0  0  0  0  0  0
  149.6767  137.6678  155.4491 N   0  0  0  0  0  0  0  0  0  0  0  0
  150.1284  138.5499  154.5347 C   0  0  0  0  0  0  0  0  0  0  0  0
  149.6253  138.5602  153.2420 N   0  0  0  0  0  0  0  0  0  0  0  0
  151.0728  139.3723  154.9833 N   0  0  0  0  0  0  0  0  0  0  0  0
  151.2756  139.0006  156.3110 C   0  0  0  0  0  0  0  0  0  0  0  0
  152.2307  139.6565  157.1388 C   0  0  0  0  0  0  0  0  0  0  0  0
  153.0047  140.1915  157.8120 N   0  0  0  0  0  0  0  0  0  0  0  0
  150.4212  137.9559  156.5907 C   0  0  0  0  0  0  0  0  0  0  0  0
  150.3075  137.2723  157.8198 C   0  0  0  0  0  0  0  0  0  0  0  0
  150.2156  136.7123  158.8277 N   0  0  0  0  0  0  0  0  0  0  0  0
  144.7284  134.6732  151.8302 H   0  0  0  0  0  0  0  0  0  0  0  0
  144.4389  135.6860  153.2411 H   0  0  0  0  0  0  0  0  0  0  0  0
  146.0180  134.9412  152.9946 H   0  0  0  0  0  0  0  0  0  0  0  0
  146.3644  136.3461  150.9426 H   0  0  0  0  0  0  0  0  0  0  0  0
  144.7706  137.0271  151.1266 H   0  0  0  0  0  0  0  0  0  0  0  0
  145.3980  138.1407  153.2095 H   0  0  0  0  0  0  0  0  0  0  0  0
  145.8318  139.3779  151.1167 H   0  0  0  0  0  0  0  0  0  0  0  0
  147.4516  138.6927  151.0176 H   0  0  0  0  0  0  0  0  0  0  0  0
  147.0331  139.7858  152.3349 H   0  0  0  0  0  0  0  0  0  0  0  0
  148.1532  137.0353  152.8455 H   0  0  0  0  0  0  0  0  0  0  0  0
  148.4551  136.1664  156.2441 H   0  0  0  0  0  0  0  0  0  0  0  0
  149.0455  135.8469  154.6323 H   0  0  0  0  0  0  0  0  0  0  0  0
  148.9096  137.9089  152.9531 H   0  0  0  0  0  0  0  0  0  0  0  0
  149.9245  139.2442  152.5624 H   0  0  0  0  0  0  0  0  0  0  0  0
  1  2  1  0  0  0  0
  1 19  1  0  0  0  0
  1 20  1  0  0  0  0
  1 21  1  0  0  0  0
  2  3  1  0  0  0  0
  2 22  1  0  0  0  0
  2 23  1  0  0  0  0
  3  4  1  0  0  0  0
  3  5  1  0  0  0  0
  3 24  1  0  0  0  0
  4 25  1  0  0  0  0
  4 26  1  0  0  0  0
  4 27  1  0  0  0  0
  5  6  1  0  0  0  0
  5 28  1  0  0  0  0
  6  7  2  0  0  0  0
  6  8  1  0  0  0  0
  8  9  1  0  0  0  0
  8 29  1  0  0  0  0
  8 30  1  0  0  0  0
  9 16  1  0  0  0  0
  9 10  1  0  0  0  0
 10 11  1  0  0  0  0
 10 12  2  0  0  0  0
 11 31  1  0  0  0  0
 11 32  1  0  0  0  0
 12 13  1  0  0  0  0
 13 14  1  0  0  0  0
 13 16  2  0  0  0  0
 14 15  3  0  0  0  0
 16 17  1  0  0  0  0
 17 18  3  0  0  0  0
M  END
> <s_m_source_file>
AV-unprocessed.smi

> <i_m_source_file_index>
450

> <i_lp_mmshare_version>
43012

> <i_f3d_flags>
0

> <s_epik_input>
W0NIM11bQ0gyXVtDQEhdKFtDSDNdKVtOSF1DKD1PKVtDSDJdbjFjKFtOSDJdKW5jKEMjTiljMUMjTg==

> <s_epik_cmdline>
J2VwaWtfcHl0aG9uJywgJy1waCcsICc3LjAnLCAnLXRuJywgJzgnLCAnLW1hJywgJzIwMCcsICctbWV0YWxfYmluZGluZycsICctaW1hZScsICc8aW5maWxlLm1hZT4nLCAnLW9tYWUnLCAnPG91dGZpbGUubWFlPic=

> <r_epik_Ionization_Penalty>
0.000482749

> <r_epik_Ionization_Penalty_Charging>
7.71074e-10

> <r_epik_Ionization_Penalty_Neutral>
0.000482748

> <r_epik_State_Penalty>
0.000433536

> <r_epik_Charging_Adjusted_Penalty>
0.000433537

> <i_epik_Tot_Q>
0

> <i_epik_Tot_abs_Q>
0

> <r_epik_Metal_State_Penalty>
-0

> <b_epik_Metal_Only>
0

> <s_lp_Force_Field>
OPLS_2005

> <r_lp_Energy>
6.35239

> <b_lp_Chiralities_Consistent>
1

> <s_lp_Variant>
AV-unprocessed.smi:450-1

> <Gold.Version>
5.8.1

> <Gold.Id.Protein>
6NUR|6NUR_protein|mol2

> <Gold.PLP.Fitness>
36.2595

> <Gold.PLP.PLP>
-21.5179

> <Gold.PLP.part.hbond>
-5.2855

> <Gold.PLP.part.metal>
0.0000

> <Gold.PLP.part.buried>
-0.9990

> <Gold.PLP.part.nonpolar>
-16.0058

> <Gold.PLP.part.repulsive>
0.1827

> <Gold.PLP.ligand.clash>
0.0000

> <Gold.PLP.ligand.torsion>
0.4259

> <Gold.PLP.Chemscore.Hbond>
5.1933

> <Gold.PLP.Chemscore.CHOScore>
0.0000

> <Gold.PLP.Chemscore.Metal>
0.0000

> <Gold.Chemscore.Hbonds>
donor molecule, donor type, donor heavy atom, donor atom, acceptor molecule, acceptor atom, score
      L1  H     5    28       P1  7948  0.91
      L1  H    11    31       P1  7948  0.64
      L1  H    11    32       P1  7957  0.96
      P1  H  6896  6909       L1    18  0.80
      P1  H  7989  7998       L1    12  0.63
      P1  H  7997  8008       L1    15  0.98

> <Gold.PLP.Chemscore.Internal.Correction>
0.0137

> <Gold.Rescore>
     Score         DG    S(hbond)    S(metal)    S(lipo)     H(rot)  DE(clash)    DE(int)     intcor
     16.90     -20.11       4.80        0.00      36.43       2.21       0.28       2.92       ----

> <Gold.Chemscore.Fitness>
16.9039

> <Gold.Chemscore.DG>
-20.1065

> <Gold.Chemscore.ZeroCoef>
-5.4800

> <Gold.Chemscore.Hbond>
4.7983

> <Gold.Chemscore.Metal>
0.0000

> <Gold.Chemscore.Lipo>
36.4349

> <Gold.Chemscore.Internal_Hbond>
0.0000

> <Gold.Chemscore.DEClash>
0.2841

> <Gold.Chemscore.DEInternal>
2.9184

> <Gold.Chemscore.Rot>
2.2121

> <Gold.Chemscore.Internal.Correction>
   9.000000E+99

> <Gold.Chemscore.Hbonds>
donor molecule, donor type, donor heavy atom, donor atom, acceptor molecule, acceptor atom, score
      L1  H     5    28       P1  7948  0.87
      L1  H    11    31       P1  7948  0.63
      L1  H    11    32       P1  7957  0.78
      P1  H  6896  6909       L1    18  0.78
      P1  H  7989  7998       L1    12  0.51
      P1  H  7997  8008       L1    15  0.47

> <Gold.Chemscore.Hbond.Weighted>
-16.0264

> <Gold.Chemscore.Metal.Weighted>
-0.0000

> <Gold.Chemscore.Lipo.Weighted>
-4.2629

> <Gold.Chemscore.Internal_Hbond.Weighted>
0.0000

> <Gold.Chemscore.DEClash.Weighted>
0.2841

> <Gold.Chemscore.DEInternal.Weighted>
2.9184

> <Gold.Chemscore.Rot.Weighted>
5.6629

> <Gold.Chemscore.Internal.Correction.Weighted>
   9.000000E+99

> <Gold.Protein.RotatedTorsions>
[ 6907 6896 6895 6894 ] final   76.80 input  -60.11 | X-H torsion
[ 7974 7965 7964 7962 ] final  -64.84 input  175.53 | X-H torsion
[ 8008 7997 7996 7995 ] final  -78.90 input   59.86 | X-H torsion
[ 10167 10162 10161 10158 ] final  107.04 input  -65.29 | X-H torsion
[ 10718 10713 10712 10709 ] final  -90.71 input   66.30 | X-H torsion
[ 10763 10752 10751 10750 ] final -174.91 input  -60.55 | X-H torsion
[ 11005 11000 10999 10996 ] final   95.88 input  -57.11 | X-H torsion

> <Gold.Protein.ActiveResidues>
 VAL166  LYS551  ARG553  GLY616  TRP617  ASP618  TYR619  PRO620  LYS621  CYS622 
 ASP623  PHE694  ASN695  SER759  ASP760  ASP761  ALA762  ILE779  LEU786  VAL792 
 PHE793  MET794  SER795  GLU796  ALA797  LYS798  CYS799  TRP800  GLU811  SER814 

> <Gold.Protein.RotatedAtoms>
  152.5089  134.3914  159.9384 H   0  0  0  0  0  0  0  0  0  0  0  0  # atno 6907 bound_to 6896
  151.3874  133.3794  159.2724 H   0  0  0  0  0  0  0  0  0  0  0  0  # atno 6908 bound_to 6896
  150.9458  134.8884  159.7700 H   0  0  0  0  0  0  0  0  0  0  0  0  # atno 6909 bound_to 6896
  145.7618  140.8858  143.0426 H   0  0  0  0  0  0  0  0  0  0  0  0  # atno 7974 bound_to 7965
  154.5733  140.0687  156.8996 H   0  0  0  0  0  0  0  0  0  0  0  0  # atno 8008 bound_to 7997
  155.2595  140.3357  155.4256 H   0  0  0  0  0  0  0  0  0  0  0  0  # atno 8009 bound_to 7997
  156.2135  140.1769  156.7628 H   0  0  0  0  0  0  0  0  0  0  0  0  # atno 8010 bound_to 7997
  139.6960  144.7101  151.1267 H   0  0  0  0  0  0  0  0  0  0  0  0  # atno 10167 bound_to 10162
  155.9989  130.4920  150.5364 H   0  0  0  0  0  0  0  0  0  0  0  0  # atno 10718 bound_to 10713
  154.5907  135.2845  155.0638 H   0  0  0  0  0  0  0  0  0  0  0  0  # atno 10763 bound_to 10752
  154.1940  135.6436  153.5072 H   0  0  0  0  0  0  0  0  0  0  0  0  # atno 10764 bound_to 10752
  153.0120  135.5453  154.6592 H   0  0  0  0  0  0  0  0  0  0  0  0  # atno 10765 bound_to 10752
  139.8785  134.8922  156.4077 H   0  0  0  0  0  0  0  0  0  0  0  0  # atno 11005 bound_to 11000
  144.6829  139.9733  143.7482 LP  0  0  0  0  0  0  0  0  0  0  0  0  # atno 17320 bound_to 7965
  146.0257  139.3290  143.0786 LP  0  0  0  0  0  0  0  0  0  0  0  0  # atno 17321 bound_to 7965
  140.7696  143.5492  150.9224 LP  0  0  0  0  0  0  0  0  0  0  0  0  # atno 17342 bound_to 10162
  139.9171  143.6650  152.3104 LP  0  0  0  0  0  0  0  0  0  0  0  0  # atno 17343 bound_to 10162
  157.3306  131.0699  151.1864 LP  0  0  0  0  0  0  0  0  0  0  0  0  # atno 17370 bound_to 10713
  157.2746  130.6720  149.6036 LP  0  0  0  0  0  0  0  0  0  0  0  0  # atno 17371 bound_to 10713
  140.9222  133.7637  155.9921 LP  0  0  0  0  0  0  0  0  0  0  0  0  # atno 17394 bound_to 11000
  140.8426  134.3048  157.5307 LP  0  0  0  0  0  0  0  0  0  0  0  0  # atno 17395 bound_to 11000

$$$$
