AV-unprocessed.smi:532|AV-procd|sdf|2850|dock4
  -GOLD-   2262023343D 1   1.00000     0.00000
 Structure written by MMmdl.
 49 51  0  0  0  0  0  0  0  0  1 V2000
  154.6527  138.4487  154.2438 C   0  0  0  0  0  0  0  0  0  0  0  0
  153.6590  139.0571  155.0495 O   0  0  0  0  0  0  0  0  0  0  0  0
  152.4012  138.4148  154.9336 C   0  0  0  0  0  0  0  0  0  0  0  0
  151.3150  139.3420  155.4914 C   0  0  0  0  0  0  0  0  0  0  0  0
  150.7514  138.8196  156.7283 N   0  0  0  0  0  0  0  0  0  0  0  0
  150.7291  139.4066  157.9517 C   0  0  0  0  0  0  0  0  0  0  0  0
  151.2975  140.6594  158.1623 N   0  0  0  0  0  0  0  0  0  0  0  0
  151.1110  141.7758  157.2343 C   0  0  0  0  0  0  0  0  0  0  0  0
  151.1087  143.1623  157.9173 C   0  0  1  0  0  0  0  0  0  0  0  0
  149.8021  143.4655  158.6690 C   0  0  0  0  0  0  0  0  0  0  0  0
  152.3551  143.3339  158.8027 C   0  0  0  0  0  0  0  0  0  0  0  0
  152.5372  142.1336  159.7454 C   0  0  2  0  0  0  0  0  0  0  0  0
  153.8199  142.2647  160.5777 C   0  0  0  0  0  0  0  0  0  0  0  0
  152.5289  140.8289  158.9290 C   0  0  0  0  0  0  0  0  0  0  0  0
  150.1231  138.6948  158.9061 N   0  0  0  0  0  0  0  0  0  0  0  0
  149.7387  137.5449  158.2316 C   0  0  0  0  0  0  0  0  0  0  0  0
  150.1098  137.5984  156.9277 C   0  0  0  0  0  0  0  0  0  0  0  0
  149.8353  136.5090  155.9840 C   0  0  0  0  0  0  0  0  0  0  0  0
  150.1745  136.5344  154.8031 O   0  0  0  0  0  0  0  0  0  0  0  0
  149.1724  135.4719  156.5517 N   0  0  0  0  0  0  0  0  0  0  0  0
  148.7679  135.3540  157.8540 C   0  0  0  0  0  0  0  0  0  0  0  0
  148.1732  134.3398  158.2175 O   0  0  0  0  0  0  0  0  0  0  0  0
  149.0518  136.3932  158.7059 N   0  0  0  0  0  0  0  0  0  0  0  0
  148.6662  136.3660  160.1181 C   0  0  0  0  0  0  0  0  0  0  0  0
  148.9541  134.6953  155.9448 H   0  0  0  0  0  0  0  0  0  0  0  0
  155.5986  138.9762  154.3667 H   0  0  0  0  0  0  0  0  0  0  0  0
  154.3811  138.4854  153.1880 H   0  0  0  0  0  0  0  0  0  0  0  0
  154.8093  137.4075  154.5292 H   0  0  0  0  0  0  0  0  0  0  0  0
  152.1952  138.1779  153.8888 H   0  0  0  0  0  0  0  0  0  0  0  0
  152.4107  137.4736  155.4843 H   0  0  0  0  0  0  0  0  0  0  0  0
  151.7161  140.3378  155.6760 H   0  0  0  0  0  0  0  0  0  0  0  0
  150.5166  139.4801  154.7627 H   0  0  0  0  0  0  0  0  0  0  0  0
  151.9142  141.7353  156.4975 H   0  0  0  0  0  0  0  0  0  0  0  0
  150.1840  141.6334  156.6777 H   0  0  0  0  0  0  0  0  0  0  0  0
  151.1735  143.9074  157.1238 H   0  0  0  0  0  0  0  0  0  0  0  0
  149.6363  142.7781  159.4962 H   0  0  0  0  0  0  0  0  0  0  0  0
  148.9430  143.3991  158.0015 H   0  0  0  0  0  0  0  0  0  0  0  0
  149.8146  144.4746  159.0812 H   0  0  0  0  0  0  0  0  0  0  0  0
  153.2345  143.4229  158.1631 H   0  0  0  0  0  0  0  0  0  0  0  0
  152.2951  144.2631  159.3706 H   0  0  0  0  0  0  0  0  0  0  0  0
  151.6984  142.1051  160.4420 H   0  0  0  0  0  0  0  0  0  0  0  0
  154.7054  142.2851  159.9416 H   0  0  0  0  0  0  0  0  0  0  0  0
  153.9249  141.4285  161.2696 H   0  0  0  0  0  0  0  0  0  0  0  0
  153.8125  143.1813  161.1680 H   0  0  0  0  0  0  0  0  0  0  0  0
  152.6450  139.9765  159.5997 H   0  0  0  0  0  0  0  0  0  0  0  0
  153.3785  140.8029  158.2453 H   0  0  0  0  0  0  0  0  0  0  0  0
  148.1376  135.4607  160.4180 H   0  0  0  0  0  0  0  0  0  0  0  0
  148.0165  137.2128  160.3421 H   0  0  0  0  0  0  0  0  0  0  0  0
  149.5535  136.4490  160.7463 H   0  0  0  0  0  0  0  0  0  0  0  0
  1  2  1  0  0  0  0
  1 26  1  0  0  0  0
  1 27  1  0  0  0  0
  1 28  1  0  0  0  0
  2  3  1  0  0  0  0
  3  4  1  0  0  0  0
  3 29  1  0  0  0  0
  3 30  1  0  0  0  0
  4  5  1  0  0  0  0
  4 31  1  0  0  0  0
  4 32  1  0  0  0  0
  5 17  1  0  0  0  0
  5  6  1  0  0  0  0
  6  7  1  0  0  0  0
  6 15  2  0  0  0  0
  7 14  1  0  0  0  0
  7  8  1  0  0  0  0
  8  9  1  0  0  0  0
  8 33  1  0  0  0  0
  8 34  1  0  0  0  0
  9 10  1  0  0  0  0
  9 11  1  0  0  0  0
  9 35  1  0  0  0  0
 10 36  1  0  0  0  0
 10 37  1  0  0  0  0
 10 38  1  0  0  0  0
 11 12  1  0  0  0  0
 11 39  1  0  0  0  0
 11 40  1  0  0  0  0
 12 13  1  0  0  0  0
 12 14  1  0  0  0  0
 12 41  1  0  0  0  0
 13 42  1  0  0  0  0
 13 43  1  0  0  0  0
 13 44  1  0  0  0  0
 14 45  1  0  0  0  0
 14 46  1  0  0  0  0
 15 16  1  0  0  0  0
 16 23  1  0  0  0  0
 16 17  2  0  0  0  0
 17 18  1  0  0  0  0
 18 19  2  0  0  0  0
 18 20  1  0  0  0  0
 20 25  1  0  0  0  0
 20 21  1  0  0  0  0
 21 22  2  0  0  0  0
 21 23  1  0  0  0  0
 23 24  1  0  0  0  0
 24 47  1  0  0  0  0
 24 48  1  0  0  0  0
 24 49  1  0  0  0  0
M  END
> <s_m_source_file>
AV-unprocessed.smi

> <i_m_source_file_index>
532

> <i_lp_mmshare_version>
43012

> <i_f3d_flags>
0

> <s_epik_input>
W0NIM11uMWMoPU8pW25IXWMoPU8pYyhjMTIpbihbQ0gyXVtDSDJdT1tDSDNdKWMobjIpTjNbQ0gyXVtDQEBIXShbQ0gzXSlbQ0gyXVtDQEBIXShbQ0gzXSlbQ0gyXTM=

> <s_epik_cmdline>
J2VwaWtfcHl0aG9uJywgJy1waCcsICc3LjAnLCAnLXRuJywgJzgnLCAnLW1hJywgJzIwMCcsICctbWV0YWxfYmluZGluZycsICctaW1hZScsICc8aW5maWxlLm1hZT4nLCAnLW9tYWUnLCAnPG91dGZpbGUubWFlPic=

> <r_lp_tautomer_probability>
1

> <r_epik_Ionization_Penalty>
0.000642525

> <r_epik_Ionization_Penalty_Charging>
0.000121571

> <r_epik_Ionization_Penalty_Neutral>
0.000520954

> <r_epik_State_Penalty>
-0

> <r_epik_Charging_Adjusted_Penalty>
0.000121571

> <i_epik_Tot_Q>
0

> <i_epik_Tot_abs_Q>
0

> <r_epik_Metal_State_Penalty>
0.0931709

> <b_epik_Metal_Only>
0

> <s_lp_Force_Field>
OPLS_2005

> <r_lp_Energy>
43.7667

> <b_lp_Chiralities_Consistent>
1

> <s_lp_Variant>
AV-unprocessed.smi:532-3

> <Gold.Version>
5.8.1

> <Gold.Id.Protein>
6NUR|6NUR_protein|mol2

> <Gold.PLP.Fitness>
37.3920

> <Gold.PLP.PLP>
-36.7050

> <Gold.PLP.part.hbond>
-1.5663

> <Gold.PLP.part.metal>
0.0000

> <Gold.PLP.part.buried>
-4.4746

> <Gold.PLP.part.nonpolar>
-31.9565

> <Gold.PLP.part.repulsive>
0.2109

> <Gold.PLP.ligand.clash>
0.0000

> <Gold.PLP.ligand.torsion>
1.4524

> <Gold.PLP.Chemscore.Hbond>
0.8960

> <Gold.PLP.Chemscore.CHOScore>
0.0000

> <Gold.PLP.Chemscore.Metal>
0.0000

> <Gold.Chemscore.Hbonds>
donor molecule, donor type, donor heavy atom, donor atom, acceptor molecule, acceptor atom, score
      P1  H  7997  8010       L1     2  0.90

> <Gold.PLP.Chemscore.Internal.Correction>
0.9038

> <Gold.Rescore>
     Score         DG    S(hbond)    S(metal)    S(lipo)     H(rot)  DE(clash)    DE(int)     intcor
     11.92     -15.73       0.72        0.00      98.46       1.43       0.36       3.44       ----

> <Gold.Chemscore.Fitness>
11.9183

> <Gold.Chemscore.DG>
-15.7258

> <Gold.Chemscore.ZeroCoef>
-5.4800

> <Gold.Chemscore.Hbond>
0.7164

> <Gold.Chemscore.Metal>
0.0000

> <Gold.Chemscore.Lipo>
98.4602

> <Gold.Chemscore.Internal_Hbond>
0.0000

> <Gold.Chemscore.DEClash>
0.3635

> <Gold.Chemscore.DEInternal>
3.4441

> <Gold.Chemscore.Rot>
1.4324

> <Gold.Chemscore.Internal.Correction>
   9.000000E+99

> <Gold.Chemscore.Hbonds>
donor molecule, donor type, donor heavy atom, donor atom, acceptor molecule, acceptor atom, score
      P1  H  7997  8010       L1     2  0.57

> <Gold.Chemscore.Hbond.Weighted>
-2.3929

> <Gold.Chemscore.Metal.Weighted>
-0.0000

> <Gold.Chemscore.Lipo.Weighted>
-11.5198

> <Gold.Chemscore.Internal_Hbond.Weighted>
0.0000

> <Gold.Chemscore.DEClash.Weighted>
0.3635

> <Gold.Chemscore.DEInternal.Weighted>
3.4441

> <Gold.Chemscore.Rot.Weighted>
3.6669

> <Gold.Chemscore.Internal.Correction.Weighted>
   9.000000E+99

> <Gold.Protein.RotatedTorsions>
[ 6907 6896 6895 6894 ] final   61.11 input  -60.11 | X-H torsion
[ 7974 7965 7964 7962 ] final -177.64 input  175.53 | X-H torsion
[ 8008 7997 7996 7995 ] final   92.97 input   59.86 | X-H torsion
[ 10167 10162 10161 10158 ] final -111.59 input  -65.29 | X-H torsion
[ 10718 10713 10712 10709 ] final  -78.19 input   66.30 | X-H torsion
[ 10763 10752 10751 10750 ] final -177.05 input  -60.55 | X-H torsion
[ 11005 11000 10999 10996 ] final  176.30 input  -57.11 | X-H torsion

> <Gold.Protein.ActiveResidues>
 VAL166  LYS551  ARG553  GLY616  TRP617  ASP618  TYR619  PRO620  LYS621  CYS622 
 ASP623  PHE694  ASN695  SER759  ASP760  ASP761  ALA762  ILE779  LEU786  VAL792 
 PHE793  MET794  SER795  GLU796  ALA797  LYS798  CYS799  TRP800  GLU811  SER814 

> <Gold.Protein.RotatedAtoms>
  152.4061  134.6205  160.0049 H   0  0  0  0  0  0  0  0  0  0  0  0  # atno 6907 bound_to 6896
  151.6396  133.3321  159.3135 H   0  0  0  0  0  0  0  0  0  0  0  0  # atno 6908 bound_to 6896
  150.7956  134.7054  159.6618 H   0  0  0  0  0  0  0  0  0  0  0  0  # atno 6909 bound_to 6896
  144.7128  140.0988  143.6417 H   0  0  0  0  0  0  0  0  0  0  0  0  # atno 7974 bound_to 7965
  156.0414  140.3319  155.7248 H   0  0  0  0  0  0  0  0  0  0  0  0  # atno 8008 bound_to 7997
  155.5738  140.0630  157.2817 H   0  0  0  0  0  0  0  0  0  0  0  0  # atno 8009 bound_to 7997
  154.4395  140.1856  156.0895 H   0  0  0  0  0  0  0  0  0  0  0  0  # atno 8010 bound_to 7997
  140.1319  143.4353  152.1621 H   0  0  0  0  0  0  0  0  0  0  0  0  # atno 10167 bound_to 10162
  156.0124  130.4511  150.3458 H   0  0  0  0  0  0  0  0  0  0  0  0  # atno 10718 bound_to 10713
  154.5649  135.2823  155.0884 H   0  0  0  0  0  0  0  0  0  0  0  0  # atno 10763 bound_to 10752
  154.2279  135.6379  153.5169 H   0  0  0  0  0  0  0  0  0  0  0  0  # atno 10764 bound_to 10752
  153.0040  135.5530  154.6254 H   0  0  0  0  0  0  0  0  0  0  0  0  # atno 10765 bound_to 10752
  140.3717  134.7024  157.4396 H   0  0  0  0  0  0  0  0  0  0  0  0  # atno 11005 bound_to 11000
  145.9556  139.2764  143.1186 LP  0  0  0  0  0  0  0  0  0  0  0  0  # atno 17320 bound_to 7965
  145.9276  140.9071  143.0373 LP  0  0  0  0  0  0  0  0  0  0  0  0  # atno 17321 bound_to 7965
  139.5515  144.7341  151.4421 LP  0  0  0  0  0  0  0  0  0  0  0  0  # atno 17342 bound_to 10162
  140.6812  143.8078  150.7123 LP  0  0  0  0  0  0  0  0  0  0  0  0  # atno 17343 bound_to 10162
  157.1552  131.0331  151.2866 LP  0  0  0  0  0  0  0  0  0  0  0  0  # atno 17370 bound_to 10713
  157.4358  130.7516  149.7027 LP  0  0  0  0  0  0  0  0  0  0  0  0  # atno 17371 bound_to 10713
  140.0547  134.6081  155.8819 LP  0  0  0  0  0  0  0  0  0  0  0  0  # atno 17394 bound_to 11000
  141.1952  133.6586  156.5634 LP  0  0  0  0  0  0  0  0  0  0  0  0  # atno 17395 bound_to 11000

$$$$
