AV-unprocessed.smi:3028|AV-procd|sdf|11524|dock9
  -GOLD-   2272016463D 1   1.00000     0.00000
 Structure written by MMmdl.
 47 48  0  0  0  0  0  0  0  0  1 V2000
  152.1088  143.6320  161.6902 C   0  0  0  0  0  0  0  0  0  0  0  0
  153.0137  142.5167  161.2520 C   0  0  0  0  0  0  0  0  0  0  0  0
  153.5381  142.2756  159.9505 C   0  0  0  0  0  0  0  0  0  0  0  0
  154.3085  141.2020  159.8975 N   0  0  0  0  0  0  0  0  0  0  0  0
  154.3069  140.7190  161.1605 N   0  0  0  0  0  0  0  0  0  0  0  0
  155.0666  139.5193  161.4902 C   0  0  1  0  0  0  0  0  0  0  0  0
  156.0465  139.8174  162.6418 C   0  0  0  0  0  0  0  0  0  0  0  0
  154.1376  138.3096  161.7823 C   0  0  1  0  0  0  0  0  0  0  0  0
  153.4398  137.7548  160.5266 C   0  0  0  0  0  0  0  0  0  0  0  0
  154.9224  137.2160  162.3480 N   0  0  0  0  0  0  0  0  0  0  0  0
  154.2830  136.6356  163.5363 C   0  0  0  0  0  0  0  0  0  0  0  0
  154.4939  135.1184  163.6547 C   0  0  0  0  0  0  0  0  0  0  0  0
  155.3049  134.5449  162.9283 O   0  0  0  0  0  0  0  0  0  0  0  0
  153.7881  134.4312  164.5691 N   0  0  0  0  0  0  0  0  0  0  0  0
  153.8397  132.9957  164.8400 C   0  0  0  0  0  0  0  0  0  0  0  0
  155.2134  132.6249  165.4187 C   0  0  0  0  0  0  0  0  0  0  0  0
  155.3431  131.1005  165.5731 C   0  0  0  0  0  0  0  0  0  0  0  0
  155.1230  130.4632  164.3193 O   0  0  0  0  0  0  0  0  0  0  0  0
  153.8153  130.6888  163.8035 C   0  0  0  0  0  0  0  0  0  0  0  0
  153.5998  132.1899  163.5519 C   0  0  0  0  0  0  0  0  0  0  0  0
  153.5312  141.4950  161.9969 C   0  0  0  0  0  0  0  0  0  0  0  0
  151.7814  144.2429  160.8487 H   0  0  0  0  0  0  0  0  0  0  0  0
  152.6051  144.2978  162.3963 H   0  0  0  0  0  0  0  0  0  0  0  0
  151.2114  143.2533  162.1799 H   0  0  0  0  0  0  0  0  0  0  0  0
  153.3817  142.8463  159.0468 H   0  0  0  0  0  0  0  0  0  0  0  0
  155.6629  139.2805  160.6075 H   0  0  0  0  0  0  0  0  0  0  0  0
  156.7288  138.9845  162.8111 H   0  0  0  0  0  0  0  0  0  0  0  0
  155.5195  140.0098  163.5769 H   0  0  0  0  0  0  0  0  0  0  0  0
  156.6576  140.6926  162.4185 H   0  0  0  0  0  0  0  0  0  0  0  0
  153.3541  138.6242  162.4749 H   0  0  0  0  0  0  0  0  0  0  0  0
  152.7625  138.4861  160.0854 H   0  0  0  0  0  0  0  0  0  0  0  0
  152.8432  136.8736  160.7660 H   0  0  0  0  0  0  0  0  0  0  0  0
  154.1633  137.4688  159.7621 H   0  0  0  0  0  0  0  0  0  0  0  0
  155.8557  137.5437  162.5527 H   0  0  0  0  0  0  0  0  0  0  0  0
  154.6831  137.1108  164.4329 H   0  0  0  0  0  0  0  0  0  0  0  0
  153.2141  136.8471  163.4989 H   0  0  0  0  0  0  0  0  0  0  0  0
  153.1474  134.9643  165.1392 H   0  0  0  0  0  0  0  0  0  0  0  0
  153.0862  132.7205  165.5792 H   0  0  0  0  0  0  0  0  0  0  0  0
  156.0051  132.9861  164.7605 H   0  0  0  0  0  0  0  0  0  0  0  0
  155.3618  133.1119  166.3833 H   0  0  0  0  0  0  0  0  0  0  0  0
  156.3414  130.8436  165.9279 H   0  0  0  0  0  0  0  0  0  0  0  0
  154.6361  130.7230  166.3135 H   0  0  0  0  0  0  0  0  0  0  0  0
  153.7039  130.1336  162.8720 H   0  0  0  0  0  0  0  0  0  0  0  0
  153.0675  130.3003  164.4966 H   0  0  0  0  0  0  0  0  0  0  0  0
  152.5926  132.3608  163.1716 H   0  0  0  0  0  0  0  0  0  0  0  0
  154.2866  132.5234  162.7724 H   0  0  0  0  0  0  0  0  0  0  0  0
  153.4135  141.2589  163.0443 H   0  0  0  0  0  0  0  0  0  0  0  0
  1  2  1  0  0  0  0
  1 22  1  0  0  0  0
  1 23  1  0  0  0  0
  1 24  1  0  0  0  0
  2 21  2  0  0  0  0
  2  3  1  0  0  0  0
  3  4  2  0  0  0  0
  3 25  1  0  0  0  0
  4  5  1  0  0  0  0
  5  6  1  0  0  0  0
  5 21  1  0  0  0  0
  6  7  1  0  0  0  0
  6  8  1  0  0  0  0
  6 26  1  0  0  0  0
  7 27  1  0  0  0  0
  7 28  1  0  0  0  0
  7 29  1  0  0  0  0
  8  9  1  0  0  0  0
  8 10  1  0  0  0  0
  8 30  1  0  0  0  0
  9 31  1  0  0  0  0
  9 32  1  0  0  0  0
  9 33  1  0  0  0  0
 10 11  1  0  0  0  0
 10 34  1  0  0  0  0
 11 12  1  0  0  0  0
 11 35  1  0  0  0  0
 11 36  1  0  0  0  0
 12 13  2  0  0  0  0
 12 14  1  0  0  0  0
 14 15  1  0  0  0  0
 14 37  1  0  0  0  0
 15 20  1  0  0  0  0
 15 16  1  0  0  0  0
 15 38  1  0  0  0  0
 16 17  1  0  0  0  0
 16 39  1  0  0  0  0
 16 40  1  0  0  0  0
 17 18  1  0  0  0  0
 17 41  1  0  0  0  0
 17 42  1  0  0  0  0
 18 19  1  0  0  0  0
 19 20  1  0  0  0  0
 19 43  1  0  0  0  0
 19 44  1  0  0  0  0
 20 45  1  0  0  0  0
 20 46  1  0  0  0  0
 21 47  1  0  0  0  0
M  END
> <s_m_source_file>
AV-unprocessed.smi

> <i_m_source_file_index>
3028

> <i_lp_mmshare_version>
43012

> <i_f3d_flags>
0

> <s_epik_input>
W0NIM11jMVtjSF1ubihbY0hdMSlbQ0BIXShbQ0gzXSlbQ0BIXShbQ0gzXSlbTkhdW0NIMl1DKD1PKVtOSF1bQ0hdMltDSDJdW0NIMl1PW0NIMl1bQ0gyXTI=

> <s_epik_cmdline>
J2VwaWtfcHl0aG9uJywgJy1waCcsICc3LjAnLCAnLXRuJywgJzgnLCAnLW1hJywgJzIwMCcsICctbWV0YWxfYmluZGluZycsICctaW1hZScsICc8aW5maWxlLm1hZT4nLCAnLW9tYWUnLCAnPG91dGZpbGUubWFlPic=

> <r_lp_tautomer_probability>
1

> <r_epik_Ionization_Penalty>
0.88617

> <r_epik_Ionization_Penalty_Charging>
0

> <r_epik_Ionization_Penalty_Neutral>
0.88617

> <r_epik_State_Penalty>
0.921066

> <r_epik_Charging_Adjusted_Penalty>
0.921066

> <i_epik_Tot_Q>
0

> <i_epik_Tot_abs_Q>
0

> <r_epik_Metal_State_Penalty>
0.917309

> <b_epik_Metal_Only>
0

> <s_lp_Force_Field>
OPLS_2005

> <r_lp_Energy>
18.7055

> <b_lp_Chiralities_Consistent>
1

> <s_lp_Variant>
AV-unprocessed.smi:3028-8

> <Gold.Version>
5.8.1

> <Gold.Id.Protein>
6NUR|6NUR_protein|mol2

> <Gold.PLP.Fitness>
41.6291

> <Gold.PLP.PLP>
-44.1448

> <Gold.PLP.part.hbond>
-1.0000

> <Gold.PLP.part.metal>
0.0000

> <Gold.PLP.part.buried>
-4.6282

> <Gold.PLP.part.nonpolar>
-37.8314

> <Gold.PLP.part.repulsive>
0.0758

> <Gold.PLP.ligand.clash>
0.0000

> <Gold.PLP.ligand.torsion>
1.3338

> <Gold.PLP.Chemscore.Hbond>
0.0000

> <Gold.PLP.Chemscore.CHOScore>
0.0000

> <Gold.PLP.Chemscore.Metal>
0.0000

> <Gold.PLP.Chemscore.Internal.Correction>
0.1518

> <Gold.Rescore>
     Score         DG    S(hbond)    S(metal)    S(lipo)     H(rot)  DE(clash)    DE(int)     intcor
     11.38     -13.87       0.06        0.00     112.19       1.92       0.05       2.44       ----

> <Gold.Chemscore.Fitness>
11.3840

> <Gold.Chemscore.DG>
-13.8748

> <Gold.Chemscore.ZeroCoef>
-5.4800

> <Gold.Chemscore.Hbond>
0.0574

> <Gold.Chemscore.Metal>
0.0000

> <Gold.Chemscore.Lipo>
112.1937

> <Gold.Chemscore.Internal_Hbond>
0.0000

> <Gold.Chemscore.DEClash>
0.0481

> <Gold.Chemscore.DEInternal>
2.4427

> <Gold.Chemscore.Rot>
1.9233

> <Gold.Chemscore.Internal.Correction>
   9.000000E+99

> <Gold.Chemscore.Hbond.Weighted>
-0.1917

> <Gold.Chemscore.Metal.Weighted>
-0.0000

> <Gold.Chemscore.Lipo.Weighted>
-13.1267

> <Gold.Chemscore.Internal_Hbond.Weighted>
0.0000

> <Gold.Chemscore.DEClash.Weighted>
0.0481

> <Gold.Chemscore.DEInternal.Weighted>
2.4427

> <Gold.Chemscore.Rot.Weighted>
4.9235

> <Gold.Chemscore.Internal.Correction.Weighted>
   9.000000E+99

> <Gold.Protein.RotatedTorsions>
[ 6907 6896 6895 6894 ] final -173.00 input  -60.11 | X-H torsion
[ 7974 7965 7964 7962 ] final -119.21 input  175.53 | X-H torsion
[ 8008 7997 7996 7995 ] final -121.74 input   59.86 | X-H torsion
[ 10167 10162 10161 10158 ] final -137.10 input  -65.29 | X-H torsion
[ 10718 10713 10712 10709 ] final  171.18 input   66.30 | X-H torsion
[ 10763 10752 10751 10750 ] final   13.24 input  -60.55 | X-H torsion
[ 11005 11000 10999 10996 ] final   11.34 input  -57.11 | X-H torsion

> <Gold.Protein.ActiveResidues>
 VAL166  LYS551  ARG553  GLY616  TRP617  ASP618  TYR619  PRO620  LYS621  CYS622 
 ASP623  PHE694  ASN695  SER759  ASP760  ASP761  ALA762  ILE779  LEU786  VAL792 
 PHE793  MET794  SER795  GLU796  ALA797  LYS798  CYS799  TRP800  GLU811  SER814 

> <Gold.Protein.RotatedAtoms>
  151.5491  133.3420  159.2949 H   0  0  0  0  0  0  0  0  0  0  0  0  # atno 6907 bound_to 6896
  150.8489  134.7810  159.7004 H   0  0  0  0  0  0  0  0  0  0  0  0  # atno 6908 bound_to 6896
  152.4540  134.5339  159.9871 H   0  0  0  0  0  0  0  0  0  0  0  0  # atno 6909 bound_to 6896
  145.0651  140.8318  143.4129 H   0  0  0  0  0  0  0  0  0  0  0  0  # atno 7974 bound_to 7965
  155.1528  140.0404  157.2825 H   0  0  0  0  0  0  0  0  0  0  0  0  # atno 8008 bound_to 7997
  154.6392  140.2543  155.7316 H   0  0  0  0  0  0  0  0  0  0  0  0  # atno 8009 bound_to 7997
  156.2524  140.2859  156.0778 H   0  0  0  0  0  0  0  0  0  0  0  0  # atno 8010 bound_to 7997
  139.8611  143.7076  152.2650 H   0  0  0  0  0  0  0  0  0  0  0  0  # atno 10167 bound_to 10162
  156.9973  131.0165  151.2840 H   0  0  0  0  0  0  0  0  0  0  0  0  # atno 10718 bound_to 10713
  153.1741  135.6817  153.8567 H   0  0  0  0  0  0  0  0  0  0  0  0  # atno 10763 bound_to 10752
  153.7920  135.3167  155.3381 H   0  0  0  0  0  0  0  0  0  0  0  0  # atno 10764 bound_to 10752
  154.8018  135.4773  154.0386 H   0  0  0  0  0  0  0  0  0  0  0  0  # atno 10765 bound_to 10752
  140.5044  134.0714  155.7802 H   0  0  0  0  0  0  0  0  0  0  0  0  # atno 11005 bound_to 11000
  145.1361  139.2601  143.5514 LP  0  0  0  0  0  0  0  0  0  0  0  0  # atno 17320 bound_to 7965
  146.3526  140.1025  142.8607 LP  0  0  0  0  0  0  0  0  0  0  0  0  # atno 17321 bound_to 7965
  139.7373  144.7568  151.0708 LP  0  0  0  0  0  0  0  0  0  0  0  0  # atno 17342 bound_to 10162
  140.7775  143.5015  150.9765 LP  0  0  0  0  0  0  0  0  0  0  0  0  # atno 17343 bound_to 10162
  157.5415  130.8123  149.8035 LP  0  0  0  0  0  0  0  0  0  0  0  0  # atno 17370 bound_to 10713
  156.0184  130.3804  150.2038 LP  0  0  0  0  0  0  0  0  0  0  0  0  # atno 17371 bound_to 10713
  141.1419  133.9123  157.2306 LP  0  0  0  0  0  0  0  0  0  0  0  0  # atno 17394 bound_to 11000
  139.9695  135.0132  156.9475 LP  0  0  0  0  0  0  0  0  0  0  0  0  # atno 17395 bound_to 11000

$$$$
