AV-unprocessed.smi:1679|AV-procd|sdf|6735|dock4
  -GOLD-   22720 7483D 1   1.00000     0.00000
 Structure written by MMmdl.
 44 45  0  0  0  0  0  0  0  0  2 V2000
  143.2383  135.7735  162.1015 C   0  0  0  0  0  0  0  0  0  0  0  0
  144.6992  135.7423  162.5734 C   0  0  2  0  0  0  0  0  0  0  0  0
  145.4561  137.0226  162.1669 C   0  0  0  0  0  0  0  0  0  0  0  0
  146.8987  137.0188  162.6943 C   0  0  0  0  0  0  0  0  0  0  0  0
  147.6557  135.7615  162.2419 C   0  0  0  0  0  0  0  0  0  0  0  0
  146.9034  134.4801  162.6419 C   0  0  0  0  0  0  0  0  0  0  0  0
  145.4582  134.4743  162.1100 C   0  0  2  0  0  0  0  0  0  0  0  0
  145.5352  134.4316  160.6910 O   0  0  0  0  0  0  0  0  0  0  0  0
  145.9821  133.2018  160.1419 C   0  0  0  0  0  0  0  0  0  0  0  0
  147.4976  133.2837  159.8999 C   0  0  0  0  0  0  0  0  0  0  0  0
  147.8082  133.4099  158.4787 N   0  0  0  0  0  0  0  0  0  0  0  0
  148.5892  134.3606  157.9415 C   0  0  0  0  0  0  0  0  0  0  0  0
  149.1782  135.2064  158.6152 O   0  0  0  0  0  0  0  0  0  0  0  0
  148.7427  134.3372  156.4148 C   0  0  0  0  0  0  0  0  0  0  0  0
  149.6481  135.3918  155.9301 N   0  0  0  0  0  0  0  0  0  0  0  0
  149.0918  136.3867  155.1070 C   0  0  0  0  0  0  0  0  0  0  0  0
  149.8235  137.4139  154.6361 C   0  0  0  0  0  0  0  0  0  0  0  0
  151.2329  137.4801  155.0003 C   0  0  0  0  0  0  0  0  0  0  0  0
  151.9136  138.4185  154.5909 O   0  0  0  0  0  0  0  0  0  0  0  0
  151.7314  136.4834  155.7887 N   0  5  0  0  0  0  0  0  0  0  0  0
  150.9751  135.4424  156.2575 C   0  0  0  0  0  0  0  0  0  0  0  0
  151.4490  134.5516  156.9628 O   0  0  0  0  0  0  0  0  0  0  0  0
  143.1728  135.8349  161.0155 H   0  0  0  0  0  0  0  0  0  0  0  0
  142.7140  136.6372  162.5110 H   0  0  0  0  0  0  0  0  0  0  0  0
  142.7020  134.8799  162.4206 H   0  0  0  0  0  0  0  0  0  0  0  0
  144.6710  135.7176  163.6637 H   0  0  0  0  0  0  0  0  0  0  0  0
  145.4665  137.1202  161.0811 H   0  0  0  0  0  0  0  0  0  0  0  0
  144.9349  137.9016  162.5471 H   0  0  0  0  0  0  0  0  0  0  0  0
  147.4208  137.9115  162.3489 H   0  0  0  0  0  0  0  0  0  0  0  0
  146.8895  137.0675  163.7838 H   0  0  0  0  0  0  0  0  0  0  0  0
  147.7882  135.7873  161.1593 H   0  0  0  0  0  0  0  0  0  0  0  0
  148.6565  135.7553  162.6740 H   0  0  0  0  0  0  0  0  0  0  0  0
  147.4396  133.6054  162.2727 H   0  0  0  0  0  0  0  0  0  0  0  0
  146.8899  134.3951  163.7291 H   0  0  0  0  0  0  0  0  0  0  0  0
  144.9581  133.5837  162.4956 H   0  0  0  0  0  0  0  0  0  0  0  0
  145.7590  132.3969  160.8432 H   0  0  0  0  0  0  0  0  0  0  0  0
  145.4653  132.9710  159.2101 H   0  0  0  0  0  0  0  0  0  0  0  0
  147.9344  134.1069  160.4681 H   0  0  0  0  0  0  0  0  0  0  0  0
  147.9726  132.3720  160.2627 H   0  0  0  0  0  0  0  0  0  0  0  0
  147.3729  132.7467  157.8547 H   0  0  0  0  0  0  0  0  0  0  0  0
  149.0983  133.3500  156.1155 H   0  0  0  0  0  0  0  0  0  0  0  0
  147.7642  134.4404  155.9423 H   0  0  0  0  0  0  0  0  0  0  0  0
  148.0406  136.2680  154.8902 H   0  0  0  0  0  0  0  0  0  0  0  0
  149.3773  138.1721  154.0099 H   0  0  0  0  0  0  0  0  0  0  0  0
  1  2  1  0  0  0  0
  1 23  1  0  0  0  0
  1 24  1  0  0  0  0
  1 25  1  0  0  0  0
  2  7  1  0  0  0  0
  2  3  1  0  0  0  0
  2 26  1  0  0  0  0
  3  4  1  0  0  0  0
  3 27  1  0  0  0  0
  3 28  1  0  0  0  0
  4  5  1  0  0  0  0
  4 29  1  0  0  0  0
  4 30  1  0  0  0  0
  5  6  1  0  0  0  0
  5 31  1  0  0  0  0
  5 32  1  0  0  0  0
  6  7  1  0  0  0  0
  6 33  1  0  0  0  0
  6 34  1  0  0  0  0
  7  8  1  0  0  0  0
  7 35  1  0  0  0  0
  8  9  1  0  0  0  0
  9 10  1  0  0  0  0
  9 36  1  0  0  0  0
  9 37  1  0  0  0  0
 10 11  1  0  0  0  0
 10 38  1  0  0  0  0
 10 39  1  0  0  0  0
 11 12  1  0  0  0  0
 11 40  1  0  0  0  0
 12 13  2  0  0  0  0
 12 14  1  0  0  0  0
 14 15  1  0  0  0  0
 14 41  1  0  0  0  0
 14 42  1  0  0  0  0
 15 21  1  0  0  0  0
 15 16  1  0  0  0  0
 16 17  2  0  0  0  0
 16 43  1  0  0  0  0
 17 18  1  0  0  0  0
 17 44  1  0  0  0  0
 18 19  2  0  0  0  0
 18 20  1  0  0  0  0
 20 21  1  0  0  0  0
 21 22  2  0  0  0  0
M  CHG  1  20  -1
M  END
> <s_m_source_file>
AV-unprocessed.smi

> <i_m_source_file_index>
1679

> <i_lp_mmshare_version>
43012

> <i_f3d_flags>
0

> <s_epik_input>
W0NIM11bQ0BASF0xW0NIMl1bQ0gyXVtDSDJdW0NIMl1bQ0BIXTFPW0NIMl1bQ0gyXVtOSF1DKD1PKVtDSDJdbjJbY0hdW2NIXWMoPU8pW25IXWMyPU8=

> <s_epik_cmdline>
J2VwaWtfcHl0aG9uJywgJy1waCcsICc3LjAnLCAnLXRuJywgJzgnLCAnLW1hJywgJzIwMCcsICctbWV0YWxfYmluZGluZycsICctaW1hZScsICc8aW5maWxlLm1hZT4nLCAnLW9tYWUnLCAnPG91dGZpbGUubWFlPic=

> <r_lp_tautomer_probability>
0.999537

> <r_epik_Ionization_Penalty>
3.07454

> <r_epik_Ionization_Penalty_Charging>
2.80088e-08

> <r_epik_Ionization_Penalty_Neutral>
3.07454

> <r_epik_State_Penalty>
3.07357

> <r_epik_Charging_Adjusted_Penalty>
3.07357

> <i_epik_Tot_Q>
-1

> <i_epik_Tot_abs_Q>
1

> <r_epik_Metal_State_Penalty>
0.45948

> <b_epik_Metal_Only>
1

> <s_lp_Force_Field>
OPLS_2005

> <r_lp_Energy>
19.9019

> <b_lp_Chiralities_Consistent>
1

> <s_lp_Variant>
AV-unprocessed.smi:1679-7

> <Gold.Version>
5.8.1

> <Gold.Id.Protein>
6NUR|6NUR_protein|mol2

> <Gold.PLP.Fitness>
40.5218

> <Gold.PLP.PLP>
-32.7010

> <Gold.PLP.part.hbond>
-3.0000

> <Gold.PLP.part.metal>
0.0000

> <Gold.PLP.part.buried>
-6.0090

> <Gold.PLP.part.nonpolar>
-24.4457

> <Gold.PLP.part.repulsive>
0.1084

> <Gold.PLP.ligand.clash>
0.0000

> <Gold.PLP.ligand.torsion>
0.6653

> <Gold.PLP.Chemscore.Hbond>
3.0000

> <Gold.PLP.Chemscore.CHOScore>
0.0000

> <Gold.PLP.Chemscore.Metal>
0.0000

> <Gold.Chemscore.Hbonds>
donor molecule, donor type, donor heavy atom, donor atom, acceptor molecule, acceptor atom, score
      P1  H  6896  6908       L1    13  1.00
      P1  H 10752 10764       L1    20  1.80

> <Gold.PLP.Chemscore.Internal.Correction>
0.1515

> <Gold.Rescore>
     Score         DG    S(hbond)    S(metal)    S(lipo)     H(rot)  DE(clash)    DE(int)     intcor
     15.70     -16.81       2.90        0.00      67.74       2.45       0.04       1.07       ----

> <Gold.Chemscore.Fitness>
15.6978

> <Gold.Chemscore.DG>
-16.8122

> <Gold.Chemscore.ZeroCoef>
-5.4800

> <Gold.Chemscore.Hbond>
2.8969

> <Gold.Chemscore.Metal>
0.0000

> <Gold.Chemscore.Lipo>
67.7436

> <Gold.Chemscore.Internal_Hbond>
0.0000

> <Gold.Chemscore.DEClash>
0.0436

> <Gold.Chemscore.DEInternal>
1.0708

> <Gold.Chemscore.Rot>
2.4490

> <Gold.Chemscore.Internal.Correction>
   9.000000E+99

> <Gold.Chemscore.Hbonds>
donor molecule, donor type, donor heavy atom, donor atom, acceptor molecule, acceptor atom, score
      P1  H  6896  6908       L1    13  0.74
      P1  H 10752 10764       L1    20  0.16

> <Gold.Chemscore.Hbond.Weighted>
-9.6756

> <Gold.Chemscore.Metal.Weighted>
-0.0000

> <Gold.Chemscore.Lipo.Weighted>
-7.9260

> <Gold.Chemscore.Internal_Hbond.Weighted>
0.0000

> <Gold.Chemscore.DEClash.Weighted>
0.0436

> <Gold.Chemscore.DEInternal.Weighted>
1.0708

> <Gold.Chemscore.Rot.Weighted>
6.2694

> <Gold.Chemscore.Internal.Correction.Weighted>
   9.000000E+99

> <Gold.Protein.RotatedTorsions>
[ 6907 6896 6895 6894 ] final  158.86 input  -60.11 | X-H torsion
[ 7974 7965 7964 7962 ] final  -77.16 input  175.53 | X-H torsion
[ 8008 7997 7996 7995 ] final   98.45 input   59.86 | X-H torsion
[ 10167 10162 10161 10158 ] final  -22.55 input  -65.29 | X-H torsion
[ 10718 10713 10712 10709 ] final   88.91 input   66.30 | X-H torsion
[ 10763 10752 10751 10750 ] final  -25.51 input  -60.55 | X-H torsion
[ 11005 11000 10999 10996 ] final  -35.12 input  -57.11 | X-H torsion

> <Gold.Protein.ActiveResidues>
 VAL166  LYS551  ARG553  GLY616  TRP617  ASP618  TYR619  PRO620  LYS621  CYS622 
 ASP623  PHE694  ASN695  SER759  ASP760  ASP761  ALA762  ILE779  LEU786  VAL792 
 PHE793  MET794  SER795  GLU796  ALA797  LYS798  CYS799  TRP800  GLU811  SER814 

> <Gold.Protein.RotatedAtoms>
  151.9942  133.3802  159.4156 H   0  0  0  0  0  0  0  0  0  0  0  0  # atno 6907 bound_to 6896
  150.6918  134.3904  159.5083 H   0  0  0  0  0  0  0  0  0  0  0  0  # atno 6908 bound_to 6896
  152.1641  134.8887  160.0590 H   0  0  0  0  0  0  0  0  0  0  0  0  # atno 6909 bound_to 6896
  145.6034  140.9403  143.1228 H   0  0  0  0  0  0  0  0  0  0  0  0  # atno 7974 bound_to 7965
  156.1005  140.3243  155.7935 H   0  0  0  0  0  0  0  0  0  0  0  0  # atno 8008 bound_to 7997
  155.4845  140.0556  157.2980 H   0  0  0  0  0  0  0  0  0  0  0  0  # atno 8009 bound_to 7997
  154.4694  140.2004  156.0049 H   0  0  0  0  0  0  0  0  0  0  0  0  # atno 8010 bound_to 7997
  140.7286  143.4524  151.0497 H   0  0  0  0  0  0  0  0  0  0  0  0  # atno 10167 bound_to 10162
  157.6952  131.0313  150.3346 H   0  0  0  0  0  0  0  0  0  0  0  0  # atno 10718 bound_to 10713
  153.7010  135.6956  153.5063 H   0  0  0  0  0  0  0  0  0  0  0  0  # atno 10763 bound_to 10752
  153.2342  135.4327  155.0628 H   0  0  0  0  0  0  0  0  0  0  0  0  # atno 10764 bound_to 10752
  154.8344  135.3492  154.6549 H   0  0  0  0  0  0  0  0  0  0  0  0  # atno 10765 bound_to 10752
  140.9771  133.7077  156.1621 H   0  0  0  0  0  0  0  0  0  0  0  0  # atno 11005 bound_to 11000
  144.7300  139.7755  143.7350 LP  0  0  0  0  0  0  0  0  0  0  0  0  # atno 17320 bound_to 7965
  146.1559  139.4657  143.0019 LP  0  0  0  0  0  0  0  0  0  0  0  0  # atno 17321 bound_to 7965
  139.8202  143.7831  152.3176 LP  0  0  0  0  0  0  0  0  0  0  0  0  # atno 17342 bound_to 10162
  139.7911  144.7410  150.9954 LP  0  0  0  0  0  0  0  0  0  0  0  0  # atno 17343 bound_to 10162
  156.3815  130.3881  149.7098 LP  0  0  0  0  0  0  0  0  0  0  0  0  # atno 17370 bound_to 10713
  156.4478  130.7892  151.2913 LP  0  0  0  0  0  0  0  0  0  0  0  0  # atno 17371 bound_to 10713
  140.7242  134.4325  157.5572 LP  0  0  0  0  0  0  0  0  0  0  0  0  # atno 17394 bound_to 11000
  139.8935  134.8729  156.2221 LP  0  0  0  0  0  0  0  0  0  0  0  0  # atno 17395 bound_to 11000

$$$$
