AV-unprocessed.smi:17|AV-procd|sdf|99|dock10
  -GOLD-   2262015243D 1   1.00000     0.00000
 Structure written by MMmdl.
 57 59  0  0  0  0  0  0  0  0  1 V2000
  150.1899  127.4040  156.4048 C   0  0  0  0  0  0  0  0  0  0  0  0
  151.3085  128.0001  155.5384 C   0  0  0  0  0  0  0  0  0  0  0  0
  151.4643  129.4428  155.7442 N   0  0  0  0  0  0  0  0  0  0  0  0
  150.4336  130.2661  155.4093 C   0  0  0  0  0  0  0  0  0  0  0  0
  150.3430  131.4676  156.0386 N   0  0  0  0  0  0  0  0  0  0  0  0
  149.3624  132.3222  155.7364 C   0  0  0  0  0  0  0  0  0  0  0  0
  148.3741  132.1774  154.8538 N   0  0  0  0  0  0  0  0  0  0  0  0
  148.4427  130.9671  154.2305 C   0  0  0  0  0  0  0  0  0  0  0  0
  149.4254  129.9582  154.4473 C   0  0  0  0  0  0  0  0  0  0  0  0
  149.1448  128.8568  153.6445 N   0  0  0  0  0  0  0  0  0  0  0  0
  148.0781  129.2029  152.9785 C   0  0  0  0  0  0  0  0  0  0  0  0
  147.5941  130.4580  153.2632 N   0  0  0  0  0  0  0  0  0  0  0  0
  146.4300  131.0916  152.6694 C   0  0  0  0  0  0  0  0  0  0  0  0
  146.6966  132.5460  152.2077 C   0  0  2  0  0  0  0  0  0  0  0  0
  146.4506  133.5861  153.3285 C   0  0  0  0  0  0  0  0  0  0  0  0
  146.5270  134.9073  152.8341 O   0  0  0  0  0  0  0  0  0  0  0  0
  145.9162  132.8854  150.9129 C   0  0  2  0  0  0  0  0  0  0  0  0
  144.4333  132.5611  150.9572 C   0  0  0  0  0  0  0  0  0  0  0  0
  144.0666  132.5545  149.4784 C   0  0  0  0  0  0  0  0  0  0  0  0
  145.2136  132.0461  148.8079 O   0  0  0  0  0  0  0  0  0  0  0  0
  146.3425  132.0850  149.6767 C   0  0  0  0  0  0  0  0  0  0  0  0
  152.7214  130.0076  156.2478 C   0  0  2  0  0  0  0  0  0  0  0  0
  153.9167  129.5523  155.3942 C   0  0  0  0  0  0  0  0  0  0  0  0
  152.9495  129.7162  157.7467 C   0  0  0  0  0  0  0  0  0  0  0  0
  154.3609  130.6714  158.4717 S   0  0  0  0  0  0  0  0  0  0  0  0
  154.3459  130.1397  160.2338 C   0  0  0  0  0  0  0  0  0  0  0  0
  155.6041  130.1670  157.8697 O   0  0  0  0  0  0  0  0  0  0  0  0
  154.0553  132.1097  158.4217 O   0  0  0  0  0  0  0  0  0  0  0  0
  150.0770  126.3380  156.2078 H   0  0  0  0  0  0  0  0  0  0  0  0
  149.2322  127.8826  156.1996 H   0  0  0  0  0  0  0  0  0  0  0  0
  150.4025  127.5218  157.4677 H   0  0  0  0  0  0  0  0  0  0  0  0
  152.2486  127.4846  155.7345 H   0  0  0  0  0  0  0  0  0  0  0  0
  151.0794  127.8046  154.4914 H   0  0  0  0  0  0  0  0  0  0  0  0
  149.3717  133.2563  156.2784 H   0  0  0  0  0  0  0  0  0  0  0  0
  147.6130  128.5500  152.2542 H   0  0  0  0  0  0  0  0  0  0  0  0
  146.1145  130.4732  151.8290 H   0  0  0  0  0  0  0  0  0  0  0  0
  145.6122  131.0684  153.3905 H   0  0  0  0  0  0  0  0  0  0  0  0
  147.7586  132.6069  151.9655 H   0  0  0  0  0  0  0  0  0  0  0  0
  145.4743  133.4417  153.7915 H   0  0  0  0  0  0  0  0  0  0  0  0
  147.1802  133.4721  154.1299 H   0  0  0  0  0  0  0  0  0  0  0  0
  147.3950  135.0491  152.4880 H   0  0  0  0  0  0  0  0  0  0  0  0
  146.0231  133.9485  150.6905 H   0  0  0  0  0  0  0  0  0  0  0  0
  144.2687  131.5727  151.3888 H   0  0  0  0  0  0  0  0  0  0  0  0
  143.8495  133.2854  151.5258 H   0  0  0  0  0  0  0  0  0  0  0  0
  143.1801  131.9555  149.2690 H   0  0  0  0  0  0  0  0  0  0  0  0
  143.8804  133.5709  149.1288 H   0  0  0  0  0  0  0  0  0  0  0  0
  147.2055  132.5249  149.1761 H   0  0  0  0  0  0  0  0  0  0  0  0
  146.5973  131.0591  149.9461 H   0  0  0  0  0  0  0  0  0  0  0  0
  152.6863  131.0921  156.1702 H   0  0  0  0  0  0  0  0  0  0  0  0
  154.8336  130.0505  155.7090 H   0  0  0  0  0  0  0  0  0  0  0  0
  153.7608  129.7894  154.3414 H   0  0  0  0  0  0  0  0  0  0  0  0
  154.0820  128.4777  155.4734 H   0  0  0  0  0  0  0  0  0  0  0  0
  152.0592  129.8828  158.3516 H   0  0  0  0  0  0  0  0  0  0  0  0
  153.2080  128.6633  157.8627 H   0  0  0  0  0  0  0  0  0  0  0  0
  155.2088  130.5669  160.7441 H   0  0  0  0  0  0  0  0  0  0  0  0
  154.3976  129.0528  160.2903 H   0  0  0  0  0  0  0  0  0  0  0  0
  153.4392  130.4873  160.7232 H   0  0  0  0  0  0  0  0  0  0  0  0
  1  2  1  0  0  0  0
  1 29  1  0  0  0  0
  1 30  1  0  0  0  0
  1 31  1  0  0  0  0
  2  3  1  0  0  0  0
  2 32  1  0  0  0  0
  2 33  1  0  0  0  0
  3  4  1  0  0  0  0
  3 22  1  0  0  0  0
  4  9  1  0  0  0  0
  4  5  2  0  0  0  0
  5  6  1  0  0  0  0
  6  7  2  0  0  0  0
  6 34  1  0  0  0  0
  7  8  1  0  0  0  0
  8 12  1  0  0  0  0
  8  9  2  0  0  0  0
  9 10  1  0  0  0  0
 10 11  2  0  0  0  0
 11 12  1  0  0  0  0
 11 35  1  0  0  0  0
 12 13  1  0  0  0  0
 13 14  1  0  0  0  0
 13 36  1  0  0  0  0
 13 37  1  0  0  0  0
 14 15  1  0  0  0  0
 14 17  1  0  0  0  0
 14 38  1  0  0  0  0
 15 16  1  0  0  0  0
 15 39  1  0  0  0  0
 15 40  1  0  0  0  0
 16 41  1  0  0  0  0
 17 21  1  0  0  0  0
 17 18  1  0  0  0  0
 17 42  1  0  0  0  0
 18 19  1  0  0  0  0
 18 43  1  0  0  0  0
 18 44  1  0  0  0  0
 19 20  1  0  0  0  0
 19 45  1  0  0  0  0
 19 46  1  0  0  0  0
 20 21  1  0  0  0  0
 21 47  1  0  0  0  0
 21 48  1  0  0  0  0
 22 23  1  0  0  0  0
 22 24  1  0  0  0  0
 22 49  1  0  0  0  0
 23 50  1  0  0  0  0
 23 51  1  0  0  0  0
 23 52  1  0  0  0  0
 24 25  1  0  0  0  0
 24 53  1  0  0  0  0
 24 54  1  0  0  0  0
 25 26  1  0  0  0  0
 25 27  2  0  0  0  0
 25 28  2  0  0  0  0
 26 55  1  0  0  0  0
 26 56  1  0  0  0  0
 26 57  1  0  0  0  0
M  END
> <s_m_source_file>
AV-unprocessed.smi

> <i_m_source_file_index>
17

> <i_lp_mmshare_version>
43012

> <i_f3d_flags>
0

> <s_epik_input>
W0NIM11TKD1PKSg9TylbQ0gyXVtDQEBIXShbQ0gzXSlOKFtDSDJdW0NIM10pYyhuW2NIXW4xKWMoYzEyKW5bY0hdbjJbQ0gyXVtDQEhdKFtDSDJdW09IXSlbQ0BASF0zW0NIMl1bQ0gyXU9bQ0gyXTM=

> <s_epik_cmdline>
J2VwaWtfcHl0aG9uJywgJy1waCcsICc3LjAnLCAnLXRuJywgJzgnLCAnLW1hJywgJzIwMCcsICctbWV0YWxfYmluZGluZycsICctaW1hZScsICc8aW5maWxlLm1hZT4nLCAnLW9tYWUnLCAnPG91dGZpbGUubWFlPic=

> <r_lp_tautomer_probability>
1

> <r_epik_Ionization_Penalty>
0.00119955

> <r_epik_Ionization_Penalty_Charging>
0

> <r_epik_Ionization_Penalty_Neutral>
0.00119955

> <r_epik_State_Penalty>
0.000665399

> <r_epik_Charging_Adjusted_Penalty>
0.000665399

> <i_epik_Tot_Q>
0

> <i_epik_Tot_abs_Q>
0

> <r_epik_Metal_State_Penalty>
-0

> <b_epik_Metal_Only>
0

> <s_lp_Force_Field>
OPLS_2005

> <r_lp_Energy>
33.2615

> <b_lp_Chiralities_Consistent>
1

> <s_lp_Variant>
AV-unprocessed.smi:17-1

> <Gold.Version>
5.8.1

> <Gold.Id.Protein>
6NUR|6NUR_protein|mol2

> <Gold.PLP.Fitness>
42.6803

> <Gold.PLP.PLP>
-41.5876

> <Gold.PLP.part.hbond>
-1.9578

> <Gold.PLP.part.metal>
0.0000

> <Gold.PLP.part.buried>
-4.9316

> <Gold.PLP.part.nonpolar>
-35.1151

> <Gold.PLP.part.repulsive>
0.3823

> <Gold.PLP.ligand.clash>
0.0000

> <Gold.PLP.ligand.torsion>
1.2673

> <Gold.PLP.Chemscore.Hbond>
1.0135

> <Gold.PLP.Chemscore.CHOScore>
0.0000

> <Gold.PLP.Chemscore.Metal>
0.0000

> <Gold.Chemscore.Hbonds>
donor molecule, donor type, donor heavy atom, donor atom, acceptor molecule, acceptor atom, score
      L1  H    16    41       P1  7948  1.00

> <Gold.PLP.Chemscore.Internal.Correction>
0.5867

> <Gold.Rescore>
     Score         DG    S(hbond)    S(metal)    S(lipo)     H(rot)  DE(clash)    DE(int)     intcor
      6.35      -9.22       0.96        0.00      81.21       3.51       0.25       2.62       ----

> <Gold.Chemscore.Fitness>
6.3487

> <Gold.Chemscore.DG>
-9.2204

> <Gold.Chemscore.ZeroCoef>
-5.4800

> <Gold.Chemscore.Hbond>
0.9621

> <Gold.Chemscore.Metal>
0.0000

> <Gold.Chemscore.Lipo>
81.2146

> <Gold.Chemscore.Internal_Hbond>
0.0000

> <Gold.Chemscore.DEClash>
0.2480

> <Gold.Chemscore.DEInternal>
2.6237

> <Gold.Chemscore.Rot>
3.5059

> <Gold.Chemscore.Internal.Correction>
   9.000000E+99

> <Gold.Chemscore.Hbonds>
donor molecule, donor type, donor heavy atom, donor atom, acceptor molecule, acceptor atom, score
      L1  H    16    41       P1  7948  0.91
      P1  H  6896  6908       L1    28  0.01

> <Gold.Chemscore.Hbond.Weighted>
-3.2133

> <Gold.Chemscore.Metal.Weighted>
-0.0000

> <Gold.Chemscore.Lipo.Weighted>
-9.5021

> <Gold.Chemscore.Internal_Hbond.Weighted>
0.0000

> <Gold.Chemscore.DEClash.Weighted>
0.2480

> <Gold.Chemscore.DEInternal.Weighted>
2.6237

> <Gold.Chemscore.Rot.Weighted>
8.9750

> <Gold.Chemscore.Internal.Correction.Weighted>
   9.000000E+99

> <Gold.Protein.RotatedTorsions>
[ 6907 6896 6895 6894 ] final    4.95 input  -60.11 | X-H torsion
[ 7974 7965 7964 7962 ] final  104.85 input  175.53 | X-H torsion
[ 8008 7997 7996 7995 ] final   37.66 input   59.86 | X-H torsion
[ 10167 10162 10161 10158 ] final   22.25 input  -65.29 | X-H torsion
[ 10718 10713 10712 10709 ] final  152.86 input   66.30 | X-H torsion
[ 10763 10752 10751 10750 ] final  -42.75 input  -60.55 | X-H torsion
[ 11005 11000 10999 10996 ] final  -58.84 input  -57.11 | X-H torsion

> <Gold.Protein.ActiveResidues>
 VAL166  LYS551  ARG553  GLY616  TRP617  ASP618  TYR619  PRO620  LYS621  CYS622 
 ASP623  PHE694  ASN695  SER759  ASP760  ASP761  ALA762  ILE779  LEU786  VAL792 
 PHE793  MET794  SER795  GLU796  ALA797  LYS798  CYS799  TRP800  GLU811  SER814 

> <Gold.Protein.RotatedAtoms>
  151.6497  135.1003  160.0157 H   0  0  0  0  0  0  0  0  0  0  0  0  # atno 6907 bound_to 6896
  152.4008  133.6810  159.6323 H   0  0  0  0  0  0  0  0  0  0  0  0  # atno 6908 bound_to 6896
  150.7908  133.8712  159.3300 H   0  0  0  0  0  0  0  0  0  0  0  0  # atno 6909 bound_to 6896
  145.3274  139.2496  143.3679 H   0  0  0  0  0  0  0  0  0  0  0  0  # atno 7974 bound_to 7965
  155.2074  140.3320  155.4334 H   0  0  0  0  0  0  0  0  0  0  0  0  # atno 8008 bound_to 7997
  156.2383  140.1883  156.7107 H   0  0  0  0  0  0  0  0  0  0  0  0  # atno 8009 bound_to 7997
  154.6100  140.0610  156.9467 H   0  0  0  0  0  0  0  0  0  0  0  0  # atno 8010 bound_to 7997
  140.5363  143.9755  150.6493 H   0  0  0  0  0  0  0  0  0  0  0  0  # atno 10167 bound_to 10162
  157.2523  131.0781  151.1721 H   0  0  0  0  0  0  0  0  0  0  0  0  # atno 10718 bound_to 10713
  153.9841  135.6713  153.4751 H   0  0  0  0  0  0  0  0  0  0  0  0  # atno 10763 bound_to 10752
  153.0735  135.4961  154.8351 H   0  0  0  0  0  0  0  0  0  0  0  0  # atno 10764 bound_to 10752
  154.7147  135.3104  154.9104 H   0  0  0  0  0  0  0  0  0  0  0  0  # atno 10765 bound_to 10752
  141.1224  133.6614  156.4980 H   0  0  0  0  0  0  0  0  0  0  0  0  # atno 11005 bound_to 11000
  146.3059  140.3845  142.8687 LP  0  0  0  0  0  0  0  0  0  0  0  0  # atno 17320 bound_to 7965
  144.8891  140.7500  143.5938 LP  0  0  0  0  0  0  0  0  0  0  0  0  # atno 17321 bound_to 7965
  140.3143  143.3178  152.0847 LP  0  0  0  0  0  0  0  0  0  0  0  0  # atno 17342 bound_to 10162
  139.4972  144.6615  151.6453 LP  0  0  0  0  0  0  0  0  0  0  0  0  # atno 17343 bound_to 10162
  157.3264  130.6963  149.6299 LP  0  0  0  0  0  0  0  0  0  0  0  0  # atno 17370 bound_to 10713
  155.9666  130.4320  150.4945 LP  0  0  0  0  0  0  0  0  0  0  0  0  # atno 17371 bound_to 10713
  140.4469  134.6965  157.5020 LP  0  0  0  0  0  0  0  0  0  0  0  0  # atno 17394 bound_to 11000
  140.0192  134.6573  155.9265 LP  0  0  0  0  0  0  0  0  0  0  0  0  # atno 17395 bound_to 11000

$$$$
