AV-unprocessed.smi:3069|AV-procd|sdf|11710|dock1
  -GOLD-   2272017113D 1   1.00000     0.00000
 Structure written by MMmdl.
 39 40  0  0  0  0  0  0  0  0  1 V2000
  153.8191  139.2730  154.7823 N   0  0  0  0  0  0  0  0  0  0  0  0
  152.8385  138.6613  154.8399 C   0  0  0  0  0  0  0  0  0  0  0  0
  151.6035  137.8911  154.9152 C   0  0  0  0  0  0  0  0  0  0  0  0
  151.7288  136.5542  155.0810 N   0  0  0  0  0  0  0  0  0  0  0  0
  150.5906  135.8345  155.1776 C   0  0  0  0  0  0  0  0  0  0  0  0
  149.3230  136.4449  155.1118 C   0  0  0  0  0  0  0  0  0  0  0  0
  149.1876  137.7779  154.9471 N   0  0  0  0  0  0  0  0  0  0  0  0
  150.3241  138.5108  154.8464 C   0  0  0  0  0  0  0  0  0  0  0  0
  150.1934  139.9004  154.6812 N   0  0  0  0  0  0  0  0  0  0  0  0
  150.7841  140.7757  155.6880 C   0  0  0  0  0  0  0  0  0  0  0  0
  150.1312  140.5901  157.0662 C   0  0  0  0  0  0  0  0  0  0  0  0
  149.9767  141.8720  157.6588 O   0  0  0  0  0  0  0  0  0  0  0  0
  151.1376  142.6933  157.6422 C   0  0  0  0  0  0  0  0  0  0  0  0
  152.2481  141.8936  158.3499 C   0  0  0  0  0  0  0  0  0  0  0  0
  152.1520  141.8573  159.8845 C   0  0  0  0  0  0  0  0  0  0  0  0
  152.8824  143.0313  160.5569 C   0  0  0  0  0  0  0  0  0  0  0  0
  152.1998  144.3961  160.3853 C   0  0  0  0  0  0  0  0  0  0  0  0
  151.9718  144.8225  158.9242 C   0  0  0  0  0  0  0  0  0  0  0  0
  150.8048  144.0731  158.2603 C   0  0  0  0  0  0  0  0  0  0  0  0
  150.6918  134.7674  155.3096 H   0  0  0  0  0  0  0  0  0  0  0  0
  148.4164  135.8634  155.1908 H   0  0  0  0  0  0  0  0  0  0  0  0
  150.2857  140.2323  153.7315 H   0  0  0  0  0  0  0  0  0  0  0  0
  151.8476  140.5454  155.7539 H   0  0  0  0  0  0  0  0  0  0  0  0
  150.7140  141.8161  155.3694 H   0  0  0  0  0  0  0  0  0  0  0  0
  149.1545  140.1165  156.9620 H   0  0  0  0  0  0  0  0  0  0  0  0
  150.7423  139.9298  157.6812 H   0  0  0  0  0  0  0  0  0  0  0  0
  151.4559  142.8313  156.6073 H   0  0  0  0  0  0  0  0  0  0  0  0
  152.2242  140.8714  157.9701 H   0  0  0  0  0  0  0  0  0  0  0  0
  153.2246  142.2803  158.0557 H   0  0  0  0  0  0  0  0  0  0  0  0
  151.1128  141.8020  160.2106 H   0  0  0  0  0  0  0  0  0  0  0  0
  152.6214  140.9356  160.2300 H   0  0  0  0  0  0  0  0  0  0  0  0
  152.9655  142.8237  161.6242 H   0  0  0  0  0  0  0  0  0  0  0  0
  153.9071  143.0855  160.1873 H   0  0  0  0  0  0  0  0  0  0  0  0
  151.2518  144.4032  160.9248 H   0  0  0  0  0  0  0  0  0  0  0  0
  152.8206  145.1477  160.8738 H   0  0  0  0  0  0  0  0  0  0  0  0
  151.7246  145.8847  158.9291 H   0  0  0  0  0  0  0  0  0  0  0  0
  152.8856  144.7340  158.3358 H   0  0  0  0  0  0  0  0  0  0  0  0
  150.3923  144.7074  157.4754 H   0  0  0  0  0  0  0  0  0  0  0  0
  150.0014  143.9637  158.9892 H   0  0  0  0  0  0  0  0  0  0  0  0
  1  2  3  0  0  0  0
  2  3  1  0  0  0  0
  3  8  1  0  0  0  0
  3  4  2  0  0  0  0
  4  5  1  0  0  0  0
  5  6  2  0  0  0  0
  5 20  1  0  0  0  0
  6  7  1  0  0  0  0
  6 21  1  0  0  0  0
  7  8  2  0  0  0  0
  8  9  1  0  0  0  0
  9 10  1  0  0  0  0
  9 22  1  0  0  0  0
 10 11  1  0  0  0  0
 10 23  1  0  0  0  0
 10 24  1  0  0  0  0
 11 12  1  0  0  0  0
 11 25  1  0  0  0  0
 11 26  1  0  0  0  0
 12 13  1  0  0  0  0
 13 19  1  0  0  0  0
 13 14  1  0  0  0  0
 13 27  1  0  0  0  0
 14 15  1  0  0  0  0
 14 28  1  0  0  0  0
 14 29  1  0  0  0  0
 15 16  1  0  0  0  0
 15 30  1  0  0  0  0
 15 31  1  0  0  0  0
 16 17  1  0  0  0  0
 16 32  1  0  0  0  0
 16 33  1  0  0  0  0
 17 18  1  0  0  0  0
 17 34  1  0  0  0  0
 17 35  1  0  0  0  0
 18 19  1  0  0  0  0
 18 36  1  0  0  0  0
 18 37  1  0  0  0  0
 19 38  1  0  0  0  0
 19 39  1  0  0  0  0
M  END
> <s_m_source_file>
AV-unprocessed.smi

> <i_m_source_file_index>
3069

> <i_lp_mmshare_version>
43012

> <i_f3d_flags>
0

> <s_epik_input>
TiNDYzFuW2NIXVtjSF1uYzFbTkhdW0NIMl1bQ0gyXU9bQ0hdMltDSDJdW0NIMl1bQ0gyXVtDSDJdW0NIMl1bQ0gyXTI=

> <s_epik_cmdline>
J2VwaWtfcHl0aG9uJywgJy1waCcsICc3LjAnLCAnLXRuJywgJzgnLCAnLW1hJywgJzIwMCcsICctbWV0YWxfYmluZGluZycsICctaW1hZScsICc8aW5maWxlLm1hZT4nLCAnLW9tYWUnLCAnPG91dGZpbGUubWFlPic=

> <r_lp_tautomer_probability>
1

> <r_epik_Ionization_Penalty>
5.57718e-05

> <r_epik_Ionization_Penalty_Charging>
0

> <r_epik_Ionization_Penalty_Neutral>
5.57718e-05

> <r_epik_State_Penalty>
-0

> <r_epik_Charging_Adjusted_Penalty>
0

> <i_epik_Tot_Q>
0

> <i_epik_Tot_abs_Q>
0

> <r_epik_Metal_State_Penalty>
-0

> <b_epik_Metal_Only>
0

> <s_lp_Force_Field>
OPLS_2005

> <r_lp_Energy>
28.0763

> <b_lp_Chiralities_Consistent>
1

> <s_lp_Variant>
AV-unprocessed.smi:3069-1

> <Gold.Version>
5.8.1

> <Gold.Id.Protein>
6NUR|6NUR_protein|mol2

> <Gold.PLP.Fitness>
45.5235

> <Gold.PLP.PLP>
-40.1137

> <Gold.PLP.part.hbond>
-2.9482

> <Gold.PLP.part.metal>
0.0000

> <Gold.PLP.part.buried>
-5.7811

> <Gold.PLP.part.nonpolar>
-32.6825

> <Gold.PLP.part.repulsive>
0.3756

> <Gold.PLP.ligand.clash>
0.0000

> <Gold.PLP.ligand.torsion>
0.3242

> <Gold.PLP.Chemscore.Hbond>
2.0000

> <Gold.PLP.Chemscore.CHOScore>
0.0000

> <Gold.PLP.Chemscore.Metal>
0.0000

> <Gold.Chemscore.Hbonds>
donor molecule, donor type, donor heavy atom, donor atom, acceptor molecule, acceptor atom, score
      P1  H  7997  8009       L1     1  0.98
      P1  H 10752 10763       L1     4  1.00

> <Gold.PLP.Chemscore.Internal.Correction>
0.0582

> <Gold.Rescore>
     Score         DG    S(hbond)    S(metal)    S(lipo)     H(rot)  DE(clash)    DE(int)     intcor
     18.44     -18.80       1.96        0.00     102.31       2.04       0.01       0.36       ----

> <Gold.Chemscore.Fitness>
18.4353

> <Gold.Chemscore.DG>
-18.8016

> <Gold.Chemscore.ZeroCoef>
-5.4800

> <Gold.Chemscore.Hbond>
1.9650

> <Gold.Chemscore.Metal>
0.0000

> <Gold.Chemscore.Lipo>
102.3124

> <Gold.Chemscore.Internal_Hbond>
0.0000

> <Gold.Chemscore.DEClash>
0.0089

> <Gold.Chemscore.DEInternal>
0.3574

> <Gold.Chemscore.Rot>
2.0359

> <Gold.Chemscore.Internal.Correction>
   9.000000E+99

> <Gold.Chemscore.Hbonds>
donor molecule, donor type, donor heavy atom, donor atom, acceptor molecule, acceptor atom, score
      P1  H  7997  8009       L1     1  0.91
      P1  H 10752 10763       L1     4  0.74

> <Gold.Chemscore.Hbond.Weighted>
-6.5629

> <Gold.Chemscore.Metal.Weighted>
-0.0000

> <Gold.Chemscore.Lipo.Weighted>
-11.9706

> <Gold.Chemscore.Internal_Hbond.Weighted>
0.0000

> <Gold.Chemscore.DEClash.Weighted>
0.0089

> <Gold.Chemscore.DEInternal.Weighted>
0.3574

> <Gold.Chemscore.Rot.Weighted>
5.2119

> <Gold.Chemscore.Internal.Correction.Weighted>
   9.000000E+99

> <Gold.Protein.RotatedTorsions>
[ 6907 6896 6895 6894 ] final -164.09 input  -60.11 | X-H torsion
[ 7974 7965 7964 7962 ] final  163.76 input  175.53 | X-H torsion
[ 8008 7997 7996 7995 ] final -120.58 input   59.86 | X-H torsion
[ 10167 10162 10161 10158 ] final   45.12 input  -65.29 | X-H torsion
[ 10718 10713 10712 10709 ] final   45.08 input   66.30 | X-H torsion
[ 10763 10752 10751 10750 ] final   68.58 input  -60.55 | X-H torsion
[ 11005 11000 10999 10996 ] final  -10.32 input  -57.11 | X-H torsion

> <Gold.Protein.ActiveResidues>
 VAL166  LYS551  ARG553  GLY616  TRP617  ASP618  TYR619  PRO620  LYS621  CYS622 
 ASP623  PHE694  ASN695  SER759  ASP760  ASP761  ALA762  ILE779  LEU786  VAL792 
 PHE793  MET794  SER795  GLU796  ALA797  LYS798  CYS799  TRP800  GLU811  SER814 

> <Gold.Protein.RotatedAtoms>
  151.4063  133.3741  159.2738 H   0  0  0  0  0  0  0  0  0  0  0  0  # atno 6907 bound_to 6896
  150.9396  134.8807  159.7614 H   0  0  0  0  0  0  0  0  0  0  0  0  # atno 6908 bound_to 6896
  152.5065  134.4013  159.9469 H   0  0  0  0  0  0  0  0  0  0  0  0  # atno 6909 bound_to 6896
  144.7575  139.8229  143.6344 H   0  0  0  0  0  0  0  0  0  0  0  0  # atno 7974 bound_to 7965
  155.1341  140.0400  157.2782 H   0  0  0  0  0  0  0  0  0  0  0  0  # atno 8008 bound_to 7997
  154.6521  140.2571  155.7176 H   0  0  0  0  0  0  0  0  0  0  0  0  # atno 8009 bound_to 7997
  156.2582  140.2834  156.0959 H   0  0  0  0  0  0  0  0  0  0  0  0  # atno 8010 bound_to 7997
  140.3274  144.2631  150.6173 H   0  0  0  0  0  0  0  0  0  0  0  0  # atno 10167 bound_to 10162
  157.4338  130.8040  149.7628 H   0  0  0  0  0  0  0  0  0  0  0  0  # atno 10718 bound_to 10713
  153.0242  135.5242  154.7156 H   0  0  0  0  0  0  0  0  0  0  0  0  # atno 10763 bound_to 10752
  154.6226  135.2890  155.0311 H   0  0  0  0  0  0  0  0  0  0  0  0  # atno 10764 bound_to 10752
  154.1292  135.6595  153.4971 H   0  0  0  0  0  0  0  0  0  0  0  0  # atno 10765 bound_to 10752
  140.7435  133.8651  155.8987 H   0  0  0  0  0  0  0  0  0  0  0  0  # atno 11005 bound_to 11000
  146.1602  139.4713  142.9993 LP  0  0  0  0  0  0  0  0  0  0  0  0  # atno 17320 bound_to 7965
  145.6730  141.0211  143.1647 LP  0  0  0  0  0  0  0  0  0  0  0  0  # atno 17321 bound_to 7965
  140.5428  143.2220  151.8056 LP  0  0  0  0  0  0  0  0  0  0  0  0  # atno 17342 bound_to 10162
  139.4863  144.4578  151.9578 LP  0  0  0  0  0  0  0  0  0  0  0  0  # atno 17343 bound_to 10162
  155.9923  130.3932  150.2949 LP  0  0  0  0  0  0  0  0  0  0  0  0  # atno 17370 bound_to 10713
  157.1108  131.0221  151.3049 LP  0  0  0  0  0  0  0  0  0  0  0  0  # atno 17371 bound_to 10713
  140.9815  134.1399  157.4490 LP  0  0  0  0  0  0  0  0  0  0  0  0  # atno 17394 bound_to 11000
  139.8801  135.0012  156.6054 LP  0  0  0  0  0  0  0  0  0  0  0  0  # atno 17395 bound_to 11000

$$$$
