AV-unprocessed.smi:3141|AV-procd|sdf|11967|dock3
  -GOLD-   2272017363D 1   1.00000     0.00000
 Structure written by MMmdl.
 35 37  0  0  0  0  0  0  0  0  1 V2000
  147.6982  142.6360  159.5986 O   0  0  0  0  0  0  0  0  0  0  0  0
  148.1239  143.0043  158.5035 C   0  0  0  0  0  0  0  0  0  0  0  0
  149.3295  143.5542  158.3096 N   0  0  0  0  0  0  0  0  0  0  0  0
  150.3091  143.7757  159.3230 C   0  0  0  0  0  0  0  0  0  0  0  0
  150.7368  145.2026  159.5897 C   0  0  0  0  0  0  0  0  0  0  0  0
  151.6730  144.2618  158.8830 C   0  0  0  0  0  0  0  0  0  0  0  0
  147.4454  142.8823  157.3534 N   0  0  0  0  0  0  0  0  0  0  0  0
  146.1220  142.2717  157.2087 C   0  0  1  0  0  0  0  0  0  0  0  0
  145.0254  143.3057  157.5439 C   0  0  0  0  0  0  0  0  0  0  0  0
  144.1714  143.4770  156.2799 C   0  0  0  0  0  0  0  0  0  0  0  0
  145.0504  142.9851  155.1329 C   0  0  0  0  0  0  0  0  0  0  0  0
  145.8167  141.8173  155.7609 C   0  0  1  0  0  0  0  0  0  0  0  0
  146.9623  141.3421  154.9912 N   0  0  0  0  0  0  0  0  0  0  0  0
  147.2555  140.0444  154.5802 C   0  0  0  0  0  0  0  0  0  0  0  0
  148.4176  140.1145  153.8464 C   0  0  0  0  0  0  0  0  0  0  0  0
  148.8498  141.4357  153.7778 N   0  0  0  0  0  0  0  0  0  0  0  0
  147.9361  142.1027  154.4707 C   0  0  0  0  0  0  0  0  0  0  0  0
  149.5836  143.8193  157.3693 H   0  0  0  0  0  0  0  0  0  0  0  0
  150.2958  143.1106  160.1854 H   0  0  0  0  0  0  0  0  0  0  0  0
  150.2765  145.9917  158.9981 H   0  0  0  0  0  0  0  0  0  0  0  0
  150.9753  145.4704  160.6171 H   0  0  0  0  0  0  0  0  0  0  0  0
  152.5365  143.9017  159.4383 H   0  0  0  0  0  0  0  0  0  0  0  0
  151.8381  144.4221  157.8191 H   0  0  0  0  0  0  0  0  0  0  0  0
  147.8852  143.2134  156.5072 H   0  0  0  0  0  0  0  0  0  0  0  0
  146.0348  141.4185  157.8841 H   0  0  0  0  0  0  0  0  0  0  0  0
  144.4120  142.9786  158.3842 H   0  0  0  0  0  0  0  0  0  0  0  0
  145.4608  144.2654  157.8272 H   0  0  0  0  0  0  0  0  0  0  0  0
  143.2834  142.8472  156.3519 H   0  0  0  0  0  0  0  0  0  0  0  0
  143.8353  144.5044  156.1373 H   0  0  0  0  0  0  0  0  0  0  0  0
  144.4717  142.6873  154.2581 H   0  0  0  0  0  0  0  0  0  0  0  0
  145.7256  143.7873  154.8351 H   0  0  0  0  0  0  0  0  0  0  0  0
  145.1157  140.9827  155.8252 H   0  0  0  0  0  0  0  0  0  0  0  0
  146.6336  139.1974  154.8267 H   0  0  0  0  0  0  0  0  0  0  0  0
  148.9662  139.3226  153.3582 H   0  0  0  0  0  0  0  0  0  0  0  0
  147.9723  143.1748  154.5977 H   0  0  0  0  0  0  0  0  0  0  0  0
  1  2  2  0  0  0  0
  2  3  1  0  0  0  0
  2  7  1  0  0  0  0
  3  4  1  0  0  0  0
  3 18  1  0  0  0  0
  4  6  1  0  0  0  0
  4  5  1  0  0  0  0
  4 19  1  0  0  0  0
  5  6  1  0  0  0  0
  5 20  1  0  0  0  0
  5 21  1  0  0  0  0
  6 22  1  0  0  0  0
  6 23  1  0  0  0  0
  7  8  1  0  0  0  0
  7 24  1  0  0  0  0
  8 12  1  0  0  0  0
  8  9  1  0  0  0  0
  8 25  1  0  0  0  0
  9 10  1  0  0  0  0
  9 26  1  0  0  0  0
  9 27  1  0  0  0  0
 10 11  1  0  0  0  0
 10 28  1  0  0  0  0
 10 29  1  0  0  0  0
 11 12  1  0  0  0  0
 11 30  1  0  0  0  0
 11 31  1  0  0  0  0
 12 13  1  0  0  0  0
 12 32  1  0  0  0  0
 13 17  1  0  0  0  0
 13 14  1  0  0  0  0
 14 15  2  0  0  0  0
 14 33  1  0  0  0  0
 15 16  1  0  0  0  0
 15 34  1  0  0  0  0
 16 17  2  0  0  0  0
 17 35  1  0  0  0  0
M  END
> <s_m_source_file>
AV-unprocessed.smi

> <i_m_source_file_index>
3141

> <i_lp_mmshare_version>
43012

> <i_f3d_flags>
0

> <s_epik_input>
W0NIMl0xW0NIMl1bQ0hdMVtOSF1DKD1PKVtOSF1bQ0BASF0yW0NIMl1bQ0gyXVtDSDJdW0NASF0ybjNbY0hdW2NIXW5bY0hdMw==

> <s_epik_cmdline>
J2VwaWtfcHl0aG9uJywgJy1waCcsICc3LjAnLCAnLXRuJywgJzgnLCAnLW1hJywgJzIwMCcsICctbWV0YWxfYmluZGluZycsICctaW1hZScsICc8aW5maWxlLm1hZT4nLCAnLW9tYWUnLCAnPG91dGZpbGUubWFlPic=

> <r_lp_tautomer_probability>
1

> <r_epik_Ionization_Penalty>
0.728419

> <r_epik_Ionization_Penalty_Charging>
0.728357

> <r_epik_Ionization_Penalty_Neutral>
6.27871e-05

> <r_epik_State_Penalty>
0.753408

> <r_epik_Charging_Adjusted_Penalty>
1.48176

> <i_epik_Tot_Q>
0

> <i_epik_Tot_abs_Q>
0

> <r_epik_Metal_State_Penalty>
0.332413

> <b_epik_Metal_Only>
0

> <s_lp_Force_Field>
OPLS_2005

> <r_lp_Energy>
36.0261

> <b_lp_Chiralities_Consistent>
1

> <s_lp_Variant>
AV-unprocessed.smi:3141-6

> <Gold.Version>
5.8.1

> <Gold.Id.Protein>
6NUR|6NUR_protein|mol2

> <Gold.PLP.Fitness>
39.7706

> <Gold.PLP.PLP>
-26.6310

> <Gold.PLP.part.hbond>
-7.0523

> <Gold.PLP.part.metal>
0.0000

> <Gold.PLP.part.buried>
0.7745

> <Gold.PLP.part.nonpolar>
-21.8166

> <Gold.PLP.part.repulsive>
0.7812

> <Gold.PLP.ligand.clash>
0.0000

> <Gold.PLP.ligand.torsion>
0.5528

> <Gold.PLP.Chemscore.Hbond>
3.1742

> <Gold.PLP.Chemscore.CHOScore>
1.5527

> <Gold.PLP.Chemscore.Metal>
0.0000

> <Gold.Chemscore.Hbonds>
donor molecule, donor type, donor heavy atom, donor atom, acceptor molecule, acceptor atom, score
      L1  H     3    18       P1  8028  0.86
      L1  H     7    24       P1  8028  0.72
      P1  H  6933  6944       L1     1  0.58
      P1  H  6934  6946       L1     1  0.27
      P1  H  8011  8017       L1    16  0.77
      L1  C    15    34       P1  7957  0.59
      L1  C    17    35       P1  8028  1.00

> <Gold.PLP.Chemscore.Internal.Correction>
0.0645

> <Gold.Rescore>
     Score         DG    S(hbond)    S(metal)    S(lipo)     H(rot)  DE(clash)    DE(int)     intcor
     12.58     -14.52       2.08        0.00      52.31       1.57       0.38       1.56       ----

> <Gold.Chemscore.Fitness>
12.5834

> <Gold.Chemscore.DG>
-14.5233

> <Gold.Chemscore.ZeroCoef>
-5.4800

> <Gold.Chemscore.Hbond>
2.0791

> <Gold.Chemscore.Metal>
0.0000

> <Gold.Chemscore.Lipo>
52.3058

> <Gold.Chemscore.Internal_Hbond>
0.0000

> <Gold.Chemscore.DEClash>
0.3826

> <Gold.Chemscore.DEInternal>
1.5573

> <Gold.Chemscore.Rot>
1.5705

> <Gold.Chemscore.Internal.Correction>
   9.000000E+99

> <Gold.Chemscore.Hbonds>
donor molecule, donor type, donor heavy atom, donor atom, acceptor molecule, acceptor atom, score
      L1  H     3    18       P1  8028  0.47
      L1  H     7    24       P1  8028  0.10
      P1  H  6933  6944       L1     1  0.55
      P1  H  6934  6946       L1     1  0.27
      P1  H  8011  8017       L1    16  0.70

> <Gold.Chemscore.Hbond.Weighted>
-6.9441

> <Gold.Chemscore.Metal.Weighted>
-0.0000

> <Gold.Chemscore.Lipo.Weighted>
-6.1198

> <Gold.Chemscore.Internal_Hbond.Weighted>
0.0000

> <Gold.Chemscore.DEClash.Weighted>
0.3826

> <Gold.Chemscore.DEInternal.Weighted>
1.5573

> <Gold.Chemscore.Rot.Weighted>
4.0206

> <Gold.Chemscore.Internal.Correction.Weighted>
   9.000000E+99

> <Gold.Protein.RotatedTorsions>
[ 6907 6896 6895 6894 ] final   71.12 input  -60.11 | X-H torsion
[ 7974 7965 7964 7962 ] final   68.56 input  175.53 | X-H torsion
[ 8008 7997 7996 7995 ] final  147.76 input   59.86 | X-H torsion
[ 10167 10162 10161 10158 ] final  173.87 input  -65.29 | X-H torsion
[ 10718 10713 10712 10709 ] final   69.01 input   66.30 | X-H torsion
[ 10763 10752 10751 10750 ] final  177.31 input  -60.55 | X-H torsion
[ 11005 11000 10999 10996 ] final   38.13 input  -57.11 | X-H torsion

> <Gold.Protein.ActiveResidues>
 VAL166  LYS551  ARG553  GLY616  TRP617  ASP618  TYR619  PRO620  LYS621  CYS622 
 ASP623  PHE694  ASN695  SER759  ASP760  ASP761  ALA762  ILE779  LEU786  VAL792 
 PHE793  MET794  SER795  GLU796  ALA797  LYS798  CYS799  TRP800  GLU811  SER814 

> <Gold.Protein.RotatedAtoms>
  152.4791  134.4768  159.9652 H   0  0  0  0  0  0  0  0  0  0  0  0  # atno 6907 bound_to 6896
  151.4777  133.3548  159.2841 H   0  0  0  0  0  0  0  0  0  0  0  0  # atno 6908 bound_to 6896
  150.8850  134.8272  159.7313 H   0  0  0  0  0  0  0  0  0  0  0  0  # atno 6909 bound_to 6896
  145.8010  139.2982  143.1154 H   0  0  0  0  0  0  0  0  0  0  0  0  # atno 7974 bound_to 7965
  156.2814  140.2147  156.5589 H   0  0  0  0  0  0  0  0  0  0  0  0  # atno 8008 bound_to 7997
  154.7229  140.0502  157.0679 H   0  0  0  0  0  0  0  0  0  0  0  0  # atno 8009 bound_to 7997
  155.0454  140.3150  155.4713 H   0  0  0  0  0  0  0  0  0  0  0  0  # atno 8010 bound_to 7997
  139.5122  144.3211  152.0201 H   0  0  0  0  0  0  0  0  0  0  0  0  # atno 10167 bound_to 10162
  157.6322  130.9403  150.0455 H   0  0  0  0  0  0  0  0  0  0  0  0  # atno 10718 bound_to 10713
  154.4928  135.2780  155.1483 H   0  0  0  0  0  0  0  0  0  0  0  0  # atno 10763 bound_to 10752
  154.3148  135.6221  153.5485 H   0  0  0  0  0  0  0  0  0  0  0  0  # atno 10764 bound_to 10752
  152.9890  135.5728  154.5353 H   0  0  0  0  0  0  0  0  0  0  0  0  # atno 10765 bound_to 10752
  140.2156  134.3702  155.8028 H   0  0  0  0  0  0  0  0  0  0  0  0  # atno 11005 bound_to 11000
  145.9877  140.8629  143.0082 LP  0  0  0  0  0  0  0  0  0  0  0  0  # atno 17320 bound_to 7965
  144.6769  140.2171  143.7370 LP  0  0  0  0  0  0  0  0  0  0  0  0  # atno 17321 bound_to 7965
  140.2653  144.4023  150.6170 LP  0  0  0  0  0  0  0  0  0  0  0  0  # atno 17342 bound_to 10162
  140.6128  143.2170  151.6853 LP  0  0  0  0  0  0  0  0  0  0  0  0  # atno 17343 bound_to 10162
  156.1533  130.3643  149.9406 LP  0  0  0  0  0  0  0  0  0  0  0  0  # atno 17370 bound_to 10713
  156.7420  130.9083  151.3632 LP  0  0  0  0  0  0  0  0  0  0  0  0  # atno 17371 bound_to 10713
  141.2225  133.7166  156.8491 LP  0  0  0  0  0  0  0  0  0  0  0  0  # atno 17394 bound_to 11000
  140.1904  134.8970  157.3053 LP  0  0  0  0  0  0  0  0  0  0  0  0  # atno 17395 bound_to 11000

$$$$
