AV-unprocessed.smi:2809|AV-procd|sdf|10826|dock10
  -GOLD-   2272015263D 1   1.00000     0.00000
 Structure written by MMmdl.
 44 45  0  0  0  0  0  0  0  0  1 V2000
  151.7082  145.5933  159.1571 C   0  0  0  0  0  0  0  0  0  0  0  0
  151.7577  144.8244  157.8325 C   0  0  0  0  0  0  0  0  0  0  0  0
  151.6052  143.3280  158.0292 C   0  0  0  0  0  0  0  0  0  0  0  0
  151.3299  142.4915  156.9294 C   0  0  0  0  0  0  0  0  0  0  0  0
  151.1856  141.1034  157.1161 C   0  0  0  0  0  0  0  0  0  0  0  0
  151.3127  140.5296  158.3976 C   0  0  0  0  0  0  0  0  0  0  0  0
  151.1491  139.1643  158.4886 O   0  0  0  0  0  0  0  0  0  0  0  0
  150.3560  138.5111  157.5048 C   0  0  0  0  0  0  0  0  0  0  0  0
  149.7205  137.2471  158.1076 C   0  0  1  0  0  0  0  0  0  0  0  0
  150.6887  136.6379  158.9380 O   0  0  0  0  0  0  0  0  0  0  0  0
  148.4300  137.5367  158.9062 C   0  0  0  0  0  0  0  0  0  0  0  0
  147.9644  136.3557  159.6520 N   0  0  0  0  0  0  0  0  0  0  0  0
  148.1044  135.1172  159.0049 C   0  0  0  0  0  0  0  0  0  0  0  0
  147.7234  134.0136  159.5603 N   0  0  0  0  0  0  0  0  0  0  0  0
  147.1512  134.0364  160.8356 C   0  0  0  0  0  0  0  0  0  0  0  0
  146.7339  132.6865  161.3918 C   0  0  0  0  0  0  0  0  0  0  0  0
  146.9841  135.2041  161.5148 C   0  0  0  0  0  0  0  0  0  0  0  0
  146.3613  135.2908  162.9025 C   0  0  0  0  0  0  0  0  0  0  0  0
  147.4114  136.4685  160.8942 C   0  0  0  0  0  0  0  0  0  0  0  0
  147.2800  137.5624  161.4469 O   0  0  0  0  0  0  0  0  0  0  0  0
  151.5959  141.3751  159.4997 C   0  0  0  0  0  0  0  0  0  0  0  0
  151.7399  142.7640  159.3138 C   0  0  0  0  0  0  0  0  0  0  0  0
  151.8193  146.6646  158.9879 H   0  0  0  0  0  0  0  0  0  0  0  0
  152.5089  145.2774  159.8264 H   0  0  0  0  0  0  0  0  0  0  0  0
  150.7594  145.4342  159.6701 H   0  0  0  0  0  0  0  0  0  0  0  0
  150.9692  145.1802  157.1683 H   0  0  0  0  0  0  0  0  0  0  0  0
  152.7010  145.0260  157.3234 H   0  0  0  0  0  0  0  0  0  0  0  0
  151.2280  142.9111  155.9392 H   0  0  0  0  0  0  0  0  0  0  0  0
  150.9732  140.4718  156.2659 H   0  0  0  0  0  0  0  0  0  0  0  0
  149.5618  139.1874  157.1843 H   0  0  0  0  0  0  0  0  0  0  0  0
  150.9470  138.2529  156.6242 H   0  0  0  0  0  0  0  0  0  0  0  0
  149.5118  136.5567  157.2897 H   0  0  0  0  0  0  0  0  0  0  0  0
  151.5022  136.5864  158.4593 H   0  0  0  0  0  0  0  0  0  0  0  0
  148.5679  138.4034  159.5562 H   0  0  0  0  0  0  0  0  0  0  0  0
  147.6413  137.8430  158.2163 H   0  0  0  0  0  0  0  0  0  0  0  0
  148.5493  135.1548  158.0090 H   0  0  0  0  0  0  0  0  0  0  0  0
  147.2794  132.4667  162.3097 H   0  0  0  0  0  0  0  0  0  0  0  0
  146.9379  131.8835  160.6823 H   0  0  0  0  0  0  0  0  0  0  0  0
  145.6655  132.6765  161.6089 H   0  0  0  0  0  0  0  0  0  0  0  0
  145.4400  135.8724  162.8635 H   0  0  0  0  0  0  0  0  0  0  0  0
  147.0456  135.7849  163.5932 H   0  0  0  0  0  0  0  0  0  0  0  0
  146.1189  134.3173  163.3257 H   0  0  0  0  0  0  0  0  0  0  0  0
  151.7076  140.9835  160.4991 H   0  0  0  0  0  0  0  0  0  0  0  0
  151.9551  143.3961  160.1629 H   0  0  0  0  0  0  0  0  0  0  0  0
  1  2  1  0  0  0  0
  1 23  1  0  0  0  0
  1 24  1  0  0  0  0
  1 25  1  0  0  0  0
  2  3  1  0  0  0  0
  2 26  1  0  0  0  0
  2 27  1  0  0  0  0
  3 22  1  0  0  0  0
  3  4  2  0  0  0  0
  4  5  1  0  0  0  0
  4 28  1  0  0  0  0
  5  6  2  0  0  0  0
  5 29  1  0  0  0  0
  6  7  1  0  0  0  0
  6 21  1  0  0  0  0
  7  8  1  0  0  0  0
  8  9  1  0  0  0  0
  8 30  1  0  0  0  0
  8 31  1  0  0  0  0
  9 10  1  0  0  0  0
  9 11  1  0  0  0  0
  9 32  1  0  0  0  0
 10 33  1  0  0  0  0
 11 12  1  0  0  0  0
 11 34  1  0  0  0  0
 11 35  1  0  0  0  0
 12 19  1  0  0  0  0
 12 13  1  0  0  0  0
 13 14  2  0  0  0  0
 13 36  1  0  0  0  0
 14 15  1  0  0  0  0
 15 16  1  0  0  0  0
 15 17  2  0  0  0  0
 16 37  1  0  0  0  0
 16 38  1  0  0  0  0
 16 39  1  0  0  0  0
 17 18  1  0  0  0  0
 17 19  1  0  0  0  0
 18 40  1  0  0  0  0
 18 41  1  0  0  0  0
 18 42  1  0  0  0  0
 19 20  2  0  0  0  0
 21 22  2  0  0  0  0
 21 43  1  0  0  0  0
 22 44  1  0  0  0  0
M  END
> <s_m_source_file>
AV-unprocessed.smi

> <i_m_source_file_index>
2809

> <i_lp_mmshare_version>
43012

> <i_f3d_flags>
0

> <s_epik_input>
W0NIM11bQ0gyXWMxW2NIXVtjSF1jKFtjSF1bY0hdMSlPW0NIMl1bQ0BIXShbT0hdKVtDSDJdbjJbY0hdbmMoW0NIM10pYyhbQ0gzXSljMj1P

> <s_epik_cmdline>
J2VwaWtfcHl0aG9uJywgJy1waCcsICc3LjAnLCAnLXRuJywgJzgnLCAnLW1hJywgJzIwMCcsICctbWV0YWxfYmluZGluZycsICctaW1hZScsICc8aW5maWxlLm1hZT4nLCAnLW9tYWUnLCAnPG91dGZpbGUubWFlPic=

> <r_lp_tautomer_probability>
1

> <r_epik_Ionization_Penalty>
3.74127e-05

> <r_epik_Ionization_Penalty_Charging>
8.43242e-08

> <r_epik_Ionization_Penalty_Neutral>
3.73284e-05

> <r_epik_State_Penalty>
-0

> <r_epik_Charging_Adjusted_Penalty>
8.43242e-08

> <i_epik_Tot_Q>
0

> <i_epik_Tot_abs_Q>
0

> <r_epik_Metal_State_Penalty>
-0

> <b_epik_Metal_Only>
0

> <s_lp_Force_Field>
OPLS_2005

> <r_lp_Energy>
23.3526

> <b_lp_Chiralities_Consistent>
1

> <s_lp_Variant>
AV-unprocessed.smi:2809-2

> <Gold.Version>
5.8.1

> <Gold.Id.Protein>
6NUR|6NUR_protein|mol2

> <Gold.PLP.Fitness>
49.9926

> <Gold.PLP.PLP>
-44.9078

> <Gold.PLP.part.hbond>
-2.9855

> <Gold.PLP.part.metal>
0.0000

> <Gold.PLP.part.buried>
-4.9860

> <Gold.PLP.part.nonpolar>
-36.8302

> <Gold.PLP.part.repulsive>
0.0000

> <Gold.PLP.ligand.clash>
0.0461

> <Gold.PLP.ligand.torsion>
1.2740

> <Gold.PLP.Chemscore.Hbond>
2.5409

> <Gold.PLP.Chemscore.CHOScore>
0.0000

> <Gold.PLP.Chemscore.Metal>
0.0000

> <Gold.Chemscore.Hbonds>
donor molecule, donor type, donor heavy atom, donor atom, acceptor molecule, acceptor atom, score
      P1  H  6896  6908       L1    10  0.55
      P1  H  6931  6943       L1    20  0.69
      P1  H  6934  6947       L1    20  0.91

> <Gold.PLP.Chemscore.Internal.Correction>
0.0562

> <Gold.Rescore>
     Score         DG    S(hbond)    S(metal)    S(lipo)     H(rot)  DE(clash)    DE(int)     intcor
     17.74     -20.24       2.33        0.00     113.44       2.47       0.04       2.46       ----

> <Gold.Chemscore.Fitness>
17.7386

> <Gold.Chemscore.DG>
-20.2377

> <Gold.Chemscore.ZeroCoef>
-5.4800

> <Gold.Chemscore.Hbond>
2.3345

> <Gold.Chemscore.Metal>
0.0000

> <Gold.Chemscore.Lipo>
113.4407

> <Gold.Chemscore.Internal_Hbond>
0.0000

> <Gold.Chemscore.DEClash>
0.0433

> <Gold.Chemscore.DEInternal>
2.4557

> <Gold.Chemscore.Rot>
2.4657

> <Gold.Chemscore.Internal.Correction>
   9.000000E+99

> <Gold.Chemscore.Hbonds>
donor molecule, donor type, donor heavy atom, donor atom, acceptor molecule, acceptor atom, score
      P1  H  6896  6908       L1    10  0.03
      P1  H  6931  6943       L1    20  0.50
      P1  H  6934  6947       L1    20  0.83

> <Gold.Chemscore.Hbond.Weighted>
-7.7972

> <Gold.Chemscore.Metal.Weighted>
-0.0000

> <Gold.Chemscore.Lipo.Weighted>
-13.2726

> <Gold.Chemscore.Internal_Hbond.Weighted>
0.0000

> <Gold.Chemscore.DEClash.Weighted>
0.0433

> <Gold.Chemscore.DEInternal.Weighted>
2.4557

> <Gold.Chemscore.Rot.Weighted>
6.3121

> <Gold.Chemscore.Internal.Correction.Weighted>
   9.000000E+99

> <Gold.Protein.RotatedTorsions>
[ 6907 6896 6895 6894 ] final -155.22 input  -60.11 | X-H torsion
[ 7974 7965 7964 7962 ] final   32.41 input  175.53 | X-H torsion
[ 8008 7997 7996 7995 ] final  -50.96 input   59.86 | X-H torsion
[ 10167 10162 10161 10158 ] final  175.17 input  -65.29 | X-H torsion
[ 10718 10713 10712 10709 ] final  170.85 input   66.30 | X-H torsion
[ 10763 10752 10751 10750 ] final  128.25 input  -60.55 | X-H torsion
[ 11005 11000 10999 10996 ] final -177.15 input  -57.11 | X-H torsion

> <Gold.Protein.ActiveResidues>
 VAL166  LYS551  ARG553  GLY616  TRP617  ASP618  TYR619  PRO620  LYS621  CYS622 
 ASP623  PHE694  ASN695  SER759  ASP760  ASP761  ALA762  ILE779  LEU786  VAL792 
 PHE793  MET794  SER795  GLU796  ALA797  LYS798  CYS799  TRP800  GLU811  SER814 

> <Gold.Protein.RotatedAtoms>
  151.2692  133.4264  159.2620 H   0  0  0  0  0  0  0  0  0  0  0  0  # atno 6907 bound_to 6896
  151.0461  134.9641  159.8197 H   0  0  0  0  0  0  0  0  0  0  0  0  # atno 6908 bound_to 6896
  152.5374  134.2648  159.9001 H   0  0  0  0  0  0  0  0  0  0  0  0  # atno 6909 bound_to 6896
  146.1488  139.6529  142.9113 H   0  0  0  0  0  0  0  0  0  0  0  0  # atno 7974 bound_to 7965
  154.4072  140.1259  156.4750 H   0  0  0  0  0  0  0  0  0  0  0  0  # atno 8008 bound_to 7997
  155.7141  140.3493  155.4967 H   0  0  0  0  0  0  0  0  0  0  0  0  # atno 8009 bound_to 7997
  155.9274  140.1063  157.1150 H   0  0  0  0  0  0  0  0  0  0  0  0  # atno 8010 bound_to 7997
  139.5168  144.3062  152.0333 H   0  0  0  0  0  0  0  0  0  0  0  0  # atno 10167 bound_to 10162
  157.0022  131.0179  151.2827 H   0  0  0  0  0  0  0  0  0  0  0  0  # atno 10718 bound_to 10713
  153.7226  135.3251  155.3269 H   0  0  0  0  0  0  0  0  0  0  0  0  # atno 10763 bound_to 10752
  154.8351  135.4503  154.1202 H   0  0  0  0  0  0  0  0  0  0  0  0  # atno 10764 bound_to 10752
  153.2327  135.6962  153.7952 H   0  0  0  0  0  0  0  0  0  0  0  0  # atno 10765 bound_to 10752
  140.4441  134.6404  157.4771 H   0  0  0  0  0  0  0  0  0  0  0  0  # atno 11005 bound_to 11000
  145.4874  141.0438  143.2612 LP  0  0  0  0  0  0  0  0  0  0  0  0  # atno 17320 bound_to 7965
  144.7878  139.6390  143.7126 LP  0  0  0  0  0  0  0  0  0  0  0  0  # atno 17321 bound_to 7965
  140.2508  144.4171  150.6222 LP  0  0  0  0  0  0  0  0  0  0  0  0  # atno 17342 bound_to 10162
  140.6226  143.2178  151.6663 LP  0  0  0  0  0  0  0  0  0  0  0  0  # atno 17343 bound_to 10162
  157.5382  130.8102  149.7997 LP  0  0  0  0  0  0  0  0  0  0  0  0  # atno 17370 bound_to 10713
  156.0167  130.3811  150.2089 LP  0  0  0  0  0  0  0  0  0  0  0  0  # atno 17371 bound_to 10713
  140.0050  134.6778  155.9470 LP  0  0  0  0  0  0  0  0  0  0  0  0  # atno 17394 bound_to 11000
  141.1693  133.6537  156.4592 LP  0  0  0  0  0  0  0  0  0  0  0  0  # atno 17395 bound_to 11000

$$$$
