AV-unprocessed.smi:49|AV-procd|sdf|483|dock4
  -GOLD-   2262016343D 1   1.00000     0.00000
 Structure written by MMmdl.
 27 28  0  0  0  0  0  0  0  0  3 V2000
  149.4764  133.4742  154.5623 C   0  0  0  0  0  0  0  0  0  0  0  0
  150.0199  134.3730  155.6775 C   0  0  0  0  0  0  0  0  0  0  0  0
  150.1344  135.8172  155.2411 C   0  0  0  0  0  0  0  0  0  0  0  0
  149.1283  136.5979  154.8597 N   0  0  0  0  0  0  0  0  0  0  0  0
  149.6702  137.7968  154.6080 C   0  0  0  0  0  0  0  0  0  0  0  0
  148.8898  138.9950  154.1029 C   0  0  2  0  0  0  0  0  0  0  0  0
  147.7173  139.3571  155.0262 C   0  0  0  0  0  0  0  0  0  0  0  0
  146.5125  138.7034  154.3558 C   0  0  1  0  0  0  0  0  0  0  0  0
  145.2998  139.3374  154.7039 O   0  0  0  0  0  0  0  0  0  0  0  0
  146.8370  138.8492  152.8698 C   0  0  0  0  0  0  0  0  0  0  0  0
  148.3018  138.7091  152.7765 N   0  3  0  0  0  0  0  0  0  0  0  0
  150.9965  137.7712  154.8175 N   0  0  0  0  0  0  0  0  0  0  0  0
  151.2635  136.5473  155.2216 N   0  5  0  0  0  0  0  0  0  0  0  0
  149.5750  139.8392  154.0168 H   0  0  0  0  0  0  0  0  0  0  0  0
  146.4656  137.6473  154.6254 H   0  0  0  0  0  0  0  0  0  0  0  0
  149.4031  132.4396  154.8974 H   0  0  0  0  0  0  0  0  0  0  0  0
  150.1274  133.4971  153.6880 H   0  0  0  0  0  0  0  0  0  0  0  0
  148.4826  133.7954  154.2491 H   0  0  0  0  0  0  0  0  0  0  0  0
  149.3685  134.3194  156.5504 H   0  0  0  0  0  0  0  0  0  0  0  0
  151.0017  134.0211  155.9952 H   0  0  0  0  0  0  0  0  0  0  0  0
  147.8632  139.0470  156.0619 H   0  0  0  0  0  0  0  0  0  0  0  0
  147.5881  140.4408  155.0239 H   0  0  0  0  0  0  0  0  0  0  0  0
  144.8877  139.6530  153.9137 H   0  0  0  0  0  0  0  0  0  0  0  0
  146.3195  138.1182  152.2483 H   0  0  0  0  0  0  0  0  0  0  0  0
  146.5697  139.8459  152.5156 H   0  0  0  0  0  0  0  0  0  0  0  0
  148.6780  139.3272  152.0725 H   0  0  0  0  0  0  0  0  0  0  0  0
  148.5268  137.7517  152.5442 H   0  0  0  0  0  0  0  0  0  0  0  0
  1  2  1  0  0  0  0
  1 16  1  0  0  0  0
  1 17  1  0  0  0  0
  1 18  1  0  0  0  0
  2  3  1  0  0  0  0
  2 19  1  0  0  0  0
  2 20  1  0  0  0  0
  3 13  1  0  0  0  0
  3  4  2  0  0  0  0
  4  5  1  0  0  0  0
  5  6  1  0  0  0  0
  5 12  2  0  0  0  0
  6 14  1  0  0  0  0
  6 11  1  0  0  0  0
  6  7  1  0  0  0  0
  7  8  1  0  0  0  0
  7 21  1  0  0  0  0
  7 22  1  0  0  0  0
  8 15  1  0  0  0  0
  8  9  1  0  0  0  0
  8 10  1  0  0  0  0
  9 23  1  0  0  0  0
 10 11  1  0  0  0  0
 10 24  1  0  0  0  0
 10 25  1  0  0  0  0
 11 26  1  0  0  0  0
 11 27  1  0  0  0  0
 12 13  1  0  0  0  0
M  CHG  1  11   1
M  CHG  1  13  -1
M  END
> <s_m_source_file>
AV-unprocessed.smi

> <i_m_source_file_index>
49

> <i_lp_mmshare_version>
43012

> <i_f3d_flags>
0

> <s_epik_input>
W0NIM11bQ0gyXWMxbmMobltuSF0xKVtDQEBIXTJbQ0gyXVtDQEBIXShbT0hdKVtDSDJdW05IXTI=

> <s_epik_cmdline>
J2VwaWtfcHl0aG9uJywgJy1waCcsICc3LjAnLCAnLXRuJywgJzgnLCAnLW1hJywgJzIwMCcsICctbWV0YWxfYmluZGluZycsICctaW1hZScsICc8aW5maWxlLm1hZT4nLCAnLW9tYWUnLCAnPG91dGZpbGUubWFlPic=

> <r_lp_tautomer_probability>
0.948284

> <r_epik_Ionization_Penalty>
3.22013

> <r_epik_Ionization_Penalty_Charging>
3.22013

> <r_epik_Ionization_Penalty_Neutral>
3.9133e-08

> <r_epik_State_Penalty>
2.79459

> <r_epik_Charging_Adjusted_Penalty>
6.01472

> <i_epik_Tot_Q>
0

> <i_epik_Tot_abs_Q>
2

> <r_epik_Metal_State_Penalty>
0.589377

> <b_epik_Metal_Only>
1

> <s_lp_Force_Field>
OPLS_2005

> <r_lp_Energy>
10.361

> <b_lp_Chiralities_Consistent>
1

> <s_lp_Variant>
AV-unprocessed.smi:49-21

> <Gold.Version>
5.8.1

> <Gold.Id.Protein>
6NUR|6NUR_protein|mol2

> <Gold.PLP.Fitness>
34.1910

> <Gold.PLP.PLP>
-16.7489

> <Gold.PLP.part.hbond>
-3.7612

> <Gold.PLP.part.metal>
0.0000

> <Gold.PLP.part.buried>
-3.2909

> <Gold.PLP.part.nonpolar>
-11.2881

> <Gold.PLP.part.repulsive>
1.2162

> <Gold.PLP.ligand.clash>
0.0000

> <Gold.PLP.ligand.torsion>
0.0398

> <Gold.PLP.Chemscore.Hbond>
5.8363

> <Gold.PLP.Chemscore.CHOScore>
0.0000

> <Gold.PLP.Chemscore.Metal>
0.0000

> <Gold.Chemscore.Hbonds>
donor molecule, donor type, donor heavy atom, donor atom, acceptor molecule, acceptor atom, score
      L1  H     9    23       P1 10175  0.96
      L1  H    11    26       P1  7957  0.84
      L1  H    11    27       P1  7948  2.00
      P1  H 10752 10764       L1    13  2.00

> <Gold.PLP.Chemscore.Internal.Correction>
0.0130

> <Gold.Rescore>
     Score         DG    S(hbond)    S(metal)    S(lipo)     H(rot)  DE(clash)    DE(int)     intcor
     16.09     -16.45       3.74        0.00      27.65       1.86       0.13       0.22       ----

> <Gold.Chemscore.Fitness>
16.0947

> <Gold.Chemscore.DG>
-16.4474

> <Gold.Chemscore.ZeroCoef>
-5.4800

> <Gold.Chemscore.Hbond>
3.7381

> <Gold.Chemscore.Metal>
0.0000

> <Gold.Chemscore.Lipo>
27.6529

> <Gold.Chemscore.Internal_Hbond>
0.0000

> <Gold.Chemscore.DEClash>
0.1340

> <Gold.Chemscore.DEInternal>
0.2187

> <Gold.Chemscore.Rot>
1.8567

> <Gold.Chemscore.Internal.Correction>
   9.000000E+99

> <Gold.Chemscore.Hbonds>
donor molecule, donor type, donor heavy atom, donor atom, acceptor molecule, acceptor atom, score
      L1  H     9    23       P1 10175  0.91
      L1  H    11    26       P1  7957  0.82
      L1  H    11    27       P1  7948  1.00
      P1  H 10752 10764       L1    13  0.87

> <Gold.Chemscore.Hbond.Weighted>
-12.4851

> <Gold.Chemscore.Metal.Weighted>
-0.0000

> <Gold.Chemscore.Lipo.Weighted>
-3.2354

> <Gold.Chemscore.Internal_Hbond.Weighted>
0.0000

> <Gold.Chemscore.DEClash.Weighted>
0.1340

> <Gold.Chemscore.DEInternal.Weighted>
0.2187

> <Gold.Chemscore.Rot.Weighted>
4.7531

> <Gold.Chemscore.Internal.Correction.Weighted>
   9.000000E+99

> <Gold.Protein.RotatedTorsions>
[ 6907 6896 6895 6894 ] final   23.92 input  -60.11 | X-H torsion
[ 7974 7965 7964 7962 ] final  165.50 input  175.53 | X-H torsion
[ 8008 7997 7996 7995 ] final  -72.80 input   59.86 | X-H torsion
[ 10167 10162 10161 10158 ] final    3.11 input  -65.29 | X-H torsion
[ 10718 10713 10712 10709 ] final  127.59 input   66.30 | X-H torsion
[ 10763 10752 10751 10750 ] final  -54.78 input  -60.55 | X-H torsion
[ 11005 11000 10999 10996 ] final   49.49 input  -57.11 | X-H torsion

> <Gold.Protein.ActiveResidues>
 VAL166  LYS551  ARG553  GLY616  TRP617  ASP618  TYR619  PRO620  LYS621  CYS622 
 ASP623  PHE694  ASN695  SER759  ASP760  ASP761  ALA762  ILE779  LEU786  VAL792 
 PHE793  MET794  SER795  GLU796  ALA797  LYS798  CYS799  TRP800  GLU811  SER814 

> <Gold.Protein.RotatedAtoms>
  151.9496  135.0175  160.0540 H   0  0  0  0  0  0  0  0  0  0  0  0  # atno 6907 bound_to 6896
  152.1965  133.4805  159.5044 H   0  0  0  0  0  0  0  0  0  0  0  0  # atno 6908 bound_to 6896
  150.6945  134.1563  159.4202 H   0  0  0  0  0  0  0  0  0  0  0  0  # atno 6909 bound_to 6896
  144.7500  139.8480  143.6369 H   0  0  0  0  0  0  0  0  0  0  0  0  # atno 7974 bound_to 7965
  154.5195  140.0790  156.8145 H   0  0  0  0  0  0  0  0  0  0  0  0  # atno 8008 bound_to 7997
  155.3607  140.3417  155.4222 H   0  0  0  0  0  0  0  0  0  0  0  0  # atno 8009 bound_to 7997
  156.1665  140.1605  156.8509 H   0  0  0  0  0  0  0  0  0  0  0  0  # atno 8010 bound_to 7997
  140.6602  143.7323  150.7725 H   0  0  0  0  0  0  0  0  0  0  0  0  # atno 10167 bound_to 10162
  157.5319  131.1098  150.8996 H   0  0  0  0  0  0  0  0  0  0  0  0  # atno 10718 bound_to 10713
  154.1803  135.6444  153.5032 H   0  0  0  0  0  0  0  0  0  0  0  0  # atno 10763 bound_to 10752
  153.0061  135.5404  154.6521 H   0  0  0  0  0  0  0  0  0  0  0  0  # atno 10764 bound_to 10752
  154.5884  135.2932  155.0634 H   0  0  0  0  0  0  0  0  0  0  0  0  # atno 10765 bound_to 10752
  140.1099  134.4969  155.8687 H   0  0  0  0  0  0  0  0  0  0  0  0  # atno 11005 bound_to 11000
  146.1436  139.4500  143.0093 LP  0  0  0  0  0  0  0  0  0  0  0  0  # atno 17320 bound_to 7965
  145.6979  141.0145  143.1520 LP  0  0  0  0  0  0  0  0  0  0  0  0  # atno 17321 bound_to 7965
  140.0991  143.4805  152.2436 LP  0  0  0  0  0  0  0  0  0  0  0  0  # atno 17342 bound_to 10162
  139.5834  144.7520  151.3582 LP  0  0  0  0  0  0  0  0  0  0  0  0  # atno 17343 bound_to 10162
  156.9574  130.5442  149.5284 LP  0  0  0  0  0  0  0  0  0  0  0  0  # atno 17370 bound_to 10713
  156.0429  130.5509  150.8813 LP  0  0  0  0  0  0  0  0  0  0  0  0  # atno 17371 bound_to 10713
  141.2127  133.6724  156.6684 LP  0  0  0  0  0  0  0  0  0  0  0  0  # atno 17394 bound_to 11000
  140.3105  134.8090  157.4172 LP  0  0  0  0  0  0  0  0  0  0  0  0  # atno 17395 bound_to 11000

$$$$
