AV-unprocessed.smi:2079|AV-procd|sdf|8484|dock5
  -GOLD-   2272011193D 1   1.00000     0.00000
 Structure written by MMmdl.
 41 42  0  0  0  0  0  0  0  0  3 V2000
  150.8923  142.4381  157.4319 C   0  0  0  0  0  0  0  0  0  0  0  0
  150.4867  141.6762  156.2172 C   0  0  0  0  0  0  0  0  0  0  0  0
  149.3701  141.7055  155.4301 C   0  0  0  0  0  0  0  0  0  0  0  0
  149.6420  140.7144  154.4494 C   0  0  0  0  0  0  0  0  0  0  0  0
  148.7003  140.4318  153.4248 N   0  0  0  0  0  0  0  0  0  0  0  0
  147.3662  140.2876  153.5228 C   0  0  0  0  0  0  0  0  0  0  0  0
  146.8054  140.3873  154.6210 O   0  0  0  0  0  0  0  0  0  0  0  0
  146.7848  140.0303  152.3182 N   0  5  0  0  0  0  0  0  0  0  0  0
  146.5142  138.6937  151.7907 C   0  0  0  0  0  0  0  0  0  0  0  0
  146.4145  137.6708  152.9409 C   0  0  0  0  0  0  0  0  0  0  0  0
  146.3587  136.2719  152.4362 N   0  3  1  0  0  0  0  0  0  0  0  0
  146.4037  135.2328  153.5055 C   0  0  0  0  0  0  0  0  0  0  0  0
  146.5843  133.8302  152.9024 C   0  0  0  0  0  0  0  0  0  0  0  0
  145.4868  133.5211  151.8763 C   0  0  0  0  0  0  0  0  0  0  0  0
  145.4318  134.6272  150.8113 C   0  0  0  0  0  0  0  0  0  0  0  0
  145.2746  136.0289  151.4375 C   0  0  1  0  0  0  0  0  0  0  0  0
  143.8569  136.2648  152.0034 C   0  0  0  0  0  0  0  0  0  0  0  0
  150.8215  140.1359  154.6215 N   0  0  0  0  0  0  0  0  0  0  0  0
  151.3679  140.7482  155.7555 O   0  0  0  0  0  0  0  0  0  0  0  0
  150.2063  143.2639  157.6212 H   0  0  0  0  0  0  0  0  0  0  0  0
  151.8940  142.8512  157.3136 H   0  0  0  0  0  0  0  0  0  0  0  0
  150.8940  141.7912  158.3093 H   0  0  0  0  0  0  0  0  0  0  0  0
  148.4984  142.3332  155.5412 H   0  0  0  0  0  0  0  0  0  0  0  0
  149.0827  140.3389  152.4955 H   0  0  0  0  0  0  0  0  0  0  0  0
  145.5955  138.6602  151.2033 H   0  0  0  0  0  0  0  0  0  0  0  0
  147.3033  138.3794  151.1076 H   0  0  0  0  0  0  0  0  0  0  0  0
  147.2427  137.7834  153.6424 H   0  0  0  0  0  0  0  0  0  0  0  0
  145.5067  137.8908  153.5048 H   0  0  0  0  0  0  0  0  0  0  0  0
  147.2326  135.4295  154.1859 H   0  0  0  0  0  0  0  0  0  0  0  0
  145.4972  135.2746  154.1100 H   0  0  0  0  0  0  0  0  0  0  0  0
  147.5617  133.7633  152.4227 H   0  0  0  0  0  0  0  0  0  0  0  0
  146.5767  133.0801  153.6935 H   0  0  0  0  0  0  0  0  0  0  0  0
  145.6755  132.5559  151.4054 H   0  0  0  0  0  0  0  0  0  0  0  0
  144.5233  133.4349  152.3791 H   0  0  0  0  0  0  0  0  0  0  0  0
  146.3513  134.5998  150.2247 H   0  0  0  0  0  0  0  0  0  0  0  0
  144.6205  134.4316  150.1093 H   0  0  0  0  0  0  0  0  0  0  0  0
  145.4194  136.7486  150.6304 H   0  0  0  0  0  0  0  0  0  0  0  0
  143.1047  136.1103  151.2295 H   0  0  0  0  0  0  0  0  0  0  0  0
  143.7308  137.2835  152.3697 H   0  0  0  0  0  0  0  0  0  0  0  0
  143.6177  135.5892  152.8237 H   0  0  0  0  0  0  0  0  0  0  0  0
  147.2162  136.1613  151.9140 H   0  0  0  0  0  0  0  0  0  0  0  0
  1  2  1  0  0  0  0
  1 20  1  0  0  0  0
  1 21  1  0  0  0  0
  1 22  1  0  0  0  0
  2 19  1  0  0  0  0
  2  3  2  0  0  0  0
  3  4  1  0  0  0  0
  3 23  1  0  0  0  0
  4  5  1  0  0  0  0
  4 18  2  0  0  0  0
  5  6  1  0  0  0  0
  5 24  1  0  0  0  0
  6  7  2  0  0  0  0
  6  8  1  0  0  0  0
  8  9  1  0  0  0  0
  9 10  1  0  0  0  0
  9 25  1  0  0  0  0
  9 26  1  0  0  0  0
 10 11  1  0  0  0  0
 10 27  1  0  0  0  0
 10 28  1  0  0  0  0
 11 16  1  0  0  0  0
 11 12  1  0  0  0  0
 11 41  1  0  0  0  0
 12 13  1  0  0  0  0
 12 29  1  0  0  0  0
 12 30  1  0  0  0  0
 13 14  1  0  0  0  0
 13 31  1  0  0  0  0
 13 32  1  0  0  0  0
 14 15  1  0  0  0  0
 14 33  1  0  0  0  0
 14 34  1  0  0  0  0
 15 16  1  0  0  0  0
 15 35  1  0  0  0  0
 15 36  1  0  0  0  0
 16 17  1  0  0  0  0
 16 37  1  0  0  0  0
 17 38  1  0  0  0  0
 17 39  1  0  0  0  0
 17 40  1  0  0  0  0
 18 19  1  0  0  0  0
M  CHG  1   8  -1
M  CHG  1  11   1
M  END
> <s_m_source_file>
AV-unprocessed.smi

> <i_m_source_file_index>
2079

> <i_lp_mmshare_version>
43012

> <i_f3d_flags>
0

> <s_epik_input>
W0NIM11jMVtjSF1jKG5vMSlbTkhdQyg9TylbTkhdW0NIMl1bQ0gyXU4yW0NIMl1bQ0gyXVtDSDJdW0NIMl1bQ0BIXTJbQ0gzXQ==

> <s_epik_cmdline>
J2VwaWtfcHl0aG9uJywgJy1waCcsICc3LjAnLCAnLXRuJywgJzgnLCAnLW1hJywgJzIwMCcsICctbWV0YWxfYmluZGluZycsICctaW1hZScsICc8aW5maWxlLm1hZT4nLCAnLW9tYWUnLCAnPG91dGZpbGUubWFlPic=

> <r_epik_Ionization_Penalty>
6.7666

> <r_epik_Ionization_Penalty_Charging>
6.7666

> <r_epik_Ionization_Penalty_Neutral>
5.77131e-06

> <r_epik_State_Penalty>
6.79217

> <r_epik_Charging_Adjusted_Penalty>
13.5588

> <i_epik_Tot_Q>
0

> <i_epik_Tot_abs_Q>
2

> <r_epik_Metal_State_Penalty>
2.72569

> <b_epik_Metal_Only>
1

> <s_lp_Force_Field>
OPLS_2005

> <r_lp_Energy>
14.7698

> <b_lp_Chiralities_Consistent>
1

> <s_lp_Variant>
AV-unprocessed.smi:2079-10

> <Gold.Version>
5.8.1

> <Gold.Id.Protein>
6NUR|6NUR_protein|mol2

> <Gold.PLP.Fitness>
41.4877

> <Gold.PLP.PLP>
-32.1898

> <Gold.PLP.part.hbond>
-3.6375

> <Gold.PLP.part.metal>
0.0000

> <Gold.PLP.part.buried>
-1.4019

> <Gold.PLP.part.nonpolar>
-28.3331

> <Gold.PLP.part.repulsive>
1.2791

> <Gold.PLP.ligand.clash>
0.0000

> <Gold.PLP.ligand.torsion>
1.3102

> <Gold.PLP.Chemscore.Hbond>
3.9425

> <Gold.PLP.Chemscore.CHOScore>
0.0000

> <Gold.PLP.Chemscore.Metal>
0.0000

> <Gold.Chemscore.Hbonds>
donor molecule, donor type, donor heavy atom, donor atom, acceptor molecule, acceptor atom, score
      L1  H     5    24       P1  7957  0.83
      L1  H    11    41       P1  7948  2.00
      P1  H  7989  7998       L1    18  0.95

> <Gold.PLP.Chemscore.Internal.Correction>
0.0907

> <Gold.Rescore>
     Score         DG    S(hbond)    S(metal)    S(lipo)     H(rot)  DE(clash)    DE(int)     intcor
     14.05     -15.64       1.99        0.00      63.67       1.54       0.13       1.45       ----

> <Gold.Chemscore.Fitness>
14.0533

> <Gold.Chemscore.DG>
-15.6373

> <Gold.Chemscore.ZeroCoef>
-5.4800

> <Gold.Chemscore.Hbond>
1.9917

> <Gold.Chemscore.Metal>
0.0000

> <Gold.Chemscore.Lipo>
63.6731

> <Gold.Chemscore.Internal_Hbond>
0.0000

> <Gold.Chemscore.DEClash>
0.1301

> <Gold.Chemscore.DEInternal>
1.4539

> <Gold.Chemscore.Rot>
1.5409

> <Gold.Chemscore.Internal.Correction>
   9.000000E+99

> <Gold.Chemscore.Hbonds>
donor molecule, donor type, donor heavy atom, donor atom, acceptor molecule, acceptor atom, score
      L1  H     5    24       P1  7957  0.82
      L1  H    11    41       P1  7948  0.95
      P1  H  7989  7998       L1    18  0.05

> <Gold.Chemscore.Hbond.Weighted>
-6.6522

> <Gold.Chemscore.Metal.Weighted>
-0.0000

> <Gold.Chemscore.Lipo.Weighted>
-7.4497

> <Gold.Chemscore.Internal_Hbond.Weighted>
0.0000

> <Gold.Chemscore.DEClash.Weighted>
0.1301

> <Gold.Chemscore.DEInternal.Weighted>
1.4539

> <Gold.Chemscore.Rot.Weighted>
3.9446

> <Gold.Chemscore.Internal.Correction.Weighted>
   9.000000E+99

> <Gold.Protein.RotatedTorsions>
[ 6907 6896 6895 6894 ] final  -56.54 input  -60.11 | X-H torsion
[ 7974 7965 7964 7962 ] final   37.20 input  175.53 | X-H torsion
[ 8008 7997 7996 7995 ] final   70.33 input   59.86 | X-H torsion
[ 10167 10162 10161 10158 ] final  178.99 input  -65.29 | X-H torsion
[ 10718 10713 10712 10709 ] final   -9.33 input   66.30 | X-H torsion
[ 10763 10752 10751 10750 ] final  -65.68 input  -60.55 | X-H torsion
[ 11005 11000 10999 10996 ] final   79.24 input  -57.11 | X-H torsion

> <Gold.Protein.ActiveResidues>
 VAL166  LYS551  ARG553  GLY616  TRP617  ASP618  TYR619  PRO620  LYS621  CYS622 
 ASP623  PHE694  ASN695  SER759  ASP760  ASP761  ALA762  ILE779  LEU786  VAL792 
 PHE793  MET794  SER795  GLU796  ALA797  LYS798  CYS799  TRP800  GLU811  SER814 

> <Gold.Protein.RotatedAtoms>
  150.8159  134.7340  159.6729 H   0  0  0  0  0  0  0  0  0  0  0  0  # atno 6907 bound_to 6896
  152.4277  134.5833  159.9964 H   0  0  0  0  0  0  0  0  0  0  0  0  # atno 6908 bound_to 6896
  151.6030  133.3317  159.3087 H   0  0  0  0  0  0  0  0  0  0  0  0  # atno 6909 bound_to 6896
  146.1155  139.5924  142.9324 H   0  0  0  0  0  0  0  0  0  0  0  0  # atno 7974 bound_to 7965
  155.7371  140.3491  155.5086 H   0  0  0  0  0  0  0  0  0  0  0  0  # atno 8008 bound_to 7997
  155.9129  140.1053  157.1287 H   0  0  0  0  0  0  0  0  0  0  0  0  # atno 8009 bound_to 7997
  154.4058  140.1264  156.4567 H   0  0  0  0  0  0  0  0  0  0  0  0  # atno 8010 bound_to 7997
  139.5317  144.2614  152.0704 H   0  0  0  0  0  0  0  0  0  0  0  0  # atno 10167 bound_to 10162
  156.6896  130.5061  149.5947 H   0  0  0  0  0  0  0  0  0  0  0  0  # atno 10718 bound_to 10713
  154.3485  135.6141  153.5631 H   0  0  0  0  0  0  0  0  0  0  0  0  # atno 10763 bound_to 10752
  152.9799  135.5787  154.4770 H   0  0  0  0  0  0  0  0  0  0  0  0  # atno 10764 bound_to 10752
  154.4487  135.2852  155.1774 H   0  0  0  0  0  0  0  0  0  0  0  0  # atno 10765 bound_to 10752
  139.9180  134.7827  156.1753 H   0  0  0  0  0  0  0  0  0  0  0  0  # atno 11005 bound_to 11000
  145.5575  141.0407  143.2244 LP  0  0  0  0  0  0  0  0  0  0  0  0  # atno 17320 bound_to 7965
  144.7549  139.7099  143.7258 LP  0  0  0  0  0  0  0  0  0  0  0  0  # atno 17321 bound_to 7965
  140.2078  144.4593  150.6400 LP  0  0  0  0  0  0  0  0  0  0  0  0  # atno 17342 bound_to 10162
  140.6500  143.2222  151.6100 LP  0  0  0  0  0  0  0  0  0  0  0  0  # atno 17343 bound_to 10162
  156.1807  130.6497  151.0948 LP  0  0  0  0  0  0  0  0  0  0  0  0  # atno 17370 bound_to 10713
  157.7014  131.0774  150.6809 LP  0  0  0  0  0  0  0  0  0  0  0  0  # atno 17371 bound_to 10713
  141.0675  133.6812  156.2074 LP  0  0  0  0  0  0  0  0  0  0  0  0  # atno 17394 bound_to 11000
  140.6561  134.5017  157.5580 LP  0  0  0  0  0  0  0  0  0  0  0  0  # atno 17395 bound_to 11000

$$$$
