AV-unprocessed.smi:1740|AV-procd|sdf|7012|dock7
  -GOLD-   22720 8223D 1   1.00000     0.00000
 Structure written by MMmdl.
 51 53  0  0  0  0  0  0  0  0  3 V2000
  150.9794  143.2107  157.0341 N   0  5  0  0  0  0  0  0  0  0  0  0
  150.2536  142.1647  157.4782 C   0  0  0  0  0  0  0  0  0  0  0  0
  149.0479  142.1264  157.7115 O   0  0  0  0  0  0  0  0  0  0  0  0
  151.1088  140.9114  157.6941 C   0  0  0  0  0  0  0  0  0  0  0  0
  150.6549  139.8066  156.8110 N   0  3  2  0  0  0  0  0  0  0  0  0
  150.5288  138.5160  157.5336 C   0  0  0  0  0  0  0  0  0  0  0  0
  149.9115  137.4333  156.6319 C   0  0  0  0  0  0  0  0  0  0  0  0
  150.7253  137.2519  155.3402 C   0  0  1  0  0  0  0  0  0  0  0  0
  150.0640  136.2856  154.4679 N   0  0  0  0  0  0  0  0  0  0  0  0
  149.7154  135.0399  154.8202 C   0  0  0  0  0  0  0  0  0  0  0  0
  149.8960  134.5764  155.9462 O   0  0  0  0  0  0  0  0  0  0  0  0
  149.1391  134.3887  153.7959 N   0  0  0  0  0  0  0  0  0  0  0  0
  148.6431  133.0539  153.7643 C   0  0  0  0  0  0  0  0  0  0  0  0
  149.2720  132.0075  154.4831 C   0  0  0  0  0  0  0  0  0  0  0  0
  148.7830  130.6953  154.3622 C   0  0  0  0  0  0  0  0  0  0  0  0
  147.6890  130.4696  153.5107 C   0  0  0  0  0  0  0  0  0  0  0  0
  147.0879  131.4508  152.8092 N   0  0  0  0  0  0  0  0  0  0  0  0
  147.5389  132.7241  152.9271 C   0  0  0  0  0  0  0  0  0  0  0  0
  146.8588  133.7154  152.1839 N   0  0  0  0  0  0  0  0  0  0  0  0
  146.2448  134.8132  152.9253 C   0  0  0  0  0  0  0  0  0  0  0  0
  144.9278  135.1348  152.2114 C   0  0  0  0  0  0  0  0  0  0  0  0
  145.1339  134.5762  150.8070 C   0  0  0  0  0  0  0  0  0  0  0  0
  145.9899  133.3413  151.0726 C   0  0  0  0  0  0  0  0  0  0  0  0
  150.8770  138.6112  154.6325 C   0  0  0  0  0  0  0  0  0  0  0  0
  151.4730  139.6674  155.5768 C   0  0  0  0  0  0  0  0  0  0  0  0
  150.4937  143.9777  156.5535 H   0  0  0  0  0  0  0  0  0  0  0  0
  152.1640  141.1292  157.5208 H   0  0  0  0  0  0  0  0  0  0  0  0
  151.0190  140.6233  158.7428 H   0  0  0  0  0  0  0  0  0  0  0  0
  151.5106  138.1991  157.8890 H   0  0  0  0  0  0  0  0  0  0  0  0
  149.8989  138.6483  158.4141 H   0  0  0  0  0  0  0  0  0  0  0  0
  149.8566  136.4894  157.1756 H   0  0  0  0  0  0  0  0  0  0  0  0
  148.8845  137.7102  156.3884 H   0  0  0  0  0  0  0  0  0  0  0  0
  151.7146  136.8757  155.6083 H   0  0  0  0  0  0  0  0  0  0  0  0
  149.8704  136.5826  153.5226 H   0  0  0  0  0  0  0  0  0  0  0  0
  148.9663  134.9315  152.9623 H   0  0  0  0  0  0  0  0  0  0  0  0
  150.1352  132.1832  155.1064 H   0  0  0  0  0  0  0  0  0  0  0  0
  149.2444  129.8800  154.8995 H   0  0  0  0  0  0  0  0  0  0  0  0
  147.2888  129.4746  153.3841 H   0  0  0  0  0  0  0  0  0  0  0  0
  146.0784  134.5611  153.9738 H   0  0  0  0  0  0  0  0  0  0  0  0
  146.9089  135.6771  152.8870 H   0  0  0  0  0  0  0  0  0  0  0  0
  144.1079  134.6043  152.6975 H   0  0  0  0  0  0  0  0  0  0  0  0
  144.6906  136.1989  152.2176 H   0  0  0  0  0  0  0  0  0  0  0  0
  144.1993  134.3448  150.2958 H   0  0  0  0  0  0  0  0  0  0  0  0
  145.6882  135.2920  150.1982 H   0  0  0  0  0  0  0  0  0  0  0  0
  146.5694  133.0537  150.1951 H   0  0  0  0  0  0  0  0  0  0  0  0
  145.3433  132.5065  151.3456 H   0  0  0  0  0  0  0  0  0  0  0  0
  151.5121  138.5099  153.7517 H   0  0  0  0  0  0  0  0  0  0  0  0
  149.9051  138.9544  154.2742 H   0  0  0  0  0  0  0  0  0  0  0  0
  151.5294  140.6217  155.0523 H   0  0  0  0  0  0  0  0  0  0  0  0
  152.4946  139.3949  155.8456 H   0  0  0  0  0  0  0  0  0  0  0  0
  149.7217  140.0663  156.5221 H   0  0  0  0  0  0  0  0  0  0  0  0
  1  2  1  0  0  0  0
  1 26  1  0  0  0  0
  2  3  2  0  0  0  0
  2  4  1  0  0  0  0
  4  5  1  0  0  0  0
  4 27  1  0  0  0  0
  4 28  1  0  0  0  0
  5 25  1  0  0  0  0
  5  6  1  0  0  0  0
  5 51  1  0  0  0  0
  6  7  1  0  0  0  0
  6 29  1  0  0  0  0
  6 30  1  0  0  0  0
  7  8  1  0  0  0  0
  7 31  1  0  0  0  0
  7 32  1  0  0  0  0
  8  9  1  0  0  0  0
  8 24  1  0  0  0  0
  8 33  1  0  0  0  0
  9 10  1  0  0  0  0
  9 34  1  0  0  0  0
 10 11  2  0  0  0  0
 10 12  1  0  0  0  0
 12 13  1  0  0  0  0
 12 35  1  0  0  0  0
 13 18  1  0  0  0  0
 13 14  2  0  0  0  0
 14 15  1  0  0  0  0
 14 36  1  0  0  0  0
 15 16  2  0  0  0  0
 15 37  1  0  0  0  0
 16 17  1  0  0  0  0
 16 38  1  0  0  0  0
 17 18  2  0  0  0  0
 18 19  1  0  0  0  0
 19 23  1  0  0  0  0
 19 20  1  0  0  0  0
 20 21  1  0  0  0  0
 20 39  1  0  0  0  0
 20 40  1  0  0  0  0
 21 22  1  0  0  0  0
 21 41  1  0  0  0  0
 21 42  1  0  0  0  0
 22 23  1  0  0  0  0
 22 43  1  0  0  0  0
 22 44  1  0  0  0  0
 23 45  1  0  0  0  0
 23 46  1  0  0  0  0
 24 25  1  0  0  0  0
 24 47  1  0  0  0  0
 24 48  1  0  0  0  0
 25 49  1  0  0  0  0
 25 50  1  0  0  0  0
M  CHG  1   1  -1
M  CHG  1   5   1
M  END
> <s_m_source_file>
AV-unprocessed.smi

> <i_m_source_file_index>
1740

> <i_lp_mmshare_version>
43012

> <i_f3d_flags>
0

> <s_epik_input>
W05IMl1DKD1PKVtDSDJdTjFbQ0gyXVtDSDJdW0NIXShbQ0gyXVtDSDJdMSlbTkhdQyg9TylbTkhdYzJbY0hdW2NIXVtjSF1uYzJOM1tDSDJdW0NIMl1bQ0gyXVtDSDJdMw==

> <s_epik_cmdline>
J2VwaWtfcHl0aG9uJywgJy1waCcsICc3LjAnLCAnLXRuJywgJzgnLCAnLW1hJywgJzIwMCcsICctbWV0YWxfYmluZGluZycsICctaW1hZScsICc8aW5maWxlLm1hZT4nLCAnLW9tYWUnLCAnPG91dGZpbGUubWFlPic=

> <r_lp_tautomer_probability>
1

> <r_epik_Ionization_Penalty>
5.80652

> <r_epik_Ionization_Penalty_Charging>
5.7288

> <r_epik_Ionization_Penalty_Neutral>
0.0777157

> <r_epik_State_Penalty>
6.60246

> <r_epik_Charging_Adjusted_Penalty>
12.3313

> <i_epik_Tot_Q>
0

> <i_epik_Tot_abs_Q>
2

> <r_epik_Metal_State_Penalty>
2.64988

> <b_epik_Metal_Only>
1

> <s_lp_Force_Field>
OPLS_2005

> <r_lp_Energy>
35.8158

> <b_lp_Chiralities_Consistent>
1

> <s_lp_Variant>
AV-unprocessed.smi:1740-7

> <Gold.Version>
5.8.1

> <Gold.Id.Protein>
6NUR|6NUR_protein|mol2

> <Gold.PLP.Fitness>
42.4449

> <Gold.PLP.PLP>
-35.9370

> <Gold.PLP.part.hbond>
-3.5145

> <Gold.PLP.part.metal>
0.0000

> <Gold.PLP.part.buried>
-4.7059

> <Gold.PLP.part.nonpolar>
-29.1312

> <Gold.PLP.part.repulsive>
0.5471

> <Gold.PLP.ligand.clash>
0.0000

> <Gold.PLP.ligand.torsion>
1.0738

> <Gold.PLP.Chemscore.Hbond>
2.7760

> <Gold.PLP.Chemscore.CHOScore>
0.0000

> <Gold.PLP.Chemscore.Metal>
0.0000

> <Gold.Chemscore.Hbonds>
donor molecule, donor type, donor heavy atom, donor atom, acceptor molecule, acceptor atom, score
      L1  H     1    26       P1  8028  1.00
      L1  H     9    34       P1  7948  0.96
      L1  H    12    35       P1  7948  0.75

> <Gold.PLP.Chemscore.Internal.Correction>
0.3274

> <Gold.Rescore>
     Score         DG    S(hbond)    S(metal)    S(lipo)     H(rot)  DE(clash)    DE(int)     intcor
     12.64     -16.10       2.62        0.00      63.20       2.16       0.01       3.45       ----

> <Gold.Chemscore.Fitness>
12.6427

> <Gold.Chemscore.DG>
-16.1030

> <Gold.Chemscore.ZeroCoef>
-5.4800

> <Gold.Chemscore.Hbond>
2.6191

> <Gold.Chemscore.Metal>
0.0000

> <Gold.Chemscore.Lipo>
63.2042

> <Gold.Chemscore.Internal_Hbond>
0.0000

> <Gold.Chemscore.DEClash>
0.0089

> <Gold.Chemscore.DEInternal>
3.4514

> <Gold.Chemscore.Rot>
2.1562

> <Gold.Chemscore.Internal.Correction>
   9.000000E+99

> <Gold.Chemscore.Hbonds>
donor molecule, donor type, donor heavy atom, donor atom, acceptor molecule, acceptor atom, score
      L1  H     1    26       P1  8028  0.95
      L1  H     9    34       P1  7948  0.24
      L1  H    12    35       P1  7948  0.09

> <Gold.Chemscore.Hbond.Weighted>
-8.7479

> <Gold.Chemscore.Metal.Weighted>
-0.0000

> <Gold.Chemscore.Lipo.Weighted>
-7.3949

> <Gold.Chemscore.Internal_Hbond.Weighted>
0.0000

> <Gold.Chemscore.DEClash.Weighted>
0.0089

> <Gold.Chemscore.DEInternal.Weighted>
3.4514

> <Gold.Chemscore.Rot.Weighted>
5.5198

> <Gold.Chemscore.Internal.Correction.Weighted>
   9.000000E+99

> <Gold.Protein.RotatedTorsions>
[ 6907 6896 6895 6894 ] final  148.16 input  -60.11 | X-H torsion
[ 7974 7965 7964 7962 ] final  136.39 input  175.53 | X-H torsion
[ 8008 7997 7996 7995 ] final  109.63 input   59.86 | X-H torsion
[ 10167 10162 10161 10158 ] final  -20.61 input  -65.29 | X-H torsion
[ 10718 10713 10712 10709 ] final  -93.46 input   66.30 | X-H torsion
[ 10763 10752 10751 10750 ] final  100.10 input  -60.55 | X-H torsion
[ 11005 11000 10999 10996 ] final  152.00 input  -57.11 | X-H torsion

> <Gold.Protein.ActiveResidues>
 VAL166  LYS551  ARG553  GLY616  TRP617  ASP618  TYR619  PRO620  LYS621  CYS622 
 ASP623  PHE694  ASN695  SER759  ASP760  ASP761  ALA762  ILE779  LEU786  VAL792 
 PHE793  MET794  SER795  GLU796  ALA797  LYS798  CYS799  TRP800  GLU811  SER814 

> <Gold.Protein.RotatedAtoms>
  152.1452  133.4488  159.4786 H   0  0  0  0  0  0  0  0  0  0  0  0  # atno 6907 bound_to 6896
  150.6890  134.2256  159.4423 H   0  0  0  0  0  0  0  0  0  0  0  0  # atno 6908 bound_to 6896
  152.0149  134.9855  160.0620 H   0  0  0  0  0  0  0  0  0  0  0  0  # atno 6909 bound_to 6896
  144.9570  139.4753  143.5498 H   0  0  0  0  0  0  0  0  0  0  0  0  # atno 7974 bound_to 7965
  156.1994  140.3054  155.9494 H   0  0  0  0  0  0  0  0  0  0  0  0  # atno 8008 bound_to 7997
  155.2990  140.0445  157.3045 H   0  0  0  0  0  0  0  0  0  0  0  0  # atno 8009 bound_to 7997
  154.5551  140.2303  155.8432 H   0  0  0  0  0  0  0  0  0  0  0  0  # atno 8010 bound_to 7997
  140.7277  143.4706  151.0252 H   0  0  0  0  0  0  0  0  0  0  0  0  # atno 10167 bound_to 10162
  156.0014  130.5028  150.5779 H   0  0  0  0  0  0  0  0  0  0  0  0  # atno 10718 bound_to 10713
  153.3097  135.4090  155.1325 H   0  0  0  0  0  0  0  0  0  0  0  0  # atno 10763 bound_to 10752
  154.8572  135.3561  154.5740 H   0  0  0  0  0  0  0  0  0  0  0  0  # atno 10764 bound_to 10752
  153.6169  135.7066  153.5384 H   0  0  0  0  0  0  0  0  0  0  0  0  # atno 10765 bound_to 10752
  140.1269  134.8827  157.2150 H   0  0  0  0  0  0  0  0  0  0  0  0  # atno 11005 bound_to 11000
  146.3340  139.8694  142.8842 LP  0  0  0  0  0  0  0  0  0  0  0  0  # atno 17320 bound_to 7965
  145.2757  141.0123  143.3746 LP  0  0  0  0  0  0  0  0  0  0  0  0  # atno 17321 bound_to 7965
  139.8397  143.7580  152.3180 LP  0  0  0  0  0  0  0  0  0  0  0  0  # atno 17342 bound_to 10162
  139.7724  144.7472  151.0205 LP  0  0  0  0  0  0  0  0  0  0  0  0  # atno 17343 bound_to 10162
  157.3664  131.0758  151.1594 LP  0  0  0  0  0  0  0  0  0  0  0  0  # atno 17370 bound_to 10713
  157.2362  130.6548  149.5870 LP  0  0  0  0  0  0  0  0  0  0  0  0  # atno 17371 bound_to 10713
  140.2893  134.3259  155.7320 LP  0  0  0  0  0  0  0  0  0  0  0  0  # atno 17394 bound_to 11000
  141.2163  133.7525  156.9479 LP  0  0  0  0  0  0  0  0  0  0  0  0  # atno 17395 bound_to 11000

$$$$
