AV-unprocessed.smi:261|AV-procd|sdf|1990|dock6
  -GOLD-   2262021173D 1   1.00000     0.00000
 Structure written by MMmdl.
 51 54  0  0  0  0  0  0  0  0  1 V2000
  146.8426  133.3071  153.7377 C   0  0  0  0  0  0  0  0  0  0  0  0
  147.9337  132.7678  154.4662 O   0  0  0  0  0  0  0  0  0  0  0  0
  149.2059  133.2350  154.0337 C   0  0  2  0  0  0  0  0  0  0  0  0
  150.3567  132.6044  154.8294 C   0  0  0  0  0  0  0  0  0  0  0  0
  150.4596  133.4438  156.1134 C   0  0  2  0  0  0  0  0  0  0  0  0
  149.6086  132.8442  157.2534 C   0  0  0  0  0  0  0  0  0  0  0  0
  148.3139  132.5937  157.0304 N   0  0  0  0  0  0  0  0  0  0  0  0
  150.1270  132.6184  158.3445 O   0  0  0  0  0  0  0  0  0  0  0  0
  150.0255  134.7699  155.6712 N   0  0  0  0  0  0  0  0  0  0  0  0
  150.3293  135.9450  156.2902 C   0  0  0  0  0  0  0  0  0  0  0  0
  150.5063  135.9228  157.6382 N   0  0  0  0  0  0  0  0  0  0  0  0
  150.8090  137.0374  158.3083 C   0  0  0  0  0  0  0  0  0  0  0  0
  150.9825  138.2713  157.8361 N   0  0  0  0  0  0  0  0  0  0  0  0
  150.8093  138.3091  156.4850 C   0  0  0  0  0  0  0  0  0  0  0  0
  150.4849  137.2076  155.6392 C   0  0  0  0  0  0  0  0  0  0  0  0
  150.3976  137.6518  154.3233 N   0  0  0  0  0  0  0  0  0  0  0  0
  150.6507  138.9292  154.3876 C   0  0  0  0  0  0  0  0  0  0  0  0
  150.9020  139.4088  155.6512 N   0  0  0  0  0  0  0  0  0  0  0  0
  151.1991  140.7813  156.0180 C   0  0  0  0  0  0  0  0  0  0  0  0
  151.6241  140.9359  157.4939 C   0  0  1  0  0  0  0  0  0  0  0  0
  152.8187  140.2000  157.6651 O   0  0  0  0  0  0  0  0  0  0  0  0
  151.8602  142.3958  157.9418 C   0  0  2  0  0  0  0  0  0  0  0  0
  152.4172  142.5430  159.3596 C   0  0  0  0  0  0  0  0  0  0  0  0
  151.9881  143.9415  159.7745 C   0  0  0  0  0  0  0  0  0  0  0  0
  150.8931  144.3057  158.7700 C   0  0  0  0  0  0  0  0  0  0  0  0
  150.6355  143.1054  158.0571 O   0  0  0  0  0  0  0  0  0  0  0  0
  149.3161  134.7194  154.3960 C   0  0  0  0  0  0  0  0  0  0  0  0
  149.3158  133.0896  152.9577 H   0  0  0  0  0  0  0  0  0  0  0  0
  151.5030  133.4615  156.4279 H   0  0  0  0  0  0  0  0  0  0  0  0
  145.9093  132.9151  154.1416 H   0  0  0  0  0  0  0  0  0  0  0  0
  146.8852  133.0394  152.6822 H   0  0  0  0  0  0  0  0  0  0  0  0
  146.8122  134.3940  153.8220 H   0  0  0  0  0  0  0  0  0  0  0  0
  150.2317  131.5370  155.0118 H   0  0  0  0  0  0  0  0  0  0  0  0
  151.2813  132.7159  154.2613 H   0  0  0  0  0  0  0  0  0  0  0  0
  147.7423  132.2119  157.7699 H   0  0  0  0  0  0  0  0  0  0  0  0
  147.9115  132.7977  156.1274 H   0  0  0  0  0  0  0  0  0  0  0  0
  150.9292  136.9236  159.3756 H   0  0  0  0  0  0  0  0  0  0  0  0
  150.6509  139.5604  153.5109 H   0  0  0  0  0  0  0  0  0  0  0  0
  151.9881  141.1442  155.3580 H   0  0  0  0  0  0  0  0  0  0  0  0
  150.3171  141.3900  155.8134 H   0  0  0  0  0  0  0  0  0  0  0  0
  150.8686  140.4831  158.1374 H   0  0  0  0  0  0  0  0  0  0  0  0
  152.6809  139.5566  158.3434 H   0  0  0  0  0  0  0  0  0  0  0  0
  152.5092  142.9130  157.2322 H   0  0  0  0  0  0  0  0  0  0  0  0
  151.9554  141.8094  160.0219 H   0  0  0  0  0  0  0  0  0  0  0  0
  153.4974  142.4023  159.4048 H   0  0  0  0  0  0  0  0  0  0  0  0
  151.6174  143.9479  160.7999 H   0  0  0  0  0  0  0  0  0  0  0  0
  152.8162  144.6481  159.7110 H   0  0  0  0  0  0  0  0  0  0  0  0
  149.9879  144.6761  159.2510 H   0  0  0  0  0  0  0  0  0  0  0  0
  151.2466  145.0679  158.0745 H   0  0  0  0  0  0  0  0  0  0  0  0
  149.9072  135.2437  153.6436 H   0  0  0  0  0  0  0  0  0  0  0  0
  148.3372  135.1981  154.4516 H   0  0  0  0  0  0  0  0  0  0  0  0
  1  2  1  0  0  0  0
  1 30  1  0  0  0  0
  1 31  1  0  0  0  0
  1 32  1  0  0  0  0
  2  3  1  0  0  0  0
  3 28  1  0  0  0  0
  3 27  1  0  0  0  0
  3  4  1  0  0  0  0
  4  5  1  0  0  0  0
  4 33  1  0  0  0  0
  4 34  1  0  0  0  0
  5 29  1  0  0  0  0
  5  6  1  0  0  0  0
  5  9  1  0  0  0  0
  6  7  1  0  0  0  0
  6  8  2  0  0  0  0
  7 35  1  0  0  0  0
  7 36  1  0  0  0  0
  9 10  1  0  0  0  0
  9 27  1  0  0  0  0
 10 15  1  0  0  0  0
 10 11  2  0  0  0  0
 11 12  1  0  0  0  0
 12 13  2  0  0  0  0
 12 37  1  0  0  0  0
 13 14  1  0  0  0  0
 14 18  1  0  0  0  0
 14 15  2  0  0  0  0
 15 16  1  0  0  0  0
 16 17  2  0  0  0  0
 17 18  1  0  0  0  0
 17 38  1  0  0  0  0
 18 19  1  0  0  0  0
 19 20  1  0  0  0  0
 19 39  1  0  0  0  0
 19 40  1  0  0  0  0
 20 21  1  0  0  0  0
 20 22  1  0  0  0  0
 20 41  1  0  0  0  0
 21 42  1  0  0  0  0
 22 26  1  0  0  0  0
 22 23  1  0  0  0  0
 22 43  1  0  0  0  0
 23 24  1  0  0  0  0
 23 44  1  0  0  0  0
 23 45  1  0  0  0  0
 24 25  1  0  0  0  0
 24 46  1  0  0  0  0
 24 47  1  0  0  0  0
 25 26  1  0  0  0  0
 25 48  1  0  0  0  0
 25 49  1  0  0  0  0
 27 50  1  0  0  0  0
 27 51  1  0  0  0  0
M  END
> <s_m_source_file>
AV-unprocessed.smi

> <i_m_source_file_index>
261

> <i_lp_mmshare_version>
43012

> <i_f3d_flags>
0

> <s_epik_input>
W0NIM11PW0NASF0xW0NIMl1bQ0BASF0oQyg9TylbTkgyXSlOKFtDSDJdMSljKG5bY0hdbjIpYyhjMjMpbltjSF1uM1tDSDJdW0NASF0oW09IXSlbQ0BASF00W0NIMl1bQ0gyXVtDSDJdTzQ=

> <s_epik_cmdline>
J2VwaWtfcHl0aG9uJywgJy1waCcsICc3LjAnLCAnLXRuJywgJzgnLCAnLW1hJywgJzIwMCcsICctbWV0YWxfYmluZGluZycsICctaW1hZScsICc8aW5maWxlLm1hZT4nLCAnLW9tYWUnLCAnPG91dGZpbGUubWFlPic=

> <r_lp_tautomer_probability>
1

> <r_epik_Ionization_Penalty>
0.000713824

> <r_epik_Ionization_Penalty_Charging>
0

> <r_epik_Ionization_Penalty_Neutral>
0.000713824

> <r_epik_State_Penalty>
0.000402132

> <r_epik_Charging_Adjusted_Penalty>
0.000402132

> <i_epik_Tot_Q>
0

> <i_epik_Tot_abs_Q>
0

> <r_epik_Metal_State_Penalty>
-0

> <b_epik_Metal_Only>
0

> <s_lp_Force_Field>
OPLS_2005

> <r_lp_Energy>
44.1373

> <b_lp_Chiralities_Consistent>
1

> <s_lp_Variant>
AV-unprocessed.smi:261-8

> <Gold.Version>
5.8.1

> <Gold.Id.Protein>
6NUR|6NUR_protein|mol2

> <Gold.PLP.Fitness>
44.4657

> <Gold.PLP.PLP>
-37.4759

> <Gold.PLP.part.hbond>
-2.5522

> <Gold.PLP.part.metal>
0.0000

> <Gold.PLP.part.buried>
-3.1577

> <Gold.PLP.part.nonpolar>
-31.4202

> <Gold.PLP.part.repulsive>
0.4247

> <Gold.PLP.ligand.clash>
0.0000

> <Gold.PLP.ligand.torsion>
0.5590

> <Gold.PLP.Chemscore.Hbond>
1.8320

> <Gold.PLP.Chemscore.CHOScore>
0.8232

> <Gold.PLP.Chemscore.Metal>
0.0000

> <Gold.Chemscore.Hbonds>
donor molecule, donor type, donor heavy atom, donor atom, acceptor molecule, acceptor atom, score
      P1  H  6896  6908       L1     8  1.00
      P1  H  7997  8010       L1    21  0.82
      L1  C    17    38       P1  7957  0.82

> <Gold.PLP.Chemscore.Internal.Correction>
0.1420

> <Gold.Rescore>
     Score         DG    S(hbond)    S(metal)    S(lipo)     H(rot)  DE(clash)    DE(int)     intcor
     10.71     -13.78       1.97        0.00      84.40       3.18       0.03       3.04       ----

> <Gold.Chemscore.Fitness>
10.7059

> <Gold.Chemscore.DG>
-13.7775

> <Gold.Chemscore.ZeroCoef>
-5.4800

> <Gold.Chemscore.Hbond>
1.9674

> <Gold.Chemscore.Metal>
0.0000

> <Gold.Chemscore.Lipo>
84.4017

> <Gold.Chemscore.Internal_Hbond>
0.0000

> <Gold.Chemscore.DEClash>
0.0332

> <Gold.Chemscore.DEInternal>
3.0384

> <Gold.Chemscore.Rot>
3.1831

> <Gold.Chemscore.Internal.Correction>
   9.000000E+99

> <Gold.Chemscore.Hbonds>
donor molecule, donor type, donor heavy atom, donor atom, acceptor molecule, acceptor atom, score
      P1  H  6896  6908       L1     8  0.94
      P1  H  7997  8010       L1    21  0.57

> <Gold.Chemscore.Hbond.Weighted>
-6.5711

> <Gold.Chemscore.Metal.Weighted>
-0.0000

> <Gold.Chemscore.Lipo.Weighted>
-9.8750

> <Gold.Chemscore.Internal_Hbond.Weighted>
0.0000

> <Gold.Chemscore.DEClash.Weighted>
0.0332

> <Gold.Chemscore.DEInternal.Weighted>
3.0384

> <Gold.Chemscore.Rot.Weighted>
8.1486

> <Gold.Chemscore.Internal.Correction.Weighted>
   9.000000E+99

> <Gold.Protein.RotatedTorsions>
[ 6907 6896 6895 6894 ] final   98.17 input  -60.11 | X-H torsion
[ 7974 7965 7964 7962 ] final  -27.76 input  175.53 | X-H torsion
[ 8008 7997 7996 7995 ] final   31.66 input   59.86 | X-H torsion
[ 10167 10162 10161 10158 ] final  135.42 input  -65.29 | X-H torsion
[ 10718 10713 10712 10709 ] final  -54.35 input   66.30 | X-H torsion
[ 10763 10752 10751 10750 ] final  -57.21 input  -60.55 | X-H torsion
[ 11005 11000 10999 10996 ] final -101.69 input  -57.11 | X-H torsion

> <Gold.Protein.ActiveResidues>
 VAL166  LYS551  ARG553  GLY616  TRP617  ASP618  TYR619  PRO620  LYS621  CYS622 
 ASP623  PHE694  ASN695  SER759  ASP760  ASP761  ALA762  ILE779  LEU786  VAL792 
 PHE793  MET794  SER795  GLU796  ALA797  LYS798  CYS799  TRP800  GLU811  SER814 

> <Gold.Protein.RotatedAtoms>
  152.5413  134.0622  159.8156 H   0  0  0  0  0  0  0  0  0  0  0  0  # atno 6907 bound_to 6896
  151.0748  133.5429  159.2632 H   0  0  0  0  0  0  0  0  0  0  0  0  # atno 6908 bound_to 6896
  151.2279  135.0551  159.9030 H   0  0  0  0  0  0  0  0  0  0  0  0  # atno 6909 bound_to 6896
  146.1335  140.5194  142.8683 H   0  0  0  0  0  0  0  0  0  0  0  0  # atno 7974 bound_to 7965
  155.1099  140.3238  155.4524 H   0  0  0  0  0  0  0  0  0  0  0  0  # atno 8008 bound_to 7997
  156.2693  140.2046  156.6171 H   0  0  0  0  0  0  0  0  0  0  0  0  # atno 8009 bound_to 7997
  154.6764  140.0531  157.0206 H   0  0  0  0  0  0  0  0  0  0  0  0  # atno 8010 bound_to 7997
  139.5218  144.6518  151.5280 H   0  0  0  0  0  0  0  0  0  0  0  0  # atno 10167 bound_to 10162
  156.1458  130.4153  150.0026 H   0  0  0  0  0  0  0  0  0  0  0  0  # atno 10718 bound_to 10713
  154.2188  135.6381  153.5138 H   0  0  0  0  0  0  0  0  0  0  0  0  # atno 10763 bound_to 10752
  152.9973  135.5491  154.6137 H   0  0  0  0  0  0  0  0  0  0  0  0  # atno 10764 bound_to 10752
  154.5591  135.2907  155.0910 H   0  0  0  0  0  0  0  0  0  0  0  0  # atno 10765 bound_to 10752
  141.1220  133.8498  157.1264 H   0  0  0  0  0  0  0  0  0  0  0  0  # atno 11005 bound_to 11000
  144.7715  140.5648  143.6667 LP  0  0  0  0  0  0  0  0  0  0  0  0  # atno 17320 bound_to 7965
  145.5207  139.1477  143.3554 LP  0  0  0  0  0  0  0  0  0  0  0  0  # atno 17321 bound_to 7965
  140.6326  143.9047  150.6619 LP  0  0  0  0  0  0  0  0  0  0  0  0  # atno 17342 bound_to 10162
  140.2356  143.3703  152.1530 LP  0  0  0  0  0  0  0  0  0  0  0  0  # atno 17343 bound_to 10162
  156.7898  130.9252  151.3646 LP  0  0  0  0  0  0  0  0  0  0  0  0  # atno 17370 bound_to 10713
  157.6616  130.8971  149.9841 LP  0  0  0  0  0  0  0  0  0  0  0  0  # atno 17371 bound_to 10713
  140.0186  134.9956  157.0545 LP  0  0  0  0  0  0  0  0  0  0  0  0  # atno 17394 bound_to 11000
  140.4478  134.1614  155.7179 LP  0  0  0  0  0  0  0  0  0  0  0  0  # atno 17395 bound_to 11000

$$$$
