AV-unprocessed.smi:2540|AV-procd|sdf|9988|dock6
  -GOLD-   2272014 33D 1   1.00000     0.00000
 Structure written by MMmdl.
 27 28  0  0  0  0  0  0  0  0  1 V2000
  150.0729  138.7565  154.4179 C   0  0  0  0  0  0  0  0  0  0  0  0
  151.0117  139.8154  154.4750 O   0  0  0  0  0  0  0  0  0  0  0  0
  151.9444  139.6619  155.5328 C   0  0  0  0  0  0  0  0  0  0  0  0
  151.2211  139.7850  156.8811 C   0  0  0  0  0  0  0  0  0  0  0  0
  151.4098  141.0962  157.4861 N   0  0  0  0  0  0  0  0  0  0  0  0
  150.9439  142.2934  157.0584 C   0  0  0  0  0  0  0  0  0  0  0  0
  150.1818  142.3669  155.9016 N   0  0  0  0  0  0  0  0  0  0  0  0
  151.2585  143.3546  157.7969 N   0  0  0  0  0  0  0  0  0  0  0  0
  152.0147  142.7919  158.8085 C   0  0  0  0  0  0  0  0  0  0  0  0
  152.6528  143.3912  159.9182 C   0  0  0  0  0  0  0  0  0  0  0  0
  153.3860  142.6046  160.8309 C   0  0  0  0  0  0  0  0  0  0  0  0
  153.4910  141.2102  160.6487 C   0  0  0  0  0  0  0  0  0  0  0  0
  152.8612  140.5918  159.5514 C   0  0  0  0  0  0  0  0  0  0  0  0
  152.1302  141.3806  158.6428 C   0  0  0  0  0  0  0  0  0  0  0  0
  149.3812  138.9257  153.5929 H   0  0  0  0  0  0  0  0  0  0  0  0
  149.4911  138.6937  155.3385 H   0  0  0  0  0  0  0  0  0  0  0  0
  150.5688  137.7995  154.2501 H   0  0  0  0  0  0  0  0  0  0  0  0
  152.4366  138.6907  155.4593 H   0  0  0  0  0  0  0  0  0  0  0  0
  152.7192  140.4265  155.4603 H   0  0  0  0  0  0  0  0  0  0  0  0
  150.1544  139.5941  156.7603 H   0  0  0  0  0  0  0  0  0  0  0  0
  151.5899  139.0265  157.5724 H   0  0  0  0  0  0  0  0  0  0  0  0
  149.9632  141.5402  155.3641 H   0  0  0  0  0  0  0  0  0  0  0  0
  149.8230  143.2462  155.5589 H   0  0  0  0  0  0  0  0  0  0  0  0
  152.5796  144.4584  160.0659 H   0  0  0  0  0  0  0  0  0  0  0  0
  153.8716  143.0736  161.6739 H   0  0  0  0  0  0  0  0  0  0  0  0
  154.0561  140.6155  161.3513 H   0  0  0  0  0  0  0  0  0  0  0  0
  152.9425  139.5248  159.4071 H   0  0  0  0  0  0  0  0  0  0  0  0
  1  2  1  0  0  0  0
  1 15  1  0  0  0  0
  1 16  1  0  0  0  0
  1 17  1  0  0  0  0
  2  3  1  0  0  0  0
  3  4  1  0  0  0  0
  3 18  1  0  0  0  0
  3 19  1  0  0  0  0
  4  5  1  0  0  0  0
  4 20  1  0  0  0  0
  4 21  1  0  0  0  0
  5 14  1  0  0  0  0
  5  6  1  0  0  0  0
  6  7  1  0  0  0  0
  6  8  2  0  0  0  0
  7 22  1  0  0  0  0
  7 23  1  0  0  0  0
  8  9  1  0  0  0  0
  9 14  2  0  0  0  0
  9 10  1  0  0  0  0
 10 11  2  0  0  0  0
 10 24  1  0  0  0  0
 11 12  1  0  0  0  0
 11 25  1  0  0  0  0
 12 13  2  0  0  0  0
 12 26  1  0  0  0  0
 13 14  1  0  0  0  0
 13 27  1  0  0  0  0
M  END
> <s_m_source_file>
AV-unprocessed.smi

> <i_m_source_file_index>
2540

> <i_lp_mmshare_version>
43012

> <i_f3d_flags>
0

> <s_epik_input>
W0NIM11PW0NIMl1bQ0gyXW4oYyhuMSlbTkgyXSljKGMxMilbY0hdW2NIXVtjSF1bY0hdMg==

> <s_epik_cmdline>
J2VwaWtfcHl0aG9uJywgJy1waCcsICc3LjAnLCAnLXRuJywgJzgnLCAnLW1hJywgJzIwMCcsICctbWV0YWxfYmluZGluZycsICctaW1hZScsICc8aW5maWxlLm1hZT4nLCAnLW9tYWUnLCAnPG91dGZpbGUubWFlPic=

> <r_epik_Ionization_Penalty>
0.602407

> <r_epik_Ionization_Penalty_Charging>
0

> <r_epik_Ionization_Penalty_Neutral>
0.602407

> <r_epik_State_Penalty>
0.616889

> <r_epik_Charging_Adjusted_Penalty>
0.616889

> <i_epik_Tot_Q>
0

> <i_epik_Tot_abs_Q>
0

> <r_epik_Metal_State_Penalty>
0.00108478

> <b_epik_Metal_Only>
0

> <s_lp_Force_Field>
OPLS_2005

> <r_lp_Energy>
6.7443

> <b_lp_Chiralities_Consistent>
1

> <s_lp_Variant>
AV-unprocessed.smi:2540-2

> <Gold.Version>
5.8.1

> <Gold.Id.Protein>
6NUR|6NUR_protein|mol2

> <Gold.PLP.Fitness>
38.4201

> <Gold.PLP.PLP>
-33.1437

> <Gold.PLP.part.hbond>
-2.0000

> <Gold.PLP.part.metal>
0.0000

> <Gold.PLP.part.buried>
-4.3646

> <Gold.PLP.part.nonpolar>
-26.8812

> <Gold.PLP.part.repulsive>
0.3649

> <Gold.PLP.ligand.clash>
0.0000

> <Gold.PLP.ligand.torsion>
0.3623

> <Gold.PLP.Chemscore.Hbond>
2.0000

> <Gold.PLP.Chemscore.CHOScore>
0.0000

> <Gold.PLP.Chemscore.Metal>
0.0000

> <Gold.Chemscore.Hbonds>
donor molecule, donor type, donor heavy atom, donor atom, acceptor molecule, acceptor atom, score
      L1  H     7    23       P1  8028  1.00
      P1  H  7989  7998       L1     2  1.00

> <Gold.PLP.Chemscore.Internal.Correction>
0.0009

> <Gold.Rescore>
     Score         DG    S(hbond)    S(metal)    S(lipo)     H(rot)  DE(clash)    DE(int)     intcor
     17.17     -17.65       1.96        0.00      79.94       1.46       0.00       0.48       ----

> <Gold.Chemscore.Fitness>
17.1688

> <Gold.Chemscore.DG>
-17.6480

> <Gold.Chemscore.ZeroCoef>
-5.4800

> <Gold.Chemscore.Hbond>
1.9617

> <Gold.Chemscore.Metal>
0.0000

> <Gold.Chemscore.Lipo>
79.9401

> <Gold.Chemscore.Internal_Hbond>
0.0000

> <Gold.Chemscore.DEClash>
0.0038

> <Gold.Chemscore.DEInternal>
0.4755

> <Gold.Chemscore.Rot>
1.4598

> <Gold.Chemscore.Internal.Correction>
   9.000000E+99

> <Gold.Chemscore.Hbonds>
donor molecule, donor type, donor heavy atom, donor atom, acceptor molecule, acceptor atom, score
      L1  H     7    23       P1  8028  0.99
      P1  H  7989  7998       L1     2  0.53

> <Gold.Chemscore.Hbond.Weighted>
-6.5521

> <Gold.Chemscore.Metal.Weighted>
-0.0000

> <Gold.Chemscore.Lipo.Weighted>
-9.3530

> <Gold.Chemscore.Internal_Hbond.Weighted>
0.0000

> <Gold.Chemscore.DEClash.Weighted>
0.0038

> <Gold.Chemscore.DEInternal.Weighted>
0.4755

> <Gold.Chemscore.Rot.Weighted>
3.7371

> <Gold.Chemscore.Internal.Correction.Weighted>
   9.000000E+99

> <Gold.Protein.RotatedTorsions>
[ 6907 6896 6895 6894 ] final  178.57 input  -60.11 | X-H torsion
[ 7974 7965 7964 7962 ] final  128.90 input  175.53 | X-H torsion
[ 8008 7997 7996 7995 ] final   50.60 input   59.86 | X-H torsion
[ 10167 10162 10161 10158 ] final   31.18 input  -65.29 | X-H torsion
[ 10718 10713 10712 10709 ] final    3.82 input   66.30 | X-H torsion
[ 10763 10752 10751 10750 ] final   -4.44 input  -60.55 | X-H torsion
[ 11005 11000 10999 10996 ] final   93.22 input  -57.11 | X-H torsion

> <Gold.Protein.ActiveResidues>
 VAL166  LYS551  ARG553  GLY616  TRP617  ASP618  TYR619  PRO620  LYS621  CYS622 
 ASP623  PHE694  ASN695  SER759  ASP760  ASP761  ALA762  ILE779  LEU786  VAL792 
 PHE793  MET794  SER795  GLU796  ALA797  LYS798  CYS799  TRP800  GLU811  SER814 

> <Gold.Protein.RotatedAtoms>
  151.6857  133.3311  159.3230 H   0  0  0  0  0  0  0  0  0  0  0  0  # atno 6907 bound_to 6896
  150.7802  134.6742  159.6417 H   0  0  0  0  0  0  0  0  0  0  0  0  # atno 6908 bound_to 6896
  152.3857  134.6525  160.0178 H   0  0  0  0  0  0  0  0  0  0  0  0  # atno 6909 bound_to 6896
  145.0345  139.4017  143.5133 H   0  0  0  0  0  0  0  0  0  0  0  0  # atno 7974 bound_to 7965
  155.4215  140.3446  155.4272 H   0  0  0  0  0  0  0  0  0  0  0  0  # atno 8008 bound_to 7997
  156.1390  140.1536  156.8981 H   0  0  0  0  0  0  0  0  0  0  0  0  # atno 8009 bound_to 7997
  154.4955  140.0829  156.7668 H   0  0  0  0  0  0  0  0  0  0  0  0  # atno 8010 bound_to 7997
  140.4612  144.0904  150.6213 H   0  0  0  0  0  0  0  0  0  0  0  0  # atno 10167 bound_to 10162
  156.8835  130.5662  149.5652 H   0  0  0  0  0  0  0  0  0  0  0  0  # atno 10718 bound_to 10713
  153.3848  135.7000  153.6538 H   0  0  0  0  0  0  0  0  0  0  0  0  # atno 10763 bound_to 10752
  153.5135  135.3627  155.2598 H   0  0  0  0  0  0  0  0  0  0  0  0  # atno 10764 bound_to 10752
  154.8696  135.4140  154.3153 H   0  0  0  0  0  0  0  0  0  0  0  0  # atno 10765 bound_to 10752
  139.8813  134.8778  156.3687 H   0  0  0  0  0  0  0  0  0  0  0  0  # atno 11005 bound_to 11000
  146.3502  139.9913  142.8685 LP  0  0  0  0  0  0  0  0  0  0  0  0  # atno 17320 bound_to 7965
  145.1727  140.9729  143.4312 LP  0  0  0  0  0  0  0  0  0  0  0  0  # atno 17321 bound_to 7965
  140.4091  143.2666  151.9855 LP  0  0  0  0  0  0  0  0  0  0  0  0  # atno 17342 bound_to 10162
  139.4806  144.5931  151.7737 LP  0  0  0  0  0  0  0  0  0  0  0  0  # atno 17343 bound_to 10162
  156.0665  130.5707  150.9298 LP  0  0  0  0  0  0  0  0  0  0  0  0  # atno 17370 bound_to 10713
  157.6126  131.0935  150.8768 LP  0  0  0  0  0  0  0  0  0  0  0  0  # atno 17371 bound_to 10713
  140.9479  133.7470  156.0233 LP  0  0  0  0  0  0  0  0  0  0  0  0  # atno 17394 bound_to 11000
  140.8141  134.3366  157.5403 LP  0  0  0  0  0  0  0  0  0  0  0  0  # atno 17395 bound_to 11000

$$$$
