AV-unprocessed.smi:228|AV-procd|sdf|1746|dock1
  -GOLD-   2262020263D 1   1.00000     0.00000
 Structure written by MMmdl.
 59 62  0  0  0  0  0  0  0  0  1 V2000
  146.9005  142.2600  154.2871 C   0  0  0  0  0  0  0  0  0  0  0  0
  147.6673  141.0520  154.5643 N   0  0  0  0  0  0  0  0  0  0  0  0
  149.1264  141.1196  154.4445 C   0  0  0  0  0  0  0  0  0  0  0  0
  149.8533  140.7330  155.7486 C   0  0  1  0  0  0  0  0  0  0  0  0
  151.1484  140.2983  155.3894 O   0  0  0  0  0  0  0  0  0  0  0  0
  149.9998  141.9147  156.7336 C   0  0  0  0  0  0  0  0  0  0  0  0
  151.1595  141.8612  157.6243 N   0  0  0  0  0  0  0  0  0  0  0  0
  151.1469  140.6854  158.4941 C   0  0  0  0  0  0  0  0  0  0  0  0
  152.3480  140.6679  159.4561 C   0  0  0  0  0  0  0  0  0  0  0  0
  152.3668  141.8669  160.2233 O   0  0  0  0  0  0  0  0  0  0  0  0
  152.4301  143.0344  159.4113 C   0  0  0  0  0  0  0  0  0  0  0  0
  151.2259  143.0594  158.4549 C   0  0  0  0  0  0  0  0  0  0  0  0
  147.0401  139.8423  154.5999 C   0  0  0  0  0  0  0  0  0  0  0  0
  146.7713  139.2966  155.8161 N   0  0  0  0  0  0  0  0  0  0  0  0
  146.1637  138.1121  155.9175 C   0  0  0  0  0  0  0  0  0  0  0  0
  145.7480  137.3043  154.9428 N   0  0  0  0  0  0  0  0  0  0  0  0
  146.0179  137.8328  153.7157 C   0  0  0  0  0  0  0  0  0  0  0  0
  146.6464  139.0856  153.4526 C   0  0  0  0  0  0  0  0  0  0  0  0
  146.7386  139.2717  152.0763 N   0  0  0  0  0  0  0  0  0  0  0  0
  146.1865  138.2076  151.5626 C   0  0  0  0  0  0  0  0  0  0  0  0
  145.7527  137.2763  152.4767 N   0  0  0  0  0  0  0  0  0  0  0  0
  145.0823  136.0398  152.1979 C   0  0  0  0  0  0  0  0  0  0  0  0
  145.7125  134.6994  152.5861 C   0  0  0  0  0  0  0  0  0  0  0  0
  145.1357  134.0450  151.3113 C   0  0  0  0  0  0  0  0  0  0  0  0
  146.1225  133.1726  150.5198 C   0  0  0  0  0  0  0  0  0  0  0  0
  146.5838  132.0825  151.2923 O   0  0  0  0  0  0  0  0  0  0  0  0
  143.8333  133.2281  151.4681 C   0  0  0  0  0  0  0  0  0  0  0  0
  143.2491  132.8594  150.2353 O   0  0  0  0  0  0  0  0  0  0  0  0
  144.9836  135.4856  150.7725 C   0  0  0  0  0  0  0  0  0  0  0  0
  145.9934  142.2939  154.8914 H   0  0  0  0  0  0  0  0  0  0  0  0
  146.6263  142.3090  153.2330 H   0  0  0  0  0  0  0  0  0  0  0  0
  147.4847  143.1501  154.5223 H   0  0  0  0  0  0  0  0  0  0  0  0
  149.4151  140.4215  153.6579 H   0  0  0  0  0  0  0  0  0  0  0  0
  149.4679  142.0942  154.0958 H   0  0  0  0  0  0  0  0  0  0  0  0
  149.3316  139.8929  156.2046 H   0  0  0  0  0  0  0  0  0  0  0  0
  151.1810  139.3571  155.4675 H   0  0  0  0  0  0  0  0  0  0  0  0
  150.0316  142.8369  156.1514 H   0  0  0  0  0  0  0  0  0  0  0  0
  149.1043  141.9907  157.3497 H   0  0  0  0  0  0  0  0  0  0  0  0
  150.2223  140.6623  159.0729 H   0  0  0  0  0  0  0  0  0  0  0  0
  151.1680  139.7715  157.9027 H   0  0  0  0  0  0  0  0  0  0  0  0
  152.2814  139.8139  160.1305 H   0  0  0  0  0  0  0  0  0  0  0  0
  153.2834  140.5678  158.9034 H   0  0  0  0  0  0  0  0  0  0  0  0
  152.4234  143.9158  160.0528 H   0  0  0  0  0  0  0  0  0  0  0  0
  153.3678  143.0497  158.8537 H   0  0  0  0  0  0  0  0  0  0  0  0
  151.2899  143.9452  157.8220 H   0  0  0  0  0  0  0  0  0  0  0  0
  150.3077  143.1580  159.0362 H   0  0  0  0  0  0  0  0  0  0  0  0
  145.9875  137.7608  156.9235 H   0  0  0  0  0  0  0  0  0  0  0  0
  146.0884  138.0718  150.4952 H   0  0  0  0  0  0  0  0  0  0  0  0
  144.0908  136.1390  152.6409 H   0  0  0  0  0  0  0  0  0  0  0  0
  146.8033  134.7398  152.5849 H   0  0  0  0  0  0  0  0  0  0  0  0
  145.3407  134.2829  153.5227 H   0  0  0  0  0  0  0  0  0  0  0  0
  145.6664  132.7898  149.6060 H   0  0  0  0  0  0  0  0  0  0  0  0
  146.9932  133.7514  150.2101 H   0  0  0  0  0  0  0  0  0  0  0  0
  147.3198  131.6893  150.8486 H   0  0  0  0  0  0  0  0  0  0  0  0
  144.0167  132.3134  152.0328 H   0  0  0  0  0  0  0  0  0  0  0  0
  143.0844  133.7924  152.0245 H   0  0  0  0  0  0  0  0  0  0  0  0
  142.4203  133.3053  150.1505 H   0  0  0  0  0  0  0  0  0  0  0  0
  144.0354  135.6929  150.2755 H   0  0  0  0  0  0  0  0  0  0  0  0
  145.8236  135.7943  150.1480 H   0  0  0  0  0  0  0  0  0  0  0  0
  1  2  1  0  0  0  0
  1 30  1  0  0  0  0
  1 31  1  0  0  0  0
  1 32  1  0  0  0  0
  2  3  1  0  0  0  0
  2 13  1  0  0  0  0
  3  4  1  0  0  0  0
  3 33  1  0  0  0  0
  3 34  1  0  0  0  0
  4  5  1  0  0  0  0
  4  6  1  0  0  0  0
  4 35  1  0  0  0  0
  5 36  1  0  0  0  0
  6  7  1  0  0  0  0
  6 37  1  0  0  0  0
  6 38  1  0  0  0  0
  7 12  1  0  0  0  0
  7  8  1  0  0  0  0
  8  9  1  0  0  0  0
  8 39  1  0  0  0  0
  8 40  1  0  0  0  0
  9 10  1  0  0  0  0
  9 41  1  0  0  0  0
  9 42  1  0  0  0  0
 10 11  1  0  0  0  0
 11 12  1  0  0  0  0
 11 43  1  0  0  0  0
 11 44  1  0  0  0  0
 12 45  1  0  0  0  0
 12 46  1  0  0  0  0
 13 18  1  0  0  0  0
 13 14  2  0  0  0  0
 14 15  1  0  0  0  0
 15 16  2  0  0  0  0
 15 47  1  0  0  0  0
 16 17  1  0  0  0  0
 17 21  1  0  0  0  0
 17 18  2  0  0  0  0
 18 19  1  0  0  0  0
 19 20  2  0  0  0  0
 20 21  1  0  0  0  0
 20 48  1  0  0  0  0
 21 22  1  0  0  0  0
 22 29  1  0  0  0  0
 22 23  1  0  0  0  0
 22 49  1  0  0  0  0
 23 24  1  0  0  0  0
 23 50  1  0  0  0  0
 23 51  1  0  0  0  0
 24 25  1  0  0  0  0
 24 27  1  0  0  0  0
 24 29  1  0  0  0  0
 25 26  1  0  0  0  0
 25 52  1  0  0  0  0
 25 53  1  0  0  0  0
 26 54  1  0  0  0  0
 27 28  1  0  0  0  0
 27 55  1  0  0  0  0
 27 56  1  0  0  0  0
 28 57  1  0  0  0  0
 29 58  1  0  0  0  0
 29 59  1  0  0  0  0
M  END
> <s_m_source_file>
AV-unprocessed.smi

> <i_m_source_file_index>
228

> <i_lp_mmshare_version>
43012

> <i_f3d_flags>
0

> <s_epik_input>
W0NIMl0xW0NIMl1PW0NIMl1bQ0gyXU4xW0NIMl1bQ0BASF0oW09IXSlbQ0gyXU4oW0NIM10pYyhuW2NIXW4yKWMoYzIzKW5bY0hdbjNbQ0hdKFtDSDJdNClbQ0gyXUM0KFtDSDJdW09IXSlbQ0gyXVtPSF0=

> <s_epik_cmdline>
J2VwaWtfcHl0aG9uJywgJy1waCcsICc3LjAnLCAnLXRuJywgJzgnLCAnLW1hJywgJzIwMCcsICctbWV0YWxfYmluZGluZycsICctaW1hZScsICc8aW5maWxlLm1hZT4nLCAnLW9tYWUnLCAnPG91dGZpbGUubWFlPic=

> <r_lp_tautomer_probability>
1

> <r_epik_Ionization_Penalty>
0.423559

> <r_epik_Ionization_Penalty_Charging>
0

> <r_epik_Ionization_Penalty_Neutral>
0.423559

> <r_epik_State_Penalty>
0.438466

> <r_epik_Charging_Adjusted_Penalty>
0.438466

> <i_epik_Tot_Q>
0

> <i_epik_Tot_abs_Q>
0

> <r_epik_Metal_State_Penalty>
0.436601

> <b_epik_Metal_Only>
0

> <s_lp_Force_Field>
OPLS_2005

> <r_lp_Energy>
57.656

> <b_lp_Chiralities_Consistent>
1

> <s_lp_Variant>
AV-unprocessed.smi:228-4

> <Gold.Version>
5.8.1

> <Gold.Id.Protein>
6NUR|6NUR_protein|mol2

> <Gold.PLP.Fitness>
56.8021

> <Gold.PLP.PLP>
-49.5014

> <Gold.PLP.part.hbond>
-3.0000

> <Gold.PLP.part.metal>
0.0000

> <Gold.PLP.part.buried>
-7.2145

> <Gold.PLP.part.nonpolar>
-41.9377

> <Gold.PLP.part.repulsive>
1.3144

> <Gold.PLP.ligand.clash>
0.0000

> <Gold.PLP.ligand.torsion>
2.4369

> <Gold.PLP.Chemscore.Hbond>
3.0000

> <Gold.PLP.Chemscore.CHOScore>
0.6117

> <Gold.PLP.Chemscore.Metal>
0.0000

> <Gold.Chemscore.Hbonds>
donor molecule, donor type, donor heavy atom, donor atom, acceptor molecule, acceptor atom, score
      L1  H    26    54       P1 10747  1.00
      L1  H    28    57       P1 10186  1.00
      P1  H  7989  7998       L1     5  1.00
      L1  C    20    48       P1 10171  0.61

> <Gold.PLP.Chemscore.Internal.Correction>
1.3394

> <Gold.Rescore>
     Score         DG    S(hbond)    S(metal)    S(lipo)     H(rot)  DE(clash)    DE(int)     intcor
     11.46     -14.86       2.80        0.00     102.19       4.66       1.00       2.40       ----

> <Gold.Chemscore.Fitness>
11.4598

> <Gold.Chemscore.DG>
-14.8578

> <Gold.Chemscore.ZeroCoef>
-5.4800

> <Gold.Chemscore.Hbond>
2.7997

> <Gold.Chemscore.Metal>
0.0000

> <Gold.Chemscore.Lipo>
102.1929

> <Gold.Chemscore.Internal_Hbond>
0.0000

> <Gold.Chemscore.DEClash>
0.9992

> <Gold.Chemscore.DEInternal>
2.3988

> <Gold.Chemscore.Rot>
4.6600

> <Gold.Chemscore.Internal.Correction>
   9.000000E+99

> <Gold.Chemscore.Hbonds>
donor molecule, donor type, donor heavy atom, donor atom, acceptor molecule, acceptor atom, score
      L1  H    26    54       P1 10747  0.99
      L1  H    28    57       P1 10186  1.00
      P1  H  7989  7998       L1     5  0.57

> <Gold.Chemscore.Hbond.Weighted>
-9.3508

> <Gold.Chemscore.Metal.Weighted>
-0.0000

> <Gold.Chemscore.Lipo.Weighted>
-11.9566

> <Gold.Chemscore.Internal_Hbond.Weighted>
0.0000

> <Gold.Chemscore.DEClash.Weighted>
0.9992

> <Gold.Chemscore.DEInternal.Weighted>
2.3988

> <Gold.Chemscore.Rot.Weighted>
11.9297

> <Gold.Chemscore.Internal.Correction.Weighted>
   9.000000E+99

> <Gold.Protein.RotatedTorsions>
[ 6907 6896 6895 6894 ] final  143.40 input  -60.11 | X-H torsion
[ 7974 7965 7964 7962 ] final  -40.46 input  175.53 | X-H torsion
[ 8008 7997 7996 7995 ] final  141.64 input   59.86 | X-H torsion
[ 10167 10162 10161 10158 ] final -125.65 input  -65.29 | X-H torsion
[ 10718 10713 10712 10709 ] final    0.80 input   66.30 | X-H torsion
[ 10763 10752 10751 10750 ] final  136.91 input  -60.55 | X-H torsion
[ 11005 11000 10999 10996 ] final   91.83 input  -57.11 | X-H torsion

> <Gold.Protein.ActiveResidues>
 VAL166  LYS551  ARG553  GLY616  TRP617  ASP618  TYR619  PRO620  LYS621  CYS622 
 ASP623  PHE694  ASN695  SER759  ASP760  ASP761  ALA762  ILE779  LEU786  VAL792 
 PHE793  MET794  SER795  GLU796  ALA797  LYS798  CYS799  TRP800  GLU811  SER814 

> <Gold.Protein.RotatedAtoms>
  152.2067  133.4881  159.5087 H   0  0  0  0  0  0  0  0  0  0  0  0  # atno 6907 bound_to 6896
  150.6981  134.1520  159.4153 H   0  0  0  0  0  0  0  0  0  0  0  0  # atno 6908 bound_to 6896
  151.9439  135.0200  160.0588 H   0  0  0  0  0  0  0  0  0  0  0  0  # atno 6909 bound_to 6896
  146.0303  140.6740  142.9136 H   0  0  0  0  0  0  0  0  0  0  0  0  # atno 7974 bound_to 7965
  156.2962  140.2310  156.4597 H   0  0  0  0  0  0  0  0  0  0  0  0  # atno 8008 bound_to 7997
  154.8029  140.0447  157.1307 H   0  0  0  0  0  0  0  0  0  0  0  0  # atno 8009 bound_to 7997
  154.9513  140.3042  155.5077 H   0  0  0  0  0  0  0  0  0  0  0  0  # atno 8010 bound_to 7997
  139.9799  143.5754  152.2382 H   0  0  0  0  0  0  0  0  0  0  0  0  # atno 10167 bound_to 10162
  156.8387  130.5513  149.5679 H   0  0  0  0  0  0  0  0  0  0  0  0  # atno 10718 bound_to 10713
  153.8644  135.3063  155.3439 H   0  0  0  0  0  0  0  0  0  0  0  0  # atno 10763 bound_to 10752
  154.7834  135.4823  153.9897 H   0  0  0  0  0  0  0  0  0  0  0  0  # atno 10764 bound_to 10752
  153.1443  135.6830  153.9074 H   0  0  0  0  0  0  0  0  0  0  0  0  # atno 10765 bound_to 10752
  139.8832  134.8697  156.3484 H   0  0  0  0  0  0  0  0  0  0  0  0  # atno 11005 bound_to 11000
  144.7027  140.3723  143.7143 LP  0  0  0  0  0  0  0  0  0  0  0  0  # atno 17320 bound_to 7965
  145.7052  139.1671  143.2570 LP  0  0  0  0  0  0  0  0  0  0  0  0  # atno 17321 bound_to 7965
  139.6418  144.7655  151.2324 LP  0  0  0  0  0  0  0  0  0  0  0  0  # atno 17342 bound_to 10162
  140.7493  143.6305  150.8427 LP  0  0  0  0  0  0  0  0  0  0  0  0  # atno 17343 bound_to 10162
  156.0893  130.5883  150.9704 LP  0  0  0  0  0  0  0  0  0  0  0  0  # atno 17370 bound_to 10713
  157.6367  131.0915  150.8334 LP  0  0  0  0  0  0  0  0  0  0  0  0  # atno 17371 bound_to 10713
  140.9611  133.7388  156.0402 LP  0  0  0  0  0  0  0  0  0  0  0  0  # atno 17394 bound_to 11000
  140.7988  134.3532  157.5445 LP  0  0  0  0  0  0  0  0  0  0  0  0  # atno 17395 bound_to 11000

$$$$
