AV-unprocessed.smi:168|AV-procd|sdf|1397|dock8
  -GOLD-   2262019143D 1   1.00000     0.00000
 Structure written by MMmdl.
 62 66  0  0  0  0  0  0  0  0  1 V2000
  150.5857  138.3572  158.4605 C   0  0  0  0  0  0  0  0  0  0  0  0
  149.1982  137.9646  157.9334 C   0  0  0  0  0  0  0  0  0  0  0  0
  148.6600  136.7579  158.7342 C   0  0  0  0  0  0  0  0  0  0  0  0
  149.1997  137.8197  156.3877 C   0  0  1  0  0  0  0  0  0  0  0  0
  147.8371  137.7649  155.8522 N   0  0  0  0  0  0  0  0  0  0  0  0
  147.5412  136.7024  154.9352 C   0  0  0  0  0  0  0  0  0  0  0  0
  148.3625  135.6174  154.9006 N   0  0  0  0  0  0  0  0  0  0  0  0
  148.1518  134.6049  154.0563 C   0  0  0  0  0  0  0  0  0  0  0  0
  147.1892  134.4683  153.1462 N   0  0  0  0  0  0  0  0  0  0  0  0
  146.3661  135.5534  153.1430 C   0  0  0  0  0  0  0  0  0  0  0  0
  146.4750  136.7003  153.9842 C   0  0  0  0  0  0  0  0  0  0  0  0
  145.4716  137.6051  153.6574 N   0  0  0  0  0  0  0  0  0  0  0  0
  144.8127  137.0312  152.6898 C   0  0  0  0  0  0  0  0  0  0  0  0
  145.2632  135.7808  152.3375 N   0  0  0  0  0  0  0  0  0  0  0  0
  144.7542  134.9536  151.2822 C   0  0  0  0  0  0  0  0  0  0  0  0
  144.3753  133.4914  151.5380 C   0  0  0  0  0  0  0  0  0  0  0  0
  144.8989  133.0966  150.1391 C   0  0  0  0  0  0  0  0  0  0  0  0
  145.7983  131.8513  150.1049 C   0  0  0  0  0  0  0  0  0  0  0  0
  146.8639  131.9586  151.0271 O   0  0  0  0  0  0  0  0  0  0  0  0
  143.8528  132.9320  149.0138 C   0  0  0  0  0  0  0  0  0  0  0  0
  142.8211  132.0224  149.3377 O   0  0  0  0  0  0  0  0  0  0  0  0
  145.6679  134.4368  150.1666 C   0  0  0  0  0  0  0  0  0  0  0  0
  147.9416  139.1071  155.2819 C   0  0  0  0  0  0  0  0  0  0  0  0
  149.4668  139.0015  155.4162 C   0  0  0  0  0  0  0  0  0  0  0  0
  150.1921  138.6337  154.1024 C   0  0  0  0  0  0  0  0  0  0  0  0
  151.6948  138.3678  154.2901 C   0  0  0  0  0  0  0  0  0  0  0  0
  152.3969  139.5874  154.8961 C   0  0  0  0  0  0  0  0  0  0  0  0
  151.6989  140.0365  156.1844 C   0  0  0  0  0  0  0  0  0  0  0  0
  150.1910  140.2511  155.9588 C   0  0  0  0  0  0  0  0  0  0  0  0
  151.3106  137.5593  158.2966 H   0  0  0  0  0  0  0  0  0  0  0  0
  150.5568  138.5624  159.5310 H   0  0  0  0  0  0  0  0  0  0  0  0
  150.9559  139.2559  157.9670 H   0  0  0  0  0  0  0  0  0  0  0  0
  148.5510  138.8045  158.1817 H   0  0  0  0  0  0  0  0  0  0  0  0
  149.2929  135.8788  158.6104 H   0  0  0  0  0  0  0  0  0  0  0  0
  147.6479  136.4796  158.4504 H   0  0  0  0  0  0  0  0  0  0  0  0
  148.6358  136.9855  159.8002 H   0  0  0  0  0  0  0  0  0  0  0  0
  149.8138  136.9772  156.0727 H   0  0  0  0  0  0  0  0  0  0  0  0
  148.8558  133.7883  154.1196 H   0  0  0  0  0  0  0  0  0  0  0  0
  143.9725  137.5089  152.2068 H   0  0  0  0  0  0  0  0  0  0  0  0
  143.9091  135.5005  150.8624 H   0  0  0  0  0  0  0  0  0  0  0  0
  144.9586  133.0459  152.3457 H   0  0  0  0  0  0  0  0  0  0  0  0
  143.3087  133.3244  151.6913 H   0  0  0  0  0  0  0  0  0  0  0  0
  145.2300  130.9472  150.3255 H   0  0  0  0  0  0  0  0  0  0  0  0
  146.2306  131.7088  149.1140 H   0  0  0  0  0  0  0  0  0  0  0  0
  147.5823  131.4280  150.7186 H   0  0  0  0  0  0  0  0  0  0  0  0
  143.3871  133.8893  148.7781 H   0  0  0  0  0  0  0  0  0  0  0  0
  144.3185  132.5784  148.0937 H   0  0  0  0  0  0  0  0  0  0  0  0
  142.0264  132.5114  149.4873 H   0  0  0  0  0  0  0  0  0  0  0  0
  145.6169  135.0147  149.2432 H   0  0  0  0  0  0  0  0  0  0  0  0
  146.7021  134.3290  150.4979 H   0  0  0  0  0  0  0  0  0  0  0  0
  147.5989  139.2441  154.2565 H   0  0  0  0  0  0  0  0  0  0  0  0
  147.5006  139.8565  155.9388 H   0  0  0  0  0  0  0  0  0  0  0  0
  149.7417  137.7519  153.6471 H   0  0  0  0  0  0  0  0  0  0  0  0
  150.0607  139.4316  153.3704 H   0  0  0  0  0  0  0  0  0  0  0  0
  151.8386  137.5015  154.9369 H   0  0  0  0  0  0  0  0  0  0  0  0
  152.1505  138.1165  153.3321 H   0  0  0  0  0  0  0  0  0  0  0  0
  153.4445  139.3598  155.0944 H   0  0  0  0  0  0  0  0  0  0  0  0
  152.3879  140.4059  154.1752 H   0  0  0  0  0  0  0  0  0  0  0  0
  151.8583  139.2887  156.9608 H   0  0  0  0  0  0  0  0  0  0  0  0
  152.1543  140.9579  156.5484 H   0  0  0  0  0  0  0  0  0  0  0  0
  150.0559  141.0814  155.2642 H   0  0  0  0  0  0  0  0  0  0  0  0
  149.7465  140.5925  156.8905 H   0  0  0  0  0  0  0  0  0  0  0  0
  1  2  1  0  0  0  0
  1 30  1  0  0  0  0
  1 31  1  0  0  0  0
  1 32  1  0  0  0  0
  2  3  1  0  0  0  0
  2  4  1  0  0  0  0
  2 33  1  0  0  0  0
  3 34  1  0  0  0  0
  3 35  1  0  0  0  0
  3 36  1  0  0  0  0
  4 24  1  0  0  0  0
  4  5  1  0  0  0  0
  4 37  1  0  0  0  0
  5  6  1  0  0  0  0
  5 23  1  0  0  0  0
  6 11  1  0  0  0  0
  6  7  2  0  0  0  0
  7  8  1  0  0  0  0
  8  9  2  0  0  0  0
  8 38  1  0  0  0  0
  9 10  1  0  0  0  0
 10 14  1  0  0  0  0
 10 11  2  0  0  0  0
 11 12  1  0  0  0  0
 12 13  2  0  0  0  0
 13 14  1  0  0  0  0
 13 39  1  0  0  0  0
 14 15  1  0  0  0  0
 15 22  1  0  0  0  0
 15 16  1  0  0  0  0
 15 40  1  0  0  0  0
 16 17  1  0  0  0  0
 16 41  1  0  0  0  0
 16 42  1  0  0  0  0
 17 18  1  0  0  0  0
 17 20  1  0  0  0  0
 17 22  1  0  0  0  0
 18 19  1  0  0  0  0
 18 43  1  0  0  0  0
 18 44  1  0  0  0  0
 19 45  1  0  0  0  0
 20 21  1  0  0  0  0
 20 46  1  0  0  0  0
 20 47  1  0  0  0  0
 21 48  1  0  0  0  0
 22 49  1  0  0  0  0
 22 50  1  0  0  0  0
 23 24  1  0  0  0  0
 23 51  1  0  0  0  0
 23 52  1  0  0  0  0
 24 29  1  0  0  0  0
 24 25  1  0  0  0  0
 25 26  1  0  0  0  0
 25 53  1  0  0  0  0
 25 54  1  0  0  0  0
 26 27  1  0  0  0  0
 26 55  1  0  0  0  0
 26 56  1  0  0  0  0
 27 28  1  0  0  0  0
 27 57  1  0  0  0  0
 27 58  1  0  0  0  0
 28 29  1  0  0  0  0
 28 59  1  0  0  0  0
 28 60  1  0  0  0  0
 29 61  1  0  0  0  0
 29 62  1  0  0  0  0
M  END
> <s_m_source_file>
AV-unprocessed.smi

> <i_m_source_file_index>
168

> <i_lp_mmshare_version>
43012

> <i_f3d_flags>
0

> <s_epik_input>
W0NIMl0xW0NIMl1bQ0gyXVtDSDJdW0NIMl1DMTJbQ0BIXShbQ0hdKFtDSDNdKVtDSDNdKU4oW0NIMl0yKWMobltjSF1uMyljKGMzNCluW2NIXW40W0NIXShbQ0gyXTUpW0NIMl1DNShbQ0gyXVtPSF0pW0NIMl1bT0hd

> <s_epik_cmdline>
J2VwaWtfcHl0aG9uJywgJy1waCcsICc3LjAnLCAnLXRuJywgJzgnLCAnLW1hJywgJzIwMCcsICctbWV0YWxfYmluZGluZycsICctaW1hZScsICc8aW5maWxlLm1hZT4nLCAnLW9tYWUnLCAnPG91dGZpbGUubWFlPic=

> <r_lp_tautomer_probability>
1

> <r_epik_Ionization_Penalty>
0.00324652

> <r_epik_Ionization_Penalty_Charging>
0

> <r_epik_Ionization_Penalty_Neutral>
0.00324652

> <r_epik_State_Penalty>
0.00223464

> <r_epik_Charging_Adjusted_Penalty>
0.00223464

> <i_epik_Tot_Q>
0

> <i_epik_Tot_abs_Q>
0

> <r_epik_Metal_State_Penalty>
-0

> <b_epik_Metal_Only>
0

> <s_lp_Force_Field>
OPLS_2005

> <r_lp_Energy>
69.202

> <b_lp_Chiralities_Consistent>
1

> <s_lp_Variant>
AV-unprocessed.smi:168-2

> <Gold.Version>
5.8.1

> <Gold.Id.Protein>
6NUR|6NUR_protein|mol2

> <Gold.PLP.Fitness>
49.9913

> <Gold.PLP.PLP>
-38.8221

> <Gold.PLP.part.hbond>
-3.8868

> <Gold.PLP.part.metal>
0.0000

> <Gold.PLP.part.buried>
-1.1944

> <Gold.PLP.part.nonpolar>
-34.4081

> <Gold.PLP.part.repulsive>
1.0470

> <Gold.PLP.ligand.clash>
0.0000

> <Gold.PLP.ligand.torsion>
0.8284

> <Gold.PLP.Chemscore.Hbond>
2.9263

> <Gold.PLP.Chemscore.CHOScore>
1.0897

> <Gold.PLP.Chemscore.Metal>
0.0000

> <Gold.Chemscore.Hbonds>
donor molecule, donor type, donor heavy atom, donor atom, acceptor molecule, acceptor atom, score
      L1  H    19    45       P1 10747  1.00
      L1  H    21    48       P1 10186  0.69
      P1  H 10785 10796       L1    21  1.00
      L1  C    13    39       P1 10171  0.76

> <Gold.PLP.Chemscore.Internal.Correction>
0.7783

> <Gold.Rescore>
     Score         DG    S(hbond)    S(metal)    S(lipo)     H(rot)  DE(clash)    DE(int)     intcor
     14.90     -17.98       2.61        0.00     100.67       3.12       2.11       0.97       ----

> <Gold.Chemscore.Fitness>
14.9043

> <Gold.Chemscore.DG>
-17.9842

> <Gold.Chemscore.ZeroCoef>
-5.4800

> <Gold.Chemscore.Hbond>
2.6071

> <Gold.Chemscore.Metal>
0.0000

> <Gold.Chemscore.Lipo>
100.6748

> <Gold.Chemscore.Internal_Hbond>
0.0000

> <Gold.Chemscore.DEClash>
2.1059

> <Gold.Chemscore.DEInternal>
0.9740

> <Gold.Chemscore.Rot>
3.1181

> <Gold.Chemscore.Internal.Correction>
   9.000000E+99

> <Gold.Chemscore.Hbonds>
donor molecule, donor type, donor heavy atom, donor atom, acceptor molecule, acceptor atom, score
      L1  H    19    45       P1 10747  0.97
      L1  H    21    48       P1 10186  0.65
      P1  H 10785 10796       L1    21  0.84

> <Gold.Chemscore.Hbond.Weighted>
-8.7076

> <Gold.Chemscore.Metal.Weighted>
-0.0000

> <Gold.Chemscore.Lipo.Weighted>
-11.7790

> <Gold.Chemscore.Internal_Hbond.Weighted>
0.0000

> <Gold.Chemscore.DEClash.Weighted>
2.1059

> <Gold.Chemscore.DEInternal.Weighted>
0.9740

> <Gold.Chemscore.Rot.Weighted>
7.9823

> <Gold.Chemscore.Internal.Correction.Weighted>
   9.000000E+99

> <Gold.Protein.RotatedTorsions>
[ 6907 6896 6895 6894 ] final   69.62 input  -60.11 | X-H torsion
[ 7974 7965 7964 7962 ] final -107.96 input  175.53 | X-H torsion
[ 8008 7997 7996 7995 ] final -160.86 input   59.86 | X-H torsion
[ 10167 10162 10161 10158 ] final  153.83 input  -65.29 | X-H torsion
[ 10718 10713 10712 10709 ] final -163.75 input   66.30 | X-H torsion
[ 10763 10752 10751 10750 ] final  -91.53 input  -60.55 | X-H torsion
[ 11005 11000 10999 10996 ] final  146.94 input  -57.11 | X-H torsion

> <Gold.Protein.ActiveResidues>
 VAL166  LYS551  ARG553  GLY616  TRP617  ASP618  TYR619  PRO620  LYS621  CYS622 
 ASP623  PHE694  ASN695  SER759  ASP760  ASP761  ALA762  ILE779  LEU786  VAL792 
 PHE793  MET794  SER795  GLU796  ALA797  LYS798  CYS799  TRP800  GLU811  SER814 

> <Gold.Protein.RotatedAtoms>
  152.4697  134.4989  159.9718 H   0  0  0  0  0  0  0  0  0  0  0  0  # atno 6907 bound_to 6896
  151.5019  133.3497  159.2878 H   0  0  0  0  0  0  0  0  0  0  0  0  # atno 6908 bound_to 6896
  150.8701  134.8100  159.7210 H   0  0  0  0  0  0  0  0  0  0  0  0  # atno 6909 bound_to 6896
  145.1988  140.9047  143.3381 H   0  0  0  0  0  0  0  0  0  0  0  0  # atno 7974 bound_to 7965
  155.7837  140.0868  157.2045 H   0  0  0  0  0  0  0  0  0  0  0  0  # atno 8008 bound_to 7997
  154.3989  140.1503  156.3140 H   0  0  0  0  0  0  0  0  0  0  0  0  # atno 8009 bound_to 7997
  155.8628  140.3429  155.5770 H   0  0  0  0  0  0  0  0  0  0  0  0  # atno 8010 bound_to 7997
  139.4825  144.5239  151.7832 H   0  0  0  0  0  0  0  0  0  0  0  0  # atno 10167 bound_to 10162
  156.6292  130.8922  151.2974 H   0  0  0  0  0  0  0  0  0  0  0  0  # atno 10718 bound_to 10713
  154.6770  135.5264  153.8212 H   0  0  0  0  0  0  0  0  0  0  0  0  # atno 10763 bound_to 10752
  153.0539  135.6543  154.0636 H   0  0  0  0  0  0  0  0  0  0  0  0  # atno 10764 bound_to 10752
  154.0528  135.2968  155.3317 H   0  0  0  0  0  0  0  0  0  0  0  0  # atno 10765 bound_to 10752
  140.0834  134.9083  157.1538 H   0  0  0  0  0  0  0  0  0  0  0  0  # atno 11005 bound_to 11000
  144.9968  139.3636  143.6187 LP  0  0  0  0  0  0  0  0  0  0  0  0  # atno 17320 bound_to 7965
  146.3422  139.9174  142.8771 LP  0  0  0  0  0  0  0  0  0  0  0  0  # atno 17321 bound_to 7965
  140.4757  144.1523  150.5924 LP  0  0  0  0  0  0  0  0  0  0  0  0  # atno 17342 bound_to 10162
  140.4334  143.2558  151.9566 LP  0  0  0  0  0  0  0  0  0  0  0  0  # atno 17343 bound_to 10162
  157.7205  130.9552  150.1420 LP  0  0  0  0  0  0  0  0  0  0  0  0  # atno 17370 bound_to 10713
  156.2249  130.3677  149.8513 LP  0  0  0  0  0  0  0  0  0  0  0  0  # atno 17371 bound_to 10713
  140.3454  134.2657  155.7206 LP  0  0  0  0  0  0  0  0  0  0  0  0  # atno 17394 bound_to 11000
  141.2054  133.7860  157.0232 LP  0  0  0  0  0  0  0  0  0  0  0  0  # atno 17395 bound_to 11000

$$$$
