AV-unprocessed.smi:1066|AV-procd|sdf|4670|dock1
  -GOLD-   22720 3183D 1   1.00000     0.00000
 Structure written by MMmdl.
 38 40  0  0  0  0  0  0  0  0  2 V2000
  153.0508  129.6926  155.4718 C   0  0  0  0  0  0  0  0  0  0  0  0
  152.1785  130.5576  156.3356 C   0  0  0  0  0  0  0  0  0  0  0  0
  152.7369  131.3000  157.2827 N   0  0  0  0  0  0  0  0  0  0  0  0
  151.6926  131.9832  157.9163 O   0  0  0  0  0  0  0  0  0  0  0  0
  150.5464  131.6094  157.3037 C   0  0  0  0  0  0  0  0  0  0  0  0
  149.0078  132.2044  157.7883 Cl  0  0  0  0  0  0  0  0  0  0  0  0
  150.7616  130.7130  156.2965 C   0  0  0  0  0  0  0  0  0  0  0  0
  149.7688  130.0451  155.3778 C   0  0  0  0  0  0  0  0  0  0  0  0
  148.8283  131.0919  154.7796 C   0  0  0  0  0  0  0  0  0  0  0  0
  147.6159  130.8853  154.7466 O   0  0  0  0  0  0  0  0  0  0  0  0
  149.3989  132.2134  154.3139 N   0  0  0  0  0  0  0  0  0  0  0  0
  148.6765  133.3454  153.7472 C   0  0  2  0  0  0  0  0  0  0  0  0
  147.6732  133.9943  154.7033 C   0  0  0  0  0  0  0  0  0  0  0  0
  146.5616  134.5349  153.7863 C   0  0  0  0  0  0  0  0  0  0  0  0
  146.8518  134.0374  152.4210 N   0  3  2  0  0  0  0  0  0  0  0  0
  145.6529  133.7067  151.6226 C   0  0  0  0  0  0  0  0  0  0  0  0
  145.2262  132.2634  151.7468 C   0  0  0  0  0  0  0  0  0  0  0  0
  145.9267  132.7425  150.4934 C   0  0  0  0  0  0  0  0  0  0  0  0
  147.7998  132.9210  152.5742 C   0  0  0  0  0  0  0  0  0  0  0  0
  152.4772  128.8932  155.0023 H   0  0  0  0  0  0  0  0  0  0  0  0
  153.8468  129.2258  156.0528 H   0  0  0  0  0  0  0  0  0  0  0  0
  153.5159  130.2775  154.6782 H   0  0  0  0  0  0  0  0  0  0  0  0
  150.2665  129.5134  154.5662 H   0  0  0  0  0  0  0  0  0  0  0  0
  149.1803  129.2971  155.9105 H   0  0  0  0  0  0  0  0  0  0  0  0
  150.4039  132.2934  154.3771 H   0  0  0  0  0  0  0  0  0  0  0  0
  149.3812  134.1019  153.3952 H   0  0  0  0  0  0  0  0  0  0  0  0
  147.2555  133.2500  155.3833 H   0  0  0  0  0  0  0  0  0  0  0  0
  148.1310  134.7764  155.3101 H   0  0  0  0  0  0  0  0  0  0  0  0
  145.5875  134.1873  154.1346 H   0  0  0  0  0  0  0  0  0  0  0  0
  146.5406  135.6251  153.7774 H   0  0  0  0  0  0  0  0  0  0  0  0
  144.9105  134.4949  151.5100 H   0  0  0  0  0  0  0  0  0  0  0  0
  145.7863  131.6161  152.4196 H   0  0  0  0  0  0  0  0  0  0  0  0
  144.1629  132.0457  151.6705 H   0  0  0  0  0  0  0  0  0  0  0  0
  145.3238  132.8389  149.5926 H   0  0  0  0  0  0  0  0  0  0  0  0
  146.9520  132.4143  150.3334 H   0  0  0  0  0  0  0  0  0  0  0  0
  148.3730  132.7519  151.6620 H   0  0  0  0  0  0  0  0  0  0  0  0
  147.2560  132.0042  152.8119 H   0  0  0  0  0  0  0  0  0  0  0  0
  147.3503  134.7752  151.9436 H   0  0  0  0  0  0  0  0  0  0  0  0
  1  2  1  0  0  0  0
  1 20  1  0  0  0  0
  1 21  1  0  0  0  0
  1 22  1  0  0  0  0
  2  7  1  0  0  0  0
  2  3  2  0  0  0  0
  3  4  1  0  0  0  0
  4  5  1  0  0  0  0
  5  6  1  0  0  0  0
  5  7  2  0  0  0  0
  7  8  1  0  0  0  0
  8  9  1  0  0  0  0
  8 23  1  0  0  0  0
  8 24  1  0  0  0  0
  9 10  2  0  0  0  0
  9 11  1  0  0  0  0
 11 12  1  0  0  0  0
 11 25  1  0  0  0  0
 12 19  1  0  0  0  0
 12 13  1  0  0  0  0
 12 26  1  0  0  0  0
 13 14  1  0  0  0  0
 13 27  1  0  0  0  0
 13 28  1  0  0  0  0
 14 15  1  0  0  0  0
 14 29  1  0  0  0  0
 14 30  1  0  0  0  0
 15 16  1  0  0  0  0
 15 19  1  0  0  0  0
 15 38  1  0  0  0  0
 16 18  1  0  0  0  0
 16 17  1  0  0  0  0
 16 31  1  0  0  0  0
 17 18  1  0  0  0  0
 17 32  1  0  0  0  0
 17 33  1  0  0  0  0
 18 34  1  0  0  0  0
 18 35  1  0  0  0  0
 19 36  1  0  0  0  0
 19 37  1  0  0  0  0
M  CHG  1  15   1
M  END
> <s_m_source_file>
AV-unprocessed.smi

> <i_m_source_file_index>
1066

> <i_lp_mmshare_version>
43012

> <i_f3d_flags>
0

> <s_epik_input>
W0NIM11jMW5vYyhDbCljMVtDSDJdQyg9TylbTkhdW0NAQEhdMltDSDJdW0NIMl1OKFtDSDJdMilbQ0hdM1tDSDJdW0NIMl0z

> <s_epik_cmdline>
J2VwaWtfcHl0aG9uJywgJy1waCcsICc3LjAnLCAnLXRuJywgJzgnLCAnLW1hJywgJzIwMCcsICctbWV0YWxfYmluZGluZycsICctaW1hZScsICc8aW5maWxlLm1hZT4nLCAnLW9tYWUnLCAnPG91dGZpbGUubWFlPic=

> <r_epik_Ionization_Penalty>
0.00108138

> <r_epik_Ionization_Penalty_Charging>
0.00108128

> <r_epik_Ionization_Penalty_Neutral>
9.66632e-08

> <r_epik_State_Penalty>
0.000708577

> <r_epik_Charging_Adjusted_Penalty>
0.00178986

> <i_epik_Tot_Q>
1

> <i_epik_Tot_abs_Q>
1

> <r_epik_Metal_State_Penalty>
-0

> <b_epik_Metal_Only>
0

> <s_lp_Force_Field>
OPLS_2005

> <r_lp_Energy>
30.9378

> <b_lp_Chiralities_Consistent>
1

> <s_lp_Variant>
AV-unprocessed.smi:1066-3

> <Gold.Version>
5.8.1

> <Gold.Id.Protein>
6NUR|6NUR_protein|mol2

> <Gold.PLP.Fitness>
36.6424

> <Gold.PLP.PLP>
-28.2089

> <Gold.PLP.part.hbond>
-2.0000

> <Gold.PLP.part.metal>
0.0000

> <Gold.PLP.part.buried>
-1.6463

> <Gold.PLP.part.nonpolar>
-24.7706

> <Gold.PLP.part.repulsive>
0.0516

> <Gold.PLP.ligand.clash>
0.0000

> <Gold.PLP.ligand.torsion>
0.9219

> <Gold.PLP.Chemscore.Hbond>
3.0000

> <Gold.PLP.Chemscore.CHOScore>
0.0000

> <Gold.PLP.Chemscore.Metal>
0.0000

> <Gold.Chemscore.Hbonds>
donor molecule, donor type, donor heavy atom, donor atom, acceptor molecule, acceptor atom, score
      L1  H    15    38       P1  7948  1.53
      P1  H  6896  6907       L1     4  1.00

> <Gold.PLP.Chemscore.Internal.Correction>
1.2774

> <Gold.Rescore>
     Score         DG    S(hbond)    S(metal)    S(lipo)     H(rot)  DE(clash)    DE(int)     intcor
     13.50     -15.44       1.92        0.00      64.81       1.57       0.03       1.91       ----

> <Gold.Chemscore.Fitness>
13.4961

> <Gold.Chemscore.DG>
-15.4372

> <Gold.Chemscore.ZeroCoef>
-5.4800

> <Gold.Chemscore.Hbond>
1.9152

> <Gold.Chemscore.Metal>
0.0000

> <Gold.Chemscore.Lipo>
64.8062

> <Gold.Chemscore.Internal_Hbond>
0.0000

> <Gold.Chemscore.DEClash>
0.0300

> <Gold.Chemscore.DEInternal>
1.9111

> <Gold.Chemscore.Rot>
1.5711

> <Gold.Chemscore.Internal.Correction>
   9.000000E+99

> <Gold.Chemscore.Hbonds>
donor molecule, donor type, donor heavy atom, donor atom, acceptor molecule, acceptor atom, score
      L1  H    15    38       P1  7948  0.61
      P1  H  6896  6907       L1     4  0.99

> <Gold.Chemscore.Hbond.Weighted>
-6.3969

> <Gold.Chemscore.Metal.Weighted>
-0.0000

> <Gold.Chemscore.Lipo.Weighted>
-7.5823

> <Gold.Chemscore.Internal_Hbond.Weighted>
0.0000

> <Gold.Chemscore.DEClash.Weighted>
0.0300

> <Gold.Chemscore.DEInternal.Weighted>
1.9111

> <Gold.Chemscore.Rot.Weighted>
4.0221

> <Gold.Chemscore.Internal.Correction.Weighted>
   9.000000E+99

> <Gold.Protein.RotatedTorsions>
[ 6907 6896 6895 6894 ] final  171.44 input  -60.11 | X-H torsion
[ 7974 7965 7964 7962 ] final  112.69 input  175.53 | X-H torsion
[ 8008 7997 7996 7995 ] final   21.07 input   59.86 | X-H torsion
[ 10167 10162 10161 10158 ] final -117.26 input  -65.29 | X-H torsion
[ 10718 10713 10712 10709 ] final   74.55 input   66.30 | X-H torsion
[ 10763 10752 10751 10750 ] final -171.58 input  -60.55 | X-H torsion
[ 11005 11000 10999 10996 ] final   58.06 input  -57.11 | X-H torsion

> <Gold.Protein.ActiveResidues>
 VAL166  LYS551  ARG553  GLY616  TRP617  ASP618  TYR619  PRO620  LYS621  CYS622 
 ASP623  PHE694  ASN695  SER759  ASP760  ASP761  ALA762  ILE779  LEU786  VAL792 
 PHE793  MET794  SER795  GLU796  ALA797  LYS798  CYS799  TRP800  GLU811  SER814 

> <Gold.Protein.RotatedAtoms>
  151.8002  133.3369  159.3524 H   0  0  0  0  0  0  0  0  0  0  0  0  # atno 6907 bound_to 6896
  150.7361  134.5761  159.5924 H   0  0  0  0  0  0  0  0  0  0  0  0  # atno 6908 bound_to 6896
  152.3148  134.7454  160.0379 H   0  0  0  0  0  0  0  0  0  0  0  0  # atno 6909 bound_to 6896
  145.2264  139.2839  143.4191 H   0  0  0  0  0  0  0  0  0  0  0  0  # atno 7974 bound_to 7965
  154.9451  140.3058  155.5102 H   0  0  0  0  0  0  0  0  0  0  0  0  # atno 8008 bound_to 7997
  156.2992  140.2329  156.4461 H   0  0  0  0  0  0  0  0  0  0  0  0  # atno 8009 bound_to 7997
  154.8108  140.0428  157.1329 H   0  0  0  0  0  0  0  0  0  0  0  0  # atno 8010 bound_to 7997
  140.0702  143.4884  152.1984 H   0  0  0  0  0  0  0  0  0  0  0  0  # atno 10167 bound_to 10162
  157.6597  130.9683  150.1227 H   0  0  0  0  0  0  0  0  0  0  0  0  # atno 10718 bound_to 10713
  154.6289  135.2884  155.0240 H   0  0  0  0  0  0  0  0  0  0  0  0  # atno 10763 bound_to 10752
  154.1408  135.6519  153.4945 H   0  0  0  0  0  0  0  0  0  0  0  0  # atno 10764 bound_to 10752
  153.0270  135.5332  154.7108 H   0  0  0  0  0  0  0  0  0  0  0  0  # atno 10765 bound_to 10752
  140.0406  134.5879  155.9387 H   0  0  0  0  0  0  0  0  0  0  0  0  # atno 11005 bound_to 11000
  146.3363  140.2586  142.8601 LP  0  0  0  0  0  0  0  0  0  0  0  0  # atno 17320 bound_to 7965
  144.9717  140.8375  143.5451 LP  0  0  0  0  0  0  0  0  0  0  0  0  # atno 17321 bound_to 7965
  139.5840  144.7523  151.3567 LP  0  0  0  0  0  0  0  0  0  0  0  0  # atno 17342 bound_to 10162
  140.7129  143.7343  150.7600 LP  0  0  0  0  0  0  0  0  0  0  0  0  # atno 17343 bound_to 10162
  156.2094  130.3665  149.8688 LP  0  0  0  0  0  0  0  0  0  0  0  0  # atno 17370 bound_to 10713
  156.6571  130.8767  151.3541 LP  0  0  0  0  0  0  0  0  0  0  0  0  # atno 17371 bound_to 10713
  141.1881  133.6561  156.5309 LP  0  0  0  0  0  0  0  0  0  0  0  0  # atno 17394 bound_to 11000
  140.4076  134.7301  157.4817 LP  0  0  0  0  0  0  0  0  0  0  0  0  # atno 17395 bound_to 11000

$$$$
