AV-unprocessed.smi:239|AV-procd|sdf|1823|dock3
  -GOLD-   2262020423D 1   1.00000     0.00000
 Structure written by MMmdl.
 54 58  0  0  0  0  0  0  0  0  1 V2000
  148.7690  140.9683  154.5901 C   0  0  0  0  0  0  0  0  0  0  0  0
  149.7097  139.8983  155.1527 C   0  0  1  0  0  0  0  0  0  0  0  0
  149.3527  138.4918  154.6399 C   0  0  0  0  0  0  0  0  0  0  0  0
  150.3421  137.5273  155.1077 N   0  0  0  0  0  0  0  0  0  0  0  0
  150.0476  136.2066  155.0209 C   0  0  0  0  0  0  0  0  0  0  0  0
  151.0364  135.2794  155.1293 N   0  0  0  0  0  0  0  0  0  0  0  0
  150.7503  133.9763  155.0516 C   0  0  0  0  0  0  0  0  0  0  0  0
  149.5653  133.3917  154.8665 N   0  0  0  0  0  0  0  0  0  0  0  0
  148.5708  134.3172  154.7458 C   0  0  0  0  0  0  0  0  0  0  0  0
  148.7225  135.7309  154.8125 C   0  0  0  0  0  0  0  0  0  0  0  0
  147.4895  136.3478  154.6360 N   0  0  0  0  0  0  0  0  0  0  0  0
  146.6566  135.3556  154.4776 C   0  0  0  0  0  0  0  0  0  0  0  0
  147.2224  134.1015  154.5214 N   0  0  0  0  0  0  0  0  0  0  0  0
  146.5326  132.8302  154.3638 C   0  0  0  0  0  0  0  0  0  0  0  0
  145.7641  132.6966  153.0257 C   0  0  0  0  0  0  0  0  0  0  0  0
  144.4657  133.2317  153.2199 O   0  0  0  0  0  0  0  0  0  0  0  0
  146.4438  133.4653  151.8709 C   0  0  0  0  0  0  0  0  0  0  0  0
  145.7957  133.1603  150.5090 C   0  0  0  0  0  0  0  0  0  0  0  0
  145.7915  131.7579  150.2718 O   0  0  0  0  0  0  0  0  0  0  0  0
  145.0182  131.0408  151.2263 C   0  0  0  0  0  0  0  0  0  0  0  0
  145.6238  131.2127  152.6308 C   0  0  0  0  0  0  0  0  0  0  0  0
  151.7078  137.8811  154.7381 C   0  0  0  0  0  0  0  0  0  0  0  0
  152.0426  139.3090  155.2065 C   0  0  2  0  0  0  0  0  0  0  0  0
  152.2713  139.3998  156.7087 C   0  0  0  0  0  0  0  0  0  0  0  0
  151.1475  139.1190  157.6770 C   0  0  0  0  0  0  0  0  0  0  0  0
  151.6716  140.5265  157.5166 C   0  0  0  0  0  0  0  0  0  0  0  0
  151.0420  140.2260  154.7571 O   0  0  0  0  0  0  0  0  0  0  0  0
  147.7353  140.7711  154.8752 H   0  0  0  0  0  0  0  0  0  0  0  0
  148.8160  141.0014  153.5012 H   0  0  0  0  0  0  0  0  0  0  0  0
  149.0345  141.9567  154.9659 H   0  0  0  0  0  0  0  0  0  0  0  0
  149.6356  139.9198  156.2403 H   0  0  0  0  0  0  0  0  0  0  0  0
  148.3590  138.2132  154.9939 H   0  0  0  0  0  0  0  0  0  0  0  0
  149.3257  138.4825  153.5492 H   0  0  0  0  0  0  0  0  0  0  0  0
  151.5915  133.3063  155.1511 H   0  0  0  0  0  0  0  0  0  0  0  0
  145.6002  135.5116  154.3136 H   0  0  0  0  0  0  0  0  0  0  0  0
  147.2706  132.0320  154.4527 H   0  0  0  0  0  0  0  0  0  0  0  0
  145.8503  132.7064  155.2061 H   0  0  0  0  0  0  0  0  0  0  0  0
  144.1062  132.8670  154.0141 H   0  0  0  0  0  0  0  0  0  0  0  0
  146.4238  134.5407  152.0518 H   0  0  0  0  0  0  0  0  0  0  0  0
  147.4962  133.1821  151.8227 H   0  0  0  0  0  0  0  0  0  0  0  0
  144.7787  133.5525  150.4610 H   0  0  0  0  0  0  0  0  0  0  0  0
  146.3585  133.6487  149.7134 H   0  0  0  0  0  0  0  0  0  0  0  0
  143.9813  131.3790  151.1994 H   0  0  0  0  0  0  0  0  0  0  0  0
  145.0125  129.9861  150.9507 H   0  0  0  0  0  0  0  0  0  0  0  0
  146.6083  130.7427  152.6402 H   0  0  0  0  0  0  0  0  0  0  0  0
  145.0231  130.6756  153.3660 H   0  0  0  0  0  0  0  0  0  0  0  0
  152.4347  137.1792  155.1461 H   0  0  0  0  0  0  0  0  0  0  0  0
  151.7940  137.8230  153.6524 H   0  0  0  0  0  0  0  0  0  0  0  0
  152.9710  139.6105  154.7201 H   0  0  0  0  0  0  0  0  0  0  0  0
  153.2591  139.0744  157.0294 H   0  0  0  0  0  0  0  0  0  0  0  0
  150.1662  138.8969  157.2624 H   0  0  0  0  0  0  0  0  0  0  0  0
  151.3968  138.5901  158.5945 H   0  0  0  0  0  0  0  0  0  0  0  0
  152.2713  140.9361  158.3268 H   0  0  0  0  0  0  0  0  0  0  0  0
  151.0366  141.2427  156.9988 H   0  0  0  0  0  0  0  0  0  0  0  0
  1  2  1  0  0  0  0
  1 28  1  0  0  0  0
  1 29  1  0  0  0  0
  1 30  1  0  0  0  0
  2 27  1  0  0  0  0
  2  3  1  0  0  0  0
  2 31  1  0  0  0  0
  3  4  1  0  0  0  0
  3 32  1  0  0  0  0
  3 33  1  0  0  0  0
  4  5  1  0  0  0  0
  4 22  1  0  0  0  0
  5 10  1  0  0  0  0
  5  6  2  0  0  0  0
  6  7  1  0  0  0  0
  7  8  2  0  0  0  0
  7 34  1  0  0  0  0
  8  9  1  0  0  0  0
  9 13  1  0  0  0  0
  9 10  2  0  0  0  0
 10 11  1  0  0  0  0
 11 12  2  0  0  0  0
 12 13  1  0  0  0  0
 12 35  1  0  0  0  0
 13 14  1  0  0  0  0
 14 15  1  0  0  0  0
 14 36  1  0  0  0  0
 14 37  1  0  0  0  0
 15 21  1  0  0  0  0
 15 16  1  0  0  0  0
 15 17  1  0  0  0  0
 16 38  1  0  0  0  0
 17 18  1  0  0  0  0
 17 39  1  0  0  0  0
 17 40  1  0  0  0  0
 18 19  1  0  0  0  0
 18 41  1  0  0  0  0
 18 42  1  0  0  0  0
 19 20  1  0  0  0  0
 20 21  1  0  0  0  0
 20 43  1  0  0  0  0
 20 44  1  0  0  0  0
 21 45  1  0  0  0  0
 21 46  1  0  0  0  0
 22 23  1  0  0  0  0
 22 47  1  0  0  0  0
 22 48  1  0  0  0  0
 23 24  1  0  0  0  0
 23 27  1  0  0  0  0
 23 49  1  0  0  0  0
 24 26  1  0  0  0  0
 24 25  1  0  0  0  0
 24 50  1  0  0  0  0
 25 26  1  0  0  0  0
 25 51  1  0  0  0  0
 25 52  1  0  0  0  0
 26 53  1  0  0  0  0
 26 54  1  0  0  0  0
M  END
> <s_m_source_file>
AV-unprocessed.smi

> <i_m_source_file_index>
239

> <i_lp_mmshare_version>
43012

> <i_f3d_flags>
0

> <s_epik_input>
W0NIMl0xW0NIMl1bQ0hdMVtDQEBIXShPMilbQ0gyXU4oW0NIMl1bQ0BIXTJbQ0gzXSljKG5bY0hdbjMpYyhjMzQpbltjSF1uNFtDSDJdQzUoW09IXSlbQ0gyXVtDSDJdT1tDSDJdW0NIMl01

> <s_epik_cmdline>
J2VwaWtfcHl0aG9uJywgJy1waCcsICc3LjAnLCAnLXRuJywgJzgnLCAnLW1hJywgJzIwMCcsICctbWV0YWxfYmluZGluZycsICctaW1hZScsICc8aW5maWxlLm1hZT4nLCAnLW9tYWUnLCAnPG91dGZpbGUubWFlPic=

> <r_lp_tautomer_probability>
1

> <r_epik_Ionization_Penalty>
9.13091e-05

> <r_epik_Ionization_Penalty_Charging>
0

> <r_epik_Ionization_Penalty_Neutral>
9.13091e-05

> <r_epik_State_Penalty>
-0

> <r_epik_Charging_Adjusted_Penalty>
0

> <i_epik_Tot_Q>
0

> <i_epik_Tot_abs_Q>
0

> <r_epik_Metal_State_Penalty>
-0

> <b_epik_Metal_Only>
0

> <s_lp_Force_Field>
OPLS_2005

> <r_lp_Energy>
39.3472

> <b_lp_Chiralities_Consistent>
1

> <s_lp_Variant>
AV-unprocessed.smi:239-4

> <Gold.Version>
5.8.1

> <Gold.Id.Protein>
6NUR|6NUR_protein|mol2

> <Gold.PLP.Fitness>
42.2960

> <Gold.PLP.PLP>
-36.0374

> <Gold.PLP.part.hbond>
-2.8907

> <Gold.PLP.part.metal>
0.0000

> <Gold.PLP.part.buried>
-6.8066

> <Gold.PLP.part.nonpolar>
-28.7747

> <Gold.PLP.part.repulsive>
1.2317

> <Gold.PLP.ligand.clash>
0.0000

> <Gold.PLP.ligand.torsion>
1.7201

> <Gold.PLP.Chemscore.Hbond>
2.7550

> <Gold.PLP.Chemscore.CHOScore>
0.0000

> <Gold.PLP.Chemscore.Metal>
0.0000

> <Gold.Chemscore.Hbonds>
donor molecule, donor type, donor heavy atom, donor atom, acceptor molecule, acceptor atom, score
      L1  H    16    38       P1 10957  0.91
      P1  H  7989  7998       L1    27  1.00
      P1  H 10752 10764       L1     6  1.00

> <Gold.PLP.Chemscore.Internal.Correction>
1.4337

> <Gold.Rescore>
     Score         DG    S(hbond)    S(metal)    S(lipo)     H(rot)  DE(clash)    DE(int)     intcor
     13.63     -17.83       2.41        0.00      85.77       2.24       0.10       4.10       ----

> <Gold.Chemscore.Fitness>
13.6331

> <Gold.Chemscore.DG>
-17.8304

> <Gold.Chemscore.ZeroCoef>
-5.4800

> <Gold.Chemscore.Hbond>
2.4092

> <Gold.Chemscore.Metal>
0.0000

> <Gold.Chemscore.Lipo>
85.7668

> <Gold.Chemscore.Internal_Hbond>
0.0000

> <Gold.Chemscore.DEClash>
0.1003

> <Gold.Chemscore.DEInternal>
4.0970

> <Gold.Chemscore.Rot>
2.2387

> <Gold.Chemscore.Internal.Correction>
   9.000000E+99

> <Gold.Chemscore.Hbonds>
donor molecule, donor type, donor heavy atom, donor atom, acceptor molecule, acceptor atom, score
      L1  H    16    38       P1 10957  0.82
      P1  H  7989  7998       L1    27  0.47
      P1  H 10752 10764       L1     6  0.60

> <Gold.Chemscore.Hbond.Weighted>
-8.0468

> <Gold.Chemscore.Metal.Weighted>
-0.0000

> <Gold.Chemscore.Lipo.Weighted>
-10.0347

> <Gold.Chemscore.Internal_Hbond.Weighted>
0.0000

> <Gold.Chemscore.DEClash.Weighted>
0.1003

> <Gold.Chemscore.DEInternal.Weighted>
4.0970

> <Gold.Chemscore.Rot.Weighted>
5.7311

> <Gold.Chemscore.Internal.Correction.Weighted>
   9.000000E+99

> <Gold.Protein.RotatedTorsions>
[ 6907 6896 6895 6894 ] final   55.14 input  -60.11 | X-H torsion
[ 7974 7965 7964 7962 ] final   99.61 input  175.53 | X-H torsion
[ 8008 7997 7996 7995 ] final   22.77 input   59.86 | X-H torsion
[ 10167 10162 10161 10158 ] final  -76.54 input  -65.29 | X-H torsion
[ 10718 10713 10712 10709 ] final  -89.56 input   66.30 | X-H torsion
[ 10763 10752 10751 10750 ] final  -53.14 input  -60.55 | X-H torsion
[ 11005 11000 10999 10996 ] final  -84.49 input  -57.11 | X-H torsion

> <Gold.Protein.ActiveResidues>
 VAL166  LYS551  ARG553  GLY616  TRP617  ASP618  TYR619  PRO620  LYS621  CYS622 
 ASP623  PHE694  ASN695  SER759  ASP760  ASP761  ALA762  ILE779  LEU786  VAL792 
 PHE793  MET794  SER795  GLU796  ALA797  LYS798  CYS799  TRP800  GLU811  SER814 

> <Gold.Protein.RotatedAtoms>
  152.3509  134.7007  160.0236 H   0  0  0  0  0  0  0  0  0  0  0  0  # atno 6907 bound_to 6896
  151.7362  133.3314  159.3361 H   0  0  0  0  0  0  0  0  0  0  0  0  # atno 6908 bound_to 6896
  150.7539  134.6253  159.6202 H   0  0  0  0  0  0  0  0  0  0  0  0  # atno 6909 bound_to 6896
  145.3966  139.2354  143.3323 H   0  0  0  0  0  0  0  0  0  0  0  0  # atno 7974 bound_to 7965
  154.9708  140.3090  155.4989 H   0  0  0  0  0  0  0  0  0  0  0  0  # atno 8008 bound_to 7997
  156.2966  140.2284  156.4739 H   0  0  0  0  0  0  0  0  0  0  0  0  # atno 8009 bound_to 7997
  154.7878  140.0442  157.1166 H   0  0  0  0  0  0  0  0  0  0  0  0  # atno 8010 bound_to 7997
  140.4848  143.2394  151.8001 H   0  0  0  0  0  0  0  0  0  0  0  0  # atno 10167 bound_to 10162
  155.9985  130.4877  150.5190 H   0  0  0  0  0  0  0  0  0  0  0  0  # atno 10718 bound_to 10713
  154.1541  135.6485  153.4970 H   0  0  0  0  0  0  0  0  0  0  0  0  # atno 10763 bound_to 10752
  153.0129  135.5345  154.6778 H   0  0  0  0  0  0  0  0  0  0  0  0  # atno 10764 bound_to 10752
  154.6074  135.2950  155.0441 H   0  0  0  0  0  0  0  0  0  0  0  0  # atno 10765 bound_to 10752
  141.1650  133.7349  156.8876 H   0  0  0  0  0  0  0  0  0  0  0  0  # atno 11005 bound_to 11000
  146.2772  140.4657  142.8791 LP  0  0  0  0  0  0  0  0  0  0  0  0  # atno 17320 bound_to 7965
  144.8403  140.6847  143.6234 LP  0  0  0  0  0  0  0  0  0  0  0  0  # atno 17321 bound_to 7965
  139.4840  144.4726  151.9406 LP  0  0  0  0  0  0  0  0  0  0  0  0  # atno 17342 bound_to 10162
  140.3812  144.2734  150.5908 LP  0  0  0  0  0  0  0  0  0  0  0  0  # atno 17343 bound_to 10162
  157.3154  131.0672  151.1971 LP  0  0  0  0  0  0  0  0  0  0  0  0  # atno 17370 bound_to 10713
  157.2902  130.6792  149.6110 LP  0  0  0  0  0  0  0  0  0  0  0  0  # atno 17371 bound_to 10713
  140.1671  134.9126  157.2787 LP  0  0  0  0  0  0  0  0  0  0  0  0  # atno 17394 bound_to 11000
  140.2544  134.3644  155.7430 LP  0  0  0  0  0  0  0  0  0  0  0  0  # atno 17395 bound_to 11000

$$$$
