AV-unprocessed.smi:278|AV-procd|sdf|2089|dock3
  -GOLD-   2262021363D 1   1.00000     0.00000
 Structure written by MMmdl.
 50 54  0  0  0  0  0  0  0  0  1 V2000
  148.1426  130.8163  155.7647 O   0  0  0  0  0  0  0  0  0  0  0  0
  148.8279  130.6368  154.4752 S   0  0  0  0  0  0  0  0  0  0  0  0
  149.6122  129.4250  154.1944 O   0  0  0  0  0  0  0  0  0  0  0  0
  147.6390  130.9328  153.1239 C   0  0  0  0  0  0  0  0  0  0  0  0
  147.5015  132.4589  153.0621 C   0  0  0  0  0  0  0  0  0  0  0  0
  148.8655  133.1179  153.3925 C   0  0  1  0  0  0  0  0  0  0  0  0
  148.7776  134.2993  154.3657 C   0  0  0  0  0  0  0  0  0  0  0  0
  150.0173  134.2650  155.1254 N   0  0  0  0  0  0  0  0  0  0  0  0
  150.0273  135.0271  156.2399 C   0  0  0  0  0  0  0  0  0  0  0  0
  149.1332  134.7075  157.2070 N   0  0  0  0  0  0  0  0  0  0  0  0
  149.0897  135.4183  158.3383 C   0  0  0  0  0  0  0  0  0  0  0  0
  149.8365  136.4650  158.6971 N   0  0  0  0  0  0  0  0  0  0  0  0
  150.7364  136.7882  157.7244 C   0  0  0  0  0  0  0  0  0  0  0  0
  150.9002  136.1282  156.4742 C   0  0  0  0  0  0  0  0  0  0  0  0
  151.9161  136.7381  155.7470 N   0  0  0  0  0  0  0  0  0  0  0  0
  152.3272  137.7047  156.5219 C   0  0  0  0  0  0  0  0  0  0  0  0
  151.6721  137.8067  157.7283 N   0  0  0  0  0  0  0  0  0  0  0  0
  151.9209  138.7787  158.7783 C   0  0  0  0  0  0  0  0  0  0  0  0
  151.2219  140.1264  158.5116 C   0  0  2  0  0  0  0  0  0  0  0  0
  151.6780  140.6505  157.2787 O   0  0  0  0  0  0  0  0  0  0  0  0
  151.4963  141.1559  159.6234 C   0  0  1  0  0  0  0  0  0  0  0  0
  152.9744  141.4719  159.8439 C   0  0  0  0  0  0  0  0  0  0  0  0
  152.9125  142.8034  160.5636 C   0  0  0  0  0  0  0  0  0  0  0  0
  151.6328  143.4415  160.0172 C   0  0  0  0  0  0  0  0  0  0  0  0
  150.9683  142.4268  159.2696 O   0  0  0  0  0  0  0  0  0  0  0  0
  150.3572  132.8638  155.3261 C   0  0  0  0  0  0  0  0  0  0  0  0
  149.8165  132.1319  154.0910 C   0  0  1  0  0  0  0  0  0  0  0  0
  149.3450  133.4497  152.4705 H   0  0  0  0  0  0  0  0  0  0  0  0
  150.6216  131.8457  153.4135 H   0  0  0  0  0  0  0  0  0  0  0  0
  148.0697  130.5435  152.2011 H   0  0  0  0  0  0  0  0  0  0  0  0
  146.6986  130.4191  153.3236 H   0  0  0  0  0  0  0  0  0  0  0  0
  147.1220  132.7868  152.0941 H   0  0  0  0  0  0  0  0  0  0  0  0
  146.7577  132.7575  153.8016 H   0  0  0  0  0  0  0  0  0  0  0  0
  148.6694  135.2456  153.8349 H   0  0  0  0  0  0  0  0  0  0  0  0
  147.9230  134.1919  155.0338 H   0  0  0  0  0  0  0  0  0  0  0  0
  148.3503  135.1029  159.0597 H   0  0  0  0  0  0  0  0  0  0  0  0
  153.1229  138.3751  156.2313 H   0  0  0  0  0  0  0  0  0  0  0  0
  151.5735  138.3517  159.7198 H   0  0  0  0  0  0  0  0  0  0  0  0
  152.9981  138.9189  158.8787 H   0  0  0  0  0  0  0  0  0  0  0  0
  150.1461  139.9647  158.4303 H   0  0  0  0  0  0  0  0  0  0  0  0
  151.1590  141.4110  157.0659 H   0  0  0  0  0  0  0  0  0  0  0  0
  151.0407  140.8388  160.5635 H   0  0  0  0  0  0  0  0  0  0  0  0
  153.4950  140.7041  160.4170 H   0  0  0  0  0  0  0  0  0  0  0  0
  153.4855  141.5895  158.8872 H   0  0  0  0  0  0  0  0  0  0  0  0
  152.8182  142.6430  161.6383 H   0  0  0  0  0  0  0  0  0  0  0  0
  153.7979  143.4155  160.3900 H   0  0  0  0  0  0  0  0  0  0  0  0
  150.9934  143.7937  160.8273 H   0  0  0  0  0  0  0  0  0  0  0  0
  151.8503  144.2875  159.3650 H   0  0  0  0  0  0  0  0  0  0  0  0
  151.4383  132.7470  155.4048 H   0  0  0  0  0  0  0  0  0  0  0  0
  149.9210  132.4784  156.2468 H   0  0  0  0  0  0  0  0  0  0  0  0
  1  2  2  0  0  0  0
  2 27  1  0  0  0  0
  2  3  2  0  0  0  0
  2  4  1  0  0  0  0
  4  5  1  0  0  0  0
  4 30  1  0  0  0  0
  4 31  1  0  0  0  0
  5  6  1  0  0  0  0
  5 32  1  0  0  0  0
  5 33  1  0  0  0  0
  6 28  1  0  0  0  0
  6 27  1  0  0  0  0
  6  7  1  0  0  0  0
  7  8  1  0  0  0  0
  7 34  1  0  0  0  0
  7 35  1  0  0  0  0
  8  9  1  0  0  0  0
  8 26  1  0  0  0  0
  9 14  1  0  0  0  0
  9 10  2  0  0  0  0
 10 11  1  0  0  0  0
 11 12  2  0  0  0  0
 11 36  1  0  0  0  0
 12 13  1  0  0  0  0
 13 17  1  0  0  0  0
 13 14  2  0  0  0  0
 14 15  1  0  0  0  0
 15 16  2  0  0  0  0
 16 17  1  0  0  0  0
 16 37  1  0  0  0  0
 17 18  1  0  0  0  0
 18 19  1  0  0  0  0
 18 38  1  0  0  0  0
 18 39  1  0  0  0  0
 19 20  1  0  0  0  0
 19 21  1  0  0  0  0
 19 40  1  0  0  0  0
 20 41  1  0  0  0  0
 21 25  1  0  0  0  0
 21 22  1  0  0  0  0
 21 42  1  0  0  0  0
 22 23  1  0  0  0  0
 22 43  1  0  0  0  0
 22 44  1  0  0  0  0
 23 24  1  0  0  0  0
 23 45  1  0  0  0  0
 23 46  1  0  0  0  0
 24 25  1  0  0  0  0
 24 47  1  0  0  0  0
 24 48  1  0  0  0  0
 26 27  1  0  0  0  0
 26 49  1  0  0  0  0
 26 50  1  0  0  0  0
 27 29  1  0  0  0  0
M  END
> <s_m_source_file>
AV-unprocessed.smi

> <i_m_source_file_index>
278

> <i_lp_mmshare_version>
43012

> <i_f3d_flags>
0

> <s_epik_input>
W0NIMl0xW0NIMl1TKD1PKSg9TylbQ0BASF0oW0NAQEhdMTIpW0NIMl1OKFtDSDJdMiljKG5bY0hdbjMpYyhjMzQpbltjSF1uNFtDSDJdW0NASF0oW09IXSlbQ0BASF01W0NIMl1bQ0gyXVtDSDJdTzU=

> <s_epik_cmdline>
J2VwaWtfcHl0aG9uJywgJy1waCcsICc3LjAnLCAnLXRuJywgJzgnLCAnLW1hJywgJzIwMCcsICctbWV0YWxfYmluZGluZycsICctaW1hZScsICc8aW5maWxlLm1hZT4nLCAnLW9tYWUnLCAnPG91dGZpbGUubWFlPic=

> <r_lp_tautomer_probability>
1

> <r_epik_Ionization_Penalty>
0.000636766

> <r_epik_Ionization_Penalty_Charging>
0

> <r_epik_Ionization_Penalty_Neutral>
0.000636766

> <r_epik_State_Penalty>
0.000329976

> <r_epik_Charging_Adjusted_Penalty>
0.000329976

> <i_epik_Tot_Q>
0

> <i_epik_Tot_abs_Q>
0

> <r_epik_Metal_State_Penalty>
-0

> <b_epik_Metal_Only>
0

> <s_lp_Force_Field>
OPLS_2005

> <r_lp_Energy>
53.1939

> <b_lp_Chiralities_Consistent>
1

> <s_lp_Variant>
AV-unprocessed.smi:278-3

> <Gold.Version>
5.8.1

> <Gold.Id.Protein>
6NUR|6NUR_protein|mol2

> <Gold.PLP.Fitness>
44.2531

> <Gold.PLP.PLP>
-38.8648

> <Gold.PLP.part.hbond>
-2.0000

> <Gold.PLP.part.metal>
0.0000

> <Gold.PLP.part.buried>
-4.1325

> <Gold.PLP.part.nonpolar>
-32.0442

> <Gold.PLP.part.repulsive>
0.1036

> <Gold.PLP.ligand.clash>
0.0000

> <Gold.PLP.ligand.torsion>
0.3578

> <Gold.PLP.Chemscore.Hbond>
2.0000

> <Gold.PLP.Chemscore.CHOScore>
0.0000

> <Gold.PLP.Chemscore.Metal>
0.0000

> <Gold.Chemscore.Hbonds>
donor molecule, donor type, donor heavy atom, donor atom, acceptor molecule, acceptor atom, score
      P1  H  6896  6908       L1    12  0.12
      P1  H 10752 10763       L1    15  0.72

> <Gold.PLP.Chemscore.Internal.Correction>
0.1041

> <Gold.Rescore>
     Score         DG    S(hbond)    S(metal)    S(lipo)     H(rot)  DE(clash)    DE(int)     intcor
     14.41     -15.03       1.74        0.00      86.01       2.46       0.05       0.58       ----

> <Gold.Chemscore.Fitness>
14.4056

> <Gold.Chemscore.DG>
-15.0342

> <Gold.Chemscore.ZeroCoef>
-5.4800

> <Gold.Chemscore.Hbond>
1.7360

> <Gold.Chemscore.Metal>
0.0000

> <Gold.Chemscore.Lipo>
86.0070

> <Gold.Chemscore.Internal_Hbond>
0.0000

> <Gold.Chemscore.DEClash>
0.0456

> <Gold.Chemscore.DEInternal>
0.5830

> <Gold.Chemscore.Rot>
2.4636

> <Gold.Chemscore.Internal.Correction>
   9.000000E+99

> <Gold.Chemscore.Hbonds>
donor molecule, donor type, donor heavy atom, donor atom, acceptor molecule, acceptor atom, score
      P1  H 10752 10763       L1    15  0.51

> <Gold.Chemscore.Hbond.Weighted>
-5.7982

> <Gold.Chemscore.Metal.Weighted>
-0.0000

> <Gold.Chemscore.Lipo.Weighted>
-10.0628

> <Gold.Chemscore.Internal_Hbond.Weighted>
0.0000

> <Gold.Chemscore.DEClash.Weighted>
0.0456

> <Gold.Chemscore.DEInternal.Weighted>
0.5830

> <Gold.Chemscore.Rot.Weighted>
6.3068

> <Gold.Chemscore.Internal.Correction.Weighted>
   9.000000E+99

> <Gold.Protein.RotatedTorsions>
[ 6907 6896 6895 6894 ] final -136.99 input  -60.11 | X-H torsion
[ 7974 7965 7964 7962 ] final   80.14 input  175.53 | X-H torsion
[ 8008 7997 7996 7995 ] final  178.11 input   59.86 | X-H torsion
[ 10167 10162 10161 10158 ] final  -33.75 input  -65.29 | X-H torsion
[ 10718 10713 10712 10709 ] final  -67.16 input   66.30 | X-H torsion
[ 10763 10752 10751 10750 ] final  106.46 input  -60.55 | X-H torsion
[ 11005 11000 10999 10996 ] final  156.43 input  -57.11 | X-H torsion

> <Gold.Protein.ActiveResidues>
 VAL166  LYS551  ARG553  GLY616  TRP617  ASP618  TYR619  PRO620  LYS621  CYS622 
 ASP623  PHE694  ASN695  SER759  ASP760  ASP761  ALA762  ILE779  LEU786  VAL792 
 PHE793  MET794  SER795  GLU796  ALA797  LYS798  CYS799  TRP800  GLU811  SER814 

> <Gold.Protein.RotatedAtoms>
  151.0169  133.5913  159.2675 H   0  0  0  0  0  0  0  0  0  0  0  0  # atno 6907 bound_to 6896
  151.3044  135.0776  159.9260 H   0  0  0  0  0  0  0  0  0  0  0  0  # atno 6908 bound_to 6896
  152.5313  133.9844  159.7876 H   0  0  0  0  0  0  0  0  0  0  0  0  # atno 6909 bound_to 6896
  145.6551  139.2457  143.1954 H   0  0  0  0  0  0  0  0  0  0  0  0  # atno 7974 bound_to 7965
  156.0583  140.1341  156.9971 H   0  0  0  0  0  0  0  0  0  0  0  0  # atno 8008 bound_to 7997
  154.4468  140.0997  156.6549 H   0  0  0  0  0  0  0  0  0  0  0  0  # atno 8009 bound_to 7997
  155.5417  140.3461  155.4450 H   0  0  0  0  0  0  0  0  0  0  0  0  # atno 8010 bound_to 7997
  140.7198  143.3597  151.1987 H   0  0  0  0  0  0  0  0  0  0  0  0  # atno 10167 bound_to 10162
  156.0573  130.4273  150.1814 H   0  0  0  0  0  0  0  0  0  0  0  0  # atno 10718 bound_to 10713
  153.3933  135.3876  155.1938 H   0  0  0  0  0  0  0  0  0  0  0  0  # atno 10763 bound_to 10752
  154.8721  135.3753  154.4710 H   0  0  0  0  0  0  0  0  0  0  0  0  # atno 10764 bound_to 10752
  153.5199  135.7087  153.5798 H   0  0  0  0  0  0  0  0  0  0  0  0  # atno 10765 bound_to 10752
  140.1674  134.8567  157.2649 H   0  0  0  0  0  0  0  0  0  0  0  0  # atno 11005 bound_to 11000
  146.1171  140.7355  142.9475 LP  0  0  0  0  0  0  0  0  0  0  0  0  # atno 17320 bound_to 7965
  144.7108  140.4033  143.7082 LP  0  0  0  0  0  0  0  0  0  0  0  0  # atno 17321 bound_to 7965
  139.7146  143.9321  152.2961 LP  0  0  0  0  0  0  0  0  0  0  0  0  # atno 17342 bound_to 10162
  139.9057  144.6886  150.8616 LP  0  0  0  0  0  0  0  0  0  0  0  0  # atno 17343 bound_to 10162
  156.9888  130.9887  151.3420 LP  0  0  0  0  0  0  0  0  0  0  0  0  # atno 17370 bound_to 10713
  157.5553  130.8209  149.8196 LP  0  0  0  0  0  0  0  0  0  0  0  0  # atno 17371 bound_to 10713
  140.2418  134.3787  155.7477 LP  0  0  0  0  0  0  0  0  0  0  0  0  # atno 17394 bound_to 11000
  141.2215  133.7269  156.8800 LP  0  0  0  0  0  0  0  0  0  0  0  0  # atno 17395 bound_to 11000

$$$$
