AV-unprocessed.smi:2391|AV-procd|sdf|9483|dock5
  -GOLD-   2272013113D 1   1.00000     0.00000
 Structure written by MMmdl.
 35 36  0  0  0  0  0  0  0  0  1 V2000
  149.7452  135.8209  158.3603 O   0  0  0  0  0  0  0  0  0  0  0  0
  149.4467  136.8613  158.9539 C   0  0  0  0  0  0  0  0  0  0  0  0
  148.7394  137.0127  160.1412 N   0  0  0  0  0  0  0  0  0  0  0  0
  148.1860  136.0105  160.7601 C   0  0  0  0  0  0  0  0  0  0  0  0
  147.4645  136.2117  162.0052 C   0  0  0  0  0  0  0  0  0  0  0  0
  146.8857  135.1778  162.6588 C   0  0  0  0  0  0  0  0  0  0  0  0
  146.9975  133.8495  162.0898 C   0  0  0  0  0  0  0  0  0  0  0  0
  147.6266  133.6247  160.9851 N   0  0  0  0  0  0  0  0  0  0  0  0
  148.1994  134.6621  160.3411 N   0  0  0  0  0  0  0  0  0  0  0  0
  149.8024  138.0668  158.4841 N   0  0  0  0  0  0  0  0  0  0  0  0
  150.5599  138.3424  157.2601 C   0  0  2  0  0  0  0  0  0  0  0  0
  151.7701  139.2511  157.5993 C   0  0  0  0  0  0  0  0  0  0  0  0
  152.8332  138.6147  158.5018 C   0  0  0  0  0  0  0  0  0  0  0  0
  153.6380  139.7917  159.0591 C   0  0  0  0  0  0  0  0  0  0  0  0
  152.6899  140.9981  159.0508 C   0  0  0  0  0  0  0  0  0  0  0  0
  151.3998  140.5280  158.3688 C   0  0  0  0  0  0  0  0  0  0  0  0
  149.6001  138.9398  156.2054 C   0  0  0  0  0  0  0  0  0  0  0  0
  148.9487  139.9807  156.7260 F   0  0  0  0  0  0  0  0  0  0  0  0
  150.2771  139.3526  155.1331 F   0  0  0  0  0  0  0  0  0  0  0  0
  148.6904  138.0442  155.8241 F   0  0  0  0  0  0  0  0  0  0  0  0
  147.3707  137.1946  162.4435 H   0  0  0  0  0  0  0  0  0  0  0  0
  146.3490  135.3265  163.5841 H   0  0  0  0  0  0  0  0  0  0  0  0
  146.5157  133.0526  162.6561 H   0  0  0  0  0  0  0  0  0  0  0  0
  149.5189  138.8734  159.0214 H   0  0  0  0  0  0  0  0  0  0  0  0
  150.9469  137.4088  156.8488 H   0  0  0  0  0  0  0  0  0  0  0  0
  152.2569  139.5526  156.6702 H   0  0  0  0  0  0  0  0  0  0  0  0
  152.3536  138.0792  159.3226 H   0  0  0  0  0  0  0  0  0  0  0  0
  153.4708  137.9082  157.9698 H   0  0  0  0  0  0  0  0  0  0  0  0
  154.0269  139.5799  160.0554 H   0  0  0  0  0  0  0  0  0  0  0  0
  154.4924  139.9945  158.4120 H   0  0  0  0  0  0  0  0  0  0  0  0
  152.4877  141.3575  160.0605 H   0  0  0  0  0  0  0  0  0  0  0  0
  153.1393  141.8226  158.4960 H   0  0  0  0  0  0  0  0  0  0  0  0
  150.9749  141.2960  157.7218 H   0  0  0  0  0  0  0  0  0  0  0  0
  150.6552  140.2963  159.1319 H   0  0  0  0  0  0  0  0  0  0  0  0
  148.6794  134.4412  159.4802 H   0  0  0  0  0  0  0  0  0  0  0  0
  1  2  2  0  0  0  0
  2  3  1  0  0  0  0
  2 10  1  0  0  0  0
  3  4  2  0  0  0  0
  4  9  1  0  0  0  0
  4  5  1  0  0  0  0
  5  6  2  0  0  0  0
  5 21  1  0  0  0  0
  6  7  1  0  0  0  0
  6 22  1  0  0  0  0
  7  8  2  0  0  0  0
  7 23  1  0  0  0  0
  8  9  1  0  0  0  0
  9 35  1  0  0  0  0
 10 11  1  0  0  0  0
 10 24  1  0  0  0  0
 11 12  1  0  0  0  0
 11 17  1  0  0  0  0
 11 25  1  0  0  0  0
 12 16  1  0  0  0  0
 12 13  1  0  0  0  0
 12 26  1  0  0  0  0
 13 14  1  0  0  0  0
 13 27  1  0  0  0  0
 13 28  1  0  0  0  0
 14 15  1  0  0  0  0
 14 29  1  0  0  0  0
 14 30  1  0  0  0  0
 15 16  1  0  0  0  0
 15 31  1  0  0  0  0
 15 32  1  0  0  0  0
 16 33  1  0  0  0  0
 16 34  1  0  0  0  0
 17 18  1  0  0  0  0
 17 19  1  0  0  0  0
 17 20  1  0  0  0  0
M  END
> <s_m_source_file>
AV-unprocessed.smi

> <i_m_source_file_index>
2391

> <i_lp_mmshare_version>
43012

> <i_f3d_flags>
0

> <s_epik_input>
W0NIMl0xW0NIMl1bQ0gyXVtDSDJdW0NIXTFbQ0BIXShDKEYpKEYpRilbTkhdQyg9TylbTkhdYzJbY0hdW2NIXVtjSF1ubjI=

> <s_epik_cmdline>
J2VwaWtfcHl0aG9uJywgJy1waCcsICc3LjAnLCAnLXRuJywgJzgnLCAnLW1hJywgJzIwMCcsICctbWV0YWxfYmluZGluZycsICctaW1hZScsICc8aW5maWxlLm1hZT4nLCAnLW9tYWUnLCAnPG91dGZpbGUubWFlPic=

> <r_epik_Ionization_Penalty>
0.0611197

> <r_epik_Ionization_Penalty_Charging>
0.0611196

> <r_epik_Ionization_Penalty_Neutral>
6.50554e-08

> <r_epik_State_Penalty>
2.29873

> <r_epik_Charging_Adjusted_Penalty>
2.35985

> <i_epik_Tot_Q>
0

> <i_epik_Tot_abs_Q>
0

> <r_epik_Metal_State_Penalty>
2.32932

> <b_epik_Metal_Only>
0

> <s_lp_Force_Field>
OPLS_2005

> <r_lp_Energy>
49.9712

> <b_lp_Chiralities_Consistent>
1

> <s_lp_Variant>
AV-unprocessed.smi:2391-3

> <Gold.Version>
5.8.1

> <Gold.Id.Protein>
6NUR|6NUR_protein|mol2

> <Gold.PLP.Fitness>
37.0618

> <Gold.PLP.PLP>
-32.3749

> <Gold.PLP.part.hbond>
-2.7179

> <Gold.PLP.part.metal>
0.0000

> <Gold.PLP.part.buried>
-5.0734

> <Gold.PLP.part.nonpolar>
-25.8128

> <Gold.PLP.part.repulsive>
0.3206

> <Gold.PLP.ligand.clash>
0.0000

> <Gold.PLP.ligand.torsion>
0.2601

> <Gold.PLP.Chemscore.Hbond>
1.6400

> <Gold.PLP.Chemscore.CHOScore>
0.0000

> <Gold.PLP.Chemscore.Metal>
0.0000

> <Gold.Chemscore.Hbonds>
donor molecule, donor type, donor heavy atom, donor atom, acceptor molecule, acceptor atom, score
      P1  H  6896  6908       L1     1  1.00
      P1  H  6931  6943       L1     3  0.37

> <Gold.PLP.Chemscore.Internal.Correction>
0.2871

> <Gold.Rescore>
     Score         DG    S(hbond)    S(metal)    S(lipo)     H(rot)  DE(clash)    DE(int)     intcor
     14.55     -15.07       1.62        0.00      64.71       1.33       0.06       0.46       ----

> <Gold.Chemscore.Fitness>
14.5549

> <Gold.Chemscore.DG>
-15.0702

> <Gold.Chemscore.ZeroCoef>
-5.4800

> <Gold.Chemscore.Hbond>
1.6240

> <Gold.Chemscore.Metal>
0.0000

> <Gold.Chemscore.Lipo>
64.7149

> <Gold.Chemscore.Internal_Hbond>
0.0000

> <Gold.Chemscore.DEClash>
0.0563

> <Gold.Chemscore.DEInternal>
0.4590

> <Gold.Chemscore.Rot>
1.3304

> <Gold.Chemscore.Internal.Correction>
   9.000000E+99

> <Gold.Chemscore.Hbonds>
donor molecule, donor type, donor heavy atom, donor atom, acceptor molecule, acceptor atom, score
      P1  H  6896  6908       L1     1  0.69
      P1  H  6931  6943       L1     3  0.06

> <Gold.Chemscore.Hbond.Weighted>
-5.4242

> <Gold.Chemscore.Metal.Weighted>
-0.0000

> <Gold.Chemscore.Lipo.Weighted>
-7.5716

> <Gold.Chemscore.Internal_Hbond.Weighted>
0.0000

> <Gold.Chemscore.DEClash.Weighted>
0.0563

> <Gold.Chemscore.DEInternal.Weighted>
0.4590

> <Gold.Chemscore.Rot.Weighted>
3.4057

> <Gold.Chemscore.Internal.Correction.Weighted>
   9.000000E+99

> <Gold.Protein.RotatedTorsions>
[ 6907 6896 6895 6894 ] final  174.65 input  -60.11 | X-H torsion
[ 7974 7965 7964 7962 ] final  125.87 input  175.53 | X-H torsion
[ 8008 7997 7996 7995 ] final  149.74 input   59.86 | X-H torsion
[ 10167 10162 10161 10158 ] final  -36.94 input  -65.29 | X-H torsion
[ 10718 10713 10712 10709 ] final -158.11 input   66.30 | X-H torsion
[ 10763 10752 10751 10750 ] final  125.10 input  -60.55 | X-H torsion
[ 11005 11000 10999 10996 ] final  -96.69 input  -57.11 | X-H torsion

> <Gold.Protein.ActiveResidues>
 VAL166  LYS551  ARG553  GLY616  TRP617  ASP618  TYR619  PRO620  LYS621  CYS622 
 ASP623  PHE694  ASN695  SER759  ASP760  ASP761  ALA762  ILE779  LEU786  VAL792 
 PHE793  MET794  SER795  GLU796  ALA797  LYS798  CYS799  TRP800  GLU811  SER814 

> <Gold.Protein.RotatedAtoms>
  151.7489  133.3326  159.3385 H   0  0  0  0  0  0  0  0  0  0  0  0  # atno 6907 bound_to 6896
  150.7543  134.6210  159.6145 H   0  0  0  0  0  0  0  0  0  0  0  0  # atno 6908 bound_to 6896
  152.3482  134.7044  160.0296 H   0  0  0  0  0  0  0  0  0  0  0  0  # atno 6909 bound_to 6896
  145.0681  139.3751  143.4971 H   0  0  0  0  0  0  0  0  0  0  0  0  # atno 7974 bound_to 7965
  156.2743  140.2093  156.5906 H   0  0  0  0  0  0  0  0  0  0  0  0  # atno 8008 bound_to 7997
  154.6985  140.0523  157.0458 H   0  0  0  0  0  0  0  0  0  0  0  0  # atno 8009 bound_to 7997
  155.0767  140.3182  155.4617 H   0  0  0  0  0  0  0  0  0  0  0  0  # atno 8010 bound_to 7997
  140.7130  143.3375  151.2430 H   0  0  0  0  0  0  0  0  0  0  0  0  # atno 10167 bound_to 10162
  156.5496  130.8599  151.2775 H   0  0  0  0  0  0  0  0  0  0  0  0  # atno 10718 bound_to 10713
  153.6719  135.3329  155.3155 H   0  0  0  0  0  0  0  0  0  0  0  0  # atno 10763 bound_to 10752
  154.8488  135.4388  154.1696 H   0  0  0  0  0  0  0  0  0  0  0  0  # atno 10764 bound_to 10752
  153.2690  135.6998  153.7576 H   0  0  0  0  0  0  0  0  0  0  0  0  # atno 10765 bound_to 10752
  141.1403  133.8116  157.0605 H   0  0  0  0  0  0  0  0  0  0  0  0  # atno 11005 bound_to 11000
  146.3527  140.0412  142.8643 LP  0  0  0  0  0  0  0  0  0  0  0  0  # atno 17320 bound_to 7965
  145.1326  140.9526  143.4535 LP  0  0  0  0  0  0  0  0  0  0  0  0  # atno 17321 bound_to 7965
  139.6874  143.9750  152.2841 LP  0  0  0  0  0  0  0  0  0  0  0  0  # atno 17342 bound_to 10162
  139.9400  144.6687  150.8276 LP  0  0  0  0  0  0  0  0  0  0  0  0  # atno 17343 bound_to 10162
  157.7390  130.9823  150.2287 LP  0  0  0  0  0  0  0  0  0  0  0  0  # atno 17370 bound_to 10713
  156.2897  130.3744  149.7854 LP  0  0  0  0  0  0  0  0  0  0  0  0  # atno 17371 bound_to 10713
  140.0574  134.9773  157.1245 LP  0  0  0  0  0  0  0  0  0  0  0  0  # atno 17394 bound_to 11000
  140.3898  134.2196  155.7166 LP  0  0  0  0  0  0  0  0  0  0  0  0  # atno 17395 bound_to 11000

$$$$
