AV-unprocessed.smi:2143|AV-procd|sdf|8725|dock6
  -GOLD-   2272011493D 1   1.00000     0.00000
 Structure written by MMmdl.
 44 45  0  0  0  0  0  0  0  0  1 V2000
  148.0144  138.4758  154.8496 C   0  0  0  0  0  0  0  0  0  0  0  0
  148.5973  139.6137  153.9862 C   0  0  1  0  0  0  0  0  0  0  0  0
  147.4863  140.5137  153.4088 C   0  0  0  0  0  0  0  0  0  0  0  0
  146.8533  141.4145  154.4804 C   0  0  0  0  0  0  0  0  0  0  0  0
  147.9186  142.2611  155.1898 C   0  0  0  0  0  0  0  0  0  0  0  0
  149.0420  141.3920  155.7875 C   0  0  2  0  0  0  0  0  0  0  0  0
  150.0459  142.2767  156.3779 N   0  0  0  0  0  0  0  0  0  0  0  0
  150.5240  142.2034  157.6299 C   0  0  0  0  0  0  0  0  0  0  0  0
  150.1878  141.3345  158.4358 O   0  0  0  0  0  0  0  0  0  0  0  0
  151.5605  143.2687  158.0123 C   0  0  0  0  0  0  0  0  0  0  0  0
  152.0456  143.1337  159.3918 N   0  0  0  0  0  0  0  0  0  0  0  0
  151.7832  144.1328  160.3113 C   0  0  0  0  0  0  0  0  0  0  0  0
  152.2088  144.0960  161.5929 C   0  0  0  0  0  0  0  0  0  0  0  0
  152.9875  142.9688  162.0915 C   0  0  0  0  0  0  0  0  0  0  0  0
  153.4132  142.9055  163.2452 O   0  0  0  0  0  0  0  0  0  0  0  0
  153.2279  141.9533  161.1349 N   0  0  0  0  0  0  0  0  0  0  0  0
  154.0118  140.8015  161.5309 C   0  0  0  0  0  0  0  0  0  0  0  0
  152.7936  142.0052  159.7915 C   0  0  0  0  0  0  0  0  0  0  0  0
  153.0576  141.1093  158.9855 O   0  0  0  0  0  0  0  0  0  0  0  0
  149.6719  140.4721  154.7071 C   0  0  1  0  0  0  0  0  0  0  0  0
  150.8407  139.6188  155.2386 C   0  0  0  0  0  0  0  0  0  0  0  0
  147.5486  138.8466  155.7621 H   0  0  0  0  0  0  0  0  0  0  0  0
  148.7823  137.7588  155.1391 H   0  0  0  0  0  0  0  0  0  0  0  0
  147.2555  137.9202  154.2980 H   0  0  0  0  0  0  0  0  0  0  0  0
  149.0829  139.1317  153.1365 H   0  0  0  0  0  0  0  0  0  0  0  0
  147.9062  141.1411  152.6213 H   0  0  0  0  0  0  0  0  0  0  0  0
  146.7169  139.9064  152.9306 H   0  0  0  0  0  0  0  0  0  0  0  0
  146.1095  142.0669  154.0223 H   0  0  0  0  0  0  0  0  0  0  0  0
  146.3176  140.8083  155.2112 H   0  0  0  0  0  0  0  0  0  0  0  0
  148.3415  142.9717  154.4776 H   0  0  0  0  0  0  0  0  0  0  0  0
  147.4491  142.8555  155.9746 H   0  0  0  0  0  0  0  0  0  0  0  0
  148.6007  140.7672  156.5653 H   0  0  0  0  0  0  0  0  0  0  0  0
  150.3930  143.0188  155.7878 H   0  0  0  0  0  0  0  0  0  0  0  0
  152.3959  143.1952  157.3149 H   0  0  0  0  0  0  0  0  0  0  0  0
  151.1383  144.2641  157.8626 H   0  0  0  0  0  0  0  0  0  0  0  0
  151.2133  144.9926  159.9896 H   0  0  0  0  0  0  0  0  0  0  0  0
  151.9731  144.9141  162.2576 H   0  0  0  0  0  0  0  0  0  0  0  0
  153.5723  139.9095  161.0812 H   0  0  0  0  0  0  0  0  0  0  0  0
  153.9917  140.6802  162.6141 H   0  0  0  0  0  0  0  0  0  0  0  0
  155.0278  140.9714  161.1715 H   0  0  0  0  0  0  0  0  0  0  0  0
  150.1004  141.1263  153.9457 H   0  0  0  0  0  0  0  0  0  0  0  0
  150.5432  139.0232  156.1018 H   0  0  0  0  0  0  0  0  0  0  0  0
  151.6815  140.2409  155.5454 H   0  0  0  0  0  0  0  0  0  0  0  0
  151.2105  138.9374  154.4721 H   0  0  0  0  0  0  0  0  0  0  0  0
  1  2  1  0  0  0  0
  1 22  1  0  0  0  0
  1 23  1  0  0  0  0
  1 24  1  0  0  0  0
  2 20  1  0  0  0  0
  2  3  1  0  0  0  0
  2 25  1  0  0  0  0
  3  4  1  0  0  0  0
  3 26  1  0  0  0  0
  3 27  1  0  0  0  0
  4  5  1  0  0  0  0
  4 28  1  0  0  0  0
  4 29  1  0  0  0  0
  5  6  1  0  0  0  0
  5 30  1  0  0  0  0
  5 31  1  0  0  0  0
  6  7  1  0  0  0  0
  6 20  1  0  0  0  0
  6 32  1  0  0  0  0
  7  8  1  0  0  0  0
  7 33  1  0  0  0  0
  8  9  2  0  0  0  0
  8 10  1  0  0  0  0
 10 11  1  0  0  0  0
 10 34  1  0  0  0  0
 10 35  1  0  0  0  0
 11 18  1  0  0  0  0
 11 12  1  0  0  0  0
 12 13  2  0  0  0  0
 12 36  1  0  0  0  0
 13 14  1  0  0  0  0
 13 37  1  0  0  0  0
 14 15  2  0  0  0  0
 14 16  1  0  0  0  0
 16 17  1  0  0  0  0
 16 18  1  0  0  0  0
 17 38  1  0  0  0  0
 17 39  1  0  0  0  0
 17 40  1  0  0  0  0
 18 19  2  0  0  0  0
 20 21  1  0  0  0  0
 20 41  1  0  0  0  0
 21 42  1  0  0  0  0
 21 43  1  0  0  0  0
 21 44  1  0  0  0  0
M  END
> <s_m_source_file>
AV-unprocessed.smi

> <i_m_source_file_index>
2143

> <i_lp_mmshare_version>
43012

> <i_f3d_flags>
0

> <s_epik_input>
W0NIM11bQ0BASF0xW0NIMl1bQ0gyXVtDSDJdW0NASF0oW0NASF0xW0NIM10pW05IXUMoPU8pW0NIMl1uMltjSF1bY0hdYyg9TyluKFtDSDNdKWMyPU8=

> <s_epik_cmdline>
J2VwaWtfcHl0aG9uJywgJy1waCcsICc3LjAnLCAnLXRuJywgJzgnLCAnLW1hJywgJzIwMCcsICctbWV0YWxfYmluZGluZycsICctaW1hZScsICc8aW5maWxlLm1hZT4nLCAnLW9tYWUnLCAnPG91dGZpbGUubWFlPic=

> <r_lp_tautomer_probability>
1

> <r_epik_Ionization_Penalty>
3.18445e-08

> <r_epik_Ionization_Penalty_Charging>
1.27977e-08

> <r_epik_Ionization_Penalty_Neutral>
1.90469e-08

> <r_epik_State_Penalty>
-0

> <r_epik_Charging_Adjusted_Penalty>
1.27977e-08

> <i_epik_Tot_Q>
0

> <i_epik_Tot_abs_Q>
0

> <r_epik_Metal_State_Penalty>
-0

> <b_epik_Metal_Only>
0

> <s_lp_Force_Field>
OPLS_2005

> <r_lp_Energy>
21.4204

> <b_lp_Chiralities_Consistent>
1

> <s_lp_Variant>
AV-unprocessed.smi:2143-4

> <Gold.Version>
5.8.1

> <Gold.Id.Protein>
6NUR|6NUR_protein|mol2

> <Gold.PLP.Fitness>
45.8608

> <Gold.PLP.PLP>
-45.7388

> <Gold.PLP.part.hbond>
-1.0000

> <Gold.PLP.part.metal>
0.0000

> <Gold.PLP.part.buried>
1.2122

> <Gold.PLP.part.nonpolar>
-44.4384

> <Gold.PLP.part.repulsive>
0.1943

> <Gold.PLP.ligand.clash>
0.0000

> <Gold.PLP.ligand.torsion>
0.0976

> <Gold.PLP.Chemscore.Hbond>
0.1040

> <Gold.PLP.Chemscore.CHOScore>
0.0000

> <Gold.PLP.Chemscore.Metal>
0.0000

> <Gold.Chemscore.Hbonds>
donor molecule, donor type, donor heavy atom, donor atom, acceptor molecule, acceptor atom, score
      L1  H     7    33       P1  8028  0.09

> <Gold.PLP.Chemscore.Internal.Correction>
0.0052

> <Gold.Rescore>
     Score         DG    S(hbond)    S(metal)    S(lipo)     H(rot)  DE(clash)    DE(int)     intcor
     11.16     -12.25       0.01        0.00      90.56       1.51       0.94       0.14       ----

> <Gold.Chemscore.Fitness>
11.1644

> <Gold.Chemscore.DG>
-12.2502

> <Gold.Chemscore.ZeroCoef>
-5.4800

> <Gold.Chemscore.Hbond>
0.0146

> <Gold.Chemscore.Metal>
0.0000

> <Gold.Chemscore.Lipo>
90.5558

> <Gold.Chemscore.Internal_Hbond>
0.0000

> <Gold.Chemscore.DEClash>
0.9436

> <Gold.Chemscore.DEInternal>
0.1422

> <Gold.Chemscore.Rot>
1.5131

> <Gold.Chemscore.Internal.Correction>
   9.000000E+99

> <Gold.Chemscore.Hbonds>
donor molecule, donor type, donor heavy atom, donor atom, acceptor molecule, acceptor atom, score
      L1  H     7    33       P1  8028  0.09

> <Gold.Chemscore.Hbond.Weighted>
-0.0486

> <Gold.Chemscore.Metal.Weighted>
-0.0000

> <Gold.Chemscore.Lipo.Weighted>
-10.5950

> <Gold.Chemscore.Internal_Hbond.Weighted>
0.0000

> <Gold.Chemscore.DEClash.Weighted>
0.9436

> <Gold.Chemscore.DEInternal.Weighted>
0.1422

> <Gold.Chemscore.Rot.Weighted>
3.8734

> <Gold.Chemscore.Internal.Correction.Weighted>
   9.000000E+99

> <Gold.Protein.RotatedTorsions>
[ 6907 6896 6895 6894 ] final  100.62 input  -60.11 | X-H torsion
[ 7974 7965 7964 7962 ] final   55.63 input  175.53 | X-H torsion
[ 8008 7997 7996 7995 ] final -157.71 input   59.86 | X-H torsion
[ 10167 10162 10161 10158 ] final   11.63 input  -65.29 | X-H torsion
[ 10718 10713 10712 10709 ] final -147.39 input   66.30 | X-H torsion
[ 10763 10752 10751 10750 ] final -173.27 input  -60.55 | X-H torsion
[ 11005 11000 10999 10996 ] final  117.80 input  -57.11 | X-H torsion

> <Gold.Protein.ActiveResidues>
 VAL166  LYS551  ARG553  GLY616  TRP617  ASP618  TYR619  PRO620  LYS621  CYS622 
 ASP623  PHE694  ASN695  SER759  ASP760  ASP761  ALA762  ILE779  LEU786  VAL792 
 PHE793  MET794  SER795  GLU796  ALA797  LYS798  CYS799  TRP800  GLU811  SER814 

> <Gold.Protein.RotatedAtoms>
  152.5368  134.0249  159.7998 H   0  0  0  0  0  0  0  0  0  0  0  0  # atno 6907 bound_to 6896
  151.0430  133.5682  159.2656 H   0  0  0  0  0  0  0  0  0  0  0  0  # atno 6908 bound_to 6896
  151.2645  135.0672  159.9164 H   0  0  0  0  0  0  0  0  0  0  0  0  # atno 6909 bound_to 6896
  145.9484  139.3950  143.0321 H   0  0  0  0  0  0  0  0  0  0  0  0  # atno 7974 bound_to 7965
  155.7366  140.0809  157.2265 H   0  0  0  0  0  0  0  0  0  0  0  0  # atno 8008 bound_to 7997
  154.4026  140.1585  156.2624 H   0  0  0  0  0  0  0  0  0  0  0  0  # atno 8009 bound_to 7997
  155.9059  140.3407  155.6064 H   0  0  0  0  0  0  0  0  0  0  0  0  # atno 8010 bound_to 7997
  140.6120  143.8388  150.7075 H   0  0  0  0  0  0  0  0  0  0  0  0  # atno 10167 bound_to 10162
  156.4070  130.7962  151.2177 H   0  0  0  0  0  0  0  0  0  0  0  0  # atno 10718 bound_to 10713
  154.6098  135.2863  155.0444 H   0  0  0  0  0  0  0  0  0  0  0  0  # atno 10763 bound_to 10752
  154.1678  135.6477  153.5006 H   0  0  0  0  0  0  0  0  0  0  0  0  # atno 10764 bound_to 10752
  153.0190  135.5393  154.6848 H   0  0  0  0  0  0  0  0  0  0  0  0  # atno 10765 bound_to 10752
  139.9087  134.9614  156.7405 H   0  0  0  0  0  0  0  0  0  0  0  0  # atno 11005 bound_to 11000
  145.8205  140.9681  143.0901 LP  0  0  0  0  0  0  0  0  0  0  0  0  # atno 17320 bound_to 7965
  144.6791  140.0035  143.7484 LP  0  0  0  0  0  0  0  0  0  0  0  0  # atno 17321 bound_to 7965
  140.1959  143.3999  152.1828 LP  0  0  0  0  0  0  0  0  0  0  0  0  # atno 17342 bound_to 10162
  139.5368  144.7218  151.4865 LP  0  0  0  0  0  0  0  0  0  0  0  0  # atno 17343 bound_to 10162
  157.7506  131.0269  150.3983 LP  0  0  0  0  0  0  0  0  0  0  0  0  # atno 17370 bound_to 10713
  156.4274  130.3965  149.6783 LP  0  0  0  0  0  0  0  0  0  0  0  0  # atno 17371 bound_to 10713
  140.6853  133.9438  155.7934 LP  0  0  0  0  0  0  0  0  0  0  0  0  # atno 17394 bound_to 11000
  141.0481  134.0525  157.3819 LP  0  0  0  0  0  0  0  0  0  0  0  0  # atno 17395 bound_to 11000

$$$$
