AV-unprocessed.smi:1700|AV-procd|sdf|6819|dock2
  -GOLD-   22720 7593D 1   1.00000     0.00000
 Structure written by MMmdl.
 34 35  0  0  0  0  0  0  0  0  1 V2000
  147.6896  132.9898  152.3588 C   0  0  0  0  0  0  0  0  0  0  0  0
  146.4253  133.0434  151.5164 C   0  0  0  0  0  0  0  0  0  0  0  0
  145.8790  131.8430  151.0144 C   0  0  0  0  0  0  0  0  0  0  0  0
  144.7106  131.8941  150.2352 C   0  0  0  0  0  0  0  0  0  0  0  0
  144.1341  133.1518  149.9895 C   0  0  0  0  0  0  0  0  0  0  0  0
  144.6493  134.3038  150.4650 N   0  0  0  0  0  0  0  0  0  0  0  0
  145.7771  134.2724  151.2189 C   0  0  0  0  0  0  0  0  0  0  0  0
  146.3791  135.4485  151.7496 N   0  0  0  0  0  0  0  0  0  0  0  0
  145.7796  136.5602  152.2118 C   0  0  0  0  0  0  0  0  0  0  0  0
  144.5633  136.7392  152.2823 O   0  0  0  0  0  0  0  0  0  0  0  0
  146.6825  137.4727  152.5986 N   0  0  0  0  0  0  0  0  0  0  0  0
  146.3609  138.7847  153.1487 C   0  0  0  0  0  0  0  0  0  0  0  0
  147.5933  139.7033  153.1784 C   0  0  2  0  0  0  0  0  0  0  0  0
  148.7016  139.2130  154.1076 C   0  0  0  0  0  0  0  0  0  0  0  0
  149.4362  140.4995  154.4070 C   0  0  0  0  0  0  0  0  0  0  0  0
  148.2865  141.4976  154.5129 C   0  0  0  0  0  0  0  0  0  0  0  0
  147.2471  140.9938  153.6768 O   0  0  0  0  0  0  0  0  0  0  0  0
  148.0467  131.9660  152.4743 H   0  0  0  0  0  0  0  0  0  0  0  0
  147.5025  133.3937  153.3542 H   0  0  0  0  0  0  0  0  0  0  0  0
  148.4851  133.5712  151.8917 H   0  0  0  0  0  0  0  0  0  0  0  0
  146.3478  130.8922  151.2221 H   0  0  0  0  0  0  0  0  0  0  0  0
  144.2683  130.9932  149.8361 H   0  0  0  0  0  0  0  0  0  0  0  0
  143.2362  133.2361  149.3952 H   0  0  0  0  0  0  0  0  0  0  0  0
  147.3879  135.4462  151.7665 H   0  0  0  0  0  0  0  0  0  0  0  0
  147.6620  137.2431  152.5147 H   0  0  0  0  0  0  0  0  0  0  0  0
  145.5745  139.2311  152.5398 H   0  0  0  0  0  0  0  0  0  0  0  0
  145.9481  138.6739  154.1530 H   0  0  0  0  0  0  0  0  0  0  0  0
  148.0049  139.8280  152.1753 H   0  0  0  0  0  0  0  0  0  0  0  0
  148.2822  138.7999  155.0262 H   0  0  0  0  0  0  0  0  0  0  0  0
  149.3359  138.4540  153.6485 H   0  0  0  0  0  0  0  0  0  0  0  0
  150.0434  140.4487  155.3112 H   0  0  0  0  0  0  0  0  0  0  0  0
  150.0864  140.7613  153.5712 H   0  0  0  0  0  0  0  0  0  0  0  0
  147.9142  141.5426  155.5370 H   0  0  0  0  0  0  0  0  0  0  0  0
  148.5834  142.5039  154.2165 H   0  0  0  0  0  0  0  0  0  0  0  0
  1  2  1  0  0  0  0
  1 18  1  0  0  0  0
  1 19  1  0  0  0  0
  1 20  1  0  0  0  0
  2  7  1  0  0  0  0
  2  3  2  0  0  0  0
  3  4  1  0  0  0  0
  3 21  1  0  0  0  0
  4  5  2  0  0  0  0
  4 22  1  0  0  0  0
  5  6  1  0  0  0  0
  5 23  1  0  0  0  0
  6  7  2  0  0  0  0
  7  8  1  0  0  0  0
  8  9  1  0  0  0  0
  8 24  1  0  0  0  0
  9 10  2  0  0  0  0
  9 11  1  0  0  0  0
 11 12  1  0  0  0  0
 11 25  1  0  0  0  0
 12 13  1  0  0  0  0
 12 26  1  0  0  0  0
 12 27  1  0  0  0  0
 13 17  1  0  0  0  0
 13 14  1  0  0  0  0
 13 28  1  0  0  0  0
 14 15  1  0  0  0  0
 14 29  1  0  0  0  0
 14 30  1  0  0  0  0
 15 16  1  0  0  0  0
 15 31  1  0  0  0  0
 15 32  1  0  0  0  0
 16 17  1  0  0  0  0
 16 33  1  0  0  0  0
 16 34  1  0  0  0  0
M  END
> <s_m_source_file>
AV-unprocessed.smi

> <i_m_source_file_index>
1700

> <i_lp_mmshare_version>
43012

> <i_f3d_flags>
0

> <s_epik_input>
W0NIM11jMVtjSF1bY0hdW2NIXW5jMVtOSF1DKD1PKVtOSF1bQ0gyXVtDQEBIXTJbQ0gyXVtDSDJdW0NIMl1PMg==

> <s_epik_cmdline>
J2VwaWtfcHl0aG9uJywgJy1waCcsICc3LjAnLCAnLXRuJywgJzgnLCAnLW1hJywgJzIwMCcsICctbWV0YWxfYmluZGluZycsICctaW1hZScsICc8aW5maWxlLm1hZT4nLCAnLW9tYWUnLCAnPG91dGZpbGUubWFlPic=

> <r_lp_tautomer_probability>
1

> <r_epik_Ionization_Penalty>
5.57253e-05

> <r_epik_Ionization_Penalty_Charging>
0

> <r_epik_Ionization_Penalty_Neutral>
5.57253e-05

> <r_epik_State_Penalty>
-0

> <r_epik_Charging_Adjusted_Penalty>
0

> <i_epik_Tot_Q>
0

> <i_epik_Tot_abs_Q>
0

> <r_epik_Metal_State_Penalty>
-0

> <b_epik_Metal_Only>
0

> <s_lp_Force_Field>
OPLS_2005

> <r_lp_Energy>
19.3296

> <b_lp_Chiralities_Consistent>
1

> <s_lp_Variant>
AV-unprocessed.smi:1700-1

> <Gold.Version>
5.8.1

> <Gold.Id.Protein>
6NUR|6NUR_protein|mol2

> <Gold.PLP.Fitness>
38.6555

> <Gold.PLP.PLP>
-30.3361

> <Gold.PLP.part.hbond>
-2.0000

> <Gold.PLP.part.metal>
0.0000

> <Gold.PLP.part.buried>
-0.9908

> <Gold.PLP.part.nonpolar>
-27.6298

> <Gold.PLP.part.repulsive>
0.6531

> <Gold.PLP.ligand.clash>
0.0000

> <Gold.PLP.ligand.torsion>
0.3411

> <Gold.PLP.Chemscore.Hbond>
2.0000

> <Gold.PLP.Chemscore.CHOScore>
1.0000

> <Gold.PLP.Chemscore.Metal>
0.0000

> <Gold.Chemscore.Hbonds>
donor molecule, donor type, donor heavy atom, donor atom, acceptor molecule, acceptor atom, score
      L1  H     8    24       P1  7948  1.00
      L1  H    11    25       P1  7948  1.00
      L1  C     5    23       P1 10186  1.00

> <Gold.PLP.Chemscore.Internal.Correction>
0.0016

> <Gold.Rescore>
     Score         DG    S(hbond)    S(metal)    S(lipo)     H(rot)  DE(clash)    DE(int)     intcor
     15.95     -17.08       1.91        0.00      71.67       1.23       0.05       1.08       ----

> <Gold.Chemscore.Fitness>
15.9494

> <Gold.Chemscore.DG>
-17.0836

> <Gold.Chemscore.ZeroCoef>
-5.4800

> <Gold.Chemscore.Hbond>
1.9091

> <Gold.Chemscore.Metal>
0.0000

> <Gold.Chemscore.Lipo>
71.6713

> <Gold.Chemscore.Internal_Hbond>
0.0000

> <Gold.Chemscore.DEClash>
0.0499

> <Gold.Chemscore.DEInternal>
1.0843

> <Gold.Chemscore.Rot>
1.2337

> <Gold.Chemscore.Internal.Correction>
   9.000000E+99

> <Gold.Chemscore.Hbonds>
donor molecule, donor type, donor heavy atom, donor atom, acceptor molecule, acceptor atom, score
      L1  H     8    24       P1  7948  0.96
      L1  H    11    25       P1  7948  0.94

> <Gold.Chemscore.Hbond.Weighted>
-6.3763

> <Gold.Chemscore.Metal.Weighted>
-0.0000

> <Gold.Chemscore.Lipo.Weighted>
-8.3855

> <Gold.Chemscore.Internal_Hbond.Weighted>
0.0000

> <Gold.Chemscore.DEClash.Weighted>
0.0499

> <Gold.Chemscore.DEInternal.Weighted>
1.0843

> <Gold.Chemscore.Rot.Weighted>
3.1582

> <Gold.Chemscore.Internal.Correction.Weighted>
   9.000000E+99

> <Gold.Protein.RotatedTorsions>
[ 6907 6896 6895 6894 ] final  -36.09 input  -60.11 | X-H torsion
[ 7974 7965 7964 7962 ] final  105.07 input  175.53 | X-H torsion
[ 8008 7997 7996 7995 ] final  172.15 input   59.86 | X-H torsion
[ 10167 10162 10161 10158 ] final -137.94 input  -65.29 | X-H torsion
[ 10718 10713 10712 10709 ] final   56.81 input   66.30 | X-H torsion
[ 10763 10752 10751 10750 ] final  -92.93 input  -60.55 | X-H torsion
[ 11005 11000 10999 10996 ] final  -71.33 input  -57.11 | X-H torsion

> <Gold.Protein.ActiveResidues>
 VAL166  LYS551  ARG553  GLY616  TRP617  ASP618  TYR619  PRO620  LYS621  CYS622 
 ASP623  PHE694  ASN695  SER759  ASP760  ASP761  ALA762  ILE779  LEU786  VAL792 
 PHE793  MET794  SER795  GLU796  ALA797  LYS798  CYS799  TRP800  GLU811  SER814 

> <Gold.Protein.RotatedAtoms>
  151.0316  134.9543  159.8113 H   0  0  0  0  0  0  0  0  0  0  0  0  # atno 6907 bound_to 6896
  152.5346  134.2773  159.9004 H   0  0  0  0  0  0  0  0  0  0  0  0  # atno 6908 bound_to 6896
  151.2783  133.4180  159.2659 H   0  0  0  0  0  0  0  0  0  0  0  0  # atno 6909 bound_to 6896
  145.3245  139.2503  143.3694 H   0  0  0  0  0  0  0  0  0  0  0  0  # atno 7974 bound_to 7965
  156.1203  140.1493  156.9215 H   0  0  0  0  0  0  0  0  0  0  0  0  # atno 8008 bound_to 7997
  154.4830  140.0873  156.7464 H   0  0  0  0  0  0  0  0  0  0  0  0  # atno 8009 bound_to 7997
  155.4441  140.3432  155.4295 H   0  0  0  0  0  0  0  0  0  0  0  0  # atno 8010 bound_to 7997
  139.8528  143.7177  152.2656 H   0  0  0  0  0  0  0  0  0  0  0  0  # atno 10167 bound_to 10162
  157.5462  130.8733  149.8895 H   0  0  0  0  0  0  0  0  0  0  0  0  # atno 10718 bound_to 10713
  154.6909  135.5213  153.8391 H   0  0  0  0  0  0  0  0  0  0  0  0  # atno 10763 bound_to 10752
  153.0632  135.6575  154.0425 H   0  0  0  0  0  0  0  0  0  0  0  0  # atno 10764 bound_to 10752
  154.0299  135.2986  155.3349 H   0  0  0  0  0  0  0  0  0  0  0  0  # atno 10765 bound_to 10752
  141.1590  133.6814  156.6889 H   0  0  0  0  0  0  0  0  0  0  0  0  # atno 11005 bound_to 11000
  146.3069  140.3810  142.8684 LP  0  0  0  0  0  0  0  0  0  0  0  0  # atno 17320 bound_to 7965
  144.8912  140.7526  143.5925 LP  0  0  0  0  0  0  0  0  0  0  0  0  # atno 17321 bound_to 7965
  139.7449  144.7550  151.0595 LP  0  0  0  0  0  0  0  0  0  0  0  0  # atno 17342 bound_to 10162
  140.7785  143.4928  150.9871 LP  0  0  0  0  0  0  0  0  0  0  0  0  # atno 17343 bound_to 10162
  156.0538  130.3712  150.1139 LP  0  0  0  0  0  0  0  0  0  0  0  0  # atno 17370 bound_to 10713
  156.9315  130.9715  151.3532 LP  0  0  0  0  0  0  0  0  0  0  0  0  # atno 17371 bound_to 10713
  140.3045  134.8136  157.4125 LP  0  0  0  0  0  0  0  0  0  0  0  0  # atno 17394 bound_to 11000
  140.1232  134.5192  155.8166 LP  0  0  0  0  0  0  0  0  0  0  0  0  # atno 17395 bound_to 11000

$$$$
