AV-unprocessed.smi:2888|AV-procd|sdf|11105|dock6
  -GOLD-   2272015573D 1   1.00000     0.00000
 Structure written by MMmdl.
 34 36  0  0  0  0  0  0  0  0  2 V2000
  151.9033  138.6591  155.3998 C   0  0  0  0  0  0  0  0  0  0  0  0
  150.9654  139.8439  155.3070 C   0  0  0  0  0  0  0  0  0  0  0  0
  149.8722  139.8539  154.4238 C   0  0  0  0  0  0  0  0  0  0  0  0
  149.0696  141.0112  154.4243 C   0  0  0  0  0  0  0  0  0  0  0  0
  147.8601  141.1519  153.5250 C   0  0  0  0  0  0  0  0  0  0  0  0
  149.3670  142.0449  155.2512 N   0  3  0  0  0  0  0  0  0  0  0  0
  150.4263  141.9653  156.0711 C   0  0  0  0  0  0  0  0  0  0  0  0
  150.6777  143.0471  156.8953 N   0  0  0  0  0  0  0  0  0  0  0  0
  151.7865  143.1148  157.8398 C   0  0  1  0  0  0  0  0  0  0  0  0
  152.5555  144.4367  157.7760 C   0  0  0  0  0  0  0  0  0  0  0  0
  152.5229  144.8902  159.2427 C   0  0  1  0  0  0  0  0  0  0  0  0
  151.1389  145.4222  159.6365 C   0  0  0  0  0  0  0  0  0  0  0  0
  150.3187  144.1352  159.7019 C   0  0  0  0  0  0  0  0  0  0  0  0
  151.3633  143.0717  159.3214 C   0  0  2  0  0  0  0  0  0  0  0  0
  152.5192  143.6404  159.9129 O   0  0  0  0  0  0  0  0  0  0  0  0
  151.2276  140.8908  156.1147 N   0  0  0  0  0  0  0  0  0  0  0  0
  151.6633  137.9071  154.6478 H   0  0  0  0  0  0  0  0  0  0  0  0
  151.8302  138.1935  156.3830 H   0  0  0  0  0  0  0  0  0  0  0  0
  152.9349  138.9766  155.2455 H   0  0  0  0  0  0  0  0  0  0  0  0
  149.6579  139.0157  153.7764 H   0  0  0  0  0  0  0  0  0  0  0  0
  147.8016  140.3273  152.8139 H   0  0  0  0  0  0  0  0  0  0  0  0
  147.9098  142.0838  152.9609 H   0  0  0  0  0  0  0  0  0  0  0  0
  146.9458  141.1562  154.1190 H   0  0  0  0  0  0  0  0  0  0  0  0
  149.9612  143.7554  156.9599 H   0  0  0  0  0  0  0  0  0  0  0  0
  152.4787  142.2967  157.6358 H   0  0  0  0  0  0  0  0  0  0  0  0
  153.5797  144.2614  157.4450 H   0  0  0  0  0  0  0  0  0  0  0  0
  152.1081  145.1763  157.1105 H   0  0  0  0  0  0  0  0  0  0  0  0
  153.3454  145.5494  159.5217 H   0  0  0  0  0  0  0  0  0  0  0  0
  151.1711  145.9049  160.6141 H   0  0  0  0  0  0  0  0  0  0  0  0
  150.7475  146.1392  158.9138 H   0  0  0  0  0  0  0  0  0  0  0  0
  149.9582  143.9690  160.7178 H   0  0  0  0  0  0  0  0  0  0  0  0
  149.4538  144.1455  159.0382 H   0  0  0  0  0  0  0  0  0  0  0  0
  151.1255  142.0717  159.6854 H   0  0  0  0  0  0  0  0  0  0  0  0
  148.7760  142.8764  155.2429 H   0  0  0  0  0  0  0  0  0  0  0  0
  1  2  1  0  0  0  0
  1 17  1  0  0  0  0
  1 18  1  0  0  0  0
  1 19  1  0  0  0  0
  2 16  1  0  0  0  0
  2  3  2  0  0  0  0
  3  4  1  0  0  0  0
  3 20  1  0  0  0  0
  4  5  1  0  0  0  0
  4  6  2  0  0  0  0
  5 21  1  0  0  0  0
  5 22  1  0  0  0  0
  5 23  1  0  0  0  0
  6  7  1  0  0  0  0
  6 34  1  0  0  0  0
  7  8  1  0  0  0  0
  7 16  2  0  0  0  0
  8  9  1  0  0  0  0
  8 24  1  0  0  0  0
  9 14  1  0  0  0  0
  9 10  1  0  0  0  0
  9 25  1  0  0  0  0
 10 11  1  0  0  0  0
 10 26  1  0  0  0  0
 10 27  1  0  0  0  0
 11 15  1  0  0  0  0
 11 12  1  0  0  0  0
 11 28  1  0  0  0  0
 12 13  1  0  0  0  0
 12 29  1  0  0  0  0
 12 30  1  0  0  0  0
 13 14  1  0  0  0  0
 13 31  1  0  0  0  0
 13 32  1  0  0  0  0
 14 15  1  0  0  0  0
 14 33  1  0  0  0  0
M  CHG  1   6   1
M  END
> <s_m_source_file>
AV-unprocessed.smi

> <i_m_source_file_index>
2888

> <i_lp_mmshare_version>
43012

> <i_f3d_flags>
0

> <s_epik_input>
W0NIM11jMVtjSF1jKFtDSDNdKW5jKG4xKVtOSF1bQ0BIXShbQ0gyXVtDQEBIXTIzKVtDQEBIXShPMylbQ0gyXVtDSDJdMg==

> <s_epik_cmdline>
J2VwaWtfcHl0aG9uJywgJy1waCcsICc3LjAnLCAnLXRuJywgJzgnLCAnLW1hJywgJzIwMCcsICctbWV0YWxfYmluZGluZycsICctaW1hZScsICc8aW5maWxlLm1hZT4nLCAnLW9tYWUnLCAnPG91dGZpbGUubWFlPic=

> <r_lp_tautomer_probability>
0.505494

> <r_epik_Ionization_Penalty>
2.49163

> <r_epik_Ionization_Penalty_Charging>
2.49163

> <r_epik_Ionization_Penalty_Neutral>
3.7631e-06

> <r_epik_State_Penalty>
2.656

> <r_epik_Charging_Adjusted_Penalty>
5.14762

> <i_epik_Tot_Q>
1

> <i_epik_Tot_abs_Q>
1

> <r_epik_Metal_State_Penalty>
2.66479

> <b_epik_Metal_Only>
0

> <s_lp_Force_Field>
OPLS_2005

> <r_lp_Energy>
36.4531

> <b_lp_Chiralities_Consistent>
1

> <s_lp_Variant>
AV-unprocessed.smi:2888-6

> <Gold.Version>
5.8.1

> <Gold.Id.Protein>
6NUR|6NUR_protein|mol2

> <Gold.PLP.Fitness>
46.8149

> <Gold.PLP.PLP>
-37.9150

> <Gold.PLP.part.hbond>
-2.0000

> <Gold.PLP.part.metal>
0.0000

> <Gold.PLP.part.buried>
-3.6636

> <Gold.PLP.part.nonpolar>
-30.9256

> <Gold.PLP.part.repulsive>
0.2471

> <Gold.PLP.ligand.clash>
0.0000

> <Gold.PLP.ligand.torsion>
0.1144

> <Gold.PLP.Chemscore.Hbond>
3.0400

> <Gold.PLP.Chemscore.CHOScore>
0.0000

> <Gold.PLP.Chemscore.Metal>
0.0000

> <Gold.Chemscore.Hbonds>
donor molecule, donor type, donor heavy atom, donor atom, acceptor molecule, acceptor atom, score
      L1  H     6    34       P1  8028  1.60
      L1  H     8    24       P1  8028  1.41

> <Gold.PLP.Chemscore.Internal.Correction>
0.0088

> <Gold.Rescore>
     Score         DG    S(hbond)    S(metal)    S(lipo)     H(rot)  DE(clash)    DE(int)     intcor
     19.70     -20.21       1.51        0.00     104.62       1.00       0.43       0.08       ----

> <Gold.Chemscore.Fitness>
19.6970

> <Gold.Chemscore.DG>
-20.2066

> <Gold.Chemscore.ZeroCoef>
-5.4800

> <Gold.Chemscore.Hbond>
1.5107

> <Gold.Chemscore.Metal>
0.0000

> <Gold.Chemscore.Lipo>
104.6236

> <Gold.Chemscore.Internal_Hbond>
0.0000

> <Gold.Chemscore.DEClash>
0.4254

> <Gold.Chemscore.DEInternal>
0.0843

> <Gold.Chemscore.Rot>
1.0000

> <Gold.Chemscore.Internal.Correction>
   9.000000E+99

> <Gold.Chemscore.Hbonds>
donor molecule, donor type, donor heavy atom, donor atom, acceptor molecule, acceptor atom, score
      L1  H     6    34       P1  8028  0.79
      L1  H     8    24       P1  8028  0.68

> <Gold.Chemscore.Hbond.Weighted>
-5.0456

> <Gold.Chemscore.Metal.Weighted>
-0.0000

> <Gold.Chemscore.Lipo.Weighted>
-12.2410

> <Gold.Chemscore.Internal_Hbond.Weighted>
0.0000

> <Gold.Chemscore.DEClash.Weighted>
0.4254

> <Gold.Chemscore.DEInternal.Weighted>
0.0843

> <Gold.Chemscore.Rot.Weighted>
2.5600

> <Gold.Chemscore.Internal.Correction.Weighted>
   9.000000E+99

> <Gold.Protein.RotatedTorsions>
[ 6907 6896 6895 6894 ] final -118.31 input  -60.11 | X-H torsion
[ 7974 7965 7964 7962 ] final   17.91 input  175.53 | X-H torsion
[ 8008 7997 7996 7995 ] final -155.37 input   59.86 | X-H torsion
[ 10167 10162 10161 10158 ] final -125.25 input  -65.29 | X-H torsion
[ 10718 10713 10712 10709 ] final  143.39 input   66.30 | X-H torsion
[ 10763 10752 10751 10750 ] final   29.67 input  -60.55 | X-H torsion
[ 11005 11000 10999 10996 ] final  156.79 input  -57.11 | X-H torsion

> <Gold.Protein.ActiveResidues>
 VAL166  LYS551  ARG553  GLY616  TRP617  ASP618  TYR619  PRO620  LYS621  CYS622 
 ASP623  PHE694  ASN695  SER759  ASP760  ASP761  ALA762  ILE779  LEU786  VAL792 
 PHE793  MET794  SER795  GLU796  ALA797  LYS798  CYS799  TRP800  GLU811  SER814 

> <Gold.Protein.RotatedAtoms>
  150.8209  133.8255  159.3139 H   0  0  0  0  0  0  0  0  0  0  0  0  # atno 6907 bound_to 6896
  151.6013  135.1045  160.0070 H   0  0  0  0  0  0  0  0  0  0  0  0  # atno 6908 bound_to 6896
  152.4298  133.7216  159.6593 H   0  0  0  0  0  0  0  0  0  0  0  0  # atno 6909 bound_to 6896
  146.2203  139.8533  142.8618 H   0  0  0  0  0  0  0  0  0  0  0  0  # atno 7974 bound_to 7965
  155.7007  140.0766  157.2411 H   0  0  0  0  0  0  0  0  0  0  0  0  # atno 8008 bound_to 7997
  154.4073  140.1648  156.2241 H   0  0  0  0  0  0  0  0  0  0  0  0  # atno 8009 bound_to 7997
  155.9370  140.3387  155.6299 H   0  0  0  0  0  0  0  0  0  0  0  0  # atno 8010 bound_to 7997
  139.9841  143.5711  152.2367 H   0  0  0  0  0  0  0  0  0  0  0  0  # atno 10167 bound_to 10162
  157.3694  131.0977  151.0842 H   0  0  0  0  0  0  0  0  0  0  0  0  # atno 10718 bound_to 10713
  153.0417  135.6483  154.0926 H   0  0  0  0  0  0  0  0  0  0  0  0  # atno 10763 bound_to 10752
  154.0631  135.2886  155.3323 H   0  0  0  0  0  0  0  0  0  0  0  0  # atno 10764 bound_to 10752
  154.6644  135.5379  153.8123 H   0  0  0  0  0  0  0  0  0  0  0  0  # atno 10765 bound_to 10752
  140.1708  134.8544  157.2688 H   0  0  0  0  0  0  0  0  0  0  0  0  # atno 11005 bound_to 11000
  145.2779  141.0129  143.3734 LP  0  0  0  0  0  0  0  0  0  0  0  0  # atno 17320 bound_to 7965
  144.9173  139.4455  143.6558 LP  0  0  0  0  0  0  0  0  0  0  0  0  # atno 17321 bound_to 7965
  139.6388  144.7652  151.2382 LP  0  0  0  0  0  0  0  0  0  0  0  0  # atno 17342 bound_to 10162
  140.7478  143.6353  150.8385 LP  0  0  0  0  0  0  0  0  0  0  0  0  # atno 17343 bound_to 10162
  157.1952  130.6369  149.5718 LP  0  0  0  0  0  0  0  0  0  0  0  0  # atno 17370 bound_to 10713
  155.9752  130.4709  150.6446 LP  0  0  0  0  0  0  0  0  0  0  0  0  # atno 17371 bound_to 10713
  140.2380  134.3830  155.7493 LP  0  0  0  0  0  0  0  0  0  0  0  0  # atno 17394 bound_to 11000
  141.2217  133.7250  156.8744 LP  0  0  0  0  0  0  0  0  0  0  0  0  # atno 17395 bound_to 11000

$$$$
