AV-unprocessed.smi:1830|AV-procd|sdf|7441|dock3
  -GOLD-   22720 9133D 1   1.00000     0.00000
 Structure written by MMmdl.
 52 55  0  0  0  0  0  0  0  0  1 V2000
  145.5192  138.8141  152.9755 O   0  0  0  0  0  0  0  0  0  0  0  0
  146.5039  138.1111  152.7476 C   0  0  0  0  0  0  0  0  0  0  0  0
  146.4342  136.9054  152.1679 N   0  0  0  0  0  0  0  0  0  0  0  0
  145.2028  136.2533  151.7376 C   0  0  0  0  0  0  0  0  0  0  0  0
  145.0238  134.8725  152.4050 C   0  0  1  0  0  0  0  0  0  0  0  0
  143.9547  134.0042  151.7011 C   0  0  0  0  0  0  0  0  0  0  0  0
  144.4647  133.4818  150.4473 N   0  0  0  0  0  0  0  0  0  0  0  0
  143.6043  132.5771  149.7212 C   0  0  0  0  0  0  0  0  0  0  0  0
  144.5387  131.8969  148.7062 C   0  0  0  0  0  0  0  0  0  0  0  0
  145.9537  132.0940  149.2938 C   0  0  0  0  0  0  0  0  0  0  0  0
  145.6711  132.7285  150.6572 C   0  0  1  0  0  0  0  0  0  0  0  0
  146.7668  133.6139  151.2655 C   0  0  0  0  0  0  0  0  0  0  0  0
  146.2725  134.1655  152.4902 O   0  0  0  0  0  0  0  0  0  0  0  0
  147.7723  138.4256  153.0583 N   0  0  0  0  0  0  0  0  0  0  0  0
  148.2658  139.6103  153.6755 C   0  0  0  0  0  0  0  0  0  0  0  0
  147.5663  140.8410  153.6263 C   0  0  0  0  0  0  0  0  0  0  0  0
  148.1229  141.9732  154.2470 C   0  0  0  0  0  0  0  0  0  0  0  0
  149.3660  141.8384  154.8887 C   0  0  0  0  0  0  0  0  0  0  0  0
  150.0527  140.6789  154.9298 N   0  0  0  0  0  0  0  0  0  0  0  0
  149.5225  139.5801  154.3386 C   0  0  0  0  0  0  0  0  0  0  0  0
  150.2799  138.3905  154.3712 N   0  0  0  0  0  0  0  0  0  0  0  0
  151.6425  138.5767  154.8619 C   0  0  0  0  0  0  0  0  0  0  0  0
  151.9901  137.3188  155.6599 C   0  0  0  0  0  0  0  0  0  0  0  0
  150.6312  136.8450  156.1598 C   0  0  0  0  0  0  0  0  0  0  0  0
  149.7097  137.1959  154.9927 C   0  0  0  0  0  0  0  0  0  0  0  0
  147.2924  136.3931  152.0270 H   0  0  0  0  0  0  0  0  0  0  0  0
  144.3478  136.8929  151.9635 H   0  0  0  0  0  0  0  0  0  0  0  0
  145.2279  136.1603  150.6521 H   0  0  0  0  0  0  0  0  0  0  0  0
  144.6886  135.0397  153.4293 H   0  0  0  0  0  0  0  0  0  0  0  0
  143.6771  133.1766  152.3554 H   0  0  0  0  0  0  0  0  0  0  0  0
  143.0467  134.5827  151.5277 H   0  0  0  0  0  0  0  0  0  0  0  0
  143.1862  131.8303  150.3983 H   0  0  0  0  0  0  0  0  0  0  0  0
  142.7769  133.1035  149.2444 H   0  0  0  0  0  0  0  0  0  0  0  0
  144.2878  130.8426  148.5856 H   0  0  0  0  0  0  0  0  0  0  0  0
  144.4645  132.3735  147.7280 H   0  0  0  0  0  0  0  0  0  0  0  0
  146.5072  131.1588  149.3823 H   0  0  0  0  0  0  0  0  0  0  0  0
  146.5304  132.7721  148.6633 H   0  0  0  0  0  0  0  0  0  0  0  0
  145.4627  131.9203  151.3616 H   0  0  0  0  0  0  0  0  0  0  0  0
  147.6622  133.0283  151.4736 H   0  0  0  0  0  0  0  0  0  0  0  0
  147.0575  134.4103  150.5796 H   0  0  0  0  0  0  0  0  0  0  0  0
  148.4590  137.7016  152.9056 H   0  0  0  0  0  0  0  0  0  0  0  0
  146.6226  140.9405  153.1128 H   0  0  0  0  0  0  0  0  0  0  0  0
  147.6107  142.9237  154.2269 H   0  0  0  0  0  0  0  0  0  0  0  0
  149.8260  142.6860  155.3747 H   0  0  0  0  0  0  0  0  0  0  0  0
  152.3405  138.7290  154.0385 H   0  0  0  0  0  0  0  0  0  0  0  0
  151.6927  139.4542  155.5090 H   0  0  0  0  0  0  0  0  0  0  0  0
  152.4213  136.5665  154.9981 H   0  0  0  0  0  0  0  0  0  0  0  0
  152.7007  137.5090  156.4648 H   0  0  0  0  0  0  0  0  0  0  0  0
  150.6123  135.7847  156.4123 H   0  0  0  0  0  0  0  0  0  0  0  0
  150.3427  137.4121  157.0458 H   0  0  0  0  0  0  0  0  0  0  0  0
  148.6733  137.3031  155.3129 H   0  0  0  0  0  0  0  0  0  0  0  0
  149.7292  136.3967  154.2512 H   0  0  0  0  0  0  0  0  0  0  0  0
  1  2  2  0  0  0  0
  2  3  1  0  0  0  0
  2 14  1  0  0  0  0
  3  4  1  0  0  0  0
  3 26  1  0  0  0  0
  4  5  1  0  0  0  0
  4 27  1  0  0  0  0
  4 28  1  0  0  0  0
  5 13  1  0  0  0  0
  5  6  1  0  0  0  0
  5 29  1  0  0  0  0
  6  7  1  0  0  0  0
  6 30  1  0  0  0  0
  6 31  1  0  0  0  0
  7 11  1  0  0  0  0
  7  8  1  0  0  0  0
  8  9  1  0  0  0  0
  8 32  1  0  0  0  0
  8 33  1  0  0  0  0
  9 10  1  0  0  0  0
  9 34  1  0  0  0  0
  9 35  1  0  0  0  0
 10 11  1  0  0  0  0
 10 36  1  0  0  0  0
 10 37  1  0  0  0  0
 11 12  1  0  0  0  0
 11 38  1  0  0  0  0
 12 13  1  0  0  0  0
 12 39  1  0  0  0  0
 12 40  1  0  0  0  0
 14 15  1  0  0  0  0
 14 41  1  0  0  0  0
 15 20  1  0  0  0  0
 15 16  2  0  0  0  0
 16 17  1  0  0  0  0
 16 42  1  0  0  0  0
 17 18  2  0  0  0  0
 17 43  1  0  0  0  0
 18 19  1  0  0  0  0
 18 44  1  0  0  0  0
 19 20  2  0  0  0  0
 20 21  1  0  0  0  0
 21 25  1  0  0  0  0
 21 22  1  0  0  0  0
 22 23  1  0  0  0  0
 22 45  1  0  0  0  0
 22 46  1  0  0  0  0
 23 24  1  0  0  0  0
 23 47  1  0  0  0  0
 23 48  1  0  0  0  0
 24 25  1  0  0  0  0
 24 49  1  0  0  0  0
 24 50  1  0  0  0  0
 25 51  1  0  0  0  0
 25 52  1  0  0  0  0
M  END
> <s_m_source_file>
AV-unprocessed.smi

> <i_m_source_file_index>
1830

> <i_lp_mmshare_version>
43012

> <i_f3d_flags>
0

> <s_epik_input>
W0NIMl0xW0NIMl1bQ0gyXVtDQEhdKE4xMilbQ0gyXU9bQ0BASF0oW0NIMl0yKVtDSDJdW05IXUMoPU8pW05IXWMzW2NIXVtjSF1bY0hdbmMzTjRbQ0gyXVtDSDJdW0NIMl1bQ0gyXTQ=

> <s_epik_cmdline>
J2VwaWtfcHl0aG9uJywgJy1waCcsICc3LjAnLCAnLXRuJywgJzgnLCAnLW1hJywgJzIwMCcsICctbWV0YWxfYmluZGluZycsICctaW1hZScsICc8aW5maWxlLm1hZT4nLCAnLW9tYWUnLCAnPG91dGZpbGUubWFlPic=

> <r_lp_tautomer_probability>
1

> <r_epik_Ionization_Penalty>
1.16487

> <r_epik_Ionization_Penalty_Charging>
0

> <r_epik_Ionization_Penalty_Neutral>
1.16487

> <r_epik_State_Penalty>
1.21807

> <r_epik_Charging_Adjusted_Penalty>
1.21807

> <i_epik_Tot_Q>
0

> <i_epik_Tot_abs_Q>
0

> <r_epik_Metal_State_Penalty>
1.19922

> <b_epik_Metal_Only>
0

> <s_lp_Force_Field>
OPLS_2005

> <r_lp_Energy>
78.6276

> <b_lp_Chiralities_Consistent>
1

> <s_lp_Variant>
AV-unprocessed.smi:1830-10

> <Gold.Version>
5.8.1

> <Gold.Id.Protein>
6NUR|6NUR_protein|mol2

> <Gold.PLP.Fitness>
44.7685

> <Gold.PLP.PLP>
-34.9666

> <Gold.PLP.part.hbond>
-3.8327

> <Gold.PLP.part.metal>
0.0000

> <Gold.PLP.part.buried>
4.5985

> <Gold.PLP.part.nonpolar>
-39.5722

> <Gold.PLP.part.repulsive>
4.3499

> <Gold.PLP.ligand.clash>
0.0000

> <Gold.PLP.ligand.torsion>
0.3706

> <Gold.PLP.Chemscore.Hbond>
2.5594

> <Gold.PLP.Chemscore.CHOScore>
0.9083

> <Gold.PLP.Chemscore.Metal>
0.0000

> <Gold.Chemscore.Hbonds>
donor molecule, donor type, donor heavy atom, donor atom, acceptor molecule, acceptor atom, score
      L1  H     3    26       P1  7948  1.00
      L1  H    14    41       P1  7948  0.93
      P1  H  7989  7998       L1    19  0.44
      L1  C    18    44       P1  8028  0.91

> <Gold.PLP.Chemscore.Internal.Correction>
0.1398

> <Gold.Rescore>
     Score         DG    S(hbond)    S(metal)    S(lipo)     H(rot)  DE(clash)    DE(int)     intcor
     16.09     -22.10       1.90        0.00     117.82       1.37       3.51       2.50       ----

> <Gold.Chemscore.Fitness>
16.0929

> <Gold.Chemscore.DG>
-22.1042

> <Gold.Chemscore.ZeroCoef>
-5.4800

> <Gold.Chemscore.Hbond>
1.9037

> <Gold.Chemscore.Metal>
0.0000

> <Gold.Chemscore.Lipo>
117.8178

> <Gold.Chemscore.Internal_Hbond>
0.0000

> <Gold.Chemscore.DEClash>
3.5116

> <Gold.Chemscore.DEInternal>
2.4997

> <Gold.Chemscore.Rot>
1.3746

> <Gold.Chemscore.Internal.Correction>
   9.000000E+99

> <Gold.Chemscore.Hbonds>
donor molecule, donor type, donor heavy atom, donor atom, acceptor molecule, acceptor atom, score
      L1  H     3    26       P1  7948  0.98
      L1  H    14    41       P1  7948  0.90
      P1  H  7989  7998       L1    19  0.02

> <Gold.Chemscore.Hbond.Weighted>
-6.3584

> <Gold.Chemscore.Metal.Weighted>
-0.0000

> <Gold.Chemscore.Lipo.Weighted>
-13.7847

> <Gold.Chemscore.Internal_Hbond.Weighted>
0.0000

> <Gold.Chemscore.DEClash.Weighted>
3.5116

> <Gold.Chemscore.DEInternal.Weighted>
2.4997

> <Gold.Chemscore.Rot.Weighted>
3.5189

> <Gold.Chemscore.Internal.Correction.Weighted>
   9.000000E+99

> <Gold.Protein.RotatedTorsions>
[ 6907 6896 6895 6894 ] final  -74.73 input  -60.11 | X-H torsion
[ 7974 7965 7964 7962 ] final -112.61 input  175.53 | X-H torsion
[ 8008 7997 7996 7995 ] final   10.68 input   59.86 | X-H torsion
[ 10167 10162 10161 10158 ] final  148.49 input  -65.29 | X-H torsion
[ 10718 10713 10712 10709 ] final  132.43 input   66.30 | X-H torsion
[ 10763 10752 10751 10750 ] final -135.29 input  -60.55 | X-H torsion
[ 11005 11000 10999 10996 ] final -148.72 input  -57.11 | X-H torsion

> <Gold.Protein.ActiveResidues>
 VAL166  LYS551  ARG553  GLY616  TRP617  ASP618  TYR619  PRO620  LYS621  CYS622 
 ASP623  PHE694  ASN695  SER759  ASP760  ASP761  ALA762  ILE779  LEU786  VAL792 
 PHE793  MET794  SER795  GLU796  ALA797  LYS798  CYS799  TRP800  GLU811  SER814 

> <Gold.Protein.RotatedAtoms>
  150.7083  134.4826  159.5477 H   0  0  0  0  0  0  0  0  0  0  0  0  # atno 6907 bound_to 6896
  152.2460  134.8178  160.0462 H   0  0  0  0  0  0  0  0  0  0  0  0  # atno 6908 bound_to 6896
  151.8943  133.3488  159.3846 H   0  0  0  0  0  0  0  0  0  0  0  0  # atno 6909 bound_to 6896
  145.1420  140.8783  143.3697 H   0  0  0  0  0  0  0  0  0  0  0  0  # atno 7974 bound_to 7965
  154.7966  140.2845  155.5952 H   0  0  0  0  0  0  0  0  0  0  0  0  # atno 8008 bound_to 7997
  156.2972  140.2594  156.2754 H   0  0  0  0  0  0  0  0  0  0  0  0  # atno 8009 bound_to 7997
  154.9607  140.0377  157.2178 H   0  0  0  0  0  0  0  0  0  0  0  0  # atno 8010 bound_to 7997
  139.4874  144.5675  151.7117 H   0  0  0  0  0  0  0  0  0  0  0  0  # atno 10167 bound_to 10162
  157.4872  131.1089  150.9604 H   0  0  0  0  0  0  0  0  0  0  0  0  # atno 10718 bound_to 10713
  154.8705  135.3708  154.4874 H   0  0  0  0  0  0  0  0  0  0  0  0  # atno 10763 bound_to 10752
  153.5523  135.7024  153.5590 H   0  0  0  0  0  0  0  0  0  0  0  0  # atno 10764 bound_to 10752
  153.3704  135.4023  155.1748 H   0  0  0  0  0  0  0  0  0  0  0  0  # atno 10765 bound_to 10752
  140.7582  134.3328  157.5108 H   0  0  0  0  0  0  0  0  0  0  0  0  # atno 11005 bound_to 11000
  145.0522  139.3172  143.5922 LP  0  0  0  0  0  0  0  0  0  0  0  0  # atno 17320 bound_to 7965
  146.3504  139.9935  142.8683 LP  0  0  0  0  0  0  0  0  0  0  0  0  # atno 17321 bound_to 7965
  140.5256  144.0811  150.6036 LP  0  0  0  0  0  0  0  0  0  0  0  0  # atno 17342 bound_to 10162
  140.3783  143.2816  152.0199 LP  0  0  0  0  0  0  0  0  0  0  0  0  # atno 17343 bound_to 10162
  157.0318  130.5714  149.5344 LP  0  0  0  0  0  0  0  0  0  0  0  0  # atno 17370 bound_to 10713
  156.0153  130.5247  150.8116 LP  0  0  0  0  0  0  0  0  0  0  0  0  # atno 17371 bound_to 10713
  139.8775  134.9185  156.3205 LP  0  0  0  0  0  0  0  0  0  0  0  0  # atno 17394 bound_to 11000
  140.9687  133.7341  156.0504 LP  0  0  0  0  0  0  0  0  0  0  0  0  # atno 17395 bound_to 11000

$$$$
