AV-unprocessed.smi:2805|AV-procd|sdf|10813|dock2
  -GOLD-   2272015253D 1   1.00000     0.00000
 Structure written by MMmdl.
 43 44  0  0  0  0  0  0  0  0  1 V2000
  152.2168  145.8475  160.2836 C   0  0  0  0  0  0  0  0  0  0  0  0
  152.1821  144.4822  159.6299 C   0  0  0  0  0  0  0  0  0  0  0  0
  152.9918  143.4333  160.1059 C   0  0  0  0  0  0  0  0  0  0  0  0
  152.9139  142.1859  159.4560 C   0  0  0  0  0  0  0  0  0  0  0  0
  153.7548  141.0137  159.9166 C   0  0  0  0  0  0  0  0  0  0  0  0
  152.1002  141.9527  158.4042 N   0  0  0  0  0  0  0  0  0  0  0  0
  151.3145  142.9550  157.9381 C   0  0  0  0  0  0  0  0  0  0  0  0
  150.4255  142.8139  156.8396 N   0  0  0  0  0  0  0  0  0  0  0  0
  150.1994  141.7222  156.0877 C   0  0  0  0  0  0  0  0  0  0  0  0
  150.7432  140.6275  156.2382 O   0  0  0  0  0  0  0  0  0  0  0  0
  149.2895  141.9708  155.1344 N   0  0  0  0  0  0  0  0  0  0  0  0
  148.8137  141.0043  154.1490 C   0  0  1  0  0  0  0  0  0  0  0  0
  148.5948  139.6245  154.8003 C   0  0  0  0  0  0  0  0  0  0  0  0
  148.0178  138.6148  153.7956 C   0  0  0  0  0  0  0  0  0  0  0  0
  146.7039  139.1194  153.1668 C   0  0  2  0  0  0  0  0  0  0  0  0
  146.1420  138.0897  152.1689 C   0  0  0  0  0  0  0  0  0  0  0  0
  146.9424  138.0259  151.0072 O   0  0  0  0  0  0  0  0  0  0  0  0
  146.9318  140.4994  152.5137 C   0  0  0  0  0  0  0  0  0  0  0  0
  147.5078  141.5148  153.5140 C   0  0  0  0  0  0  0  0  0  0  0  0
  151.3324  144.2369  158.5325 C   0  0  0  0  0  0  0  0  0  0  0  0
  149.5599  140.9077  153.3576 H   0  0  0  0  0  0  0  0  0  0  0  0
  145.9772  139.2377  153.9725 H   0  0  0  0  0  0  0  0  0  0  0  0
  153.1040  145.9630  160.9067 H   0  0  0  0  0  0  0  0  0  0  0  0
  151.3360  145.9867  160.9107 H   0  0  0  0  0  0  0  0  0  0  0  0
  152.2294  146.6332  159.5276 H   0  0  0  0  0  0  0  0  0  0  0  0
  153.6540  143.5804  160.9468 H   0  0  0  0  0  0  0  0  0  0  0  0
  154.4969  141.3245  160.6525 H   0  0  0  0  0  0  0  0  0  0  0  0
  154.2813  140.5665  159.0727 H   0  0  0  0  0  0  0  0  0  0  0  0
  153.1217  140.2510  160.3705 H   0  0  0  0  0  0  0  0  0  0  0  0
  149.9018  143.6416  156.5966 H   0  0  0  0  0  0  0  0  0  0  0  0
  148.8955  142.8987  155.0844 H   0  0  0  0  0  0  0  0  0  0  0  0
  149.5352  139.2423  155.1995 H   0  0  0  0  0  0  0  0  0  0  0  0
  147.9155  139.7191  155.6488 H   0  0  0  0  0  0  0  0  0  0  0  0
  148.7525  138.4239  153.0122 H   0  0  0  0  0  0  0  0  0  0  0  0
  147.8488  137.6614  154.2972 H   0  0  0  0  0  0  0  0  0  0  0  0
  146.0823  137.1000  152.6225 H   0  0  0  0  0  0  0  0  0  0  0  0
  145.1313  138.3659  151.8669 H   0  0  0  0  0  0  0  0  0  0  0  0
  147.4606  137.2364  151.0421 H   0  0  0  0  0  0  0  0  0  0  0  0
  147.6120  140.3991  151.6668 H   0  0  0  0  0  0  0  0  0  0  0  0
  145.9953  140.8861  152.1113 H   0  0  0  0  0  0  0  0  0  0  0  0
  146.7686  141.7119  154.2920 H   0  0  0  0  0  0  0  0  0  0  0  0
  147.6853  142.4651  153.0088 H   0  0  0  0  0  0  0  0  0  0  0  0
  150.7005  145.0268  158.1524 H   0  0  0  0  0  0  0  0  0  0  0  0
  1  2  1  0  0  0  0
  1 23  1  0  0  0  0
  1 24  1  0  0  0  0
  1 25  1  0  0  0  0
  2 20  1  0  0  0  0
  2  3  2  0  0  0  0
  3  4  1  0  0  0  0
  3 26  1  0  0  0  0
  4  5  1  0  0  0  0
  4  6  2  0  0  0  0
  5 27  1  0  0  0  0
  5 28  1  0  0  0  0
  5 29  1  0  0  0  0
  6  7  1  0  0  0  0
  7  8  1  0  0  0  0
  7 20  2  0  0  0  0
  8  9  1  0  0  0  0
  8 30  1  0  0  0  0
  9 10  2  0  0  0  0
  9 11  1  0  0  0  0
 11 12  1  0  0  0  0
 11 31  1  0  0  0  0
 12 21  1  0  0  0  0
 12 19  1  0  0  0  0
 12 13  1  0  0  0  0
 13 14  1  0  0  0  0
 13 32  1  0  0  0  0
 13 33  1  0  0  0  0
 14 15  1  0  0  0  0
 14 34  1  0  0  0  0
 14 35  1  0  0  0  0
 15 22  1  0  0  0  0
 15 16  1  0  0  0  0
 15 18  1  0  0  0  0
 16 17  1  0  0  0  0
 16 36  1  0  0  0  0
 16 37  1  0  0  0  0
 17 38  1  0  0  0  0
 18 19  1  0  0  0  0
 18 39  1  0  0  0  0
 18 40  1  0  0  0  0
 19 41  1  0  0  0  0
 19 42  1  0  0  0  0
 20 43  1  0  0  0  0
M  END
> <s_m_source_file>
AV-unprocessed.smi

> <i_m_source_file_index>
2805

> <i_lp_mmshare_version>
43012

> <i_f3d_flags>
0

> <s_epik_input>
W0NIM11jMVtjSF1jKFtDSDNdKW5jKFtjSF0xKVtOSF1DKD1PKVtOSF1bQ0BIXTJbQ0gyXVtDSDJdW0NASF0oW0NIMl1bT0hdKVtDSDJdW0NIMl0y

> <s_epik_cmdline>
J2VwaWtfcHl0aG9uJywgJy1waCcsICc3LjAnLCAnLXRuJywgJzgnLCAnLW1hJywgJzIwMCcsICctbWV0YWxfYmluZGluZycsICctaW1hZScsICc8aW5maWxlLm1hZT4nLCAnLW9tYWUnLCAnPG91dGZpbGUubWFlPic=

> <r_lp_tautomer_probability>
1

> <r_epik_Ionization_Penalty>
0.000279533

> <r_epik_Ionization_Penalty_Charging>
0

> <r_epik_Ionization_Penalty_Neutral>
0.000279533

> <r_epik_State_Penalty>
-0

> <r_epik_Charging_Adjusted_Penalty>
0

> <i_epik_Tot_Q>
0

> <i_epik_Tot_abs_Q>
0

> <r_epik_Metal_State_Penalty>
-0

> <b_epik_Metal_Only>
0

> <s_lp_Force_Field>
OPLS_2005

> <r_lp_Energy>
12.7112

> <b_lp_Chiralities_Consistent>
1

> <s_lp_Variant>
AV-unprocessed.smi:2805-1

> <Gold.Version>
5.8.1

> <Gold.Id.Protein>
6NUR|6NUR_protein|mol2

> <Gold.PLP.Fitness>
54.6657

> <Gold.PLP.PLP>
-46.2262

> <Gold.PLP.part.hbond>
-4.3978

> <Gold.PLP.part.metal>
0.0000

> <Gold.PLP.part.buried>
-4.7921

> <Gold.PLP.part.nonpolar>
-37.8346

> <Gold.PLP.part.repulsive>
0.2504

> <Gold.PLP.ligand.clash>
0.0000

> <Gold.PLP.ligand.torsion>
0.2833

> <Gold.PLP.Chemscore.Hbond>
3.0000

> <Gold.PLP.Chemscore.CHOScore>
0.0000

> <Gold.PLP.Chemscore.Metal>
0.0000

> <Gold.Chemscore.Hbonds>
donor molecule, donor type, donor heavy atom, donor atom, acceptor molecule, acceptor atom, score
      L1  H     8    30       P1  8028  1.00
      L1  H    11    31       P1  8028  1.00
      L1  H    17    38       P1  7948  0.99

> <Gold.PLP.Chemscore.Internal.Correction>
0.0062

> <Gold.Rescore>
     Score         DG    S(hbond)    S(metal)    S(lipo)     H(rot)  DE(clash)    DE(int)     intcor
     21.03     -24.34       2.83        0.00     118.81       1.75       0.45       2.85       ----

> <Gold.Chemscore.Fitness>
21.0305

> <Gold.Chemscore.DG>
-24.3378

> <Gold.Chemscore.ZeroCoef>
-5.4800

> <Gold.Chemscore.Hbond>
2.8292

> <Gold.Chemscore.Metal>
0.0000

> <Gold.Chemscore.Lipo>
118.8102

> <Gold.Chemscore.Internal_Hbond>
0.0000

> <Gold.Chemscore.DEClash>
0.4546

> <Gold.Chemscore.DEInternal>
2.8527

> <Gold.Chemscore.Rot>
1.7548

> <Gold.Chemscore.Internal.Correction>
   9.000000E+99

> <Gold.Chemscore.Hbonds>
donor molecule, donor type, donor heavy atom, donor atom, acceptor molecule, acceptor atom, score
      L1  H     8    30       P1  8028  1.00
      L1  H    11    31       P1  8028  0.95
      L1  H    17    38       P1  7948  0.94

> <Gold.Chemscore.Hbond.Weighted>
-9.4494

> <Gold.Chemscore.Metal.Weighted>
-0.0000

> <Gold.Chemscore.Lipo.Weighted>
-13.9008

> <Gold.Chemscore.Internal_Hbond.Weighted>
0.0000

> <Gold.Chemscore.DEClash.Weighted>
0.4546

> <Gold.Chemscore.DEInternal.Weighted>
2.8527

> <Gold.Chemscore.Rot.Weighted>
4.4924

> <Gold.Chemscore.Internal.Correction.Weighted>
   9.000000E+99

> <Gold.Protein.RotatedTorsions>
[ 6907 6896 6895 6894 ] final   63.10 input  -60.11 | X-H torsion
[ 7974 7965 7964 7962 ] final  -14.52 input  175.53 | X-H torsion
[ 8008 7997 7996 7995 ] final  -59.16 input   59.86 | X-H torsion
[ 10167 10162 10161 10158 ] final  147.26 input  -65.29 | X-H torsion
[ 10718 10713 10712 10709 ] final   40.93 input   66.30 | X-H torsion
[ 10763 10752 10751 10750 ] final  113.73 input  -60.55 | X-H torsion
[ 11005 11000 10999 10996 ] final   21.80 input  -57.11 | X-H torsion

> <Gold.Protein.ActiveResidues>
 VAL166  LYS551  ARG553  GLY616  TRP617  ASP618  TYR619  PRO620  LYS621  CYS622 
 ASP623  PHE694  ASN695  SER759  ASP760  ASP761  ALA762  ILE779  LEU786  VAL792 
 PHE793  MET794  SER795  GLU796  ALA797  LYS798  CYS799  TRP800  GLU811  SER814 

> <Gold.Protein.RotatedAtoms>
  152.4226  134.5927  159.9978 H   0  0  0  0  0  0  0  0  0  0  0  0  # atno 6907 bound_to 6896
  151.6073  133.3345  159.3068 H   0  0  0  0  0  0  0  0  0  0  0  0  # atno 6908 bound_to 6896
  150.8114  134.7309  159.6757 H   0  0  0  0  0  0  0  0  0  0  0  0  # atno 6909 bound_to 6896
  146.2071  140.3360  142.8403 H   0  0  0  0  0  0  0  0  0  0  0  0  # atno 7974 bound_to 7965
  154.4340  140.1068  156.6071 H   0  0  0  0  0  0  0  0  0  0  0  0  # atno 8008 bound_to 7997
  155.5849  140.3491  155.4531 H   0  0  0  0  0  0  0  0  0  0  0  0  # atno 8009 bound_to 7997
  156.0290  140.1256  157.0267 H   0  0  0  0  0  0  0  0  0  0  0  0  # atno 8010 bound_to 7997
  139.4893  144.5769  151.6948 H   0  0  0  0  0  0  0  0  0  0  0  0  # atno 10167 bound_to 10162
  157.3878  130.7789  149.7245 H   0  0  0  0  0  0  0  0  0  0  0  0  # atno 10718 bound_to 10713
  153.4968  135.3647  155.2520 H   0  0  0  0  0  0  0  0  0  0  0  0  # atno 10763 bound_to 10752
  154.8749  135.3990  154.3525 H   0  0  0  0  0  0  0  0  0  0  0  0  # atno 10764 bound_to 10752
  153.4154  135.7079  153.6396 H   0  0  0  0  0  0  0  0  0  0  0  0  # atno 10765 bound_to 10752
  140.3876  134.1853  155.7663 H   0  0  0  0  0  0  0  0  0  0  0  0  # atno 11005 bound_to 11000
  144.8819  140.7411  143.5981 LP  0  0  0  0  0  0  0  0  0  0  0  0  # atno 17320 bound_to 7965
  145.3280  139.1768  143.4552 LP  0  0  0  0  0  0  0  0  0  0  0  0  # atno 17321 bound_to 7965
  140.5367  144.0645  150.6073 LP  0  0  0  0  0  0  0  0  0  0  0  0  # atno 17342 bound_to 10162
  140.3653  143.2885  152.0338 LP  0  0  0  0  0  0  0  0  0  0  0  0  # atno 17343 bound_to 10162
  155.9791  130.4044  150.3609 LP  0  0  0  0  0  0  0  0  0  0  0  0  # atno 17370 bound_to 10713
  157.1721  131.0371  151.2790 LP  0  0  0  0  0  0  0  0  0  0  0  0  # atno 17371 bound_to 10713
  141.1902  133.8222  157.0928 LP  0  0  0  0  0  0  0  0  0  0  0  0  # atno 17394 bound_to 11000
  140.0431  134.9844  157.0998 LP  0  0  0  0  0  0  0  0  0  0  0  0  # atno 17395 bound_to 11000

$$$$
