AV-unprocessed.smi:1|AV-procd|sdf|5|dock7
  -GOLD-   2262015 93D 1   1.00000     0.00000
 Structure written by MMmdl.
 57 62  0  0  0  0  0  0  0  0  1 V2000
  152.4040  139.9920  158.3838 O   0  0  0  0  0  0  0  0  0  0  0  0
  151.7953  140.9222  157.8538 C   0  0  0  0  0  0  0  0  0  0  0  0
  150.9766  140.7347  156.6689 N   0  0  0  0  0  0  0  0  0  0  0  0
  150.6870  139.5790  156.0261 C   0  0  0  0  0  0  0  0  0  0  0  0
  151.0810  139.3358  154.7485 N   0  0  0  0  0  0  0  0  0  0  0  0
  150.7697  138.1790  154.1572 C   0  0  0  0  0  0  0  0  0  0  0  0
  150.0832  137.1480  154.6534 N   0  0  0  0  0  0  0  0  0  0  0  0
  149.6862  137.3808  155.9374 C   0  0  0  0  0  0  0  0  0  0  0  0
  149.9477  138.5628  156.6859 C   0  0  0  0  0  0  0  0  0  0  0  0
  149.3939  138.4487  157.9538 N   0  0  0  0  0  0  0  0  0  0  0  0
  148.8402  137.2662  157.9513 C   0  0  0  0  0  0  0  0  0  0  0  0
  148.9630  136.5567  156.7767 N   0  0  0  0  0  0  0  0  0  0  0  0
  148.4412  135.1859  156.4891 C   0  0  2  0  0  0  0  0  0  0  0  0
  149.0804  134.2633  157.3212 O   0  0  0  0  0  0  0  0  0  0  0  0
  149.8154  133.3151  156.5510 C   0  0  1  0  0  0  0  0  0  0  0  0
  149.8517  131.9485  157.2445 C   0  0  0  0  0  0  0  0  0  0  0  0
  151.1189  131.3528  157.0218 O   0  0  0  0  0  0  0  0  0  0  0  0
  152.1857  131.7441  157.7444 C   0  0  0  0  0  0  0  0  0  0  0  0
  152.1139  132.5117  158.7063 O   0  0  0  0  0  0  0  0  0  0  0  0
  153.4637  131.1470  157.2603 C   0  0  0  0  0  0  0  0  0  0  0  0
  153.4287  130.1684  156.2394 C   0  0  0  0  0  0  0  0  0  0  0  0
  154.6198  129.5885  155.7606 C   0  0  0  0  0  0  0  0  0  0  0  0
  155.8602  129.9793  156.2974 C   0  0  0  0  0  0  0  0  0  0  0  0
  155.9085  130.9503  157.3144 C   0  0  0  0  0  0  0  0  0  0  0  0
  154.7186  131.5321  157.7942 C   0  0  0  0  0  0  0  0  0  0  0  0
  149.1223  133.3166  155.1901 C   0  0  1  0  0  0  0  0  0  0  0  0
  147.9529  132.5141  155.2015 O   0  0  0  0  0  0  0  0  0  0  0  0
  146.7425  133.3390  154.3982 S   0  0  0  0  0  0  0  0  0  0  0  0
  146.6147  132.7728  153.0470 O   0  0  0  0  0  0  0  0  0  0  0  0
  145.5981  133.4801  155.3114 O   0  0  0  0  0  0  0  0  0  0  0  0
  147.5017  134.8230  154.2729 O   0  0  0  0  0  0  0  0  0  0  0  0
  148.6974  134.7782  155.0312 C   0  0  1  0  0  0  0  0  0  0  0  0
  151.9253  142.3334  158.3485 C   0  0  0  0  0  0  0  0  0  0  0  0
  151.6440  143.4146  157.4831 C   0  0  0  0  0  0  0  0  0  0  0  0
  151.7795  144.7422  157.9332 C   0  0  0  0  0  0  0  0  0  0  0  0
  152.2041  145.0006  159.2501 C   0  0  0  0  0  0  0  0  0  0  0  0
  152.4977  143.9301  160.1156 C   0  0  0  0  0  0  0  0  0  0  0  0
  152.3632  142.6016  159.6666 C   0  0  0  0  0  0  0  0  0  0  0  0
  150.5565  141.5694  156.2863 H   0  0  0  0  0  0  0  0  0  0  0  0
  151.1206  138.0636  153.1423 H   0  0  0  0  0  0  0  0  0  0  0  0
  148.3204  136.8768  158.8146 H   0  0  0  0  0  0  0  0  0  0  0  0
  147.3825  135.2295  156.7482 H   0  0  0  0  0  0  0  0  0  0  0  0
  150.8328  133.6814  156.4160 H   0  0  0  0  0  0  0  0  0  0  0  0
  149.6549  132.0500  158.3126 H   0  0  0  0  0  0  0  0  0  0  0  0
  149.0789  131.3027  156.8251 H   0  0  0  0  0  0  0  0  0  0  0  0
  152.4880  129.8527  155.8113 H   0  0  0  0  0  0  0  0  0  0  0  0
  154.5806  128.8429  154.9803 H   0  0  0  0  0  0  0  0  0  0  0  0
  156.7733  129.5347  155.9300 H   0  0  0  0  0  0  0  0  0  0  0  0
  156.8600  131.2509  157.7281 H   0  0  0  0  0  0  0  0  0  0  0  0
  154.7916  132.2746  158.5754 H   0  0  0  0  0  0  0  0  0  0  0  0
  149.7784  132.9819  154.3858 H   0  0  0  0  0  0  0  0  0  0  0  0
  149.4909  135.3787  154.5852 H   0  0  0  0  0  0  0  0  0  0  0  0
  151.3182  143.2332  156.4689 H   0  0  0  0  0  0  0  0  0  0  0  0
  151.5585  145.5629  157.2666 H   0  0  0  0  0  0  0  0  0  0  0  0
  152.3084  146.0189  159.5945 H   0  0  0  0  0  0  0  0  0  0  0  0
  152.8295  144.1279  161.1244 H   0  0  0  0  0  0  0  0  0  0  0  0
  152.6035  141.7954  160.3444 H   0  0  0  0  0  0  0  0  0  0  0  0
  1  2  2  0  0  0  0
  2  3  1  0  0  0  0
  2 33  1  0  0  0  0
  3  4  1  0  0  0  0
  3 39  1  0  0  0  0
  4  9  1  0  0  0  0
  4  5  2  0  0  0  0
  5  6  1  0  0  0  0
  6  7  2  0  0  0  0
  6 40  1  0  0  0  0
  7  8  1  0  0  0  0
  8 12  1  0  0  0  0
  8  9  2  0  0  0  0
  9 10  1  0  0  0  0
 10 11  2  0  0  0  0
 11 12  1  0  0  0  0
 11 41  1  0  0  0  0
 12 13  1  0  0  0  0
 13 32  1  0  0  0  0
 13 14  1  0  0  0  0
 13 42  1  0  0  0  0
 14 15  1  0  0  0  0
 15 16  1  0  0  0  0
 15 26  1  0  0  0  0
 15 43  1  0  0  0  0
 16 17  1  0  0  0  0
 16 44  1  0  0  0  0
 16 45  1  0  0  0  0
 17 18  1  0  0  0  0
 18 19  2  0  0  0  0
 18 20  1  0  0  0  0
 20 25  1  0  0  0  0
 20 21  2  0  0  0  0
 21 22  1  0  0  0  0
 21 46  1  0  0  0  0
 22 23  2  0  0  0  0
 22 47  1  0  0  0  0
 23 24  1  0  0  0  0
 23 48  1  0  0  0  0
 24 25  2  0  0  0  0
 24 49  1  0  0  0  0
 25 50  1  0  0  0  0
 26 32  1  0  0  0  0
 26 27  1  0  0  0  0
 26 51  1  0  0  0  0
 27 28  1  0  0  0  0
 28 29  2  0  0  0  0
 28 30  2  0  0  0  0
 28 31  1  0  0  0  0
 31 32  1  0  0  0  0
 32 52  1  0  0  0  0
 33 38  1  0  0  0  0
 33 34  2  0  0  0  0
 34 35  1  0  0  0  0
 34 53  1  0  0  0  0
 35 36  2  0  0  0  0
 35 54  1  0  0  0  0
 36 37  1  0  0  0  0
 36 55  1  0  0  0  0
 37 38  2  0  0  0  0
 37 56  1  0  0  0  0
 38 57  1  0  0  0  0
M  END
> <s_m_source_file>
AV-unprocessed.smi

> <i_m_source_file_index>
1

> <i_lp_mmshare_version>
43012

> <i_f3d_flags>
0

> <s_epik_input>
W2NIXTFbY0hdW2NIXVtjSF1bY0hdYzFDKD1PKVtOSF1jKG5bY0hdbjIpYyhjMjMpbltjSF1uM1tDQEBIXShbQ0BIXShbQ0BIXTQ1KU9TKE81KSg9Tyk9TylPW0NASF00W0NIMl1PQyg9TyljNltjSF1bY0hdW2NIXVtjSF1bY0hdNg==

> <s_epik_cmdline>
J2VwaWtfcHl0aG9uJywgJy1waCcsICc3LjAnLCAnLXRuJywgJzgnLCAnLW1hJywgJzIwMCcsICctbWV0YWxfYmluZGluZycsICctaW1hZScsICc8aW5maWxlLm1hZT4nLCAnLW9tYWUnLCAnPG91dGZpbGUubWFlPic=

> <r_lp_tautomer_probability>
1

> <r_epik_Ionization_Penalty>
0.00195722

> <r_epik_Ionization_Penalty_Charging>
0

> <r_epik_Ionization_Penalty_Neutral>
0.00195722

> <r_epik_State_Penalty>
0.00633741

> <r_epik_Charging_Adjusted_Penalty>
0.00633741

> <i_epik_Tot_Q>
0

> <i_epik_Tot_abs_Q>
0

> <r_epik_Metal_State_Penalty>
0.341185

> <b_epik_Metal_Only>
0

> <s_epik_Chemistry_Notes>
This compound has an ester and may undergo hydrolysis at high or low pH. This compound contains an acetal/aminal-like group ( X-CH(R)-Y where X, Y are N, S, or O) that may be acid/base labile, releasing an aldehyde.

> <s_lp_Force_Field>
OPLS_2005

> <r_lp_Energy>
45.5474

> <b_lp_Chiralities_Consistent>
1

> <s_lp_Variant>
AV-unprocessed.smi:1-5

> <Gold.Version>
5.8.1

> <Gold.Id.Protein>
6NUR|6NUR_protein|mol2

> <Gold.PLP.Fitness>
59.7779

> <Gold.PLP.PLP>
-49.0379

> <Gold.PLP.part.hbond>
-3.9637

> <Gold.PLP.part.metal>
0.0000

> <Gold.PLP.part.buried>
-9.4973

> <Gold.PLP.part.nonpolar>
-36.1756

> <Gold.PLP.part.repulsive>
0.6224

> <Gold.PLP.ligand.clash>
0.0000

> <Gold.PLP.ligand.torsion>
1.5085

> <Gold.PLP.Chemscore.Hbond>
3.7862

> <Gold.PLP.Chemscore.CHOScore>
0.7414

> <Gold.PLP.Chemscore.Metal>
0.0000

> <Gold.Chemscore.Hbonds>
donor molecule, donor type, donor heavy atom, donor atom, acceptor molecule, acceptor atom, score
      P1  H  6896  6909       L1    19  0.19
      P1  H  7989  7998       L1     5  0.96
      L1  C     6    40       P1  7949  0.71

> <Gold.PLP.Chemscore.Internal.Correction>
0.1742

> <Gold.Rescore>
     Score         DG    S(hbond)    S(metal)    S(lipo)     H(rot)  DE(clash)    DE(int)     intcor
     22.43     -25.95       3.43        0.00     123.78       2.13       0.38       3.14       ----

> <Gold.Chemscore.Fitness>
22.4304

> <Gold.Chemscore.DG>
-25.9473

> <Gold.Chemscore.ZeroCoef>
-5.4800

> <Gold.Chemscore.Hbond>
3.4272

> <Gold.Chemscore.Metal>
0.0000

> <Gold.Chemscore.Lipo>
123.7760

> <Gold.Chemscore.Internal_Hbond>
0.0000

> <Gold.Chemscore.DEClash>
0.3799

> <Gold.Chemscore.DEInternal>
3.1371

> <Gold.Chemscore.Rot>
2.1333

> <Gold.Chemscore.Internal.Correction>
   9.000000E+99

> <Gold.Chemscore.Hbonds>
donor molecule, donor type, donor heavy atom, donor atom, acceptor molecule, acceptor atom, score
      P1  H  6896  6909       L1    19  0.18
      P1  H  7989  7998       L1     5  0.82

> <Gold.Chemscore.Hbond.Weighted>
-11.4469

> <Gold.Chemscore.Metal.Weighted>
-0.0000

> <Gold.Chemscore.Lipo.Weighted>
-14.4818

> <Gold.Chemscore.Internal_Hbond.Weighted>
0.0000

> <Gold.Chemscore.DEClash.Weighted>
0.3799

> <Gold.Chemscore.DEInternal.Weighted>
3.1371

> <Gold.Chemscore.Rot.Weighted>
5.4614

> <Gold.Chemscore.Internal.Correction.Weighted>
   9.000000E+99

> <Gold.Protein.RotatedTorsions>
[ 6907 6896 6895 6894 ] final -102.59 input  -60.11 | X-H torsion
[ 7974 7965 7964 7962 ] final  -34.67 input  175.53 | X-H torsion
[ 8008 7997 7996 7995 ] final   42.97 input   59.86 | X-H torsion
[ 10167 10162 10161 10158 ] final -130.23 input  -65.29 | X-H torsion
[ 10718 10713 10712 10709 ] final   85.59 input   66.30 | X-H torsion
[ 10763 10752 10751 10750 ] final  -24.41 input  -60.55 | X-H torsion
[ 11005 11000 10999 10996 ] final   28.38 input  -57.11 | X-H torsion

> <Gold.Protein.ActiveResidues>
 VAL166  LYS551  ARG553  GLY616  TRP617  ASP618  TYR619  PRO620  LYS621  CYS622 
 ASP623  PHE694  ASN695  SER759  ASP760  ASP761  ALA762  ILE779  LEU786  VAL792 
 PHE793  MET794  SER795  GLU796  ALA797  LYS798  CYS799  TRP800  GLU811  SER814 

> <Gold.Protein.RotatedAtoms>
  150.7203  134.0557  159.3813 H   0  0  0  0  0  0  0  0  0  0  0  0  # atno 6907 bound_to 6896
  151.8536  135.0547  160.0471 H   0  0  0  0  0  0  0  0  0  0  0  0  # atno 6908 bound_to 6896
  152.2771  133.5400  159.5511 H   0  0  0  0  0  0  0  0  0  0  0  0  # atno 6909 bound_to 6896
  146.0810  140.6067  142.8908 H   0  0  0  0  0  0  0  0  0  0  0  0  # atno 7974 bound_to 7965
  155.2949  140.3381  155.4250 H   0  0  0  0  0  0  0  0  0  0  0  0  # atno 8008 bound_to 7997
  156.2028  140.1739  156.7902 H   0  0  0  0  0  0  0  0  0  0  0  0  # atno 8009 bound_to 7997
  154.5582  140.0692  156.8761 H   0  0  0  0  0  0  0  0  0  0  0  0  # atno 8010 bound_to 7997
  139.9315  143.6266  152.2528 H   0  0  0  0  0  0  0  0  0  0  0  0  # atno 10167 bound_to 10162
  157.6917  131.0181  150.2845 H   0  0  0  0  0  0  0  0  0  0  0  0  # atno 10718 bound_to 10713
  153.6834  135.6965  153.5111 H   0  0  0  0  0  0  0  0  0  0  0  0  # atno 10763 bound_to 10752
  153.2468  135.4288  155.0755 H   0  0  0  0  0  0  0  0  0  0  0  0  # atno 10764 bound_to 10752
  154.8394  135.3521  154.6376 H   0  0  0  0  0  0  0  0  0  0  0  0  # atno 10765 bound_to 10752
  140.3162  134.2594  155.7725 H   0  0  0  0  0  0  0  0  0  0  0  0  # atno 11005 bound_to 11000
  144.7293  140.4623  143.6949 LP  0  0  0  0  0  0  0  0  0  0  0  0  # atno 17320 bound_to 7965
  145.6217  139.1525  143.3018 LP  0  0  0  0  0  0  0  0  0  0  0  0  # atno 17321 bound_to 7965
  139.6778  144.7657  151.1664 LP  0  0  0  0  0  0  0  0  0  0  0  0  # atno 17342 bound_to 10162
  140.7636  143.5769  150.8936 LP  0  0  0  0  0  0  0  0  0  0  0  0  # atno 17343 bound_to 10162
  156.3386  130.3812  149.7428 LP  0  0  0  0  0  0  0  0  0  0  0  0  # atno 17370 bound_to 10713
  156.4944  130.8100  151.3108 LP  0  0  0  0  0  0  0  0  0  0  0  0  # atno 17371 bound_to 10713
  141.2097  133.7741  156.9980 LP  0  0  0  0  0  0  0  0  0  0  0  0  # atno 17394 bound_to 11000
  140.0981  134.9552  157.1881 LP  0  0  0  0  0  0  0  0  0  0  0  0  # atno 17395 bound_to 11000

$$$$
