AV-unprocessed.smi:789|AV-procd|sdf|3739|dock9
  -GOLD-   22720 1173D 1   1.00000     0.00000
 Structure written by MMmdl.
 34 35  0  0  0  0  0  0  0  0  1 V2000
  147.0811  138.7196  152.5298 C   0  0  0  0  0  0  0  0  0  0  0  0
  147.3854  139.9727  153.2961 C   0  0  0  0  0  0  0  0  0  0  0  0
  148.5306  140.2564  154.0955 C   0  0  0  0  0  0  0  0  0  0  0  0
  148.2768  141.5228  154.5462 C   0  0  0  0  0  0  0  0  0  0  0  0
  149.0350  142.3076  155.3560 N   0  0  0  0  0  0  0  0  0  0  0  0
  150.2130  142.0302  155.9488 C   0  0  0  0  0  0  0  0  0  0  0  0
  150.8289  140.9728  155.8298 O   0  0  0  0  0  0  0  0  0  0  0  0
  150.6841  143.0267  156.7207 N   0  0  0  0  0  0  0  0  0  0  0  0
  151.9244  143.0577  157.5009 C   0  0  0  0  0  0  0  0  0  0  0  0
  151.8122  142.1450  158.7373 C   0  0  0  0  0  0  0  0  0  0  0  0
  152.3275  142.9665  159.9198 C   0  0  0  0  0  0  0  0  0  0  0  0
  151.9932  144.4077  159.5504 C   0  0  0  0  0  0  0  0  0  0  0  0
  152.2277  144.4713  158.0411 C   0  0  0  0  0  0  0  0  0  0  0  0
  147.0659  141.9422  154.0387 N   0  0  0  0  0  0  0  0  0  0  0  0
  146.3594  143.1962  154.2189 C   0  0  0  0  0  0  0  0  0  0  0  0
  146.5195  140.9795  153.2655 N   0  0  0  0  0  0  0  0  0  0  0  0
  147.8444  137.9597  152.6982 H   0  0  0  0  0  0  0  0  0  0  0  0
  147.0387  138.9155  151.4582 H   0  0  0  0  0  0  0  0  0  0  0  0
  146.1220  138.2976  152.8313 H   0  0  0  0  0  0  0  0  0  0  0  0
  149.3823  139.6229  154.2912 H   0  0  0  0  0  0  0  0  0  0  0  0
  148.6485  143.2188  155.5542 H   0  0  0  0  0  0  0  0  0  0  0  0
  150.1059  143.8520  156.7877 H   0  0  0  0  0  0  0  0  0  0  0  0
  152.7577  142.7153  156.8843 H   0  0  0  0  0  0  0  0  0  0  0  0
  150.7715  141.8741  158.9230 H   0  0  0  0  0  0  0  0  0  0  0  0
  152.3685  141.2152  158.6145 H   0  0  0  0  0  0  0  0  0  0  0  0
  151.8843  142.6614  160.8682 H   0  0  0  0  0  0  0  0  0  0  0  0
  153.4089  142.8515  160.0047 H   0  0  0  0  0  0  0  0  0  0  0  0
  150.9432  144.6082  159.7682 H   0  0  0  0  0  0  0  0  0  0  0  0
  152.5930  145.1336  160.1002 H   0  0  0  0  0  0  0  0  0  0  0  0
  153.2746  144.7102  157.8494 H   0  0  0  0  0  0  0  0  0  0  0  0
  151.6319  145.2555  157.5722 H   0  0  0  0  0  0  0  0  0  0  0  0
  146.8723  143.8277  154.9444 H   0  0  0  0  0  0  0  0  0  0  0  0
  145.3486  143.0010  154.5781 H   0  0  0  0  0  0  0  0  0  0  0  0
  146.3037  143.7251  153.2673 H   0  0  0  0  0  0  0  0  0  0  0  0
  1  2  1  0  0  0  0
  1 17  1  0  0  0  0
  1 18  1  0  0  0  0
  1 19  1  0  0  0  0
  2 16  2  0  0  0  0
  2  3  1  0  0  0  0
  3  4  2  0  0  0  0
  3 20  1  0  0  0  0
  4  5  1  0  0  0  0
  4 14  1  0  0  0  0
  5  6  1  0  0  0  0
  5 21  1  0  0  0  0
  6  7  2  0  0  0  0
  6  8  1  0  0  0  0
  8  9  1  0  0  0  0
  8 22  1  0  0  0  0
  9 13  1  0  0  0  0
  9 10  1  0  0  0  0
  9 23  1  0  0  0  0
 10 11  1  0  0  0  0
 10 24  1  0  0  0  0
 10 25  1  0  0  0  0
 11 12  1  0  0  0  0
 11 26  1  0  0  0  0
 11 27  1  0  0  0  0
 12 13  1  0  0  0  0
 12 28  1  0  0  0  0
 12 29  1  0  0  0  0
 13 30  1  0  0  0  0
 13 31  1  0  0  0  0
 14 15  1  0  0  0  0
 14 16  1  0  0  0  0
 15 32  1  0  0  0  0
 15 33  1  0  0  0  0
 15 34  1  0  0  0  0
M  END
> <s_m_source_file>
AV-unprocessed.smi

> <i_m_source_file_index>
789

> <i_lp_mmshare_version>
43012

> <i_f3d_flags>
0

> <s_epik_input>
W0NIM11jMVtjSF1jKG4objEpW0NIM10pW05IXUMoPU8pW05IXVtDSF0yW0NIMl1bQ0gyXVtDSDJdW0NIMl0y

> <s_epik_cmdline>
J2VwaWtfcHl0aG9uJywgJy1waCcsICc3LjAnLCAnLXRuJywgJzgnLCAnLW1hJywgJzIwMCcsICctbWV0YWxfYmluZGluZycsICctaW1hZScsICc8aW5maWxlLm1hZT4nLCAnLW9tYWUnLCAnPG91dGZpbGUubWFlPic=

> <r_lp_tautomer_probability>
1

> <r_epik_Ionization_Penalty>
0.000101808

> <r_epik_Ionization_Penalty_Charging>
0

> <r_epik_Ionization_Penalty_Neutral>
0.000101808

> <r_epik_State_Penalty>
-0

> <r_epik_Charging_Adjusted_Penalty>
0

> <i_epik_Tot_Q>
0

> <i_epik_Tot_abs_Q>
0

> <r_epik_Metal_State_Penalty>
-0

> <b_epik_Metal_Only>
0

> <s_lp_Force_Field>
OPLS_2005

> <r_lp_Energy>
29.7198

> <b_lp_Chiralities_Consistent>
1

> <s_lp_Variant>
AV-unprocessed.smi:789-1

> <Gold.Version>
5.8.1

> <Gold.Id.Protein>
6NUR|6NUR_protein|mol2

> <Gold.PLP.Fitness>
40.3098

> <Gold.PLP.PLP>
-35.4603

> <Gold.PLP.part.hbond>
-1.8900

> <Gold.PLP.part.metal>
0.0000

> <Gold.PLP.part.buried>
-1.6145

> <Gold.PLP.part.nonpolar>
-32.8226

> <Gold.PLP.part.repulsive>
1.5346

> <Gold.PLP.ligand.clash>
0.0000

> <Gold.PLP.ligand.torsion>
0.1204

> <Gold.PLP.Chemscore.Hbond>
1.6960

> <Gold.PLP.Chemscore.CHOScore>
0.0000

> <Gold.PLP.Chemscore.Metal>
0.0000

> <Gold.Chemscore.Hbonds>
donor molecule, donor type, donor heavy atom, donor atom, acceptor molecule, acceptor atom, score
      L1  H     5    21       P1  8028  0.94
      L1  H     8    22       P1  8028  0.72

> <Gold.PLP.Chemscore.Internal.Correction>
0.0022

> <Gold.Rescore>
     Score         DG    S(hbond)    S(metal)    S(lipo)     H(rot)  DE(clash)    DE(int)     intcor
     15.37     -19.90       1.90        0.00      90.81       1.00       3.24       1.29       ----

> <Gold.Chemscore.Fitness>
15.3683

> <Gold.Chemscore.DG>
-19.8966

> <Gold.Chemscore.ZeroCoef>
-5.4800

> <Gold.Chemscore.Hbond>
1.9018

> <Gold.Chemscore.Metal>
0.0000

> <Gold.Chemscore.Lipo>
90.8080

> <Gold.Chemscore.Internal_Hbond>
0.0000

> <Gold.Chemscore.DEClash>
3.2419

> <Gold.Chemscore.DEInternal>
1.2865

> <Gold.Chemscore.Rot>
1.0000

> <Gold.Chemscore.Internal.Correction>
   9.000000E+99

> <Gold.Chemscore.Hbonds>
donor molecule, donor type, donor heavy atom, donor atom, acceptor molecule, acceptor atom, score
      L1  H     5    21       P1  8028  0.84
      L1  H     8    22       P1  8028  0.72
      P1  H  7989  7998       L1     7  0.02

> <Gold.Chemscore.Hbond.Weighted>
-6.3521

> <Gold.Chemscore.Metal.Weighted>
-0.0000

> <Gold.Chemscore.Lipo.Weighted>
-10.6245

> <Gold.Chemscore.Internal_Hbond.Weighted>
0.0000

> <Gold.Chemscore.DEClash.Weighted>
3.2419

> <Gold.Chemscore.DEInternal.Weighted>
1.2865

> <Gold.Chemscore.Rot.Weighted>
2.5600

> <Gold.Chemscore.Internal.Correction.Weighted>
   9.000000E+99

> <Gold.Protein.RotatedTorsions>
[ 6907 6896 6895 6894 ] final  -83.91 input  -60.11 | X-H torsion
[ 7974 7965 7964 7962 ] final    5.05 input  175.53 | X-H torsion
[ 8008 7997 7996 7995 ] final  -21.14 input   59.86 | X-H torsion
[ 10167 10162 10161 10158 ] final  155.02 input  -65.29 | X-H torsion
[ 10718 10713 10712 10709 ] final  144.47 input   66.30 | X-H torsion
[ 10763 10752 10751 10750 ] final -120.70 input  -60.55 | X-H torsion
[ 11005 11000 10999 10996 ] final   -2.90 input  -57.11 | X-H torsion

> <Gold.Protein.ActiveResidues>
 VAL166  LYS551  ARG553  GLY616  TRP617  ASP618  TYR619  PRO620  LYS621  CYS622 
 ASP623  PHE694  ASN695  SER759  ASP760  ASP761  ALA762  ILE779  LEU786  VAL792 
 PHE793  MET794  SER795  GLU796  ALA797  LYS798  CYS799  TRP800  GLU811  SER814 

> <Gold.Protein.RotatedAtoms>
  150.6881  134.3440  159.4879 H   0  0  0  0  0  0  0  0  0  0  0  0  # atno 6907 bound_to 6896
  152.1290  134.9147  160.0569 H   0  0  0  0  0  0  0  0  0  0  0  0  # atno 6908 bound_to 6896
  152.0324  133.3908  159.4339 H   0  0  0  0  0  0  0  0  0  0  0  0  # atno 6909 bound_to 6896
  146.2442  140.0442  142.8380 H   0  0  0  0  0  0  0  0  0  0  0  0  # atno 7974 bound_to 7965
  154.4725  140.2043  155.9960 H   0  0  0  0  0  0  0  0  0  0  0  0  # atno 8008 bound_to 7997
  156.1034  140.3240  155.7943 H   0  0  0  0  0  0  0  0  0  0  0  0  # atno 8009 bound_to 7997
  155.4759  140.0535  157.2964 H   0  0  0  0  0  0  0  0  0  0  0  0  # atno 8010 bound_to 7997
  139.4822  144.5135  151.7988 H   0  0  0  0  0  0  0  0  0  0  0  0  # atno 10167 bound_to 10162
  157.3568  131.0959  151.0951 H   0  0  0  0  0  0  0  0  0  0  0  0  # atno 10718 bound_to 10713
  154.8650  135.4194  154.2502 H   0  0  0  0  0  0  0  0  0  0  0  0  # atno 10763 bound_to 10752
  153.3450  135.6995  153.6841 H   0  0  0  0  0  0  0  0  0  0  0  0  # atno 10764 bound_to 10752
  153.5804  135.3574  155.2845 H   0  0  0  0  0  0  0  0  0  0  0  0  # atno 10765 bound_to 10752
  140.6634  133.9300  155.8450 H   0  0  0  0  0  0  0  0  0  0  0  0  # atno 11005 bound_to 11000
  145.1042  140.9365  143.4695 LP  0  0  0  0  0  0  0  0  0  0  0  0  # atno 17320 bound_to 7965
  145.0642  139.3082  143.5865 LP  0  0  0  0  0  0  0  0  0  0  0  0  # atno 17321 bound_to 7965
  140.4641  144.1680  150.5909 LP  0  0  0  0  0  0  0  0  0  0  0  0  # atno 17342 bound_to 10162
  140.4453  143.2509  151.9419 LP  0  0  0  0  0  0  0  0  0  0  0  0  # atno 17343 bound_to 10162
  157.2106  130.6436  149.5772 LP  0  0  0  0  0  0  0  0  0  0  0  0  # atno 17370 bound_to 10713
  155.9730  130.4661  150.6278 LP  0  0  0  0  0  0  0  0  0  0  0  0  # atno 17371 bound_to 10713
  141.0447  134.0570  157.3858 LP  0  0  0  0  0  0  0  0  0  0  0  0  # atno 17394 bound_to 11000
  139.9005  135.0162  156.7246 LP  0  0  0  0  0  0  0  0  0  0  0  0  # atno 17395 bound_to 11000

$$$$
