AV-unprocessed.smi:3030|AV-procd|sdf|11534|dock1
  -GOLD-   2272016483D 1   1.00000     0.00000
 Structure written by MMmdl.
 52 53  0  0  0  0  0  0  0  0  1 V2000
  143.7160  132.8436  148.0509 C   0  0  0  0  0  0  0  0  0  0  0  0
  144.7904  132.5344  149.0994 C   0  0  0  0  0  0  0  0  0  0  0  0
  144.5985  133.3128  150.3148 N   0  0  0  0  0  0  0  0  0  0  0  0
  143.4631  133.1529  151.1023 C   0  0  0  0  0  0  0  0  0  0  0  0
  143.1991  133.8825  152.2034 C   0  0  0  0  0  0  0  0  0  0  0  0
  144.1526  134.9288  152.6243 C   0  0  0  0  0  0  0  0  0  0  0  0
  143.9410  135.6166  153.6230 O   0  0  0  0  0  0  0  0  0  0  0  0
  145.3655  135.1010  151.7820 C   0  0  0  0  0  0  0  0  0  0  0  0
  146.2606  136.1081  152.1773 N   0  0  0  0  0  0  0  0  0  0  0  0
  145.9967  137.3334  152.6660 C   0  0  0  0  0  0  0  0  0  0  0  0
  144.8780  137.8251  152.8130 O   0  0  0  0  0  0  0  0  0  0  0  0
  147.1314  137.9817  152.9657 N   0  0  0  0  0  0  0  0  0  0  0  0
  147.2187  139.3399  153.4938 C   0  0  1  0  0  0  0  0  0  0  0  0
  146.3439  139.5026  154.7511 C   0  0  0  0  0  0  0  0  0  0  0  0
  146.2683  140.9814  155.1828 C   0  0  1  0  0  0  0  0  0  0  0  0
  145.4410  141.1521  156.4646 C   0  0  0  0  0  0  0  0  0  0  0  0
  147.6777  141.5900  155.3334 C   0  0  0  0  0  0  0  0  0  0  0  0
  148.5409  141.3546  154.0783 C   0  0  0  0  0  0  0  0  0  0  0  0
  148.6725  139.8491  153.7348 C   0  0  1  0  0  0  0  0  0  0  0  0
  149.5349  139.0523  154.7770 C   0  0  0  0  0  0  0  0  0  0  0  0
  150.7693  139.8468  155.2504 C   0  0  0  0  0  0  0  0  0  0  0  0
  150.0195  137.6779  154.2744 C   0  0  0  0  0  0  0  0  0  0  0  0
  145.5053  134.3006  150.6944 C   0  0  0  0  0  0  0  0  0  0  0  0
  143.8756  132.2543  147.1478 H   0  0  0  0  0  0  0  0  0  0  0  0
  143.7324  133.8965  147.7682 H   0  0  0  0  0  0  0  0  0  0  0  0
  142.7193  132.6125  148.4282 H   0  0  0  0  0  0  0  0  0  0  0  0
  144.7765  131.4708  149.3410 H   0  0  0  0  0  0  0  0  0  0  0  0
  145.7793  132.7407  148.6880 H   0  0  0  0  0  0  0  0  0  0  0  0
  142.7917  132.3770  150.7634 H   0  0  0  0  0  0  0  0  0  0  0  0
  142.3050  133.7200  152.7869 H   0  0  0  0  0  0  0  0  0  0  0  0
  147.2351  135.8735  152.0558 H   0  0  0  0  0  0  0  0  0  0  0  0
  148.0055  137.5026  152.8075 H   0  0  0  0  0  0  0  0  0  0  0  0
  146.7700  139.9795  152.7305 H   0  0  0  0  0  0  0  0  0  0  0  0
  145.3364  139.1376  154.5461 H   0  0  0  0  0  0  0  0  0  0  0  0
  146.7286  138.8873  155.5647 H   0  0  0  0  0  0  0  0  0  0  0  0
  145.7572  141.5303  154.3904 H   0  0  0  0  0  0  0  0  0  0  0  0
  145.8940  140.6211  157.3023 H   0  0  0  0  0  0  0  0  0  0  0  0
  144.4297  140.7662  156.3338 H   0  0  0  0  0  0  0  0  0  0  0  0
  145.3589  142.2034  156.7416 H   0  0  0  0  0  0  0  0  0  0  0  0
  147.5962  142.6611  155.5204 H   0  0  0  0  0  0  0  0  0  0  0  0
  148.1746  141.1693  156.2079 H   0  0  0  0  0  0  0  0  0  0  0  0
  148.0791  141.8724  153.2363 H   0  0  0  0  0  0  0  0  0  0  0  0
  149.5131  141.8317  154.1899 H   0  0  0  0  0  0  0  0  0  0  0  0
  149.2023  139.7937  152.7826 H   0  0  0  0  0  0  0  0  0  0  0  0
  148.9325  138.8650  155.6650 H   0  0  0  0  0  0  0  0  0  0  0  0
  151.3801  140.1710  154.4073 H   0  0  0  0  0  0  0  0  0  0  0  0
  151.4022  139.2446  155.9029 H   0  0  0  0  0  0  0  0  0  0  0  0
  150.4935  140.7267  155.8302 H   0  0  0  0  0  0  0  0  0  0  0  0
  150.4886  137.7540  153.2929 H   0  0  0  0  0  0  0  0  0  0  0  0
  149.2074  136.9559  154.2145 H   0  0  0  0  0  0  0  0  0  0  0  0
  150.7515  137.2415  154.9544 H   0  0  0  0  0  0  0  0  0  0  0  0
  146.3417  134.3723  150.0174 H   0  0  0  0  0  0  0  0  0  0  0  0
  1  2  1  0  0  0  0
  1 24  1  0  0  0  0
  1 25  1  0  0  0  0
  1 26  1  0  0  0  0
  2  3  1  0  0  0  0
  2 27  1  0  0  0  0
  2 28  1  0  0  0  0
  3 23  1  0  0  0  0
  3  4  1  0  0  0  0
  4  5  2  0  0  0  0
  4 29  1  0  0  0  0
  5  6  1  0  0  0  0
  5 30  1  0  0  0  0
  6  7  2  0  0  0  0
  6  8  1  0  0  0  0
  8  9  1  0  0  0  0
  8 23  2  0  0  0  0
  9 10  1  0  0  0  0
  9 31  1  0  0  0  0
 10 11  2  0  0  0  0
 10 12  1  0  0  0  0
 12 13  1  0  0  0  0
 12 32  1  0  0  0  0
 13 19  1  0  0  0  0
 13 14  1  0  0  0  0
 13 33  1  0  0  0  0
 14 15  1  0  0  0  0
 14 34  1  0  0  0  0
 14 35  1  0  0  0  0
 15 16  1  0  0  0  0
 15 17  1  0  0  0  0
 15 36  1  0  0  0  0
 16 37  1  0  0  0  0
 16 38  1  0  0  0  0
 16 39  1  0  0  0  0
 17 18  1  0  0  0  0
 17 40  1  0  0  0  0
 17 41  1  0  0  0  0
 18 19  1  0  0  0  0
 18 42  1  0  0  0  0
 18 43  1  0  0  0  0
 19 20  1  0  0  0  0
 19 44  1  0  0  0  0
 20 21  1  0  0  0  0
 20 22  1  0  0  0  0
 20 45  1  0  0  0  0
 21 46  1  0  0  0  0
 21 47  1  0  0  0  0
 21 48  1  0  0  0  0
 22 49  1  0  0  0  0
 22 50  1  0  0  0  0
 22 51  1  0  0  0  0
 23 52  1  0  0  0  0
M  END
> <s_m_source_file>
AV-unprocessed.smi

> <i_m_source_file_index>
3030

> <i_lp_mmshare_version>
43012

> <i_f3d_flags>
0

> <s_epik_input>
W0NIM11bQ0gyXW4xW2NIXVtjSF1jKD1PKWMoW2NIXTEpW05IXUMoPU8pW05IXVtDQEBIXTJbQ0gyXVtDQEBIXShbQ0gzXSlbQ0gyXVtDSDJdW0NASF0yW0NIXShbQ0gzXSlbQ0gzXQ==

> <s_epik_cmdline>
J2VwaWtfcHl0aG9uJywgJy1waCcsICc3LjAnLCAnLXRuJywgJzgnLCAnLW1hJywgJzIwMCcsICctbWV0YWxfYmluZGluZycsICctaW1hZScsICc8aW5maWxlLm1hZT4nLCAnLW9tYWUnLCAnPG91dGZpbGUubWFlPic=

> <r_lp_tautomer_probability>
1

> <r_epik_Ionization_Penalty>
0.00147933

> <r_epik_Ionization_Penalty_Charging>
0.00145753

> <r_epik_Ionization_Penalty_Neutral>
2.17987e-05

> <r_epik_State_Penalty>
0.00097457

> <r_epik_Charging_Adjusted_Penalty>
0.0024321

> <i_epik_Tot_Q>
0

> <i_epik_Tot_abs_Q>
0

> <r_epik_Metal_State_Penalty>
-0

> <b_epik_Metal_Only>
0

> <s_lp_Force_Field>
OPLS_2005

> <r_lp_Energy>
13.818

> <b_lp_Chiralities_Consistent>
1

> <s_lp_Variant>
AV-unprocessed.smi:3030-2

> <Gold.Version>
5.8.1

> <Gold.Id.Protein>
6NUR|6NUR_protein|mol2

> <Gold.PLP.Fitness>
42.9556

> <Gold.PLP.PLP>
-36.5545

> <Gold.PLP.part.hbond>
-2.0000

> <Gold.PLP.part.metal>
0.0000

> <Gold.PLP.part.buried>
2.5249

> <Gold.PLP.part.nonpolar>
-37.1984

> <Gold.PLP.part.repulsive>
1.5447

> <Gold.PLP.ligand.clash>
0.0000

> <Gold.PLP.ligand.torsion>
0.6343

> <Gold.PLP.Chemscore.Hbond>
1.9280

> <Gold.PLP.Chemscore.CHOScore>
0.6066

> <Gold.PLP.Chemscore.Metal>
0.0000

> <Gold.Chemscore.Hbonds>
donor molecule, donor type, donor heavy atom, donor atom, acceptor molecule, acceptor atom, score
      L1  H     9    31       P1  7948  1.00
      L1  H    12    32       P1  7948  0.98
      L1  C    23    52       P1  7921  0.76

> <Gold.PLP.Chemscore.Internal.Correction>
0.0661

> <Gold.Rescore>
     Score         DG    S(hbond)    S(metal)    S(lipo)     H(rot)  DE(clash)    DE(int)     intcor
     13.97     -20.26       1.78        0.00     103.23       1.27       1.63       4.65       ----

> <Gold.Chemscore.Fitness>
13.9724

> <Gold.Chemscore.DG>
-20.2572

> <Gold.Chemscore.ZeroCoef>
-5.4800

> <Gold.Chemscore.Hbond>
1.7804

> <Gold.Chemscore.Metal>
0.0000

> <Gold.Chemscore.Lipo>
103.2330

> <Gold.Chemscore.Internal_Hbond>
0.0000

> <Gold.Chemscore.DEClash>
1.6344

> <Gold.Chemscore.DEInternal>
4.6505

> <Gold.Chemscore.Rot>
1.2685

> <Gold.Chemscore.Internal.Correction>
   9.000000E+99

> <Gold.Chemscore.Hbonds>
donor molecule, donor type, donor heavy atom, donor atom, acceptor molecule, acceptor atom, score
      L1  H     9    31       P1  7948  0.99
      L1  H    12    32       P1  7948  0.92

> <Gold.Chemscore.Hbond.Weighted>
-5.9464

> <Gold.Chemscore.Metal.Weighted>
-0.0000

> <Gold.Chemscore.Lipo.Weighted>
-12.0783

> <Gold.Chemscore.Internal_Hbond.Weighted>
0.0000

> <Gold.Chemscore.DEClash.Weighted>
1.6344

> <Gold.Chemscore.DEInternal.Weighted>
4.6505

> <Gold.Chemscore.Rot.Weighted>
3.2474

> <Gold.Chemscore.Internal.Correction.Weighted>
   9.000000E+99

> <Gold.Protein.RotatedTorsions>
[ 6907 6896 6895 6894 ] final   37.79 input  -60.11 | X-H torsion
[ 7974 7965 7964 7962 ] final  126.52 input  175.53 | X-H torsion
[ 8008 7997 7996 7995 ] final   22.11 input   59.86 | X-H torsion
[ 10167 10162 10161 10158 ] final   12.73 input  -65.29 | X-H torsion
[ 10718 10713 10712 10709 ] final  -65.15 input   66.30 | X-H torsion
[ 10763 10752 10751 10750 ] final   -6.16 input  -60.55 | X-H torsion
[ 11005 11000 10999 10996 ] final  -89.52 input  -57.11 | X-H torsion

> <Gold.Protein.ActiveResidues>
 VAL166  LYS551  ARG553  GLY616  TRP617  ASP618  TYR619  PRO620  LYS621  CYS622 
 ASP623  PHE694  ASN695  SER759  ASP760  ASP761  ALA762  ILE779  LEU786  VAL792 
 PHE793  MET794  SER795  GLU796  ALA797  LYS798  CYS799  TRP800  GLU811  SER814 

> <Gold.Protein.RotatedAtoms>
  152.1478  134.9012  160.0549 H   0  0  0  0  0  0  0  0  0  0  0  0  # atno 6907 bound_to 6896
  152.0055  133.3836  159.4207 H   0  0  0  0  0  0  0  0  0  0  0  0  # atno 6908 bound_to 6896
  150.6872  134.3709  159.5035 H   0  0  0  0  0  0  0  0  0  0  0  0  # atno 6909 bound_to 6896
  145.0608  139.3806  143.5006 H   0  0  0  0  0  0  0  0  0  0  0  0  # atno 7974 bound_to 7965
  154.9607  140.3077  155.5032 H   0  0  0  0  0  0  0  0  0  0  0  0  # atno 8008 bound_to 7997
  156.2977  140.2302  156.4631 H   0  0  0  0  0  0  0  0  0  0  0  0  # atno 8009 bound_to 7997
  154.7968  140.0436  157.1231 H   0  0  0  0  0  0  0  0  0  0  0  0  # atno 8010 bound_to 7997
  140.6049  143.8529  150.7003 H   0  0  0  0  0  0  0  0  0  0  0  0  # atno 10167 bound_to 10162
  156.0686  130.4243  150.1523 H   0  0  0  0  0  0  0  0  0  0  0  0  # atno 10718 bound_to 10713
  153.4085  135.7007  153.6376 H   0  0  0  0  0  0  0  0  0  0  0  0  # atno 10763 bound_to 10752
  153.4880  135.3679  155.2477 H   0  0  0  0  0  0  0  0  0  0  0  0  # atno 10764 bound_to 10752
  154.8715  135.4082  154.3433 H   0  0  0  0  0  0  0  0  0  0  0  0  # atno 10765 bound_to 10752
  141.1583  133.7635  156.9607 H   0  0  0  0  0  0  0  0  0  0  0  0  # atno 11005 bound_to 11000
  146.3524  140.0306  142.8651 LP  0  0  0  0  0  0  0  0  0  0  0  0  # atno 17320 bound_to 7965
  145.1411  140.9571  143.4488 LP  0  0  0  0  0  0  0  0  0  0  0  0  # atno 17321 bound_to 7965
  140.2083  143.3903  152.1738 LP  0  0  0  0  0  0  0  0  0  0  0  0  # atno 17342 bound_to 10162
  139.5317  144.7167  151.5031 LP  0  0  0  0  0  0  0  0  0  0  0  0  # atno 17343 bound_to 10162
  156.9578  130.9795  151.3485 LP  0  0  0  0  0  0  0  0  0  0  0  0  # atno 17370 bound_to 10713
  157.5743  130.8332  149.8435 LP  0  0  0  0  0  0  0  0  0  0  0  0  # atno 17371 bound_to 10713
  140.1195  134.9426  157.2182 LP  0  0  0  0  0  0  0  0  0  0  0  0  # atno 17394 bound_to 11000
  140.3090  134.3045  155.7271 LP  0  0  0  0  0  0  0  0  0  0  0  0  # atno 17395 bound_to 11000

$$$$
