AV-unprocessed.smi:602|AV-procd|sdf|3035|dock5
  -GOLD-   2262023553D 1   1.00000     0.00000
 Structure written by MMmdl.
 47 48  0  0  0  0  0  0  0  0  1 V2000
  146.5179  132.7553  151.2694 C   0  0  0  0  0  0  0  0  0  0  0  0
  147.2150  132.4488  152.5983 C   0  0  0  0  0  0  0  0  0  0  0  0
  148.5432  133.2086  152.7498 C   0  0  0  0  0  0  0  0  0  0  0  0
  149.0497  133.1742  154.1071 N   0  0  0  0  0  0  0  0  0  0  0  0
  149.2085  134.3133  154.9013 C   0  0  0  0  0  0  0  0  0  0  0  0
  148.8600  135.5408  154.3562 N   0  0  0  0  0  0  0  0  0  0  0  0
  149.6568  134.2331  156.1897 C   0  0  0  0  0  0  0  0  0  0  0  0
  149.8267  135.3824  156.9842 N   0  0  0  0  0  0  0  0  0  0  0  0
  148.6594  135.8307  157.7623 C   0  0  0  0  0  0  0  0  0  0  0  0
  148.3173  134.8605  158.9109 C   0  0  0  0  0  0  0  0  0  0  0  0
  148.5917  135.4094  160.1924 O   0  0  0  0  0  0  0  0  0  0  0  0
  147.6908  136.4327  160.5853 C   0  0  0  0  0  0  0  0  0  0  0  0
  151.0304  136.0046  157.1001 C   0  0  0  0  0  0  0  0  0  0  0  0
  152.0338  135.5979  156.5130 O   0  0  0  0  0  0  0  0  0  0  0  0
  151.1471  137.2576  157.9970 C   0  0  0  0  0  0  0  0  0  0  0  0
  150.3670  138.4789  157.4799 C   0  0  0  0  0  0  0  0  0  0  0  0
  151.5586  139.3549  157.8744 C   0  0  0  0  0  0  0  0  0  0  0  0
  152.4301  138.0973  157.8272 C   0  0  0  0  0  0  0  0  0  0  0  0
  150.0176  132.9350  156.7759 C   0  0  0  0  0  0  0  0  0  0  0  0
  150.4596  132.7574  157.9103 O   0  0  0  0  0  0  0  0  0  0  0  0
  149.8159  131.8393  155.9410 N   0  0  0  0  0  0  0  0  0  0  0  0
  149.3330  131.8928  154.6384 C   0  0  0  0  0  0  0  0  0  0  0  0
  149.1725  130.8450  154.0114 O   0  0  0  0  0  0  0  0  0  0  0  0
  150.0323  130.9272  156.3164 H   0  0  0  0  0  0  0  0  0  0  0  0
  145.5791  132.2074  151.1871 H   0  0  0  0  0  0  0  0  0  0  0  0
  147.1441  132.4723  150.4228 H   0  0  0  0  0  0  0  0  0  0  0  0
  146.2924  133.8182  151.1798 H   0  0  0  0  0  0  0  0  0  0  0  0
  146.5481  132.7064  153.4219 H   0  0  0  0  0  0  0  0  0  0  0  0
  147.3914  131.3751  152.6707 H   0  0  0  0  0  0  0  0  0  0  0  0
  149.3175  132.8214  152.0847 H   0  0  0  0  0  0  0  0  0  0  0  0
  148.4380  134.2582  152.4764 H   0  0  0  0  0  0  0  0  0  0  0  0
  148.5013  135.6223  153.4155 H   0  0  0  0  0  0  0  0  0  0  0  0
  149.0079  136.4061  154.8554 H   0  0  0  0  0  0  0  0  0  0  0  0
  148.8752  136.8069  158.1985 H   0  0  0  0  0  0  0  0  0  0  0  0
  147.7932  136.0011  157.1221 H   0  0  0  0  0  0  0  0  0  0  0  0
  147.2564  134.6136  158.8731 H   0  0  0  0  0  0  0  0  0  0  0  0
  148.8475  133.9155  158.7829 H   0  0  0  0  0  0  0  0  0  0  0  0
  147.9655  136.7963  161.5753 H   0  0  0  0  0  0  0  0  0  0  0  0
  146.6629  136.0740  160.6374 H   0  0  0  0  0  0  0  0  0  0  0  0
  147.7310  137.2771  159.8962 H   0  0  0  0  0  0  0  0  0  0  0  0
  150.9591  137.0586  159.0525 H   0  0  0  0  0  0  0  0  0  0  0  0
  150.1891  138.4624  156.4029 H   0  0  0  0  0  0  0  0  0  0  0  0
  149.4527  138.6977  158.0324 H   0  0  0  0  0  0  0  0  0  0  0  0
  151.8228  140.1212  157.1451 H   0  0  0  0  0  0  0  0  0  0  0  0
  151.4648  139.7664  158.8805 H   0  0  0  0  0  0  0  0  0  0  0  0
  153.1346  138.0159  158.6555 H   0  0  0  0  0  0  0  0  0  0  0  0
  152.9334  137.9853  156.8657 H   0  0  0  0  0  0  0  0  0  0  0  0
  1  2  1  0  0  0  0
  1 25  1  0  0  0  0
  1 26  1  0  0  0  0
  1 27  1  0  0  0  0
  2  3  1  0  0  0  0
  2 28  1  0  0  0  0
  2 29  1  0  0  0  0
  3  4  1  0  0  0  0
  3 30  1  0  0  0  0
  3 31  1  0  0  0  0
  4 22  1  0  0  0  0
  4  5  1  0  0  0  0
  5  6  1  0  0  0  0
  5  7  2  0  0  0  0
  6 32  1  0  0  0  0
  6 33  1  0  0  0  0
  7  8  1  0  0  0  0
  7 19  1  0  0  0  0
  8  9  1  0  0  0  0
  8 13  1  0  0  0  0
  9 10  1  0  0  0  0
  9 34  1  0  0  0  0
  9 35  1  0  0  0  0
 10 11  1  0  0  0  0
 10 36  1  0  0  0  0
 10 37  1  0  0  0  0
 11 12  1  0  0  0  0
 12 38  1  0  0  0  0
 12 39  1  0  0  0  0
 12 40  1  0  0  0  0
 13 14  2  0  0  0  0
 13 15  1  0  0  0  0
 15 18  1  0  0  0  0
 15 16  1  0  0  0  0
 15 41  1  0  0  0  0
 16 17  1  0  0  0  0
 16 42  1  0  0  0  0
 16 43  1  0  0  0  0
 17 18  1  0  0  0  0
 17 44  1  0  0  0  0
 17 45  1  0  0  0  0
 18 46  1  0  0  0  0
 18 47  1  0  0  0  0
 19 20  2  0  0  0  0
 19 21  1  0  0  0  0
 21 24  1  0  0  0  0
 21 22  1  0  0  0  0
 22 23  2  0  0  0  0
M  END
> <s_m_source_file>
AV-unprocessed.smi

> <i_m_source_file_index>
602

> <i_lp_mmshare_version>
43012

> <i_f3d_flags>
0

> <s_epik_input>
W0NIM11bQ0gyXVtDSDJdbjFjKFtOSDJdKWMoYyg9TylbbkhdYzE9TylOKFtDSDJdW0NIMl1PW0NIM10pQyg9TylbQ0hdMltDSDJdW0NIMl1bQ0gyXTI=

> <s_epik_cmdline>
J2VwaWtfcHl0aG9uJywgJy1waCcsICc3LjAnLCAnLXRuJywgJzgnLCAnLW1hJywgJzIwMCcsICctbWV0YWxfYmluZGluZycsICctaW1hZScsICc8aW5maWxlLm1hZT4nLCAnLW9tYWUnLCAnPG91dGZpbGUubWFlPic=

> <r_lp_tautomer_probability>
1

> <r_epik_Ionization_Penalty>
1.77098e-05

> <r_epik_Ionization_Penalty_Charging>
5.46221e-06

> <r_epik_Ionization_Penalty_Neutral>
1.22476e-05

> <r_epik_State_Penalty>
-0

> <r_epik_Charging_Adjusted_Penalty>
5.46221e-06

> <i_epik_Tot_Q>
0

> <i_epik_Tot_abs_Q>
0

> <r_epik_Metal_State_Penalty>
-0

> <b_epik_Metal_Only>
0

> <s_epik_Chemistry_Notes>
This compound has an imine and may undergo hydrolysis.

> <s_lp_Force_Field>
OPLS_2005

> <r_lp_Energy>
36.0285

> <b_lp_Chiralities_Consistent>
1

> <s_lp_Variant>
AV-unprocessed.smi:602-1

> <Gold.Version>
5.8.1

> <Gold.Id.Protein>
6NUR|6NUR_protein|mol2

> <Gold.PLP.Fitness>
35.0057

> <Gold.PLP.PLP>
-28.3861

> <Gold.PLP.part.hbond>
-3.5578

> <Gold.PLP.part.metal>
0.0000

> <Gold.PLP.part.buried>
-3.0729

> <Gold.PLP.part.nonpolar>
-22.5128

> <Gold.PLP.part.repulsive>
0.0798

> <Gold.PLP.ligand.clash>
0.0000

> <Gold.PLP.ligand.torsion>
2.2585

> <Gold.PLP.Chemscore.Hbond>
2.8108

> <Gold.PLP.Chemscore.CHOScore>
0.0000

> <Gold.PLP.Chemscore.Metal>
0.0000

> <Gold.Chemscore.Hbonds>
donor molecule, donor type, donor heavy atom, donor atom, acceptor molecule, acceptor atom, score
      L1  H     6    32       P1  7948  0.80
      P1  H  6896  6907       L1    20  1.00
      P1  H  6896  6908       L1    11  0.02
      P1  H 10752 10764       L1    14  1.00

> <Gold.PLP.Chemscore.Internal.Correction>
2.7045

> <Gold.Rescore>
     Score         DG    S(hbond)    S(metal)    S(lipo)     H(rot)  DE(clash)    DE(int)     intcor
     12.11     -15.72       2.91        0.00      50.77       2.12       0.08       3.53       ----

> <Gold.Chemscore.Fitness>
12.1139

> <Gold.Chemscore.DG>
-15.7206

> <Gold.Chemscore.ZeroCoef>
-5.4800

> <Gold.Chemscore.Hbond>
2.9145

> <Gold.Chemscore.Metal>
0.0000

> <Gold.Chemscore.Lipo>
50.7696

> <Gold.Chemscore.Internal_Hbond>
0.0000

> <Gold.Chemscore.DEClash>
0.0787

> <Gold.Chemscore.DEInternal>
3.5280

> <Gold.Chemscore.Rot>
2.1226

> <Gold.Chemscore.Internal.Correction>
   9.000000E+99

> <Gold.Chemscore.Hbonds>
donor molecule, donor type, donor heavy atom, donor atom, acceptor molecule, acceptor atom, score
      L1  H     6    32       P1  7948  0.79
      P1  H  6896  6907       L1    20  0.94
      P1  H 10752 10764       L1    14  1.00

> <Gold.Chemscore.Hbond.Weighted>
-9.7344

> <Gold.Chemscore.Metal.Weighted>
-0.0000

> <Gold.Chemscore.Lipo.Weighted>
-5.9400

> <Gold.Chemscore.Internal_Hbond.Weighted>
0.0000

> <Gold.Chemscore.DEClash.Weighted>
0.0787

> <Gold.Chemscore.DEInternal.Weighted>
3.5280

> <Gold.Chemscore.Rot.Weighted>
5.4338

> <Gold.Chemscore.Internal.Correction.Weighted>
   9.000000E+99

> <Gold.Protein.RotatedTorsions>
[ 6907 6896 6895 6894 ] final -162.29 input  -60.11 | X-H torsion
[ 7974 7965 7964 7962 ] final   73.69 input  175.53 | X-H torsion
[ 8008 7997 7996 7995 ] final   96.79 input   59.86 | X-H torsion
[ 10167 10162 10161 10158 ] final  -20.01 input  -65.29 | X-H torsion
[ 10718 10713 10712 10709 ] final -165.87 input   66.30 | X-H torsion
[ 10763 10752 10751 10750 ] final  -26.48 input  -60.55 | X-H torsion
[ 11005 11000 10999 10996 ] final  179.54 input  -57.11 | X-H torsion

> <Gold.Protein.ActiveResidues>
 VAL166  LYS551  ARG553  GLY616  TRP617  ASP618  TYR619  PRO620  LYS621  CYS622 
 ASP623  PHE694  ASN695  SER759  ASP760  ASP761  ALA762  ILE779  LEU786  VAL792 
 PHE793  MET794  SER795  GLU796  ALA797  LYS798  CYS799  TRP800  GLU811  SER814 

> <Gold.Protein.RotatedAtoms>
  151.3781  133.3831  159.2706 H   0  0  0  0  0  0  0  0  0  0  0  0  # atno 6907 bound_to 6896
  150.9599  134.8989  159.7734 H   0  0  0  0  0  0  0  0  0  0  0  0  # atno 6908 bound_to 6896
  152.5145  134.3739  159.9380 H   0  0  0  0  0  0  0  0  0  0  0  0  # atno 6909 bound_to 6896
  145.7377  139.2708  143.1504 H   0  0  0  0  0  0  0  0  0  0  0  0  # atno 7974 bound_to 7965
  156.0833  140.3267  155.7721 H   0  0  0  0  0  0  0  0  0  0  0  0  # atno 8008 bound_to 7997
  155.5117  140.0577  157.2939 H   0  0  0  0  0  0  0  0  0  0  0  0  # atno 8009 bound_to 7997
  154.4594  140.1959  156.0302 H   0  0  0  0  0  0  0  0  0  0  0  0  # atno 8010 bound_to 7997
  140.7273  143.4763  151.0178 H   0  0  0  0  0  0  0  0  0  0  0  0  # atno 10167 bound_to 10162
  156.6597  130.9041  151.3027 H   0  0  0  0  0  0  0  0  0  0  0  0  # atno 10718 bound_to 10713
  153.7166  135.6947  153.5023 H   0  0  0  0  0  0  0  0  0  0  0  0  # atno 10763 bound_to 10752
  153.2234  135.4362  155.0514 H   0  0  0  0  0  0  0  0  0  0  0  0  # atno 10764 bound_to 10752
  154.8298  135.3466  154.6701 H   0  0  0  0  0  0  0  0  0  0  0  0  # atno 10765 bound_to 10752
  140.4073  134.6723  157.4595 H   0  0  0  0  0  0  0  0  0  0  0  0  # atno 11005 bound_to 11000
  146.0477  140.8101  142.9797 LP  0  0  0  0  0  0  0  0  0  0  0  0  # atno 17320 bound_to 7965
  144.6878  140.3006  143.7264 LP  0  0  0  0  0  0  0  0  0  0  0  0  # atno 17321 bound_to 7965
  139.8459  143.7502  152.3179 LP  0  0  0  0  0  0  0  0  0  0  0  0  # atno 17342 bound_to 10162
  139.7667  144.7489  151.0283 LP  0  0  0  0  0  0  0  0  0  0  0  0  # atno 17343 bound_to 10162
  157.7114  130.9444  150.1101 LP  0  0  0  0  0  0  0  0  0  0  0  0  # atno 17370 bound_to 10713
  156.2020  130.3661  149.8776 LP  0  0  0  0  0  0  0  0  0  0  0  0  # atno 17371 bound_to 10713
  140.0293  134.6430  155.9129 LP  0  0  0  0  0  0  0  0  0  0  0  0  # atno 17394 bound_to 11000
  141.1834  133.6551  156.5116 LP  0  0  0  0  0  0  0  0  0  0  0  0  # atno 17395 bound_to 11000

$$$$
