AV-unprocessed.smi:1484|AV-procd|sdf|5994|dock7
  -GOLD-   22720 6 93D 1   1.00000     0.00000
 Structure written by MMmdl.
 37 38  0  0  0  0  0  0  0  0  2 V2000
  151.8609  145.4809  159.6960 C   0  0  0  0  0  0  0  0  0  0  0  0
  152.2894  144.1146  159.1419 C   0  0  1  0  0  0  0  0  0  0  0  0
  152.9367  143.2410  160.2337 C   0  0  0  0  0  0  0  0  0  0  0  0
  153.3660  141.8728  159.6807 C   0  0  0  0  0  0  0  0  0  0  0  0
  152.1861  141.1398  159.0243 C   0  0  0  0  0  0  0  0  0  0  0  0
  151.5289  142.0017  157.9304 C   0  0  1  0  0  0  0  0  0  0  0  0
  150.3632  141.3088  157.3882 N   0  0  0  0  0  0  0  0  0  0  0  0
  150.2899  140.7015  156.1934 C   0  0  0  0  0  0  0  0  0  0  0  0
  151.2263  140.6681  155.3933 O   0  0  0  0  0  0  0  0  0  0  0  0
  148.9416  140.0347  155.8754 C   0  0  0  0  0  0  0  0  0  0  0  0
  147.8768  140.9720  155.4872 N   0  0  0  0  0  0  0  0  0  0  0  0
  146.6734  140.8700  156.3083 N   0  5  0  0  0  0  0  0  0  0  0  0
  145.6270  141.7005  156.0565 C   0  0  0  0  0  0  0  0  0  0  0  0
  144.5895  141.6835  156.7147 O   0  0  0  0  0  0  0  0  0  0  0  0
  145.7501  142.6420  154.9560 C   0  0  0  0  0  0  0  0  0  0  0  0
  146.8630  142.6967  154.1981 C   0  0  0  0  0  0  0  0  0  0  0  0
  148.0097  141.8279  154.4337 C   0  0  0  0  0  0  0  0  0  0  0  0
  149.0251  141.8652  153.7383 O   0  0  0  0  0  0  0  0  0  0  0  0
  151.1052  143.3727  158.4913 C   0  0  0  0  0  0  0  0  0  0  0  0
  151.1066  145.3747  160.4763 H   0  0  0  0  0  0  0  0  0  0  0  0
  151.4401  146.1084  158.9098 H   0  0  0  0  0  0  0  0  0  0  0  0
  152.7097  146.0150  160.1242 H   0  0  0  0  0  0  0  0  0  0  0  0
  153.0375  144.2951  158.3682 H   0  0  0  0  0  0  0  0  0  0  0  0
  153.8026  143.7517  160.6562 H   0  0  0  0  0  0  0  0  0  0  0  0
  152.2333  143.0957  161.0549 H   0  0  0  0  0  0  0  0  0  0  0  0
  154.1644  142.0074  158.9500 H   0  0  0  0  0  0  0  0  0  0  0  0
  153.7813  141.2621  160.4828 H   0  0  0  0  0  0  0  0  0  0  0  0
  152.5297  140.1955  158.6002 H   0  0  0  0  0  0  0  0  0  0  0  0
  151.4497  140.8861  159.7883 H   0  0  0  0  0  0  0  0  0  0  0  0
  152.2650  142.1758  157.1434 H   0  0  0  0  0  0  0  0  0  0  0  0
  149.5412  141.2831  157.9738 H   0  0  0  0  0  0  0  0  0  0  0  0
  149.0925  139.3026  155.0804 H   0  0  0  0  0  0  0  0  0  0  0  0
  148.6338  139.4559  156.7483 H   0  0  0  0  0  0  0  0  0  0  0  0
  144.9301  143.3109  154.7397 H   0  0  0  0  0  0  0  0  0  0  0  0
  146.9102  143.4104  153.3893 H   0  0  0  0  0  0  0  0  0  0  0  0
  150.3107  143.2393  159.2273 H   0  0  0  0  0  0  0  0  0  0  0  0
  150.6839  143.9815  157.6900 H   0  0  0  0  0  0  0  0  0  0  0  0
  1  2  1  0  0  0  0
  1 20  1  0  0  0  0
  1 21  1  0  0  0  0
  1 22  1  0  0  0  0
  2 19  1  0  0  0  0
  2  3  1  0  0  0  0
  2 23  1  0  0  0  0
  3  4  1  0  0  0  0
  3 24  1  0  0  0  0
  3 25  1  0  0  0  0
  4  5  1  0  0  0  0
  4 26  1  0  0  0  0
  4 27  1  0  0  0  0
  5  6  1  0  0  0  0
  5 28  1  0  0  0  0
  5 29  1  0  0  0  0
  6  7  1  0  0  0  0
  6 19  1  0  0  0  0
  6 30  1  0  0  0  0
  7  8  1  0  0  0  0
  7 31  1  0  0  0  0
  8  9  2  0  0  0  0
  8 10  1  0  0  0  0
 10 32  1  0  0  0  0
 10 33  1  0  0  0  0
 10 11  1  0  0  0  0
 11 12  1  0  0  0  0
 11 17  1  0  0  0  0
 12 13  1  0  0  0  0
 13 14  2  0  0  0  0
 13 15  1  0  0  0  0
 15 34  1  0  0  0  0
 15 16  2  0  0  0  0
 16 35  1  0  0  0  0
 16 17  1  0  0  0  0
 17 18  2  0  0  0  0
 19 36  1  0  0  0  0
 19 37  1  0  0  0  0
M  CHG  1  12  -1
M  END
> <s_m_source_file>
AV-unprocessed.smi

> <i_m_source_file_index>
1484

> <i_lp_mmshare_version>
43012

> <i_f3d_flags>
0

> <s_epik_input>
W0NIM11bQ0BASF0xW0NIMl1bQ0gyXVtDSDJdW0NASF0oW0NIMl0xKVtOSF1DKD1PKVtDSDJdbjJbbkhdYyg9TylbY0hdW2NIXWMyPU8=

> <s_epik_cmdline>
J2VwaWtfcHl0aG9uJywgJy1waCcsICc3LjAnLCAnLXRuJywgJzgnLCAnLW1hJywgJzIwMCcsICctbWV0YWxfYmluZGluZycsICctaW1hZScsICc8aW5maWxlLm1hZT4nLCAnLW9tYWUnLCAnPG91dGZpbGUubWFlPic=

> <r_lp_tautomer_probability>
1

> <r_epik_Ionization_Penalty>
0.101352

> <r_epik_Ionization_Penalty_Charging>
0.101352

> <r_epik_Ionization_Penalty_Neutral>
1.90469e-08

> <r_epik_State_Penalty>
0.0358555

> <r_epik_Charging_Adjusted_Penalty>
0.137208

> <i_epik_Tot_Q>
-1

> <i_epik_Tot_abs_Q>
1

> <r_epik_Metal_State_Penalty>
0.0358555

> <b_epik_Metal_Only>
0

> <s_lp_Force_Field>
OPLS_2005

> <r_lp_Energy>
25.5617

> <b_lp_Chiralities_Consistent>
1

> <s_lp_Variant>
AV-unprocessed.smi:1484-2

> <Gold.Version>
5.8.1

> <Gold.Id.Protein>
6NUR|6NUR_protein|mol2

> <Gold.PLP.Fitness>
42.9822

> <Gold.PLP.PLP>
-39.0022

> <Gold.PLP.part.hbond>
-2.7624

> <Gold.PLP.part.metal>
0.0000

> <Gold.PLP.part.buried>
-4.1674

> <Gold.PLP.part.nonpolar>
-32.1750

> <Gold.PLP.part.repulsive>
1.1669

> <Gold.PLP.ligand.clash>
0.0000

> <Gold.PLP.ligand.torsion>
0.3883

> <Gold.PLP.Chemscore.Hbond>
1.5840

> <Gold.PLP.Chemscore.CHOScore>
0.0000

> <Gold.PLP.Chemscore.Metal>
0.0000

> <Gold.Chemscore.Hbonds>
donor molecule, donor type, donor heavy atom, donor atom, acceptor molecule, acceptor atom, score
      P1  H  7989  7998       L1     9  0.82
      P1  H  8011  8017       L1    18  0.54

> <Gold.PLP.Chemscore.Internal.Correction>
0.0047

> <Gold.Rescore>
     Score         DG    S(hbond)    S(metal)    S(lipo)     H(rot)  DE(clash)    DE(int)     intcor
     16.97     -17.48       1.71        0.00      89.90       1.65       0.30       0.22       ----

> <Gold.Chemscore.Fitness>
16.9656

> <Gold.Chemscore.DG>
-17.4838

> <Gold.Chemscore.ZeroCoef>
-5.4800

> <Gold.Chemscore.Hbond>
1.7132

> <Gold.Chemscore.Metal>
0.0000

> <Gold.Chemscore.Lipo>
89.9004

> <Gold.Chemscore.Internal_Hbond>
0.0000

> <Gold.Chemscore.DEClash>
0.3021

> <Gold.Chemscore.DEInternal>
0.2162

> <Gold.Chemscore.Rot>
1.6549

> <Gold.Chemscore.Internal.Correction>
   9.000000E+99

> <Gold.Chemscore.Hbonds>
donor molecule, donor type, donor heavy atom, donor atom, acceptor molecule, acceptor atom, score
      P1  H  7989  7998       L1     9  0.81
      P1  H  8011  8017       L1    18  0.56

> <Gold.Chemscore.Hbond.Weighted>
-5.7219

> <Gold.Chemscore.Metal.Weighted>
-0.0000

> <Gold.Chemscore.Lipo.Weighted>
-10.5183

> <Gold.Chemscore.Internal_Hbond.Weighted>
0.0000

> <Gold.Chemscore.DEClash.Weighted>
0.3021

> <Gold.Chemscore.DEInternal.Weighted>
0.2162

> <Gold.Chemscore.Rot.Weighted>
4.2364

> <Gold.Chemscore.Internal.Correction.Weighted>
   9.000000E+99

> <Gold.Protein.RotatedTorsions>
[ 6907 6896 6895 6894 ] final -113.54 input  -60.11 | X-H torsion
[ 7974 7965 7964 7962 ] final -154.62 input  175.53 | X-H torsion
[ 8008 7997 7996 7995 ] final  -41.65 input   59.86 | X-H torsion
[ 10167 10162 10161 10158 ] final -174.58 input  -65.29 | X-H torsion
[ 10718 10713 10712 10709 ] final  137.18 input   66.30 | X-H torsion
[ 10763 10752 10751 10750 ] final   91.73 input  -60.55 | X-H torsion
[ 11005 11000 10999 10996 ] final  -59.10 input  -57.11 | X-H torsion

> <Gold.Protein.ActiveResidues>
 VAL166  LYS551  ARG553  GLY616  TRP617  ASP618  TYR619  PRO620  LYS621  CYS622 
 ASP623  PHE694  ASN695  SER759  ASP760  ASP761  ALA762  ILE779  LEU786  VAL792 
 PHE793  MET794  SER795  GLU796  ALA797  LYS798  CYS799  TRP800  GLU811  SER814 

> <Gold.Protein.RotatedAtoms>
  150.7836  133.8930  159.3318 H   0  0  0  0  0  0  0  0  0  0  0  0  # atno 6907 bound_to 6896
  151.6787  135.0963  160.0221 H   0  0  0  0  0  0  0  0  0  0  0  0  # atno 6908 bound_to 6896
  152.3894  133.6619  159.6261 H   0  0  0  0  0  0  0  0  0  0  0  0  # atno 6909 bound_to 6896
  144.7680  140.4362  143.5928 H   0  0  0  0  0  0  0  0  0  0  0  0  # atno 7974 bound_to 7965
  154.4003  140.1494  156.3226 H   0  0  0  0  0  0  0  0  0  0  0  0  # atno 8008 bound_to 7997
  155.8515  140.3457  155.5675 H   0  0  0  0  0  0  0  0  0  0  0  0  # atno 8009 bound_to 7997
  155.7979  140.0866  157.1964 H   0  0  0  0  0  0  0  0  0  0  0  0  # atno 8010 bound_to 7997
  139.5626  144.1833  152.1262 H   0  0  0  0  0  0  0  0  0  0  0  0  # atno 10167 bound_to 10162
  157.4388  131.1055  151.0167 H   0  0  0  0  0  0  0  0  0  0  0  0  # atno 10718 bound_to 10713
  153.2114  135.4387  155.0384 H   0  0  0  0  0  0  0  0  0  0  0  0  # atno 10763 bound_to 10752
  154.8202  135.3334  154.7063 H   0  0  0  0  0  0  0  0  0  0  0  0  # atno 10764 bound_to 10752
  153.7501  135.6999  153.5003 H   0  0  0  0  0  0  0  0  0  0  0  0  # atno 10765 bound_to 10752
  141.1234  133.6615  156.5020 H   0  0  0  0  0  0  0  0  0  0  0  0  # atno 11005 bound_to 11000
  145.6410  139.1550  143.2915 LP  0  0  0  0  0  0  0  0  0  0  0  0  # atno 17320 bound_to 7965
  146.1804  140.6507  142.9192 LP  0  0  0  0  0  0  0  0  0  0  0  0  # atno 17321 bound_to 7965
  140.1349  144.5254  150.6779 LP  0  0  0  0  0  0  0  0  0  0  0  0  # atno 17342 bound_to 10162
  140.6907  143.2374  151.5139 LP  0  0  0  0  0  0  0  0  0  0  0  0  # atno 17343 bound_to 10162
  157.1037  130.5993  149.5466 LP  0  0  0  0  0  0  0  0  0  0  0  0  # atno 17370 bound_to 10713
  155.9940  130.5003  150.7405 LP  0  0  0  0  0  0  0  0  0  0  0  0  # atno 17371 bound_to 10713
  140.4438  134.6991  157.5005 LP  0  0  0  0  0  0  0  0  0  0  0  0  # atno 17394 bound_to 11000
  140.0211  134.6545  155.9238 LP  0  0  0  0  0  0  0  0  0  0  0  0  # atno 17395 bound_to 11000

$$$$
