AV-unprocessed.smi:686|AV-procd|sdf|3337|dock5
  -GOLD-   22720 0313D 1   1.00000     0.00000
 Structure written by MMmdl.
 41 42  0  0  0  0  0  0  0  0  2 V2000
  150.1593  133.9111  154.6095 C   0  0  0  0  0  0  0  0  0  0  0  0
  148.6747  133.6601  154.9164 C   0  0  2  0  0  0  0  0  0  0  0  0
  147.8867  133.2433  153.6691 C   0  0  0  0  0  0  0  0  0  0  0  0
  147.2247  134.4666  153.1735 N   0  3  1  0  0  0  0  0  0  0  0  0
  146.0939  134.2411  152.2287 C   0  0  0  0  0  0  0  0  0  0  0  0
  146.4707  133.2278  151.1317 C   0  0  0  0  0  0  0  0  0  0  0  0
  145.6325  135.5585  151.5774 C   0  0  0  0  0  0  0  0  0  0  0  0
  146.8967  135.2634  154.3751 C   0  0  0  0  0  0  0  0  0  0  0  0
  147.9624  134.9281  155.4298 C   0  0  1  0  0  0  0  0  0  0  0  0
  147.3435  134.6925  156.7388 N   0  0  0  0  0  0  0  0  0  0  0  0
  148.3594  134.6477  158.1353 S   0  0  0  0  0  0  0  0  0  0  0  0
  149.2987  133.5286  157.9655 O   0  0  0  0  0  0  0  0  0  0  0  0
  148.8716  136.0081  158.3615 O   0  0  0  0  0  0  0  0  0  0  0  0
  147.1722  134.2378  159.4830 C   0  0  0  0  0  0  0  0  0  0  0  0
  147.3706  135.1872  160.6296 C   0  0  0  0  0  0  0  0  0  0  0  0
  147.6360  134.8825  161.9934 C   0  0  0  0  0  0  0  0  0  0  0  0
  147.7271  136.1107  162.5821 C   0  0  0  0  0  0  0  0  0  0  0  0
  147.5311  137.0923  161.6659 O   0  0  0  0  0  0  0  0  0  0  0  0
  147.3022  136.4927  160.4222 N   0  0  0  0  0  0  0  0  0  0  0  0
  150.2854  134.6946  153.8614 H   0  0  0  0  0  0  0  0  0  0  0  0
  150.6403  133.0085  154.2317 H   0  0  0  0  0  0  0  0  0  0  0  0
  150.6954  134.2175  155.5085 H   0  0  0  0  0  0  0  0  0  0  0  0
  148.6228  132.8498  155.6451 H   0  0  0  0  0  0  0  0  0  0  0  0
  148.5205  132.7844  152.9094 H   0  0  0  0  0  0  0  0  0  0  0  0
  147.1249  132.5141  153.9502 H   0  0  0  0  0  0  0  0  0  0  0  0
  145.2546  133.8316  152.7930 H   0  0  0  0  0  0  0  0  0  0  0  0
  145.6577  133.1073  150.4151 H   0  0  0  0  0  0  0  0  0  0  0  0
  146.6765  132.2388  151.5414 H   0  0  0  0  0  0  0  0  0  0  0  0
  147.3523  133.5526  150.5779 H   0  0  0  0  0  0  0  0  0  0  0  0
  144.8355  135.3784  150.8554 H   0  0  0  0  0  0  0  0  0  0  0  0
  146.4513  136.0479  151.0486 H   0  0  0  0  0  0  0  0  0  0  0  0
  145.2384  136.2617  152.3110 H   0  0  0  0  0  0  0  0  0  0  0  0
  146.8758  136.3300  154.1493 H   0  0  0  0  0  0  0  0  0  0  0  0
  145.9036  134.9805  154.7301 H   0  0  0  0  0  0  0  0  0  0  0  0
  148.6615  135.7621  155.5072 H   0  0  0  0  0  0  0  0  0  0  0  0
  146.7256  133.8814  156.7136 H   0  0  0  0  0  0  0  0  0  0  0  0
  146.1598  134.3011  159.0826 H   0  0  0  0  0  0  0  0  0  0  0  0
  147.3439  133.2078  159.7952 H   0  0  0  0  0  0  0  0  0  0  0  0
  147.7475  133.9167  162.4635 H   0  0  0  0  0  0  0  0  0  0  0  0
  147.9173  136.4367  163.5940 H   0  0  0  0  0  0  0  0  0  0  0  0
  147.9338  134.9873  152.6770 H   0  0  0  0  0  0  0  0  0  0  0  0
  1  2  1  0  0  0  0
  1 20  1  0  0  0  0
  1 21  1  0  0  0  0
  1 22  1  0  0  0  0
  2  9  1  0  0  0  0
  2  3  1  0  0  0  0
  2 23  1  0  0  0  0
  3  4  1  0  0  0  0
  3 24  1  0  0  0  0
  3 25  1  0  0  0  0
  4  5  1  0  0  0  0
  4  8  1  0  0  0  0
  4 41  1  0  0  0  0
  5  6  1  0  0  0  0
  5  7  1  0  0  0  0
  5 26  1  0  0  0  0
  6 27  1  0  0  0  0
  6 28  1  0  0  0  0
  6 29  1  0  0  0  0
  7 30  1  0  0  0  0
  7 31  1  0  0  0  0
  7 32  1  0  0  0  0
  8  9  1  0  0  0  0
  8 33  1  0  0  0  0
  8 34  1  0  0  0  0
  9 10  1  0  0  0  0
  9 35  1  0  0  0  0
 10 11  1  0  0  0  0
 10 36  1  0  0  0  0
 11 12  2  0  0  0  0
 11 13  2  0  0  0  0
 11 14  1  0  0  0  0
 14 15  1  0  0  0  0
 14 37  1  0  0  0  0
 14 38  1  0  0  0  0
 15 19  2  0  0  0  0
 15 16  1  0  0  0  0
 16 17  2  0  0  0  0
 16 39  1  0  0  0  0
 17 18  1  0  0  0  0
 17 40  1  0  0  0  0
 18 19  1  0  0  0  0
M  CHG  1   4   1
M  END
> <s_m_source_file>
AV-unprocessed.smi

> <i_m_source_file_index>
686

> <i_lp_mmshare_version>
43012

> <i_f3d_flags>
0

> <s_epik_input>
W0NIM11bQ0BASF0xW0NIMl1OKFtDSF0oW0NIM10pW0NIM10pW0NIMl1bQ0BIXTFbTkhdUyg9TykoPU8pW0NIMl1jMltjSF1bY0hdb24y

> <s_epik_cmdline>
J2VwaWtfcHl0aG9uJywgJy1waCcsICc3LjAnLCAnLXRuJywgJzgnLCAnLW1hJywgJzIwMCcsICctbWV0YWxfYmluZGluZycsICctaW1hZScsICc8aW5maWxlLm1hZT4nLCAnLW9tYWUnLCAnPG91dGZpbGUubWFlPic=

> <r_epik_Ionization_Penalty>
0.00200818

> <r_epik_Ionization_Penalty_Charging>
0.000701289

> <r_epik_Ionization_Penalty_Neutral>
0.00130689

> <r_epik_State_Penalty>
0.00131314

> <r_epik_Charging_Adjusted_Penalty>
0.00201443

> <i_epik_Tot_Q>
1

> <i_epik_Tot_abs_Q>
1

> <r_epik_Metal_State_Penalty>
0.310831

> <b_epik_Metal_Only>
0

> <s_lp_Force_Field>
OPLS_2005

> <r_lp_Energy>
22.7484

> <b_lp_Chiralities_Consistent>
1

> <s_lp_Variant>
AV-unprocessed.smi:686-1

> <Gold.Version>
5.8.1

> <Gold.Id.Protein>
6NUR|6NUR_protein|mol2

> <Gold.PLP.Fitness>
41.7172

> <Gold.PLP.PLP>
-28.9170

> <Gold.PLP.part.hbond>
-4.0000

> <Gold.PLP.part.metal>
0.0000

> <Gold.PLP.part.buried>
-4.6952

> <Gold.PLP.part.nonpolar>
-20.1743

> <Gold.PLP.part.repulsive>
0.0000

> <Gold.PLP.ligand.clash>
0.0000

> <Gold.PLP.ligand.torsion>
0.4546

> <Gold.PLP.Chemscore.Hbond>
4.5104

> <Gold.PLP.Chemscore.CHOScore>
0.0000

> <Gold.PLP.Chemscore.Metal>
0.0000

> <Gold.Chemscore.Hbonds>
donor molecule, donor type, donor heavy atom, donor atom, acceptor molecule, acceptor atom, score
      L1  H     4    41       P1  7948  2.00
      P1  H  6896  6909       L1    12  1.00
      P1  H  6931  6943       L1    18  1.00
      P1  H  6934  6947       L1    18  0.48

> <Gold.PLP.Chemscore.Internal.Correction>
0.1781

> <Gold.Rescore>
     Score         DG    S(hbond)    S(metal)    S(lipo)     H(rot)  DE(clash)    DE(int)     intcor
     12.33     -14.41       1.95        0.00      62.58       1.91       0.04       2.04       ----

> <Gold.Chemscore.Fitness>
12.3292

> <Gold.Chemscore.DG>
-14.4070

> <Gold.Chemscore.ZeroCoef>
-5.4800

> <Gold.Chemscore.Hbond>
1.9459

> <Gold.Chemscore.Metal>
0.0000

> <Gold.Chemscore.Lipo>
62.5752

> <Gold.Chemscore.Internal_Hbond>
0.0000

> <Gold.Chemscore.DEClash>
0.0405

> <Gold.Chemscore.DEInternal>
2.0372

> <Gold.Chemscore.Rot>
1.9115

> <Gold.Chemscore.Internal.Correction>
   9.000000E+99

> <Gold.Chemscore.Hbonds>
donor molecule, donor type, donor heavy atom, donor atom, acceptor molecule, acceptor atom, score
      L1  H     4    41       P1  7948  0.94
      P1  H  6896  6909       L1    12  0.25
      P1  H  6931  6943       L1    18  0.41
      P1  H  6934  6947       L1    18  0.05

> <Gold.Chemscore.Hbond.Weighted>
-6.4992

> <Gold.Chemscore.Metal.Weighted>
-0.0000

> <Gold.Chemscore.Lipo.Weighted>
-7.3213

> <Gold.Chemscore.Internal_Hbond.Weighted>
0.0000

> <Gold.Chemscore.DEClash.Weighted>
0.0405

> <Gold.Chemscore.DEInternal.Weighted>
2.0372

> <Gold.Chemscore.Rot.Weighted>
4.8935

> <Gold.Chemscore.Internal.Correction.Weighted>
   9.000000E+99

> <Gold.Protein.RotatedTorsions>
[ 6907 6896 6895 6894 ] final   15.44 input  -60.11 | X-H torsion
[ 7974 7965 7964 7962 ] final  133.68 input  175.53 | X-H torsion
[ 8008 7997 7996 7995 ] final -113.18 input   59.86 | X-H torsion
[ 10167 10162 10161 10158 ] final  172.70 input  -65.29 | X-H torsion
[ 10718 10713 10712 10709 ] final   63.65 input   66.30 | X-H torsion
[ 10763 10752 10751 10750 ] final  -86.77 input  -60.55 | X-H torsion
[ 11005 11000 10999 10996 ] final  150.30 input  -57.11 | X-H torsion

> <Gold.Protein.ActiveResidues>
 VAL166  LYS551  ARG553  GLY616  TRP617  ASP618  TYR619  PRO620  LYS621  CYS622 
 ASP623  PHE694  ASN695  SER759  ASP760  ASP761  ALA762  ILE779  LEU786  VAL792 
 PHE793  MET794  SER795  GLU796  ALA797  LYS798  CYS799  TRP800  GLU811  SER814 

> <Gold.Protein.RotatedAtoms>
  151.8182  135.0660  160.0421 H   0  0  0  0  0  0  0  0  0  0  0  0  # atno 6907 bound_to 6896
  152.2971  133.5613  159.5603 H   0  0  0  0  0  0  0  0  0  0  0  0  # atno 6908 bound_to 6896
  150.7256  134.0262  159.3760 H   0  0  0  0  0  0  0  0  0  0  0  0  # atno 6909 bound_to 6896
  144.9841  139.4474  143.5372 H   0  0  0  0  0  0  0  0  0  0  0  0  # atno 7974 bound_to 7965
  155.0168  140.0393  157.2421 H   0  0  0  0  0  0  0  0  0  0  0  0  # atno 8008 bound_to 7997
  154.7412  140.2749  155.6348 H   0  0  0  0  0  0  0  0  0  0  0  0  # atno 8009 bound_to 7997
  156.2865  140.2665  156.2140 H   0  0  0  0  0  0  0  0  0  0  0  0  # atno 8010 bound_to 7997
  139.5085  144.3344  152.0080 H   0  0  0  0  0  0  0  0  0  0  0  0  # atno 10167 bound_to 10162
  157.5986  130.9117  149.9743 H   0  0  0  0  0  0  0  0  0  0  0  0  # atno 10718 bound_to 10713
  154.6261  135.5437  153.7629 H   0  0  0  0  0  0  0  0  0  0  0  0  # atno 10763 bound_to 10752
  153.0262  135.6424  154.1369 H   0  0  0  0  0  0  0  0  0  0  0  0  # atno 10764 bound_to 10752
  154.1301  135.2915  155.3167 H   0  0  0  0  0  0  0  0  0  0  0  0  # atno 10765 bound_to 10752
  140.1119  134.8918  157.1949 H   0  0  0  0  0  0  0  0  0  0  0  0  # atno 11005 bound_to 11000
  146.3415  139.9132  142.8777 LP  0  0  0  0  0  0  0  0  0  0  0  0  # atno 17320 bound_to 7965
  145.2379  140.9998  143.3953 LP  0  0  0  0  0  0  0  0  0  0  0  0  # atno 17321 bound_to 7965
  140.2783  144.3888  150.6127 LP  0  0  0  0  0  0  0  0  0  0  0  0  # atno 17342 bound_to 10162
  140.6037  143.2167  151.7022 LP  0  0  0  0  0  0  0  0  0  0  0  0  # atno 17343 bound_to 10162
  156.1054  130.3653  150.0143 LP  0  0  0  0  0  0  0  0  0  0  0  0  # atno 17370 bound_to 10713
  156.8251  130.9372  151.3639 LP  0  0  0  0  0  0  0  0  0  0  0  0  # atno 17371 bound_to 10713
  140.3079  134.3057  155.7273 LP  0  0  0  0  0  0  0  0  0  0  0  0  # atno 17394 bound_to 11000
  141.2132  133.7632  156.9735 LP  0  0  0  0  0  0  0  0  0  0  0  0  # atno 17395 bound_to 11000

$$$$
