AV-unprocessed.smi:1447|AV-procd|sdf|5893|dock3
  -GOLD-   22720 5573D 1   1.00000     0.00000
 Structure written by MMmdl.
 47 49  0  0  0  0  0  0  0  0  1 V2000
  154.6540  132.0878  158.7855 C   0  0  0  0  0  0  0  0  0  0  0  0
  154.1650  133.4117  158.9047 O   0  0  0  0  0  0  0  0  0  0  0  0
  155.1682  134.3872  158.6674 C   0  0  0  0  0  0  0  0  0  0  0  0
  156.0365  134.5600  159.9322 C   0  0  0  0  0  0  0  0  0  0  0  0
  155.6257  135.6372  160.8542 N   0  0  0  0  0  0  0  0  0  0  0  0
  155.3819  136.8766  160.2811 N   0  0  0  0  0  0  0  0  0  0  0  0
  155.0324  137.8828  161.0139 C   0  0  0  0  0  0  0  0  0  0  0  0
  154.7876  139.2283  160.4257 C   0  0  0  0  0  0  0  0  0  0  0  0
  155.0615  139.4868  159.2524 O   0  0  0  0  0  0  0  0  0  0  0  0
  154.2461  140.1287  161.2662 N   0  0  0  0  0  0  0  0  0  0  0  0
  153.8921  141.5025  160.9273 C   0  0  0  0  0  0  0  0  0  0  0  0
  153.3271  142.2462  162.1504 C   0  0  0  0  0  0  0  0  0  0  0  0
  152.8117  143.6416  161.7567 C   0  0  0  0  0  0  0  0  0  0  0  0
  151.7808  143.5296  160.7245 N   0  0  0  0  0  0  0  0  0  0  0  0
  151.2886  144.8606  160.4084 C   0  0  0  0  0  0  0  0  0  0  0  0
  150.6960  145.0791  159.0350 C   0  0  0  0  0  0  0  0  0  0  0  0
  152.0474  145.6600  159.3736 C   0  0  0  0  0  0  0  0  0  0  0  0
  152.3512  142.9358  159.5149 C   0  0  0  0  0  0  0  0  0  0  0  0
  152.8421  141.5066  159.8051 C   0  0  0  0  0  0  0  0  0  0  0  0
  154.8696  137.7344  162.4493 C   0  0  0  0  0  0  0  0  0  0  0  0
  155.0924  136.5189  162.9957 C   0  0  0  0  0  0  0  0  0  0  0  0
  155.4920  135.3650  162.1873 C   0  0  0  0  0  0  0  0  0  0  0  0
  155.6881  134.2474  162.6639 O   0  0  0  0  0  0  0  0  0  0  0  0
  153.8428  131.3811  158.9602 H   0  0  0  0  0  0  0  0  0  0  0  0
  155.4351  131.8900  159.5212 H   0  0  0  0  0  0  0  0  0  0  0  0
  155.0547  131.9024  157.7880 H   0  0  0  0  0  0  0  0  0  0  0  0
  155.7824  134.1208  157.8052 H   0  0  0  0  0  0  0  0  0  0  0  0
  154.6891  135.3375  158.4271 H   0  0  0  0  0  0  0  0  0  0  0  0
  156.0304  133.6215  160.4888 H   0  0  0  0  0  0  0  0  0  0  0  0
  157.0688  134.7244  159.6178 H   0  0  0  0  0  0  0  0  0  0  0  0
  154.0563  139.8310  162.2126 H   0  0  0  0  0  0  0  0  0  0  0  0
  154.7811  142.0254  160.5692 H   0  0  0  0  0  0  0  0  0  0  0  0
  152.5135  141.6715  162.5959 H   0  0  0  0  0  0  0  0  0  0  0  0
  154.0941  142.3438  162.9196 H   0  0  0  0  0  0  0  0  0  0  0  0
  152.3951  144.1356  162.6354 H   0  0  0  0  0  0  0  0  0  0  0  0
  153.6358  144.2625  161.4012 H   0  0  0  0  0  0  0  0  0  0  0  0
  150.8363  145.4485  161.2057 H   0  0  0  0  0  0  0  0  0  0  0  0
  150.6722  144.2346  158.3485 H   0  0  0  0  0  0  0  0  0  0  0  0
  149.8582  145.7686  158.9542 H   0  0  0  0  0  0  0  0  0  0  0  0
  152.1106  146.7363  159.5201 H   0  0  0  0  0  0  0  0  0  0  0  0
  152.9194  145.2009  158.9117 H   0  0  0  0  0  0  0  0  0  0  0  0
  151.5932  142.9067  158.7313 H   0  0  0  0  0  0  0  0  0  0  0  0
  153.1725  143.5507  159.1430 H   0  0  0  0  0  0  0  0  0  0  0  0
  153.2618  141.0700  158.8982 H   0  0  0  0  0  0  0  0  0  0  0  0
  151.9915  140.8823  160.0842 H   0  0  0  0  0  0  0  0  0  0  0  0
  154.5768  138.5689  163.0698 H   0  0  0  0  0  0  0  0  0  0  0  0
  154.9739  136.3927  164.0618 H   0  0  0  0  0  0  0  0  0  0  0  0
  1  2  1  0  0  0  0
  1 24  1  0  0  0  0
  1 25  1  0  0  0  0
  1 26  1  0  0  0  0
  2  3  1  0  0  0  0
  3  4  1  0  0  0  0
  3 27  1  0  0  0  0
  3 28  1  0  0  0  0
  4  5  1  0  0  0  0
  4 29  1  0  0  0  0
  4 30  1  0  0  0  0
  5 22  1  0  0  0  0
  5  6  1  0  0  0  0
  6  7  2  0  0  0  0
  7  8  1  0  0  0  0
  7 20  1  0  0  0  0
  8  9  2  0  0  0  0
  8 10  1  0  0  0  0
 10 11  1  0  0  0  0
 10 31  1  0  0  0  0
 11 19  1  0  0  0  0
 11 12  1  0  0  0  0
 11 32  1  0  0  0  0
 12 13  1  0  0  0  0
 12 33  1  0  0  0  0
 12 34  1  0  0  0  0
 13 14  1  0  0  0  0
 13 35  1  0  0  0  0
 13 36  1  0  0  0  0
 14 15  1  0  0  0  0
 14 18  1  0  0  0  0
 15 17  1  0  0  0  0
 15 16  1  0  0  0  0
 15 37  1  0  0  0  0
 16 17  1  0  0  0  0
 16 38  1  0  0  0  0
 16 39  1  0  0  0  0
 17 40  1  0  0  0  0
 17 41  1  0  0  0  0
 18 19  1  0  0  0  0
 18 42  1  0  0  0  0
 18 43  1  0  0  0  0
 19 44  1  0  0  0  0
 19 45  1  0  0  0  0
 20 21  2  0  0  0  0
 20 46  1  0  0  0  0
 21 22  1  0  0  0  0
 21 47  1  0  0  0  0
 22 23  2  0  0  0  0
M  END
> <s_m_source_file>
AV-unprocessed.smi

> <i_m_source_file_index>
1447

> <i_lp_mmshare_version>
43012

> <i_f3d_flags>
0

> <s_epik_input>
W0NIM11PW0NIMl1bQ0gyXW4xbmMoW2NIXVtjSF1jMT1PKUMoPU8pW05IXVtDSF0yW0NIMl1bQ0gyXU4oW0NIMl1bQ0gyXTIpW0NIXTNbQ0gyXVtDSDJdMw==

> <s_epik_cmdline>
J2VwaWtfcHl0aG9uJywgJy1waCcsICc3LjAnLCAnLXRuJywgJzgnLCAnLW1hJywgJzIwMCcsICctbWV0YWxfYmluZGluZycsICctaW1hZScsICc8aW5maWxlLm1hZT4nLCAnLW9tYWUnLCAnPG91dGZpbGUubWFlPic=

> <r_lp_tautomer_probability>
1

> <r_epik_Ionization_Penalty>
0.826878

> <r_epik_Ionization_Penalty_Charging>
6.86753e-09

> <r_epik_Ionization_Penalty_Neutral>
0.826878

> <r_epik_State_Penalty>
0.8604

> <r_epik_Charging_Adjusted_Penalty>
0.8604

> <i_epik_Tot_Q>
0

> <i_epik_Tot_abs_Q>
0

> <r_epik_Metal_State_Penalty>
0.8604

> <b_epik_Metal_Only>
0

> <s_lp_Force_Field>
OPLS_2005

> <r_lp_Energy>
44.3131

> <b_lp_Chiralities_Consistent>
1

> <s_lp_Variant>
AV-unprocessed.smi:1447-3

> <Gold.Version>
5.8.1

> <Gold.Id.Protein>
6NUR|6NUR_protein|mol2

> <Gold.PLP.Fitness>
48.0504

> <Gold.PLP.PLP>
-43.3982

> <Gold.PLP.part.hbond>
-2.0000

> <Gold.PLP.part.metal>
0.0000

> <Gold.PLP.part.buried>
-6.1596

> <Gold.PLP.part.nonpolar>
-34.2857

> <Gold.PLP.part.repulsive>
0.1022

> <Gold.PLP.ligand.clash>
0.4682

> <Gold.PLP.ligand.torsion>
1.0454

> <Gold.PLP.Chemscore.Hbond>
2.0000

> <Gold.PLP.Chemscore.CHOScore>
0.0000

> <Gold.PLP.Chemscore.Metal>
0.0000

> <Gold.Chemscore.Hbonds>
donor molecule, donor type, donor heavy atom, donor atom, acceptor molecule, acceptor atom, score
      P1  H  6896  6908       L1     2  1.00
      P1  H  7997  8010       L1     9  1.00

> <Gold.PLP.Chemscore.Internal.Correction>
1.2113

> <Gold.Rescore>
     Score         DG    S(hbond)    S(metal)    S(lipo)     H(rot)  DE(clash)    DE(int)     intcor
     20.35     -21.25       1.97        0.00     116.09       1.71       0.00       0.90       ----

> <Gold.Chemscore.Fitness>
20.3464

> <Gold.Chemscore.DG>
-21.2478

> <Gold.Chemscore.ZeroCoef>
-5.4800

> <Gold.Chemscore.Hbond>
1.9683

> <Gold.Chemscore.Metal>
0.0000

> <Gold.Chemscore.Lipo>
116.0875

> <Gold.Chemscore.Internal_Hbond>
0.0000

> <Gold.Chemscore.DEClash>
0.0038

> <Gold.Chemscore.DEInternal>
0.8976

> <Gold.Chemscore.Rot>
1.7143

> <Gold.Chemscore.Internal.Correction>
   9.000000E+99

> <Gold.Chemscore.Hbonds>
donor molecule, donor type, donor heavy atom, donor atom, acceptor molecule, acceptor atom, score
      P1  H  6896  6908       L1     2  0.90
      P1  H  7997  8010       L1     9  0.97

> <Gold.Chemscore.Hbond.Weighted>
-6.5743

> <Gold.Chemscore.Metal.Weighted>
-0.0000

> <Gold.Chemscore.Lipo.Weighted>
-13.5822

> <Gold.Chemscore.Internal_Hbond.Weighted>
0.0000

> <Gold.Chemscore.DEClash.Weighted>
0.0038

> <Gold.Chemscore.DEInternal.Weighted>
0.8976

> <Gold.Chemscore.Rot.Weighted>
4.3887

> <Gold.Chemscore.Internal.Correction.Weighted>
   9.000000E+99

> <Gold.Protein.RotatedTorsions>
[ 6907 6896 6895 6894 ] final   13.90 input  -60.11 | X-H torsion
[ 7974 7965 7964 7962 ] final  -47.04 input  175.53 | X-H torsion
[ 8008 7997 7996 7995 ] final  -14.59 input   59.86 | X-H torsion
[ 10167 10162 10161 10158 ] final  -77.27 input  -65.29 | X-H torsion
[ 10718 10713 10712 10709 ] final -164.23 input   66.30 | X-H torsion
[ 10763 10752 10751 10750 ] final   74.98 input  -60.55 | X-H torsion
[ 11005 11000 10999 10996 ] final   10.73 input  -57.11 | X-H torsion

> <Gold.Protein.ActiveResidues>
 VAL166  LYS551  ARG553  GLY616  TRP617  ASP618  TYR619  PRO620  LYS621  CYS622 
 ASP623  PHE694  ASN695  SER759  ASP760  ASP761  ALA762  ILE779  LEU786  VAL792 
 PHE793  MET794  SER795  GLU796  ALA797  LYS798  CYS799  TRP800  GLU811  SER814 

> <Gold.Protein.RotatedAtoms>
  151.7937  135.0728  160.0390 H   0  0  0  0  0  0  0  0  0  0  0  0  # atno 6907 bound_to 6896
  152.3138  133.5776  159.5707 H   0  0  0  0  0  0  0  0  0  0  0  0  # atno 6908 bound_to 6896
  150.7333  134.0029  159.3686 H   0  0  0  0  0  0  0  0  0  0  0  0  # atno 6909 bound_to 6896
  145.9657  140.7434  142.9435 H   0  0  0  0  0  0  0  0  0  0  0  0  # atno 7974 bound_to 7965
  154.5198  140.2219  155.8997 H   0  0  0  0  0  0  0  0  0  0  0  0  # atno 8008 bound_to 7997
  156.1649  140.3134  155.8836 H   0  0  0  0  0  0  0  0  0  0  0  0  # atno 8009 bound_to 7997
  155.3676  140.0465  157.3036 H   0  0  0  0  0  0  0  0  0  0  0  0  # atno 8010 bound_to 7997
  140.4784  143.2408  151.8096 H   0  0  0  0  0  0  0  0  0  0  0  0  # atno 10167 bound_to 10162
  156.6361  130.8949  151.2987 H   0  0  0  0  0  0  0  0  0  0  0  0  # atno 10718 bound_to 10713
  153.0623  135.5005  154.8122 H   0  0  0  0  0  0  0  0  0  0  0  0  # atno 10763 bound_to 10752
  154.6902  135.2983  154.9493 H   0  0  0  0  0  0  0  0  0  0  0  0  # atno 10764 bound_to 10752
  154.0250  135.6737  153.4828 H   0  0  0  0  0  0  0  0  0  0  0  0  # atno 10765 bound_to 10752
  140.5112  134.0651  155.7818 H   0  0  0  0  0  0  0  0  0  0  0  0  # atno 11005 bound_to 11000
  144.6825  140.2665  143.7312 LP  0  0  0  0  0  0  0  0  0  0  0  0  # atno 17320 bound_to 7965
  145.7977  139.1952  143.2066 LP  0  0  0  0  0  0  0  0  0  0  0  0  # atno 17321 bound_to 7965
  139.4829  144.4803  151.9315 LP  0  0  0  0  0  0  0  0  0  0  0  0  # atno 17342 bound_to 10162
  140.3888  144.2641  150.5901 LP  0  0  0  0  0  0  0  0  0  0  0  0  # atno 17343 bound_to 10162
  157.7185  130.9528  150.1347 LP  0  0  0  0  0  0  0  0  0  0  0  0  # atno 17370 bound_to 10713
  156.2196  130.3673  149.8572 LP  0  0  0  0  0  0  0  0  0  0  0  0  # atno 17371 bound_to 10713
  141.1385  133.9180  157.2380 LP  0  0  0  0  0  0  0  0  0  0  0  0  # atno 17394 bound_to 11000
  139.9658  135.0142  156.9383 LP  0  0  0  0  0  0  0  0  0  0  0  0  # atno 17395 bound_to 11000

$$$$
