AV-unprocessed.smi:3115|AV-procd|sdf|11858|dock8
  -GOLD-   2272017243D 1   1.00000     0.00000
 Structure written by MMmdl.
 33 34  0  0  0  0  0  0  0  0  2 V2000
  152.5697  143.9195  160.7300 C   0  0  0  0  0  0  0  0  0  0  0  0
  152.9027  142.6833  159.8884 C   0  0  2  0  0  0  0  0  0  0  0  0
  151.8603  142.4371  158.7801 C   0  0  0  0  0  0  0  0  0  0  0  0
  152.1702  141.2052  158.0649 N   0  0  0  0  0  0  0  0  0  0  0  0
  151.3346  140.9710  156.9636 C   0  0  0  0  0  0  0  0  0  0  0  0
  151.4340  139.7413  156.2788 C   0  0  0  0  0  0  0  0  0  0  0  0
  150.5879  139.5087  155.1751 C   0  0  0  0  0  0  0  0  0  0  0  0
  150.6615  138.2067  154.4050 C   0  0  0  0  0  0  0  0  0  0  0  0
  149.6194  138.1572  153.3671 N   0  3  0  0  0  0  0  0  0  0  0  0
  149.6776  140.5160  154.7966 C   0  0  0  0  0  0  0  0  0  0  0  0
  149.6528  141.7108  155.5423 C   0  0  0  0  0  0  0  0  0  0  0  0
  150.4597  141.9394  156.6000 N   0  0  0  0  0  0  0  0  0  0  0  0
  152.2858  140.0591  158.9582 C   0  0  0  0  0  0  0  0  0  0  0  0
  153.3109  140.3567  160.0656 C   0  0  0  0  0  0  0  0  0  0  0  0
  152.9399  141.5492  160.7519 O   0  0  0  0  0  0  0  0  0  0  0  0
  152.5410  144.8181  160.1133 H   0  0  0  0  0  0  0  0  0  0  0  0
  153.3178  144.0743  161.5077 H   0  0  0  0  0  0  0  0  0  0  0  0
  151.5995  143.8160  161.2167 H   0  0  0  0  0  0  0  0  0  0  0  0
  153.8886  142.8232  159.4409 H   0  0  0  0  0  0  0  0  0  0  0  0
  150.8626  142.3686  159.2166 H   0  0  0  0  0  0  0  0  0  0  0  0
  151.8504  143.2739  158.0806 H   0  0  0  0  0  0  0  0  0  0  0  0
  152.1446  138.9922  156.5978 H   0  0  0  0  0  0  0  0  0  0  0  0
  151.6418  138.1020  153.9390 H   0  0  0  0  0  0  0  0  0  0  0  0
  150.5348  137.3637  155.0853 H   0  0  0  0  0  0  0  0  0  0  0  0
  149.8400  138.8153  152.6334 H   0  0  0  0  0  0  0  0  0  0  0  0
  148.7271  138.3939  153.7769 H   0  0  0  0  0  0  0  0  0  0  0  0
  149.0115  140.3809  153.9571 H   0  0  0  0  0  0  0  0  0  0  0  0
  148.9672  142.5036  155.2821 H   0  0  0  0  0  0  0  0  0  0  0  0
  151.3149  139.8380  159.4042 H   0  0  0  0  0  0  0  0  0  0  0  0
  152.5903  139.1777  158.3925 H   0  0  0  0  0  0  0  0  0  0  0  0
  153.3444  139.5323  160.7780 H   0  0  0  0  0  0  0  0  0  0  0  0
  154.3147  140.4606  159.6503 H   0  0  0  0  0  0  0  0  0  0  0  0
  149.5745  137.2245  152.9823 H   0  0  0  0  0  0  0  0  0  0  0  0
  1  2  1  0  0  0  0
  1 16  1  0  0  0  0
  1 17  1  0  0  0  0
  1 18  1  0  0  0  0
  2 15  1  0  0  0  0
  2  3  1  0  0  0  0
  2 19  1  0  0  0  0
  3  4  1  0  0  0  0
  3 20  1  0  0  0  0
  3 21  1  0  0  0  0
  4  5  1  0  0  0  0
  4 13  1  0  0  0  0
  5 12  1  0  0  0  0
  5  6  2  0  0  0  0
  6  7  1  0  0  0  0
  6 22  1  0  0  0  0
  7  8  1  0  0  0  0
  7 10  2  0  0  0  0
  8  9  1  0  0  0  0
  8 23  1  0  0  0  0
  8 24  1  0  0  0  0
  9 25  1  0  0  0  0
  9 26  1  0  0  0  0
  9 33  1  0  0  0  0
 10 11  1  0  0  0  0
 10 27  1  0  0  0  0
 11 12  2  0  0  0  0
 11 28  1  0  0  0  0
 13 14  1  0  0  0  0
 13 29  1  0  0  0  0
 13 30  1  0  0  0  0
 14 15  1  0  0  0  0
 14 31  1  0  0  0  0
 14 32  1  0  0  0  0
M  CHG  1   9   1
M  END
> <s_m_source_file>
AV-unprocessed.smi

> <i_m_source_file_index>
3115

> <i_lp_mmshare_version>
43012

> <i_f3d_flags>
0

> <s_epik_input>
W0NIM11bQ0BASF0xW0NIMl1OKFtDSDJdW0NIMl1PMSljMltjSF1jKFtDSDJdW05IMl0pW2NIXVtjSF1uMg==

> <s_epik_cmdline>
J2VwaWtfcHl0aG9uJywgJy1waCcsICc3LjAnLCAnLXRuJywgJzgnLCAnLW1hJywgJzIwMCcsICctbWV0YWxfYmluZGluZycsICctaW1hZScsICc8aW5maWxlLm1hZT4nLCAnLW9tYWUnLCAnPG91dGZpbGUubWFlPic=

> <r_lp_tautomer_probability>
1

> <r_epik_Ionization_Penalty>
0.0768907

> <r_epik_Ionization_Penalty_Charging>
0.0768864

> <r_epik_Ionization_Penalty_Neutral>
4.339e-06

> <r_epik_State_Penalty>
0.0093217

> <r_epik_Charging_Adjusted_Penalty>
0.0862081

> <i_epik_Tot_Q>
1

> <i_epik_Tot_abs_Q>
1

> <r_epik_Metal_State_Penalty>
0.0096683

> <b_epik_Metal_Only>
0

> <s_lp_Force_Field>
OPLS_2005

> <r_lp_Energy>
14.5686

> <b_lp_Chiralities_Consistent>
1

> <s_lp_Variant>
AV-unprocessed.smi:3115-1

> <Gold.Version>
5.8.1

> <Gold.Id.Protein>
6NUR|6NUR_protein|mol2

> <Gold.PLP.Fitness>
42.7676

> <Gold.PLP.PLP>
-31.2854

> <Gold.PLP.part.hbond>
-2.2248

> <Gold.PLP.part.metal>
0.0000

> <Gold.PLP.part.buried>
-1.6156

> <Gold.PLP.part.nonpolar>
-25.9493

> <Gold.PLP.part.repulsive>
0.2013

> <Gold.PLP.ligand.clash>
0.0000

> <Gold.PLP.ligand.torsion>
0.2892

> <Gold.PLP.Chemscore.Hbond>
3.0000

> <Gold.PLP.Chemscore.CHOScore>
0.9873

> <Gold.PLP.Chemscore.Metal>
0.0000

> <Gold.Chemscore.Hbonds>
donor molecule, donor type, donor heavy atom, donor atom, acceptor molecule, acceptor atom, score
      L1  H     9    25       P1  7957  1.00
      L1  H     9    33       P1  7948  1.92
      L1  C    11    28       P1  8028  1.00

> <Gold.PLP.Chemscore.Internal.Correction>
0.0986

> <Gold.Rescore>
     Score         DG    S(hbond)    S(metal)    S(lipo)     H(rot)  DE(clash)    DE(int)     intcor
     18.04     -18.26       1.98        0.00      81.38       1.30       0.06       0.16       ----

> <Gold.Chemscore.Fitness>
18.0394

> <Gold.Chemscore.DG>
-18.2607

> <Gold.Chemscore.ZeroCoef>
-5.4800

> <Gold.Chemscore.Hbond>
1.9758

> <Gold.Chemscore.Metal>
0.0000

> <Gold.Chemscore.Lipo>
81.3753

> <Gold.Chemscore.Internal_Hbond>
0.0000

> <Gold.Chemscore.DEClash>
0.0564

> <Gold.Chemscore.DEInternal>
0.1648

> <Gold.Chemscore.Rot>
1.3045

> <Gold.Chemscore.Internal.Correction>
   9.000000E+99

> <Gold.Chemscore.Hbonds>
donor molecule, donor type, donor heavy atom, donor atom, acceptor molecule, acceptor atom, score
      L1  H     9    25       P1  7957  0.65
      L1  H     9    33       P1  7948  0.63

> <Gold.Chemscore.Hbond.Weighted>
-6.5992

> <Gold.Chemscore.Metal.Weighted>
-0.0000

> <Gold.Chemscore.Lipo.Weighted>
-9.5209

> <Gold.Chemscore.Internal_Hbond.Weighted>
0.0000

> <Gold.Chemscore.DEClash.Weighted>
0.0564

> <Gold.Chemscore.DEInternal.Weighted>
0.1648

> <Gold.Chemscore.Rot.Weighted>
3.3395

> <Gold.Chemscore.Internal.Correction.Weighted>
   9.000000E+99

> <Gold.Protein.RotatedTorsions>
[ 6907 6896 6895 6894 ] final  112.77 input  -60.11 | X-H torsion
[ 7974 7965 7964 7962 ] final  -47.38 input  175.53 | X-H torsion
[ 8008 7997 7996 7995 ] final  -42.20 input   59.86 | X-H torsion
[ 10167 10162 10161 10158 ] final  126.37 input  -65.29 | X-H torsion
[ 10718 10713 10712 10709 ] final  -83.56 input   66.30 | X-H torsion
[ 10763 10752 10751 10750 ] final  -52.73 input  -60.55 | X-H torsion
[ 11005 11000 10999 10996 ] final   89.36 input  -57.11 | X-H torsion

> <Gold.Protein.ActiveResidues>
 VAL166  LYS551  ARG553  GLY616  TRP617  ASP618  TYR619  PRO620  LYS621  CYS622 
 ASP623  PHE694  ASN695  SER759  ASP760  ASP761  ALA762  ILE779  LEU786  VAL792 
 PHE793  MET794  SER795  GLU796  ALA797  LYS798  CYS799  TRP800  GLU811  SER814 

> <Gold.Protein.RotatedAtoms>
  152.4898  133.8470  159.7181 H   0  0  0  0  0  0  0  0  0  0  0  0  # atno 6907 bound_to 6896
  150.9017  133.7100  159.2884 H   0  0  0  0  0  0  0  0  0  0  0  0  # atno 6908 bound_to 6896
  151.4539  135.1036  159.9758 H   0  0  0  0  0  0  0  0  0  0  0  0  # atno 6909 bound_to 6896
  145.9622  140.7468  142.9452 H   0  0  0  0  0  0  0  0  0  0  0  0  # atno 7974 bound_to 7965
  154.4000  140.1480  156.3315 H   0  0  0  0  0  0  0  0  0  0  0  0  # atno 8008 bound_to 7997
  155.8439  140.3461  155.5628 H   0  0  0  0  0  0  0  0  0  0  0  0  # atno 8009 bound_to 7997
  155.8058  140.0876  157.1922 H   0  0  0  0  0  0  0  0  0  0  0  0  # atno 8010 bound_to 7997
  139.5634  144.6896  151.3977 H   0  0  0  0  0  0  0  0  0  0  0  0  # atno 10167 bound_to 10162
  156.0017  130.4669  150.4276 H   0  0  0  0  0  0  0  0  0  0  0  0  # atno 10718 bound_to 10713
  154.1475  135.6495  153.4956 H   0  0  0  0  0  0  0  0  0  0  0  0  # atno 10763 bound_to 10752
  153.0147  135.5330  154.6842 H   0  0  0  0  0  0  0  0  0  0  0  0  # atno 10764 bound_to 10752
  154.6120  135.2955  155.0392 H   0  0  0  0  0  0  0  0  0  0  0  0  # atno 10765 bound_to 10752
  139.8877  134.8546  156.3131 H   0  0  0  0  0  0  0  0  0  0  0  0  # atno 11005 bound_to 11000
  144.6817  140.2609  143.7319 LP  0  0  0  0  0  0  0  0  0  0  0  0  # atno 17320 bound_to 7965
  145.8024  139.1970  143.2040 LP  0  0  0  0  0  0  0  0  0  0  0  0  # atno 17321 bound_to 7965
  140.6916  143.7847  150.7264 LP  0  0  0  0  0  0  0  0  0  0  0  0  # atno 17342 bound_to 10162
  140.1331  143.4508  152.2241 LP  0  0  0  0  0  0  0  0  0  0  0  0  # atno 17343 bound_to 10162
  157.2327  131.0508  151.2483 LP  0  0  0  0  0  0  0  0  0  0  0  0  # atno 17370 bound_to 10713
  157.3695  130.7174  149.6555 LP  0  0  0  0  0  0  0  0  0  0  0  0  # atno 17371 bound_to 10713
  140.9837  133.7251  156.0710 LP  0  0  0  0  0  0  0  0  0  0  0  0  # atno 17394 bound_to 11000
  140.7716  134.3826  157.5506 LP  0  0  0  0  0  0  0  0  0  0  0  0  # atno 17395 bound_to 11000

$$$$
