AV-unprocessed.smi:2934|AV-procd|sdf|11254|dock10
  -GOLD-   2272016143D 1   1.00000     0.00000
 Structure written by MMmdl.
 43 44  0  0  0  0  0  0  0  0  1 V2000
  152.4352  141.2447  158.3359 C   0  0  0  0  0  0  0  0  0  0  0  0
  153.0880  140.9518  159.6166 N   0  0  0  0  0  0  0  0  0  0  0  0
  153.7014  139.7462  159.7649 C   0  0  0  0  0  0  0  0  0  0  0  0
  154.0579  139.0529  158.8099 O   0  0  0  0  0  0  0  0  0  0  0  0
  153.9298  139.3718  161.0376 N   0  0  0  0  0  0  0  0  0  0  0  0
  154.6047  138.1477  161.4524 C   0  0  0  0  0  0  0  0  0  0  0  0
  153.7777  137.3738  162.4978 C   0  0  0  0  0  0  0  0  0  0  0  0
  154.4493  136.0750  162.9538 C   0  0  0  0  0  0  0  0  0  0  0  0
  155.5049  135.6997  162.4427 O   0  0  0  0  0  0  0  0  0  0  0  0
  153.8184  135.3939  163.9227 N   0  0  0  0  0  0  0  0  0  0  0  0
  154.2686  134.1261  164.4918 C   0  0  0  0  0  0  0  0  0  0  0  0
  154.4459  133.0509  163.4011 C   0  0  0  0  0  0  0  0  0  0  0  0
  153.2778  132.0809  163.5754 C   0  0  0  0  0  0  0  0  0  0  0  0
  152.9943  132.1086  165.0738 C   0  0  0  0  0  0  0  0  0  0  0  0
  153.2239  133.5666  165.4775 C   0  0  0  0  0  0  0  0  0  0  0  0
  153.0063  141.9469  160.6403 C   0  0  0  0  0  0  0  0  0  0  0  0
  152.4109  143.1845  160.2953 C   0  0  0  0  0  0  0  0  0  0  0  0
  152.2901  144.1911  161.2724 C   0  0  0  0  0  0  0  0  0  0  0  0
  152.7622  143.9346  162.5718 C   0  0  0  0  0  0  0  0  0  0  0  0
  153.3341  142.6761  162.8339 C   0  0  0  0  0  0  0  0  0  0  0  0
  153.4516  141.7087  161.9000 N   0  0  0  0  0  0  0  0  0  0  0  0
  151.8749  142.1800  158.3646 H   0  0  0  0  0  0  0  0  0  0  0  0
  151.7249  140.4607  158.0677 H   0  0  0  0  0  0  0  0  0  0  0  0
  153.1754  141.3243  157.5385 H   0  0  0  0  0  0  0  0  0  0  0  0
  153.6084  139.9851  161.7728 H   0  0  0  0  0  0  0  0  0  0  0  0
  154.7528  137.5366  160.5610 H   0  0  0  0  0  0  0  0  0  0  0  0
  155.5985  138.3815  161.8387 H   0  0  0  0  0  0  0  0  0  0  0  0
  153.5977  137.9973  163.3741 H   0  0  0  0  0  0  0  0  0  0  0  0
  152.7994  137.1321  162.0791 H   0  0  0  0  0  0  0  0  0  0  0  0
  152.9587  135.7771  164.2882 H   0  0  0  0  0  0  0  0  0  0  0  0
  155.2158  134.2766  165.0135 H   0  0  0  0  0  0  0  0  0  0  0  0
  154.4922  133.4575  162.3898 H   0  0  0  0  0  0  0  0  0  0  0  0
  155.3823  132.5185  163.5731 H   0  0  0  0  0  0  0  0  0  0  0  0
  152.4082  132.4497  163.0297 H   0  0  0  0  0  0  0  0  0  0  0  0
  153.5037  131.0796  163.2076 H   0  0  0  0  0  0  0  0  0  0  0  0
  151.9914  131.7577  165.3187 H   0  0  0  0  0  0  0  0  0  0  0  0
  153.7077  131.4668  165.5929 H   0  0  0  0  0  0  0  0  0  0  0  0
  153.5505  133.6524  166.5143 H   0  0  0  0  0  0  0  0  0  0  0  0
  152.2817  134.1109  165.3927 H   0  0  0  0  0  0  0  0  0  0  0  0
  152.0551  143.3670  159.2915 H   0  0  0  0  0  0  0  0  0  0  0  0
  151.8425  145.1433  161.0282 H   0  0  0  0  0  0  0  0  0  0  0  0
  152.6867  144.6819  163.3478 H   0  0  0  0  0  0  0  0  0  0  0  0
  153.7070  142.4387  163.8193 H   0  0  0  0  0  0  0  0  0  0  0  0
  1  2  1  0  0  0  0
  1 22  1  0  0  0  0
  1 23  1  0  0  0  0
  1 24  1  0  0  0  0
  2  3  1  0  0  0  0
  2 16  1  0  0  0  0
  3  4  2  0  0  0  0
  3  5  1  0  0  0  0
  5  6  1  0  0  0  0
  5 25  1  0  0  0  0
  6  7  1  0  0  0  0
  6 26  1  0  0  0  0
  6 27  1  0  0  0  0
  7  8  1  0  0  0  0
  7 28  1  0  0  0  0
  7 29  1  0  0  0  0
  8  9  2  0  0  0  0
  8 10  1  0  0  0  0
 10 11  1  0  0  0  0
 10 30  1  0  0  0  0
 11 15  1  0  0  0  0
 11 12  1  0  0  0  0
 11 31  1  0  0  0  0
 12 13  1  0  0  0  0
 12 32  1  0  0  0  0
 12 33  1  0  0  0  0
 13 14  1  0  0  0  0
 13 34  1  0  0  0  0
 13 35  1  0  0  0  0
 14 15  1  0  0  0  0
 14 36  1  0  0  0  0
 14 37  1  0  0  0  0
 15 38  1  0  0  0  0
 15 39  1  0  0  0  0
 16 21  1  0  0  0  0
 16 17  2  0  0  0  0
 17 18  1  0  0  0  0
 17 40  1  0  0  0  0
 18 19  2  0  0  0  0
 18 41  1  0  0  0  0
 19 20  1  0  0  0  0
 19 42  1  0  0  0  0
 20 21  2  0  0  0  0
 20 43  1  0  0  0  0
M  END
> <s_m_source_file>
AV-unprocessed.smi

> <i_m_source_file_index>
2934

> <i_lp_mmshare_version>
43012

> <i_f3d_flags>
0

> <s_epik_input>
bjFbY0hdW2NIXVtjSF1bY0hdYzFOKFtDSDNdKUMoPU8pW05IXVtDSDJdW0NIMl1DKD1PKVtOSF1bQ0hdMltDSDJdW0NIMl1bQ0gyXVtDSDJdMg==

> <s_epik_cmdline>
J2VwaWtfcHl0aG9uJywgJy1waCcsICc3LjAnLCAnLXRuJywgJzgnLCAnLW1hJywgJzIwMCcsICctbWV0YWxfYmluZGluZycsICctaW1hZScsICc8aW5maWxlLm1hZT4nLCAnLW9tYWUnLCAnPG91dGZpbGUubWFlPic=

> <r_epik_Ionization_Penalty>
0.404648

> <r_epik_Ionization_Penalty_Charging>
0

> <r_epik_Ionization_Penalty_Neutral>
0.404648

> <r_epik_State_Penalty>
0.40421

> <r_epik_Charging_Adjusted_Penalty>
0.40421

> <i_epik_Tot_Q>
0

> <i_epik_Tot_abs_Q>
0

> <r_epik_Metal_State_Penalty>
0.238116

> <b_epik_Metal_Only>
0

> <s_lp_Force_Field>
OPLS_2005

> <r_lp_Energy>
32.7735

> <b_lp_Chiralities_Consistent>
1

> <s_lp_Variant>
AV-unprocessed.smi:2934-1

> <Gold.Version>
5.8.1

> <Gold.Id.Protein>
6NUR|6NUR_protein|mol2

> <Gold.PLP.Fitness>
48.6661

> <Gold.PLP.PLP>
-46.0351

> <Gold.PLP.part.hbond>
-1.0000

> <Gold.PLP.part.metal>
0.0000

> <Gold.PLP.part.buried>
-4.7055

> <Gold.PLP.part.nonpolar>
-39.3830

> <Gold.PLP.part.repulsive>
0.0663

> <Gold.PLP.ligand.clash>
0.0000

> <Gold.PLP.ligand.torsion>
0.2511

> <Gold.PLP.Chemscore.Hbond>
1.0000

> <Gold.PLP.Chemscore.CHOScore>
0.0000

> <Gold.PLP.Chemscore.Metal>
0.0000

> <Gold.Chemscore.Hbonds>
donor molecule, donor type, donor heavy atom, donor atom, acceptor molecule, acceptor atom, score
      P1  H  7997  8010       L1     4  1.00

> <Gold.PLP.Chemscore.Internal.Correction>
0.1332

> <Gold.Rescore>
     Score         DG    S(hbond)    S(metal)    S(lipo)     H(rot)  DE(clash)    DE(int)     intcor
     14.62     -16.88       1.00        0.00     106.64       1.72       0.27       1.99       ----

> <Gold.Chemscore.Fitness>
14.6161

> <Gold.Chemscore.DG>
-16.8751

> <Gold.Chemscore.ZeroCoef>
-5.4800

> <Gold.Chemscore.Hbond>
0.9961

> <Gold.Chemscore.Metal>
0.0000

> <Gold.Chemscore.Lipo>
106.6368

> <Gold.Chemscore.Internal_Hbond>
0.0000

> <Gold.Chemscore.DEClash>
0.2739

> <Gold.Chemscore.DEInternal>
1.9850

> <Gold.Chemscore.Rot>
1.7220

> <Gold.Chemscore.Internal.Correction>
   9.000000E+99

> <Gold.Chemscore.Hbonds>
donor molecule, donor type, donor heavy atom, donor atom, acceptor molecule, acceptor atom, score
      P1  H  7997  8010       L1     4  0.89

> <Gold.Chemscore.Hbond.Weighted>
-3.3268

> <Gold.Chemscore.Metal.Weighted>
-0.0000

> <Gold.Chemscore.Lipo.Weighted>
-12.4765

> <Gold.Chemscore.Internal_Hbond.Weighted>
0.0000

> <Gold.Chemscore.DEClash.Weighted>
0.2739

> <Gold.Chemscore.DEInternal.Weighted>
1.9850

> <Gold.Chemscore.Rot.Weighted>
4.4083

> <Gold.Chemscore.Internal.Correction.Weighted>
   9.000000E+99

> <Gold.Protein.RotatedTorsions>
[ 6907 6896 6895 6894 ] final  -31.01 input  -60.11 | X-H torsion
[ 7974 7965 7964 7962 ] final  -39.44 input  175.53 | X-H torsion
[ 8008 7997 7996 7995 ] final   20.50 input   59.86 | X-H torsion
[ 10167 10162 10161 10158 ] final  118.81 input  -65.29 | X-H torsion
[ 10718 10713 10712 10709 ] final -143.00 input   66.30 | X-H torsion
[ 10763 10752 10751 10750 ] final  -43.17 input  -60.55 | X-H torsion
[ 11005 11000 10999 10996 ] final   -2.34 input  -57.11 | X-H torsion

> <Gold.Protein.ActiveResidues>
 VAL166  LYS551  ARG553  GLY616  TRP617  ASP618  TYR619  PRO620  LYS621  CYS622 
 ASP623  PHE694  ASN695  SER759  ASP760  ASP761  ALA762  ILE779  LEU786  VAL792 
 PHE793  MET794  SER795  GLU796  ALA797  LYS798  CYS799  TRP800  GLU811  SER814 

> <Gold.Protein.RotatedAtoms>
  151.0978  134.9954  159.8433 H   0  0  0  0  0  0  0  0  0  0  0  0  # atno 6907 bound_to 6896
  152.5434  134.1987  159.8713 H   0  0  0  0  0  0  0  0  0  0  0  0  # atno 6908 bound_to 6896
  151.2028  133.4557  159.2630 H   0  0  0  0  0  0  0  0  0  0  0  0  # atno 6909 bound_to 6896
  146.0396  140.6626  142.9093 H   0  0  0  0  0  0  0  0  0  0  0  0  # atno 7974 bound_to 7965
  154.9365  140.3047  155.5142 H   0  0  0  0  0  0  0  0  0  0  0  0  # atno 8008 bound_to 7997
  156.2999  140.2344  156.4367 H   0  0  0  0  0  0  0  0  0  0  0  0  # atno 8009 bound_to 7997
  154.8187  140.0424  157.1383 H   0  0  0  0  0  0  0  0  0  0  0  0  # atno 8010 bound_to 7997
  139.6087  144.7076  151.2893 H   0  0  0  0  0  0  0  0  0  0  0  0  # atno 10167 bound_to 10162
  156.3527  130.7696  151.1851 H   0  0  0  0  0  0  0  0  0  0  0  0  # atno 10718 bound_to 10713
  153.9912  135.6705  153.4754 H   0  0  0  0  0  0  0  0  0  0  0  0  # atno 10763 bound_to 10752
  153.0704  135.4977  154.8289 H   0  0  0  0  0  0  0  0  0  0  0  0  # atno 10764 bound_to 10752
  154.7108  135.3097  154.9162 H   0  0  0  0  0  0  0  0  0  0  0  0  # atno 10765 bound_to 10752
  140.6573  133.9351  155.8415 H   0  0  0  0  0  0  0  0  0  0  0  0  # atno 11005 bound_to 11000
  144.7068  140.3883  143.7112 LP  0  0  0  0  0  0  0  0  0  0  0  0  # atno 17320 bound_to 7965
  145.6907  139.1638  143.2648 LP  0  0  0  0  0  0  0  0  0  0  0  0  # atno 17321 bound_to 7965
  140.7304  143.6882  150.7944 LP  0  0  0  0  0  0  0  0  0  0  0  0  # atno 17342 bound_to 10162
  140.0472  143.5286  152.2690 LP  0  0  0  0  0  0  0  0  0  0  0  0  # atno 17343 bound_to 10162
  157.7463  131.0423  150.4687 LP  0  0  0  0  0  0  0  0  0  0  0  0  # atno 17370 bound_to 10713
  156.4885  130.4090  149.6420 LP  0  0  0  0  0  0  0  0  0  0  0  0  # atno 17371 bound_to 10713
  141.0491  134.0510  157.3806 LP  0  0  0  0  0  0  0  0  0  0  0  0  # atno 17394 bound_to 11000
  139.9025  135.0169  156.7334 LP  0  0  0  0  0  0  0  0  0  0  0  0  # atno 17395 bound_to 11000

$$$$
