AV-unprocessed.smi:630|AV-procd|sdf|3122|dock2
  -GOLD-   22720 0 43D 1   1.00000     0.00000
 Structure written by MMmdl.
 36 37  0  0  0  0  0  0  0  0  2 V2000
  149.7388  138.0475  154.1277 N   0  0  0  0  0  0  0  0  0  0  0  0
  150.8788  137.9961  154.8219 C   0  0  0  0  0  0  0  0  0  0  0  0
  151.5987  136.9990  154.8133 O   0  0  0  0  0  0  0  0  0  0  0  0
  151.2497  139.2378  155.6544 C   0  0  1  0  0  0  0  0  0  0  0  0
  150.3205  140.4191  155.2918 C   0  0  0  0  0  0  0  0  0  0  0  0
  150.6780  141.7568  155.9639 C   0  0  0  0  0  0  0  0  0  0  0  0
  150.2516  141.8201  157.4389 C   0  0  0  0  0  0  0  0  0  0  0  0
  151.2419  141.2101  158.4479 C   0  0  0  0  0  0  0  0  0  0  0  0
  152.0569  139.9862  157.9821 C   0  0  0  0  0  0  0  0  0  0  0  0
  151.3077  138.9028  157.1711 C   0  0  1  0  0  0  0  0  0  0  0  0
  149.9887  138.5963  157.7330 N   0  0  0  0  0  0  0  0  0  0  0  0
  149.7001  137.6001  158.5826 C   0  0  0  0  0  0  0  0  0  0  0  0
  150.5889  136.8287  158.9513 O   0  0  0  0  0  0  0  0  0  0  0  0
  148.4015  137.5639  158.9586 N   0  5  0  0  0  0  0  0  0  0  0  0
  148.0160  136.7586  159.9616 C   0  0  0  0  0  0  0  0  0  0  0  0
  147.6063  137.2176  161.1495 N   0  0  0  0  0  0  0  0  0  0  0  0
  147.2566  136.2055  162.0451 C   0  0  0  0  0  0  0  0  0  0  0  0
  147.4109  134.9461  161.5299 C   0  0  0  0  0  0  0  0  0  0  0  0
  148.0073  134.9939  159.8955 S   0  0  0  0  0  0  0  0  0  0  0  0
  149.4635  137.2586  153.5611 H   0  0  0  0  0  0  0  0  0  0  0  0
  149.1631  138.8759  154.1638 H   0  0  0  0  0  0  0  0  0  0  0  0
  152.2566  139.5242  155.3450 H   0  0  0  0  0  0  0  0  0  0  0  0
  150.3634  140.5690  154.2120 H   0  0  0  0  0  0  0  0  0  0  0  0
  149.2801  140.1708  155.5073 H   0  0  0  0  0  0  0  0  0  0  0  0
  151.7375  141.9880  155.8492 H   0  0  0  0  0  0  0  0  0  0  0  0
  150.1436  142.5439  155.4307 H   0  0  0  0  0  0  0  0  0  0  0  0
  150.0908  142.8621  157.7169 H   0  0  0  0  0  0  0  0  0  0  0  0
  149.2765  141.3448  157.5521 H   0  0  0  0  0  0  0  0  0  0  0  0
  151.9486  141.9809  158.7563 H   0  0  0  0  0  0  0  0  0  0  0  0
  150.6889  140.9497  159.3514 H   0  0  0  0  0  0  0  0  0  0  0  0
  152.9187  140.3287  157.4087 H   0  0  0  0  0  0  0  0  0  0  0  0
  152.4847  139.5216  158.8714 H   0  0  0  0  0  0  0  0  0  0  0  0
  151.9099  137.9954  157.2547 H   0  0  0  0  0  0  0  0  0  0  0  0
  149.2269  139.1967  157.4532 H   0  0  0  0  0  0  0  0  0  0  0  0
  146.9071  136.4731  163.0309 H   0  0  0  0  0  0  0  0  0  0  0  0
  147.2139  133.9990  162.0083 H   0  0  0  0  0  0  0  0  0  0  0  0
  1  2  1  0  0  0  0
  1 20  1  0  0  0  0
  1 21  1  0  0  0  0
  2  3  2  0  0  0  0
  2  4  1  0  0  0  0
  4 10  1  0  0  0  0
  4  5  1  0  0  0  0
  4 22  1  0  0  0  0
  5  6  1  0  0  0  0
  5 23  1  0  0  0  0
  5 24  1  0  0  0  0
  6  7  1  0  0  0  0
  6 25  1  0  0  0  0
  6 26  1  0  0  0  0
  7  8  1  0  0  0  0
  7 27  1  0  0  0  0
  7 28  1  0  0  0  0
  8  9  1  0  0  0  0
  8 29  1  0  0  0  0
  8 30  1  0  0  0  0
  9 10  1  0  0  0  0
  9 31  1  0  0  0  0
  9 32  1  0  0  0  0
 10 11  1  0  0  0  0
 10 33  1  0  0  0  0
 11 12  1  0  0  0  0
 11 34  1  0  0  0  0
 12 13  2  0  0  0  0
 12 14  1  0  0  0  0
 14 15  1  0  0  0  0
 15 19  1  0  0  0  0
 15 16  2  0  0  0  0
 16 17  1  0  0  0  0
 17 18  2  0  0  0  0
 17 35  1  0  0  0  0
 18 19  1  0  0  0  0
 18 36  1  0  0  0  0
M  CHG  1  14  -1
M  END
> <s_m_source_file>
AV-unprocessed.smi

> <i_m_source_file_index>
630

> <i_lp_mmshare_version>
43012

> <i_f3d_flags>
0

> <s_epik_input>
W05IMl1DKD1PKVtDQEBIXTFbQ0gyXVtDSDJdW0NIMl1bQ0gyXVtDSDJdW0NASF0xW05IXUMoPU8pW05IXWMybltjSF1bY0hdczI=

> <s_epik_cmdline>
J2VwaWtfcHl0aG9uJywgJy1waCcsICc3LjAnLCAnLXRuJywgJzgnLCAnLW1hJywgJzIwMCcsICctbWV0YWxfYmluZGluZycsICctaW1hZScsICc8aW5maWxlLm1hZT4nLCAnLW9tYWUnLCAnPG91dGZpbGUubWFlPic=

> <r_lp_tautomer_probability>
0.999

> <r_epik_Ionization_Penalty>
8.29606

> <r_epik_Ionization_Penalty_Charging>
6.67551

> <r_epik_Ionization_Penalty_Neutral>
1.62055

> <r_epik_State_Penalty>
6.67568

> <r_epik_Charging_Adjusted_Penalty>
13.3512

> <i_epik_Tot_Q>
-1

> <i_epik_Tot_abs_Q>
1

> <r_epik_Metal_State_Penalty>
2.59802

> <b_epik_Metal_Only>
1

> <s_lp_Force_Field>
OPLS_2005

> <r_lp_Energy>
11.1014

> <b_lp_Chiralities_Consistent>
1

> <s_lp_Variant>
AV-unprocessed.smi:630-6

> <Gold.Version>
5.8.1

> <Gold.Id.Protein>
6NUR|6NUR_protein|mol2

> <Gold.PLP.Fitness>
44.5800

> <Gold.PLP.PLP>
-33.7636

> <Gold.PLP.part.hbond>
-5.0591

> <Gold.PLP.part.metal>
0.0000

> <Gold.PLP.part.buried>
-4.9540

> <Gold.PLP.part.nonpolar>
-23.2922

> <Gold.PLP.part.repulsive>
0.2319

> <Gold.PLP.ligand.clash>
1.6160

> <Gold.PLP.ligand.torsion>
1.0626

> <Gold.PLP.Chemscore.Hbond>
4.8080

> <Gold.PLP.Chemscore.CHOScore>
0.0000

> <Gold.PLP.Chemscore.Metal>
0.0000

> <Gold.Chemscore.Hbonds>
donor molecule, donor type, donor heavy atom, donor atom, acceptor molecule, acceptor atom, score
      L1  H     1    20       P1  7948  1.00
      P1  H  6896  6909       L1    13  0.99
      P1  H  6931  6943       L1    16  0.90
      P1  H  6934  6947       L1    16  0.91
      P1  H 10752 10763       L1     3  1.00

> <Gold.PLP.Chemscore.Internal.Correction>
0.1336

> <Gold.Rescore>
     Score         DG    S(hbond)    S(metal)    S(lipo)     H(rot)  DE(clash)    DE(int)     intcor
     21.21     -22.31       3.95        0.00      63.87       1.50       0.05       1.05       ----

> <Gold.Chemscore.Fitness>
21.2065

> <Gold.Chemscore.DG>
-22.3056

> <Gold.Chemscore.ZeroCoef>
-5.4800

> <Gold.Chemscore.Hbond>
3.9531

> <Gold.Chemscore.Metal>
0.0000

> <Gold.Chemscore.Lipo>
63.8750

> <Gold.Chemscore.Internal_Hbond>
0.0000

> <Gold.Chemscore.DEClash>
0.0458

> <Gold.Chemscore.DEInternal>
1.0533

> <Gold.Chemscore.Rot>
1.5044

> <Gold.Chemscore.Internal.Correction>
   9.000000E+99

> <Gold.Chemscore.Hbonds>
donor molecule, donor type, donor heavy atom, donor atom, acceptor molecule, acceptor atom, score
      L1  H     1    20       P1  7948  0.87
      P1  H  6896  6909       L1    13  0.92
      P1  H  6931  6943       L1    16  0.40
      P1  H  6934  6947       L1    16  0.53
      P1  H 10752 10763       L1     3  0.97

> <Gold.Chemscore.Hbond.Weighted>
-13.2034

> <Gold.Chemscore.Metal.Weighted>
-0.0000

> <Gold.Chemscore.Lipo.Weighted>
-7.4734

> <Gold.Chemscore.Internal_Hbond.Weighted>
0.0000

> <Gold.Chemscore.DEClash.Weighted>
0.0458

> <Gold.Chemscore.DEInternal.Weighted>
1.0533

> <Gold.Chemscore.Rot.Weighted>
3.8512

> <Gold.Chemscore.Internal.Correction.Weighted>
   9.000000E+99

> <Gold.Protein.RotatedTorsions>
[ 6907 6896 6895 6894 ] final   88.22 input  -60.11 | X-H torsion
[ 7974 7965 7964 7962 ] final -149.12 input  175.53 | X-H torsion
[ 8008 7997 7996 7995 ] final  124.04 input   59.86 | X-H torsion
[ 10167 10162 10161 10158 ] final  -85.68 input  -65.29 | X-H torsion
[ 10718 10713 10712 10709 ] final -151.40 input   66.30 | X-H torsion
[ 10763 10752 10751 10750 ] final   43.76 input  -60.55 | X-H torsion
[ 11005 11000 10999 10996 ] final -100.05 input  -57.11 | X-H torsion

> <Gold.Protein.ActiveResidues>
 VAL166  LYS551  ARG553  GLY616  TRP617  ASP618  TYR619  PRO620  LYS621  CYS622 
 ASP623  PHE694  ASN695  SER759  ASP760  ASP761  ALA762  ILE779  LEU786  VAL792 
 PHE793  MET794  SER795  GLU796  ALA797  LYS798  CYS799  TRP800  GLU811  SER814 

> <Gold.Protein.RotatedAtoms>
  152.5422  134.2155  159.8766 H   0  0  0  0  0  0  0  0  0  0  0  0  # atno 6907 bound_to 6896
  151.2135  133.4535  159.2606 H   0  0  0  0  0  0  0  0  0  0  0  0  # atno 6908 bound_to 6896
  151.0874  134.9908  159.8441 H   0  0  0  0  0  0  0  0  0  0  0  0  # atno 6909 bound_to 6896
  144.7987  140.5107  143.5722 H   0  0  0  0  0  0  0  0  0  0  0  0  # atno 7974 bound_to 7965
  156.2787  140.2749  156.1723 H   0  0  0  0  0  0  0  0  0  0  0  0  # atno 8008 bound_to 7997
  155.0641  140.0387  157.2604 H   0  0  0  0  0  0  0  0  0  0  0  0  # atno 8009 bound_to 7997
  154.7093  140.2665  155.6650 H   0  0  0  0  0  0  0  0  0  0  0  0  # atno 8010 bound_to 7997
  140.4014  143.2661  151.9137 H   0  0  0  0  0  0  0  0  0  0  0  0  # atno 10167 bound_to 10162
  156.4588  130.8203  151.2434 H   0  0  0  0  0  0  0  0  0  0  0  0  # atno 10718 bound_to 10713
  152.9854  135.6091  154.3164 H   0  0  0  0  0  0  0  0  0  0  0  0  # atno 10763 bound_to 10752
  154.2877  135.2775  155.2671 H   0  0  0  0  0  0  0  0  0  0  0  0  # atno 10764 bound_to 10752
  154.4981  135.5874  153.6566 H   0  0  0  0  0  0  0  0  0  0  0  0  # atno 10765 bound_to 10752
  141.1285  133.8369  157.1052 H   0  0  0  0  0  0  0  0  0  0  0  0  # atno 11005 bound_to 11000
  145.5607  139.1479  143.3343 LP  0  0  0  0  0  0  0  0  0  0  0  0  # atno 17320 bound_to 7965
  146.2263  140.5743  142.8995 LP  0  0  0  0  0  0  0  0  0  0  0  0  # atno 17321 bound_to 7965
  139.4784  144.5629  151.8210 LP  0  0  0  0  0  0  0  0  0  0  0  0  # atno 17342 bound_to 10162
  140.4735  144.1552  150.5921 LP  0  0  0  0  0  0  0  0  0  0  0  0  # atno 17343 bound_to 10162
  157.7499  131.0114  150.3343 LP  0  0  0  0  0  0  0  0  0  0  0  0  # atno 17370 bound_to 10713
  156.3738  130.3868  149.7155 LP  0  0  0  0  0  0  0  0  0  0  0  0  # atno 17371 bound_to 10713
  140.0309  134.9901  157.0778 LP  0  0  0  0  0  0  0  0  0  0  0  0  # atno 17394 bound_to 11000
  140.4287  134.1803  155.7167 LP  0  0  0  0  0  0  0  0  0  0  0  0  # atno 17395 bound_to 11000

$$$$
