AV-unprocessed.smi:3193|AV-procd|sdf|12208|dock5
  -GOLD-   2272018 43D 1   1.00000     0.00000
 Structure written by MMmdl.
 41 42  0  0  0  0  0  0  0  0  3 V2000
  153.3390  141.3519  160.4209 C   0  0  0  0  0  0  0  0  0  0  0  0
  152.3349  142.3463  159.8072 C   0  0  1  0  0  0  0  0  0  0  0  0
  152.8202  143.7893  160.0613 C   0  0  0  0  0  0  0  0  0  0  0  0
  151.8331  144.8338  159.5236 C   0  0  0  0  0  0  0  0  0  0  0  0
  151.5678  144.6144  158.0304 C   0  0  0  0  0  0  0  0  0  0  0  0
  151.0726  143.1852  157.7684 C   0  0  0  0  0  0  0  0  0  0  0  0
  152.0615  142.1187  158.2896 C   0  0  2  0  0  0  0  0  0  0  0  0
  151.5157  140.7105  157.9622 C   0  0  0  0  0  0  0  0  0  0  0  0
  151.2696  140.5405  156.5167 N   0  3  0  0  0  0  0  0  0  0  0  0
  149.9339  140.9806  156.0677 C   0  0  0  0  0  0  0  0  0  0  0  0
  149.6350  140.4974  154.6390 C   0  0  0  0  0  0  0  0  0  0  0  0
  148.2977  140.8956  154.1833 N   0  0  0  0  0  0  0  0  0  0  0  0
  147.7468  142.1512  154.2238 C   0  0  0  0  0  0  0  0  0  0  0  0
  146.4868  142.0435  153.6939 C   0  0  0  0  0  0  0  0  0  0  0  0
  146.3235  140.7293  153.3466 N   0  3  0  0  0  0  0  0  0  0  0  0
  147.4274  140.0339  153.6392 C   0  0  0  0  0  0  0  0  0  0  0  0
  154.2769  141.3377  159.8646 H   0  0  0  0  0  0  0  0  0  0  0  0
  152.9413  140.3379  160.4476 H   0  0  0  0  0  0  0  0  0  0  0  0
  153.5721  141.6188  161.4522 H   0  0  0  0  0  0  0  0  0  0  0  0
  151.3919  142.2217  160.3424 H   0  0  0  0  0  0  0  0  0  0  0  0
  152.9643  143.9528  161.1299 H   0  0  0  0  0  0  0  0  0  0  0  0
  153.7952  143.9379  159.5946 H   0  0  0  0  0  0  0  0  0  0  0  0
  150.8953  144.7728  160.0773 H   0  0  0  0  0  0  0  0  0  0  0  0
  152.2252  145.8378  159.6889 H   0  0  0  0  0  0  0  0  0  0  0  0
  150.8317  145.3357  157.6742 H   0  0  0  0  0  0  0  0  0  0  0  0
  152.4810  144.7983  157.4631 H   0  0  0  0  0  0  0  0  0  0  0  0
  150.0985  143.0474  158.2400 H   0  0  0  0  0  0  0  0  0  0  0  0
  150.9141  143.0572  156.6968 H   0  0  0  0  0  0  0  0  0  0  0  0
  152.9963  142.2577  157.7438 H   0  0  0  0  0  0  0  0  0  0  0  0
  152.2065  139.9469  158.3228 H   0  0  0  0  0  0  0  0  0  0  0  0
  150.5662  140.5411  158.4722 H   0  0  0  0  0  0  0  0  0  0  0  0
  151.9759  141.0499  156.0043 H   0  0  0  0  0  0  0  0  0  0  0  0
  149.1735  140.6031  156.7530 H   0  0  0  0  0  0  0  0  0  0  0  0
  149.8875  142.0694  156.1100 H   0  0  0  0  0  0  0  0  0  0  0  0
  150.3565  140.9224  153.9402 H   0  0  0  0  0  0  0  0  0  0  0  0
  149.7248  139.4121  154.5685 H   0  0  0  0  0  0  0  0  0  0  0  0
  148.2768  143.0070  154.6173 H   0  0  0  0  0  0  0  0  0  0  0  0
  145.7156  142.7844  153.5391 H   0  0  0  0  0  0  0  0  0  0  0  0
  147.5808  138.9826  153.4701 H   0  0  0  0  0  0  0  0  0  0  0  0
  151.3634  139.5572  156.3062 H   0  0  0  0  0  0  0  0  0  0  0  0
  145.4912  140.3400  152.9208 H   0  0  0  0  0  0  0  0  0  0  0  0
  1  2  1  0  0  0  0
  1 17  1  0  0  0  0
  1 18  1  0  0  0  0
  1 19  1  0  0  0  0
  2  7  1  0  0  0  0
  2  3  1  0  0  0  0
  2 20  1  0  0  0  0
  3  4  1  0  0  0  0
  3 21  1  0  0  0  0
  3 22  1  0  0  0  0
  4  5  1  0  0  0  0
  4 23  1  0  0  0  0
  4 24  1  0  0  0  0
  5  6  1  0  0  0  0
  5 25  1  0  0  0  0
  5 26  1  0  0  0  0
  6  7  1  0  0  0  0
  6 27  1  0  0  0  0
  6 28  1  0  0  0  0
  7  8  1  0  0  0  0
  7 29  1  0  0  0  0
  8  9  1  0  0  0  0
  8 30  1  0  0  0  0
  8 31  1  0  0  0  0
  9 10  1  0  0  0  0
  9 32  1  0  0  0  0
  9 40  1  0  0  0  0
 10 11  1  0  0  0  0
 10 33  1  0  0  0  0
 10 34  1  0  0  0  0
 11 12  1  0  0  0  0
 11 35  1  0  0  0  0
 11 36  1  0  0  0  0
 12 16  1  0  0  0  0
 12 13  1  0  0  0  0
 13 14  2  0  0  0  0
 13 37  1  0  0  0  0
 14 15  1  0  0  0  0
 14 38  1  0  0  0  0
 15 16  2  0  0  0  0
 15 41  1  0  0  0  0
 16 39  1  0  0  0  0
M  CHG  1   9   1
M  CHG  1  15   1
M  END
> <s_m_source_file>
AV-unprocessed.smi

> <i_m_source_file_index>
3193

> <i_lp_mmshare_version>
43012

> <i_f3d_flags>
0

> <s_epik_input>
W0NIM11bQ0BASF0xW0NIMl1bQ0gyXVtDSDJdW0NIMl1bQ0BIXTFbQ0gyXVtOSF1bQ0gyXVtDSDJdbjJbY0hdW2NIXW5bY0hdMg==

> <s_epik_cmdline>
J2VwaWtfcHl0aG9uJywgJy1waCcsICc3LjAnLCAnLXRuJywgJzgnLCAnLW1hJywgJzIwMCcsICctbWV0YWxfYmluZGluZycsICctaW1hZScsICc8aW5maWxlLm1hZT4nLCAnLW9tYWUnLCAnPG91dGZpbGUubWFlPic=

> <r_lp_tautomer_probability>
1

> <r_epik_Ionization_Penalty>
1.50262

> <r_epik_Ionization_Penalty_Charging>
0.00193432

> <r_epik_Ionization_Penalty_Neutral>
1.50068

> <r_epik_State_Penalty>
1.11854

> <r_epik_Charging_Adjusted_Penalty>
1.12048

> <i_epik_Tot_Q>
2

> <i_epik_Tot_abs_Q>
2

> <r_epik_Metal_State_Penalty>
5.11322

> <b_epik_Metal_Only>
0

> <s_lp_Force_Field>
OPLS_2005

> <r_lp_Energy>
27.1702

> <b_lp_Chiralities_Consistent>
1

> <s_lp_Variant>
AV-unprocessed.smi:3193-8

> <Gold.Version>
5.8.1

> <Gold.Id.Protein>
6NUR|6NUR_protein|mol2

> <Gold.PLP.Fitness>
49.7503

> <Gold.PLP.PLP>
-41.2554

> <Gold.PLP.part.hbond>
-1.0000

> <Gold.PLP.part.metal>
0.0000

> <Gold.PLP.part.buried>
-3.8449

> <Gold.PLP.part.nonpolar>
-36.6306

> <Gold.PLP.part.repulsive>
0.1256

> <Gold.PLP.ligand.clash>
0.0000

> <Gold.PLP.ligand.torsion>
0.2914

> <Gold.PLP.Chemscore.Hbond>
2.0000

> <Gold.PLP.Chemscore.CHOScore>
1.0000

> <Gold.PLP.Chemscore.Metal>
0.0000

> <Gold.Chemscore.Hbonds>
donor molecule, donor type, donor heavy atom, donor atom, acceptor molecule, acceptor atom, score
      L1  H    15    41       P1 10175  1.98
      L1  C    13    37       P1  8028  1.00

> <Gold.PLP.Chemscore.Internal.Correction>
0.0778

> <Gold.Rescore>
     Score         DG    S(hbond)    S(metal)    S(lipo)     H(rot)  DE(clash)    DE(int)     intcor
     16.37     -16.74       0.97        0.00     111.81       1.98       0.08       0.28       ----

> <Gold.Chemscore.Fitness>
16.3713

> <Gold.Chemscore.DG>
-16.7376

> <Gold.Chemscore.ZeroCoef>
-5.4800

> <Gold.Chemscore.Hbond>
0.9693

> <Gold.Chemscore.Metal>
0.0000

> <Gold.Chemscore.Lipo>
111.8146

> <Gold.Chemscore.Internal_Hbond>
0.0000

> <Gold.Chemscore.DEClash>
0.0831

> <Gold.Chemscore.DEInternal>
0.2831

> <Gold.Chemscore.Rot>
1.9774

> <Gold.Chemscore.Internal.Correction>
   9.000000E+99

> <Gold.Chemscore.Hbonds>
donor molecule, donor type, donor heavy atom, donor atom, acceptor molecule, acceptor atom, score
      L1  H    15    41       P1 10175  0.87

> <Gold.Chemscore.Hbond.Weighted>
-3.2375

> <Gold.Chemscore.Metal.Weighted>
-0.0000

> <Gold.Chemscore.Lipo.Weighted>
-13.0823

> <Gold.Chemscore.Internal_Hbond.Weighted>
0.0000

> <Gold.Chemscore.DEClash.Weighted>
0.0831

> <Gold.Chemscore.DEInternal.Weighted>
0.2831

> <Gold.Chemscore.Rot.Weighted>
5.0622

> <Gold.Chemscore.Internal.Correction.Weighted>
   9.000000E+99

> <Gold.Protein.RotatedTorsions>
[ 6907 6896 6895 6894 ] final   88.31 input  -60.11 | X-H torsion
[ 7974 7965 7964 7962 ] final -148.88 input  175.53 | X-H torsion
[ 8008 7997 7996 7995 ] final   44.15 input   59.86 | X-H torsion
[ 10167 10162 10161 10158 ] final   29.53 input  -65.29 | X-H torsion
[ 10718 10713 10712 10709 ] final   59.83 input   66.30 | X-H torsion
[ 10763 10752 10751 10750 ] final  112.20 input  -60.55 | X-H torsion
[ 11005 11000 10999 10996 ] final  -12.45 input  -57.11 | X-H torsion

> <Gold.Protein.ActiveResidues>
 VAL166  LYS551  ARG553  GLY616  TRP617  ASP618  TYR619  PRO620  LYS621  CYS622 
 ASP623  PHE694  ASN695  SER759  ASP760  ASP761  ALA762  ILE779  LEU786  VAL792 
 PHE793  MET794  SER795  GLU796  ALA797  LYS798  CYS799  TRP800  GLU811  SER814 

> <Gold.Protein.RotatedAtoms>
  152.5423  134.2141  159.8761 H   0  0  0  0  0  0  0  0  0  0  0  0  # atno 6907 bound_to 6896
  151.2122  133.4543  159.2606 H   0  0  0  0  0  0  0  0  0  0  0  0  # atno 6908 bound_to 6896
  151.0886  134.9915  159.8447 H   0  0  0  0  0  0  0  0  0  0  0  0  # atno 6909 bound_to 6896
  144.8001  140.5138  143.5713 H   0  0  0  0  0  0  0  0  0  0  0  0  # atno 7974 bound_to 7965
  155.3145  140.3393  155.4243 H   0  0  0  0  0  0  0  0  0  0  0  0  # atno 8008 bound_to 7997
  156.1939  140.1708  156.8075 H   0  0  0  0  0  0  0  0  0  0  0  0  # atno 8009 bound_to 7997
  154.5475  140.0712  156.8597 H   0  0  0  0  0  0  0  0  0  0  0  0  # atno 8010 bound_to 7997
  140.4758  144.0693  150.6250 H   0  0  0  0  0  0  0  0  0  0  0  0  # atno 10167 bound_to 10162
  157.5706  130.8904  149.9260 H   0  0  0  0  0  0  0  0  0  0  0  0  # atno 10718 bound_to 10713
  153.4744  135.3693  155.2408 H   0  0  0  0  0  0  0  0  0  0  0  0  # atno 10763 bound_to 10752
  154.8756  135.3939  154.3774 H   0  0  0  0  0  0  0  0  0  0  0  0  # atno 10764 bound_to 10752
  153.4367  135.7083  153.6260 H   0  0  0  0  0  0  0  0  0  0  0  0  # atno 10765 bound_to 10752
  140.7658  133.8478  155.9164 H   0  0  0  0  0  0  0  0  0  0  0  0  # atno 11005 bound_to 11000
  145.5574  139.1478  143.3360 LP  0  0  0  0  0  0  0  0  0  0  0  0  # atno 17320 bound_to 7965
  146.2281  140.5710  142.8987 LP  0  0  0  0  0  0  0  0  0  0  0  0  # atno 17321 bound_to 7965
  140.3920  143.2747  152.0049 LP  0  0  0  0  0  0  0  0  0  0  0  0  # atno 17342 bound_to 10162
  139.4825  144.6069  151.7505 LP  0  0  0  0  0  0  0  0  0  0  0  0  # atno 17343 bound_to 10162
  156.0751  130.3680  150.0694 LP  0  0  0  0  0  0  0  0  0  0  0  0  # atno 17370 bound_to 10713
  156.8847  130.9568  151.3595 LP  0  0  0  0  0  0  0  0  0  0  0  0  # atno 17371 bound_to 10713
  140.9620  134.1643  157.4646 LP  0  0  0  0  0  0  0  0  0  0  0  0  # atno 17394 bound_to 11000
  139.8763  134.9948  156.5712 LP  0  0  0  0  0  0  0  0  0  0  0  0  # atno 17395 bound_to 11000

$$$$
