AV-unprocessed.smi:1434|AV-procd|sdf|5853|dock7
  -GOLD-   22720 5523D 1   1.00000     0.00000
 Structure written by MMmdl.
 43 44  0  0  0  0  0  0  0  0  2 V2000
  157.9423  137.6958  154.6757 C   0  0  0  0  0  0  0  0  0  0  0  0
  156.1681  137.8098  154.2145 S   0  0  0  0  0  0  0  0  0  0  0  0
  155.8944  139.2435  154.0259 O   0  0  0  0  0  0  0  0  0  0  0  0
  156.0035  136.9339  153.0432 O   0  0  0  0  0  0  0  0  0  0  0  0
  155.4743  137.2092  155.5519 N   0  5  0  0  0  0  0  0  0  0  0  0
  154.6267  138.0596  156.3745 C   0  0  2  0  0  0  0  0  0  0  0  0
  154.6028  137.5668  157.8465 C   0  0  0  0  0  0  0  0  0  0  0  0
  153.5233  138.2656  158.7166 C   0  0  0  0  0  0  0  0  0  0  0  0
  152.1256  138.2446  158.0569 C   0  0  0  0  0  0  0  0  0  0  0  0
  152.2672  138.8266  156.7032 N   0  0  0  0  0  0  0  0  0  0  0  0
  151.6684  139.9653  156.2637 C   0  0  0  0  0  0  0  0  0  0  0  0
  151.6820  140.3259  155.0859 O   0  0  0  0  0  0  0  0  0  0  0  0
  151.1008  140.7112  157.2270 N   0  0  0  0  0  0  0  0  0  0  0  0
  150.4669  142.0084  157.0221 C   0  0  0  0  0  0  0  0  0  0  0  0
  151.4589  143.1613  157.2505 C   0  0  0  0  0  0  0  0  0  0  0  0
  151.8780  143.2803  158.7032 C   0  0  0  0  0  0  0  0  0  0  0  0
  151.7499  144.5050  159.3927 C   0  0  0  0  0  0  0  0  0  0  0  0
  152.1576  144.5620  160.7397 C   0  0  0  0  0  0  0  0  0  0  0  0
  152.6765  143.3993  161.3413 C   0  0  0  0  0  0  0  0  0  0  0  0
  152.7652  142.2259  160.5657 C   0  0  0  0  0  0  0  0  0  0  0  0
  152.3768  142.1605  159.2739 N   0  0  0  0  0  0  0  0  0  0  0  0
  153.1695  138.0348  155.8352 C   0  0  0  0  0  0  0  0  0  0  0  0
  158.5525  138.0733  153.8560 H   0  0  0  0  0  0  0  0  0  0  0  0
  158.2002  136.6554  154.8714 H   0  0  0  0  0  0  0  0  0  0  0  0
  158.1247  138.2914  155.5696 H   0  0  0  0  0  0  0  0  0  0  0  0
  154.9669  139.0960  156.3620 H   0  0  0  0  0  0  0  0  0  0  0  0
  154.4103  136.4928  157.8622 H   0  0  0  0  0  0  0  0  0  0  0  0
  155.5811  137.7057  158.3069 H   0  0  0  0  0  0  0  0  0  0  0  0
  153.4747  137.7821  159.6925 H   0  0  0  0  0  0  0  0  0  0  0  0
  153.8152  139.2998  158.9102 H   0  0  0  0  0  0  0  0  0  0  0  0
  151.7728  137.2163  157.9644 H   0  0  0  0  0  0  0  0  0  0  0  0
  151.4007  138.7472  158.6968 H   0  0  0  0  0  0  0  0  0  0  0  0
  151.1401  140.3653  158.1746 H   0  0  0  0  0  0  0  0  0  0  0  0
  150.0393  142.0609  156.0193 H   0  0  0  0  0  0  0  0  0  0  0  0
  149.6339  142.0924  157.7203 H   0  0  0  0  0  0  0  0  0  0  0  0
  152.3457  143.0179  156.6316 H   0  0  0  0  0  0  0  0  0  0  0  0
  151.0180  144.1086  156.9364 H   0  0  0  0  0  0  0  0  0  0  0  0
  151.3496  145.3807  158.9033 H   0  0  0  0  0  0  0  0  0  0  0  0
  152.0738  145.4809  161.3009 H   0  0  0  0  0  0  0  0  0  0  0  0
  152.9988  143.4057  162.3720 H   0  0  0  0  0  0  0  0  0  0  0  0
  153.1585  141.3159  160.9940 H   0  0  0  0  0  0  0  0  0  0  0  0
  153.1607  138.3827  154.8009 H   0  0  0  0  0  0  0  0  0  0  0  0
  152.7995  137.0087  155.7988 H   0  0  0  0  0  0  0  0  0  0  0  0
  1  2  1  0  0  0  0
  1 23  1  0  0  0  0
  1 24  1  0  0  0  0
  1 25  1  0  0  0  0
  2  3  2  0  0  0  0
  2  4  2  0  0  0  0
  2  5  1  0  0  0  0
  5  6  1  0  0  0  0
  6 22  1  0  0  0  0
  6  7  1  0  0  0  0
  6 26  1  0  0  0  0
  7  8  1  0  0  0  0
  7 27  1  0  0  0  0
  7 28  1  0  0  0  0
  8  9  1  0  0  0  0
  8 29  1  0  0  0  0
  8 30  1  0  0  0  0
  9 10  1  0  0  0  0
  9 31  1  0  0  0  0
  9 32  1  0  0  0  0
 10 11  1  0  0  0  0
 10 22  1  0  0  0  0
 11 12  2  0  0  0  0
 11 13  1  0  0  0  0
 13 14  1  0  0  0  0
 13 33  1  0  0  0  0
 14 15  1  0  0  0  0
 14 34  1  0  0  0  0
 14 35  1  0  0  0  0
 15 16  1  0  0  0  0
 15 36  1  0  0  0  0
 15 37  1  0  0  0  0
 16 21  1  0  0  0  0
 16 17  2  0  0  0  0
 17 18  1  0  0  0  0
 17 38  1  0  0  0  0
 18 19  2  0  0  0  0
 18 39  1  0  0  0  0
 19 20  1  0  0  0  0
 19 40  1  0  0  0  0
 20 21  2  0  0  0  0
 20 41  1  0  0  0  0
 22 42  1  0  0  0  0
 22 43  1  0  0  0  0
M  CHG  1   5  -1
M  END
> <s_m_source_file>
AV-unprocessed.smi

> <i_m_source_file_index>
1434

> <i_lp_mmshare_version>
43012

> <i_f3d_flags>
0

> <s_epik_input>
W0NIM11TKD1PKSg9TylbTkhdW0NAQEhdMVtDSDJdW0NIMl1bQ0gyXU4oW0NIMl0xKUMoPU8pW05IXVtDSDJdW0NIMl1jMltjSF1bY0hdW2NIXVtjSF1uMg==

> <s_epik_cmdline>
J2VwaWtfcHl0aG9uJywgJy1waCcsICc3LjAnLCAnLXRuJywgJzgnLCAnLW1hJywgJzIwMCcsICctbWV0YWxfYmluZGluZycsICctaW1hZScsICc8aW5maWxlLm1hZT4nLCAnLW9tYWUnLCAnPG91dGZpbGUubWFlPic=

> <r_epik_Ionization_Penalty>
6.57847

> <r_epik_Ionization_Penalty_Charging>
6.53351

> <r_epik_Ionization_Penalty_Neutral>
0.0449527

> <r_epik_State_Penalty>
6.57157

> <r_epik_Charging_Adjusted_Penalty>
13.1051

> <i_epik_Tot_Q>
-1

> <i_epik_Tot_abs_Q>
1

> <r_epik_Metal_State_Penalty>
2.53928

> <b_epik_Metal_Only>
1

> <s_lp_Force_Field>
OPLS_2005

> <r_lp_Energy>
19.5099

> <b_lp_Chiralities_Consistent>
1

> <s_lp_Variant>
AV-unprocessed.smi:1434-5

> <Gold.Version>
5.8.1

> <Gold.Id.Protein>
6NUR|6NUR_protein|mol2

> <Gold.PLP.Fitness>
46.4189

> <Gold.PLP.PLP>
-38.7432

> <Gold.PLP.part.hbond>
-4.1987

> <Gold.PLP.part.metal>
0.0000

> <Gold.PLP.part.buried>
-1.1674

> <Gold.PLP.part.nonpolar>
-34.1149

> <Gold.PLP.part.repulsive>
0.1254

> <Gold.PLP.ligand.clash>
0.0000

> <Gold.PLP.ligand.torsion>
1.1635

> <Gold.PLP.Chemscore.Hbond>
2.9909

> <Gold.PLP.Chemscore.CHOScore>
0.0000

> <Gold.PLP.Chemscore.Metal>
0.0000

> <Gold.Chemscore.Hbonds>
donor molecule, donor type, donor heavy atom, donor atom, acceptor molecule, acceptor atom, score
      P1  H  7989  7998       L1    12  0.88
      P1  H  7997  8008       L1     3  1.00
      P1  H 10752 10764       L1     5  0.07
      P1  H 10752 10765       L1     4  1.00

> <Gold.PLP.Chemscore.Internal.Correction>
1.0299

> <Gold.Rescore>
     Score         DG    S(hbond)    S(metal)    S(lipo)     H(rot)  DE(clash)    DE(int)     intcor
     18.50     -22.98       2.72        0.00     108.70       1.68       1.94       2.55       ----

> <Gold.Chemscore.Fitness>
18.4971

> <Gold.Chemscore.DG>
-22.9833

> <Gold.Chemscore.ZeroCoef>
-5.4800

> <Gold.Chemscore.Hbond>
2.7216

> <Gold.Chemscore.Metal>
0.0000

> <Gold.Chemscore.Lipo>
108.6970

> <Gold.Chemscore.Internal_Hbond>
0.0000

> <Gold.Chemscore.DEClash>
1.9397

> <Gold.Chemscore.DEInternal>
2.5466

> <Gold.Chemscore.Rot>
1.6813

> <Gold.Chemscore.Internal.Correction>
   9.000000E+99

> <Gold.Chemscore.Hbonds>
donor molecule, donor type, donor heavy atom, donor atom, acceptor molecule, acceptor atom, score
      P1  H  7989  7998       L1    12  0.86
      P1  H  7997  8008       L1     3  0.93
      P1  H 10752 10764       L1     5  0.01
      P1  H 10752 10765       L1     4  0.24

> <Gold.Chemscore.Hbond.Weighted>
-9.0900

> <Gold.Chemscore.Metal.Weighted>
-0.0000

> <Gold.Chemscore.Lipo.Weighted>
-12.7175

> <Gold.Chemscore.Internal_Hbond.Weighted>
0.0000

> <Gold.Chemscore.DEClash.Weighted>
1.9397

> <Gold.Chemscore.DEInternal.Weighted>
2.5466

> <Gold.Chemscore.Rot.Weighted>
4.3042

> <Gold.Chemscore.Internal.Correction.Weighted>
   9.000000E+99

> <Gold.Protein.RotatedTorsions>
[ 6907 6896 6895 6894 ] final -146.26 input  -60.11 | X-H torsion
[ 7974 7965 7964 7962 ] final  -57.81 input  175.53 | X-H torsion
[ 8008 7997 7996 7995 ] final   66.56 input   59.86 | X-H torsion
[ 10167 10162 10161 10158 ] final  -67.56 input  -65.29 | X-H torsion
[ 10718 10713 10712 10709 ] final  161.00 input   66.30 | X-H torsion
[ 10763 10752 10751 10750 ] final   29.49 input  -60.55 | X-H torsion
[ 11005 11000 10999 10996 ] final  -85.87 input  -57.11 | X-H torsion

> <Gold.Protein.ActiveResidues>
 VAL166  LYS551  ARG553  GLY616  TRP617  ASP618  TYR619  PRO620  LYS621  CYS622 
 ASP623  PHE694  ASN695  SER759  ASP760  ASP761  ALA762  ILE779  LEU786  VAL792 
 PHE793  MET794  SER795  GLU796  ALA797  LYS798  CYS799  TRP800  GLU811  SER814 

> <Gold.Protein.RotatedAtoms>
  151.1392  133.4983  159.2597 H   0  0  0  0  0  0  0  0  0  0  0  0  # atno 6907 bound_to 6896
  151.1673  135.0301  159.8746 H   0  0  0  0  0  0  0  0  0  0  0  0  # atno 6908 bound_to 6896
  152.5462  134.1259  159.8472 H   0  0  0  0  0  0  0  0  0  0  0  0  # atno 6909 bound_to 6896
  145.8467  140.8380  143.0006 H   0  0  0  0  0  0  0  0  0  0  0  0  # atno 7974 bound_to 7965
  155.6792  140.3496  155.4848 H   0  0  0  0  0  0  0  0  0  0  0  0  # atno 8008 bound_to 7997
  155.9621  140.1139  157.0909 H   0  0  0  0  0  0  0  0  0  0  0  0  # atno 8009 bound_to 7997
  154.4146  140.1173  156.5180 H   0  0  0  0  0  0  0  0  0  0  0  0  # atno 8010 bound_to 7997
  140.5573  143.2312  151.6796 H   0  0  0  0  0  0  0  0  0  0  0  0  # atno 10167 bound_to 10162
  157.1427  131.0544  151.2319 H   0  0  0  0  0  0  0  0  0  0  0  0  # atno 10718 bound_to 10713
  153.0427  135.6487  154.0899 H   0  0  0  0  0  0  0  0  0  0  0  0  # atno 10763 bound_to 10752
  154.0603  135.2888  155.3327 H   0  0  0  0  0  0  0  0  0  0  0  0  # atno 10764 bound_to 10752
  154.6662  135.5373  153.8145 H   0  0  0  0  0  0  0  0  0  0  0  0  # atno 10765 bound_to 10752
  141.1636  133.7423  156.9078 H   0  0  0  0  0  0  0  0  0  0  0  0  # atno 11005 bound_to 11000
  144.6731  140.0893  143.7466 LP  0  0  0  0  0  0  0  0  0  0  0  0  # atno 17320 bound_to 7965
  145.9404  139.2665  143.1272 LP  0  0  0  0  0  0  0  0  0  0  0  0  # atno 17321 bound_to 7965
  139.5054  144.3719  152.0461 LP  0  0  0  0  0  0  0  0  0  0  0  0  # atno 17342 bound_to 10162
  140.2842  144.3825  150.6109 LP  0  0  0  0  0  0  0  0  0  0  0  0  # atno 17343 bound_to 10162
  157.4293  130.7481  149.6976 LP  0  0  0  0  0  0  0  0  0  0  0  0  # atno 17370 bound_to 10713
  155.9785  130.4050  150.3642 LP  0  0  0  0  0  0  0  0  0  0  0  0  # atno 17371 bound_to 10713
  140.1538  134.9212  157.2627 LP  0  0  0  0  0  0  0  0  0  0  0  0  # atno 17394 bound_to 11000
  140.2692  134.3480  155.7379 LP  0  0  0  0  0  0  0  0  0  0  0  0  # atno 17395 bound_to 11000

$$$$
