AV-unprocessed.smi:1049|AV-procd|sdf|4608|dock8
  -GOLD-   22720 3103D 1   1.00000     0.00000
 Structure written by MMmdl.
 40 41  0  0  0  0  0  0  0  0  1 V2000
  151.8476  145.7717  160.2282 C   0  0  0  0  0  0  0  0  0  0  0  0
  151.8374  144.2371  160.2119 C   0  0  2  0  0  0  0  0  0  0  0  0
  152.8119  143.6525  161.2586 C   0  0  0  0  0  0  0  0  0  0  0  0
  152.9190  142.1187  161.1604 C   0  0  0  0  0  0  0  0  0  0  0  0
  153.1983  141.6831  159.7115 C   0  0  0  0  0  0  0  0  0  0  0  0
  152.1294  142.2147  158.8482 N   0  0  0  0  0  0  0  0  0  0  0  0
  151.0790  141.5088  158.3582 C   0  0  0  0  0  0  0  0  0  0  0  0
  150.7779  140.3808  158.7512 O   0  0  0  0  0  0  0  0  0  0  0  0
  150.3715  142.1470  157.4126 N   0  0  0  0  0  0  0  0  0  0  0  0
  149.2653  141.5775  156.6515 C   0  0  0  0  0  0  0  0  0  0  0  0
  149.6452  141.2988  155.1836 C   0  0  0  0  0  0  0  0  0  0  0  0
  148.5814  140.5689  154.4138 C   0  0  0  0  0  0  0  0  0  0  0  0
  148.7883  139.3976  153.8189 N   0  0  0  0  0  0  0  0  0  0  0  0
  147.5656  139.0656  153.2482 C   0  0  0  0  0  0  0  0  0  0  0  0
  146.6581  140.0630  153.5065 C   0  0  0  0  0  0  0  0  0  0  0  0
  147.3285  141.0374  154.2379 N   0  0  0  0  0  0  0  0  0  0  0  0
  146.7629  142.2882  154.7179 C   0  0  0  0  0  0  0  0  0  0  0  0
  146.1257  142.9232  153.7339 F   0  0  0  0  0  0  0  0  0  0  0  0
  145.9156  142.0545  155.7177 F   0  0  0  0  0  0  0  0  0  0  0  0
  152.1624  143.6823  158.8079 C   0  0  0  0  0  0  0  0  0  0  0  0
  152.8269  146.1645  159.9533 H   0  0  0  0  0  0  0  0  0  0  0  0
  151.5997  146.1555  161.2181 H   0  0  0  0  0  0  0  0  0  0  0  0
  151.1177  146.1758  159.5262 H   0  0  0  0  0  0  0  0  0  0  0  0
  150.8292  143.9147  160.4750 H   0  0  0  0  0  0  0  0  0  0  0  0
  153.8026  144.0833  161.1076 H   0  0  0  0  0  0  0  0  0  0  0  0
  152.5026  143.9390  162.2643 H   0  0  0  0  0  0  0  0  0  0  0  0
  153.7075  141.7572  161.8208 H   0  0  0  0  0  0  0  0  0  0  0  0
  151.9916  141.6612  161.5076 H   0  0  0  0  0  0  0  0  0  0  0  0
  154.1579  142.0839  159.3815 H   0  0  0  0  0  0  0  0  0  0  0  0
  153.3098  140.6000  159.6664 H   0  0  0  0  0  0  0  0  0  0  0  0
  150.6640  143.0789  157.1569 H   0  0  0  0  0  0  0  0  0  0  0  0
  148.8859  140.6737  157.1306 H   0  0  0  0  0  0  0  0  0  0  0  0
  148.4523  142.3035  156.6803 H   0  0  0  0  0  0  0  0  0  0  0  0
  149.8726  142.2448  154.6942 H   0  0  0  0  0  0  0  0  0  0  0  0
  150.5639  140.7130  155.1463 H   0  0  0  0  0  0  0  0  0  0  0  0
  147.4342  138.1427  152.7027 H   0  0  0  0  0  0  0  0  0  0  0  0
  145.6190  140.1597  153.2281 H   0  0  0  0  0  0  0  0  0  0  0  0
  147.5518  142.9497  155.0757 H   0  0  0  0  0  0  0  0  0  0  0  0
  151.4696  144.0902  158.0701 H   0  0  0  0  0  0  0  0  0  0  0  0
  153.1534  144.0116  158.4915 H   0  0  0  0  0  0  0  0  0  0  0  0
  1  2  1  0  0  0  0
  1 21  1  0  0  0  0
  1 22  1  0  0  0  0
  1 23  1  0  0  0  0
  2 20  1  0  0  0  0
  2  3  1  0  0  0  0
  2 24  1  0  0  0  0
  3  4  1  0  0  0  0
  3 25  1  0  0  0  0
  3 26  1  0  0  0  0
  4  5  1  0  0  0  0
  4 27  1  0  0  0  0
  4 28  1  0  0  0  0
  5  6  1  0  0  0  0
  5 29  1  0  0  0  0
  5 30  1  0  0  0  0
  6  7  1  0  0  0  0
  6 20  1  0  0  0  0
  7  8  2  0  0  0  0
  7  9  1  0  0  0  0
  9 10  1  0  0  0  0
  9 31  1  0  0  0  0
 10 11  1  0  0  0  0
 10 32  1  0  0  0  0
 10 33  1  0  0  0  0
 11 12  1  0  0  0  0
 11 34  1  0  0  0  0
 11 35  1  0  0  0  0
 12 16  1  0  0  0  0
 12 13  2  0  0  0  0
 13 14  1  0  0  0  0
 14 15  2  0  0  0  0
 14 36  1  0  0  0  0
 15 16  1  0  0  0  0
 15 37  1  0  0  0  0
 16 17  1  0  0  0  0
 17 18  1  0  0  0  0
 17 19  1  0  0  0  0
 17 38  1  0  0  0  0
 20 39  1  0  0  0  0
 20 40  1  0  0  0  0
M  END
> <s_m_source_file>
AV-unprocessed.smi

> <i_m_source_file_index>
1049

> <i_lp_mmshare_version>
43012

> <i_f3d_flags>
0

> <s_epik_input>
W0NIM11bQ0BASF0xW0NIMl1bQ0gyXVtDSDJdTihbQ0gyXTEpQyg9TylbTkhdW0NIMl1bQ0gyXWMybltjSF1bY0hdbjJbQ0hdKEYpRg==

> <s_epik_cmdline>
J2VwaWtfcHl0aG9uJywgJy1waCcsICc3LjAnLCAnLXRuJywgJzgnLCAnLW1hJywgJzIwMCcsICctbWV0YWxfYmluZGluZycsICctaW1hZScsICc8aW5maWxlLm1hZT4nLCAnLW9tYWUnLCAnPG91dGZpbGUubWFlPic=

> <r_lp_tautomer_probability>
1

> <r_epik_Ionization_Penalty>
0.101141

> <r_epik_Ionization_Penalty_Charging>
0.101077

> <r_epik_Ionization_Penalty_Neutral>
6.38597e-05

> <r_epik_State_Penalty>
0.091079

> <r_epik_Charging_Adjusted_Penalty>
0.192156

> <i_epik_Tot_Q>
0

> <i_epik_Tot_abs_Q>
0

> <r_epik_Metal_State_Penalty>
0.0777008

> <b_epik_Metal_Only>
0

> <s_lp_Force_Field>
OPLS_2005

> <r_lp_Energy>
32.1831

> <b_lp_Chiralities_Consistent>
1

> <s_lp_Variant>
AV-unprocessed.smi:1049-1

> <Gold.Version>
5.8.1

> <Gold.Id.Protein>
6NUR|6NUR_protein|mol2

> <Gold.PLP.Fitness>
48.3569

> <Gold.PLP.PLP>
-43.6030

> <Gold.PLP.part.hbond>
0.0000

> <Gold.PLP.part.metal>
0.0000

> <Gold.PLP.part.buried>
-4.8774

> <Gold.PLP.part.nonpolar>
-39.7764

> <Gold.PLP.part.repulsive>
1.9097

> <Gold.PLP.ligand.clash>
0.3411

> <Gold.PLP.ligand.torsion>
0.4885

> <Gold.PLP.Chemscore.Hbond>
0.0000

> <Gold.PLP.Chemscore.CHOScore>
2.0000

> <Gold.PLP.Chemscore.Metal>
0.0000

> <Gold.Chemscore.Hbonds>
donor molecule, donor type, donor heavy atom, donor atom, acceptor molecule, acceptor atom, score
      L1  C    14    36       P1  7948  0.91
      L1  C    15    37       P1 10175  1.00

> <Gold.PLP.Chemscore.Internal.Correction>
0.0721

> <Gold.Rescore>
     Score         DG    S(hbond)    S(metal)    S(lipo)     H(rot)  DE(clash)    DE(int)     intcor
     11.87     -13.45       0.00        0.00     102.29       1.56       0.98       0.60       ----

> <Gold.Chemscore.Fitness>
11.8722

> <Gold.Chemscore.DG>
-13.4473

> <Gold.Chemscore.ZeroCoef>
-5.4800

> <Gold.Chemscore.Hbond>
0.0000

> <Gold.Chemscore.Metal>
0.0000

> <Gold.Chemscore.Lipo>
102.2873

> <Gold.Chemscore.Internal_Hbond>
0.0000

> <Gold.Chemscore.DEClash>
0.9761

> <Gold.Chemscore.DEInternal>
0.5990

> <Gold.Chemscore.Rot>
1.5626

> <Gold.Chemscore.Internal.Correction>
   9.000000E+99

> <Gold.Chemscore.Hbond.Weighted>
-0.0000

> <Gold.Chemscore.Metal.Weighted>
-0.0000

> <Gold.Chemscore.Lipo.Weighted>
-11.9676

> <Gold.Chemscore.Internal_Hbond.Weighted>
0.0000

> <Gold.Chemscore.DEClash.Weighted>
0.9761

> <Gold.Chemscore.DEInternal.Weighted>
0.5990

> <Gold.Chemscore.Rot.Weighted>
4.0004

> <Gold.Chemscore.Internal.Correction.Weighted>
   9.000000E+99

> <Gold.Protein.RotatedTorsions>
[ 6907 6896 6895 6894 ] final  -78.25 input  -60.11 | X-H torsion
[ 7974 7965 7964 7962 ] final  175.67 input  175.53 | X-H torsion
[ 8008 7997 7996 7995 ] final  -95.44 input   59.86 | X-H torsion
[ 10167 10162 10161 10158 ] final   31.58 input  -65.29 | X-H torsion
[ 10718 10713 10712 10709 ] final  167.12 input   66.30 | X-H torsion
[ 10763 10752 10751 10750 ] final -123.80 input  -60.55 | X-H torsion
[ 11005 11000 10999 10996 ] final  -43.77 input  -57.11 | X-H torsion

> <Gold.Protein.ActiveResidues>
 VAL166  LYS551  ARG553  GLY616  TRP617  ASP618  TYR619  PRO620  LYS621  CYS622 
 ASP623  PHE694  ASN695  SER759  ASP760  ASP761  ALA762  ILE779  LEU786  VAL792 
 PHE793  MET794  SER795  GLU796  ALA797  LYS798  CYS799  TRP800  GLU811  SER814 

> <Gold.Protein.RotatedAtoms>
  150.6977  134.4300  159.5243 H   0  0  0  0  0  0  0  0  0  0  0  0  # atno 6907 bound_to 6896
  152.2028  134.8569  160.0515 H   0  0  0  0  0  0  0  0  0  0  0  0  # atno 6908 bound_to 6896
  151.9483  133.3623  159.4027 H   0  0  0  0  0  0  0  0  0  0  0  0  # atno 6909 bound_to 6896
  144.7197  139.9981  143.6440 H   0  0  0  0  0  0  0  0  0  0  0  0  # atno 7974 bound_to 7965
  154.7614  140.0480  157.0977 H   0  0  0  0  0  0  0  0  0  0  0  0  # atno 8008 bound_to 7997
  154.9933  140.3116  155.4878 H   0  0  0  0  0  0  0  0  0  0  0  0  # atno 8009 bound_to 7997
  156.2905  140.2215  156.5039 H   0  0  0  0  0  0  0  0  0  0  0  0  # atno 8010 bound_to 7997
  140.4576  144.0955  150.6205 H   0  0  0  0  0  0  0  0  0  0  0  0  # atno 10167 bound_to 10162
  157.0561  131.0327  151.2663 H   0  0  0  0  0  0  0  0  0  0  0  0  # atno 10718 bound_to 10713
  154.8714  135.4085  154.3003 H   0  0  0  0  0  0  0  0  0  0  0  0  # atno 10763 bound_to 10752
  153.3864  135.7013  153.6533 H   0  0  0  0  0  0  0  0  0  0  0  0  # atno 10764 bound_to 10752
  153.5334  135.3663  155.2657 H   0  0  0  0  0  0  0  0  0  0  0  0  # atno 10765 bound_to 10752
  141.0406  133.6781  156.2779 H   0  0  0  0  0  0  0  0  0  0  0  0  # atno 11005 bound_to 11000
  146.0357  139.3375  143.0728 LP  0  0  0  0  0  0  0  0  0  0  0  0  # atno 17320 bound_to 7965
  145.8397  140.9587  143.0806 LP  0  0  0  0  0  0  0  0  0  0  0  0  # atno 17321 bound_to 7965
  140.4132  143.2646  151.9807 LP  0  0  0  0  0  0  0  0  0  0  0  0  # atno 17342 bound_to 10162
  139.4803  144.5897  151.7793 LP  0  0  0  0  0  0  0  0  0  0  0  0  # atno 17343 bound_to 10162
  157.4992  130.7869  149.7587 LP  0  0  0  0  0  0  0  0  0  0  0  0  # atno 17370 bound_to 10713
  155.9993  130.3890  150.2671 LP  0  0  0  0  0  0  0  0  0  0  0  0  # atno 17371 bound_to 10713
  140.6241  134.5331  157.5551 LP  0  0  0  0  0  0  0  0  0  0  0  0  # atno 17394 bound_to 11000
  139.9273  134.8031  156.1032 LP  0  0  0  0  0  0  0  0  0  0  0  0  # atno 17395 bound_to 11000

$$$$
