AV-unprocessed.smi:2795|AV-procd|sdf|10779|dock10
  -GOLD-   2272015213D 1   1.00000     0.00000
 Structure written by MMmdl.
 37 38  0  0  0  0  0  0  0  0  2 V2000
  149.1421  140.6010  154.6597 C   0  0  0  0  0  0  0  0  0  0  0  0
  149.9854  139.4055  154.5709 N   0  0  0  0  0  0  0  0  0  0  0  0
  149.7387  138.4393  153.6776 C   0  0  0  0  0  0  0  0  0  0  0  0
  150.6716  137.5011  153.8522 N   0  3  0  0  0  0  0  0  0  0  0  0
  151.5186  137.8647  154.8622 C   0  0  0  0  0  0  0  0  0  0  0  0
  151.0920  139.0843  155.3279 C   0  0  0  0  0  0  0  0  0  0  0  0
  151.6605  139.9613  156.4032 C   0  0  0  0  0  0  0  0  0  0  0  0
  150.6330  140.3119  157.4990 C   0  0  0  0  0  0  0  0  0  0  0  0
  151.2182  141.0959  158.5843 N   0  0  0  0  0  0  0  0  0  0  0  0
  152.4319  140.9010  159.1266 C   0  0  0  0  0  0  0  0  0  0  0  0
  153.1700  139.9715  158.7975 O   0  0  0  0  0  0  0  0  0  0  0  0
  152.8828  141.9195  160.1839 C   0  0  1  0  0  0  0  0  0  0  0  0
  151.8460  143.0467  160.3978 C   0  0  0  0  0  0  0  0  0  0  0  0
  152.2890  143.9865  161.5244 C   0  0  0  0  0  0  0  0  0  0  0  0
  152.6058  143.1743  162.7836 C   0  0  0  0  0  0  0  0  0  0  0  0
  153.6068  142.0565  162.4559 C   0  0  0  0  0  0  0  0  0  0  0  0
  153.0865  141.2310  161.4194 O   0  0  0  0  0  0  0  0  0  0  0  0
  148.5749  140.7277  153.7363 H   0  0  0  0  0  0  0  0  0  0  0  0
  149.7660  141.4809  154.8139 H   0  0  0  0  0  0  0  0  0  0  0  0
  148.4548  140.4893  155.4985 H   0  0  0  0  0  0  0  0  0  0  0  0
  148.9426  138.4199  152.9549 H   0  0  0  0  0  0  0  0  0  0  0  0
  152.3525  137.2479  155.1639 H   0  0  0  0  0  0  0  0  0  0  0  0
  152.5332  139.4822  156.8472 H   0  0  0  0  0  0  0  0  0  0  0  0
  152.0251  140.8793  155.9416 H   0  0  0  0  0  0  0  0  0  0  0  0
  149.8208  140.8932  157.0623 H   0  0  0  0  0  0  0  0  0  0  0  0
  150.1754  139.4011  157.8885 H   0  0  0  0  0  0  0  0  0  0  0  0
  150.6764  141.8780  158.9234 H   0  0  0  0  0  0  0  0  0  0  0  0
  153.8309  142.3445  159.8495 H   0  0  0  0  0  0  0  0  0  0  0  0
  151.7078  143.6207  159.4806 H   0  0  0  0  0  0  0  0  0  0  0  0
  150.8745  142.6162  160.6473 H   0  0  0  0  0  0  0  0  0  0  0  0
  153.1752  144.5407  161.2126 H   0  0  0  0  0  0  0  0  0  0  0  0
  151.5137  144.7248  161.7316 H   0  0  0  0  0  0  0  0  0  0  0  0
  153.0064  143.8252  163.5613 H   0  0  0  0  0  0  0  0  0  0  0  0
  151.6886  142.7376  163.1807 H   0  0  0  0  0  0  0  0  0  0  0  0
  154.5706  142.4709  162.1561 H   0  0  0  0  0  0  0  0  0  0  0  0
  153.7850  141.4418  163.3384 H   0  0  0  0  0  0  0  0  0  0  0  0
  150.7416  136.6480  153.3118 H   0  0  0  0  0  0  0  0  0  0  0  0
  1  2  1  0  0  0  0
  1 18  1  0  0  0  0
  1 19  1  0  0  0  0
  1 20  1  0  0  0  0
  2  6  1  0  0  0  0
  2  3  1  0  0  0  0
  3  4  2  0  0  0  0
  3 21  1  0  0  0  0
  4  5  1  0  0  0  0
  4 37  1  0  0  0  0
  5  6  2  0  0  0  0
  5 22  1  0  0  0  0
  6  7  1  0  0  0  0
  7  8  1  0  0  0  0
  7 23  1  0  0  0  0
  7 24  1  0  0  0  0
  8  9  1  0  0  0  0
  8 25  1  0  0  0  0
  8 26  1  0  0  0  0
  9 10  1  0  0  0  0
  9 27  1  0  0  0  0
 10 11  2  0  0  0  0
 10 12  1  0  0  0  0
 12 17  1  0  0  0  0
 12 13  1  0  0  0  0
 12 28  1  0  0  0  0
 13 14  1  0  0  0  0
 13 29  1  0  0  0  0
 13 30  1  0  0  0  0
 14 15  1  0  0  0  0
 14 31  1  0  0  0  0
 14 32  1  0  0  0  0
 15 16  1  0  0  0  0
 15 33  1  0  0  0  0
 15 34  1  0  0  0  0
 16 17  1  0  0  0  0
 16 35  1  0  0  0  0
 16 36  1  0  0  0  0
M  CHG  1   4   1
M  END
> <s_m_source_file>
AV-unprocessed.smi

> <i_m_source_file_index>
2795

> <i_lp_mmshare_version>
43012

> <i_f3d_flags>
0

> <s_epik_input>
W0NIM11uMVtjSF1uW2NIXWMxW0NIMl1bQ0gyXVtOSF1DKD1PKVtDQEBIXTJbQ0gyXVtDSDJdW0NIMl1bQ0gyXU8y

> <s_epik_cmdline>
J2VwaWtfcHl0aG9uJywgJy1waCcsICc3LjAnLCAnLXRuJywgJzgnLCAnLW1hJywgJzIwMCcsICctbWV0YWxfYmluZGluZycsICctaW1hZScsICc8aW5maWxlLm1hZT4nLCAnLW9tYWUnLCAnPG91dGZpbGUubWFlPic=

> <r_lp_tautomer_probability>
1

> <r_epik_Ionization_Penalty>
0.154825

> <r_epik_Ionization_Penalty_Charging>
0

> <r_epik_Ionization_Penalty_Neutral>
0.154825

> <r_epik_State_Penalty>
0.144119

> <r_epik_Charging_Adjusted_Penalty>
0.144119

> <i_epik_Tot_Q>
1

> <i_epik_Tot_abs_Q>
1

> <r_epik_Metal_State_Penalty>
0.465431

> <b_epik_Metal_Only>
0

> <s_lp_Force_Field>
OPLS_2005

> <r_lp_Energy>
10.0187

> <b_lp_Chiralities_Consistent>
1

> <s_lp_Variant>
AV-unprocessed.smi:2795-2

> <Gold.Version>
5.8.1

> <Gold.Id.Protein>
6NUR|6NUR_protein|mol2

> <Gold.PLP.Fitness>
49.7324

> <Gold.PLP.PLP>
-37.3660

> <Gold.PLP.part.hbond>
-2.0000

> <Gold.PLP.part.metal>
0.0000

> <Gold.PLP.part.buried>
1.5393

> <Gold.PLP.part.nonpolar>
-34.4976

> <Gold.PLP.part.repulsive>
0.2624

> <Gold.PLP.ligand.clash>
0.4896

> <Gold.PLP.ligand.torsion>
0.1672

> <Gold.PLP.Chemscore.Hbond>
2.9760

> <Gold.PLP.Chemscore.CHOScore>
1.4168

> <Gold.PLP.Chemscore.Metal>
0.0000

> <Gold.Chemscore.Hbonds>
donor molecule, donor type, donor heavy atom, donor atom, acceptor molecule, acceptor atom, score
      L1  H     4    37       P1  7949  1.10
      P1  H  7997  8009       L1    11  0.37
      L1  C     3    21       P1  7948  0.56
      L1  C     3    21       P1  7957  0.53

> <Gold.PLP.Chemscore.Internal.Correction>
0.0120

> <Gold.Rescore>
     Score         DG    S(hbond)    S(metal)    S(lipo)     H(rot)  DE(clash)    DE(int)     intcor
     14.58     -16.43       1.57        0.00      88.64       1.82       0.20       1.65       ----

> <Gold.Chemscore.Fitness>
14.5816

> <Gold.Chemscore.DG>
-16.4287

> <Gold.Chemscore.ZeroCoef>
-5.4800

> <Gold.Chemscore.Hbond>
1.5701

> <Gold.Chemscore.Metal>
0.0000

> <Gold.Chemscore.Lipo>
88.6395

> <Gold.Chemscore.Internal_Hbond>
0.0000

> <Gold.Chemscore.DEClash>
0.1985

> <Gold.Chemscore.DEInternal>
1.6487

> <Gold.Chemscore.Rot>
1.8227

> <Gold.Chemscore.Internal.Correction>
   9.000000E+99

> <Gold.Chemscore.Hbonds>
donor molecule, donor type, donor heavy atom, donor atom, acceptor molecule, acceptor atom, score
      L1  H     4    37       P1  7949  0.05
      P1  H  7997  8009       L1    11  0.35

> <Gold.Chemscore.Hbond.Weighted>
-5.2441

> <Gold.Chemscore.Metal.Weighted>
-0.0000

> <Gold.Chemscore.Lipo.Weighted>
-10.3708

> <Gold.Chemscore.Internal_Hbond.Weighted>
0.0000

> <Gold.Chemscore.DEClash.Weighted>
0.1985

> <Gold.Chemscore.DEInternal.Weighted>
1.6487

> <Gold.Chemscore.Rot.Weighted>
4.6662

> <Gold.Chemscore.Internal.Correction.Weighted>
   9.000000E+99

> <Gold.Protein.RotatedTorsions>
[ 6907 6896 6895 6894 ] final   14.21 input  -60.11 | X-H torsion
[ 7974 7965 7964 7962 ] final   63.44 input  175.53 | X-H torsion
[ 8008 7997 7996 7995 ] final  137.89 input   59.86 | X-H torsion
[ 10167 10162 10161 10158 ] final  -42.49 input  -65.29 | X-H torsion
[ 10718 10713 10712 10709 ] final  -39.11 input   66.30 | X-H torsion
[ 10763 10752 10751 10750 ] final   10.93 input  -60.55 | X-H torsion
[ 11005 11000 10999 10996 ] final  129.63 input  -57.11 | X-H torsion

> <Gold.Protein.ActiveResidues>
 VAL166  LYS551  ARG553  GLY616  TRP617  ASP618  TYR619  PRO620  LYS621  CYS622 
 ASP623  PHE694  ASN695  SER759  ASP760  ASP761  ALA762  ILE779  LEU786  VAL792 
 PHE793  MET794  SER795  GLU796  ALA797  LYS798  CYS799  TRP800  GLU811  SER814 

> <Gold.Protein.RotatedAtoms>
  151.7986  135.0715  160.0396 H   0  0  0  0  0  0  0  0  0  0  0  0  # atno 6907 bound_to 6896
  152.3105  133.5744  159.5686 H   0  0  0  0  0  0  0  0  0  0  0  0  # atno 6908 bound_to 6896
  150.7318  134.0075  159.3700 H   0  0  0  0  0  0  0  0  0  0  0  0  # atno 6909 bound_to 6896
  145.8618  139.3320  143.0814 H   0  0  0  0  0  0  0  0  0  0  0  0  # atno 7974 bound_to 7965
  156.3000  140.2408  156.3984 H   0  0  0  0  0  0  0  0  0  0  0  0  # atno 8008 bound_to 7997
  154.8550  140.0422  157.1648 H   0  0  0  0  0  0  0  0  0  0  0  0  # atno 8009 bound_to 7997
  154.8958  140.2970  155.5349 H   0  0  0  0  0  0  0  0  0  0  0  0  # atno 8010 bound_to 7997
  140.6967  143.3034  151.3217 H   0  0  0  0  0  0  0  0  0  0  0  0  # atno 10167 bound_to 10162
  156.2961  130.4234  149.8189 H   0  0  0  0  0  0  0  0  0  0  0  0  # atno 10718 bound_to 10713
  153.1979  135.6852  153.8268 H   0  0  0  0  0  0  0  0  0  0  0  0  # atno 10763 bound_to 10752
  153.7544  135.3219  155.3328 H   0  0  0  0  0  0  0  0  0  0  0  0  # atno 10764 bound_to 10752
  154.8155  135.4688  154.0732 H   0  0  0  0  0  0  0  0  0  0  0  0  # atno 10765 bound_to 10752
  139.9626  134.9598  156.9176 H   0  0  0  0  0  0  0  0  0  0  0  0  # atno 11005 bound_to 11000
  145.9239  140.9096  143.0391 LP  0  0  0  0  0  0  0  0  0  0  0  0  # atno 17320 bound_to 7965
  144.6726  140.1327  143.7442 LP  0  0  0  0  0  0  0  0  0  0  0  0  # atno 17321 bound_to 7965
  139.6431  144.0501  152.2570 LP  0  0  0  0  0  0  0  0  0  0  0  0  # atno 17342 bound_to 10162
  140.0013  144.6291  150.7727 LP  0  0  0  0  0  0  0  0  0  0  0  0  # atno 17343 bound_to 10162
  156.5584  130.8373  151.3321 LP  0  0  0  0  0  0  0  0  0  0  0  0  # atno 17370 bound_to 10713
  157.7356  130.9764  150.2089 LP  0  0  0  0  0  0  0  0  0  0  0  0  # atno 17371 bound_to 10713
  140.5466  134.0668  155.7357 LP  0  0  0  0  0  0  0  0  0  0  0  0  # atno 17394 bound_to 11000
  141.1304  133.9311  157.2547 LP  0  0  0  0  0  0  0  0  0  0  0  0  # atno 17395 bound_to 11000

$$$$
