AV-unprocessed.smi:528|AV-procd|sdf|2831|dock4
  -GOLD-   2262023313D 1   1.00000     0.00000
 Structure written by MMmdl.
 45 47  0  0  0  0  0  0  0  0  1 V2000
  156.2996  134.2011  158.5755 C   0  0  0  0  0  0  0  0  0  0  0  0
  155.8494  135.6209  158.9527 C   0  0  2  0  0  0  0  0  0  0  0  0
  156.5468  136.5802  158.0985 N   0  0  0  0  0  0  0  0  0  0  0  0
  156.7340  136.4666  156.7742 C   0  0  0  0  0  0  0  0  0  0  0  0
  156.3737  135.4874  156.1197 O   0  0  0  0  0  0  0  0  0  0  0  0
  157.4435  137.6453  156.0948 C   0  0  0  0  0  0  0  0  0  0  0  0
  157.6077  137.4481  154.6456 N   0  0  0  0  0  0  0  0  0  0  0  0
  158.3879  136.3459  154.2448 C   0  0  0  0  0  0  0  0  0  0  0  0
  158.6256  136.0453  152.9541 C   0  0  0  0  0  0  0  0  0  0  0  0
  159.5260  134.8856  152.5582 C   0  0  0  0  0  0  0  0  0  0  0  0
  159.0111  133.7202  152.9506 F   0  0  0  0  0  0  0  0  0  0  0  0
  159.7008  134.8430  151.2367 F   0  0  0  0  0  0  0  0  0  0  0  0
  160.7215  135.0254  153.1295 F   0  0  0  0  0  0  0  0  0  0  0  0
  158.0543  136.9415  151.9681 C   0  0  0  0  0  0  0  0  0  0  0  0
  157.3175  138.0086  152.3347 C   0  0  0  0  0  0  0  0  0  0  0  0
  157.0584  138.3153  153.7435 C   0  0  0  0  0  0  0  0  0  0  0  0
  156.3925  139.2914  154.0888 O   0  0  0  0  0  0  0  0  0  0  0  0
  156.1278  135.9467  160.4396 C   0  0  2  0  0  0  0  0  0  0  0  0
  155.0976  135.3730  161.4387 C   0  0  0  0  0  0  0  0  0  0  0  0
  154.7506  136.5901  162.3172 C   0  0  2  0  0  0  0  0  0  0  0  0
  153.8521  137.5491  161.5158 C   0  0  0  0  0  0  0  0  0  0  0  0
  154.8330  138.1579  160.4980 C   0  0  0  0  0  0  0  0  0  0  0  0
  156.1608  137.4462  160.8322 C   0  0  1  0  0  0  0  0  0  0  0  0
  156.0704  137.3526  162.3520 C   0  0  0  0  0  0  0  0  0  0  0  0
  155.7774  133.4483  159.1661 H   0  0  0  0  0  0  0  0  0  0  0  0
  157.3695  134.0665  158.7370 H   0  0  0  0  0  0  0  0  0  0  0  0
  156.0926  133.9912  157.5255 H   0  0  0  0  0  0  0  0  0  0  0  0
  154.7738  135.6734  158.7800 H   0  0  0  0  0  0  0  0  0  0  0  0
  156.8884  137.4165  158.5492 H   0  0  0  0  0  0  0  0  0  0  0  0
  156.8769  138.5614  156.2725 H   0  0  0  0  0  0  0  0  0  0  0  0
  158.4028  137.8048  156.5896 H   0  0  0  0  0  0  0  0  0  0  0  0
  158.7933  135.7649  155.0612 H   0  0  0  0  0  0  0  0  0  0  0  0
  158.2166  136.7531  150.9171 H   0  0  0  0  0  0  0  0  0  0  0  0
  156.9059  138.6542  151.5728 H   0  0  0  0  0  0  0  0  0  0  0  0
  157.1055  135.5298  160.6890 H   0  0  0  0  0  0  0  0  0  0  0  0
  154.2115  134.9635  160.9521 H   0  0  0  0  0  0  0  0  0  0  0  0
  155.5457  134.5754  162.0326 H   0  0  0  0  0  0  0  0  0  0  0  0
  154.3437  136.3238  163.2931 H   0  0  0  0  0  0  0  0  0  0  0  0
  153.0201  137.0338  161.0345 H   0  0  0  0  0  0  0  0  0  0  0  0
  153.4375  138.3257  162.1598 H   0  0  0  0  0  0  0  0  0  0  0  0
  154.5103  138.0158  159.4678 H   0  0  0  0  0  0  0  0  0  0  0  0
  154.9271  139.2324  160.6607 H   0  0  0  0  0  0  0  0  0  0  0  0
  157.0412  137.9749  160.4652 H   0  0  0  0  0  0  0  0  0  0  0  0
  155.9960  138.3245  162.8435 H   0  0  0  0  0  0  0  0  0  0  0  0
  156.8862  136.7855  162.8037 H   0  0  0  0  0  0  0  0  0  0  0  0
  1  2  1  0  0  0  0
  1 25  1  0  0  0  0
  1 26  1  0  0  0  0
  1 27  1  0  0  0  0
  2  3  1  0  0  0  0
  2 18  1  0  0  0  0
  2 28  1  0  0  0  0
  3  4  1  0  0  0  0
  3 29  1  0  0  0  0
  4  5  2  0  0  0  0
  4  6  1  0  0  0  0
  6  7  1  0  0  0  0
  6 30  1  0  0  0  0
  6 31  1  0  0  0  0
  7 16  1  0  0  0  0
  7  8  1  0  0  0  0
  8  9  2  0  0  0  0
  8 32  1  0  0  0  0
  9 10  1  0  0  0  0
  9 14  1  0  0  0  0
 10 11  1  0  0  0  0
 10 12  1  0  0  0  0
 10 13  1  0  0  0  0
 14 15  2  0  0  0  0
 14 33  1  0  0  0  0
 15 16  1  0  0  0  0
 15 34  1  0  0  0  0
 16 17  2  0  0  0  0
 18 23  1  0  0  0  0
 18 19  1  0  0  0  0
 18 35  1  0  0  0  0
 19 20  1  0  0  0  0
 19 36  1  0  0  0  0
 19 37  1  0  0  0  0
 20 24  1  0  0  0  0
 20 21  1  0  0  0  0
 20 38  1  0  0  0  0
 21 22  1  0  0  0  0
 21 39  1  0  0  0  0
 21 40  1  0  0  0  0
 22 23  1  0  0  0  0
 22 41  1  0  0  0  0
 22 42  1  0  0  0  0
 23 24  1  0  0  0  0
 23 43  1  0  0  0  0
 24 44  1  0  0  0  0
 24 45  1  0  0  0  0
M  END
> <s_m_source_file>
AV-unprocessed.smi

> <i_m_source_file_index>
528

> <i_lp_mmshare_version>
43012

> <i_f3d_flags>
0

> <s_epik_input>
W0NIMl0xW0NIMl1bQ0BASF0oW0NIMl0yKVtDQEBIXShbQ0gyXVtDQEhdMTIpW0NASF0oW0NIM10pW05IXUMoPU8pW0NIMl1uM1tjSF1jKEMoRikoRilGKVtjSF1bY0hdYzM9Tw==

> <s_epik_cmdline>
J2VwaWtfcHl0aG9uJywgJy1waCcsICc3LjAnLCAnLXRuJywgJzgnLCAnLW1hJywgJzIwMCcsICctbWV0YWxfYmluZGluZycsICctaW1hZScsICc8aW5maWxlLm1hZT4nLCAnLW9tYWUnLCAnPG91dGZpbGUubWFlPic=

> <r_lp_tautomer_probability>
1

> <r_epik_Ionization_Penalty>
4.09479e-08

> <r_epik_Ionization_Penalty_Charging>
1.9321e-08

> <r_epik_Ionization_Penalty_Neutral>
2.16269e-08

> <r_epik_State_Penalty>
-0

> <r_epik_Charging_Adjusted_Penalty>
1.9321e-08

> <i_epik_Tot_Q>
0

> <i_epik_Tot_abs_Q>
0

> <r_epik_Metal_State_Penalty>
-0

> <b_epik_Metal_Only>
0

> <s_lp_Force_Field>
OPLS_2005

> <r_lp_Energy>
62.8802

> <b_lp_Chiralities_Consistent>
1

> <s_lp_Variant>
AV-unprocessed.smi:528-1

> <Gold.Version>
5.8.1

> <Gold.Id.Protein>
6NUR|6NUR_protein|mol2

> <Gold.PLP.Fitness>
42.7768

> <Gold.PLP.PLP>
-37.9057

> <Gold.PLP.part.hbond>
-2.0000

> <Gold.PLP.part.metal>
0.0000

> <Gold.PLP.part.buried>
-3.2377

> <Gold.PLP.part.nonpolar>
-32.8057

> <Gold.PLP.part.repulsive>
0.0514

> <Gold.PLP.ligand.clash>
0.0000

> <Gold.PLP.ligand.torsion>
0.5911

> <Gold.PLP.Chemscore.Hbond>
2.0000

> <Gold.PLP.Chemscore.CHOScore>
0.0000

> <Gold.PLP.Chemscore.Metal>
0.0000

> <Gold.Chemscore.Hbonds>
donor molecule, donor type, donor heavy atom, donor atom, acceptor molecule, acceptor atom, score
      P1  H  7997  8009       L1    17  0.94
      P1  H 10752 10764       L1     5  1.00

> <Gold.PLP.Chemscore.Internal.Correction>
0.0534

> <Gold.Rescore>
     Score         DG    S(hbond)    S(metal)    S(lipo)     H(rot)  DE(clash)    DE(int)     intcor
     16.54     -19.23       1.96        0.00      99.14       1.71       0.08       2.62       ----

> <Gold.Chemscore.Fitness>
16.5351

> <Gold.Chemscore.DG>
-19.2337

> <Gold.Chemscore.ZeroCoef>
-5.4800

> <Gold.Chemscore.Hbond>
1.9576

> <Gold.Chemscore.Metal>
0.0000

> <Gold.Chemscore.Lipo>
99.1387

> <Gold.Chemscore.Internal_Hbond>
0.0000

> <Gold.Chemscore.DEClash>
0.0792

> <Gold.Chemscore.DEInternal>
2.6195

> <Gold.Chemscore.Rot>
1.7125

> <Gold.Chemscore.Internal.Correction>
   9.000000E+99

> <Gold.Chemscore.Hbonds>
donor molecule, donor type, donor heavy atom, donor atom, acceptor molecule, acceptor atom, score
      P1  H  7997  8009       L1    17  0.91
      P1  H 10752 10764       L1     5  0.97

> <Gold.Chemscore.Hbond.Weighted>
-6.5385

> <Gold.Chemscore.Metal.Weighted>
-0.0000

> <Gold.Chemscore.Lipo.Weighted>
-11.5992

> <Gold.Chemscore.Internal_Hbond.Weighted>
0.0000

> <Gold.Chemscore.DEClash.Weighted>
0.0792

> <Gold.Chemscore.DEInternal.Weighted>
2.6195

> <Gold.Chemscore.Rot.Weighted>
4.3840

> <Gold.Chemscore.Internal.Correction.Weighted>
   9.000000E+99

> <Gold.Protein.RotatedTorsions>
[ 6907 6896 6895 6894 ] final -100.31 input  -60.11 | X-H torsion
[ 7974 7965 7964 7962 ] final  106.51 input  175.53 | X-H torsion
[ 8008 7997 7996 7995 ] final  -65.38 input   59.86 | X-H torsion
[ 10167 10162 10161 10158 ] final -127.09 input  -65.29 | X-H torsion
[ 10718 10713 10712 10709 ] final   85.15 input   66.30 | X-H torsion
[ 10763 10752 10751 10750 ] final   80.91 input  -60.55 | X-H torsion
[ 11005 11000 10999 10996 ] final -133.19 input  -57.11 | X-H torsion

> <Gold.Protein.ActiveResidues>
 VAL166  LYS551  ARG553  GLY616  TRP617  ASP618  TYR619  PRO620  LYS621  CYS622 
 ASP623  PHE694  ASN695  SER759  ASP760  ASP761  ALA762  ILE779  LEU786  VAL792 
 PHE793  MET794  SER795  GLU796  ALA797  LYS798  CYS799  TRP800  GLU811  SER814 

> <Gold.Protein.RotatedAtoms>
  150.7111  134.0906  159.3930 H   0  0  0  0  0  0  0  0  0  0  0  0  # atno 6907 bound_to 6896
  151.8892  135.0421  160.0505 H   0  0  0  0  0  0  0  0  0  0  0  0  # atno 6908 bound_to 6896
  152.2505  133.5176  159.5359 H   0  0  0  0  0  0  0  0  0  0  0  0  # atno 6909 bound_to 6896
  145.3056  139.2556  143.3790 H   0  0  0  0  0  0  0  0  0  0  0  0  # atno 7974 bound_to 7965
  154.4668  140.0934  156.7041 H   0  0  0  0  0  0  0  0  0  0  0  0  # atno 8008 bound_to 7997
  155.4836  140.3468  155.4325 H   0  0  0  0  0  0  0  0  0  0  0  0  # atno 8009 bound_to 7997
  156.0970  140.1412  156.9506 H   0  0  0  0  0  0  0  0  0  0  0  0  # atno 8010 bound_to 7997
  139.9645  143.5913  152.2434 H   0  0  0  0  0  0  0  0  0  0  0  0  # atno 10167 bound_to 10162
  157.6910  131.0163  150.2779 H   0  0  0  0  0  0  0  0  0  0  0  0  # atno 10718 bound_to 10713
  153.1072  135.4785  154.8972 H   0  0  0  0  0  0  0  0  0  0  0  0  # atno 10763 bound_to 10752
  154.7443  135.3090  154.8675 H   0  0  0  0  0  0  0  0  0  0  0  0  # atno 10764 bound_to 10752
  153.9274  135.6848  153.4799 H   0  0  0  0  0  0  0  0  0  0  0  0  # atno 10765 bound_to 10752
  140.9103  134.1577  157.4394 H   0  0  0  0  0  0  0  0  0  0  0  0  # atno 11005 bound_to 11000
  146.3136  140.3581  142.8662 LP  0  0  0  0  0  0  0  0  0  0  0  0  # atno 17320 bound_to 7965
  144.9057  140.7697  143.5839 LP  0  0  0  0  0  0  0  0  0  0  0  0  # atno 17321 bound_to 7965
  139.6528  144.7661  151.2114 LP  0  0  0  0  0  0  0  0  0  0  0  0  # atno 17342 bound_to 10162
  140.7542  143.6133  150.8584 LP  0  0  0  0  0  0  0  0  0  0  0  0  # atno 17343 bound_to 10162
  156.3331  130.3803  149.7474 LP  0  0  0  0  0  0  0  0  0  0  0  0  # atno 17370 bound_to 10713
  156.5007  130.8127  151.3131 LP  0  0  0  0  0  0  0  0  0  0  0  0  # atno 17371 bound_to 10713
  139.8756  134.9933  156.5637 LP  0  0  0  0  0  0  0  0  0  0  0  0  # atno 17394 bound_to 11000
  140.8119  133.8422  155.8817 LP  0  0  0  0  0  0  0  0  0  0  0  0  # atno 17395 bound_to 11000

$$$$
