AV-unprocessed.smi:589|AV-procd|sdf|3007|dock5
  -GOLD-   2262023513D 1   1.00000     0.00000
 Structure written by MMmdl.
 40 41  0  0  0  0  0  0  0  0  1 V2000
  153.5784  138.4354  154.4627 C   0  0  0  0  0  0  0  0  0  0  0  0
  152.2923  139.1136  154.8851 C   0  0  0  0  0  0  0  0  0  0  0  0
  151.0779  138.8380  154.2315 C   0  0  0  0  0  0  0  0  0  0  0  0
  149.9077  139.4952  154.6628 C   0  0  0  0  0  0  0  0  0  0  0  0
  148.5938  139.1538  153.9745 C   0  0  0  0  0  0  0  0  0  0  0  0
  150.0003  140.4287  155.7344 C   0  0  0  0  0  0  0  0  0  0  0  0
  148.7868  141.1651  156.2462 C   0  0  0  0  0  0  0  0  0  0  0  0
  148.8733  141.6415  157.4915 N   0  0  0  0  0  0  0  0  0  0  0  0
  147.7718  141.2835  155.5624 O   0  0  0  0  0  0  0  0  0  0  0  0
  151.2777  140.6203  156.3370 C   0  0  0  0  0  0  0  0  0  0  0  0
  151.4495  141.5243  157.3993 N   0  0  0  0  0  0  0  0  0  0  0  0
  152.4512  141.1342  158.3805 C   0  0  0  0  0  0  0  0  0  0  0  0
  152.3675  142.0651  159.6029 C   0  0  1  0  0  0  0  0  0  0  0  0
  153.4683  141.7684  160.6261 C   0  0  0  0  0  0  0  0  0  0  0  0
  152.5081  143.4216  159.1768 O   0  0  0  0  0  0  0  0  0  0  0  0
  151.5511  143.8497  158.2024 C   0  0  2  0  0  0  0  0  0  0  0  0
  150.1457  144.0184  158.8069 C   0  0  0  0  0  0  0  0  0  0  0  0
  151.5820  142.9118  156.9791 C   0  0  0  0  0  0  0  0  0  0  0  0
  152.3921  139.9786  155.9124 N   0  0  0  0  0  0  0  0  0  0  0  0
  153.4021  137.7119  153.6664 H   0  0  0  0  0  0  0  0  0  0  0  0
  154.0250  137.9093  155.3069 H   0  0  0  0  0  0  0  0  0  0  0  0
  154.2938  139.1738  154.0997 H   0  0  0  0  0  0  0  0  0  0  0  0
  151.0439  138.1272  153.4187 H   0  0  0  0  0  0  0  0  0  0  0  0
  147.8047  138.9722  154.7047 H   0  0  0  0  0  0  0  0  0  0  0  0
  148.6897  138.2521  153.3686 H   0  0  0  0  0  0  0  0  0  0  0  0
  148.2834  139.9658  153.3166 H   0  0  0  0  0  0  0  0  0  0  0  0
  148.0971  142.1470  157.8930 H   0  0  0  0  0  0  0  0  0  0  0  0
  149.7180  141.4959  158.0251 H   0  0  0  0  0  0  0  0  0  0  0  0
  152.2869  140.0991  158.6821 H   0  0  0  0  0  0  0  0  0  0  0  0
  153.4452  141.1893  157.9339 H   0  0  0  0  0  0  0  0  0  0  0  0
  151.4041  141.9337  160.0964 H   0  0  0  0  0  0  0  0  0  0  0  0
  153.3958  140.7446  160.9937 H   0  0  0  0  0  0  0  0  0  0  0  0
  153.3916  142.4357  161.4849 H   0  0  0  0  0  0  0  0  0  0  0  0
  154.4589  141.8989  160.1897 H   0  0  0  0  0  0  0  0  0  0  0  0
  151.8733  144.8375  157.8721 H   0  0  0  0  0  0  0  0  0  0  0  0
  149.4647  144.4617  158.0802 H   0  0  0  0  0  0  0  0  0  0  0  0
  150.1727  144.6742  159.6772 H   0  0  0  0  0  0  0  0  0  0  0  0
  149.7111  143.0681  159.1163 H   0  0  0  0  0  0  0  0  0  0  0  0
  152.5274  143.0334  156.4484 H   0  0  0  0  0  0  0  0  0  0  0  0
  150.7870  143.1714  156.2790 H   0  0  0  0  0  0  0  0  0  0  0  0
  1  2  1  0  0  0  0
  1 20  1  0  0  0  0
  1 21  1  0  0  0  0
  1 22  1  0  0  0  0
  2 19  1  0  0  0  0
  2  3  2  0  0  0  0
  3  4  1  0  0  0  0
  3 23  1  0  0  0  0
  4  5  1  0  0  0  0
  4  6  2  0  0  0  0
  5 24  1  0  0  0  0
  5 25  1  0  0  0  0
  5 26  1  0  0  0  0
  6  7  1  0  0  0  0
  6 10  1  0  0  0  0
  7  8  1  0  0  0  0
  7  9  2  0  0  0  0
  8 27  1  0  0  0  0
  8 28  1  0  0  0  0
 10 11  1  0  0  0  0
 10 19  2  0  0  0  0
 11 18  1  0  0  0  0
 11 12  1  0  0  0  0
 12 13  1  0  0  0  0
 12 29  1  0  0  0  0
 12 30  1  0  0  0  0
 13 14  1  0  0  0  0
 13 15  1  0  0  0  0
 13 31  1  0  0  0  0
 14 32  1  0  0  0  0
 14 33  1  0  0  0  0
 14 34  1  0  0  0  0
 15 16  1  0  0  0  0
 16 17  1  0  0  0  0
 16 18  1  0  0  0  0
 16 35  1  0  0  0  0
 17 36  1  0  0  0  0
 17 37  1  0  0  0  0
 17 38  1  0  0  0  0
 18 39  1  0  0  0  0
 18 40  1  0  0  0  0
M  END
> <s_m_source_file>
AV-unprocessed.smi

> <i_m_source_file_index>
589

> <i_lp_mmshare_version>
43012

> <i_f3d_flags>
0

> <s_epik_input>
W0NIM11jMVtjSF1jKFtDSDNdKWMoQyg9TylbTkgyXSljKG4xKU4yW0NIMl1bQ0BASF0oW0NIM10pT1tDQEBIXShbQ0gzXSlbQ0gyXTI=

> <s_epik_cmdline>
J2VwaWtfcHl0aG9uJywgJy1waCcsICc3LjAnLCAnLXRuJywgJzgnLCAnLW1hJywgJzIwMCcsICctbWV0YWxfYmluZGluZycsICctaW1hZScsICc8aW5maWxlLm1hZT4nLCAnLW9tYWUnLCAnPG91dGZpbGUubWFlPic=

> <r_lp_tautomer_probability>
1

> <r_epik_Ionization_Penalty>
0.000626871

> <r_epik_Ionization_Penalty_Charging>
0

> <r_epik_Ionization_Penalty_Neutral>
0.000626871

> <r_epik_State_Penalty>
0.000395665

> <r_epik_Charging_Adjusted_Penalty>
0.000395665

> <i_epik_Tot_Q>
0

> <i_epik_Tot_abs_Q>
0

> <r_epik_Metal_State_Penalty>
-0

> <b_epik_Metal_Only>
0

> <s_lp_Force_Field>
OPLS_2005

> <r_lp_Energy>
27.549

> <b_lp_Chiralities_Consistent>
1

> <s_lp_Variant>
AV-unprocessed.smi:589-3

> <Gold.Version>
5.8.1

> <Gold.Id.Protein>
6NUR|6NUR_protein|mol2

> <Gold.PLP.Fitness>
35.3362

> <Gold.PLP.PLP>
-33.6929

> <Gold.PLP.part.hbond>
-1.0000

> <Gold.PLP.part.metal>
0.0000

> <Gold.PLP.part.buried>
-5.0738

> <Gold.PLP.part.nonpolar>
-28.7280

> <Gold.PLP.part.repulsive>
0.1996

> <Gold.PLP.ligand.clash>
0.0061

> <Gold.PLP.ligand.torsion>
0.8482

> <Gold.PLP.Chemscore.Hbond>
1.0000

> <Gold.PLP.Chemscore.CHOScore>
0.0000

> <Gold.PLP.Chemscore.Metal>
0.0000

> <Gold.Chemscore.Hbonds>
donor molecule, donor type, donor heavy atom, donor atom, acceptor molecule, acceptor atom, score
      P1  H  7997  8008       L1    19  1.00

> <Gold.PLP.Chemscore.Internal.Correction>
0.3458

> <Gold.Rescore>
     Score         DG    S(hbond)    S(metal)    S(lipo)     H(rot)  DE(clash)    DE(int)     intcor
     12.16     -16.40       0.60        0.00      98.05       1.00       0.34       3.89       ----

> <Gold.Chemscore.Fitness>
12.1649

> <Gold.Chemscore.DG>
-16.3994

> <Gold.Chemscore.ZeroCoef>
-5.4800

> <Gold.Chemscore.Hbond>
0.6010

> <Gold.Chemscore.Metal>
0.0000

> <Gold.Chemscore.Lipo>
98.0525

> <Gold.Chemscore.Internal_Hbond>
0.0000

> <Gold.Chemscore.DEClash>
0.3425

> <Gold.Chemscore.DEInternal>
3.8921

> <Gold.Chemscore.Rot>
1.0000

> <Gold.Chemscore.Internal.Correction>
   9.000000E+99

> <Gold.Chemscore.Hbonds>
donor molecule, donor type, donor heavy atom, donor atom, acceptor molecule, acceptor atom, score
      P1  H  7997  8008       L1    19  0.34

> <Gold.Chemscore.Hbond.Weighted>
-2.0073

> <Gold.Chemscore.Metal.Weighted>
-0.0000

> <Gold.Chemscore.Lipo.Weighted>
-11.4721

> <Gold.Chemscore.Internal_Hbond.Weighted>
0.0000

> <Gold.Chemscore.DEClash.Weighted>
0.3425

> <Gold.Chemscore.DEInternal.Weighted>
3.8921

> <Gold.Chemscore.Rot.Weighted>
2.5600

> <Gold.Chemscore.Internal.Correction.Weighted>
   9.000000E+99

> <Gold.Protein.RotatedTorsions>
[ 6907 6896 6895 6894 ] final -140.85 input  -60.11 | X-H torsion
[ 7974 7965 7964 7962 ] final -140.54 input  175.53 | X-H torsion
[ 8008 7997 7996 7995 ] final  -29.31 input   59.86 | X-H torsion
[ 10167 10162 10161 10158 ] final   48.39 input  -65.29 | X-H torsion
[ 10718 10713 10712 10709 ] final  -37.29 input   66.30 | X-H torsion
[ 10763 10752 10751 10750 ] final   37.56 input  -60.55 | X-H torsion
[ 11005 11000 10999 10996 ] final  -54.92 input  -57.11 | X-H torsion

> <Gold.Protein.ActiveResidues>
 VAL166  LYS551  ARG553  GLY616  TRP617  ASP618  TYR619  PRO620  LYS621  CYS622 
 ASP623  PHE694  ASN695  SER759  ASP760  ASP761  ALA762  ILE779  LEU786  VAL792 
 PHE793  MET794  SER795  GLU796  ALA797  LYS798  CYS799  TRP800  GLU811  SER814 

> <Gold.Protein.RotatedAtoms>
  151.0661  133.5504  159.2630 H   0  0  0  0  0  0  0  0  0  0  0  0  # atno 6907 bound_to 6896
  151.2462  135.0605  159.9054 H   0  0  0  0  0  0  0  0  0  0  0  0  # atno 6908 bound_to 6896
  152.5405  134.0428  159.8129 H   0  0  0  0  0  0  0  0  0  0  0  0  # atno 6909 bound_to 6896
  144.8589  140.6187  143.5341 H   0  0  0  0  0  0  0  0  0  0  0  0  # atno 7974 bound_to 7965
  154.4295  140.1821  156.1228 H   0  0  0  0  0  0  0  0  0  0  0  0  # atno 8008 bound_to 7997
  156.0129  140.3349  155.6934 H   0  0  0  0  0  0  0  0  0  0  0  0  # atno 8009 bound_to 7997
  155.6085  140.0647  157.2703 H   0  0  0  0  0  0  0  0  0  0  0  0  # atno 8010 bound_to 7997
  140.2938  144.3015  150.6234 H   0  0  0  0  0  0  0  0  0  0  0  0  # atno 10167 bound_to 10162
  156.3169  130.4260  149.7997 H   0  0  0  0  0  0  0  0  0  0  0  0  # atno 10718 bound_to 10713
  153.0033  135.6274  154.2165 H   0  0  0  0  0  0  0  0  0  0  0  0  # atno 10763 bound_to 10752
  154.1908  135.2809  155.3024 H   0  0  0  0  0  0  0  0  0  0  0  0  # atno 10764 bound_to 10752
  154.5761  135.5662  153.7200 H   0  0  0  0  0  0  0  0  0  0  0  0  # atno 10765 bound_to 10752
  141.1049  133.6614  156.4393 H   0  0  0  0  0  0  0  0  0  0  0  0  # atno 11005 bound_to 11000
  145.4351  139.1543  143.4001 LP  0  0  0  0  0  0  0  0  0  0  0  0  # atno 17320 bound_to 7965
  146.2845  140.4469  142.8763 LP  0  0  0  0  0  0  0  0  0  0  0  0  # atno 17321 bound_to 7965
  140.5710  143.2181  151.7599 LP  0  0  0  0  0  0  0  0  0  0  0  0  # atno 17342 bound_to 10162
  139.4931  144.4217  151.9970 LP  0  0  0  0  0  0  0  0  0  0  0  0  # atno 17343 bound_to 10162
  156.5320  130.8261  151.3240 LP  0  0  0  0  0  0  0  0  0  0  0  0  # atno 17370 bound_to 10713
  157.7403  130.9848  150.2371 LP  0  0  0  0  0  0  0  0  0  0  0  0  # atno 17371 bound_to 10713
  140.4927  134.6560  157.5217 LP  0  0  0  0  0  0  0  0  0  0  0  0  # atno 17394 bound_to 11000
  139.9915  134.6977  155.9681 LP  0  0  0  0  0  0  0  0  0  0  0  0  # atno 17395 bound_to 11000

$$$$
