AV-unprocessed.smi:634|AV-procd|sdf|3137|dock9
  -GOLD-   22720 0 63D 1   1.00000     0.00000
 Structure written by MMmdl.
 32 33  0  0  0  0  0  0  0  0  2 V2000
  146.5967  134.3753  163.1082 C   0  0  0  0  0  0  0  0  0  0  0  0
  147.1097  135.1966  161.9757 C   0  0  0  0  0  0  0  0  0  0  0  0
  147.3801  134.9113  160.6670 C   0  0  0  0  0  0  0  0  0  0  0  0
  147.8423  136.1536  160.1561 C   0  0  0  0  0  0  0  0  0  0  0  0
  148.2393  136.2748  158.7983 N   0  0  0  0  0  0  0  0  0  0  0  0
  149.4555  136.5571  158.2977 C   0  0  0  0  0  0  0  0  0  0  0  0
  150.4063  136.7812  159.0540 O   0  0  0  0  0  0  0  0  0  0  0  0
  149.4632  136.5543  156.9348 N   0  5  0  0  0  0  0  0  0  0  0  0
  150.2313  137.4315  156.0318 C   0  0  1  0  0  0  0  0  0  0  0  0
  151.0717  136.5058  155.1273 C   0  0  0  0  0  0  0  0  0  0  0  0
  149.3050  138.3140  155.1513 C   0  0  0  0  0  0  0  0  0  0  0  0
  150.1317  139.4398  154.5091 C   0  0  0  0  0  0  0  0  0  0  0  0
  151.4858  139.8119  155.6900 S   0  0  0  0  0  0  0  0  0  0  0  0
  152.7772  139.6247  155.0098 O   0  0  0  0  0  0  0  0  0  0  0  0
  151.1871  141.0643  156.4018 O   0  0  0  0  0  0  0  0  0  0  0  0
  151.1635  138.3906  156.8089 C   0  0  0  0  0  0  0  0  0  0  0  0
  147.8495  137.1114  161.0717 N   0  0  0  0  0  0  0  0  0  0  0  0
  147.3804  136.5031  162.2420 O   0  0  0  0  0  0  0  0  0  0  0  0
  146.6310  133.3129  162.8659 H   0  0  0  0  0  0  0  0  0  0  0  0
  145.5641  134.6380  163.3376 H   0  0  0  0  0  0  0  0  0  0  0  0
  147.1950  134.5361  164.0052 H   0  0  0  0  0  0  0  0  0  0  0  0
  147.2676  133.9650  160.1588 H   0  0  0  0  0  0  0  0  0  0  0  0
  147.5145  136.1123  158.1151 H   0  0  0  0  0  0  0  0  0  0  0  0
  151.6931  137.0676  154.4301 H   0  0  0  0  0  0  0  0  0  0  0  0
  150.4369  135.8449  154.5357 H   0  0  0  0  0  0  0  0  0  0  0  0
  151.7394  135.8755  155.7162 H   0  0  0  0  0  0  0  0  0  0  0  0
  148.7766  137.7293  154.3975 H   0  0  0  0  0  0  0  0  0  0  0  0
  148.5374  138.7873  155.7630 H   0  0  0  0  0  0  0  0  0  0  0  0
  150.5778  139.1195  153.5668 H   0  0  0  0  0  0  0  0  0  0  0  0
  149.5421  140.3373  154.3223 H   0  0  0  0  0  0  0  0  0  0  0  0
  150.6915  138.7953  157.7034 H   0  0  0  0  0  0  0  0  0  0  0  0
  152.1046  137.9292  157.1085 H   0  0  0  0  0  0  0  0  0  0  0  0
  1  2  1  0  0  0  0
  1 19  1  0  0  0  0
  1 20  1  0  0  0  0
  1 21  1  0  0  0  0
  2 18  1  0  0  0  0
  2  3  2  0  0  0  0
  3  4  1  0  0  0  0
  3 22  1  0  0  0  0
  4  5  1  0  0  0  0
  4 17  2  0  0  0  0
  5  6  1  0  0  0  0
  5 23  1  0  0  0  0
  6  7  2  0  0  0  0
  6  8  1  0  0  0  0
  8  9  1  0  0  0  0
  9 16  1  0  0  0  0
  9 10  1  0  0  0  0
  9 11  1  0  0  0  0
 10 24  1  0  0  0  0
 10 25  1  0  0  0  0
 10 26  1  0  0  0  0
 11 12  1  0  0  0  0
 11 27  1  0  0  0  0
 11 28  1  0  0  0  0
 12 13  1  0  0  0  0
 12 29  1  0  0  0  0
 12 30  1  0  0  0  0
 13 14  2  0  0  0  0
 13 15  2  0  0  0  0
 13 16  1  0  0  0  0
 16 31  1  0  0  0  0
 16 32  1  0  0  0  0
 17 18  1  0  0  0  0
M  CHG  1   8  -1
M  END
> <s_m_source_file>
AV-unprocessed.smi

> <i_m_source_file_index>
634

> <i_lp_mmshare_version>
43012

> <i_f3d_flags>
0

> <s_epik_input>
W0NIM11jMVtjSF1jKG5vMSlbTkhdQyg9TylbTkhdW0NAQF0yKFtDSDNdKVtDSDJdW0NIMl1TKD1PKSg9TylbQ0gyXTI=

> <s_epik_cmdline>
J2VwaWtfcHl0aG9uJywgJy1waCcsICc3LjAnLCAnLXRuJywgJzgnLCAnLW1hJywgJzIwMCcsICctbWV0YWxfYmluZGluZycsICctaW1hZScsICc8aW5maWxlLm1hZT4nLCAnLW9tYWUnLCAnPG91dGZpbGUubWFlPic=

> <r_lp_tautomer_probability>
1

> <r_epik_Ionization_Penalty>
6.62388

> <r_epik_Ionization_Penalty_Charging>
6.62387

> <r_epik_Ionization_Penalty_Neutral>
5.45748e-06

> <r_epik_State_Penalty>
6.65157

> <r_epik_Charging_Adjusted_Penalty>
13.2754

> <i_epik_Tot_Q>
-1

> <i_epik_Tot_abs_Q>
1

> <r_epik_Metal_State_Penalty>
2.59195

> <b_epik_Metal_Only>
1

> <s_lp_Force_Field>
OPLS_2005

> <r_lp_Energy>
8.12985

> <b_lp_Chiralities_Consistent>
1

> <s_lp_Variant>
AV-unprocessed.smi:634-5

> <Gold.Version>
5.8.1

> <Gold.Id.Protein>
6NUR|6NUR_protein|mol2

> <Gold.PLP.Fitness>
34.3371

> <Gold.PLP.PLP>
-25.0166

> <Gold.PLP.part.hbond>
-5.0000

> <Gold.PLP.part.metal>
0.0000

> <Gold.PLP.part.buried>
-2.4821

> <Gold.PLP.part.nonpolar>
-18.7719

> <Gold.PLP.part.repulsive>
0.1427

> <Gold.PLP.ligand.clash>
0.0000

> <Gold.PLP.ligand.torsion>
0.8807

> <Gold.PLP.Chemscore.Hbond>
3.6928

> <Gold.PLP.Chemscore.CHOScore>
0.0000

> <Gold.PLP.Chemscore.Metal>
0.0000

> <Gold.Chemscore.Hbonds>
donor molecule, donor type, donor heavy atom, donor atom, acceptor molecule, acceptor atom, score
      P1  H  6896  6908       L1     7  0.98
      P1  H  6931  6943       L1    17  0.78
      P1  H  6934  6947       L1    17  0.82
      P1  H  7997  8008       L1    14  1.00

> <Gold.PLP.Chemscore.Internal.Correction>
0.0034

> <Gold.Rescore>
     Score         DG    S(hbond)    S(metal)    S(lipo)     H(rot)  DE(clash)    DE(int)     intcor
     17.23     -19.47       3.48        0.00      41.97       1.00       0.01       2.23       ----

> <Gold.Chemscore.Fitness>
17.2254

> <Gold.Chemscore.DG>
-19.4695

> <Gold.Chemscore.ZeroCoef>
-5.4800

> <Gold.Chemscore.Hbond>
3.4848

> <Gold.Chemscore.Metal>
0.0000

> <Gold.Chemscore.Lipo>
41.9677

> <Gold.Chemscore.Internal_Hbond>
0.0000

> <Gold.Chemscore.DEClash>
0.0137

> <Gold.Chemscore.DEInternal>
2.2304

> <Gold.Chemscore.Rot>
1.0000

> <Gold.Chemscore.Internal.Correction>
   9.000000E+99

> <Gold.Chemscore.Hbonds>
donor molecule, donor type, donor heavy atom, donor atom, acceptor molecule, acceptor atom, score
      P1  H  6896  6908       L1     7  0.36
      P1  H  6931  6943       L1    17  0.11
      P1  H  6934  6947       L1    17  0.60
      P1  H  7997  8008       L1    14  0.95

> <Gold.Chemscore.Hbond.Weighted>
-11.6393

> <Gold.Chemscore.Metal.Weighted>
-0.0000

> <Gold.Chemscore.Lipo.Weighted>
-4.9102

> <Gold.Chemscore.Internal_Hbond.Weighted>
0.0000

> <Gold.Chemscore.DEClash.Weighted>
0.0137

> <Gold.Chemscore.DEInternal.Weighted>
2.2304

> <Gold.Chemscore.Rot.Weighted>
2.5600

> <Gold.Chemscore.Internal.Correction.Weighted>
   9.000000E+99

> <Gold.Protein.RotatedTorsions>
[ 6907 6896 6895 6894 ] final -166.36 input  -60.11 | X-H torsion
[ 7974 7965 7964 7962 ] final -154.12 input  175.53 | X-H torsion
[ 8008 7997 7996 7995 ] final  -19.23 input   59.86 | X-H torsion
[ 10167 10162 10161 10158 ] final  -20.51 input  -65.29 | X-H torsion
[ 10718 10713 10712 10709 ] final  111.10 input   66.30 | X-H torsion
[ 10763 10752 10751 10750 ] final   96.54 input  -60.55 | X-H torsion
[ 11005 11000 10999 10996 ] final    0.29 input  -57.11 | X-H torsion

> <Gold.Protein.ActiveResidues>
 VAL166  LYS551  ARG553  GLY616  TRP617  ASP618  TYR619  PRO620  LYS621  CYS622 
 ASP623  PHE694  ASN695  SER759  ASP760  ASP761  ALA762  ILE779  LEU786  VAL792 
 PHE793  MET794  SER795  GLU796  ALA797  LYS798  CYS799  TRP800  GLU811  SER814 

> <Gold.Protein.RotatedAtoms>
  151.4423  133.3640  159.2783 H   0  0  0  0  0  0  0  0  0  0  0  0  # atno 6907 bound_to 6896
  150.9149  134.8568  159.7461 H   0  0  0  0  0  0  0  0  0  0  0  0  # atno 6908 bound_to 6896
  152.4952  134.4356  159.9578 H   0  0  0  0  0  0  0  0  0  0  0  0  # atno 6909 bound_to 6896
  144.7705  140.4432  143.5910 H   0  0  0  0  0  0  0  0  0  0  0  0  # atno 7974 bound_to 7965
  154.4851  140.2094  155.9675 H   0  0  0  0  0  0  0  0  0  0  0  0  # atno 8008 bound_to 7997
  156.1223  140.3211  155.8195 H   0  0  0  0  0  0  0  0  0  0  0  0  # atno 8009 bound_to 7997
  155.4445  140.0512  157.2998 H   0  0  0  0  0  0  0  0  0  0  0  0  # atno 8010 bound_to 7997
  140.7276  143.4716  151.0239 H   0  0  0  0  0  0  0  0  0  0  0  0  # atno 10167 bound_to 10162
  157.6461  131.0944  150.6699 H   0  0  0  0  0  0  0  0  0  0  0  0  # atno 10718 bound_to 10713
  153.2662  135.4215  155.0943 H   0  0  0  0  0  0  0  0  0  0  0  0  # atno 10763 bound_to 10752
  154.8439  135.3461  154.6308 H   0  0  0  0  0  0  0  0  0  0  0  0  # atno 10764 bound_to 10752
  153.6728  135.7043  153.5199 H   0  0  0  0  0  0  0  0  0  0  0  0  # atno 10765 bound_to 10752
  140.6282  133.9599  155.8260 H   0  0  0  0  0  0  0  0  0  0  0  0  # atno 11005 bound_to 11000
  145.6337  139.1540  143.2954 LP  0  0  0  0  0  0  0  0  0  0  0  0  # atno 17320 bound_to 7965
  146.1848  140.6439  142.9172 LP  0  0  0  0  0  0  0  0  0  0  0  0  # atno 17321 bound_to 7965
  139.8408  143.7566  152.3180 LP  0  0  0  0  0  0  0  0  0  0  0  0  # atno 17342 bound_to 10162
  139.7714  144.7475  151.0218 LP  0  0  0  0  0  0  0  0  0  0  0  0  # atno 17343 bound_to 10162
  156.7016  130.4625  149.5571 LP  0  0  0  0  0  0  0  0  0  0  0  0  # atno 17370 bound_to 10713
  156.1791  130.6487  151.0930 LP  0  0  0  0  0  0  0  0  0  0  0  0  # atno 17371 bound_to 10713
  141.0694  134.0228  157.3548 LP  0  0  0  0  0  0  0  0  0  0  0  0  # atno 17394 bound_to 11000
  139.9126  135.0192  156.7754 LP  0  0  0  0  0  0  0  0  0  0  0  0  # atno 17395 bound_to 11000

$$$$
