AV-unprocessed.smi:2567|AV-procd|sdf|10082|dock2
  -GOLD-   2272014103D 1   1.00000     0.00000
 Structure written by MMmdl.
 33 34  0  0  0  0  0  0  0  0  1 V2000
  151.8330  143.8021  161.1280 C   0  0  0  0  0  0  0  0  0  0  0  0
  151.2103  143.9808  159.7254 C   0  0  0  0  0  0  0  0  0  0  0  0
  149.7151  144.3021  159.9418 C   0  0  0  0  0  0  0  0  0  0  0  0
  151.8911  145.1540  158.9977 C   0  0  0  0  0  0  0  0  0  0  0  0
  151.3626  142.7198  158.9065 C   0  0  0  0  0  0  0  0  0  0  0  0
  152.0131  141.6554  159.3836 N   0  0  0  0  0  0  0  0  0  0  0  0
  152.0427  140.8299  158.3172 N   0  0  0  0  0  0  0  0  0  0  0  0
  151.4805  141.4383  157.2728 C   0  0  0  0  0  0  0  0  0  0  0  0
  151.3937  140.7910  155.9266 C   0  0  2  0  0  0  0  0  0  0  0  0
  149.9483  140.7377  155.3943 C   0  0  0  0  0  0  0  0  0  0  0  0
  149.9033  140.0186  154.1221 N   0  0  0  0  0  0  0  0  0  0  0  0
  150.4923  138.6863  154.2482 C   0  0  0  0  0  0  0  0  0  0  0  0
  151.9203  138.7830  154.8148 C   0  0  0  0  0  0  0  0  0  0  0  0
  151.8937  139.4633  156.0651 O   0  0  0  0  0  0  0  0  0  0  0  0
  151.0578  142.6623  157.5715 N   0  0  0  0  0  0  0  0  0  0  0  0
  152.4606  139.9107  158.3416 H   0  0  0  0  0  0  0  0  0  0  0  0
  151.6933  144.6937  161.7403 H   0  0  0  0  0  0  0  0  0  0  0  0
  152.9066  143.6186  161.0748 H   0  0  0  0  0  0  0  0  0  0  0  0
  151.3804  142.9646  161.6607 H   0  0  0  0  0  0  0  0  0  0  0  0
  149.1986  143.4783  160.4360 H   0  0  0  0  0  0  0  0  0  0  0  0
  149.2021  144.4946  158.9988 H   0  0  0  0  0  0  0  0  0  0  0  0
  149.5850  145.1898  160.5617 H   0  0  0  0  0  0  0  0  0  0  0  0
  151.7926  146.0821  159.5617 H   0  0  0  0  0  0  0  0  0  0  0  0
  151.4507  145.3180  158.0135 H   0  0  0  0  0  0  0  0  0  0  0  0
  152.9560  144.9673  158.8542 H   0  0  0  0  0  0  0  0  0  0  0  0
  152.0295  141.3469  155.2345 H   0  0  0  0  0  0  0  0  0  0  0  0
  149.3056  140.2403  156.1217 H   0  0  0  0  0  0  0  0  0  0  0  0
  149.5567  141.7473  155.2677 H   0  0  0  0  0  0  0  0  0  0  0  0
  148.9400  139.9356  153.8130 H   0  0  0  0  0  0  0  0  0  0  0  0
  149.8787  138.0704  154.9067 H   0  0  0  0  0  0  0  0  0  0  0  0
  150.5067  138.1896  153.2779 H   0  0  0  0  0  0  0  0  0  0  0  0
  152.3318  137.7850  154.9654 H   0  0  0  0  0  0  0  0  0  0  0  0
  152.5835  139.2989  154.1183 H   0  0  0  0  0  0  0  0  0  0  0  0
  1  2  1  0  0  0  0
  1 17  1  0  0  0  0
  1 18  1  0  0  0  0
  1 19  1  0  0  0  0
  2  3  1  0  0  0  0
  2  4  1  0  0  0  0
  2  5  1  0  0  0  0
  3 20  1  0  0  0  0
  3 21  1  0  0  0  0
  3 22  1  0  0  0  0
  4 23  1  0  0  0  0
  4 24  1  0  0  0  0
  4 25  1  0  0  0  0
  5 15  1  0  0  0  0
  5  6  2  0  0  0  0
  6  7  1  0  0  0  0
  7 16  1  0  0  0  0
  7  8  1  0  0  0  0
  8  9  1  0  0  0  0
  8 15  2  0  0  0  0
  9 14  1  0  0  0  0
  9 10  1  0  0  0  0
  9 26  1  0  0  0  0
 10 11  1  0  0  0  0
 10 27  1  0  0  0  0
 10 28  1  0  0  0  0
 11 12  1  0  0  0  0
 11 29  1  0  0  0  0
 12 13  1  0  0  0  0
 12 30  1  0  0  0  0
 12 31  1  0  0  0  0
 13 14  1  0  0  0  0
 13 32  1  0  0  0  0
 13 33  1  0  0  0  0
M  END
> <s_m_source_file>
AV-unprocessed.smi

> <i_m_source_file_index>
2567

> <i_lp_mmshare_version>
43012

> <i_f3d_flags>
0

> <s_epik_input>
W0NIM11DKFtDSDNdKShbQ0gzXSljMW5bbkhdYyhuMSlbQ0BASF0yW0NIMl1bTkhdW0NIMl1bQ0gyXU8y

> <s_epik_cmdline>
J2VwaWtfcHl0aG9uJywgJy1waCcsICc3LjAnLCAnLXRuJywgJzgnLCAnLW1hJywgJzIwMCcsICctbWV0YWxfYmluZGluZycsICctaW1hZScsICc8aW5maWxlLm1hZT4nLCAnLW9tYWUnLCAnPG91dGZpbGUubWFlPic=

> <r_epik_Ionization_Penalty>
0.981987

> <r_epik_Ionization_Penalty_Charging>
0

> <r_epik_Ionization_Penalty_Neutral>
0.981987

> <r_epik_State_Penalty>
2.09479

> <r_epik_Charging_Adjusted_Penalty>
2.09479

> <i_epik_Tot_Q>
0

> <i_epik_Tot_abs_Q>
0

> <r_epik_Metal_State_Penalty>
2.40362

> <b_epik_Metal_Only>
0

> <s_lp_Force_Field>
OPLS_2005

> <r_lp_Energy>
12.9727

> <b_lp_Chiralities_Consistent>
1

> <s_lp_Variant>
AV-unprocessed.smi:2567-7

> <Gold.Version>
5.8.1

> <Gold.Id.Protein>
6NUR|6NUR_protein|mol2

> <Gold.PLP.Fitness>
34.8165

> <Gold.PLP.PLP>
-33.4804

> <Gold.PLP.part.hbond>
-2.0000

> <Gold.PLP.part.metal>
0.0000

> <Gold.PLP.part.buried>
-6.2738

> <Gold.PLP.part.nonpolar>
-25.4972

> <Gold.PLP.part.repulsive>
0.1993

> <Gold.PLP.ligand.clash>
0.0000

> <Gold.PLP.ligand.torsion>
0.1780

> <Gold.PLP.Chemscore.Hbond>
0.4961

> <Gold.PLP.Chemscore.CHOScore>
0.0000

> <Gold.PLP.Chemscore.Metal>
0.0000

> <Gold.Chemscore.Hbonds>
donor molecule, donor type, donor heavy atom, donor atom, acceptor molecule, acceptor atom, score
      P1  H  7989  7998       L1    11  0.42

> <Gold.PLP.Chemscore.Internal.Correction>
0.2037

> <Gold.Rescore>
     Score         DG    S(hbond)    S(metal)    S(lipo)     H(rot)  DE(clash)    DE(int)     intcor
     10.97     -11.08       0.00        0.00      75.07       1.25       0.00       0.10       ----

> <Gold.Chemscore.Fitness>
10.9737

> <Gold.Chemscore.DG>
-11.0756

> <Gold.Chemscore.ZeroCoef>
-5.4800

> <Gold.Chemscore.Hbond>
0.0000

> <Gold.Chemscore.Metal>
0.0000

> <Gold.Chemscore.Lipo>
75.0667

> <Gold.Chemscore.Internal_Hbond>
0.0000

> <Gold.Chemscore.DEClash>
0.0000

> <Gold.Chemscore.DEInternal>
0.1018

> <Gold.Chemscore.Rot>
1.2450

> <Gold.Chemscore.Internal.Correction>
   9.000000E+99

> <Gold.Chemscore.Hbond.Weighted>
-0.0000

> <Gold.Chemscore.Metal.Weighted>
-0.0000

> <Gold.Chemscore.Lipo.Weighted>
-8.7828

> <Gold.Chemscore.Internal_Hbond.Weighted>
0.0000

> <Gold.Chemscore.DEClash.Weighted>
0.0000

> <Gold.Chemscore.DEInternal.Weighted>
0.1018

> <Gold.Chemscore.Rot.Weighted>
3.1872

> <Gold.Chemscore.Internal.Correction.Weighted>
   9.000000E+99

> <Gold.Protein.RotatedTorsions>
[ 6907 6896 6895 6894 ] final   72.13 input  -60.11 | X-H torsion
[ 7974 7965 7964 7962 ] final  130.13 input  175.53 | X-H torsion
[ 8008 7997 7996 7995 ] final  -29.47 input   59.86 | X-H torsion
[ 10167 10162 10161 10158 ] final    2.21 input  -65.29 | X-H torsion
[ 10718 10713 10712 10709 ] final   30.03 input   66.30 | X-H torsion
[ 10763 10752 10751 10750 ] final   60.40 input  -60.55 | X-H torsion
[ 11005 11000 10999 10996 ] final -145.12 input  -57.11 | X-H torsion

> <Gold.Protein.ActiveResidues>
 VAL166  LYS551  ARG553  GLY616  TRP617  ASP618  TYR619  PRO620  LYS621  CYS622 
 ASP623  PHE694  ASN695  SER759  ASP760  ASP761  ALA762  ILE779  LEU786  VAL792 
 PHE793  MET794  SER795  GLU796  ALA797  LYS798  CYS799  TRP800  GLU811  SER814 

> <Gold.Protein.RotatedAtoms>
  152.4850  134.4617  159.9607 H   0  0  0  0  0  0  0  0  0  0  0  0  # atno 6907 bound_to 6896
  151.4616  133.3585  159.2818 H   0  0  0  0  0  0  0  0  0  0  0  0  # atno 6908 bound_to 6896
  150.8953  134.8386  159.7382 H   0  0  0  0  0  0  0  0  0  0  0  0  # atno 6909 bound_to 6896
  145.0212  139.4130  143.5196 H   0  0  0  0  0  0  0  0  0  0  0  0  # atno 7974 bound_to 7965
  154.4289  140.1817  156.1253 H   0  0  0  0  0  0  0  0  0  0  0  0  # atno 8008 bound_to 7997
  156.0111  140.3350  155.6916 H   0  0  0  0  0  0  0  0  0  0  0  0  # atno 8009 bound_to 7997
  155.6110  140.0650  157.2697 H   0  0  0  0  0  0  0  0  0  0  0  0  # atno 8010 bound_to 7997
  140.6646  143.7213  150.7803 H   0  0  0  0  0  0  0  0  0  0  0  0  # atno 10167 bound_to 10162
  157.2542  130.7130  149.6421 H   0  0  0  0  0  0  0  0  0  0  0  0  # atno 10718 bound_to 10713
  152.9920  135.5537  154.5868 H   0  0  0  0  0  0  0  0  0  0  0  0  # atno 10763 bound_to 10752
  154.5238  135.2809  155.1242 H   0  0  0  0  0  0  0  0  0  0  0  0  # atno 10764 bound_to 10752
  154.2584  135.6385  153.5318 H   0  0  0  0  0  0  0  0  0  0  0  0  # atno 10765 bound_to 10752
  140.7955  134.2918  157.4998 H   0  0  0  0  0  0  0  0  0  0  0  0  # atno 11005 bound_to 11000
  146.3485  139.9711  142.8706 LP  0  0  0  0  0  0  0  0  0  0  0  0  # atno 17320 bound_to 7965
  145.1893  140.9804  143.4220 LP  0  0  0  0  0  0  0  0  0  0  0  0  # atno 17321 bound_to 7965
  140.0888  143.4897  152.2490 LP  0  0  0  0  0  0  0  0  0  0  0  0  # atno 17342 bound_to 10162
  139.5890  144.7543  151.3447 LP  0  0  0  0  0  0  0  0  0  0  0  0  # atno 17343 bound_to 10162
  155.9665  130.4418  150.5354 LP  0  0  0  0  0  0  0  0  0  0  0  0  # atno 17370 bound_to 10713
  157.3245  131.0688  151.1907 LP  0  0  0  0  0  0  0  0  0  0  0  0  # atno 17371 bound_to 10713
  139.8727  134.9399  156.3755 LP  0  0  0  0  0  0  0  0  0  0  0  0  # atno 17394 bound_to 11000
  140.9347  133.7555  156.0069 LP  0  0  0  0  0  0  0  0  0  0  0  0  # atno 17395 bound_to 11000

$$$$
