AV-unprocessed.smi:2626|AV-procd|sdf|10238|dock1
  -GOLD-   2272014243D 1   1.00000     0.00000
 Structure written by MMmdl.
 26 27  0  0  0  0  0  0  0  0  2 V2000
  152.4627  143.9308  160.0977 C   0  0  0  0  0  0  0  0  0  0  0  0
  152.7559  142.5464  159.5578 C   0  0  0  0  0  0  0  0  0  0  0  0
  153.6608  141.7200  160.1387 C   0  0  0  0  0  0  0  0  0  0  0  0
  153.8918  140.3948  159.5624 C   0  0  0  0  0  0  0  0  0  0  0  0
  154.7119  139.6437  160.0864 O   0  0  0  0  0  0  0  0  0  0  0  0
  153.1710  140.0578  158.4537 N   0  5  0  0  0  0  0  0  0  0  0  0
  152.2642  140.9585  157.9180 C   0  0  0  0  0  0  0  0  0  0  0  0
  151.5950  140.4981  156.7943 N   0  0  0  0  0  0  0  0  0  0  0  0
  150.6983  141.4159  156.1001 C   0  0  0  0  0  0  0  0  0  0  0  0
  149.7677  140.6548  155.1410 C   0  0  0  0  0  0  0  0  0  0  0  0
  150.5453  139.8858  154.2311 O   0  0  0  0  0  0  0  0  0  0  0  0
  151.3420  138.9226  154.9103 C   0  0  0  0  0  0  0  0  0  0  0  0
  152.3155  139.6373  155.8626 C   0  0  0  0  0  0  0  0  0  0  0  0
  152.0471  142.1396  158.4165 N   0  0  0  0  0  0  0  0  0  0  0  0
  153.0629  144.1482  160.9818 H   0  0  0  0  0  0  0  0  0  0  0  0
  151.4106  144.0140  160.3710 H   0  0  0  0  0  0  0  0  0  0  0  0
  152.6832  144.6851  159.3419 H   0  0  0  0  0  0  0  0  0  0  0  0
  154.2079  142.0297  161.0171 H   0  0  0  0  0  0  0  0  0  0  0  0
  150.1038  141.9742  156.8250 H   0  0  0  0  0  0  0  0  0  0  0  0
  151.2916  142.1437  155.5450 H   0  0  0  0  0  0  0  0  0  0  0  0
  149.0862  140.0065  155.6940 H   0  0  0  0  0  0  0  0  0  0  0  0
  149.1531  141.3573  154.5780 H   0  0  0  0  0  0  0  0  0  0  0  0
  150.7045  138.2262  155.4575 H   0  0  0  0  0  0  0  0  0  0  0  0
  151.8962  138.3380  154.1761 H   0  0  0  0  0  0  0  0  0  0  0  0
  153.0213  140.2410  155.2905 H   0  0  0  0  0  0  0  0  0  0  0  0
  152.8997  138.8995  156.4146 H   0  0  0  0  0  0  0  0  0  0  0  0
  1  2  1  0  0  0  0
  1 15  1  0  0  0  0
  1 16  1  0  0  0  0
  1 17  1  0  0  0  0
  2 14  1  0  0  0  0
  2  3  2  0  0  0  0
  3  4  1  0  0  0  0
  3 18  1  0  0  0  0
  4  5  2  0  0  0  0
  4  6  1  0  0  0  0
  6  7  1  0  0  0  0
  7  8  1  0  0  0  0
  7 14  2  0  0  0  0
  8 13  1  0  0  0  0
  8  9  1  0  0  0  0
  9 10  1  0  0  0  0
  9 19  1  0  0  0  0
  9 20  1  0  0  0  0
 10 11  1  0  0  0  0
 10 21  1  0  0  0  0
 10 22  1  0  0  0  0
 11 12  1  0  0  0  0
 12 13  1  0  0  0  0
 12 23  1  0  0  0  0
 12 24  1  0  0  0  0
 13 25  1  0  0  0  0
 13 26  1  0  0  0  0
M  CHG  1   6  -1
M  END
> <s_m_source_file>
AV-unprocessed.smi

> <i_m_source_file_index>
2626

> <i_lp_mmshare_version>
43012

> <i_f3d_flags>
0

> <s_epik_input>
W0NIM11jMVtjSF1jKD1PKVtuSF1jKG4xKU4yW0NIMl1bQ0gyXU9bQ0gyXVtDSDJdMg==

> <s_epik_cmdline>
J2VwaWtfcHl0aG9uJywgJy1waCcsICc3LjAnLCAnLXRuJywgJzgnLCAnLW1hJywgJzIwMCcsICctbWV0YWxfYmluZGluZycsICctaW1hZScsICc8aW5maWxlLm1hZT4nLCAnLW9tYWUnLCAnPG91dGZpbGUubWFlPic=

> <r_lp_tautomer_probability>
1

> <r_epik_Ionization_Penalty>
4.9386

> <r_epik_Ionization_Penalty_Charging>
6.70104e-08

> <r_epik_Ionization_Penalty_Neutral>
4.9386

> <r_epik_State_Penalty>
2.49781

> <r_epik_Charging_Adjusted_Penalty>
2.49781

> <i_epik_Tot_Q>
-1

> <i_epik_Tot_abs_Q>
1

> <r_epik_Metal_State_Penalty>
0.117146

> <b_epik_Metal_Only>
0

> <s_lp_Force_Field>
OPLS_2005

> <r_lp_Energy>
25.1924

> <b_lp_Chiralities_Consistent>
1

> <s_lp_Variant>
AV-unprocessed.smi:2626-3

> <Gold.Version>
5.8.1

> <Gold.Id.Protein>
6NUR|6NUR_protein|mol2

> <Gold.PLP.Fitness>
38.6428

> <Gold.PLP.PLP>
-30.0064

> <Gold.PLP.part.hbond>
-2.0000

> <Gold.PLP.part.metal>
0.0000

> <Gold.PLP.part.buried>
-2.9448

> <Gold.PLP.part.nonpolar>
-23.7306

> <Gold.PLP.part.repulsive>
0.6126

> <Gold.PLP.ligand.clash>
0.0000

> <Gold.PLP.ligand.torsion>
0.3735

> <Gold.PLP.Chemscore.Hbond>
3.0000

> <Gold.PLP.Chemscore.CHOScore>
0.0000

> <Gold.PLP.Chemscore.Metal>
0.0000

> <Gold.Chemscore.Hbonds>
donor molecule, donor type, donor heavy atom, donor atom, acceptor molecule, acceptor atom, score
      P1  H  7989  7998       L1    11  1.00
      P1  H  7997  8009       L1     6  1.73

> <Gold.PLP.Chemscore.Internal.Correction>
0.3834

> <Gold.Rescore>
     Score         DG    S(hbond)    S(metal)    S(lipo)     H(rot)  DE(clash)    DE(int)     intcor
     11.60     -12.10       0.61        0.00      61.10       1.00       0.01       0.50       ----

> <Gold.Chemscore.Fitness>
11.5965

> <Gold.Chemscore.DG>
-12.1038

> <Gold.Chemscore.ZeroCoef>
-5.4800

> <Gold.Chemscore.Hbond>
0.6095

> <Gold.Chemscore.Metal>
0.0000

> <Gold.Chemscore.Lipo>
61.0951

> <Gold.Chemscore.Internal_Hbond>
0.0000

> <Gold.Chemscore.DEClash>
0.0108

> <Gold.Chemscore.DEInternal>
0.4965

> <Gold.Chemscore.Rot>
1.0000

> <Gold.Chemscore.Internal.Correction>
   9.000000E+99

> <Gold.Chemscore.Hbonds>
donor molecule, donor type, donor heavy atom, donor atom, acceptor molecule, acceptor atom, score
      P1  H  7989  7998       L1    11  0.35
      P1  H  7997  8009       L1     6  0.08

> <Gold.Chemscore.Hbond.Weighted>
-2.0357

> <Gold.Chemscore.Metal.Weighted>
-0.0000

> <Gold.Chemscore.Lipo.Weighted>
-7.1481

> <Gold.Chemscore.Internal_Hbond.Weighted>
0.0000

> <Gold.Chemscore.DEClash.Weighted>
0.0108

> <Gold.Chemscore.DEInternal.Weighted>
0.4965

> <Gold.Chemscore.Rot.Weighted>
2.5600

> <Gold.Chemscore.Internal.Correction.Weighted>
   9.000000E+99

> <Gold.Protein.RotatedTorsions>
[ 6907 6896 6895 6894 ] final   18.82 input  -60.11 | X-H torsion
[ 7974 7965 7964 7962 ] final   70.21 input  175.53 | X-H torsion
[ 8008 7997 7996 7995 ] final  163.45 input   59.86 | X-H torsion
[ 10167 10162 10161 10158 ] final   74.48 input  -65.29 | X-H torsion
[ 10718 10713 10712 10709 ] final   78.90 input   66.30 | X-H torsion
[ 10763 10752 10751 10750 ] final -131.48 input  -60.55 | X-H torsion
[ 11005 11000 10999 10996 ] final  -32.69 input  -57.11 | X-H torsion

> <Gold.Protein.ActiveResidues>
 VAL166  LYS551  ARG553  GLY616  TRP617  ASP618  TYR619  PRO620  LYS621  CYS622 
 ASP623  PHE694  ASN695  SER759  ASP760  ASP761  ALA762  ILE779  LEU786  VAL792 
 PHE793  MET794  SER795  GLU796  ALA797  LYS798  CYS799  TRP800  GLU811  SER814 

> <Gold.Protein.RotatedAtoms>
  151.8713  135.0488  160.0479 H   0  0  0  0  0  0  0  0  0  0  0  0  # atno 6907 bound_to 6896
  152.2586  133.5273  159.5376 H   0  0  0  0  0  0  0  0  0  0  0  0  # atno 6908 bound_to 6896
  150.7108  134.0777  159.3929 H   0  0  0  0  0  0  0  0  0  0  0  0  # atno 6909 bound_to 6896
  145.7809  139.2887  143.1266 H   0  0  0  0  0  0  0  0  0  0  0  0  # atno 7974 bound_to 7965
  156.1956  140.1723  156.8005 H   0  0  0  0  0  0  0  0  0  0  0  0  # atno 8008 bound_to 7997
  154.5525  140.0715  156.8722 H   0  0  0  0  0  0  0  0  0  0  0  0  # atno 8009 bound_to 7997
  155.3001  140.3361  155.4250 H   0  0  0  0  0  0  0  0  0  0  0  0  # atno 8010 bound_to 7997
  140.0132  144.5598  150.7641 H   0  0  0  0  0  0  0  0  0  0  0  0  # atno 10167 bound_to 10162
  157.6760  130.9889  150.1854 H   0  0  0  0  0  0  0  0  0  0  0  0  # atno 10718 bound_to 10713
  154.8750  135.3828  154.4253 H   0  0  0  0  0  0  0  0  0  0  0  0  # atno 10763 bound_to 10752
  153.4953  135.7030  153.5867 H   0  0  0  0  0  0  0  0  0  0  0  0  # atno 10764 bound_to 10752
  153.4222  135.3898  155.2085 H   0  0  0  0  0  0  0  0  0  0  0  0  # atno 10765 bound_to 10752
  140.9573  133.7185  156.1313 H   0  0  0  0  0  0  0  0  0  0  0  0  # atno 11005 bound_to 11000
  146.0075  140.8466  142.9988 LP  0  0  0  0  0  0  0  0  0  0  0  0  # atno 17320 bound_to 7965
  144.6796  140.2441  143.7340 LP  0  0  0  0  0  0  0  0  0  0  0  0  # atno 17321 bound_to 7965
  140.7373  143.2763  151.3731 LP  0  0  0  0  0  0  0  0  0  0  0  0  # atno 17342 bound_to 10162
  139.6190  144.0944  152.2373 LP  0  0  0  0  0  0  0  0  0  0  0  0  # atno 17343 bound_to 10162
  156.2577  130.3707  149.8164 LP  0  0  0  0  0  0  0  0  0  0  0  0  # atno 17370 bound_to 10713
  156.5918  130.8509  151.3410 LP  0  0  0  0  0  0  0  0  0  0  0  0  # atno 17371 bound_to 10713
  140.7518  134.4037  157.5540 LP  0  0  0  0  0  0  0  0  0  0  0  0  # atno 17394 bound_to 11000
  139.8866  134.8904  156.2574 LP  0  0  0  0  0  0  0  0  0  0  0  0  # atno 17395 bound_to 11000

$$$$
