AV-unprocessed.smi:3156|AV-procd|sdf|12032|dock4
  -GOLD-   2272017453D 1   1.00000     0.00000
 Structure written by MMmdl.
 41 42  0  0  0  0  0  0  0  0  2 V2000
  151.0960  137.3345  156.5411 C   0  0  0  0  0  0  0  0  0  0  0  0
  151.0641  136.9743  155.0449 C   0  0  1  0  0  0  0  0  0  0  0  0
  149.7482  136.3744  154.7308 N   0  3  0  0  0  0  0  0  0  0  0  0
  149.3814  135.2051  155.5572 C   0  0  0  0  0  0  0  0  0  0  0  0
  149.7531  133.8876  154.8609 C   0  0  1  0  0  0  0  0  0  0  0  0
  150.0607  132.7555  155.8635 C   0  0  0  0  0  0  0  0  0  0  0  0
  150.3256  131.4378  155.1262 C   0  0  0  0  0  0  0  0  0  0  0  0
  149.1633  131.1353  154.1748 C   0  0  0  0  0  0  0  0  0  0  0  0
  148.8929  132.3419  153.2625 C   0  0  0  0  0  0  0  0  0  0  0  0
  148.6448  133.5019  154.0517 O   0  0  0  0  0  0  0  0  0  0  0  0
  151.3405  138.1939  154.1232 C   0  0  2  0  0  0  0  0  0  0  0  0
  152.7276  138.8238  154.3536 C   0  0  0  0  0  0  0  0  0  0  0  0
  150.3075  139.2151  154.2421 N   0  0  0  0  0  0  0  0  0  0  0  0
  148.9842  139.1414  153.8578 C   0  0  0  0  0  0  0  0  0  0  0  0
  148.4044  140.3407  154.1575 C   0  0  0  0  0  0  0  0  0  0  0  0
  149.4661  141.0967  154.7276 C   0  0  0  0  0  0  0  0  0  0  0  0
  150.6031  140.4221  154.7757 N   0  0  0  0  0  0  0  0  0  0  0  0
  152.0794  137.6852  156.8546 H   0  0  0  0  0  0  0  0  0  0  0  0
  150.8575  136.4663  157.1563 H   0  0  0  0  0  0  0  0  0  0  0  0
  150.3730  138.1167  156.7757 H   0  0  0  0  0  0  0  0  0  0  0  0
  151.8430  136.2271  154.8807 H   0  0  0  0  0  0  0  0  0  0  0  0
  149.0396  137.0817  154.8647 H   0  0  0  0  0  0  0  0  0  0  0  0
  149.8633  135.2632  156.5337 H   0  0  0  0  0  0  0  0  0  0  0  0
  148.3052  135.2366  155.7322 H   0  0  0  0  0  0  0  0  0  0  0  0
  150.6151  134.0590  154.2133 H   0  0  0  0  0  0  0  0  0  0  0  0
  150.9223  133.0122  156.4805 H   0  0  0  0  0  0  0  0  0  0  0  0
  149.2176  132.6274  156.5439 H   0  0  0  0  0  0  0  0  0  0  0  0
  151.2542  131.5135  154.5589 H   0  0  0  0  0  0  0  0  0  0  0  0
  150.4574  130.6222  155.8379 H   0  0  0  0  0  0  0  0  0  0  0  0
  149.3848  130.2509  153.5767 H   0  0  0  0  0  0  0  0  0  0  0  0
  148.2664  130.9061  154.7515 H   0  0  0  0  0  0  0  0  0  0  0  0
  149.7344  132.5185  152.5908 H   0  0  0  0  0  0  0  0  0  0  0  0
  148.0218  132.1496  152.6357 H   0  0  0  0  0  0  0  0  0  0  0  0
  151.3109  137.8435  153.0901 H   0  0  0  0  0  0  0  0  0  0  0  0
  153.5299  138.1256  154.1147 H   0  0  0  0  0  0  0  0  0  0  0  0
  152.8572  139.1385  155.3896 H   0  0  0  0  0  0  0  0  0  0  0  0
  152.8676  139.7012  153.7213 H   0  0  0  0  0  0  0  0  0  0  0  0
  148.5690  138.2517  153.4075 H   0  0  0  0  0  0  0  0  0  0  0  0
  147.3783  140.6346  153.9924 H   0  0  0  0  0  0  0  0  0  0  0  0
  149.4455  142.1089  155.1037 H   0  0  0  0  0  0  0  0  0  0  0  0
  149.7482  136.1009  153.7585 H   0  0  0  0  0  0  0  0  0  0  0  0
  1  2  1  0  0  0  0
  1 18  1  0  0  0  0
  1 19  1  0  0  0  0
  1 20  1  0  0  0  0
  2  3  1  0  0  0  0
  2 11  1  0  0  0  0
  2 21  1  0  0  0  0
  3  4  1  0  0  0  0
  3 22  1  0  0  0  0
  3 41  1  0  0  0  0
  4  5  1  0  0  0  0
  4 23  1  0  0  0  0
  4 24  1  0  0  0  0
  5 10  1  0  0  0  0
  5  6  1  0  0  0  0
  5 25  1  0  0  0  0
  6  7  1  0  0  0  0
  6 26  1  0  0  0  0
  6 27  1  0  0  0  0
  7  8  1  0  0  0  0
  7 28  1  0  0  0  0
  7 29  1  0  0  0  0
  8  9  1  0  0  0  0
  8 30  1  0  0  0  0
  8 31  1  0  0  0  0
  9 10  1  0  0  0  0
  9 32  1  0  0  0  0
  9 33  1  0  0  0  0
 11 12  1  0  0  0  0
 11 13  1  0  0  0  0
 11 34  1  0  0  0  0
 12 35  1  0  0  0  0
 12 36  1  0  0  0  0
 12 37  1  0  0  0  0
 13 17  1  0  0  0  0
 13 14  1  0  0  0  0
 14 15  2  0  0  0  0
 14 38  1  0  0  0  0
 15 16  1  0  0  0  0
 15 39  1  0  0  0  0
 16 17  2  0  0  0  0
 16 40  1  0  0  0  0
M  CHG  1   3   1
M  END
> <s_m_source_file>
AV-unprocessed.smi

> <i_m_source_file_index>
3156

> <i_lp_mmshare_version>
43012

> <i_f3d_flags>
0

> <s_epik_input>
bjFbY0hdW2NIXVtjSF1uMVtDQEBIXShbQ0gzXSlbQ0BIXShbQ0gzXSlbTkhdW0NIMl1bQ0BASF0yW0NIMl1bQ0gyXVtDSDJdW0NIMl1PMg==

> <s_epik_cmdline>
J2VwaWtfcHl0aG9uJywgJy1waCcsICc3LjAnLCAnLXRuJywgJzgnLCAnLW1hJywgJzIwMCcsICctbWV0YWxfYmluZGluZycsICctaW1hZScsICc8aW5maWxlLm1hZT4nLCAnLW9tYWUnLCAnPG91dGZpbGUubWFlPic=

> <r_lp_tautomer_probability>
1

> <r_epik_Ionization_Penalty>
0.00658015

> <r_epik_Ionization_Penalty_Charging>
0.00656881

> <r_epik_Ionization_Penalty_Neutral>
1.13431e-05

> <r_epik_State_Penalty>
0.0048654

> <r_epik_Charging_Adjusted_Penalty>
0.0114342

> <i_epik_Tot_Q>
1

> <i_epik_Tot_abs_Q>
1

> <r_epik_Metal_State_Penalty>
-0

> <b_epik_Metal_Only>
0

> <s_lp_Force_Field>
OPLS_2005

> <r_lp_Energy>
19.0125

> <b_lp_Chiralities_Consistent>
1

> <s_lp_Variant>
AV-unprocessed.smi:3156-4

> <Gold.Version>
5.8.1

> <Gold.Id.Protein>
6NUR|6NUR_protein|mol2

> <Gold.PLP.Fitness>
43.7528

> <Gold.PLP.PLP>
-32.6618

> <Gold.PLP.part.hbond>
-2.0000

> <Gold.PLP.part.metal>
0.0000

> <Gold.PLP.part.buried>
-0.2822

> <Gold.PLP.part.nonpolar>
-28.9194

> <Gold.PLP.part.repulsive>
0.2414

> <Gold.PLP.ligand.clash>
0.0000

> <Gold.PLP.ligand.torsion>
0.8097

> <Gold.PLP.Chemscore.Hbond>
2.7500

> <Gold.PLP.Chemscore.CHOScore>
1.4585

> <Gold.PLP.Chemscore.Metal>
0.0000

> <Gold.Chemscore.Hbonds>
donor molecule, donor type, donor heavy atom, donor atom, acceptor molecule, acceptor atom, score
      L1  H     3    41       P1  7948  2.00
      P1  H  7989  7998       L1    17  0.70
      L1  C    14    38       P1  7948  0.94
      L1  C    16    40       P1  8028  0.52

> <Gold.PLP.Chemscore.Internal.Correction>
0.0850

> <Gold.Rescore>
     Score         DG    S(hbond)    S(metal)    S(lipo)     H(rot)  DE(clash)    DE(int)     intcor
     12.66     -15.01       1.31        0.00      79.03       1.59       0.61       1.74       ----

> <Gold.Chemscore.Fitness>
12.6573

> <Gold.Chemscore.DG>
-15.0059

> <Gold.Chemscore.ZeroCoef>
-5.4800

> <Gold.Chemscore.Hbond>
1.3051

> <Gold.Chemscore.Metal>
0.0000

> <Gold.Chemscore.Lipo>
79.0341

> <Gold.Chemscore.Internal_Hbond>
0.0000

> <Gold.Chemscore.DEClash>
0.6056

> <Gold.Chemscore.DEInternal>
1.7429

> <Gold.Chemscore.Rot>
1.5938

> <Gold.Chemscore.Internal.Correction>
   9.000000E+99

> <Gold.Chemscore.Hbonds>
donor molecule, donor type, donor heavy atom, donor atom, acceptor molecule, acceptor atom, score
      L1  H     3    41       P1  7948  0.27
      P1  H  7989  7998       L1    17  0.05

> <Gold.Chemscore.Hbond.Weighted>
-4.3591

> <Gold.Chemscore.Metal.Weighted>
-0.0000

> <Gold.Chemscore.Lipo.Weighted>
-9.2470

> <Gold.Chemscore.Internal_Hbond.Weighted>
0.0000

> <Gold.Chemscore.DEClash.Weighted>
0.6056

> <Gold.Chemscore.DEInternal.Weighted>
1.7429

> <Gold.Chemscore.Rot.Weighted>
4.0802

> <Gold.Chemscore.Internal.Correction.Weighted>
   9.000000E+99

> <Gold.Protein.RotatedTorsions>
[ 6907 6896 6895 6894 ] final   41.66 input  -60.11 | X-H torsion
[ 7974 7965 7964 7962 ] final   76.73 input  175.53 | X-H torsion
[ 8008 7997 7996 7995 ] final  -79.13 input   59.86 | X-H torsion
[ 10167 10162 10161 10158 ] final  -46.89 input  -65.29 | X-H torsion
[ 10718 10713 10712 10709 ] final -145.67 input   66.30 | X-H torsion
[ 10763 10752 10751 10750 ] final  117.26 input  -60.55 | X-H torsion
[ 11005 11000 10999 10996 ] final   61.66 input  -57.11 | X-H torsion

> <Gold.Protein.ActiveResidues>
 VAL166  LYS551  ARG553  GLY616  TRP617  ASP618  TYR619  PRO620  LYS621  CYS622 
 ASP623  PHE694  ASN695  SER759  ASP760  ASP761  ALA762  ILE779  LEU786  VAL792 
 PHE793  MET794  SER795  GLU796  ALA797  LYS798  CYS799  TRP800  GLU811  SER814 

> <Gold.Protein.RotatedAtoms>
  152.1980  134.8613  160.0510 H   0  0  0  0  0  0  0  0  0  0  0  0  # atno 6907 bound_to 6896
  151.9477  133.3651  159.3996 H   0  0  0  0  0  0  0  0  0  0  0  0  # atno 6908 bound_to 6896
  150.6949  134.4297  159.5287 H   0  0  0  0  0  0  0  0  0  0  0  0  # atno 6909 bound_to 6896
  145.6991  139.2577  143.1716 H   0  0  0  0  0  0  0  0  0  0  0  0  # atno 7974 bound_to 7965
  154.5755  140.0683  156.9028 H   0  0  0  0  0  0  0  0  0  0  0  0  # atno 8008 bound_to 7997
  155.2556  140.3355  155.4259 H   0  0  0  0  0  0  0  0  0  0  0  0  # atno 8009 bound_to 7997
  156.2151  140.1775  156.7593 H   0  0  0  0  0  0  0  0  0  0  0  0  # atno 8010 bound_to 7997
  140.6798  143.2810  151.3847 H   0  0  0  0  0  0  0  0  0  0  0  0  # atno 10167 bound_to 10162
  156.3853  130.7858  151.2054 H   0  0  0  0  0  0  0  0  0  0  0  0  # atno 10718 bound_to 10713
  153.5498  135.3542  155.2754 H   0  0  0  0  0  0  0  0  0  0  0  0  # atno 10763 bound_to 10752
  154.8708  135.4111  154.2950 H   0  0  0  0  0  0  0  0  0  0  0  0  # atno 10764 bound_to 10752
  153.3674  135.7062  153.6733 H   0  0  0  0  0  0  0  0  0  0  0  0  # atno 10765 bound_to 10752
  140.0146  134.6244  155.9729 H   0  0  0  0  0  0  0  0  0  0  0  0  # atno 11005 bound_to 11000
  146.0814  140.7759  142.9639 LP  0  0  0  0  0  0  0  0  0  0  0  0  # atno 17320 bound_to 7965
  144.6974  140.3495  143.7184 LP  0  0  0  0  0  0  0  0  0  0  0  0  # atno 17321 bound_to 7965
  139.6114  144.1091  152.2302 LP  0  0  0  0  0  0  0  0  0  0  0  0  # atno 17342 bound_to 10162
  140.0506  144.5935  150.7339 LP  0  0  0  0  0  0  0  0  0  0  0  0  # atno 17343 bound_to 10162
  157.7495  131.0332  150.4260 LP  0  0  0  0  0  0  0  0  0  0  0  0  # atno 17370 bound_to 10713
  156.4511  130.4012  149.6635 LP  0  0  0  0  0  0  0  0  0  0  0  0  # atno 17371 bound_to 10713
  141.1734  133.6538  156.4736 LP  0  0  0  0  0  0  0  0  0  0  0  0  # atno 17394 bound_to 11000
  140.4494  134.6943  157.5032 LP  0  0  0  0  0  0  0  0  0  0  0  0  # atno 17395 bound_to 11000

$$$$
