AV-unprocessed.smi:895|AV-procd|sdf|4074|dock7
  -GOLD-   22720 1563D 1   1.00000     0.00000
 Structure written by MMmdl.
 44 45  0  0  0  0  0  0  0  0  1 V2000
  143.3128  135.7490  152.5658 C   0  0  0  0  0  0  0  0  0  0  0  0
  144.7680  136.2458  152.4636 C   0  0  0  0  0  0  0  0  0  0  0  0
  145.4116  135.7551  151.1560 C   0  0  0  0  0  0  0  0  0  0  0  0
  144.7514  137.6581  152.3921 O   0  0  0  0  0  0  0  0  0  0  0  0
  145.6423  135.8397  153.6716 C   0  0  0  0  0  0  0  0  0  0  0  0
  146.9770  136.4237  153.6136 N   0  0  0  0  0  0  0  0  0  0  0  0
  147.5678  137.0631  154.6299 C   0  0  0  0  0  0  0  0  0  0  0  0
  147.0486  137.2305  155.7336 O   0  0  0  0  0  0  0  0  0  0  0  0
  148.7904  137.4971  154.2967 N   0  0  0  0  0  0  0  0  0  0  0  0
  149.7030  138.2301  155.1728 C   0  0  1  0  0  0  0  0  0  0  0  0
  151.0184  138.5647  154.4370 C   0  0  0  0  0  0  0  0  0  0  0  0
  151.9754  139.3597  155.3384 C   0  0  0  0  0  0  0  0  0  0  0  0
  151.3154  140.6381  155.8768 C   0  0  0  0  0  0  0  0  0  0  0  0
  149.9972  140.3253  156.6095 C   0  0  0  0  0  0  0  0  0  0  0  0
  149.0060  139.4805  155.7751 C   0  0  1  0  0  0  0  0  0  0  0  0
  148.2639  140.2811  154.7982 N   0  0  0  0  0  0  0  0  0  0  0  0
  148.3326  141.6478  154.6137 C   0  0  0  0  0  0  0  0  0  0  0  0
  147.4671  141.9762  153.6102 C   0  0  0  0  0  0  0  0  0  0  0  0
  146.9025  140.7275  153.2327 C   0  0  0  0  0  0  0  0  0  0  0  0
  147.3788  139.7196  153.9436 N   0  0  0  0  0  0  0  0  0  0  0  0
  143.2754  134.6636  152.6628 H   0  0  0  0  0  0  0  0  0  0  0  0
  142.7406  136.0192  151.6775 H   0  0  0  0  0  0  0  0  0  0  0  0
  142.7930  136.1768  153.4235 H   0  0  0  0  0  0  0  0  0  0  0  0
  145.4559  134.6660  151.1243 H   0  0  0  0  0  0  0  0  0  0  0  0
  146.4308  136.1281  151.0481 H   0  0  0  0  0  0  0  0  0  0  0  0
  144.8457  136.0851  150.2837 H   0  0  0  0  0  0  0  0  0  0  0  0
  144.2947  137.9138  151.6052 H   0  0  0  0  0  0  0  0  0  0  0  0
  145.1682  136.1829  154.5926 H   0  0  0  0  0  0  0  0  0  0  0  0
  145.7163  134.7531  153.7457 H   0  0  0  0  0  0  0  0  0  0  0  0
  147.4810  136.3280  152.7442 H   0  0  0  0  0  0  0  0  0  0  0  0
  149.1243  137.3003  153.3645 H   0  0  0  0  0  0  0  0  0  0  0  0
  149.9609  137.5843  156.0147 H   0  0  0  0  0  0  0  0  0  0  0  0
  151.5088  137.6443  154.1184 H   0  0  0  0  0  0  0  0  0  0  0  0
  150.8184  139.1271  153.5253 H   0  0  0  0  0  0  0  0  0  0  0  0
  152.2901  138.7340  156.1745 H   0  0  0  0  0  0  0  0  0  0  0  0
  152.8803  139.6135  154.7857 H   0  0  0  0  0  0  0  0  0  0  0  0
  152.0000  141.1432  156.5586 H   0  0  0  0  0  0  0  0  0  0  0  0
  151.1421  141.3363  155.0588 H   0  0  0  0  0  0  0  0  0  0  0  0
  150.2362  139.7764  157.5212 H   0  0  0  0  0  0  0  0  0  0  0  0
  149.5218  141.2510  156.9358 H   0  0  0  0  0  0  0  0  0  0  0  0
  148.2552  139.1102  156.4752 H   0  0  0  0  0  0  0  0  0  0  0  0
  148.9847  142.2699  155.2090 H   0  0  0  0  0  0  0  0  0  0  0  0
  147.2676  142.9582  153.2083 H   0  0  0  0  0  0  0  0  0  0  0  0
  146.1654  140.5247  152.4698 H   0  0  0  0  0  0  0  0  0  0  0  0
  1  2  1  0  0  0  0
  1 21  1  0  0  0  0
  1 22  1  0  0  0  0
  1 23  1  0  0  0  0
  2  3  1  0  0  0  0
  2  4  1  0  0  0  0
  2  5  1  0  0  0  0
  3 24  1  0  0  0  0
  3 25  1  0  0  0  0
  3 26  1  0  0  0  0
  4 27  1  0  0  0  0
  5  6  1  0  0  0  0
  5 28  1  0  0  0  0
  5 29  1  0  0  0  0
  6  7  1  0  0  0  0
  6 30  1  0  0  0  0
  7  8  2  0  0  0  0
  7  9  1  0  0  0  0
  9 10  1  0  0  0  0
  9 31  1  0  0  0  0
 10 15  1  0  0  0  0
 10 11  1  0  0  0  0
 10 32  1  0  0  0  0
 11 12  1  0  0  0  0
 11 33  1  0  0  0  0
 11 34  1  0  0  0  0
 12 13  1  0  0  0  0
 12 35  1  0  0  0  0
 12 36  1  0  0  0  0
 13 14  1  0  0  0  0
 13 37  1  0  0  0  0
 13 38  1  0  0  0  0
 14 15  1  0  0  0  0
 14 39  1  0  0  0  0
 14 40  1  0  0  0  0
 15 16  1  0  0  0  0
 15 41  1  0  0  0  0
 16 20  1  0  0  0  0
 16 17  1  0  0  0  0
 17 18  2  0  0  0  0
 17 42  1  0  0  0  0
 18 19  1  0  0  0  0
 18 43  1  0  0  0  0
 19 20  2  0  0  0  0
 19 44  1  0  0  0  0
M  END
> <s_m_source_file>
AV-unprocessed.smi

> <i_m_source_file_index>
895

> <i_lp_mmshare_version>
43012

> <i_f3d_flags>
0

> <s_epik_input>
W0NIM11DKFtDSDNdKShbT0hdKVtDSDJdW05IXUMoPU8pW05IXVtDQEBIXTFbQ0gyXVtDSDJdW0NIMl1bQ0gyXVtDQEhdMW4yW2NIXVtjSF1bY0hdbjI=

> <s_epik_cmdline>
J2VwaWtfcHl0aG9uJywgJy1waCcsICc3LjAnLCAnLXRuJywgJzgnLCAnLW1hJywgJzIwMCcsICctbWV0YWxfYmluZGluZycsICctaW1hZScsICc8aW5maWxlLm1hZT4nLCAnLW9tYWUnLCAnPG91dGZpbGUubWFlPic=

> <r_lp_tautomer_probability>
1

> <r_epik_Ionization_Penalty>
0.000440451

> <r_epik_Ionization_Penalty_Charging>
0

> <r_epik_Ionization_Penalty_Neutral>
0.000440451

> <r_epik_State_Penalty>
-0

> <r_epik_Charging_Adjusted_Penalty>
0

> <i_epik_Tot_Q>
0

> <i_epik_Tot_abs_Q>
0

> <r_epik_Metal_State_Penalty>
-0

> <b_epik_Metal_Only>
0

> <s_lp_Force_Field>
OPLS_2005

> <r_lp_Energy>
15.0391

> <b_lp_Chiralities_Consistent>
1

> <s_lp_Variant>
AV-unprocessed.smi:895-2

> <Gold.Version>
5.8.1

> <Gold.Id.Protein>
6NUR|6NUR_protein|mol2

> <Gold.PLP.Fitness>
45.9600

> <Gold.PLP.PLP>
-31.5747

> <Gold.PLP.part.hbond>
-4.0000

> <Gold.PLP.part.metal>
0.0000

> <Gold.PLP.part.buried>
-4.5382

> <Gold.PLP.part.nonpolar>
-23.7179

> <Gold.PLP.part.repulsive>
0.1794

> <Gold.PLP.ligand.clash>
0.0000

> <Gold.PLP.ligand.torsion>
0.2055

> <Gold.PLP.Chemscore.Hbond>
2.9760

> <Gold.PLP.Chemscore.CHOScore>
1.9229

> <Gold.PLP.Chemscore.Metal>
0.0000

> <Gold.Chemscore.Hbonds>
donor molecule, donor type, donor heavy atom, donor atom, acceptor molecule, acceptor atom, score
      L1  H     4    27       P1 10171  1.00
      L1  H     6    30       P1  7948  1.00
      L1  H     9    31       P1  7948  0.96
      L1  C    17    42       P1  8028  0.98
      L1  C    19    44       P1 10175  1.00

> <Gold.PLP.Chemscore.Internal.Correction>
0.0995

> <Gold.Rescore>
     Score         DG    S(hbond)    S(metal)    S(lipo)     H(rot)  DE(clash)    DE(int)     intcor
     14.23     -17.23       2.87        0.00      66.51       2.19       0.10       2.90       ----

> <Gold.Chemscore.Fitness>
14.2331

> <Gold.Chemscore.DG>
-17.2308

> <Gold.Chemscore.ZeroCoef>
-5.4800

> <Gold.Chemscore.Hbond>
2.8685

> <Gold.Chemscore.Metal>
0.0000

> <Gold.Chemscore.Lipo>
66.5084

> <Gold.Chemscore.Internal_Hbond>
0.0000

> <Gold.Chemscore.DEClash>
0.1021

> <Gold.Chemscore.DEInternal>
2.8956

> <Gold.Chemscore.Rot>
2.1919

> <Gold.Chemscore.Internal.Correction>
   9.000000E+99

> <Gold.Chemscore.Hbonds>
donor molecule, donor type, donor heavy atom, donor atom, acceptor molecule, acceptor atom, score
      L1  H     4    27       P1 10171  0.99
      L1  H     6    30       P1  7948  0.96
      L1  H     9    31       P1  7948  0.92

> <Gold.Chemscore.Hbond.Weighted>
-9.5806

> <Gold.Chemscore.Metal.Weighted>
-0.0000

> <Gold.Chemscore.Lipo.Weighted>
-7.7815

> <Gold.Chemscore.Internal_Hbond.Weighted>
0.0000

> <Gold.Chemscore.DEClash.Weighted>
0.1021

> <Gold.Chemscore.DEInternal.Weighted>
2.8956

> <Gold.Chemscore.Rot.Weighted>
5.6113

> <Gold.Chemscore.Internal.Correction.Weighted>
   9.000000E+99

> <Gold.Protein.RotatedTorsions>
[ 6907 6896 6895 6894 ] final   30.97 input  -60.11 | X-H torsion
[ 7974 7965 7964 7962 ] final   32.58 input  175.53 | X-H torsion
[ 8008 7997 7996 7995 ] final  -45.53 input   59.86 | X-H torsion
[ 10167 10162 10161 10158 ] final -173.81 input  -65.29 | X-H torsion
[ 10718 10713 10712 10709 ] final   28.43 input   66.30 | X-H torsion
[ 10763 10752 10751 10750 ] final   24.59 input  -60.55 | X-H torsion
[ 11005 11000 10999 10996 ] final -115.13 input  -57.11 | X-H torsion

> <Gold.Protein.ActiveResidues>
 VAL166  LYS551  ARG553  GLY616  TRP617  ASP618  TYR619  PRO620  LYS621  CYS622 
 ASP623  PHE694  ASN695  SER759  ASP760  ASP761  ALA762  ILE779  LEU786  VAL792 
 PHE793  MET794  SER795  GLU796  ALA797  LYS798  CYS799  TRP800  GLU811  SER814 

> <Gold.Protein.RotatedAtoms>
  152.0536  134.9638  160.0574 H   0  0  0  0  0  0  0  0  0  0  0  0  # atno 6907 bound_to 6896
  152.1029  133.4254  159.4603 H   0  0  0  0  0  0  0  0  0  0  0  0  # atno 6908 bound_to 6896
  150.6840  134.2658  159.4611 H   0  0  0  0  0  0  0  0  0  0  0  0  # atno 6909 bound_to 6896
  146.1477  139.6508  142.9120 H   0  0  0  0  0  0  0  0  0  0  0  0  # atno 7974 bound_to 7965
  154.4001  140.1394  156.3863 H   0  0  0  0  0  0  0  0  0  0  0  0  # atno 8008 bound_to 7997
  155.7956  140.3477  155.5353 H   0  0  0  0  0  0  0  0  0  0  0  0  # atno 8009 bound_to 7997
  155.8535  140.0945  157.1650 H   0  0  0  0  0  0  0  0  0  0  0  0  # atno 8010 bound_to 7997
  139.5668  144.1736  152.1324 H   0  0  0  0  0  0  0  0  0  0  0  0  # atno 10167 bound_to 10162
  157.2334  130.7034  149.6324 H   0  0  0  0  0  0  0  0  0  0  0  0  # atno 10718 bound_to 10713
  153.0753  135.6602  154.0160 H   0  0  0  0  0  0  0  0  0  0  0  0  # atno 10763 bound_to 10752
  153.9795  135.2956  155.3422 H   0  0  0  0  0  0  0  0  0  0  0  0  # atno 10764 bound_to 10752
  154.7139  135.5193  153.8778 H   0  0  0  0  0  0  0  0  0  0  0  0  # atno 10765 bound_to 10752
  141.0507  133.9691  157.2840 H   0  0  0  0  0  0  0  0  0  0  0  0  # atno 11005 bound_to 11000
  145.4898  141.0438  143.2599 LP  0  0  0  0  0  0  0  0  0  0  0  0  # atno 17320 bound_to 7965
  144.7866  139.6414  143.7131 LP  0  0  0  0  0  0  0  0  0  0  0  0  # atno 17321 bound_to 7965
  140.1261  144.5330  150.6832 LP  0  0  0  0  0  0  0  0  0  0  0  0  # atno 17342 bound_to 10162
  140.6952  143.2399  151.5021 LP  0  0  0  0  0  0  0  0  0  0  0  0  # atno 17343 bound_to 10162
  155.9674  130.4481  150.5608 LP  0  0  0  0  0  0  0  0  0  0  0  0  # atno 17370 bound_to 10713
  157.3455  131.0724  151.1755 LP  0  0  0  0  0  0  0  0  0  0  0  0  # atno 17371 bound_to 10713
  139.9348  135.0197  156.8520 LP  0  0  0  0  0  0  0  0  0  0  0  0  # atno 17394 bound_to 11000
  140.6060  134.0127  155.7557 LP  0  0  0  0  0  0  0  0  0  0  0  0  # atno 17395 bound_to 11000

$$$$
