AV-unprocessed.smi:1197|AV-procd|sdf|5008|dock10
  -GOLD-   22720 4 23D 1   1.00000     0.00000
 Structure written by MMmdl.
 40 41  0  0  0  0  0  0  0  0  1 V2000
  151.7047  139.7889  155.9702 C   0  0  0  0  0  0  0  0  0  0  0  0
  150.8112  140.7883  155.4917 O   0  0  0  0  0  0  0  0  0  0  0  0
  149.6225  140.3844  154.9191 C   0  0  0  0  0  0  0  0  0  0  0  0
  148.6651  141.3645  154.5914 C   0  0  0  0  0  0  0  0  0  0  0  0
  147.4478  140.9616  154.0092 C   0  0  0  0  0  0  0  0  0  0  0  0
  147.2280  139.5841  153.7652 C   0  0  0  0  0  0  0  0  0  0  0  0
  146.0428  139.0384  153.1988 N   0  0  0  0  0  0  0  0  0  0  0  0
  145.6828  137.7510  153.0563 C   0  0  0  0  0  0  0  0  0  0  0  0
  146.3313  136.7788  153.4412 O   0  0  0  0  0  0  0  0  0  0  0  0
  144.4952  137.6478  152.4429 N   0  0  0  0  0  0  0  0  0  0  0  0
  143.8210  136.3932  152.1308 C   0  0  0  0  0  0  0  0  0  0  0  0
  144.6130  135.5689  151.0980 C   0  0  0  0  0  0  0  0  0  0  0  0
  144.6686  134.1337  151.3691 N   0  0  0  0  0  0  0  0  0  0  0  0
  145.9736  133.7042  151.8674 C   0  0  0  0  0  0  0  0  0  0  0  0
  146.0199  132.1872  152.1211 C   0  0  0  0  0  0  0  0  0  0  0  0
  145.6764  131.4903  150.9282 O   0  0  0  0  0  0  0  0  0  0  0  0
  144.3890  131.8475  150.4363 C   0  0  0  0  0  0  0  0  0  0  0  0
  144.3411  133.3628  150.1743 C   0  0  0  0  0  0  0  0  0  0  0  0
  148.2484  138.6840  154.1364 C   0  0  0  0  0  0  0  0  0  0  0  0
  149.4165  139.0630  154.6961 N   0  0  0  0  0  0  0  0  0  0  0  0
  152.5928  140.2673  156.3831 H   0  0  0  0  0  0  0  0  0  0  0  0
  152.0298  139.1255  155.1674 H   0  0  0  0  0  0  0  0  0  0  0  0
  151.2495  139.1949  156.7640 H   0  0  0  0  0  0  0  0  0  0  0  0
  148.8583  142.4088  154.7878 H   0  0  0  0  0  0  0  0  0  0  0  0
  146.7146  141.7172  153.7773 H   0  0  0  0  0  0  0  0  0  0  0  0
  145.3699  139.7196  152.8796 H   0  0  0  0  0  0  0  0  0  0  0  0
  144.0270  138.4972  152.1633 H   0  0  0  0  0  0  0  0  0  0  0  0
  143.7145  135.8433  153.0651 H   0  0  0  0  0  0  0  0  0  0  0  0
  142.8111  136.5929  151.7680 H   0  0  0  0  0  0  0  0  0  0  0  0
  144.1477  135.7181  150.1227 H   0  0  0  0  0  0  0  0  0  0  0  0
  145.6251  135.9670  151.0097 H   0  0  0  0  0  0  0  0  0  0  0  0
  146.7508  133.9739  151.1507 H   0  0  0  0  0  0  0  0  0  0  0  0
  146.2132  134.2180  152.7978 H   0  0  0  0  0  0  0  0  0  0  0  0
  147.0194  131.8861  152.4351 H   0  0  0  0  0  0  0  0  0  0  0  0
  145.3339  131.9094  152.9230 H   0  0  0  0  0  0  0  0  0  0  0  0
  144.1932  131.2968  149.5162 H   0  0  0  0  0  0  0  0  0  0  0  0
  143.6223  131.5549  151.1555 H   0  0  0  0  0  0  0  0  0  0  0  0
  143.3461  133.6343  149.8195 H   0  0  0  0  0  0  0  0  0  0  0  0
  145.0368  133.6115  149.3712 H   0  0  0  0  0  0  0  0  0  0  0  0
  148.1258  137.6222  153.9793 H   0  0  0  0  0  0  0  0  0  0  0  0
  1  2  1  0  0  0  0
  1 21  1  0  0  0  0
  1 22  1  0  0  0  0
  1 23  1  0  0  0  0
  2  3  1  0  0  0  0
  3 20  1  0  0  0  0
  3  4  2  0  0  0  0
  4  5  1  0  0  0  0
  4 24  1  0  0  0  0
  5  6  2  0  0  0  0
  5 25  1  0  0  0  0
  6  7  1  0  0  0  0
  6 19  1  0  0  0  0
  7  8  1  0  0  0  0
  7 26  1  0  0  0  0
  8  9  2  0  0  0  0
  8 10  1  0  0  0  0
 10 11  1  0  0  0  0
 10 27  1  0  0  0  0
 11 12  1  0  0  0  0
 11 28  1  0  0  0  0
 11 29  1  0  0  0  0
 12 13  1  0  0  0  0
 12 30  1  0  0  0  0
 12 31  1  0  0  0  0
 13 18  1  0  0  0  0
 13 14  1  0  0  0  0
 14 15  1  0  0  0  0
 14 32  1  0  0  0  0
 14 33  1  0  0  0  0
 15 16  1  0  0  0  0
 15 34  1  0  0  0  0
 15 35  1  0  0  0  0
 16 17  1  0  0  0  0
 17 18  1  0  0  0  0
 17 36  1  0  0  0  0
 17 37  1  0  0  0  0
 18 38  1  0  0  0  0
 18 39  1  0  0  0  0
 19 20  2  0  0  0  0
 19 40  1  0  0  0  0
M  END
> <s_m_source_file>
AV-unprocessed.smi

> <i_m_source_file_index>
1197

> <i_lp_mmshare_version>
43012

> <i_f3d_flags>
0

> <s_epik_input>
W0NIM11PYzFbY0hdW2NIXWMoW2NIXW4xKVtOSF1DKD1PKVtOSF1bQ0gyXVtDSDJdTjJbQ0gyXVtDSDJdT1tDSDJdW0NIMl0y

> <s_epik_cmdline>
J2VwaWtfcHl0aG9uJywgJy1waCcsICc3LjAnLCAnLXRuJywgJzgnLCAnLW1hJywgJzIwMCcsICctbWV0YWxfYmluZGluZycsICctaW1hZScsICc8aW5maWxlLm1hZT4nLCAnLW9tYWUnLCAnPG91dGZpbGUubWFlPic=

> <r_lp_tautomer_probability>
1

> <r_epik_Ionization_Penalty>
0.266083

> <r_epik_Ionization_Penalty_Charging>
0

> <r_epik_Ionization_Penalty_Neutral>
0.266083

> <r_epik_State_Penalty>
0.257924

> <r_epik_Charging_Adjusted_Penalty>
0.257924

> <i_epik_Tot_Q>
0

> <i_epik_Tot_abs_Q>
0

> <r_epik_Metal_State_Penalty>
0.257922

> <b_epik_Metal_Only>
0

> <s_lp_Force_Field>
OPLS_2005

> <r_lp_Energy>
24.2104

> <b_lp_Chiralities_Consistent>
1

> <s_lp_Variant>
AV-unprocessed.smi:1197-1

> <Gold.Version>
5.8.1

> <Gold.Id.Protein>
6NUR|6NUR_protein|mol2

> <Gold.PLP.Fitness>
42.8812

> <Gold.PLP.PLP>
-35.0912

> <Gold.PLP.part.hbond>
-4.0000

> <Gold.PLP.part.metal>
0.0000

> <Gold.PLP.part.buried>
-4.5234

> <Gold.PLP.part.nonpolar>
-27.8412

> <Gold.PLP.part.repulsive>
1.1160

> <Gold.PLP.ligand.clash>
0.0000

> <Gold.PLP.ligand.torsion>
1.0372

> <Gold.PLP.Chemscore.Hbond>
2.3366

> <Gold.PLP.Chemscore.CHOScore>
0.9426

> <Gold.PLP.Chemscore.Metal>
0.0000

> <Gold.Chemscore.Hbonds>
donor molecule, donor type, donor heavy atom, donor atom, acceptor molecule, acceptor atom, score
      L1  H     7    26       P1 10175  1.00
      L1  H    10    27       P1 10175  1.00
      P1  H  7989  7998       L1     2  0.18
      L1  C    19    40       P1  7948  0.62

> <Gold.PLP.Chemscore.Internal.Correction>
0.0268

> <Gold.Rescore>
     Score         DG    S(hbond)    S(metal)    S(lipo)     H(rot)  DE(clash)    DE(int)     intcor
     13.13     -15.52       1.97        0.00      68.02       1.76       0.09       2.30       ----

> <Gold.Chemscore.Fitness>
13.1264

> <Gold.Chemscore.DG>
-15.5182

> <Gold.Chemscore.ZeroCoef>
-5.4800

> <Gold.Chemscore.Hbond>
1.9736

> <Gold.Chemscore.Metal>
0.0000

> <Gold.Chemscore.Lipo>
68.0229

> <Gold.Chemscore.Internal_Hbond>
0.0000

> <Gold.Chemscore.DEClash>
0.0871

> <Gold.Chemscore.DEInternal>
2.3047

> <Gold.Chemscore.Rot>
1.7626

> <Gold.Chemscore.Internal.Correction>
   9.000000E+99

> <Gold.Chemscore.Hbonds>
donor molecule, donor type, donor heavy atom, donor atom, acceptor molecule, acceptor atom, score
      L1  H     7    26       P1 10175  0.99
      L1  H    10    27       P1 10175  0.92

> <Gold.Chemscore.Hbond.Weighted>
-6.5919

> <Gold.Chemscore.Metal.Weighted>
-0.0000

> <Gold.Chemscore.Lipo.Weighted>
-7.9587

> <Gold.Chemscore.Internal_Hbond.Weighted>
0.0000

> <Gold.Chemscore.DEClash.Weighted>
0.0871

> <Gold.Chemscore.DEInternal.Weighted>
2.3047

> <Gold.Chemscore.Rot.Weighted>
4.5123

> <Gold.Chemscore.Internal.Correction.Weighted>
   9.000000E+99

> <Gold.Protein.RotatedTorsions>
[ 6907 6896 6895 6894 ] final   14.42 input  -60.11 | X-H torsion
[ 7974 7965 7964 7962 ] final -135.65 input  175.53 | X-H torsion
[ 8008 7997 7996 7995 ] final   99.13 input   59.86 | X-H torsion
[ 10167 10162 10161 10158 ] final -105.37 input  -65.29 | X-H torsion
[ 10718 10713 10712 10709 ] final  -27.31 input   66.30 | X-H torsion
[ 10763 10752 10751 10750 ] final  159.24 input  -60.55 | X-H torsion
[ 11005 11000 10999 10996 ] final   98.58 input  -57.11 | X-H torsion

> <Gold.Protein.ActiveResidues>
 VAL166  LYS551  ARG553  GLY616  TRP617  ASP618  TYR619  PRO620  LYS621  CYS622 
 ASP623  PHE694  ASN695  SER759  ASP760  ASP761  ALA762  ILE779  LEU786  VAL792 
 PHE793  MET794  SER795  GLU796  ALA797  LYS798  CYS799  TRP800  GLU811  SER814 

> <Gold.Protein.RotatedAtoms>
  151.8020  135.0706  160.0401 H   0  0  0  0  0  0  0  0  0  0  0  0  # atno 6907 bound_to 6896
  152.3082  133.5721  159.5671 H   0  0  0  0  0  0  0  0  0  0  0  0  # atno 6908 bound_to 6896
  150.7306  134.0107  159.3711 H   0  0  0  0  0  0  0  0  0  0  0  0  # atno 6909 bound_to 6896
  144.8995  140.6752  143.5094 H   0  0  0  0  0  0  0  0  0  0  0  0  # atno 7974 bound_to 7965
  156.1074  140.3233  155.8025 H   0  0  0  0  0  0  0  0  0  0  0  0  # atno 8008 bound_to 7997
  155.4732  140.0548  157.2994 H   0  0  0  0  0  0  0  0  0  0  0  0  # atno 8009 bound_to 7997
  154.4737  140.2022  155.9946 H   0  0  0  0  0  0  0  0  0  0  0  0  # atno 8010 bound_to 7997
  140.1992  143.3831  152.1143 H   0  0  0  0  0  0  0  0  0  0  0  0  # atno 10167 bound_to 10162
  156.4399  130.4462  149.7060 H   0  0  0  0  0  0  0  0  0  0  0  0  # atno 10718 bound_to 10713
  154.2286  135.2779  155.2898 H   0  0  0  0  0  0  0  0  0  0  0  0  # atno 10763 bound_to 10752
  154.5642  135.5638  153.7039 H   0  0  0  0  0  0  0  0  0  0  0  0  # atno 10764 bound_to 10752
  153.0025  135.6305  154.2427 H   0  0  0  0  0  0  0  0  0  0  0  0  # atno 10765 bound_to 10752
  139.8772  134.9056  156.4477 H   0  0  0  0  0  0  0  0  0  0  0  0  # atno 11005 bound_to 11000
  145.3641  139.1674  143.4367 LP  0  0  0  0  0  0  0  0  0  0  0  0  # atno 17320 bound_to 7965
  146.3100  140.3706  142.8674 LP  0  0  0  0  0  0  0  0  0  0  0  0  # atno 17321 bound_to 7965
  139.5224  144.7058  151.5358 LP  0  0  0  0  0  0  0  0  0  0  0  0  # atno 17342 bound_to 10162
  140.6402  143.8904  150.6684 LP  0  0  0  0  0  0  0  0  0  0  0  0  # atno 17343 bound_to 10162
  156.3929  130.7636  151.2638 LP  0  0  0  0  0  0  0  0  0  0  0  0  # atno 17370 bound_to 10713
  157.7506  131.0262  150.3954 LP  0  0  0  0  0  0  0  0  0  0  0  0  # atno 17371 bound_to 10713
  140.8954  133.7818  155.9619 LP  0  0  0  0  0  0  0  0  0  0  0  0  # atno 17394 bound_to 11000
  140.8709  134.2728  157.5191 LP  0  0  0  0  0  0  0  0  0  0  0  0  # atno 17395 bound_to 11000

$$$$
