AV-unprocessed.smi:1662|AV-procd|sdf|6664|dock3
  -GOLD-   22720 7373D 1   1.00000     0.00000
 Structure written by MMmdl.
 47 48  0  0  0  0  0  0  0  0  1 V2000
  152.0553  144.7548  161.6617 C   0  0  0  0  0  0  0  0  0  0  0  0
  152.3896  143.5410  160.8374 C   0  0  0  0  0  0  0  0  0  0  0  0
  151.9650  143.5330  159.6167 N   0  0  0  0  0  0  0  0  0  0  0  0
  152.2106  142.4641  158.7767 N   0  0  0  0  0  0  0  0  0  0  0  0
  151.6359  142.6102  157.4318 C   0  0  0  0  0  0  0  0  0  0  0  0
  150.3951  141.7326  157.2174 C   0  0  0  0  0  0  0  0  0  0  0  0
  150.4379  140.5233  157.4469 O   0  0  0  0  0  0  0  0  0  0  0  0
  149.2909  142.3661  156.7942 N   0  0  0  0  0  0  0  0  0  0  0  0
  148.0047  141.7353  156.5056 C   0  0  1  0  0  0  0  0  0  0  0  0
  146.9020  142.4288  157.3303 C   0  0  0  0  0  0  0  0  0  0  0  0
  145.5086  141.8726  157.0062 C   0  0  0  0  0  0  0  0  0  0  0  0
  145.2145  141.9550  155.5001 C   0  0  0  0  0  0  0  0  0  0  0  0
  146.2908  141.2430  154.6554 C   0  0  2  0  0  0  0  0  0  0  0  0
  146.1792  139.7087  154.7705 C   0  0  0  0  0  0  0  0  0  0  0  0
  147.6991  141.8058  154.9872 C   0  0  2  0  0  0  0  0  0  0  0  0
  148.8060  141.1699  154.1224 C   0  0  0  0  0  0  0  0  0  0  0  0
  152.9127  141.3473  159.1255 C   0  0  0  0  0  0  0  0  0  0  0  0
  153.1145  140.4197  158.3398 O   0  0  0  0  0  0  0  0  0  0  0  0
  153.3923  141.3643  160.5091 C   0  0  0  0  0  0  0  0  0  0  0  0
  154.1284  140.2113  160.9167 C   0  0  0  0  0  0  0  0  0  0  0  0
  154.7318  139.2861  161.2628 N   0  0  0  0  0  0  0  0  0  0  0  0
  153.1515  142.4046  161.3458 C   0  0  0  0  0  0  0  0  0  0  0  0
  153.6250  142.4699  162.7915 C   0  0  0  0  0  0  0  0  0  0  0  0
  152.9625  145.2447  162.0160 H   0  0  0  0  0  0  0  0  0  0  0  0
  151.4575  144.4791  162.5305 H   0  0  0  0  0  0  0  0  0  0  0  0
  151.4862  145.4904  161.0909 H   0  0  0  0  0  0  0  0  0  0  0  0
  151.3486  143.6477  157.2519 H   0  0  0  0  0  0  0  0  0  0  0  0
  152.3916  142.3815  156.6774 H   0  0  0  0  0  0  0  0  0  0  0  0
  149.3500  143.3618  156.6379 H   0  0  0  0  0  0  0  0  0  0  0  0
  148.0475  140.6842  156.7953 H   0  0  0  0  0  0  0  0  0  0  0  0
  147.1024  142.3131  158.3962 H   0  0  0  0  0  0  0  0  0  0  0  0
  146.9134  143.5013  157.1305 H   0  0  0  0  0  0  0  0  0  0  0  0
  145.4366  140.8393  157.3467 H   0  0  0  0  0  0  0  0  0  0  0  0
  144.7523  142.4288  157.5605 H   0  0  0  0  0  0  0  0  0  0  0  0
  144.2299  141.5365  155.2895 H   0  0  0  0  0  0  0  0  0  0  0  0
  145.1641  143.0041  155.2057 H   0  0  0  0  0  0  0  0  0  0  0  0
  146.0819  141.4849  153.6123 H   0  0  0  0  0  0  0  0  0  0  0  0
  146.4230  139.3510  155.7703 H   0  0  0  0  0  0  0  0  0  0  0  0
  146.8427  139.2047  154.0682 H   0  0  0  0  0  0  0  0  0  0  0  0
  145.1664  139.3757  154.5423 H   0  0  0  0  0  0  0  0  0  0  0  0
  147.6761  142.8631  154.7173 H   0  0  0  0  0  0  0  0  0  0  0  0
  148.9913  140.1334  154.4050 H   0  0  0  0  0  0  0  0  0  0  0  0
  149.7498  141.7067  154.2218 H   0  0  0  0  0  0  0  0  0  0  0  0
  148.5373  141.1872  153.0660 H   0  0  0  0  0  0  0  0  0  0  0  0
  154.1885  141.5839  163.0823 H   0  0  0  0  0  0  0  0  0  0  0  0
  152.7745  142.5532  163.4690 H   0  0  0  0  0  0  0  0  0  0  0  0
  154.2728  143.3335  162.9441 H   0  0  0  0  0  0  0  0  0  0  0  0
  1  2  1  0  0  0  0
  1 24  1  0  0  0  0
  1 25  1  0  0  0  0
  1 26  1  0  0  0  0
  2 22  1  0  0  0  0
  2  3  2  0  0  0  0
  3  4  1  0  0  0  0
  4  5  1  0  0  0  0
  4 17  1  0  0  0  0
  5  6  1  0  0  0  0
  5 27  1  0  0  0  0
  5 28  1  0  0  0  0
  6  7  2  0  0  0  0
  6  8  1  0  0  0  0
  8  9  1  0  0  0  0
  8 29  1  0  0  0  0
  9 15  1  0  0  0  0
  9 10  1  0  0  0  0
  9 30  1  0  0  0  0
 10 11  1  0  0  0  0
 10 31  1  0  0  0  0
 10 32  1  0  0  0  0
 11 12  1  0  0  0  0
 11 33  1  0  0  0  0
 11 34  1  0  0  0  0
 12 13  1  0  0  0  0
 12 35  1  0  0  0  0
 12 36  1  0  0  0  0
 13 14  1  0  0  0  0
 13 15  1  0  0  0  0
 13 37  1  0  0  0  0
 14 38  1  0  0  0  0
 14 39  1  0  0  0  0
 14 40  1  0  0  0  0
 15 16  1  0  0  0  0
 15 41  1  0  0  0  0
 16 42  1  0  0  0  0
 16 43  1  0  0  0  0
 16 44  1  0  0  0  0
 17 18  2  0  0  0  0
 17 19  1  0  0  0  0
 19 20  1  0  0  0  0
 19 22  2  0  0  0  0
 20 21  3  0  0  0  0
 22 23  1  0  0  0  0
 23 45  1  0  0  0  0
 23 46  1  0  0  0  0
 23 47  1  0  0  0  0
M  END
> <s_m_source_file>
AV-unprocessed.smi

> <i_m_source_file_index>
1662

> <i_lp_mmshare_version>
43012

> <i_f3d_flags>
0

> <s_epik_input>
TiNDYyhjMVtDSDNdKWMoPU8pbihuYzFbQ0gzXSlbQ0gyXUMoPU8pW05IXVtDQEBIXTJbQ0gyXVtDSDJdW0NIMl1bQ0BASF0oW0NIM10pW0NASF0yW0NIM10=

> <s_epik_cmdline>
J2VwaWtfcHl0aG9uJywgJy1waCcsICc3LjAnLCAnLXRuJywgJzgnLCAnLW1hJywgJzIwMCcsICctbWV0YWxfYmluZGluZycsICctaW1hZScsICc8aW5maWxlLm1hZT4nLCAnLW9tYWUnLCAnPG91dGZpbGUubWFlPic=

> <r_lp_tautomer_probability>
1

> <r_epik_Ionization_Penalty>
1.90709e-08

> <r_epik_Ionization_Penalty_Charging>
2.37982e-11

> <r_epik_Ionization_Penalty_Neutral>
1.90471e-08

> <r_epik_State_Penalty>
-0

> <r_epik_Charging_Adjusted_Penalty>
2.37982e-11

> <i_epik_Tot_Q>
0

> <i_epik_Tot_abs_Q>
0

> <r_epik_Metal_State_Penalty>
-0

> <b_epik_Metal_Only>
0

> <s_lp_Force_Field>
OPLS_2005

> <r_lp_Energy>
29.0639

> <b_lp_Chiralities_Consistent>
1

> <s_lp_Variant>
AV-unprocessed.smi:1662-8

> <Gold.Version>
5.8.1

> <Gold.Id.Protein>
6NUR|6NUR_protein|mol2

> <Gold.PLP.Fitness>
45.8758

> <Gold.PLP.PLP>
-40.9525

> <Gold.PLP.part.hbond>
-2.0000

> <Gold.PLP.part.metal>
0.0000

> <Gold.PLP.part.buried>
-0.9285

> <Gold.PLP.part.nonpolar>
-36.9202

> <Gold.PLP.part.repulsive>
0.0197

> <Gold.PLP.ligand.clash>
0.0000

> <Gold.PLP.ligand.torsion>
0.2581

> <Gold.PLP.Chemscore.Hbond>
1.8112

> <Gold.PLP.Chemscore.CHOScore>
0.0000

> <Gold.PLP.Chemscore.Metal>
0.0000

> <Gold.Chemscore.Hbonds>
donor molecule, donor type, donor heavy atom, donor atom, acceptor molecule, acceptor atom, score
      L1  H     8    29       P1  8028  0.96
      P1  H  7997  8010       L1    18  0.85

> <Gold.PLP.Chemscore.Internal.Correction>
0.0058

> <Gold.Rescore>
     Score         DG    S(hbond)    S(metal)    S(lipo)     H(rot)  DE(clash)    DE(int)     intcor
     16.73     -19.42       1.86        0.00      97.80       1.45       1.11       1.58       ----

> <Gold.Chemscore.Fitness>
16.7322

> <Gold.Chemscore.DG>
-19.4163

> <Gold.Chemscore.ZeroCoef>
-5.4800

> <Gold.Chemscore.Hbond>
1.8584

> <Gold.Chemscore.Metal>
0.0000

> <Gold.Chemscore.Lipo>
97.7957

> <Gold.Chemscore.Internal_Hbond>
0.0000

> <Gold.Chemscore.DEClash>
1.1051

> <Gold.Chemscore.DEInternal>
1.5789

> <Gold.Chemscore.Rot>
1.4504

> <Gold.Chemscore.Internal.Correction>
   9.000000E+99

> <Gold.Chemscore.Hbonds>
donor molecule, donor type, donor heavy atom, donor atom, acceptor molecule, acceptor atom, score
      L1  H     8    29       P1  8028  0.92
      P1  H  7997  8010       L1    18  0.80

> <Gold.Chemscore.Hbond.Weighted>
-6.2071

> <Gold.Chemscore.Metal.Weighted>
-0.0000

> <Gold.Chemscore.Lipo.Weighted>
-11.4421

> <Gold.Chemscore.Internal_Hbond.Weighted>
0.0000

> <Gold.Chemscore.DEClash.Weighted>
1.1051

> <Gold.Chemscore.DEInternal.Weighted>
1.5789

> <Gold.Chemscore.Rot.Weighted>
3.7129

> <Gold.Chemscore.Internal.Correction.Weighted>
   9.000000E+99

> <Gold.Protein.RotatedTorsions>
[ 6907 6896 6895 6894 ] final  178.23 input  -60.11 | X-H torsion
[ 7974 7965 7964 7962 ] final   72.35 input  175.53 | X-H torsion
[ 8008 7997 7996 7995 ] final   34.07 input   59.86 | X-H torsion
[ 10167 10162 10161 10158 ] final -139.58 input  -65.29 | X-H torsion
[ 10718 10713 10712 10709 ] final  155.84 input   66.30 | X-H torsion
[ 10763 10752 10751 10750 ] final -117.76 input  -60.55 | X-H torsion
[ 11005 11000 10999 10996 ] final -159.91 input  -57.11 | X-H torsion

> <Gold.Protein.ActiveResidues>
 VAL166  LYS551  ARG553  GLY616  TRP617  ASP618  TYR619  PRO620  LYS621  CYS622 
 ASP623  PHE694  ASN695  SER759  ASP760  ASP761  ALA762  ILE779  LEU786  VAL792 
 PHE793  MET794  SER795  GLU796  ALA797  LYS798  CYS799  TRP800  GLU811  SER814 

> <Gold.Protein.RotatedAtoms>
  151.6913  133.3311  159.3243 H   0  0  0  0  0  0  0  0  0  0  0  0  # atno 6907 bound_to 6896
  150.7778  134.6696  159.6394 H   0  0  0  0  0  0  0  0  0  0  0  0  # atno 6908 bound_to 6896
  152.3825  134.6571  160.0189 H   0  0  0  0  0  0  0  0  0  0  0  0  # atno 6909 bound_to 6896
  145.7544  139.2773  143.1412 H   0  0  0  0  0  0  0  0  0  0  0  0  # atno 7974 bound_to 7965
  155.1488  140.3273  155.4435 H   0  0  0  0  0  0  0  0  0  0  0  0  # atno 8008 bound_to 7997
  156.2581  140.1980  156.6551 H   0  0  0  0  0  0  0  0  0  0  0  0  # atno 8009 bound_to 7997
  154.6488  140.0561  156.9918 H   0  0  0  0  0  0  0  0  0  0  0  0  # atno 8010 bound_to 7997
  139.8365  143.7378  152.2664 H   0  0  0  0  0  0  0  0  0  0  0  0  # atno 10167 bound_to 10162
  157.2129  131.0701  151.1958 H   0  0  0  0  0  0  0  0  0  0  0  0  # atno 10718 bound_to 10713
  154.8565  135.4298  154.2030 H   0  0  0  0  0  0  0  0  0  0  0  0  # atno 10763 bound_to 10752
  153.3073  135.6973  153.7154 H   0  0  0  0  0  0  0  0  0  0  0  0  # atno 10764 bound_to 10752
  153.6260  135.3493  155.3000 H   0  0  0  0  0  0  0  0  0  0  0  0  # atno 10765 bound_to 10752
  140.6373  134.4588  157.5232 H   0  0  0  0  0  0  0  0  0  0  0  0  # atno 11005 bound_to 11000
  146.0325  140.8244  142.9869 LP  0  0  0  0  0  0  0  0  0  0  0  0  # atno 17320 bound_to 7965
  144.6843  140.2790  143.7295 LP  0  0  0  0  0  0  0  0  0  0  0  0  # atno 17321 bound_to 7965
  139.7601  144.7509  151.0376 LP  0  0  0  0  0  0  0  0  0  0  0  0  # atno 17342 bound_to 10162
  140.7802  143.4760  151.0082 LP  0  0  0  0  0  0  0  0  0  0  0  0  # atno 17343 bound_to 10162
  157.3654  130.7153  149.6529 LP  0  0  0  0  0  0  0  0  0  0  0  0  # atno 17370 bound_to 10713
  155.9689  130.4214  150.4466 LP  0  0  0  0  0  0  0  0  0  0  0  0  # atno 17371 bound_to 10713
  139.9093  134.8379  156.1587 LP  0  0  0  0  0  0  0  0  0  0  0  0  # atno 17394 bound_to 11000
  141.0632  133.6831  156.1993 LP  0  0  0  0  0  0  0  0  0  0  0  0  # atno 17395 bound_to 11000

$$$$
