AV-unprocessed.smi:1381|AV-procd|sdf|5608|dock6
  -GOLD-   22720 5213D 1   1.00000     0.00000
 Structure written by MMmdl.
 43 44  0  0  0  0  0  0  0  0  2 V2000
  150.8396  142.3286  156.9682 C   0  0  0  0  0  0  0  0  0  0  0  0
  150.5756  141.2849  155.9378 C   0  0  0  0  0  0  0  0  0  0  0  0
  149.4557  140.9287  155.2408 C   0  0  0  0  0  0  0  0  0  0  0  0
  149.9157  139.8532  154.4261 C   0  0  0  0  0  0  0  0  0  0  0  0
  149.1416  139.1099  153.4977 N   0  0  0  0  0  0  0  0  0  0  0  0
  147.8640  139.3040  153.1299 C   0  0  0  0  0  0  0  0  0  0  0  0
  147.1253  140.1927  153.5536 O   0  0  0  0  0  0  0  0  0  0  0  0
  147.4764  138.3980  152.2202 N   0  0  0  0  0  0  0  0  0  0  0  0
  146.1479  138.3300  151.6221 C   0  0  0  0  0  0  0  0  0  0  0  0
  145.9691  137.0504  150.7825 C   0  0  0  0  0  0  0  0  0  0  0  0
  146.0599  135.8162  151.6074 N   0  3  1  0  0  0  0  0  0  0  0  0
  145.1486  135.8158  152.7778 C   0  0  0  0  0  0  0  0  0  0  0  0
  143.6972  135.5046  152.3580 C   0  0  2  0  0  0  0  0  0  0  0  0
  142.7558  135.4149  153.5639 C   0  0  0  0  0  0  0  0  0  0  0  0
  143.6719  134.2515  151.6824 O   0  0  0  0  0  0  0  0  0  0  0  0
  144.4530  134.2477  150.4921 C   0  0  2  0  0  0  0  0  0  0  0  0
  144.2902  132.8802  149.8195 C   0  0  0  0  0  0  0  0  0  0  0  0
  145.9256  134.5459  150.8488 C   0  0  0  0  0  0  0  0  0  0  0  0
  151.1941  139.5831  154.6142 N   0  0  0  0  0  0  0  0  0  0  0  0
  151.6259  140.4973  155.5824 O   0  0  0  0  0  0  0  0  0  0  0  0
  150.0207  143.0468  157.0138 H   0  0  0  0  0  0  0  0  0  0  0  0
  151.7553  142.8749  156.7413 H   0  0  0  0  0  0  0  0  0  0  0  0
  150.9496  141.8772  157.9544 H   0  0  0  0  0  0  0  0  0  0  0  0
  148.4761  141.3756  155.3163 H   0  0  0  0  0  0  0  0  0  0  0  0
  149.6235  138.3394  153.0586 H   0  0  0  0  0  0  0  0  0  0  0  0
  148.1456  137.7010  151.9270 H   0  0  0  0  0  0  0  0  0  0  0  0
  145.4266  138.3637  152.4375 H   0  0  0  0  0  0  0  0  0  0  0  0
  145.9683  139.2165  151.0115 H   0  0  0  0  0  0  0  0  0  0  0  0
  144.9843  137.0845  150.3148 H   0  0  0  0  0  0  0  0  0  0  0  0
  146.6904  137.0249  149.9659 H   0  0  0  0  0  0  0  0  0  0  0  0
  145.4957  135.0551  153.4787 H   0  0  0  0  0  0  0  0  0  0  0  0
  145.2071  136.7668  153.3090 H   0  0  0  0  0  0  0  0  0  0  0  0
  143.3248  136.2825  151.6895 H   0  0  0  0  0  0  0  0  0  0  0  0
  142.7313  136.3561  154.1137 H   0  0  0  0  0  0  0  0  0  0  0  0
  143.0702  134.6315  154.2541 H   0  0  0  0  0  0  0  0  0  0  0  0
  141.7374  135.1897  153.2467 H   0  0  0  0  0  0  0  0  0  0  0  0
  144.0682  135.0070  149.8100 H   0  0  0  0  0  0  0  0  0  0  0  0
  144.8653  132.8263  148.8947 H   0  0  0  0  0  0  0  0  0  0  0  0
  143.2457  132.6897  149.5714 H   0  0  0  0  0  0  0  0  0  0  0  0
  144.6294  132.0749  150.4721 H   0  0  0  0  0  0  0  0  0  0  0  0
  146.5450  134.5553  149.9529 H   0  0  0  0  0  0  0  0  0  0  0  0
  146.3140  133.7406  151.4743 H   0  0  0  0  0  0  0  0  0  0  0  0
  146.9949  135.8269  151.9900 H   0  0  0  0  0  0  0  0  0  0  0  0
  1  2  1  0  0  0  0
  1 21  1  0  0  0  0
  1 22  1  0  0  0  0
  1 23  1  0  0  0  0
  2 20  1  0  0  0  0
  2  3  2  0  0  0  0
  3  4  1  0  0  0  0
  3 24  1  0  0  0  0
  4  5  1  0  0  0  0
  4 19  2  0  0  0  0
  5  6  1  0  0  0  0
  5 25  1  0  0  0  0
  6  7  2  0  0  0  0
  6  8  1  0  0  0  0
  8  9  1  0  0  0  0
  8 26  1  0  0  0  0
  9 10  1  0  0  0  0
  9 27  1  0  0  0  0
  9 28  1  0  0  0  0
 10 11  1  0  0  0  0
 10 29  1  0  0  0  0
 10 30  1  0  0  0  0
 11 18  1  0  0  0  0
 11 12  1  0  0  0  0
 11 43  1  0  0  0  0
 12 13  1  0  0  0  0
 12 31  1  0  0  0  0
 12 32  1  0  0  0  0
 13 14  1  0  0  0  0
 13 15  1  0  0  0  0
 13 33  1  0  0  0  0
 14 34  1  0  0  0  0
 14 35  1  0  0  0  0
 14 36  1  0  0  0  0
 15 16  1  0  0  0  0
 16 17  1  0  0  0  0
 16 18  1  0  0  0  0
 16 37  1  0  0  0  0
 17 38  1  0  0  0  0
 17 39  1  0  0  0  0
 17 40  1  0  0  0  0
 18 41  1  0  0  0  0
 18 42  1  0  0  0  0
 19 20  1  0  0  0  0
M  CHG  1  11   1
M  END
> <s_m_source_file>
AV-unprocessed.smi

> <i_m_source_file_index>
1381

> <i_lp_mmshare_version>
43012

> <i_f3d_flags>
0

> <s_epik_input>
W0NIM11jMVtjSF1jKG5vMSlbTkhdQyg9TylbTkhdW0NIMl1bQ0gyXU4yW0NIMl1bQ0BASF0oW0NIM10pT1tDQEBIXShbQ0gzXSlbQ0gyXTI=

> <s_epik_cmdline>
J2VwaWtfcHl0aG9uJywgJy1waCcsICc3LjAnLCAnLXRuJywgJzgnLCAnLW1hJywgJzIwMCcsICctbWV0YWxfYmluZGluZycsICctaW1hZScsICc8aW5maWxlLm1hZT4nLCAnLW9tYWUnLCAnPG91dGZpbGUubWFlPic=

> <r_epik_Ionization_Penalty>
0.707076

> <r_epik_Ionization_Penalty_Charging>
0.707039

> <r_epik_Ionization_Penalty_Neutral>
3.6548e-05

> <r_epik_State_Penalty>
0.730276

> <r_epik_Charging_Adjusted_Penalty>
1.43732

> <i_epik_Tot_Q>
1

> <i_epik_Tot_abs_Q>
1

> <r_epik_Metal_State_Penalty>
0.743132

> <b_epik_Metal_Only>
0

> <s_lp_Force_Field>
OPLS_2005

> <r_lp_Energy>
17.699

> <b_lp_Chiralities_Consistent>
1

> <s_lp_Variant>
AV-unprocessed.smi:1381-7

> <Gold.Version>
5.8.1

> <Gold.Id.Protein>
6NUR|6NUR_protein|mol2

> <Gold.PLP.Fitness>
44.5030

> <Gold.PLP.PLP>
-35.2695

> <Gold.PLP.part.hbond>
-6.1536

> <Gold.PLP.part.metal>
0.0000

> <Gold.PLP.part.buried>
2.0418

> <Gold.PLP.part.nonpolar>
-32.0244

> <Gold.PLP.part.repulsive>
0.6791

> <Gold.PLP.ligand.clash>
0.0000

> <Gold.PLP.ligand.torsion>
0.0576

> <Gold.PLP.Chemscore.Hbond>
3.1100

> <Gold.PLP.Chemscore.CHOScore>
0.0000

> <Gold.PLP.Chemscore.Metal>
0.0000

> <Gold.Chemscore.Hbonds>
donor molecule, donor type, donor heavy atom, donor atom, acceptor molecule, acceptor atom, score
      L1  H     8    26       P1  7948  1.00
      L1  H    11    43       P1  7948  2.00
      P1  H  7989  7998       L1    19  0.11

> <Gold.PLP.Chemscore.Internal.Correction>
0.0186

> <Gold.Rescore>
     Score         DG    S(hbond)    S(metal)    S(lipo)     H(rot)  DE(clash)    DE(int)     intcor
     13.42     -15.39       1.87        0.00      66.47       1.61       0.79       1.18       ----

> <Gold.Chemscore.Fitness>
13.4250

> <Gold.Chemscore.DG>
-15.3866

> <Gold.Chemscore.ZeroCoef>
-5.4800

> <Gold.Chemscore.Hbond>
1.8700

> <Gold.Chemscore.Metal>
0.0000

> <Gold.Chemscore.Lipo>
66.4741

> <Gold.Chemscore.Internal_Hbond>
0.0000

> <Gold.Chemscore.DEClash>
0.7851

> <Gold.Chemscore.DEInternal>
1.1766

> <Gold.Chemscore.Rot>
1.6081

> <Gold.Chemscore.Internal.Correction>
   9.000000E+99

> <Gold.Chemscore.Hbonds>
donor molecule, donor type, donor heavy atom, donor atom, acceptor molecule, acceptor atom, score
      L1  H     5    25       P1  7948  0.02
      L1  H     8    26       P1  7948  0.99
      L1  H    11    43       P1  7948  0.93

> <Gold.Chemscore.Hbond.Weighted>
-6.2458

> <Gold.Chemscore.Metal.Weighted>
-0.0000

> <Gold.Chemscore.Lipo.Weighted>
-7.7775

> <Gold.Chemscore.Internal_Hbond.Weighted>
0.0000

> <Gold.Chemscore.DEClash.Weighted>
0.7851

> <Gold.Chemscore.DEInternal.Weighted>
1.1766

> <Gold.Chemscore.Rot.Weighted>
4.1167

> <Gold.Chemscore.Internal.Correction.Weighted>
   9.000000E+99

> <Gold.Protein.RotatedTorsions>
[ 6907 6896 6895 6894 ] final -121.93 input  -60.11 | X-H torsion
[ 7974 7965 7964 7962 ] final -127.99 input  175.53 | X-H torsion
[ 8008 7997 7996 7995 ] final -169.13 input   59.86 | X-H torsion
[ 10167 10162 10161 10158 ] final  -24.28 input  -65.29 | X-H torsion
[ 10718 10713 10712 10709 ] final  169.18 input   66.30 | X-H torsion
[ 10763 10752 10751 10750 ] final  102.80 input  -60.55 | X-H torsion
[ 11005 11000 10999 10996 ] final  118.90 input  -57.11 | X-H torsion

> <Gold.Protein.ActiveResidues>
 VAL166  LYS551  ARG553  GLY616  TRP617  ASP618  TYR619  PRO620  LYS621  CYS622 
 ASP623  PHE694  ASN695  SER759  ASP760  ASP761  ALA762  ILE779  LEU786  VAL792 
 PHE793  MET794  SER795  GLU796  ALA797  LYS798  CYS799  TRP800  GLU811  SER814 

> <Gold.Protein.RotatedAtoms>
  150.8529  133.7759  159.3018 H   0  0  0  0  0  0  0  0  0  0  0  0  # atno 6907 bound_to 6896
  151.5426  135.1066  159.9939 H   0  0  0  0  0  0  0  0  0  0  0  0  # atno 6908 bound_to 6896
  152.4567  133.7694  159.6846 H   0  0  0  0  0  0  0  0  0  0  0  0  # atno 6909 bound_to 6896
  144.9715  140.7550  143.4668 H   0  0  0  0  0  0  0  0  0  0  0  0  # atno 7974 bound_to 7965
  155.9008  140.1040  157.1351 H   0  0  0  0  0  0  0  0  0  0  0  0  # atno 8008 bound_to 7997
  154.4026  140.1293  156.4498 H   0  0  0  0  0  0  0  0  0  0  0  0  # atno 8009 bound_to 7997
  155.7425  140.3466  155.5113 H   0  0  0  0  0  0  0  0  0  0  0  0  # atno 8010 bound_to 7997
  140.7288  143.4367  151.0719 H   0  0  0  0  0  0  0  0  0  0  0  0  # atno 10167 bound_to 10162
  157.0264  131.0246  151.2758 H   0  0  0  0  0  0  0  0  0  0  0  0  # atno 10718 bound_to 10713
  153.3443  135.3998  155.1596 H   0  0  0  0  0  0  0  0  0  0  0  0  # atno 10763 bound_to 10752
  154.8650  135.3641  154.5305 H   0  0  0  0  0  0  0  0  0  0  0  0  # atno 10764 bound_to 10752
  153.5752  135.7078  153.5547 H   0  0  0  0  0  0  0  0  0  0  0  0  # atno 10765 bound_to 10752
  139.9126  134.9624  156.7574 H   0  0  0  0  0  0  0  0  0  0  0  0  # atno 11005 bound_to 11000
  145.2552  139.2015  143.4921 LP  0  0  0  0  0  0  0  0  0  0  0  0  # atno 17320 bound_to 7965
  146.3383  140.2473  142.8597 LP  0  0  0  0  0  0  0  0  0  0  0  0  # atno 17321 bound_to 7965
  139.8030  143.8057  152.3164 LP  0  0  0  0  0  0  0  0  0  0  0  0  # atno 17342 bound_to 10162
  139.8080  144.7347  150.9735 LP  0  0  0  0  0  0  0  0  0  0  0  0  # atno 17343 bound_to 10162
  157.5211  130.7999  149.7810 LP  0  0  0  0  0  0  0  0  0  0  0  0  # atno 17370 bound_to 10713
  156.0084  130.3844  150.2348 LP  0  0  0  0  0  0  0  0  0  0  0  0  # atno 17371 bound_to 10713
  140.6725  133.9547  155.7864 LP  0  0  0  0  0  0  0  0  0  0  0  0  # atno 17394 bound_to 11000
  141.0567  134.0405  157.3712 LP  0  0  0  0  0  0  0  0  0  0  0  0  # atno 17395 bound_to 11000

$$$$
