AV-unprocessed.smi:767|AV-procd|sdf|3669|dock10
  -GOLD-   22720 1 83D 1   1.00000     0.00000
 Structure written by MMmdl.
 48 50  0  0  0  0  0  0  0  0  2 V2000
  145.9729  129.9678  151.5389 C   0  0  0  0  0  0  0  0  0  0  0  0
  145.7045  131.4481  151.3674 C   0  0  0  0  0  0  0  0  0  0  0  0
  144.4016  131.9890  151.4153 C   0  0  0  0  0  0  0  0  0  0  0  0
  144.2261  133.3781  151.2460 C   0  0  0  0  0  0  0  0  0  0  0  0
  145.3556  134.1980  151.0325 C   0  0  0  0  0  0  0  0  0  0  0  0
  145.2006  135.6953  150.8527 C   0  0  0  0  0  0  0  0  0  0  0  0
  145.1970  136.4402  152.1973 C   0  0  0  0  0  0  0  0  0  0  0  0
  146.5410  136.8449  152.5901 N   0  0  0  0  0  0  0  0  0  0  0  0
  146.8278  137.6367  153.6325 C   0  0  0  0  0  0  0  0  0  0  0  0
  145.9817  138.1135  154.3895 O   0  0  0  0  0  0  0  0  0  0  0  0
  148.1455  137.8419  153.7545 N   0  0  0  0  0  0  0  0  0  0  0  0
  148.7579  138.6698  154.7885 C   0  0  2  0  0  0  0  0  0  0  0  0
  149.6184  139.8000  154.2022 C   0  0  1  0  0  0  0  0  0  0  0  0
  149.2107  141.2339  154.4039 C   0  0  0  0  0  0  0  0  0  0  0  0
  150.0213  141.6492  155.6353 C   0  0  0  0  0  0  0  0  0  0  0  0
  150.3386  140.4225  156.2890 O   0  0  0  0  0  0  0  0  0  0  0  0
  150.6395  139.4634  155.2781 C   0  0  1  0  0  0  0  0  0  0  0  0
  150.0213  138.0592  155.4477 C   0  0  0  0  0  0  0  0  0  0  0  0
  149.8609  137.5671  156.8869 C   0  0  0  0  0  0  0  0  0  0  0  0
  150.7579  136.9518  154.6805 C   0  0  0  0  0  0  0  0  0  0  0  0
  146.6344  133.6020  150.9957 C   0  0  0  0  0  0  0  0  0  0  0  0
  146.7606  132.2670  151.1615 N   0  3  0  0  0  0  0  0  0  0  0  0
  145.0473  129.4181  151.7124 H   0  0  0  0  0  0  0  0  0  0  0  0
  146.6341  129.7970  152.3890 H   0  0  0  0  0  0  0  0  0  0  0  0
  146.4474  129.5616  150.6454 H   0  0  0  0  0  0  0  0  0  0  0  0
  143.5457  131.3505  151.5792 H   0  0  0  0  0  0  0  0  0  0  0  0
  143.2352  133.8073  151.2818 H   0  0  0  0  0  0  0  0  0  0  0  0
  146.0109  136.0591  150.2193 H   0  0  0  0  0  0  0  0  0  0  0  0
  144.2752  135.8952  150.3108 H   0  0  0  0  0  0  0  0  0  0  0  0
  144.5816  137.3373  152.1248 H   0  0  0  0  0  0  0  0  0  0  0  0
  144.7527  135.8200  152.9778 H   0  0  0  0  0  0  0  0  0  0  0  0
  147.3052  136.5031  152.0256 H   0  0  0  0  0  0  0  0  0  0  0  0
  148.7652  137.4081  153.0860 H   0  0  0  0  0  0  0  0  0  0  0  0
  148.0470  139.0453  155.5281 H   0  0  0  0  0  0  0  0  0  0  0  0
  149.9970  139.5687  153.2047 H   0  0  0  0  0  0  0  0  0  0  0  0
  149.4400  141.8610  153.5421 H   0  0  0  0  0  0  0  0  0  0  0  0
  148.1406  141.3103  154.5988 H   0  0  0  0  0  0  0  0  0  0  0  0
  150.9481  142.1411  155.3361 H   0  0  0  0  0  0  0  0  0  0  0  0
  149.4729  142.3239  156.2929 H   0  0  0  0  0  0  0  0  0  0  0  0
  151.6752  139.4976  154.9363 H   0  0  0  0  0  0  0  0  0  0  0  0
  150.8276  137.4080  157.3655 H   0  0  0  0  0  0  0  0  0  0  0  0
  149.3109  136.6265  156.9294 H   0  0  0  0  0  0  0  0  0  0  0  0
  149.3128  138.2843  157.4982 H   0  0  0  0  0  0  0  0  0  0  0  0
  151.7386  136.7533  155.1138 H   0  0  0  0  0  0  0  0  0  0  0  0
  150.9202  137.2214  153.6366 H   0  0  0  0  0  0  0  0  0  0  0  0
  150.2010  136.0143  154.6911 H   0  0  0  0  0  0  0  0  0  0  0  0
  147.5539  134.1477  150.8406 H   0  0  0  0  0  0  0  0  0  0  0  0
  147.6951  131.8586  151.1300 H   0  0  0  0  0  0  0  0  0  0  0  0
  1  2  1  0  0  0  0
  1 23  1  0  0  0  0
  1 24  1  0  0  0  0
  1 25  1  0  0  0  0
  2 22  1  0  0  0  0
  2  3  2  0  0  0  0
  3  4  1  0  0  0  0
  3 26  1  0  0  0  0
  4  5  2  0  0  0  0
  4 27  1  0  0  0  0
  5  6  1  0  0  0  0
  5 21  1  0  0  0  0
  6  7  1  0  0  0  0
  6 28  1  0  0  0  0
  6 29  1  0  0  0  0
  7  8  1  0  0  0  0
  7 30  1  0  0  0  0
  7 31  1  0  0  0  0
  8  9  1  0  0  0  0
  8 32  1  0  0  0  0
  9 10  2  0  0  0  0
  9 11  1  0  0  0  0
 11 12  1  0  0  0  0
 11 33  1  0  0  0  0
 12 18  1  0  0  0  0
 12 13  1  0  0  0  0
 12 34  1  0  0  0  0
 13 17  1  0  0  0  0
 13 14  1  0  0  0  0
 13 35  1  0  0  0  0
 14 15  1  0  0  0  0
 14 36  1  0  0  0  0
 14 37  1  0  0  0  0
 15 16  1  0  0  0  0
 15 38  1  0  0  0  0
 15 39  1  0  0  0  0
 16 17  1  0  0  0  0
 17 18  1  0  0  0  0
 17 40  1  0  0  0  0
 18 19  1  0  0  0  0
 18 20  1  0  0  0  0
 19 41  1  0  0  0  0
 19 42  1  0  0  0  0
 19 43  1  0  0  0  0
 20 44  1  0  0  0  0
 20 45  1  0  0  0  0
 20 46  1  0  0  0  0
 21 22  2  0  0  0  0
 21 47  1  0  0  0  0
 22 48  1  0  0  0  0
M  CHG  1  22   1
M  END
> <s_m_source_file>
AV-unprocessed.smi

> <i_m_source_file_index>
767

> <i_lp_mmshare_version>
43012

> <i_f3d_flags>
0

> <s_epik_input>
W0NIM11jMVtjSF1bY0hdYyhbY0hdbjEpW0NIMl1bQ0gyXVtOSF1DKD1PKVtOSF1bQ0BIXTJDKFtDSDNdKShbQ0gzXSlbQ0BIXShbQ0BASF0yMylPW0NIMl1bQ0gyXTM=

> <s_epik_cmdline>
J2VwaWtfcHl0aG9uJywgJy1waCcsICc3LjAnLCAnLXRuJywgJzgnLCAnLW1hJywgJzIwMCcsICctbWV0YWxfYmluZGluZycsICctaW1hZScsICc8aW5maWxlLm1hZT4nLCAnLW9tYWUnLCAnPG91dGZpbGUubWFlPic=

> <r_epik_Ionization_Penalty>
1.41853

> <r_epik_Ionization_Penalty_Charging>
1.41848

> <r_epik_Ionization_Penalty_Neutral>
5.17407e-05

> <r_epik_State_Penalty>
1.50205

> <r_epik_Charging_Adjusted_Penalty>
2.92053

> <i_epik_Tot_Q>
1

> <i_epik_Tot_abs_Q>
1

> <r_epik_Metal_State_Penalty>
1.5544

> <b_epik_Metal_Only>
0

> <s_lp_Force_Field>
OPLS_2005

> <r_lp_Energy>
38.5293

> <b_lp_Chiralities_Consistent>
1

> <s_lp_Variant>
AV-unprocessed.smi:767-13

> <Gold.Version>
5.8.1

> <Gold.Id.Protein>
6NUR|6NUR_protein|mol2

> <Gold.PLP.Fitness>
45.8591

> <Gold.PLP.PLP>
-38.1532

> <Gold.PLP.part.hbond>
-3.0000

> <Gold.PLP.part.metal>
0.0000

> <Gold.PLP.part.buried>
-3.6148

> <Gold.PLP.part.nonpolar>
-31.7151

> <Gold.PLP.part.repulsive>
0.2035

> <Gold.PLP.ligand.clash>
0.0000

> <Gold.PLP.ligand.torsion>
0.7015

> <Gold.PLP.Chemscore.Hbond>
2.9760

> <Gold.PLP.Chemscore.CHOScore>
0.0000

> <Gold.PLP.Chemscore.Metal>
0.0000

> <Gold.Chemscore.Hbonds>
donor molecule, donor type, donor heavy atom, donor atom, acceptor molecule, acceptor atom, score
      L1  H     8    32       P1  7948  1.00
      L1  H    11    33       P1  7948  0.96
      L1  H    22    48       P1 10747  1.00

> <Gold.PLP.Chemscore.Internal.Correction>
0.1809

> <Gold.Rescore>
     Score         DG    S(hbond)    S(metal)    S(lipo)     H(rot)  DE(clash)    DE(int)     intcor
     22.57     -23.25       2.88        0.00     102.91       1.52       0.00       0.68       ----

> <Gold.Chemscore.Fitness>
22.5662

> <Gold.Chemscore.DG>
-23.2461

> <Gold.Chemscore.ZeroCoef>
-5.4800

> <Gold.Chemscore.Hbond>
2.8817

> <Gold.Chemscore.Metal>
0.0000

> <Gold.Chemscore.Lipo>
102.9129

> <Gold.Chemscore.Internal_Hbond>
0.0000

> <Gold.Chemscore.DEClash>
0.0048

> <Gold.Chemscore.DEInternal>
0.6750

> <Gold.Chemscore.Rot>
1.5233

> <Gold.Chemscore.Internal.Correction>
   9.000000E+99

> <Gold.Chemscore.Hbonds>
donor molecule, donor type, donor heavy atom, donor atom, acceptor molecule, acceptor atom, score
      L1  H     8    32       P1  7948  0.94
      L1  H    11    33       P1  7948  0.92
      L1  H    22    48       P1 10747  0.95

> <Gold.Chemscore.Hbond.Weighted>
-9.6248

> <Gold.Chemscore.Metal.Weighted>
-0.0000

> <Gold.Chemscore.Lipo.Weighted>
-12.0408

> <Gold.Chemscore.Internal_Hbond.Weighted>
0.0000

> <Gold.Chemscore.DEClash.Weighted>
0.0048

> <Gold.Chemscore.DEInternal.Weighted>
0.6750

> <Gold.Chemscore.Rot.Weighted>
3.8995

> <Gold.Chemscore.Internal.Correction.Weighted>
   9.000000E+99

> <Gold.Protein.RotatedTorsions>
[ 6907 6896 6895 6894 ] final   14.88 input  -60.11 | X-H torsion
[ 7974 7965 7964 7962 ] final -129.42 input  175.53 | X-H torsion
[ 8008 7997 7996 7995 ] final  -91.96 input   59.86 | X-H torsion
[ 10167 10162 10161 10158 ] final  101.07 input  -65.29 | X-H torsion
[ 10718 10713 10712 10709 ] final  149.30 input   66.30 | X-H torsion
[ 10763 10752 10751 10750 ] final  116.97 input  -60.55 | X-H torsion
[ 11005 11000 10999 10996 ] final  -58.74 input  -57.11 | X-H torsion

> <Gold.Protein.ActiveResidues>
 VAL166  LYS551  ARG553  GLY616  TRP617  ASP618  TYR619  PRO620  LYS621  CYS622 
 ASP623  PHE694  ASN695  SER759  ASP760  ASP761  ALA762  ILE779  LEU786  VAL792 
 PHE793  MET794  SER795  GLU796  ALA797  LYS798  CYS799  TRP800  GLU811  SER814 

> <Gold.Protein.RotatedAtoms>
  151.8092  135.0686  160.0410 H   0  0  0  0  0  0  0  0  0  0  0  0  # atno 6907 bound_to 6896
  152.3033  133.5673  159.5641 H   0  0  0  0  0  0  0  0  0  0  0  0  # atno 6908 bound_to 6896
  150.7284  134.0176  159.3732 H   0  0  0  0  0  0  0  0  0  0  0  0  # atno 6909 bound_to 6896
  144.9573  140.7409  143.4750 H   0  0  0  0  0  0  0  0  0  0  0  0  # atno 7974 bound_to 7965
  154.7172  140.0514  157.0606 H   0  0  0  0  0  0  0  0  0  0  0  0  # atno 8008 bound_to 7997
  155.0475  140.3175  155.4684 H   0  0  0  0  0  0  0  0  0  0  0  0  # atno 8009 bound_to 7997
  156.2806  140.2121  156.5600 H   0  0  0  0  0  0  0  0  0  0  0  0  # atno 8010 bound_to 7997
  139.7471  144.6995  151.0488 H   0  0  0  0  0  0  0  0  0  0  0  0  # atno 10167 bound_to 10162
  157.2979  131.0865  151.1413 H   0  0  0  0  0  0  0  0  0  0  0  0  # atno 10718 bound_to 10713
  153.5453  135.3550  155.2736 H   0  0  0  0  0  0  0  0  0  0  0  0  # atno 10763 bound_to 10752
  154.8713  135.4101  154.2998 H   0  0  0  0  0  0  0  0  0  0  0  0  # atno 10764 bound_to 10752
  153.3713  135.7064  153.6704 H   0  0  0  0  0  0  0  0  0  0  0  0  # atno 10765 bound_to 10752
  141.1220  133.6613  156.4966 H   0  0  0  0  0  0  0  0  0  0  0  0  # atno 11005 bound_to 11000
  145.2753  139.1939  143.4820 LP  0  0  0  0  0  0  0  0  0  0  0  0  # atno 17320 bound_to 7965
  146.3341  140.2706  142.8605 LP  0  0  0  0  0  0  0  0  0  0  0  0  # atno 17321 bound_to 7965
  140.7793  143.4854  150.9963 LP  0  0  0  0  0  0  0  0  0  0  0  0  # atno 17342 bound_to 10162
  139.8542  143.7399  152.3177 LP  0  0  0  0  0  0  0  0  0  0  0  0  # atno 17343 bound_to 10162
  157.2784  130.6738  149.6053 LP  0  0  0  0  0  0  0  0  0  0  0  0  # atno 17370 bound_to 10713
  155.9670  130.4457  150.5513 LP  0  0  0  0  0  0  0  0  0  0  0  0  # atno 17371 bound_to 10713
  140.4480  134.6955  157.5025 LP  0  0  0  0  0  0  0  0  0  0  0  0  # atno 17394 bound_to 11000
  140.0185  134.6583  155.9275 LP  0  0  0  0  0  0  0  0  0  0  0  0  # atno 17395 bound_to 11000

$$$$
