AV-unprocessed.smi:284|AV-procd|sdf|2163|dock9
  -GOLD-   2262021523D 1   1.00000     0.00000
 Structure written by MMmdl.
 60 62  0  0  0  0  0  0  0  0  1 V2000
  160.6974  141.3757  162.9224 C   0  0  0  0  0  0  0  0  0  0  0  0
  159.5132  141.1245  163.8424 C   0  0  0  0  0  0  0  0  0  0  0  0
  159.4722  141.5995  165.1084 C   0  0  0  0  0  0  0  0  0  0  0  0
  158.4134  141.3872  165.9701 N   0  0  0  0  0  0  0  0  0  0  0  0
  158.4424  141.9428  167.3732 C   0  0  2  0  0  0  0  0  0  0  0  0
  157.2531  142.8624  167.6319 C   0  0  0  0  0  0  0  0  0  0  0  0
  157.8134  143.7176  168.7492 C   0  0  2  0  0  0  0  0  0  0  0  0
  157.1283  144.9475  168.8812 O   0  0  0  0  0  0  0  0  0  0  0  0
  159.3079  143.8253  168.3810 C   0  0  2  0  0  0  0  0  0  0  0  0
  159.7937  145.1134  167.6808 C   0  0  0  0  0  0  0  0  0  0  0  0
  160.6520  145.8887  168.4928 O   0  0  0  0  0  0  0  0  0  0  0  0
  159.5964  142.7100  167.5362 O   0  0  0  0  0  0  0  0  0  0  0  0
  157.2903  140.6574  165.5320 C   0  0  0  0  0  0  0  0  0  0  0  0
  156.3255  140.4682  166.2765 O   0  0  0  0  0  0  0  0  0  0  0  0
  157.2984  140.1520  164.2122 N   0  0  0  0  0  0  0  0  0  0  0  0
  156.1308  139.3680  163.7511 C   0  0  0  0  0  0  0  0  0  0  0  0
  155.4512  139.9533  162.5030 C   0  0  0  0  0  0  0  0  0  0  0  0
  155.4408  139.3218  161.4460 O   0  0  0  0  0  0  0  0  0  0  0  0
  154.9267  141.1818  162.6661 N   0  0  0  0  0  0  0  0  0  0  0  0
  154.2333  141.9969  161.7297 C   0  0  0  0  0  0  0  0  0  0  0  0
  153.9350  141.6039  160.4043 C   0  0  0  0  0  0  0  0  0  0  0  0
  153.2289  142.4687  159.5456 C   0  0  0  0  0  0  0  0  0  0  0  0
  152.7944  143.7423  159.9887 C   0  0  0  0  0  0  0  0  0  0  0  0
  152.0170  144.7130  159.0790 C   0  0  0  0  0  0  0  0  0  0  0  0
  152.7811  146.0493  158.9828 C   0  0  0  0  0  0  0  0  0  0  0  0
  150.5952  145.0203  159.6005 C   0  0  0  0  0  0  0  0  0  0  0  0
  151.8725  144.1054  157.6674 C   0  0  0  0  0  0  0  0  0  0  0  0
  153.0829  144.1163  161.3218 C   0  0  0  0  0  0  0  0  0  0  0  0
  153.7902  143.2550  162.1809 C   0  0  0  0  0  0  0  0  0  0  0  0
  158.3867  140.3438  163.3253 C   0  0  0  0  0  0  0  0  0  0  0  0
  158.3631  139.8664  162.1891 O   0  0  0  0  0  0  0  0  0  0  0  0
  161.4801  141.9519  163.4168 H   0  0  0  0  0  0  0  0  0  0  0  0
  160.3819  141.9308  162.0382 H   0  0  0  0  0  0  0  0  0  0  0  0
  161.1347  140.4313  162.5967 H   0  0  0  0  0  0  0  0  0  0  0  0
  160.3127  142.1767  165.4635 H   0  0  0  0  0  0  0  0  0  0  0  0
  158.4962  141.1071  168.0721 H   0  0  0  0  0  0  0  0  0  0  0  0
  157.0458  143.4586  166.7420 H   0  0  0  0  0  0  0  0  0  0  0  0
  156.3623  142.2963  167.9049 H   0  0  0  0  0  0  0  0  0  0  0  0
  157.7179  143.1702  169.6882 H   0  0  0  0  0  0  0  0  0  0  0  0
  157.3525  145.4981  168.1466 H   0  0  0  0  0  0  0  0  0  0  0  0
  159.8973  143.7042  169.2907 H   0  0  0  0  0  0  0  0  0  0  0  0
  160.3388  144.8545  166.7727 H   0  0  0  0  0  0  0  0  0  0  0  0
  158.9432  145.7223  167.3736 H   0  0  0  0  0  0  0  0  0  0  0  0
  161.2423  145.3075  168.9472 H   0  0  0  0  0  0  0  0  0  0  0  0
  156.4197  138.3355  163.5458 H   0  0  0  0  0  0  0  0  0  0  0  0
  155.3783  139.2763  164.5355 H   0  0  0  0  0  0  0  0  0  0  0  0
  155.0868  141.6069  163.5678 H   0  0  0  0  0  0  0  0  0  0  0  0
  154.2240  140.6378  160.0218 H   0  0  0  0  0  0  0  0  0  0  0  0
  153.0301  142.1205  158.5444 H   0  0  0  0  0  0  0  0  0  0  0  0
  152.2509  146.7648  158.3535 H   0  0  0  0  0  0  0  0  0  0  0  0
  153.7758  145.9225  158.5554 H   0  0  0  0  0  0  0  0  0  0  0  0
  152.9024  146.5055  159.9660 H   0  0  0  0  0  0  0  0  0  0  0  0
  150.6181  145.5023  160.5785 H   0  0  0  0  0  0  0  0  0  0  0  0
  149.9915  144.1153  159.6815 H   0  0  0  0  0  0  0  0  0  0  0  0
  150.0665  145.6967  158.9278 H   0  0  0  0  0  0  0  0  0  0  0  0
  151.3007  144.7616  157.0102 H   0  0  0  0  0  0  0  0  0  0  0  0
  151.3546  143.1463  157.7025 H   0  0  0  0  0  0  0  0  0  0  0  0
  152.8369  143.9407  157.1874 H   0  0  0  0  0  0  0  0  0  0  0  0
  152.7604  145.0738  161.7022 H   0  0  0  0  0  0  0  0  0  0  0  0
  153.9945  143.5696  163.1938 H   0  0  0  0  0  0  0  0  0  0  0  0
  1  2  1  0  0  0  0
  1 32  1  0  0  0  0
  1 33  1  0  0  0  0
  1 34  1  0  0  0  0
  2 30  1  0  0  0  0
  2  3  2  0  0  0  0
  3  4  1  0  0  0  0
  3 35  1  0  0  0  0
  4  5  1  0  0  0  0
  4 13  1  0  0  0  0
  5 12  1  0  0  0  0
  5  6  1  0  0  0  0
  5 36  1  0  0  0  0
  6  7  1  0  0  0  0
  6 37  1  0  0  0  0
  6 38  1  0  0  0  0
  7  8  1  0  0  0  0
  7  9  1  0  0  0  0
  7 39  1  0  0  0  0
  8 40  1  0  0  0  0
  9 10  1  0  0  0  0
  9 12  1  0  0  0  0
  9 41  1  0  0  0  0
 10 11  1  0  0  0  0
 10 42  1  0  0  0  0
 10 43  1  0  0  0  0
 11 44  1  0  0  0  0
 13 14  2  0  0  0  0
 13 15  1  0  0  0  0
 15 16  1  0  0  0  0
 15 30  1  0  0  0  0
 16 17  1  0  0  0  0
 16 45  1  0  0  0  0
 16 46  1  0  0  0  0
 17 18  2  0  0  0  0
 17 19  1  0  0  0  0
 19 20  1  0  0  0  0
 19 47  1  0  0  0  0
 20 29  1  0  0  0  0
 20 21  2  0  0  0  0
 21 22  1  0  0  0  0
 21 48  1  0  0  0  0
 22 23  2  0  0  0  0
 22 49  1  0  0  0  0
 23 24  1  0  0  0  0
 23 28  1  0  0  0  0
 24 25  1  0  0  0  0
 24 26  1  0  0  0  0
 24 27  1  0  0  0  0
 25 50  1  0  0  0  0
 25 51  1  0  0  0  0
 25 52  1  0  0  0  0
 26 53  1  0  0  0  0
 26 54  1  0  0  0  0
 26 55  1  0  0  0  0
 27 56  1  0  0  0  0
 27 57  1  0  0  0  0
 27 58  1  0  0  0  0
 28 29  2  0  0  0  0
 28 59  1  0  0  0  0
 29 60  1  0  0  0  0
 30 31  2  0  0  0  0
M  END
> <s_m_source_file>
AV-unprocessed.smi

> <i_m_source_file_index>
284

> <i_lp_mmshare_version>
43012

> <i_f3d_flags>
0

> <s_epik_input>
W09IXVtDSDJdW0NAQEhdKE8xKVtDQEhdKFtPSF0pW0NIMl1bQ0BIXTFuKFtjSF1jMltDSDNdKWMoPU8pbihjMj1PKVtDSDJdQyg9TylbTkhdYzNbY0hdW2NIXWMoQyhbQ0gzXSkoW0NIM10pW0NIM10pW2NIXVtjSF0z

> <s_epik_cmdline>
J2VwaWtfcHl0aG9uJywgJy1waCcsICc3LjAnLCAnLXRuJywgJzgnLCAnLW1hJywgJzIwMCcsICctbWV0YWxfYmluZGluZycsICctaW1hZScsICc8aW5maWxlLm1hZT4nLCAnLW9tYWUnLCAnPG91dGZpbGUubWFlPic=

> <r_lp_tautomer_probability>
1

> <r_epik_Ionization_Penalty>
4.92358e-06

> <r_epik_Ionization_Penalty_Charging>
1.29777e-07

> <r_epik_Ionization_Penalty_Neutral>
4.79381e-06

> <r_epik_State_Penalty>
-0

> <r_epik_Charging_Adjusted_Penalty>
1.29777e-07

> <i_epik_Tot_Q>
0

> <i_epik_Tot_abs_Q>
0

> <r_epik_Metal_State_Penalty>
-0

> <b_epik_Metal_Only>
0

> <s_epik_Chemistry_Notes>
This compound contains an acetal/aminal-like group ( X-CH(R)-Y where X, Y are N, S, or O) that may be acid/base labile, releasing an aldehyde.

> <s_lp_Force_Field>
OPLS_2005

> <r_lp_Energy>
44.8012

> <b_lp_Chiralities_Consistent>
1

> <s_lp_Variant>
AV-unprocessed.smi:284-7

> <Gold.Version>
5.8.1

> <Gold.Id.Protein>
6NUR|6NUR_protein|mol2

> <Gold.PLP.Fitness>
54.9001

> <Gold.PLP.PLP>
-56.4064

> <Gold.PLP.part.hbond>
-6.0912

> <Gold.PLP.part.metal>
0.0000

> <Gold.PLP.part.buried>
-6.0894

> <Gold.PLP.part.nonpolar>
-44.3497

> <Gold.PLP.part.repulsive>
0.0753

> <Gold.PLP.ligand.clash>
0.0000

> <Gold.PLP.ligand.torsion>
0.7807

> <Gold.PLP.Chemscore.Hbond>
0.0000

> <Gold.PLP.Chemscore.CHOScore>
0.0000

> <Gold.PLP.Chemscore.Metal>
0.0000

> <Gold.PLP.Chemscore.Internal.Correction>
0.0549

> <Gold.Rescore>
     Score         DG    S(hbond)    S(metal)    S(lipo)     H(rot)  DE(clash)    DE(int)     intcor
      4.53     -13.33       0.00        0.00     138.73       3.27       4.71       4.09       ----

> <Gold.Chemscore.Fitness>
4.5326

> <Gold.Chemscore.DG>
-13.3313

> <Gold.Chemscore.ZeroCoef>
-5.4800

> <Gold.Chemscore.Hbond>
0.0000

> <Gold.Chemscore.Metal>
0.0000

> <Gold.Chemscore.Lipo>
138.7297

> <Gold.Chemscore.Internal_Hbond>
0.0000

> <Gold.Chemscore.DEClash>
4.7107

> <Gold.Chemscore.DEInternal>
4.0880

> <Gold.Chemscore.Rot>
3.2735

> <Gold.Chemscore.Internal.Correction>
   9.000000E+99

> <Gold.Chemscore.Hbond.Weighted>
-0.0000

> <Gold.Chemscore.Metal.Weighted>
-0.0000

> <Gold.Chemscore.Lipo.Weighted>
-16.2314

> <Gold.Chemscore.Internal_Hbond.Weighted>
0.0000

> <Gold.Chemscore.DEClash.Weighted>
4.7107

> <Gold.Chemscore.DEInternal.Weighted>
4.0880

> <Gold.Chemscore.Rot.Weighted>
8.3801

> <Gold.Chemscore.Internal.Correction.Weighted>
   9.000000E+99

> <Gold.Protein.RotatedTorsions>
[ 6907 6896 6895 6894 ] final  -19.97 input  -60.11 | X-H torsion
[ 7974 7965 7964 7962 ] final  -50.98 input  175.53 | X-H torsion
[ 8008 7997 7996 7995 ] final   71.01 input   59.86 | X-H torsion
[ 10167 10162 10161 10158 ] final -142.33 input  -65.29 | X-H torsion
[ 10718 10713 10712 10709 ] final  109.39 input   66.30 | X-H torsion
[ 10763 10752 10751 10750 ] final -145.49 input  -60.55 | X-H torsion
[ 11005 11000 10999 10996 ] final  -65.09 input  -57.11 | X-H torsion

> <Gold.Protein.ActiveResidues>
 VAL166  LYS551  ARG553  GLY616  TRP617  ASP618  TYR619  PRO620  LYS621  CYS622 
 ASP623  PHE694  ASN695  SER759  ASP760  ASP761  ALA762  ILE779  LEU786  VAL792 
 PHE793  MET794  SER795  GLU796  ALA797  LYS798  CYS799  TRP800  GLU811  SER814 

> <Gold.Protein.RotatedAtoms>
  151.2552  135.0635  159.9076 H   0  0  0  0  0  0  0  0  0  0  0  0  # atno 6907 bound_to 6896
  152.5374  134.0289  159.8026 H   0  0  0  0  0  0  0  0  0  0  0  0  # atno 6908 bound_to 6896
  151.0504  133.5580  159.2674 H   0  0  0  0  0  0  0  0  0  0  0  0  # atno 6909 bound_to 6896
  145.9239  140.7809  142.9633 H   0  0  0  0  0  0  0  0  0  0  0  0  # atno 7974 bound_to 7965
  155.7474  140.3489  155.5134 H   0  0  0  0  0  0  0  0  0  0  0  0  # atno 8008 bound_to 7997
  155.9037  140.1038  157.1352 H   0  0  0  0  0  0  0  0  0  0  0  0  # atno 8009 bound_to 7997
  154.4047  140.1281  156.4455 H   0  0  0  0  0  0  0  0  0  0  0  0  # atno 8010 bound_to 7997
  139.8098  143.7718  152.2663 H   0  0  0  0  0  0  0  0  0  0  0  0  # atno 10167 bound_to 10162
  157.6543  131.0913  150.6446 H   0  0  0  0  0  0  0  0  0  0  0  0  # atno 10718 bound_to 10713
  154.8381  135.3412  154.6512 H   0  0  0  0  0  0  0  0  0  0  0  0  # atno 10763 bound_to 10752
  153.7126  135.6963  153.5038 H   0  0  0  0  0  0  0  0  0  0  0  0  # atno 10764 bound_to 10752
  153.2441  135.4375  155.0682 H   0  0  0  0  0  0  0  0  0  0  0  0  # atno 10765 bound_to 10752
  141.1444  133.6676  156.5933 H   0  0  0  0  0  0  0  0  0  0  0  0  # atno 11005 bound_to 11000
  144.6756  140.2019  143.7386 LP  0  0  0  0  0  0  0  0  0  0  0  0  # atno 17320 bound_to 7965
  145.8514  139.2177  143.1770 LP  0  0  0  0  0  0  0  0  0  0  0  0  # atno 17321 bound_to 7965
  139.7863  144.7426  151.0017 LP  0  0  0  0  0  0  0  0  0  0  0  0  # atno 17342 bound_to 10162
  140.7818  143.4488  151.0443 LP  0  0  0  0  0  0  0  0  0  0  0  0  # atno 17343 bound_to 10162
  156.6754  130.4552  149.5644 LP  0  0  0  0  0  0  0  0  0  0  0  0  # atno 17370 bound_to 10713
  156.1967  130.6594  151.1122 LP  0  0  0  0  0  0  0  0  0  0  0  0  # atno 17371 bound_to 10713
  140.3746  134.7576  157.4621 LP  0  0  0  0  0  0  0  0  0  0  0  0  # atno 17394 bound_to 11000
  140.0684  134.5897  155.8669 LP  0  0  0  0  0  0  0  0  0  0  0  0  # atno 17395 bound_to 11000

$$$$
