AV-unprocessed.smi:2282|AV-procd|sdf|9198|dock4
  -GOLD-   2272012413D 1   1.00000     0.00000
 Structure written by MMmdl.
 32 33  0  0  0  0  0  0  0  0  1 V2000
  152.0247  145.4101  159.9174 C   0  0  0  0  0  0  0  0  0  0  0  0
  152.2800  143.9232  159.7556 C   0  0  0  0  0  0  0  0  0  0  0  0
  152.7917  143.2960  160.8374 N   0  0  0  0  0  0  0  0  0  0  0  0
  153.0451  141.9745  160.7447 C   0  0  0  0  0  0  0  0  0  0  0  0
  152.7984  141.2180  159.5830 C   0  0  0  0  0  0  0  0  0  0  0  0
  152.2472  141.8692  158.4539 C   0  0  0  0  0  0  0  0  0  0  0  0
  151.9786  141.2072  157.2253 N   0  0  0  0  0  0  0  0  0  0  0  0
  152.3213  139.9632  156.8417 C   0  0  0  0  0  0  0  0  0  0  0  0
  152.9917  139.1871  157.5224 O   0  0  0  0  0  0  0  0  0  0  0  0
  151.8308  139.5184  155.4511 C   0  0  1  0  0  0  0  0  0  0  0  0
  150.8658  138.3153  155.4950 C   0  0  0  0  0  0  0  0  0  0  0  0
  149.5820  138.8380  154.8708 C   0  0  0  0  0  0  0  0  0  0  0  0
  149.7011  140.3460  155.0577 C   0  0  2  0  0  0  0  0  0  0  0  0
  148.8517  141.1730  154.0874 C   0  0  0  0  0  0  0  0  0  0  0  0
  151.0845  140.5665  154.8276 O   0  0  0  0  0  0  0  0  0  0  0  0
  151.9944  143.2581  158.5401 C   0  0  0  0  0  0  0  0  0  0  0  0
  151.3402  144.1239  157.1896 Cl  0  0  0  0  0  0  0  0  0  0  0  0
  150.9674  145.6317  159.7707 H   0  0  0  0  0  0  0  0  0  0  0  0
  152.6004  145.9754  159.1842 H   0  0  0  0  0  0  0  0  0  0  0  0
  152.3082  145.7605  160.9107 H   0  0  0  0  0  0  0  0  0  0  0  0
  153.4645  141.5051  161.6221 H   0  0  0  0  0  0  0  0  0  0  0  0
  153.0465  140.1679  159.5763 H   0  0  0  0  0  0  0  0  0  0  0  0
  151.3642  141.7018  156.5941 H   0  0  0  0  0  0  0  0  0  0  0  0
  152.7017  139.2961  154.8337 H   0  0  0  0  0  0  0  0  0  0  0  0
  151.2562  137.4599  154.9425 H   0  0  0  0  0  0  0  0  0  0  0  0
  150.6693  137.9800  156.5146 H   0  0  0  0  0  0  0  0  0  0  0  0
  149.5636  138.5898  153.8088 H   0  0  0  0  0  0  0  0  0  0  0  0
  148.6848  138.4231  155.3307 H   0  0  0  0  0  0  0  0  0  0  0  0
  149.4628  140.6162  156.0880 H   0  0  0  0  0  0  0  0  0  0  0  0
  147.7892  140.9777  154.2342 H   0  0  0  0  0  0  0  0  0  0  0  0
  149.0958  140.9410  153.0503 H   0  0  0  0  0  0  0  0  0  0  0  0
  149.0187  142.2397  154.2387 H   0  0  0  0  0  0  0  0  0  0  0  0
  1  2  1  0  0  0  0
  1 18  1  0  0  0  0
  1 19  1  0  0  0  0
  1 20  1  0  0  0  0
  2 16  1  0  0  0  0
  2  3  2  0  0  0  0
  3  4  1  0  0  0  0
  4  5  2  0  0  0  0
  4 21  1  0  0  0  0
  5  6  1  0  0  0  0
  5 22  1  0  0  0  0
  6  7  1  0  0  0  0
  6 16  2  0  0  0  0
  7  8  1  0  0  0  0
  7 23  1  0  0  0  0
  8  9  2  0  0  0  0
  8 10  1  0  0  0  0
 10 15  1  0  0  0  0
 10 11  1  0  0  0  0
 10 24  1  0  0  0  0
 11 12  1  0  0  0  0
 11 25  1  0  0  0  0
 11 26  1  0  0  0  0
 12 13  1  0  0  0  0
 12 27  1  0  0  0  0
 12 28  1  0  0  0  0
 13 14  1  0  0  0  0
 13 15  1  0  0  0  0
 13 29  1  0  0  0  0
 14 30  1  0  0  0  0
 14 31  1  0  0  0  0
 14 32  1  0  0  0  0
 16 17  1  0  0  0  0
M  END
> <s_m_source_file>
AV-unprocessed.smi

> <i_m_source_file_index>
2282

> <i_lp_mmshare_version>
43012

> <i_f3d_flags>
0

> <s_epik_input>
W0NIM11jMW5bY0hdW2NIXWMoYzFDbClbTkhdQyg9TylbQ0BASF0yW0NIMl1bQ0gyXVtDQEhdKE8yKVtDSDNd

> <s_epik_cmdline>
J2VwaWtfcHl0aG9uJywgJy1waCcsICc3LjAnLCAnLXRuJywgJzgnLCAnLW1hJywgJzIwMCcsICctbWV0YWxfYmluZGluZycsICctaW1hZScsICc8aW5maWxlLm1hZT4nLCAnLW9tYWUnLCAnPG91dGZpbGUubWFlPic=

> <r_epik_Ionization_Penalty>
0.00037231

> <r_epik_Ionization_Penalty_Charging>
0

> <r_epik_Ionization_Penalty_Neutral>
0.00037231

> <r_epik_State_Penalty>
0.000225113

> <r_epik_Charging_Adjusted_Penalty>
0.000225113

> <i_epik_Tot_Q>
0

> <i_epik_Tot_abs_Q>
0

> <r_epik_Metal_State_Penalty>
-0

> <b_epik_Metal_Only>
0

> <s_lp_Force_Field>
OPLS_2005

> <r_lp_Energy>
23.9576

> <b_lp_Chiralities_Consistent>
1

> <s_lp_Variant>
AV-unprocessed.smi:2282-4

> <Gold.Version>
5.8.1

> <Gold.Id.Protein>
6NUR|6NUR_protein|mol2

> <Gold.PLP.Fitness>
40.3041

> <Gold.PLP.PLP>
-34.6800

> <Gold.PLP.part.hbond>
-1.8502

> <Gold.PLP.part.metal>
0.0000

> <Gold.PLP.part.buried>
1.1757

> <Gold.PLP.part.nonpolar>
-33.7951

> <Gold.PLP.part.repulsive>
0.2359

> <Gold.PLP.ligand.clash>
0.0000

> <Gold.PLP.ligand.torsion>
0.0309

> <Gold.PLP.Chemscore.Hbond>
1.8928

> <Gold.PLP.Chemscore.CHOScore>
0.0000

> <Gold.PLP.Chemscore.Metal>
0.0000

> <Gold.Chemscore.Hbonds>
donor molecule, donor type, donor heavy atom, donor atom, acceptor molecule, acceptor atom, score
      P1  H  7989  7998       L1    15  0.84
      P1  H  7997  8008       L1     9  0.70

> <Gold.PLP.Chemscore.Internal.Correction>
0.0074

> <Gold.Rescore>
     Score         DG    S(hbond)    S(metal)    S(lipo)     H(rot)  DE(clash)    DE(int)     intcor
     16.87     -18.81       0.98        0.00     107.94       1.00       0.65       1.29       ----

> <Gold.Chemscore.Fitness>
16.8692

> <Gold.Chemscore.DG>
-18.8090

> <Gold.Chemscore.ZeroCoef>
-5.4800

> <Gold.Chemscore.Hbond>
0.9762

> <Gold.Chemscore.Metal>
0.0000

> <Gold.Chemscore.Lipo>
107.9350

> <Gold.Chemscore.Internal_Hbond>
0.0000

> <Gold.Chemscore.DEClash>
0.6502

> <Gold.Chemscore.DEInternal>
1.2895

> <Gold.Chemscore.Rot>
1.0000

> <Gold.Chemscore.Internal.Correction>
   9.000000E+99

> <Gold.Chemscore.Hbonds>
donor molecule, donor type, donor heavy atom, donor atom, acceptor molecule, acceptor atom, score
      P1  H  7989  7998       L1    15  0.60
      P1  H  7997  8008       L1     9  0.07

> <Gold.Chemscore.Hbond.Weighted>
-3.2606

> <Gold.Chemscore.Metal.Weighted>
-0.0000

> <Gold.Chemscore.Lipo.Weighted>
-12.6284

> <Gold.Chemscore.Internal_Hbond.Weighted>
0.0000

> <Gold.Chemscore.DEClash.Weighted>
0.6502

> <Gold.Chemscore.DEInternal.Weighted>
1.2895

> <Gold.Chemscore.Rot.Weighted>
2.5600

> <Gold.Chemscore.Internal.Correction.Weighted>
   9.000000E+99

> <Gold.Protein.RotatedTorsions>
[ 6907 6896 6895 6894 ] final  135.39 input  -60.11 | X-H torsion
[ 7974 7965 7964 7962 ] final  -35.89 input  175.53 | X-H torsion
[ 8008 7997 7996 7995 ] final  -93.16 input   59.86 | X-H torsion
[ 10167 10162 10161 10158 ] final    9.49 input  -65.29 | X-H torsion
[ 10718 10713 10712 10709 ] final    4.39 input   66.30 | X-H torsion
[ 10763 10752 10751 10750 ] final  169.63 input  -60.55 | X-H torsion
[ 11005 11000 10999 10996 ] final  132.14 input  -57.11 | X-H torsion

> <Gold.Protein.ActiveResidues>
 VAL166  LYS551  ARG553  GLY616  TRP617  ASP618  TYR619  PRO620  LYS621  CYS622 
 ASP623  PHE694  ASN695  SER759  ASP760  ASP761  ALA762  ILE779  LEU786  VAL792 
 PHE793  MET794  SER795  GLU796  ALA797  LYS798  CYS799  TRP800  GLU811  SER814 

> <Gold.Protein.RotatedAtoms>
  152.3010  133.5655  159.5617 H   0  0  0  0  0  0  0  0  0  0  0  0  # atno 6907 bound_to 6896
  150.7277  134.0292  159.3736 H   0  0  0  0  0  0  0  0  0  0  0  0  # atno 6908 bound_to 6896
  151.8192  135.0657  160.0473 H   0  0  0  0  0  0  0  0  0  0  0  0  # atno 6909 bound_to 6896
  146.0708  140.6213  142.8953 H   0  0  0  0  0  0  0  0  0  0  0  0  # atno 7974 bound_to 7965
  154.7321  140.0501  157.0736 H   0  0  0  0  0  0  0  0  0  0  0  0  # atno 8008 bound_to 7997
  155.0288  140.3155  155.4747 H   0  0  0  0  0  0  0  0  0  0  0  0  # atno 8009 bound_to 7997
  156.2844  140.2154  156.5408 H   0  0  0  0  0  0  0  0  0  0  0  0  # atno 8010 bound_to 7997
  140.6251  143.8118  150.7224 H   0  0  0  0  0  0  0  0  0  0  0  0  # atno 10167 bound_to 10162
  156.8919  130.5690  149.5649 H   0  0  0  0  0  0  0  0  0  0  0  0  # atno 10718 bound_to 10713
  154.3859  135.2753  155.2184 H   0  0  0  0  0  0  0  0  0  0  0  0  # atno 10763 bound_to 10752
  154.4271  135.5986  153.6049 H   0  0  0  0  0  0  0  0  0  0  0  0  # atno 10764 bound_to 10752
  152.9833  135.5986  154.4107 H   0  0  0  0  0  0  0  0  0  0  0  0  # atno 10765 bound_to 10752
  139.9772  134.9559  156.9540 H   0  0  0  0  0  0  0  0  0  0  0  0  # atno 11005 bound_to 11000
  144.7231  140.4437  143.6993 LP  0  0  0  0  0  0  0  0  0  0  0  0  # atno 17320 bound_to 7965
  145.6394  139.1548  143.2924 LP  0  0  0  0  0  0  0  0  0  0  0  0  # atno 17321 bound_to 7965
  140.1717  143.4189  152.1996 LP  0  0  0  0  0  0  0  0  0  0  0  0  # atno 17342 bound_to 10162
  139.5473  144.7309  151.4543 LP  0  0  0  0  0  0  0  0  0  0  0  0  # atno 17343 bound_to 10162
  156.0624  130.5674  150.9221 LP  0  0  0  0  0  0  0  0  0  0  0  0  # atno 17370 bound_to 10713
  157.6078  131.0938  150.8848 LP  0  0  0  0  0  0  0  0  0  0  0  0  # atno 17371 bound_to 10713
  140.5170  134.0945  155.7283 LP  0  0  0  0  0  0  0  0  0  0  0  0  # atno 17394 bound_to 11000
  141.1448  133.9074  157.2241 LP  0  0  0  0  0  0  0  0  0  0  0  0  # atno 17395 bound_to 11000

$$$$
