AV-unprocessed.smi:3253|AV-procd|sdf|12452|dock6
  -GOLD-   2272018343D 1   1.00000     0.00000
 Structure written by MMmdl.
 36 37  0  0  0  0  0  0  0  0  1 V2000
  147.9606  141.8485  156.5289 C   0  0  0  0  0  0  0  0  0  0  0  0
  149.3309  141.1654  156.4278 C   0  0  1  0  0  0  0  0  0  0  0  0
  149.6443  140.7446  154.9757 C   0  0  0  0  0  0  0  0  0  0  0  0
  150.5955  139.6502  154.9002 N   0  0  0  0  0  0  0  0  0  0  0  0
  150.5562  138.5642  154.0350 C   0  0  0  0  0  0  0  0  0  0  0  0
  151.6646  137.7977  154.3155 C   0  0  0  0  0  0  0  0  0  0  0  0
  152.3909  138.3848  155.3487 N   0  0  0  0  0  0  0  0  0  0  0  0
  151.6959  139.4756  155.6448 C   0  0  0  0  0  0  0  0  0  0  0  0
  150.3565  142.0761  156.9355 N   0  0  0  0  0  0  0  0  0  0  0  0
  151.0904  141.8867  158.0437 C   0  0  0  0  0  0  0  0  0  0  0  0
  150.9405  140.9263  158.7999 O   0  0  0  0  0  0  0  0  0  0  0  0
  152.1838  142.9278  158.3263 C   0  0  1  0  0  0  0  0  0  0  0  0
  151.6414  144.3689  158.2331 C   0  0  0  0  0  0  0  0  0  0  0  0
  151.6763  144.8665  159.6690 C   0  0  0  0  0  0  0  0  0  0  0  0
  151.2112  145.9527  160.0113 O   0  0  0  0  0  0  0  0  0  0  0  0
  152.2581  143.9705  160.4710 N   0  0  0  0  0  0  0  0  0  0  0  0
  152.4393  144.1045  161.9098 C   0  0  0  0  0  0  0  0  0  0  0  0
  152.7421  142.7999  159.7603 C   0  0  0  0  0  0  0  0  0  0  0  0
  147.1673  141.1884  156.1771 H   0  0  0  0  0  0  0  0  0  0  0  0
  147.9245  142.7596  155.9308 H   0  0  0  0  0  0  0  0  0  0  0  0
  147.7309  142.1169  157.5606 H   0  0  0  0  0  0  0  0  0  0  0  0
  149.2885  140.2689  157.0491 H   0  0  0  0  0  0  0  0  0  0  0  0
  148.7302  140.4283  154.4715 H   0  0  0  0  0  0  0  0  0  0  0  0
  150.0371  141.5895  154.4083 H   0  0  0  0  0  0  0  0  0  0  0  0
  149.7704  138.4352  153.3056 H   0  0  0  0  0  0  0  0  0  0  0  0
  151.9925  136.8766  153.8571 H   0  0  0  0  0  0  0  0  0  0  0  0
  151.9993  140.1692  156.4152 H   0  0  0  0  0  0  0  0  0  0  0  0
  150.5508  142.8946  156.3771 H   0  0  0  0  0  0  0  0  0  0  0  0
  152.9941  142.7951  157.6071 H   0  0  0  0  0  0  0  0  0  0  0  0
  152.2901  144.9932  157.6182 H   0  0  0  0  0  0  0  0  0  0  0  0
  150.6301  144.4341  157.8283 H   0  0  0  0  0  0  0  0  0  0  0  0
  152.9496  145.0380  162.1490 H   0  0  0  0  0  0  0  0  0  0  0  0
  153.0346  143.2827  162.3090 H   0  0  0  0  0  0  0  0  0  0  0  0
  151.4732  144.1003  162.4156 H   0  0  0  0  0  0  0  0  0  0  0  0
  152.4217  141.8863  160.2650 H   0  0  0  0  0  0  0  0  0  0  0  0
  153.8329  142.8067  159.7535 H   0  0  0  0  0  0  0  0  0  0  0  0
  1  2  1  0  0  0  0
  1 19  1  0  0  0  0
  1 20  1  0  0  0  0
  1 21  1  0  0  0  0
  2  3  1  0  0  0  0
  2  9  1  0  0  0  0
  2 22  1  0  0  0  0
  3  4  1  0  0  0  0
  3 23  1  0  0  0  0
  3 24  1  0  0  0  0
  4  8  1  0  0  0  0
  4  5  1  0  0  0  0
  5  6  2  0  0  0  0
  5 25  1  0  0  0  0
  6  7  1  0  0  0  0
  6 26  1  0  0  0  0
  7  8  2  0  0  0  0
  8 27  1  0  0  0  0
  9 10  1  0  0  0  0
  9 28  1  0  0  0  0
 10 11  2  0  0  0  0
 10 12  1  0  0  0  0
 12 18  1  0  0  0  0
 12 13  1  0  0  0  0
 12 29  1  0  0  0  0
 13 14  1  0  0  0  0
 13 30  1  0  0  0  0
 13 31  1  0  0  0  0
 14 15  2  0  0  0  0
 14 16  1  0  0  0  0
 16 17  1  0  0  0  0
 16 18  1  0  0  0  0
 17 32  1  0  0  0  0
 17 33  1  0  0  0  0
 17 34  1  0  0  0  0
 18 35  1  0  0  0  0
 18 36  1  0  0  0  0
M  END
> <s_m_source_file>
AV-unprocessed.smi

> <i_m_source_file_index>
3253

> <i_lp_mmshare_version>
43012

> <i_f3d_flags>
0

> <s_epik_input>
W2NIXTFuW2NIXVtjSF1uMVtDSDJdW0NAQEhdKFtDSDNdKVtOSF1DKD1PKVtDQEBIXTJbQ0gyXUMoPU8pTihbQ0gzXSlbQ0gyXTI=

> <s_epik_cmdline>
J2VwaWtfcHl0aG9uJywgJy1waCcsICc3LjAnLCAnLXRuJywgJzgnLCAnLW1hJywgJzIwMCcsICctbWV0YWxfYmluZGluZycsICctaW1hZScsICc8aW5maWxlLm1hZT4nLCAnLW9tYWUnLCAnPG91dGZpbGUubWFlPic=

> <r_lp_tautomer_probability>
1

> <r_epik_Ionization_Penalty>
0.628884

> <r_epik_Ionization_Penalty_Charging>
0.628884

> <r_epik_Ionization_Penalty_Neutral>
2.35084e-08

> <r_epik_State_Penalty>
0.64556

> <r_epik_Charging_Adjusted_Penalty>
1.27444

> <i_epik_Tot_Q>
0

> <i_epik_Tot_abs_Q>
0

> <r_epik_Metal_State_Penalty>
0.308736

> <b_epik_Metal_Only>
0

> <s_lp_Force_Field>
OPLS_2005

> <r_lp_Energy>
12.6198

> <b_lp_Chiralities_Consistent>
1

> <s_lp_Variant>
AV-unprocessed.smi:3253-8

> <Gold.Version>
5.8.1

> <Gold.Id.Protein>
6NUR|6NUR_protein|mol2

> <Gold.PLP.Fitness>
47.7136

> <Gold.PLP.PLP>
-42.6086

> <Gold.PLP.part.hbond>
-2.1081

> <Gold.PLP.part.metal>
0.0000

> <Gold.PLP.part.buried>
-3.5154

> <Gold.PLP.part.nonpolar>
-36.2420

> <Gold.PLP.part.repulsive>
0.2785

> <Gold.PLP.ligand.clash>
0.0000

> <Gold.PLP.ligand.torsion>
0.8218

> <Gold.PLP.Chemscore.Hbond>
0.0000

> <Gold.PLP.Chemscore.CHOScore>
2.2391

> <Gold.PLP.Chemscore.Metal>
0.0000

> <Gold.Chemscore.Hbonds>
donor molecule, donor type, donor heavy atom, donor atom, acceptor molecule, acceptor atom, score
      L1  C     5    25       P1  7948  0.53
      L1  C     5    25       P1  7957  0.54
      L1  C     6    26       P1  7949  0.62

> <Gold.PLP.Chemscore.Internal.Correction>
0.0312

> <Gold.Rescore>
     Score         DG    S(hbond)    S(metal)    S(lipo)     H(rot)  DE(clash)    DE(int)     intcor
      8.79      -9.63       0.00        0.00      78.51       1.97       0.00       0.83       ----

> <Gold.Chemscore.Fitness>
8.7940

> <Gold.Chemscore.DG>
-9.6308

> <Gold.Chemscore.ZeroCoef>
-5.4800

> <Gold.Chemscore.Hbond>
0.0000

> <Gold.Chemscore.Metal>
0.0000

> <Gold.Chemscore.Lipo>
78.5125

> <Gold.Chemscore.Internal_Hbond>
0.0000

> <Gold.Chemscore.DEClash>
0.0042

> <Gold.Chemscore.DEInternal>
0.8326

> <Gold.Chemscore.Rot>
1.9669

> <Gold.Chemscore.Internal.Correction>
   9.000000E+99

> <Gold.Chemscore.Hbond.Weighted>
-0.0000

> <Gold.Chemscore.Metal.Weighted>
-0.0000

> <Gold.Chemscore.Lipo.Weighted>
-9.1860

> <Gold.Chemscore.Internal_Hbond.Weighted>
0.0000

> <Gold.Chemscore.DEClash.Weighted>
0.0042

> <Gold.Chemscore.DEInternal.Weighted>
0.8326

> <Gold.Chemscore.Rot.Weighted>
5.0352

> <Gold.Chemscore.Internal.Correction.Weighted>
   9.000000E+99

> <Gold.Protein.RotatedTorsions>
[ 6907 6896 6895 6894 ] final  153.16 input  -60.11 | X-H torsion
[ 7974 7965 7964 7962 ] final   17.24 input  175.53 | X-H torsion
[ 8008 7997 7996 7995 ] final   96.50 input   59.86 | X-H torsion
[ 10167 10162 10161 10158 ] final  150.97 input  -65.29 | X-H torsion
[ 10718 10713 10712 10709 ] final    6.44 input   66.30 | X-H torsion
[ 10763 10752 10751 10750 ] final  166.33 input  -60.55 | X-H torsion
[ 11005 11000 10999 10996 ] final  169.97 input  -57.11 | X-H torsion

> <Gold.Protein.ActiveResidues>
 VAL166  LYS551  ARG553  GLY616  TRP617  ASP618  TYR619  PRO620  LYS621  CYS622 
 ASP623  PHE694  ASN695  SER759  ASP760  ASP761  ALA762  ILE779  LEU786  VAL792 
 PHE793  MET794  SER795  GLU796  ALA797  LYS798  CYS799  TRP800  GLU811  SER814 

> <Gold.Protein.RotatedAtoms>
  152.0765  133.4132  159.4482 H   0  0  0  0  0  0  0  0  0  0  0  0  # atno 6907 bound_to 6896
  150.6862  134.3031  159.4724 H   0  0  0  0  0  0  0  0  0  0  0  0  # atno 6908 bound_to 6896
  152.0868  134.9433  160.0623 H   0  0  0  0  0  0  0  0  0  0  0  0  # atno 6909 bound_to 6896
  146.2224  139.8630  142.8601 H   0  0  0  0  0  0  0  0  0  0  0  0  # atno 7974 bound_to 7965
  156.0802  140.3272  155.7684 H   0  0  0  0  0  0  0  0  0  0  0  0  # atno 8008 bound_to 7997
  155.5165  140.0581  157.2932 H   0  0  0  0  0  0  0  0  0  0  0  0  # atno 8009 bound_to 7997
  154.4578  140.1951  156.0347 H   0  0  0  0  0  0  0  0  0  0  0  0  # atno 8010 bound_to 7997
  139.4845  144.5479  151.7452 H   0  0  0  0  0  0  0  0  0  0  0  0  # atno 10167 bound_to 10162
  156.9222  130.5795  149.5648 H   0  0  0  0  0  0  0  0  0  0  0  0  # atno 10718 bound_to 10713
  154.3373  135.2754  155.2441 H   0  0  0  0  0  0  0  0  0  0  0  0  # atno 10763 bound_to 10752
  154.4726  135.5879  153.6336 H   0  0  0  0  0  0  0  0  0  0  0  0  # atno 10764 bound_to 10752
  152.9861  135.6092  154.3571 H   0  0  0  0  0  0  0  0  0  0  0  0  # atno 10765 bound_to 10752
  140.3034  134.7577  157.3934 H   0  0  0  0  0  0  0  0  0  0  0  0  # atno 11005 bound_to 11000
  145.2685  141.0101  143.3785 LP  0  0  0  0  0  0  0  0  0  0  0  0  # atno 17320 bound_to 7965
  144.9242  139.4375  143.6526 LP  0  0  0  0  0  0  0  0  0  0  0  0  # atno 17321 bound_to 7965
  140.5028  144.1143  150.5975 LP  0  0  0  0  0  0  0  0  0  0  0  0  # atno 17342 bound_to 10162
  140.4042  143.2688  151.9911 LP  0  0  0  0  0  0  0  0  0  0  0  0  # atno 17343 bound_to 10162
  156.0486  130.5559  150.8937 LP  0  0  0  0  0  0  0  0  0  0  0  0  # atno 17370 bound_to 10713
  157.5901  131.0944  150.9133 LP  0  0  0  0  0  0  0  0  0  0  0  0  # atno 17371 bound_to 10713
  140.1089  134.5372  155.8284 LP  0  0  0  0  0  0  0  0  0  0  0  0  # atno 17394 bound_to 11000
  141.2123  133.6718  156.6651 LP  0  0  0  0  0  0  0  0  0  0  0  0  # atno 17395 bound_to 11000

$$$$
