AV-unprocessed.smi:1510|AV-procd|sdf|6096|dock1
  -GOLD-   22720 6223D 1   1.00000     0.00000
 Structure written by MMmdl.
 33 34  0  0  0  0  0  0  0  0  1 V2000
  150.4441  136.2014  158.5747 O   0  0  0  0  0  0  0  0  0  0  0  0
  149.9011  137.2583  158.8990 C   0  0  0  0  0  0  0  0  0  0  0  0
  148.4358  137.2734  159.3544 C   0  0  0  0  0  0  0  0  0  0  0  0
  148.0416  136.0343  160.0391 N   0  0  0  0  0  0  0  0  0  0  0  0
  148.1500  134.8936  159.2580 N   0  0  0  0  0  0  0  0  0  0  0  0
  147.8446  133.7423  159.7537 C   0  0  0  0  0  0  0  0  0  0  0  0
  147.9716  132.6378  158.9478 O   0  0  0  0  0  0  0  0  0  0  0  0
  147.3811  133.6131  161.1178 C   0  0  0  0  0  0  0  0  0  0  0  0
  147.2754  134.7306  161.8697 C   0  0  0  0  0  0  0  0  0  0  0  0
  147.6168  136.0520  161.3402 C   0  0  0  0  0  0  0  0  0  0  0  0
  147.5319  137.0864  162.0023 O   0  0  0  0  0  0  0  0  0  0  0  0
  150.5235  138.4460  158.8667 N   0  0  0  0  0  0  0  0  0  0  0  0
  151.9201  138.6526  158.5002 C   0  0  0  0  0  0  0  0  0  0  0  0
  152.7237  139.3234  159.6291 C   0  0  2  0  0  0  0  0  0  0  0  0
  152.3364  140.7714  159.9228 C   0  0  0  0  0  0  0  0  0  0  0  0
  153.5850  141.3325  160.5820 C   0  0  0  0  0  0  0  0  0  0  0  0
  154.6972  140.3660  160.1599 C   0  0  0  0  0  0  0  0  0  0  0  0
  154.0883  139.4447  159.2639 O   0  0  0  0  0  0  0  0  0  0  0  0
  147.1163  132.5045  158.5690 H   0  0  0  0  0  0  0  0  0  0  0  0
  148.2538  138.1303  160.0061 H   0  0  0  0  0  0  0  0  0  0  0  0
  147.8112  137.4370  158.4745 H   0  0  0  0  0  0  0  0  0  0  0  0
  147.1278  132.6416  161.5162 H   0  0  0  0  0  0  0  0  0  0  0  0
  146.9306  134.6490  162.8900 H   0  0  0  0  0  0  0  0  0  0  0  0
  149.9993  139.2639  159.1420 H   0  0  0  0  0  0  0  0  0  0  0  0
  152.3777  137.7017  158.2229 H   0  0  0  0  0  0  0  0  0  0  0  0
  151.9427  139.2784  157.6077 H   0  0  0  0  0  0  0  0  0  0  0  0
  152.6627  138.7319  160.5445 H   0  0  0  0  0  0  0  0  0  0  0  0
  152.1411  141.3054  158.9920 H   0  0  0  0  0  0  0  0  0  0  0  0
  151.4497  140.8530  160.5524 H   0  0  0  0  0  0  0  0  0  0  0  0
  153.7817  142.3543  160.2564 H   0  0  0  0  0  0  0  0  0  0  0  0
  153.4830  141.3400  161.6676 H   0  0  0  0  0  0  0  0  0  0  0  0
  155.5315  140.8760  159.6778 H   0  0  0  0  0  0  0  0  0  0  0  0
  155.0841  139.8254  161.0246 H   0  0  0  0  0  0  0  0  0  0  0  0
  1  2  2  0  0  0  0
  2  3  1  0  0  0  0
  2 12  1  0  0  0  0
  3 20  1  0  0  0  0
  3 21  1  0  0  0  0
  3  4  1  0  0  0  0
  4  5  1  0  0  0  0
  4 10  1  0  0  0  0
  5  6  2  0  0  0  0
  6  7  1  0  0  0  0
  6  8  1  0  0  0  0
  7 19  1  0  0  0  0
  8 22  1  0  0  0  0
  8  9  2  0  0  0  0
  9 23  1  0  0  0  0
  9 10  1  0  0  0  0
 10 11  2  0  0  0  0
 12 13  1  0  0  0  0
 12 24  1  0  0  0  0
 13 14  1  0  0  0  0
 13 25  1  0  0  0  0
 13 26  1  0  0  0  0
 14 18  1  0  0  0  0
 14 15  1  0  0  0  0
 14 27  1  0  0  0  0
 15 16  1  0  0  0  0
 15 28  1  0  0  0  0
 15 29  1  0  0  0  0
 16 17  1  0  0  0  0
 16 30  1  0  0  0  0
 16 31  1  0  0  0  0
 17 18  1  0  0  0  0
 17 32  1  0  0  0  0
 17 33  1  0  0  0  0
M  END
> <s_m_source_file>
AV-unprocessed.smi

> <i_m_source_file_index>
1510

> <i_lp_mmshare_version>
43012

> <i_f3d_flags>
0

> <s_epik_input>
TzFbQ0gyXVtDSDJdW0NIMl1bQ0BIXTFbQ0gyXVtOSF1DKD1PKVtDSDJdbjJbbkhdYyg9TylbY0hdW2NIXWMyPU8=

> <s_epik_cmdline>
J2VwaWtfcHl0aG9uJywgJy1waCcsICc3LjAnLCAnLXRuJywgJzgnLCAnLW1hJywgJzIwMCcsICctbWV0YWxfYmluZGluZycsICctaW1hZScsICc8aW5maWxlLm1hZT4nLCAnLW9tYWUnLCAnPG91dGZpbGUubWFlPic=

> <r_lp_tautomer_probability>
0.9996

> <r_epik_Ionization_Penalty>
2.13037

> <r_epik_Ionization_Penalty_Charging>
3.76e-08

> <r_epik_Ionization_Penalty_Neutral>
2.13037

> <r_epik_State_Penalty>
1.70753

> <r_epik_Charging_Adjusted_Penalty>
1.70753

> <i_epik_Tot_Q>
0

> <i_epik_Tot_abs_Q>
0

> <r_epik_Metal_State_Penalty>
1.70753

> <b_epik_Metal_Only>
0

> <s_lp_Force_Field>
OPLS_2005

> <r_lp_Energy>
28.2415

> <b_lp_Chiralities_Consistent>
1

> <s_lp_Variant>
AV-unprocessed.smi:1510-3

> <Gold.Version>
5.8.1

> <Gold.Id.Protein>
6NUR|6NUR_protein|mol2

> <Gold.PLP.Fitness>
41.7760

> <Gold.PLP.PLP>
-31.7509

> <Gold.PLP.part.hbond>
-4.2762

> <Gold.PLP.part.metal>
0.0000

> <Gold.PLP.part.buried>
-4.5169

> <Gold.PLP.part.nonpolar>
-23.0905

> <Gold.PLP.part.repulsive>
0.1647

> <Gold.PLP.ligand.clash>
0.0000

> <Gold.PLP.ligand.torsion>
0.3944

> <Gold.PLP.Chemscore.Hbond>
3.5920

> <Gold.PLP.Chemscore.CHOScore>
0.0000

> <Gold.PLP.Chemscore.Metal>
0.0000

> <Gold.Chemscore.Hbonds>
donor molecule, donor type, donor heavy atom, donor atom, acceptor molecule, acceptor atom, score
      P1  H  6896  6909       L1     1  0.94
      P1  H  6931  6943       L1    11  0.99
      P1  H  6934  6947       L1    11  0.35
      P1  H  7997  8009       L1    18  0.49

> <Gold.PLP.Chemscore.Internal.Correction>
0.0380

> <Gold.Rescore>
     Score         DG    S(hbond)    S(metal)    S(lipo)     H(rot)  DE(clash)    DE(int)     intcor
     13.95     -15.89       3.35        0.00      52.35       2.69       0.05       1.88       ----

> <Gold.Chemscore.Fitness>
13.9489

> <Gold.Chemscore.DG>
-15.8868

> <Gold.Chemscore.ZeroCoef>
-5.4800

> <Gold.Chemscore.Hbond>
3.3465

> <Gold.Chemscore.Metal>
0.0000

> <Gold.Chemscore.Lipo>
52.3529

> <Gold.Chemscore.Internal_Hbond>
0.0000

> <Gold.Chemscore.DEClash>
0.0529

> <Gold.Chemscore.DEInternal>
1.8850

> <Gold.Chemscore.Rot>
2.6937

> <Gold.Chemscore.Internal.Correction>
   9.000000E+99

> <Gold.Chemscore.Hbonds>
donor molecule, donor type, donor heavy atom, donor atom, acceptor molecule, acceptor atom, score
      P1  H  6896  6909       L1     1  0.91
      P1  H  6931  6943       L1    11  0.86
      P1  H  6934  6947       L1    11  0.34
      P1  H  7997  8009       L1    18  0.22

> <Gold.Chemscore.Hbond.Weighted>
-11.1775

> <Gold.Chemscore.Metal.Weighted>
-0.0000

> <Gold.Chemscore.Lipo.Weighted>
-6.1253

> <Gold.Chemscore.Internal_Hbond.Weighted>
0.0000

> <Gold.Chemscore.DEClash.Weighted>
0.0529

> <Gold.Chemscore.DEInternal.Weighted>
1.8850

> <Gold.Chemscore.Rot.Weighted>
6.8959

> <Gold.Chemscore.Internal.Correction.Weighted>
   9.000000E+99

> <Gold.Protein.RotatedTorsions>
[ 6907 6896 6895 6894 ] final   73.82 input  -60.11 | X-H torsion
[ 7974 7965 7964 7962 ] final  -99.96 input  175.53 | X-H torsion
[ 8008 7997 7996 7995 ] final  133.66 input   59.86 | X-H torsion
[ 10167 10162 10161 10158 ] final   59.64 input  -65.29 | X-H torsion
[ 10718 10713 10712 10709 ] final   49.69 input   66.30 | X-H torsion
[ 10763 10752 10751 10750 ] final  -50.39 input  -60.55 | X-H torsion
[ 11005 11000 10999 10996 ] final   47.00 input  -57.11 | X-H torsion

> <Gold.Protein.ActiveResidues>
 VAL166  LYS551  ARG553  GLY616  TRP617  ASP618  TYR619  PRO620  LYS621  CYS622 
 ASP623  PHE694  ASN695  SER759  ASP760  ASP761  ALA762  ILE779  LEU786  VAL792 
 PHE793  MET794  SER795  GLU796  ALA797  LYS798  CYS799  TRP800  GLU811  SER814 

> <Gold.Protein.RotatedAtoms>
  152.4943  134.4364  159.9528 H   0  0  0  0  0  0  0  0  0  0  0  0  # atno 6907 bound_to 6896
  151.4346  133.3654  159.2781 H   0  0  0  0  0  0  0  0  0  0  0  0  # atno 6908 bound_to 6896
  150.9130  134.8571  159.7498 H   0  0  0  0  0  0  0  0  0  0  0  0  # atno 6909 bound_to 6896
  145.3007  140.9376  143.2825 H   0  0  0  0  0  0  0  0  0  0  0  0  # atno 7974 bound_to 7965
  156.2994  140.2516  156.3289 H   0  0  0  0  0  0  0  0  0  0  0  0  # atno 8008 bound_to 7997
  154.9164  140.0402  157.1993 H   0  0  0  0  0  0  0  0  0  0  0  0  # atno 8009 bound_to 7997
  154.8354  140.2882  155.5698 H   0  0  0  0  0  0  0  0  0  0  0  0  # atno 8010 bound_to 7997
  140.1742  144.4246  150.6646 H   0  0  0  0  0  0  0  0  0  0  0  0  # atno 10167 bound_to 10162
  157.4812  130.8316  149.8095 H   0  0  0  0  0  0  0  0  0  0  0  0  # atno 10718 bound_to 10713
  154.1096  135.6551  153.4882 H   0  0  0  0  0  0  0  0  0  0  0  0  # atno 10763 bound_to 10752
  153.0261  135.5244  154.7205 H   0  0  0  0  0  0  0  0  0  0  0  0  # atno 10764 bound_to 10752
  154.6381  135.2985  155.0106 H   0  0  0  0  0  0  0  0  0  0  0  0  # atno 10765 bound_to 10752
  140.1318  134.4695  155.8515 H   0  0  0  0  0  0  0  0  0  0  0  0  # atno 11005 bound_to 11000
  144.9096  139.4546  143.6593 LP  0  0  0  0  0  0  0  0  0  0  0  0  # atno 17320 bound_to 7965
  146.3153  139.7896  142.8988 LP  0  0  0  0  0  0  0  0  0  0  0  0  # atno 17321 bound_to 7965
  140.6562  143.2238  151.5963 LP  0  0  0  0  0  0  0  0  0  0  0  0  # atno 17342 bound_to 10162
  139.5324  144.2877  152.1178 LP  0  0  0  0  0  0  0  0  0  0  0  0  # atno 17343 bound_to 10162
  156.0122  130.3828  150.2226 LP  0  0  0  0  0  0  0  0  0  0  0  0  # atno 17370 bound_to 10713
  157.0412  131.0035  151.3283 LP  0  0  0  0  0  0  0  0  0  0  0  0  # atno 17371 bound_to 10713
  141.2171  133.6799  156.7084 LP  0  0  0  0  0  0  0  0  0  0  0  0  # atno 17394 bound_to 11000
  140.2832  134.8300  157.3952 LP  0  0  0  0  0  0  0  0  0  0  0  0  # atno 17395 bound_to 11000

$$$$
