AV-unprocessed.smi:1056|AV-procd|sdf|4638|dock1
  -GOLD-   22720 3143D 1   1.00000     0.00000
 Structure written by MMmdl.
 44 46  0  0  0  0  0  0  0  0  1 V2000
  153.0192  142.8071  161.8567 C   0  0  0  0  0  0  0  0  0  0  0  0
  152.4783  142.4985  160.4718 C   0  0  0  0  0  0  0  0  0  0  0  0
  152.8482  141.2875  159.8443 C   0  0  0  0  0  0  0  0  0  0  0  0
  152.3669  140.9621  158.5572 C   0  0  0  0  0  0  0  0  0  0  0  0
  152.5969  139.8496  157.7659 N   0  0  0  0  0  0  0  0  0  0  0  0
  151.8717  140.1335  156.6875 C   0  0  0  0  0  0  0  0  0  0  0  0
  151.1978  141.2998  156.6876 N   0  0  0  0  0  0  0  0  0  0  0  0
  150.3470  141.8230  155.6334 C   0  0  0  0  0  0  0  0  0  0  0  0
  149.4513  140.7374  155.0024 C   0  0  2  0  0  0  0  0  0  0  0  0
  150.2013  140.0672  154.0060 O   0  0  0  0  0  0  0  0  0  0  0  0
  148.1753  141.3337  154.3652 C   0  0  0  0  0  0  0  0  0  0  0  0
  147.2131  140.3568  153.8438 N   0  0  0  0  0  0  0  0  0  0  0  0
  146.9822  139.2265  154.7443 C   0  0  0  0  0  0  0  0  0  0  0  0
  145.8783  138.2939  154.2211 C   0  0  0  0  0  0  0  0  0  0  0  0
  146.0462  137.9848  152.8051 N   0  0  0  0  0  0  0  0  0  0  0  0
  146.7888  138.7076  151.9510 C   0  0  0  0  0  0  0  0  0  0  0  0
  146.8520  138.4301  150.7556 O   0  0  0  0  0  0  0  0  0  0  0  0
  147.6031  139.8936  152.5025 C   0  0  0  0  0  0  0  0  0  0  0  0
  151.4972  141.8883  157.9109 C   0  0  0  0  0  0  0  0  0  0  0  0
  151.1208  143.0958  158.5250 C   0  0  0  0  0  0  0  0  0  0  0  0
  151.6114  143.4057  159.8107 C   0  0  0  0  0  0  0  0  0  0  0  0
  151.1990  144.7119  160.4658 C   0  0  0  0  0  0  0  0  0  0  0  0
  153.7078  142.0330  162.1968 H   0  0  0  0  0  0  0  0  0  0  0  0
  152.2040  142.8712  162.5779 H   0  0  0  0  0  0  0  0  0  0  0  0
  153.5574  143.7551  161.8566 H   0  0  0  0  0  0  0  0  0  0  0  0
  153.5070  140.5956  160.3478 H   0  0  0  0  0  0  0  0  0  0  0  0
  151.8246  139.4532  155.8498 H   0  0  0  0  0  0  0  0  0  0  0  0
  149.7340  142.6172  156.0613 H   0  0  0  0  0  0  0  0  0  0  0  0
  150.9759  142.2897  154.8735 H   0  0  0  0  0  0  0  0  0  0  0  0
  149.1758  140.0199  155.7768 H   0  0  0  0  0  0  0  0  0  0  0  0
  150.3106  139.1663  154.2689 H   0  0  0  0  0  0  0  0  0  0  0  0
  147.6654  141.9083  155.1404 H   0  0  0  0  0  0  0  0  0  0  0  0
  148.4356  142.0656  153.5979 H   0  0  0  0  0  0  0  0  0  0  0  0
  147.9086  138.6642  154.8753 H   0  0  0  0  0  0  0  0  0  0  0  0
  146.6860  139.5727  155.7336 H   0  0  0  0  0  0  0  0  0  0  0  0
  145.8592  137.3667  154.7944 H   0  0  0  0  0  0  0  0  0  0  0  0
  144.9033  138.7658  154.3484 H   0  0  0  0  0  0  0  0  0  0  0  0
  145.5324  137.1959  152.4401 H   0  0  0  0  0  0  0  0  0  0  0  0
  147.5366  140.7204  151.7939 H   0  0  0  0  0  0  0  0  0  0  0  0
  148.6475  139.5766  152.5112 H   0  0  0  0  0  0  0  0  0  0  0  0
  150.4591  143.7765  158.0101 H   0  0  0  0  0  0  0  0  0  0  0  0
  150.5142  145.2760  159.8320 H   0  0  0  0  0  0  0  0  0  0  0  0
  152.0723  145.3371  160.6538 H   0  0  0  0  0  0  0  0  0  0  0  0
  150.6965  144.5220  161.4145 H   0  0  0  0  0  0  0  0  0  0  0  0
  1  2  1  0  0  0  0
  1 23  1  0  0  0  0
  1 24  1  0  0  0  0
  1 25  1  0  0  0  0
  2 21  1  0  0  0  0
  2  3  2  0  0  0  0
  3  4  1  0  0  0  0
  3 26  1  0  0  0  0
  4 19  2  0  0  0  0
  4  5  1  0  0  0  0
  5  6  2  0  0  0  0
  6  7  1  0  0  0  0
  6 27  1  0  0  0  0
  7  8  1  0  0  0  0
  7 19  1  0  0  0  0
  8  9  1  0  0  0  0
  8 28  1  0  0  0  0
  8 29  1  0  0  0  0
  9 10  1  0  0  0  0
  9 11  1  0  0  0  0
  9 30  1  0  0  0  0
 10 31  1  0  0  0  0
 11 12  1  0  0  0  0
 11 32  1  0  0  0  0
 11 33  1  0  0  0  0
 12 18  1  0  0  0  0
 12 13  1  0  0  0  0
 13 14  1  0  0  0  0
 13 34  1  0  0  0  0
 13 35  1  0  0  0  0
 14 15  1  0  0  0  0
 14 36  1  0  0  0  0
 14 37  1  0  0  0  0
 15 16  1  0  0  0  0
 15 38  1  0  0  0  0
 16 17  2  0  0  0  0
 16 18  1  0  0  0  0
 18 39  1  0  0  0  0
 18 40  1  0  0  0  0
 19 20  1  0  0  0  0
 20 21  2  0  0  0  0
 20 41  1  0  0  0  0
 21 22  1  0  0  0  0
 22 42  1  0  0  0  0
 22 43  1  0  0  0  0
 22 44  1  0  0  0  0
M  END
> <s_m_source_file>
AV-unprocessed.smi

> <i_m_source_file_index>
1056

> <i_lp_mmshare_version>
43012

> <i_f3d_flags>
0

> <s_epik_input>
W0NIM11jKFtjSF0xKWMoW0NIM10pW2NIXWMoYzEyKW4oW2NIXW4yKVtDSDJdW0NASF0oW09IXSlbQ0gyXU4zW0NIMl1bQ0gyXVtOSF1DKD1PKVtDSDJdMw==

> <s_epik_cmdline>
J2VwaWtfcHl0aG9uJywgJy1waCcsICc3LjAnLCAnLXRuJywgJzgnLCAnLW1hJywgJzIwMCcsICctbWV0YWxfYmluZGluZycsICctaW1hZScsICc8aW5maWxlLm1hZT4nLCAnLW9tYWUnLCAnPG91dGZpbGUubWFlPic=

> <r_epik_Ionization_Penalty>
1.40166

> <r_epik_Ionization_Penalty_Charging>
0

> <r_epik_Ionization_Penalty_Neutral>
1.40166

> <r_epik_State_Penalty>
1.44226

> <r_epik_Charging_Adjusted_Penalty>
1.44226

> <i_epik_Tot_Q>
0

> <i_epik_Tot_abs_Q>
0

> <r_epik_Metal_State_Penalty>
1.50267

> <b_epik_Metal_Only>
0

> <s_lp_Force_Field>
OPLS_2005

> <r_lp_Energy>
30.6142

> <b_lp_Chiralities_Consistent>
1

> <s_lp_Variant>
AV-unprocessed.smi:1056-9

> <Gold.Version>
5.8.1

> <Gold.Id.Protein>
6NUR|6NUR_protein|mol2

> <Gold.PLP.Fitness>
51.5048

> <Gold.PLP.PLP>
-43.9417

> <Gold.PLP.part.hbond>
-4.0000

> <Gold.PLP.part.metal>
0.0000

> <Gold.PLP.part.buried>
-1.5659

> <Gold.PLP.part.nonpolar>
-37.8032

> <Gold.PLP.part.repulsive>
0.8170

> <Gold.PLP.ligand.clash>
0.0000

> <Gold.PLP.ligand.torsion>
0.7045

> <Gold.PLP.Chemscore.Hbond>
2.9513

> <Gold.PLP.Chemscore.CHOScore>
0.0000

> <Gold.PLP.Chemscore.Metal>
0.0000

> <Gold.Chemscore.Hbonds>
donor molecule, donor type, donor heavy atom, donor atom, acceptor molecule, acceptor atom, score
      P1  H  7954  7966       L1    17  0.98
      P1  H  7989  7998       L1    10  0.96
      P1  H  7997  8010       L1     5  0.79

> <Gold.PLP.Chemscore.Internal.Correction>
0.1184

> <Gold.Rescore>
     Score         DG    S(hbond)    S(metal)    S(lipo)     H(rot)  DE(clash)    DE(int)     intcor
     17.17     -19.90       2.35        0.00     106.90       2.31       1.53       1.20       ----

> <Gold.Chemscore.Fitness>
17.1700

> <Gold.Chemscore.DG>
-19.9039

> <Gold.Chemscore.ZeroCoef>
-5.4800

> <Gold.Chemscore.Hbond>
2.3479

> <Gold.Chemscore.Metal>
0.0000

> <Gold.Chemscore.Lipo>
106.9007

> <Gold.Chemscore.Internal_Hbond>
0.0000

> <Gold.Chemscore.DEClash>
1.5327

> <Gold.Chemscore.DEInternal>
1.2012

> <Gold.Chemscore.Rot>
2.3147

> <Gold.Chemscore.Internal.Correction>
   9.000000E+99

> <Gold.Chemscore.Hbonds>
donor molecule, donor type, donor heavy atom, donor atom, acceptor molecule, acceptor atom, score
      P1  H  7954  7966       L1    17  0.93
      P1  H  7989  7998       L1    10  0.79
      P1  H  7997  8010       L1     5  0.10

> <Gold.Chemscore.Hbond.Weighted>
-7.8421

> <Gold.Chemscore.Metal.Weighted>
-0.0000

> <Gold.Chemscore.Lipo.Weighted>
-12.5074

> <Gold.Chemscore.Internal_Hbond.Weighted>
0.0000

> <Gold.Chemscore.DEClash.Weighted>
1.5327

> <Gold.Chemscore.DEInternal.Weighted>
1.2012

> <Gold.Chemscore.Rot.Weighted>
5.9256

> <Gold.Chemscore.Internal.Correction.Weighted>
   9.000000E+99

> <Gold.Protein.RotatedTorsions>
[ 6907 6896 6895 6894 ] final -175.92 input  -60.11 | X-H torsion
[ 7974 7965 7964 7962 ] final  -88.22 input  175.53 | X-H torsion
[ 8008 7997 7996 7995 ] final   41.24 input   59.86 | X-H torsion
[ 10167 10162 10161 10158 ] final  -37.57 input  -65.29 | X-H torsion
[ 10718 10713 10712 10709 ] final   51.70 input   66.30 | X-H torsion
[ 10763 10752 10751 10750 ] final -150.37 input  -60.55 | X-H torsion
[ 11005 11000 10999 10996 ] final  112.09 input  -57.11 | X-H torsion

> <Gold.Protein.ActiveResidues>
 VAL166  LYS551  ARG553  GLY616  TRP617  ASP618  TYR619  PRO620  LYS621  CYS622 
 ASP623  PHE694  ASN695  SER759  ASP760  ASP761  ALA762  ILE779  LEU786  VAL792 
 PHE793  MET794  SER795  GLU796  ALA797  LYS798  CYS799  TRP800  GLU811  SER814 

> <Gold.Protein.RotatedAtoms>
  151.5964  133.3361  159.3038 H   0  0  0  0  0  0  0  0  0  0  0  0  # atno 6907 bound_to 6896
  150.8232  134.7453  159.6801 H   0  0  0  0  0  0  0  0  0  0  0  0  # atno 6908 bound_to 6896
  152.4323  134.5759  159.9986 H   0  0  0  0  0  0  0  0  0  0  0  0  # atno 6909 bound_to 6896
  145.4560  140.9561  143.1996 H   0  0  0  0  0  0  0  0  0  0  0  0  # atno 7974 bound_to 7965
  155.2664  140.3363  155.4269 H   0  0  0  0  0  0  0  0  0  0  0  0  # atno 8008 bound_to 7997
  156.2152  140.1786  156.7647 H   0  0  0  0  0  0  0  0  0  0  0  0  # atno 8009 bound_to 7997
  154.5743  140.0664  156.8996 H   0  0  0  0  0  0  0  0  0  0  0  0  # atno 8010 bound_to 7997
  140.7115  143.3333  151.2519 H   0  0  0  0  0  0  0  0  0  0  0  0  # atno 10167 bound_to 10162
  157.5005  130.8435  149.8311 H   0  0  0  0  0  0  0  0  0  0  0  0  # atno 10718 bound_to 10713
  154.8123  135.3286  154.7272 H   0  0  0  0  0  0  0  0  0  0  0  0  # atno 10763 bound_to 10752
  153.7920  135.6910  153.4874 H   0  0  0  0  0  0  0  0  0  0  0  0  # atno 10764 bound_to 10752
  153.1911  135.4551  155.0096 H   0  0  0  0  0  0  0  0  0  0  0  0  # atno 10765 bound_to 10752
  139.8919  134.9522  156.6532 H   0  0  0  0  0  0  0  0  0  0  0  0  # atno 11005 bound_to 11000
  144.8032  139.6101  143.7062 LP  0  0  0  0  0  0  0  0  0  0  0  0  # atno 17320 bound_to 7965
  146.2477  139.6134  142.9448 LP  0  0  0  0  0  0  0  0  0  0  0  0  # atno 17321 bound_to 7965
  139.6821  143.9836  152.2814 LP  0  0  0  0  0  0  0  0  0  0  0  0  # atno 17342 bound_to 10162
  139.9470  144.6645  150.8210 LP  0  0  0  0  0  0  0  0  0  0  0  0  # atno 17343 bound_to 10162
  156.0226  130.3790  150.1916 LP  0  0  0  0  0  0  0  0  0  0  0  0  # atno 17370 bound_to 10713
  157.0105  130.9949  151.3367 LP  0  0  0  0  0  0  0  0  0  0  0  0  # atno 17371 bound_to 10713
  140.7504  133.8902  155.8343 LP  0  0  0  0  0  0  0  0  0  0  0  0  # atno 17394 bound_to 11000
  141.0005  134.1157  157.4322 LP  0  0  0  0  0  0  0  0  0  0  0  0  # atno 17395 bound_to 11000

$$$$
