AV-unprocessed.smi:3068|AV-procd|sdf|11702|dock4
  -GOLD-   2272017103D 1   1.00000     0.00000
 Structure written by MMmdl.
 40 42  0  0  0  0  0  0  0  0  2 V2000
  150.2290  133.6342  157.4335 N   0  0  0  0  0  0  0  0  0  0  0  0
  150.4052  132.6992  156.7747 C   0  0  0  0  0  0  0  0  0  0  0  0
  150.6271  131.5202  155.9473 C   0  0  0  0  0  0  0  0  0  0  0  0
  151.9039  131.0859  155.8353 N   0  0  0  0  0  0  0  0  0  0  0  0
  152.1215  129.9970  155.0673 C   0  0  0  0  0  0  0  0  0  0  0  0
  151.0667  129.3362  154.4084 C   0  0  0  0  0  0  0  0  0  0  0  0
  149.7900  129.7618  154.5151 N   0  0  0  0  0  0  0  0  0  0  0  0
  149.5579  130.8564  155.2823 C   0  0  0  0  0  0  0  0  0  0  0  0
  148.2319  131.3091  155.4021 N   0  0  0  0  0  0  0  0  0  0  0  0
  147.1312  130.5210  154.8654 C   0  0  0  0  0  0  0  0  0  0  0  0
  147.0816  130.5870  153.3331 C   0  0  2  0  0  0  0  0  0  0  0  0
  146.9708  132.0399  152.8353 C   0  0  0  0  0  0  0  0  0  0  0  0
  146.8235  132.0784  151.3591 N   0  3  2  0  0  0  0  0  0  0  0  0
  146.7617  133.4529  150.7965 C   0  0  0  0  0  0  0  0  0  0  0  0
  145.3986  134.1253  151.0505 C   0  0  0  0  0  0  0  0  0  0  0  0
  144.2470  133.2502  150.5368 C   0  0  0  0  0  0  0  0  0  0  0  0
  144.3342  131.8415  151.1408 C   0  0  0  0  0  0  0  0  0  0  0  0
  145.7174  131.2076  150.8742 C   0  0  2  0  0  0  0  0  0  0  0  0
  145.8500  129.7956  151.4771 C   0  0  0  0  0  0  0  0  0  0  0  0
  145.9307  129.8723  152.8949 O   0  0  0  0  0  0  0  0  0  0  0  0
  153.1409  129.6520  154.9783 H   0  0  0  0  0  0  0  0  0  0  0  0
  151.2465  128.4658  153.7948 H   0  0  0  0  0  0  0  0  0  0  0  0
  148.0633  132.2784  155.6317 H   0  0  0  0  0  0  0  0  0  0  0  0
  147.2252  129.4848  155.1937 H   0  0  0  0  0  0  0  0  0  0  0  0
  146.1976  130.9071  155.2769 H   0  0  0  0  0  0  0  0  0  0  0  0
  147.9838  130.1279  152.9234 H   0  0  0  0  0  0  0  0  0  0  0  0
  146.1242  132.5313  153.3156 H   0  0  0  0  0  0  0  0  0  0  0  0
  147.8626  132.5980  153.1225 H   0  0  0  0  0  0  0  0  0  0  0  0
  147.5703  134.0600  151.2051 H   0  0  0  0  0  0  0  0  0  0  0  0
  146.9386  133.3896  149.7220 H   0  0  0  0  0  0  0  0  0  0  0  0
  145.2670  134.3205  152.1152 H   0  0  0  0  0  0  0  0  0  0  0  0
  145.3701  135.0985  150.5596 H   0  0  0  0  0  0  0  0  0  0  0  0
  143.2883  133.7071  150.7838 H   0  0  0  0  0  0  0  0  0  0  0  0
  144.2912  133.1868  149.4488 H   0  0  0  0  0  0  0  0  0  0  0  0
  144.1367  131.8886  152.2122 H   0  0  0  0  0  0  0  0  0  0  0  0
  143.5498  131.2143  150.7159 H   0  0  0  0  0  0  0  0  0  0  0  0
  145.8318  131.1146  149.7932 H   0  0  0  0  0  0  0  0  0  0  0  0
  144.9932  129.1806  151.2008 H   0  0  0  0  0  0  0  0  0  0  0  0
  146.7348  129.2914  151.0852 H   0  0  0  0  0  0  0  0  0  0  0  0
  147.6747  131.6706  150.9992 H   0  0  0  0  0  0  0  0  0  0  0  0
  1  2  3  0  0  0  0
  2  3  1  0  0  0  0
  3  8  1  0  0  0  0
  3  4  2  0  0  0  0
  4  5  1  0  0  0  0
  5  6  2  0  0  0  0
  5 21  1  0  0  0  0
  6  7  1  0  0  0  0
  6 22  1  0  0  0  0
  7  8  2  0  0  0  0
  8  9  1  0  0  0  0
  9 10  1  0  0  0  0
  9 23  1  0  0  0  0
 10 11  1  0  0  0  0
 10 24  1  0  0  0  0
 10 25  1  0  0  0  0
 11 20  1  0  0  0  0
 11 12  1  0  0  0  0
 11 26  1  0  0  0  0
 12 13  1  0  0  0  0
 12 27  1  0  0  0  0
 12 28  1  0  0  0  0
 13 18  1  0  0  0  0
 13 14  1  0  0  0  0
 13 40  1  0  0  0  0
 14 15  1  0  0  0  0
 14 29  1  0  0  0  0
 14 30  1  0  0  0  0
 15 16  1  0  0  0  0
 15 31  1  0  0  0  0
 15 32  1  0  0  0  0
 16 17  1  0  0  0  0
 16 33  1  0  0  0  0
 16 34  1  0  0  0  0
 17 18  1  0  0  0  0
 17 35  1  0  0  0  0
 17 36  1  0  0  0  0
 18 19  1  0  0  0  0
 18 37  1  0  0  0  0
 19 20  1  0  0  0  0
 19 38  1  0  0  0  0
 19 39  1  0  0  0  0
M  CHG  1  13   1
M  END
> <s_m_source_file>
AV-unprocessed.smi

> <i_m_source_file_index>
3068

> <i_lp_mmshare_version>
43012

> <i_f3d_flags>
0

> <s_epik_input>
TiNDYzFuW2NIXVtjSF1uYzFbTkhdW0NIMl1bQ0BIXShbQ0gyXTIpT1tDSDJdW0NAQEhdKE4yMylbQ0gyXVtDSDJdW0NIMl1bQ0gyXTM=

> <s_epik_cmdline>
J2VwaWtfcHl0aG9uJywgJy1waCcsICc3LjAnLCAnLXRuJywgJzgnLCAnLW1hJywgJzIwMCcsICctbWV0YWxfYmluZGluZycsICctaW1hZScsICc8aW5maWxlLm1hZT4nLCAnLW9tYWUnLCAnPG91dGZpbGUubWFlPic=

> <r_epik_Ionization_Penalty>
0.0804321

> <r_epik_Ionization_Penalty_Charging>
0.0803403

> <r_epik_Ionization_Penalty_Neutral>
9.17277e-05

> <r_epik_State_Penalty>
0.0711481

> <r_epik_Charging_Adjusted_Penalty>
0.151488

> <i_epik_Tot_Q>
1

> <i_epik_Tot_abs_Q>
1

> <r_epik_Metal_State_Penalty>
0.0711481

> <b_epik_Metal_Only>
0

> <s_lp_Force_Field>
OPLS_2005

> <r_lp_Energy>
39.3749

> <b_lp_Chiralities_Consistent>
1

> <s_lp_Variant>
AV-unprocessed.smi:3068-5

> <Gold.Version>
5.8.1

> <Gold.Id.Protein>
6NUR|6NUR_protein|mol2

> <Gold.PLP.Fitness>
40.3778

> <Gold.PLP.PLP>
-31.6013

> <Gold.PLP.part.hbond>
-2.0000

> <Gold.PLP.part.metal>
0.0000

> <Gold.PLP.part.buried>
-6.3446

> <Gold.PLP.part.nonpolar>
-23.1465

> <Gold.PLP.part.repulsive>
0.2815

> <Gold.PLP.ligand.clash>
0.0000

> <Gold.PLP.ligand.torsion>
0.1003

> <Gold.PLP.Chemscore.Hbond>
1.9920

> <Gold.PLP.Chemscore.CHOScore>
1.0000

> <Gold.PLP.Chemscore.Metal>
0.0000

> <Gold.Chemscore.Hbonds>
donor molecule, donor type, donor heavy atom, donor atom, acceptor molecule, acceptor atom, score
      L1  H    13    40       P1 10747  1.00
      P1  H  6896  6909       L1     1  0.99
      L1  C     6    22       P1 10737  1.00

> <Gold.PLP.Chemscore.Internal.Correction>
0.0012

> <Gold.Rescore>
     Score         DG    S(hbond)    S(metal)    S(lipo)     H(rot)  DE(clash)    DE(int)     intcor
     17.98     -18.33       1.98        0.00      82.33       1.32       0.16       0.19       ----

> <Gold.Chemscore.Fitness>
17.9816

> <Gold.Chemscore.DG>
-18.3327

> <Gold.Chemscore.ZeroCoef>
-5.4800

> <Gold.Chemscore.Hbond>
1.9752

> <Gold.Chemscore.Metal>
0.0000

> <Gold.Chemscore.Lipo>
82.3324

> <Gold.Chemscore.Internal_Hbond>
0.0000

> <Gold.Chemscore.DEClash>
0.1582

> <Gold.Chemscore.DEInternal>
0.1929

> <Gold.Chemscore.Rot>
1.3193

> <Gold.Chemscore.Internal.Correction>
   9.000000E+99

> <Gold.Chemscore.Hbonds>
donor molecule, donor type, donor heavy atom, donor atom, acceptor molecule, acceptor atom, score
      L1  H    13    40       P1 10747  1.00
      P1  H  6896  6909       L1     1  0.92

> <Gold.Chemscore.Hbond.Weighted>
-6.5972

> <Gold.Chemscore.Metal.Weighted>
-0.0000

> <Gold.Chemscore.Lipo.Weighted>
-9.6329

> <Gold.Chemscore.Internal_Hbond.Weighted>
0.0000

> <Gold.Chemscore.DEClash.Weighted>
0.1582

> <Gold.Chemscore.DEInternal.Weighted>
0.1929

> <Gold.Chemscore.Rot.Weighted>
3.3774

> <Gold.Chemscore.Internal.Correction.Weighted>
   9.000000E+99

> <Gold.Protein.RotatedTorsions>
[ 6907 6896 6895 6894 ] final   -4.44 input  -60.11 | X-H torsion
[ 7974 7965 7964 7962 ] final   25.39 input  175.53 | X-H torsion
[ 8008 7997 7996 7995 ] final  142.08 input   59.86 | X-H torsion
[ 10167 10162 10161 10158 ] final  104.16 input  -65.29 | X-H torsion
[ 10718 10713 10712 10709 ] final -153.79 input   66.30 | X-H torsion
[ 10763 10752 10751 10750 ] final   73.09 input  -60.55 | X-H torsion
[ 11005 11000 10999 10996 ] final   42.18 input  -57.11 | X-H torsion

> <Gold.Protein.ActiveResidues>
 VAL166  LYS551  ARG553  GLY616  TRP617  ASP618  TYR619  PRO620  LYS621  CYS622 
 ASP623  PHE694  ASN695  SER759  ASP760  ASP761  ALA762  ILE779  LEU786  VAL792 
 PHE793  MET794  SER795  GLU796  ALA797  LYS798  CYS799  TRP800  GLU811  SER814 

> <Gold.Protein.RotatedAtoms>
  151.4976  135.1060  159.9820 H   0  0  0  0  0  0  0  0  0  0  0  0  # atno 6907 bound_to 6896
  152.4715  133.8036  159.6977 H   0  0  0  0  0  0  0  0  0  0  0  0  # atno 6908 bound_to 6896
  150.8727  133.7420  159.2982 H   0  0  0  0  0  0  0  0  0  0  0  0  # atno 6909 bound_to 6896
  146.1891  139.7473  142.8845 H   0  0  0  0  0  0  0  0  0  0  0  0  # atno 7974 bound_to 7965
  156.2955  140.2298  156.4669 H   0  0  0  0  0  0  0  0  0  0  0  0  # atno 8008 bound_to 7997
  154.7969  140.0451  157.1264 H   0  0  0  0  0  0  0  0  0  0  0  0  # atno 8009 bound_to 7997
  154.9579  140.3050  155.5048 H   0  0  0  0  0  0  0  0  0  0  0  0  # atno 8010 bound_to 7997
  139.7201  144.7060  151.0887 H   0  0  0  0  0  0  0  0  0  0  0  0  # atno 10167 bound_to 10162
  156.4905  130.8345  151.2568 H   0  0  0  0  0  0  0  0  0  0  0  0  # atno 10718 bound_to 10713
  153.0500  135.5075  154.7842 H   0  0  0  0  0  0  0  0  0  0  0  0  # atno 10763 bound_to 10752
  154.6712  135.2953  154.9742 H   0  0  0  0  0  0  0  0  0  0  0  0  # atno 10764 bound_to 10752
  154.0559  135.6697  153.4858 H   0  0  0  0  0  0  0  0  0  0  0  0  # atno 10765 bound_to 10752
  140.1764  134.4159  155.8226 H   0  0  0  0  0  0  0  0  0  0  0  0  # atno 11005 bound_to 11000
  145.3848  141.0364  143.3157 LP  0  0  0  0  0  0  0  0  0  0  0  0  # atno 17320 bound_to 7965
  144.8452  139.5408  143.6882 LP  0  0  0  0  0  0  0  0  0  0  0  0  # atno 17321 bound_to 7965
  140.7752  143.5178  150.9573 LP  0  0  0  0  0  0  0  0  0  0  0  0  # atno 17342 bound_to 10162
  139.8865  143.7007  152.3151 LP  0  0  0  0  0  0  0  0  0  0  0  0  # atno 17343 bound_to 10162
  157.7474  131.0015  150.2965 LP  0  0  0  0  0  0  0  0  0  0  0  0  # atno 17370 bound_to 10713
  156.3431  130.3818  149.7392 LP  0  0  0  0  0  0  0  0  0  0  0  0  # atno 17371 bound_to 10713
  141.2220  133.6979  156.7853 LP  0  0  0  0  0  0  0  0  0  0  0  0  # atno 17394 bound_to 11000
  140.2318  134.8680  157.3484 LP  0  0  0  0  0  0  0  0  0  0  0  0  # atno 17395 bound_to 11000

$$$$
