AV-unprocessed.smi:824|AV-procd|sdf|3848|dock9
  -GOLD-   22720 1293D 1   1.00000     0.00000
 Structure written by MMmdl.
 52 53  0  0  0  0  0  0  0  0  1 V2000
  153.0081  137.2133  157.4859 C   0  0  0  0  0  0  0  0  0  0  0  0
  151.9954  137.0289  156.3694 C   0  0  0  0  0  0  0  0  0  0  0  0
  151.6250  135.7056  156.0997 N   0  0  0  0  0  0  0  0  0  0  0  0
  150.7700  135.4439  155.1612 C   0  0  0  0  0  0  0  0  0  0  0  0
  150.3157  134.1734  154.7991 N   0  0  0  0  0  0  0  0  0  0  0  0
  150.7916  132.9635  155.4753 C   0  0  0  0  0  0  0  0  0  0  0  0
  150.6046  131.7180  154.5926 C   0  0  0  0  0  0  0  0  0  0  0  0
  149.2428  131.6064  154.2027 O   0  0  0  0  0  0  0  0  0  0  0  0
  148.8315  132.7286  153.4346 C   0  0  0  0  0  0  0  0  0  0  0  0
  148.9589  134.0084  154.2776 C   0  0  0  0  0  0  0  0  0  0  0  0
  150.2018  136.4854  154.4196 N   0  0  0  0  0  0  0  0  0  0  0  0
  150.4881  137.7928  154.6056 C   0  0  0  0  0  0  0  0  0  0  0  0
  149.9434  138.6542  153.9169 O   0  0  0  0  0  0  0  0  0  0  0  0
  151.4667  138.0710  155.6692 C   0  0  0  0  0  0  0  0  0  0  0  0
  151.8523  139.5267  155.9177 C   0  0  0  0  0  0  0  0  0  0  0  0
  151.3779  140.0223  157.2981 C   0  0  0  0  0  0  0  0  0  0  0  0
  151.4732  141.5483  157.4806 C   0  0  0  0  0  0  0  0  0  0  0  0
  150.8754  142.2873  156.6960 O   0  0  0  0  0  0  0  0  0  0  0  0
  152.2136  142.0337  158.5065 N   0  0  0  0  0  0  0  0  0  0  0  0
  152.3356  143.4687  158.7844 C   0  0  0  0  0  0  0  0  0  0  0  0
  152.9095  141.1382  159.4442 C   0  0  0  0  0  0  0  0  0  0  0  0
  154.1748  141.7748  160.0652 C   0  0  0  0  0  0  0  0  0  0  0  0
  155.4177  140.9324  159.7434 C   0  0  0  0  0  0  0  0  0  0  0  0
  154.0464  141.9891  161.5831 C   0  0  0  0  0  0  0  0  0  0  0  0
  149.5312  136.2543  153.7013 H   0  0  0  0  0  0  0  0  0  0  0  0
  152.6479  137.9367  158.2176 H   0  0  0  0  0  0  0  0  0  0  0  0
  153.9570  137.5683  157.0831 H   0  0  0  0  0  0  0  0  0  0  0  0
  153.1957  136.2751  158.0098 H   0  0  0  0  0  0  0  0  0  0  0  0
  151.8435  133.0398  155.7501 H   0  0  0  0  0  0  0  0  0  0  0  0
  150.2343  132.8439  156.4053 H   0  0  0  0  0  0  0  0  0  0  0  0
  151.2467  131.7659  153.7116 H   0  0  0  0  0  0  0  0  0  0  0  0
  150.8890  130.8216  155.1440 H   0  0  0  0  0  0  0  0  0  0  0  0
  149.4291  132.8018  152.5243 H   0  0  0  0  0  0  0  0  0  0  0  0
  147.7966  132.5857  153.1244 H   0  0  0  0  0  0  0  0  0  0  0  0
  148.2611  133.9754  155.1153 H   0  0  0  0  0  0  0  0  0  0  0  0
  148.6783  134.8651  153.6633 H   0  0  0  0  0  0  0  0  0  0  0  0
  152.9326  139.6444  155.8337 H   0  0  0  0  0  0  0  0  0  0  0  0
  151.4347  140.1501  155.1252 H   0  0  0  0  0  0  0  0  0  0  0  0
  150.3412  139.7205  157.4513 H   0  0  0  0  0  0  0  0  0  0  0  0
  151.9715  139.5341  158.0715 H   0  0  0  0  0  0  0  0  0  0  0  0
  151.3810  143.8770  159.1178 H   0  0  0  0  0  0  0  0  0  0  0  0
  152.6567  144.0168  157.8981 H   0  0  0  0  0  0  0  0  0  0  0  0
  153.0710  143.6804  159.5610 H   0  0  0  0  0  0  0  0  0  0  0  0
  152.2343  140.8170  160.2384 H   0  0  0  0  0  0  0  0  0  0  0  0
  153.1803  140.2170  158.9246 H   0  0  0  0  0  0  0  0  0  0  0  0
  154.3258  142.7535  159.6084 H   0  0  0  0  0  0  0  0  0  0  0  0
  155.3441  139.9352  160.1788 H   0  0  0  0  0  0  0  0  0  0  0  0
  156.3217  141.4002  160.1339 H   0  0  0  0  0  0  0  0  0  0  0  0
  155.5476  140.8170  158.6669 H   0  0  0  0  0  0  0  0  0  0  0  0
  153.8613  141.0479  162.1016 H   0  0  0  0  0  0  0  0  0  0  0  0
  153.2299  142.6701  161.8241 H   0  0  0  0  0  0  0  0  0  0  0  0
  154.9577  142.4219  161.9963 H   0  0  0  0  0  0  0  0  0  0  0  0
  1  2  1  0  0  0  0
  1 26  1  0  0  0  0
  1 27  1  0  0  0  0
  1 28  1  0  0  0  0
  2 14  2  0  0  0  0
  2  3  1  0  0  0  0
  3  4  2  0  0  0  0
  4  5  1  0  0  0  0
  4 11  1  0  0  0  0
  5 10  1  0  0  0  0
  5  6  1  0  0  0  0
  6  7  1  0  0  0  0
  6 29  1  0  0  0  0
  6 30  1  0  0  0  0
  7  8  1  0  0  0  0
  7 31  1  0  0  0  0
  7 32  1  0  0  0  0
  8  9  1  0  0  0  0
  9 10  1  0  0  0  0
  9 33  1  0  0  0  0
  9 34  1  0  0  0  0
 10 35  1  0  0  0  0
 10 36  1  0  0  0  0
 11 25  1  0  0  0  0
 11 12  1  0  0  0  0
 12 13  2  0  0  0  0
 12 14  1  0  0  0  0
 14 15  1  0  0  0  0
 15 16  1  0  0  0  0
 15 37  1  0  0  0  0
 15 38  1  0  0  0  0
 16 17  1  0  0  0  0
 16 39  1  0  0  0  0
 16 40  1  0  0  0  0
 17 18  2  0  0  0  0
 17 19  1  0  0  0  0
 19 20  1  0  0  0  0
 19 21  1  0  0  0  0
 20 41  1  0  0  0  0
 20 42  1  0  0  0  0
 20 43  1  0  0  0  0
 21 22  1  0  0  0  0
 21 44  1  0  0  0  0
 21 45  1  0  0  0  0
 22 23  1  0  0  0  0
 22 24  1  0  0  0  0
 22 46  1  0  0  0  0
 23 47  1  0  0  0  0
 23 48  1  0  0  0  0
 23 49  1  0  0  0  0
 24 50  1  0  0  0  0
 24 51  1  0  0  0  0
 24 52  1  0  0  0  0
M  END
> <s_m_source_file>
AV-unprocessed.smi

> <i_m_source_file_index>
824

> <i_lp_mmshare_version>
43012

> <i_f3d_flags>
0

> <s_epik_input>
W0NIMl0xW0NIMl1PW0NIMl1bQ0gyXU4xYyhuYzJbQ0gzXSlbbkhdYyg9TyljMltDSDJdW0NIMl1DKD1PKU4oW0NIM10pW0NIMl1bQ0hdKFtDSDNdKVtDSDNd

> <s_epik_cmdline>
J2VwaWtfcHl0aG9uJywgJy1waCcsICc3LjAnLCAnLXRuJywgJzgnLCAnLW1hJywgJzIwMCcsICctbWV0YWxfYmluZGluZycsICctaW1hZScsICc8aW5maWxlLm1hZT4nLCAnLW9tYWUnLCAnPG91dGZpbGUubWFlPic=

> <r_lp_tautomer_probability>
0.878553

> <r_epik_Ionization_Penalty>
0.00115806

> <r_epik_Ionization_Penalty_Charging>
0.00113132

> <r_epik_Ionization_Penalty_Neutral>
2.67354e-05

> <r_epik_State_Penalty>
0.0423856

> <r_epik_Charging_Adjusted_Penalty>
0.0435169

> <i_epik_Tot_Q>
0

> <i_epik_Tot_abs_Q>
0

> <r_epik_Metal_State_Penalty>
1.05917

> <b_epik_Metal_Only>
0

> <s_lp_Force_Field>
OPLS_2005

> <r_lp_Energy>
33.2944

> <b_lp_Chiralities_Consistent>
1

> <s_lp_Variant>
AV-unprocessed.smi:824-1

> <Gold.Version>
5.8.1

> <Gold.Id.Protein>
6NUR|6NUR_protein|mol2

> <Gold.PLP.Fitness>
46.4767

> <Gold.PLP.PLP>
-45.8665

> <Gold.PLP.part.hbond>
-1.9527

> <Gold.PLP.part.metal>
0.0000

> <Gold.PLP.part.buried>
-5.0476

> <Gold.PLP.part.nonpolar>
-37.8921

> <Gold.PLP.part.repulsive>
1.0072

> <Gold.PLP.ligand.clash>
0.0000

> <Gold.PLP.ligand.torsion>
1.4018

> <Gold.PLP.Chemscore.Hbond>
1.0283

> <Gold.PLP.Chemscore.CHOScore>
0.0000

> <Gold.PLP.Chemscore.Metal>
0.0000

> <Gold.Chemscore.Hbonds>
donor molecule, donor type, donor heavy atom, donor atom, acceptor molecule, acceptor atom, score
      L1  H    11    25       P1  7948  1.00
      P1  H 10752 10765       L1     3  0.39

> <Gold.PLP.Chemscore.Internal.Correction>
0.3290

> <Gold.Rescore>
     Score         DG    S(hbond)    S(metal)    S(lipo)     H(rot)  DE(clash)    DE(int)     intcor
     13.17     -14.33       0.78        0.00      90.69       1.71       0.01       1.15       ----

> <Gold.Chemscore.Fitness>
13.1749

> <Gold.Chemscore.DG>
-14.3323

> <Gold.Chemscore.ZeroCoef>
-5.4800

> <Gold.Chemscore.Hbond>
0.7835

> <Gold.Chemscore.Metal>
0.0000

> <Gold.Chemscore.Lipo>
90.6944

> <Gold.Chemscore.Internal_Hbond>
0.0000

> <Gold.Chemscore.DEClash>
0.0081

> <Gold.Chemscore.DEInternal>
1.1492

> <Gold.Chemscore.Rot>
1.7093

> <Gold.Chemscore.Internal.Correction>
   9.000000E+99

> <Gold.Chemscore.Hbonds>
donor molecule, donor type, donor heavy atom, donor atom, acceptor molecule, acceptor atom, score
      L1  H    11    25       P1  7948  0.57

> <Gold.Chemscore.Hbond.Weighted>
-2.6169

> <Gold.Chemscore.Metal.Weighted>
-0.0000

> <Gold.Chemscore.Lipo.Weighted>
-10.6112

> <Gold.Chemscore.Internal_Hbond.Weighted>
0.0000

> <Gold.Chemscore.DEClash.Weighted>
0.0081

> <Gold.Chemscore.DEInternal.Weighted>
1.1492

> <Gold.Chemscore.Rot.Weighted>
4.3759

> <Gold.Chemscore.Internal.Correction.Weighted>
   9.000000E+99

> <Gold.Protein.RotatedTorsions>
[ 6907 6896 6895 6894 ] final  118.36 input  -60.11 | X-H torsion
[ 7974 7965 7964 7962 ] final -112.48 input  175.53 | X-H torsion
[ 8008 7997 7996 7995 ] final  103.23 input   59.86 | X-H torsion
[ 10167 10162 10161 10158 ] final  -24.57 input  -65.29 | X-H torsion
[ 10718 10713 10712 10709 ] final   -5.92 input   66.30 | X-H torsion
[ 10763 10752 10751 10750 ] final -154.93 input  -60.55 | X-H torsion
[ 11005 11000 10999 10996 ] final  -28.83 input  -57.11 | X-H torsion

> <Gold.Protein.ActiveResidues>
 VAL166  LYS551  ARG553  GLY616  TRP617  ASP618  TYR619  PRO620  LYS621  CYS622 
 ASP623  PHE694  ASN695  SER759  ASP760  ASP761  ALA762  ILE779  LEU786  VAL792 
 PHE793  MET794  SER795  GLU796  ALA797  LYS798  CYS799  TRP800  GLU811  SER814 

> <Gold.Protein.RotatedAtoms>
  152.4548  133.7701  159.6793 H   0  0  0  0  0  0  0  0  0  0  0  0  # atno 6907 bound_to 6896
  150.8471  133.7835  159.3045 H   0  0  0  0  0  0  0  0  0  0  0  0  # atno 6908 bound_to 6896
  151.5442  135.1071  159.9985 H   0  0  0  0  0  0  0  0  0  0  0  0  # atno 6909 bound_to 6896
  145.1435  140.8790  143.3688 H   0  0  0  0  0  0  0  0  0  0  0  0  # atno 7974 bound_to 7965
  156.1465  140.3168  155.8578 H   0  0  0  0  0  0  0  0  0  0  0  0  # atno 8008 bound_to 7997
  155.4054  140.0502  157.3051 H   0  0  0  0  0  0  0  0  0  0  0  0  # atno 8009 bound_to 7997
  154.5021  140.2133  155.9338 H   0  0  0  0  0  0  0  0  0  0  0  0  # atno 8010 bound_to 7997
  140.7288  143.4341  151.0756 H   0  0  0  0  0  0  0  0  0  0  0  0  # atno 10167 bound_to 10162
  156.7394  130.5205  149.5827 H   0  0  0  0  0  0  0  0  0  0  0  0  # atno 10718 bound_to 10713
  154.7823  135.3179  154.7962 H   0  0  0  0  0  0  0  0  0  0  0  0  # atno 10763 bound_to 10752
  153.8670  135.6848  153.4782 H   0  0  0  0  0  0  0  0  0  0  0  0  # atno 10764 bound_to 10752
  153.1464  135.4717  154.9510 H   0  0  0  0  0  0  0  0  0  0  0  0  # atno 10765 bound_to 10752
  140.9243  133.7378  156.0846 H   0  0  0  0  0  0  0  0  0  0  0  0  # atno 11005 bound_to 11000
  145.0507  139.3184  143.5930 LP  0  0  0  0  0  0  0  0  0  0  0  0  # atno 17320 bound_to 7965
  146.3502  139.9914  142.8685 LP  0  0  0  0  0  0  0  0  0  0  0  0  # atno 17321 bound_to 7965
  139.8001  143.8095  152.3162 LP  0  0  0  0  0  0  0  0  0  0  0  0  # atno 17342 bound_to 10162
  139.8109  144.7336  150.9698 LP  0  0  0  0  0  0  0  0  0  0  0  0  # atno 17343 bound_to 10162
  156.1474  130.6287  151.0550 LP  0  0  0  0  0  0  0  0  0  0  0  0  # atno 17370 bound_to 10713
  157.6825  131.0834  150.7332 LP  0  0  0  0  0  0  0  0  0  0  0  0  # atno 17371 bound_to 10713
  140.7946  134.3578  157.5455 LP  0  0  0  0  0  0  0  0  0  0  0  0  # atno 17394 bound_to 11000
  139.8782  134.9161  156.3147 LP  0  0  0  0  0  0  0  0  0  0  0  0  # atno 17395 bound_to 11000

$$$$
