AV-unprocessed.smi:203|AV-procd|sdf|1588|dock1
  -GOLD-   2262019483D 1   1.00000     0.00000
 Structure written by MMmdl.
 57 61  0  0  0  0  0  0  0  0  1 V2000
  153.0512  136.7734  159.7202 O   0  0  0  0  0  0  0  0  0  0  0  0
  152.3997  137.5475  159.0231 C   0  0  0  0  0  0  0  0  0  0  0  0
  151.2946  138.4368  159.5664 C   0  0  0  0  0  0  0  0  0  0  0  0
  150.9588  139.3657  158.3830 C   0  0  1  0  0  0  0  0  0  0  0  0
  151.3611  140.8574  158.6122 C   0  0  1  0  0  0  0  0  0  0  0  0
  152.8321  141.0169  159.0804 C   0  0  0  0  0  0  0  0  0  0  0  0
  153.2067  142.4894  159.2931 C   0  0  0  0  0  0  0  0  0  0  0  0
  152.9340  143.2858  158.0130 C   0  0  0  0  0  0  0  0  0  0  0  0
  151.4701  143.1200  157.5851 C   0  0  0  0  0  0  0  0  0  0  0  0
  151.1165  141.7088  157.4335 N   0  0  0  0  0  0  0  0  0  0  0  0
  149.9021  141.5889  156.8522 C   0  0  0  0  0  0  0  0  0  0  0  0
  149.8279  140.8442  155.7218 N   0  0  0  0  0  0  0  0  0  0  0  0
  148.6517  140.6784  155.1089 C   0  0  0  0  0  0  0  0  0  0  0  0
  147.4553  141.1610  155.4520 N   0  0  0  0  0  0  0  0  0  0  0  0
  147.5313  141.9178  156.5846 C   0  0  0  0  0  0  0  0  0  0  0  0
  148.7055  142.1838  157.3426 C   0  0  0  0  0  0  0  0  0  0  0  0
  148.3968  142.9942  158.4286 N   0  0  0  0  0  0  0  0  0  0  0  0
  147.1123  143.1978  158.3176 C   0  0  0  0  0  0  0  0  0  0  0  0
  146.5131  142.5875  157.2393 N   0  0  0  0  0  0  0  0  0  0  0  0
  145.1082  142.6496  156.8782 C   0  0  0  0  0  0  0  0  0  0  0  0
  144.8449  143.6326  155.7172 C   0  0  1  0  0  0  0  0  0  0  0  0
  144.5226  142.9313  154.5327 O   0  0  0  0  0  0  0  0  0  0  0  0
  143.7328  144.6648  155.9966 C   0  0  2  0  0  0  0  0  0  0  0  0
  143.4151  145.5869  154.8150 C   0  0  0  0  0  0  0  0  0  0  0  0
  142.9469  146.8813  155.4666 C   0  0  0  0  0  0  0  0  0  0  0  0
  143.1828  146.6583  156.9610 C   0  0  0  0  0  0  0  0  0  0  0  0
  144.1037  145.5805  157.0167 O   0  0  0  0  0  0  0  0  0  0  0  0
  151.6409  138.7136  157.1589 C   0  0  0  0  0  0  0  0  0  0  0  0
  152.5472  137.7264  157.7123 N   0  0  0  0  0  0  0  0  0  0  0  0
  150.4391  137.8142  159.8313 H   0  0  0  0  0  0  0  0  0  0  0  0
  151.6101  138.9710  160.4626 H   0  0  0  0  0  0  0  0  0  0  0  0
  149.8789  139.3082  158.2435 H   0  0  0  0  0  0  0  0  0  0  0  0
  150.7312  141.2414  159.4152 H   0  0  0  0  0  0  0  0  0  0  0  0
  153.0056  140.4750  160.0094 H   0  0  0  0  0  0  0  0  0  0  0  0
  153.5127  140.5859  158.3461 H   0  0  0  0  0  0  0  0  0  0  0  0
  152.6262  142.9034  160.1186 H   0  0  0  0  0  0  0  0  0  0  0  0
  154.2569  142.5742  159.5736 H   0  0  0  0  0  0  0  0  0  0  0  0
  153.1611  144.3404  158.1701 H   0  0  0  0  0  0  0  0  0  0  0  0
  153.5922  142.9389  157.2152 H   0  0  0  0  0  0  0  0  0  0  0  0
  150.8169  143.5817  158.3272 H   0  0  0  0  0  0  0  0  0  0  0  0
  151.3053  143.6483  156.6447 H   0  0  0  0  0  0  0  0  0  0  0  0
  148.6721  140.0717  154.2157 H   0  0  0  0  0  0  0  0  0  0  0  0
  146.5625  143.8044  159.0228 H   0  0  0  0  0  0  0  0  0  0  0  0
  144.7743  141.6443  156.6181 H   0  0  0  0  0  0  0  0  0  0  0  0
  144.5449  142.9426  157.7642 H   0  0  0  0  0  0  0  0  0  0  0  0
  145.7650  144.1765  155.4999 H   0  0  0  0  0  0  0  0  0  0  0  0
  145.3267  142.7233  154.0813 H   0  0  0  0  0  0  0  0  0  0  0  0
  142.8121  144.1582  156.2948 H   0  0  0  0  0  0  0  0  0  0  0  0
  144.3059  145.7830  154.2178 H   0  0  0  0  0  0  0  0  0  0  0  0
  142.6631  145.1556  154.1538 H   0  0  0  0  0  0  0  0  0  0  0  0
  143.5364  147.7226  155.1005 H   0  0  0  0  0  0  0  0  0  0  0  0
  141.8971  147.0917  155.2592 H   0  0  0  0  0  0  0  0  0  0  0  0
  143.5727  147.5441  157.4633 H   0  0  0  0  0  0  0  0  0  0  0  0
  142.2563  146.3646  157.4569 H   0  0  0  0  0  0  0  0  0  0  0  0
  150.9070  138.2080  156.5301 H   0  0  0  0  0  0  0  0  0  0  0  0
  152.1754  139.4268  156.5314 H   0  0  0  0  0  0  0  0  0  0  0  0
  153.2253  137.2350  157.1479 H   0  0  0  0  0  0  0  0  0  0  0  0
  1  2  2  0  0  0  0
  2 29  1  0  0  0  0
  2  3  1  0  0  0  0
  3  4  1  0  0  0  0
  3 30  1  0  0  0  0
  3 31  1  0  0  0  0
  4  5  1  0  0  0  0
  4 28  1  0  0  0  0
  4 32  1  0  0  0  0
  5 10  1  0  0  0  0
  5  6  1  0  0  0  0
  5 33  1  0  0  0  0
  6  7  1  0  0  0  0
  6 34  1  0  0  0  0
  6 35  1  0  0  0  0
  7  8  1  0  0  0  0
  7 36  1  0  0  0  0
  7 37  1  0  0  0  0
  8  9  1  0  0  0  0
  8 38  1  0  0  0  0
  8 39  1  0  0  0  0
  9 10  1  0  0  0  0
  9 40  1  0  0  0  0
  9 41  1  0  0  0  0
 10 11  1  0  0  0  0
 11 16  1  0  0  0  0
 11 12  2  0  0  0  0
 12 13  1  0  0  0  0
 13 14  2  0  0  0  0
 13 42  1  0  0  0  0
 14 15  1  0  0  0  0
 15 19  1  0  0  0  0
 15 16  2  0  0  0  0
 16 17  1  0  0  0  0
 17 18  2  0  0  0  0
 18 19  1  0  0  0  0
 18 43  1  0  0  0  0
 19 20  1  0  0  0  0
 20 21  1  0  0  0  0
 20 44  1  0  0  0  0
 20 45  1  0  0  0  0
 21 22  1  0  0  0  0
 21 23  1  0  0  0  0
 21 46  1  0  0  0  0
 22 47  1  0  0  0  0
 23 27  1  0  0  0  0
 23 24  1  0  0  0  0
 23 48  1  0  0  0  0
 24 25  1  0  0  0  0
 24 49  1  0  0  0  0
 24 50  1  0  0  0  0
 25 26  1  0  0  0  0
 25 51  1  0  0  0  0
 25 52  1  0  0  0  0
 26 27  1  0  0  0  0
 26 53  1  0  0  0  0
 26 54  1  0  0  0  0
 28 29  1  0  0  0  0
 28 55  1  0  0  0  0
 28 56  1  0  0  0  0
 29 57  1  0  0  0  0
M  END
> <s_m_source_file>
AV-unprocessed.smi

> <i_m_source_file_index>
203

> <i_lp_mmshare_version>
43012

> <i_f3d_flags>
0

> <s_epik_input>
Tz1DMVtDSDJdW0NASF0oW0NIMl1bTkhdMSlbQ0BASF0yW0NIMl1bQ0gyXVtDSDJdW0NIMl1OMmMobltjSF1uMyljKGMzNCluW2NIXW40W0NIMl1bQ0BIXShbT0hdKVtDQEBIXTVbQ0gyXVtDSDJdW0NIMl1PNQ==

> <s_epik_cmdline>
J2VwaWtfcHl0aG9uJywgJy1waCcsICc3LjAnLCAnLXRuJywgJzgnLCAnLW1hJywgJzIwMCcsICctbWV0YWxfYmluZGluZycsICctaW1hZScsICc8aW5maWxlLm1hZT4nLCAnLW9tYWUnLCAnPG91dGZpbGUubWFlPic=

> <r_lp_tautomer_probability>
1

> <r_epik_Ionization_Penalty>
0.00175146

> <r_epik_Ionization_Penalty_Charging>
0

> <r_epik_Ionization_Penalty_Neutral>
0.00175146

> <r_epik_State_Penalty>
0.00109045

> <r_epik_Charging_Adjusted_Penalty>
0.00109045

> <i_epik_Tot_Q>
0

> <i_epik_Tot_abs_Q>
0

> <r_epik_Metal_State_Penalty>
-0

> <b_epik_Metal_Only>
0

> <s_lp_Force_Field>
OPLS_2005

> <r_lp_Energy>
57.1274

> <b_lp_Chiralities_Consistent>
1

> <s_lp_Variant>
AV-unprocessed.smi:203-7

> <Gold.Version>
5.8.1

> <Gold.Id.Protein>
6NUR|6NUR_protein|mol2

> <Gold.PLP.Fitness>
48.1198

> <Gold.PLP.PLP>
-44.4892

> <Gold.PLP.part.hbond>
-3.4715

> <Gold.PLP.part.metal>
0.0000

> <Gold.PLP.part.buried>
-3.8434

> <Gold.PLP.part.nonpolar>
-38.2894

> <Gold.PLP.part.repulsive>
0.5813

> <Gold.PLP.ligand.clash>
0.0000

> <Gold.PLP.ligand.torsion>
1.3324

> <Gold.PLP.Chemscore.Hbond>
1.0000

> <Gold.PLP.Chemscore.CHOScore>
1.0000

> <Gold.PLP.Chemscore.Metal>
0.0000

> <Gold.Chemscore.Hbonds>
donor molecule, donor type, donor heavy atom, donor atom, acceptor molecule, acceptor atom, score
      P1  H  6896  6907       L1     1  0.94

> <Gold.PLP.Chemscore.Internal.Correction>
0.2954

> <Gold.Rescore>
     Score         DG    S(hbond)    S(metal)    S(lipo)     H(rot)  DE(clash)    DE(int)     intcor
     11.66     -13.27       0.93        0.00      99.51       2.72       0.20       1.41       ----

> <Gold.Chemscore.Fitness>
11.6610

> <Gold.Chemscore.DG>
-13.2677

> <Gold.Chemscore.ZeroCoef>
-5.4800

> <Gold.Chemscore.Hbond>
0.9282

> <Gold.Chemscore.Metal>
0.0000

> <Gold.Chemscore.Lipo>
99.5146

> <Gold.Chemscore.Internal_Hbond>
0.0000

> <Gold.Chemscore.DEClash>
0.1951

> <Gold.Chemscore.DEInternal>
1.4116

> <Gold.Chemscore.Rot>
2.7171

> <Gold.Chemscore.Internal.Correction>
   9.000000E+99

> <Gold.Chemscore.Hbonds>
donor molecule, donor type, donor heavy atom, donor atom, acceptor molecule, acceptor atom, score
      P1  H  6896  6907       L1     1  0.83

> <Gold.Chemscore.Hbond.Weighted>
-3.1002

> <Gold.Chemscore.Metal.Weighted>
-0.0000

> <Gold.Chemscore.Lipo.Weighted>
-11.6432

> <Gold.Chemscore.Internal_Hbond.Weighted>
0.0000

> <Gold.Chemscore.DEClash.Weighted>
0.1951

> <Gold.Chemscore.DEInternal.Weighted>
1.4116

> <Gold.Chemscore.Rot.Weighted>
6.9557

> <Gold.Chemscore.Internal.Correction.Weighted>
   9.000000E+99

> <Gold.Protein.RotatedTorsions>
[ 6907 6896 6895 6894 ] final   42.07 input  -60.11 | X-H torsion
[ 7974 7965 7964 7962 ] final  168.79 input  175.53 | X-H torsion
[ 8008 7997 7996 7995 ] final   95.25 input   59.86 | X-H torsion
[ 10167 10162 10161 10158 ] final   56.64 input  -65.29 | X-H torsion
[ 10718 10713 10712 10709 ] final -103.59 input   66.30 | X-H torsion
[ 10763 10752 10751 10750 ] final  -89.17 input  -60.55 | X-H torsion
[ 11005 11000 10999 10996 ] final -176.80 input  -57.11 | X-H torsion

> <Gold.Protein.ActiveResidues>
 VAL166  LYS551  ARG553  GLY616  TRP617  ASP618  TYR619  PRO620  LYS621  CYS622 
 ASP623  PHE694  ASN695  SER759  ASP760  ASP761  ALA762  ILE779  LEU786  VAL792 
 PHE793  MET794  SER795  GLU796  ALA797  LYS798  CYS799  TRP800  GLU811  SER814 

> <Gold.Protein.RotatedAtoms>
  152.2032  134.8569  160.0505 H   0  0  0  0  0  0  0  0  0  0  0  0  # atno 6907 bound_to 6896
  151.9415  133.3634  159.3975 H   0  0  0  0  0  0  0  0  0  0  0  0  # atno 6908 bound_to 6896
  150.6959  134.4359  159.5314 H   0  0  0  0  0  0  0  0  0  0  0  0  # atno 6909 bound_to 6896
  144.7376  139.8960  143.6406 H   0  0  0  0  0  0  0  0  0  0  0  0  # atno 7974 bound_to 7965
  156.0668  140.3289  155.7528 H   0  0  0  0  0  0  0  0  0  0  0  0  # atno 8008 bound_to 7997
  155.5368  140.0598  157.2895 H   0  0  0  0  0  0  0  0  0  0  0  0  # atno 8009 bound_to 7997
  154.4509  140.1918  156.0539 H   0  0  0  0  0  0  0  0  0  0  0  0  # atno 8010 bound_to 7997
  140.2065  144.3933  150.6506 H   0  0  0  0  0  0  0  0  0  0  0  0  # atno 10167 bound_to 10162
  156.0271  130.5474  150.7274 H   0  0  0  0  0  0  0  0  0  0  0  0  # atno 10718 bound_to 10713
  154.6524  135.5350  153.7918 H   0  0  0  0  0  0  0  0  0  0  0  0  # atno 10763 bound_to 10752
  153.0394  135.6485  154.0997 H   0  0  0  0  0  0  0  0  0  0  0  0  # atno 10764 bound_to 10752
  154.0913  135.2940  155.3251 H   0  0  0  0  0  0  0  0  0  0  0  0  # atno 10765 bound_to 10752
  140.4480  134.6370  157.4788 H   0  0  0  0  0  0  0  0  0  0  0  0  # atno 11005 bound_to 11000
  146.1107  139.4112  143.0289 LP  0  0  0  0  0  0  0  0  0  0  0  0  # atno 17320 bound_to 7965
  145.7447  140.9995  143.1282 LP  0  0  0  0  0  0  0  0  0  0  0  0  # atno 17321 bound_to 7965
  140.6353  143.2194  151.6407 LP  0  0  0  0  0  0  0  0  0  0  0  0  # atno 17342 bound_to 10162
  139.5196  144.3248  152.0879 LP  0  0  0  0  0  0  0  0  0  0  0  0  # atno 17343 bound_to 10162
  157.4875  131.0908  151.0465 LP  0  0  0  0  0  0  0  0  0  0  0  0  # atno 17370 bound_to 10713
  157.0881  130.5931  149.5434 LP  0  0  0  0  0  0  0  0  0  0  0  0  # atno 17371 bound_to 10713
  140.0026  134.6813  155.9506 LP  0  0  0  0  0  0  0  0  0  0  0  0  # atno 17394 bound_to 11000
  141.1677  133.6537  156.4537 LP  0  0  0  0  0  0  0  0  0  0  0  0  # atno 17395 bound_to 11000

$$$$
