AV-unprocessed.smi:2638|AV-procd|sdf|10263|dock9
  -GOLD-   2272014273D 1   1.00000     0.00000
 Structure written by MMmdl.
 43 44  0  0  0  0  0  0  0  0  1 V2000
  144.4420  136.5581  152.5743 O   0  0  0  0  0  0  0  0  0  0  0  0
  145.6582  136.4444  152.4230 C   0  0  0  0  0  0  0  0  0  0  0  0
  146.2702  135.4215  151.8011 N   0  0  0  0  0  0  0  0  0  0  0  0
  145.6873  134.2699  151.2079 C   0  0  0  0  0  0  0  0  0  0  0  0
  146.4975  133.2826  150.5891 C   0  0  0  0  0  0  0  0  0  0  0  0
  145.8905  132.1403  150.0323 C   0  0  0  0  0  0  0  0  0  0  0  0
  144.4939  132.0036  150.1178 C   0  0  0  0  0  0  0  0  0  0  0  0
  143.7682  133.0188  150.7665 C   0  0  0  0  0  0  0  0  0  0  0  0
  144.3463  134.1153  151.3013 N   0  0  0  0  0  0  0  0  0  0  0  0
  146.5546  137.3346  152.8802 N   0  0  0  0  0  0  0  0  0  0  0  0
  146.2817  138.5819  153.6059 C   0  0  1  0  0  0  0  0  0  0  0  0
  145.6356  138.2980  154.9876 C   0  0  0  0  0  0  0  0  0  0  0  0
  144.6920  139.4093  155.4805 C   0  0  0  0  0  0  0  0  0  0  0  0
  143.5110  139.4116  154.7082 O   0  0  0  0  0  0  0  0  0  0  0  0
  147.5272  139.5199  153.6573 C   0  0  0  0  0  0  0  0  0  0  0  0
  148.7293  138.8698  154.3862 C   0  0  0  0  0  0  0  0  0  0  0  0
  149.9489  139.8036  154.4558 C   0  0  0  0  0  0  0  0  0  0  0  0
  149.5939  141.1410  155.1167 C   0  0  0  0  0  0  0  0  0  0  0  0
  148.4253  141.8109  154.3842 C   0  0  0  0  0  0  0  0  0  0  0  0
  147.2026  140.8826  154.3221 C   0  0  0  0  0  0  0  0  0  0  0  0
  147.2785  135.4174  151.8448 H   0  0  0  0  0  0  0  0  0  0  0  0
  147.5719  133.3750  150.5429 H   0  0  0  0  0  0  0  0  0  0  0  0
  146.4883  131.3787  149.5535 H   0  0  0  0  0  0  0  0  0  0  0  0
  143.9931  131.1411  149.7035 H   0  0  0  0  0  0  0  0  0  0  0  0
  142.6948  132.9482  150.8616 H   0  0  0  0  0  0  0  0  0  0  0  0
  147.5287  137.1339  152.7074 H   0  0  0  0  0  0  0  0  0  0  0  0
  145.5261  139.0911  153.0064 H   0  0  0  0  0  0  0  0  0  0  0  0
  145.1000  137.3482  154.9628 H   0  0  0  0  0  0  0  0  0  0  0  0
  146.4171  138.1819  155.7373 H   0  0  0  0  0  0  0  0  0  0  0  0
  144.4296  139.2535  156.5273 H   0  0  0  0  0  0  0  0  0  0  0  0
  145.1580  140.3917  155.4015 H   0  0  0  0  0  0  0  0  0  0  0  0
  143.6763  139.8845  153.9068 H   0  0  0  0  0  0  0  0  0  0  0  0
  147.8443  139.7208  152.6331 H   0  0  0  0  0  0  0  0  0  0  0  0
  148.4348  138.5802  155.3957 H   0  0  0  0  0  0  0  0  0  0  0  0
  149.0403  137.9570  153.8802 H   0  0  0  0  0  0  0  0  0  0  0  0
  150.7551  139.3199  155.0079 H   0  0  0  0  0  0  0  0  0  0  0  0
  150.3292  139.9824  153.4491 H   0  0  0  0  0  0  0  0  0  0  0  0
  149.3275  140.9760  156.1614 H   0  0  0  0  0  0  0  0  0  0  0  0
  150.4624  141.8003  155.1172 H   0  0  0  0  0  0  0  0  0  0  0  0
  148.1588  142.7421  154.8849 H   0  0  0  0  0  0  0  0  0  0  0  0
  148.7314  142.0805  153.3725 H   0  0  0  0  0  0  0  0  0  0  0  0
  146.4116  141.4008  153.7804 H   0  0  0  0  0  0  0  0  0  0  0  0
  146.8239  140.7162  155.3313 H   0  0  0  0  0  0  0  0  0  0  0  0
  1  2  2  0  0  0  0
  2  3  1  0  0  0  0
  2 10  1  0  0  0  0
  3  4  1  0  0  0  0
  3 21  1  0  0  0  0
  4  9  1  0  0  0  0
  4  5  2  0  0  0  0
  5  6  1  0  0  0  0
  5 22  1  0  0  0  0
  6  7  2  0  0  0  0
  6 23  1  0  0  0  0
  7  8  1  0  0  0  0
  7 24  1  0  0  0  0
  8  9  2  0  0  0  0
  8 25  1  0  0  0  0
 10 11  1  0  0  0  0
 10 26  1  0  0  0  0
 11 12  1  0  0  0  0
 11 15  1  0  0  0  0
 11 27  1  0  0  0  0
 12 13  1  0  0  0  0
 12 28  1  0  0  0  0
 12 29  1  0  0  0  0
 13 14  1  0  0  0  0
 13 30  1  0  0  0  0
 13 31  1  0  0  0  0
 14 32  1  0  0  0  0
 15 20  1  0  0  0  0
 15 16  1  0  0  0  0
 15 33  1  0  0  0  0
 16 17  1  0  0  0  0
 16 34  1  0  0  0  0
 16 35  1  0  0  0  0
 17 18  1  0  0  0  0
 17 36  1  0  0  0  0
 17 37  1  0  0  0  0
 18 19  1  0  0  0  0
 18 38  1  0  0  0  0
 18 39  1  0  0  0  0
 19 20  1  0  0  0  0
 19 40  1  0  0  0  0
 19 41  1  0  0  0  0
 20 42  1  0  0  0  0
 20 43  1  0  0  0  0
M  END
> <s_m_source_file>
AV-unprocessed.smi

> <i_m_source_file_index>
2638

> <i_lp_mmshare_version>
43012

> <i_f3d_flags>
0

> <s_epik_input>
bjFbY0hdW2NIXVtjSF1bY0hdYzFbTkhdQyg9TylbTkhdW0NASF0oW0NIMl1bQ0gyXVtPSF0pW0NIXTJbQ0gyXVtDSDJdW0NIMl1bQ0gyXVtDSDJdMg==

> <s_epik_cmdline>
J2VwaWtfcHl0aG9uJywgJy1waCcsICc3LjAnLCAnLXRuJywgJzgnLCAnLW1hJywgJzIwMCcsICctbWV0YWxfYmluZGluZycsICctaW1hZScsICc8aW5maWxlLm1hZT4nLCAnLW9tYWUnLCAnPG91dGZpbGUubWFlPic=

> <r_lp_tautomer_probability>
1

> <r_epik_Ionization_Penalty>
5.22449e-05

> <r_epik_Ionization_Penalty_Charging>
0

> <r_epik_Ionization_Penalty_Neutral>
5.22449e-05

> <r_epik_State_Penalty>
-0

> <r_epik_Charging_Adjusted_Penalty>
0

> <i_epik_Tot_Q>
0

> <i_epik_Tot_abs_Q>
0

> <r_epik_Metal_State_Penalty>
-0

> <b_epik_Metal_Only>
0

> <s_lp_Force_Field>
OPLS_2005

> <r_lp_Energy>
21.512

> <b_lp_Chiralities_Consistent>
1

> <s_lp_Variant>
AV-unprocessed.smi:2638-2

> <Gold.Version>
5.8.1

> <Gold.Id.Protein>
6NUR|6NUR_protein|mol2

> <Gold.PLP.Fitness>
45.7781

> <Gold.PLP.PLP>
-34.7963

> <Gold.PLP.part.hbond>
-2.8222

> <Gold.PLP.part.metal>
0.0000

> <Gold.PLP.part.buried>
-2.3582

> <Gold.PLP.part.nonpolar>
-28.9738

> <Gold.PLP.part.repulsive>
0.3919

> <Gold.PLP.ligand.clash>
0.0000

> <Gold.PLP.ligand.torsion>
0.4434

> <Gold.PLP.Chemscore.Hbond>
3.0000

> <Gold.PLP.Chemscore.CHOScore>
0.9189

> <Gold.PLP.Chemscore.Metal>
0.0000

> <Gold.Chemscore.Hbonds>
donor molecule, donor type, donor heavy atom, donor atom, acceptor molecule, acceptor atom, score
      L1  H     3    21       P1  7948  1.00
      L1  H    10    26       P1  7948  1.00
      L1  H    14    32       P1 10175  0.98
      L1  C     8    25       P1 10186  0.76

> <Gold.PLP.Chemscore.Internal.Correction>
0.1120

> <Gold.Rescore>
     Score         DG    S(hbond)    S(metal)    S(lipo)     H(rot)  DE(clash)    DE(int)     intcor
     17.31     -19.29       2.94        0.00      84.39       2.30       0.03       1.95       ----

> <Gold.Chemscore.Fitness>
17.3082

> <Gold.Chemscore.DG>
-19.2924

> <Gold.Chemscore.ZeroCoef>
-5.4800

> <Gold.Chemscore.Hbond>
2.9401

> <Gold.Chemscore.Metal>
0.0000

> <Gold.Chemscore.Lipo>
84.3860

> <Gold.Chemscore.Internal_Hbond>
0.0000

> <Gold.Chemscore.DEClash>
0.0299

> <Gold.Chemscore.DEInternal>
1.9543

> <Gold.Chemscore.Rot>
2.2972

> <Gold.Chemscore.Internal.Correction>
   9.000000E+99

> <Gold.Chemscore.Hbonds>
donor molecule, donor type, donor heavy atom, donor atom, acceptor molecule, acceptor atom, score
      L1  H     3    21       P1  7948  0.98
      L1  H    10    26       P1  7948  0.97
      L1  H    14    32       P1 10175  0.91

> <Gold.Chemscore.Hbond.Weighted>
-9.8200

> <Gold.Chemscore.Metal.Weighted>
-0.0000

> <Gold.Chemscore.Lipo.Weighted>
-9.8732

> <Gold.Chemscore.Internal_Hbond.Weighted>
0.0000

> <Gold.Chemscore.DEClash.Weighted>
0.0299

> <Gold.Chemscore.DEInternal.Weighted>
1.9543

> <Gold.Chemscore.Rot.Weighted>
5.8807

> <Gold.Chemscore.Internal.Correction.Weighted>
   9.000000E+99

> <Gold.Protein.RotatedTorsions>
[ 6907 6896 6895 6894 ] final   -8.58 input  -60.11 | X-H torsion
[ 7974 7965 7964 7962 ] final   39.66 input  175.53 | X-H torsion
[ 8008 7997 7996 7995 ] final  130.57 input   59.86 | X-H torsion
[ 10167 10162 10161 10158 ] final  120.60 input  -65.29 | X-H torsion
[ 10718 10713 10712 10709 ] final   77.05 input   66.30 | X-H torsion
[ 10763 10752 10751 10750 ] final   55.24 input  -60.55 | X-H torsion
[ 11005 11000 10999 10996 ] final  -98.55 input  -57.11 | X-H torsion

> <Gold.Protein.ActiveResidues>
 VAL166  LYS551  ARG553  GLY616  TRP617  ASP618  TYR619  PRO620  LYS621  CYS622 
 ASP623  PHE694  ASN695  SER759  ASP760  ASP761  ALA762  ILE779  LEU786  VAL792 
 PHE793  MET794  SER795  GLU796  ALA797  LYS798  CYS799  TRP800  GLU811  SER814 

> <Gold.Protein.RotatedAtoms>
  151.4314  135.1010  159.9643 H   0  0  0  0  0  0  0  0  0  0  0  0  # atno 6907 bound_to 6896
  152.4955  133.8614  159.7262 H   0  0  0  0  0  0  0  0  0  0  0  0  # atno 6908 bound_to 6896
  150.9152  133.6889  159.2873 H   0  0  0  0  0  0  0  0  0  0  0  0  # atno 6909 bound_to 6896
  146.0966  139.5625  142.9441 H   0  0  0  0  0  0  0  0  0  0  0  0  # atno 7974 bound_to 7965
  156.2956  140.2593  156.2783 H   0  0  0  0  0  0  0  0  0  0  0  0  # atno 8008 bound_to 7997
  154.9627  140.0392  157.2216 H   0  0  0  0  0  0  0  0  0  0  0  0  # atno 8009 bound_to 7997
  154.7932  140.2815  155.5981 H   0  0  0  0  0  0  0  0  0  0  0  0  # atno 8010 bound_to 7997
  139.5972  144.7045  151.3149 H   0  0  0  0  0  0  0  0  0  0  0  0  # atno 10167 bound_to 10162
  157.6696  130.9803  150.1585 H   0  0  0  0  0  0  0  0  0  0  0  0  # atno 10718 bound_to 10713
  152.9814  135.5717  154.5034 H   0  0  0  0  0  0  0  0  0  0  0  0  # atno 10763 bound_to 10752
  154.4550  135.2779  155.1756 H   0  0  0  0  0  0  0  0  0  0  0  0  # atno 10764 bound_to 10752
  154.3368  135.6238  153.5631 H   0  0  0  0  0  0  0  0  0  0  0  0  # atno 10765 bound_to 10752
  141.1341  133.8253  157.0854 H   0  0  0  0  0  0  0  0  0  0  0  0  # atno 11005 bound_to 11000
  145.5935  141.0366  143.2057 LP  0  0  0  0  0  0  0  0  0  0  0  0  # atno 17320 bound_to 7965
  144.7400  139.7475  143.7314 LP  0  0  0  0  0  0  0  0  0  0  0  0  # atno 17321 bound_to 7965
  140.7221  143.7107  150.7772 LP  0  0  0  0  0  0  0  0  0  0  0  0  # atno 17342 bound_to 10162
  140.0676  143.5093  152.2596 LP  0  0  0  0  0  0  0  0  0  0  0  0  # atno 17343 bound_to 10162
  156.2367  130.3687  149.8383 LP  0  0  0  0  0  0  0  0  0  0  0  0  # atno 17370 bound_to 10713
  156.6195  130.8620  151.3472 LP  0  0  0  0  0  0  0  0  0  0  0  0  # atno 17371 bound_to 10713
  140.0425  134.9847  157.0989 LP  0  0  0  0  0  0  0  0  0  0  0  0  # atno 17394 bound_to 11000
  140.4113  134.1979  155.7163 LP  0  0  0  0  0  0  0  0  0  0  0  0  # atno 17395 bound_to 11000

$$$$
