AV-unprocessed.smi:2336|AV-procd|sdf|9327|dock8
  -GOLD-   2272012543D 1   1.00000     0.00000
 Structure written by MMmdl.
 50 51  0  0  0  0  0  0  0  0  2 V2000
  149.2096  138.5579  157.1512 C   0  0  0  0  0  0  0  0  0  0  0  0
  149.4191  137.9572  155.7495 C   0  0  0  0  0  0  0  0  0  0  0  0
  150.7264  137.1472  155.6856 C   0  0  0  0  0  0  0  0  0  0  0  0
  149.2715  138.9962  154.5836 C   0  0  2  0  0  0  0  0  0  0  0  0
  150.4467  140.0247  154.5196 C   0  0  0  0  0  0  0  0  0  0  0  0
  150.5902  140.8164  155.7354 N   0  0  0  0  0  0  0  0  0  0  0  0
  151.5807  140.6703  156.6277 C   0  0  0  0  0  0  0  0  0  0  0  0
  152.4835  139.8423  156.5026 O   0  0  0  0  0  0  0  0  0  0  0  0
  151.4332  141.5201  157.6584 N   0  0  0  0  0  0  0  0  0  0  0  0
  152.2334  141.6643  158.8253 C   0  0  0  0  0  0  0  0  0  0  0  0
  152.9620  140.6124  159.4326 C   0  0  0  0  0  0  0  0  0  0  0  0
  153.7248  140.8964  160.5831 C   0  0  0  0  0  0  0  0  0  0  0  0
  153.8076  142.1241  161.1377 N   0  0  0  0  0  0  0  0  0  0  0  0
  153.1230  143.1270  160.5489 C   0  0  0  0  0  0  0  0  0  0  0  0
  152.3294  142.9506  159.3978 C   0  0  0  0  0  0  0  0  0  0  0  0
  151.6703  144.0027  158.8546 F   0  0  0  0  0  0  0  0  0  0  0  0
  147.9390  139.6432  154.6661 N   0  0  0  0  0  0  0  0  0  0  0  0
  147.6469  140.7273  153.7163 C   0  0  0  0  0  0  0  0  0  0  0  0
  147.5124  140.2027  152.2707 C   0  0  0  0  0  0  0  0  0  0  0  0
  146.4003  139.2302  152.1870 N   0  3  0  0  0  0  0  0  0  0  0  0
  146.1774  138.7323  150.8130 C   0  0  0  0  0  0  0  0  0  0  0  0
  146.5914  138.1381  153.1681 C   0  0  0  0  0  0  0  0  0  0  0  0
  146.7989  138.7108  154.5889 C   0  0  0  0  0  0  0  0  0  0  0  0
  150.0178  139.2338  157.4304 H   0  0  0  0  0  0  0  0  0  0  0  0
  149.1701  137.7732  157.9073 H   0  0  0  0  0  0  0  0  0  0  0  0
  148.2721  139.1116  157.2067 H   0  0  0  0  0  0  0  0  0  0  0  0
  148.6458  137.2001  155.6531 H   0  0  0  0  0  0  0  0  0  0  0  0
  151.5971  137.7369  155.9661 H   0  0  0  0  0  0  0  0  0  0  0  0
  150.8967  136.7479  154.6854 H   0  0  0  0  0  0  0  0  0  0  0  0
  150.6868  136.2996  156.3705 H   0  0  0  0  0  0  0  0  0  0  0  0
  149.2980  138.4480  153.6437 H   0  0  0  0  0  0  0  0  0  0  0  0
  151.4090  139.5373  154.3692 H   0  0  0  0  0  0  0  0  0  0  0  0
  150.3260  140.7025  153.6746 H   0  0  0  0  0  0  0  0  0  0  0  0
  149.8836  141.5160  155.9117 H   0  0  0  0  0  0  0  0  0  0  0  0
  150.6049  142.0971  157.6382 H   0  0  0  0  0  0  0  0  0  0  0  0
  152.9638  139.6070  159.0426 H   0  0  0  0  0  0  0  0  0  0  0  0
  154.2904  140.1143  161.0678 H   0  0  0  0  0  0  0  0  0  0  0  0
  153.2110  144.1007  161.0078 H   0  0  0  0  0  0  0  0  0  0  0  0
  146.7104  141.2022  154.0121 H   0  0  0  0  0  0  0  0  0  0  0  0
  148.3894  141.5215  153.7816 H   0  0  0  0  0  0  0  0  0  0  0  0
  147.3096  141.0376  151.5994 H   0  0  0  0  0  0  0  0  0  0  0  0
  148.4375  139.7383  151.9267 H   0  0  0  0  0  0  0  0  0  0  0  0
  147.0482  138.1854  150.4485 H   0  0  0  0  0  0  0  0  0  0  0  0
  145.9829  139.5605  150.1308 H   0  0  0  0  0  0  0  0  0  0  0  0
  145.3157  138.0648  150.7813 H   0  0  0  0  0  0  0  0  0  0  0  0
  145.7064  137.5010  153.1644 H   0  0  0  0  0  0  0  0  0  0  0  0
  147.4258  137.5040  152.8674 H   0  0  0  0  0  0  0  0  0  0  0  0
  146.8883  137.8891  155.2951 H   0  0  0  0  0  0  0  0  0  0  0  0
  145.8982  139.2472  154.8909 H   0  0  0  0  0  0  0  0  0  0  0  0
  145.5631  139.7242  152.4612 H   0  0  0  0  0  0  0  0  0  0  0  0
  1  2  1  0  0  0  0
  1 24  1  0  0  0  0
  1 25  1  0  0  0  0
  1 26  1  0  0  0  0
  2  3  1  0  0  0  0
  2  4  1  0  0  0  0
  2 27  1  0  0  0  0
  3 28  1  0  0  0  0
  3 29  1  0  0  0  0
  3 30  1  0  0  0  0
  4  5  1  0  0  0  0
  4 17  1  0  0  0  0
  4 31  1  0  0  0  0
  5  6  1  0  0  0  0
  5 32  1  0  0  0  0
  5 33  1  0  0  0  0
  6  7  1  0  0  0  0
  6 34  1  0  0  0  0
  7  8  2  0  0  0  0
  7  9  1  0  0  0  0
  9 10  1  0  0  0  0
  9 35  1  0  0  0  0
 10 15  1  0  0  0  0
 10 11  2  0  0  0  0
 11 12  1  0  0  0  0
 11 36  1  0  0  0  0
 12 13  2  0  0  0  0
 12 37  1  0  0  0  0
 13 14  1  0  0  0  0
 14 15  2  0  0  0  0
 14 38  1  0  0  0  0
 15 16  1  0  0  0  0
 17 23  1  0  0  0  0
 17 18  1  0  0  0  0
 18 19  1  0  0  0  0
 18 39  1  0  0  0  0
 18 40  1  0  0  0  0
 19 20  1  0  0  0  0
 19 41  1  0  0  0  0
 19 42  1  0  0  0  0
 20 21  1  0  0  0  0
 20 22  1  0  0  0  0
 20 50  1  0  0  0  0
 21 43  1  0  0  0  0
 21 44  1  0  0  0  0
 21 45  1  0  0  0  0
 22 23  1  0  0  0  0
 22 46  1  0  0  0  0
 22 47  1  0  0  0  0
 23 48  1  0  0  0  0
 23 49  1  0  0  0  0
M  CHG  1  20   1
M  END
> <s_m_source_file>
AV-unprocessed.smi

> <i_m_source_file_index>
2336

> <i_lp_mmshare_version>
43012

> <i_f3d_flags>
0

> <s_epik_input>
W0NIMl0xW0NIMl1OKFtDSDNdKVtDSDJdW0NIMl1OMVtDQEhdKFtDSF0oW0NIM10pW0NIM10pW0NIMl1bTkhdQyg9TylbTkhdYzJbY0hdW2NIXW5bY0hdYzJG

> <s_epik_cmdline>
J2VwaWtfcHl0aG9uJywgJy1waCcsICc3LjAnLCAnLXRuJywgJzgnLCAnLW1hJywgJzIwMCcsICctbWV0YWxfYmluZGluZycsICctaW1hZScsICc8aW5maWxlLm1hZT4nLCAnLW9tYWUnLCAnPG91dGZpbGUubWFlPic=

> <r_epik_Ionization_Penalty>
0.0313013

> <r_epik_Ionization_Penalty_Charging>
0.0272987

> <r_epik_Ionization_Penalty_Neutral>
0.00400259

> <r_epik_State_Penalty>
0.0776825

> <r_epik_Charging_Adjusted_Penalty>
0.104981

> <i_epik_Tot_Q>
1

> <i_epik_Tot_abs_Q>
1

> <r_epik_Metal_State_Penalty>
0.0776139

> <b_epik_Metal_Only>
0

> <s_lp_Force_Field>
OPLS_2005

> <r_lp_Energy>
31.6665

> <b_lp_Chiralities_Consistent>
1

> <s_lp_Variant>
AV-unprocessed.smi:2336-1

> <Gold.Version>
5.8.1

> <Gold.Id.Protein>
6NUR|6NUR_protein|mol2

> <Gold.PLP.Fitness>
41.1119

> <Gold.PLP.PLP>
-32.6716

> <Gold.PLP.part.hbond>
-2.0000

> <Gold.PLP.part.metal>
0.0000

> <Gold.PLP.part.buried>
7.0723

> <Gold.PLP.part.nonpolar>
-36.8274

> <Gold.PLP.part.repulsive>
0.3139

> <Gold.PLP.ligand.clash>
0.0000

> <Gold.PLP.ligand.torsion>
0.3580

> <Gold.PLP.Chemscore.Hbond>
3.0000

> <Gold.PLP.Chemscore.CHOScore>
0.0000

> <Gold.PLP.Chemscore.Metal>
0.0000

> <Gold.Chemscore.Hbonds>
donor molecule, donor type, donor heavy atom, donor atom, acceptor molecule, acceptor atom, score
      L1  H    20    50       P1 10175  2.00
      P1  H  7997  8009       L1     8  1.00

> <Gold.PLP.Chemscore.Internal.Correction>
0.1562

> <Gold.Rescore>
     Score         DG    S(hbond)    S(metal)    S(lipo)     H(rot)  DE(clash)    DE(int)     intcor
     14.79     -20.76       1.96        0.00     111.34       1.67       4.87       1.10       ----

> <Gold.Chemscore.Fitness>
14.7878

> <Gold.Chemscore.DG>
-20.7554

> <Gold.Chemscore.ZeroCoef>
-5.4800

> <Gold.Chemscore.Hbond>
1.9561

> <Gold.Chemscore.Metal>
0.0000

> <Gold.Chemscore.Lipo>
111.3436

> <Gold.Chemscore.Internal_Hbond>
0.0000

> <Gold.Chemscore.DEClash>
4.8700

> <Gold.Chemscore.DEInternal>
1.0975

> <Gold.Chemscore.Rot>
1.6739

> <Gold.Chemscore.Internal.Correction>
   9.000000E+99

> <Gold.Chemscore.Hbonds>
donor molecule, donor type, donor heavy atom, donor atom, acceptor molecule, acceptor atom, score
      L1  H    20    50       P1 10175  0.93
      P1  H  7997  8009       L1     8  0.99

> <Gold.Chemscore.Hbond.Weighted>
-6.5333

> <Gold.Chemscore.Metal.Weighted>
-0.0000

> <Gold.Chemscore.Lipo.Weighted>
-13.0272

> <Gold.Chemscore.Internal_Hbond.Weighted>
0.0000

> <Gold.Chemscore.DEClash.Weighted>
4.8700

> <Gold.Chemscore.DEInternal.Weighted>
1.0975

> <Gold.Chemscore.Rot.Weighted>
4.2851

> <Gold.Chemscore.Internal.Correction.Weighted>
   9.000000E+99

> <Gold.Protein.RotatedTorsions>
[ 6907 6896 6895 6894 ] final -114.52 input  -60.11 | X-H torsion
[ 7974 7965 7964 7962 ] final   18.76 input  175.53 | X-H torsion
[ 8008 7997 7996 7995 ] final -156.47 input   59.86 | X-H torsion
[ 10167 10162 10161 10158 ] final  137.14 input  -65.29 | X-H torsion
[ 10718 10713 10712 10709 ] final  -15.25 input   66.30 | X-H torsion
[ 10763 10752 10751 10750 ] final  166.58 input  -60.55 | X-H torsion
[ 11005 11000 10999 10996 ] final   15.60 input  -57.11 | X-H torsion

> <Gold.Protein.ActiveResidues>
 VAL166  LYS551  ARG553  GLY616  TRP617  ASP618  TYR619  PRO620  LYS621  CYS622 
 ASP623  PHE694  ASN695  SER759  ASP760  ASP761  ALA762  ILE779  LEU786  VAL792 
 PHE793  MET794  SER795  GLU796  ALA797  LYS798  CYS799  TRP800  GLU811  SER814 

> <Gold.Protein.RotatedAtoms>
  150.7908  133.8790  159.3280 H   0  0  0  0  0  0  0  0  0  0  0  0  # atno 6907 bound_to 6896
  151.6628  135.0985  160.0192 H   0  0  0  0  0  0  0  0  0  0  0  0  # atno 6908 bound_to 6896
  152.3982  133.6739  159.6329 H   0  0  0  0  0  0  0  0  0  0  0  0  # atno 6909 bound_to 6896
  146.2174  139.8411  142.8641 H   0  0  0  0  0  0  0  0  0  0  0  0  # atno 7974 bound_to 7965
  155.7176  140.0786  157.2344 H   0  0  0  0  0  0  0  0  0  0  0  0  # atno 8008 bound_to 7997
  154.4049  140.1618  156.2420 H   0  0  0  0  0  0  0  0  0  0  0  0  # atno 8009 bound_to 7997
  155.9226  140.3397  155.6187 H   0  0  0  0  0  0  0  0  0  0  0  0  # atno 8010 bound_to 7997
  139.5155  144.6426  151.5527 H   0  0  0  0  0  0  0  0  0  0  0  0  # atno 10167 bound_to 10162
  156.6045  130.4833  149.6226 H   0  0  0  0  0  0  0  0  0  0  0  0  # atno 10718 bound_to 10713
  154.3411  135.2754  155.2422 H   0  0  0  0  0  0  0  0  0  0  0  0  # atno 10763 bound_to 10752
  154.4692  135.5887  153.6313 H   0  0  0  0  0  0  0  0  0  0  0  0  # atno 10764 bound_to 10752
  152.9857  135.6084  154.3612 H   0  0  0  0  0  0  0  0  0  0  0  0  # atno 10765 bound_to 10752
  140.4565  134.1171  155.7710 H   0  0  0  0  0  0  0  0  0  0  0  0  # atno 11005 bound_to 11000
  145.2898  141.0164  143.3669 LP  0  0  0  0  0  0  0  0  0  0  0  0  # atno 17320 bound_to 7965
  144.9086  139.4557  143.6598 LP  0  0  0  0  0  0  0  0  0  0  0  0  # atno 17321 bound_to 7965
  140.6199  143.9278  150.6518 LP  0  0  0  0  0  0  0  0  0  0  0  0  # atno 17342 bound_to 10162
  140.2548  143.3566  152.1374 LP  0  0  0  0  0  0  0  0  0  0  0  0  # atno 17343 bound_to 10162
  156.2441  130.6869  151.1584 LP  0  0  0  0  0  0  0  0  0  0  0  0  # atno 17370 bound_to 10713
  157.7271  131.0642  150.5881 LP  0  0  0  0  0  0  0  0  0  0  0  0  # atno 17371 bound_to 10713
  141.1640  133.8737  157.1766 LP  0  0  0  0  0  0  0  0  0  0  0  0  # atno 17394 bound_to 11000
  139.9973  135.0042  157.0111 LP  0  0  0  0  0  0  0  0  0  0  0  0  # atno 17395 bound_to 11000

$$$$
