AV-unprocessed.smi:21|AV-procd|sdf|143|dock8
  -GOLD-   2262015353D 1   1.00000     0.00000
 Structure written by MMmdl.
 62 65  0  0  0  0  0  0  0  0  2 V2000
  144.0091  132.3996  150.8368 C   0  0  0  0  0  0  0  0  0  0  0  0
  144.1328  133.6571  151.4822 O   0  0  0  0  0  0  0  0  0  0  0  0
  145.2929  134.3855  151.1018 C   0  0  1  0  0  0  0  0  0  0  0  0
  145.0552  135.8584  151.4078 C   0  0  0  0  0  0  0  0  0  0  0  0
  145.4073  135.9828  152.8933 C   0  0  2  0  0  0  0  0  0  0  0  0
  145.7927  137.4115  153.3321 C   0  0  0  0  0  0  0  0  0  0  0  0
  145.4885  137.6752  154.7389 N   0  0  0  0  0  0  0  0  0  0  0  0
  144.1006  137.5980  155.1760 C   0  0  0  0  0  0  0  0  0  0  0  0
  146.3769  138.4029  155.4669 C   0  0  0  0  0  0  0  0  0  0  0  0
  146.0210  138.7572  156.7294 N   0  0  0  0  0  0  0  0  0  0  0  0
  146.8551  139.4617  157.4983 C   0  0  0  0  0  0  0  0  0  0  0  0
  148.0817  139.8978  157.2129 N   0  0  0  0  0  0  0  0  0  0  0  0
  148.4571  139.5367  155.9532 C   0  0  0  0  0  0  0  0  0  0  0  0
  147.6708  138.8046  155.0168 C   0  0  0  0  0  0  0  0  0  0  0  0
  148.3943  138.6272  153.8430 N   0  0  0  0  0  0  0  0  0  0  0  0
  149.5312  139.2245  154.0684 C   0  0  0  0  0  0  0  0  0  0  0  0
  149.6651  139.7801  155.3203 N   0  0  0  0  0  0  0  0  0  0  0  0
  150.8253  140.4900  155.8421 C   0  0  0  0  0  0  0  0  0  0  0  0
  151.0477  140.3241  157.3715 C   0  0  1  0  0  0  0  0  0  0  0  0
  151.7091  138.9706  157.7228 C   0  0  0  0  0  0  0  0  0  0  0  0
  152.9674  138.8477  157.0936 O   0  0  0  0  0  0  0  0  0  0  0  0
  151.8293  141.5139  157.9893 C   0  0  2  0  0  0  0  0  0  0  0  0
  151.9724  141.4767  159.5021 C   0  0  0  0  0  0  0  0  0  0  0  0
  152.3067  142.9262  159.8433 C   0  0  0  0  0  0  0  0  0  0  0  0
  151.7114  143.7177  158.8211 O   0  0  0  0  0  0  0  0  0  0  0  0
  151.1430  142.8742  157.8269 C   0  0  0  0  0  0  0  0  0  0  0  0
  146.5253  135.0324  153.0943 N   0  3  1  0  0  0  0  0  0  0  0  0
  146.5800  134.4390  154.4484 C   0  0  0  0  0  0  0  0  0  0  0  0
  146.4826  134.0264  152.0053 C   0  0  0  0  0  0  0  0  0  0  0  0
  145.5108  134.2391  150.0423 H   0  0  0  0  0  0  0  0  0  0  0  0
  144.5523  135.6329  153.4749 H   0  0  0  0  0  0  0  0  0  0  0  0
  143.1062  131.8994  151.1868 H   0  0  0  0  0  0  0  0  0  0  0  0
  144.8558  131.7473  151.0506 H   0  0  0  0  0  0  0  0  0  0  0  0
  143.9262  132.5194  149.7559 H   0  0  0  0  0  0  0  0  0  0  0  0
  145.7343  136.4674  150.8093 H   0  0  0  0  0  0  0  0  0  0  0  0
  144.0367  136.1762  151.1819 H   0  0  0  0  0  0  0  0  0  0  0  0
  146.8654  137.5536  153.1989 H   0  0  0  0  0  0  0  0  0  0  0  0
  145.3222  138.1456  152.6776 H   0  0  0  0  0  0  0  0  0  0  0  0
  144.0372  137.4647  156.2566 H   0  0  0  0  0  0  0  0  0  0  0  0
  143.6016  136.7486  154.7092 H   0  0  0  0  0  0  0  0  0  0  0  0
  143.5560  138.5018  154.9011 H   0  0  0  0  0  0  0  0  0  0  0  0
  146.4886  139.7085  158.4839 H   0  0  0  0  0  0  0  0  0  0  0  0
  150.3101  139.2652  153.3219 H   0  0  0  0  0  0  0  0  0  0  0  0
  151.7041  140.1523  155.2926 H   0  0  0  0  0  0  0  0  0  0  0  0
  150.7186  141.5458  155.5910 H   0  0  0  0  0  0  0  0  0  0  0  0
  150.0589  140.3215  157.8330 H   0  0  0  0  0  0  0  0  0  0  0  0
  151.8210  138.8484  158.8000 H   0  0  0  0  0  0  0  0  0  0  0  0
  151.1023  138.1359  157.3741 H   0  0  0  0  0  0  0  0  0  0  0  0
  152.8457  138.4332  156.2532 H   0  0  0  0  0  0  0  0  0  0  0  0
  152.8303  141.5665  157.5588 H   0  0  0  0  0  0  0  0  0  0  0  0
  151.0265  141.1936  159.9667 H   0  0  0  0  0  0  0  0  0  0  0  0
  152.7421  140.7858  159.8472 H   0  0  0  0  0  0  0  0  0  0  0  0
  151.9430  143.2125  160.8305 H   0  0  0  0  0  0  0  0  0  0  0  0
  153.3854  143.0857  159.8200 H   0  0  0  0  0  0  0  0  0  0  0  0
  151.2711  143.3044  156.8347 H   0  0  0  0  0  0  0  0  0  0  0  0
  150.0724  142.7907  158.0192 H   0  0  0  0  0  0  0  0  0  0  0  0
  145.6892  133.8428  154.6514 H   0  0  0  0  0  0  0  0  0  0  0  0
  146.6531  135.2159  155.2095 H   0  0  0  0  0  0  0  0  0  0  0  0
  147.4532  133.7931  154.5452 H   0  0  0  0  0  0  0  0  0  0  0  0
  146.4268  133.0040  152.3805 H   0  0  0  0  0  0  0  0  0  0  0  0
  147.4138  134.1103  151.4444 H   0  0  0  0  0  0  0  0  0  0  0  0
  147.3782  135.5564  152.9599 H   0  0  0  0  0  0  0  0  0  0  0  0
  1  2  1  0  0  0  0
  1 32  1  0  0  0  0
  1 33  1  0  0  0  0
  1 34  1  0  0  0  0
  2  3  1  0  0  0  0
  3 30  1  0  0  0  0
  3 29  1  0  0  0  0
  3  4  1  0  0  0  0
  4  5  1  0  0  0  0
  4 35  1  0  0  0  0
  4 36  1  0  0  0  0
  5 31  1  0  0  0  0
  5  6  1  0  0  0  0
  5 27  1  0  0  0  0
  6  7  1  0  0  0  0
  6 37  1  0  0  0  0
  6 38  1  0  0  0  0
  7  8  1  0  0  0  0
  7  9  1  0  0  0  0
  8 39  1  0  0  0  0
  8 40  1  0  0  0  0
  8 41  1  0  0  0  0
  9 14  1  0  0  0  0
  9 10  2  0  0  0  0
 10 11  1  0  0  0  0
 11 12  2  0  0  0  0
 11 42  1  0  0  0  0
 12 13  1  0  0  0  0
 13 17  1  0  0  0  0
 13 14  2  0  0  0  0
 14 15  1  0  0  0  0
 15 16  2  0  0  0  0
 16 17  1  0  0  0  0
 16 43  1  0  0  0  0
 17 18  1  0  0  0  0
 18 19  1  0  0  0  0
 18 44  1  0  0  0  0
 18 45  1  0  0  0  0
 19 20  1  0  0  0  0
 19 22  1  0  0  0  0
 19 46  1  0  0  0  0
 20 21  1  0  0  0  0
 20 47  1  0  0  0  0
 20 48  1  0  0  0  0
 21 49  1  0  0  0  0
 22 26  1  0  0  0  0
 22 23  1  0  0  0  0
 22 50  1  0  0  0  0
 23 24  1  0  0  0  0
 23 51  1  0  0  0  0
 23 52  1  0  0  0  0
 24 25  1  0  0  0  0
 24 53  1  0  0  0  0
 24 54  1  0  0  0  0
 25 26  1  0  0  0  0
 26 55  1  0  0  0  0
 26 56  1  0  0  0  0
 27 28  1  0  0  0  0
 27 29  1  0  0  0  0
 27 62  1  0  0  0  0
 28 57  1  0  0  0  0
 28 58  1  0  0  0  0
 28 59  1  0  0  0  0
 29 60  1  0  0  0  0
 29 61  1  0  0  0  0
M  CHG  1  27   1
M  END
> <s_m_source_file>
AV-unprocessed.smi

> <i_m_source_file_index>
21

> <i_lp_mmshare_version>
43012

> <i_f3d_flags>
0

> <s_epik_input>
W0NIM11PW0NASF0xW0NIMl1bQ0BIXShOKFtDSDNdKVtDSDJdMSlbQ0gyXU4oW0NIM10pYyhuW2NIXW4yKWMoYzIzKW5bY0hdbjNbQ0gyXVtDQEhdKFtDSDJdW09IXSlbQ0BASF00W0NIMl1bQ0gyXU9bQ0gyXTQ=

> <s_epik_cmdline>
J2VwaWtfcHl0aG9uJywgJy1waCcsICc3LjAnLCAnLXRuJywgJzgnLCAnLW1hJywgJzIwMCcsICctbWV0YWxfYmluZGluZycsICctaW1hZScsICc8aW5maWxlLm1hZT4nLCAnLW9tYWUnLCAnPG91dGZpbGUubWFlPic=

> <r_lp_tautomer_probability>
1

> <r_epik_Ionization_Penalty>
0.0157465

> <r_epik_Ionization_Penalty_Charging>
0.015354

> <r_epik_Ionization_Penalty_Neutral>
0.000392529

> <r_epik_State_Penalty>
0.0120612

> <r_epik_Charging_Adjusted_Penalty>
0.0274152

> <i_epik_Tot_Q>
1

> <i_epik_Tot_abs_Q>
1

> <r_epik_Metal_State_Penalty>
0.0121253

> <b_epik_Metal_Only>
0

> <s_lp_Force_Field>
OPLS_2005

> <r_lp_Energy>
58.9185

> <b_lp_Chiralities_Consistent>
1

> <s_lp_Variant>
AV-unprocessed.smi:21-23

> <Gold.Version>
5.8.1

> <Gold.Id.Protein>
6NUR|6NUR_protein|mol2

> <Gold.PLP.Fitness>
44.8298

> <Gold.PLP.PLP>
-35.9144

> <Gold.PLP.part.hbond>
-2.0000

> <Gold.PLP.part.metal>
0.0000

> <Gold.PLP.part.buried>
-5.0985

> <Gold.PLP.part.nonpolar>
-29.8043

> <Gold.PLP.part.repulsive>
0.3936

> <Gold.PLP.ligand.clash>
0.0000

> <Gold.PLP.ligand.torsion>
1.4801

> <Gold.PLP.Chemscore.Hbond>
3.0000

> <Gold.PLP.Chemscore.CHOScore>
0.7145

> <Gold.PLP.Chemscore.Metal>
0.0000

> <Gold.Chemscore.Hbonds>
donor molecule, donor type, donor heavy atom, donor atom, acceptor molecule, acceptor atom, score
      L1  H    27    62       P1  7948  2.00
      P1  H  7997  8008       L1    21  1.00
      L1  C    16    43       P1  7957  0.72

> <Gold.PLP.Chemscore.Internal.Correction>
0.7323

> <Gold.Rescore>
     Score         DG    S(hbond)    S(metal)    S(lipo)     H(rot)  DE(clash)    DE(int)     intcor
     11.29     -14.13       1.94        0.00      85.92       3.08       0.16       2.68       ----

> <Gold.Chemscore.Fitness>
11.2868

> <Gold.Chemscore.DG>
-14.1263

> <Gold.Chemscore.ZeroCoef>
-5.4800

> <Gold.Chemscore.Hbond>
1.9364

> <Gold.Chemscore.Metal>
0.0000

> <Gold.Chemscore.Lipo>
85.9231

> <Gold.Chemscore.Internal_Hbond>
0.0000

> <Gold.Chemscore.DEClash>
0.1632

> <Gold.Chemscore.DEInternal>
2.6764

> <Gold.Chemscore.Rot>
3.0758

> <Gold.Chemscore.Internal.Correction>
   9.000000E+99

> <Gold.Chemscore.Hbonds>
donor molecule, donor type, donor heavy atom, donor atom, acceptor molecule, acceptor atom, score
      L1  H    27    62       P1  7948  0.92
      P1  H  7997  8008       L1    21  0.25

> <Gold.Chemscore.Hbond.Weighted>
-6.4674

> <Gold.Chemscore.Metal.Weighted>
-0.0000

> <Gold.Chemscore.Lipo.Weighted>
-10.0530

> <Gold.Chemscore.Internal_Hbond.Weighted>
0.0000

> <Gold.Chemscore.DEClash.Weighted>
0.1632

> <Gold.Chemscore.DEInternal.Weighted>
2.6764

> <Gold.Chemscore.Rot.Weighted>
7.8741

> <Gold.Chemscore.Internal.Correction.Weighted>
   9.000000E+99

> <Gold.Protein.RotatedTorsions>
[ 6907 6896 6895 6894 ] final -174.58 input  -60.11 | X-H torsion
[ 7974 7965 7964 7962 ] final   19.69 input  175.53 | X-H torsion
[ 8008 7997 7996 7995 ] final  -62.04 input   59.86 | X-H torsion
[ 10167 10162 10161 10158 ] final   66.43 input  -65.29 | X-H torsion
[ 10718 10713 10712 10709 ] final  -42.36 input   66.30 | X-H torsion
[ 10763 10752 10751 10750 ] final  -27.78 input  -60.55 | X-H torsion
[ 11005 11000 10999 10996 ] final  -32.56 input  -57.11 | X-H torsion

> <Gold.Protein.ActiveResidues>
 VAL166  LYS551  ARG553  GLY616  TRP617  ASP618  TYR619  PRO620  LYS621  CYS622 
 ASP623  PHE694  ASN695  SER759  ASP760  ASP761  ALA762  ILE779  LEU786  VAL792 
 PHE793  MET794  SER795  GLU796  ALA797  LYS798  CYS799  TRP800  GLU811  SER814 

> <Gold.Protein.RotatedAtoms>
  151.5747  133.3385  159.2996 H   0  0  0  0  0  0  0  0  0  0  0  0  # atno 6907 bound_to 6896
  150.8347  134.7619  159.6894 H   0  0  0  0  0  0  0  0  0  0  0  0  # atno 6908 bound_to 6896
  152.4426  134.5567  159.9934 H   0  0  0  0  0  0  0  0  0  0  0  0  # atno 6909 bound_to 6896
  146.2140  139.8277  142.8666 H   0  0  0  0  0  0  0  0  0  0  0  0  # atno 7974 bound_to 7965
  154.4479  140.1005  156.6524 H   0  0  0  0  0  0  0  0  0  0  0  0  # atno 8008 bound_to 7997
  155.5382  140.3483  155.4422 H   0  0  0  0  0  0  0  0  0  0  0  0  # atno 8009 bound_to 7997
  156.0616  140.1327  156.9924 H   0  0  0  0  0  0  0  0  0  0  0  0  # atno 8010 bound_to 7997
  140.1005  144.4908  150.7040 H   0  0  0  0  0  0  0  0  0  0  0  0  # atno 10167 bound_to 10162
  156.2604  130.4196  149.8549 H   0  0  0  0  0  0  0  0  0  0  0  0  # atno 10718 bound_to 10713
  153.7376  135.6934  153.4974 H   0  0  0  0  0  0  0  0  0  0  0  0  # atno 10763 bound_to 10752
  153.2092  135.4409  155.0358 H   0  0  0  0  0  0  0  0  0  0  0  0  # atno 10764 bound_to 10752
  154.8232  135.3432  154.6903 H   0  0  0  0  0  0  0  0  0  0  0  0  # atno 10765 bound_to 10752
  140.9562  133.7191  156.1298 H   0  0  0  0  0  0  0  0  0  0  0  0  # atno 11005 bound_to 11000
  145.3030  141.0199  143.3598 LP  0  0  0  0  0  0  0  0  0  0  0  0  # atno 17320 bound_to 7965
  144.8992  139.4672  143.6641 LP  0  0  0  0  0  0  0  0  0  0  0  0  # atno 17321 bound_to 7965
  140.6980  143.2416  151.4945 LP  0  0  0  0  0  0  0  0  0  0  0  0  # atno 17342 bound_to 10162
  139.5674  144.2010  152.1785 LP  0  0  0  0  0  0  0  0  0  0  0  0  # atno 17343 bound_to 10162
  156.6066  130.8569  151.3444 LP  0  0  0  0  0  0  0  0  0  0  0  0  # atno 17370 bound_to 10713
  157.7248  130.9608  150.1589 LP  0  0  0  0  0  0  0  0  0  0  0  0  # atno 17371 bound_to 10713
  140.7532  134.4022  157.5538 LP  0  0  0  0  0  0  0  0  0  0  0  0  # atno 17394 bound_to 11000
  139.8863  134.8913  156.2592 LP  0  0  0  0  0  0  0  0  0  0  0  0  # atno 17395 bound_to 11000

$$$$
