AV-unprocessed.smi:793|AV-procd|sdf|3754|dock7
  -GOLD-   22720 1183D 1   1.00000     0.00000
 Structure written by MMmdl.
 38 39  0  0  0  0  0  0  0  0  2 V2000
  152.7548  144.6199  158.3022 C   0  0  0  0  0  0  0  0  0  0  0  0
  151.5687  143.9753  157.5742 C   0  0  0  0  0  0  0  0  0  0  0  0
  150.9420  142.8147  158.3702 C   0  0  2  0  0  0  0  0  0  0  0  0
  151.9640  141.8432  158.6025 O   0  0  0  0  0  0  0  0  0  0  0  0
  152.2762  141.5384  159.9610 C   0  0  0  0  0  0  0  0  0  0  0  0
  152.4521  142.7768  160.8448 C   0  0  0  0  0  0  0  0  0  0  0  0
  153.3509  142.3154  161.9972 C   0  0  0  0  0  0  0  0  0  0  0  0
  154.1042  141.0763  161.4874 C   0  0  0  0  0  0  0  0  0  0  0  0
  153.6411  140.8578  160.0430 C   0  0  0  0  0  0  0  0  0  0  0  0
  149.7603  142.1819  157.6158 C   0  0  0  0  0  0  0  0  0  0  0  0
  148.6671  142.0682  158.1709 O   0  0  0  0  0  0  0  0  0  0  0  0
  150.0175  141.8130  156.3481 N   0  0  0  0  0  0  0  0  0  0  0  0
  149.1339  141.2531  155.3856 C   0  0  0  0  0  0  0  0  0  0  0  0
  147.7905  141.6728  155.2196 C   0  0  0  0  0  0  0  0  0  0  0  0
  146.9443  141.1277  154.3190 N   0  0  0  0  0  0  0  0  0  0  0  0
  147.4084  140.1263  153.5423 C   0  0  0  0  0  0  0  0  0  0  0  0
  148.7194  139.6199  153.6329 C   0  0  0  0  0  0  0  0  0  0  0  0
  149.5972  140.1900  154.5750 C   0  0  0  0  0  0  0  0  0  0  0  0
  150.8744  139.7121  154.6844 O   0  5  0  0  0  0  0  0  0  0  0  0
  153.1703  145.4398  157.7164 H   0  0  0  0  0  0  0  0  0  0  0  0
  153.5524  143.8969  158.4753 H   0  0  0  0  0  0  0  0  0  0  0  0
  152.4516  145.0221  159.2692 H   0  0  0  0  0  0  0  0  0  0  0  0
  150.8166  144.7432  157.3877 H   0  0  0  0  0  0  0  0  0  0  0  0
  151.8963  143.6224  156.5954 H   0  0  0  0  0  0  0  0  0  0  0  0
  150.5843  143.2136  159.3207 H   0  0  0  0  0  0  0  0  0  0  0  0
  151.5356  140.8706  160.4032 H   0  0  0  0  0  0  0  0  0  0  0  0
  152.9588  143.5608  160.2803 H   0  0  0  0  0  0  0  0  0  0  0  0
  151.5025  143.1808  161.1971 H   0  0  0  0  0  0  0  0  0  0  0  0
  154.0321  143.1073  162.3102 H   0  0  0  0  0  0  0  0  0  0  0  0
  152.7432  142.0470  162.8623 H   0  0  0  0  0  0  0  0  0  0  0  0
  155.1857  141.2029  161.5444 H   0  0  0  0  0  0  0  0  0  0  0  0
  153.8442  140.2113  162.0987 H   0  0  0  0  0  0  0  0  0  0  0  0
  153.6007  139.8034  159.7689 H   0  0  0  0  0  0  0  0  0  0  0  0
  154.3373  141.3495  159.3622 H   0  0  0  0  0  0  0  0  0  0  0  0
  150.9325  142.0522  155.9935 H   0  0  0  0  0  0  0  0  0  0  0  0
  147.3580  142.4491  155.8314 H   0  0  0  0  0  0  0  0  0  0  0  0
  146.7111  139.7110  152.8298 H   0  0  0  0  0  0  0  0  0  0  0  0
  149.0410  138.8113  152.9927 H   0  0  0  0  0  0  0  0  0  0  0  0
  1  2  1  0  0  0  0
  1 20  1  0  0  0  0
  1 21  1  0  0  0  0
  1 22  1  0  0  0  0
  2  3  1  0  0  0  0
  2 23  1  0  0  0  0
  2 24  1  0  0  0  0
  3  4  1  0  0  0  0
  3 10  1  0  0  0  0
  3 25  1  0  0  0  0
  4  5  1  0  0  0  0
  5  9  1  0  0  0  0
  5  6  1  0  0  0  0
  5 26  1  0  0  0  0
  6  7  1  0  0  0  0
  6 27  1  0  0  0  0
  6 28  1  0  0  0  0
  7  8  1  0  0  0  0
  7 29  1  0  0  0  0
  7 30  1  0  0  0  0
  8  9  1  0  0  0  0
  8 31  1  0  0  0  0
  8 32  1  0  0  0  0
  9 33  1  0  0  0  0
  9 34  1  0  0  0  0
 10 11  2  0  0  0  0
 10 12  1  0  0  0  0
 12 35  1  0  0  0  0
 12 13  1  0  0  0  0
 13 18  1  0  0  0  0
 13 14  2  0  0  0  0
 14 36  1  0  0  0  0
 14 15  1  0  0  0  0
 15 16  2  0  0  0  0
 16 37  1  0  0  0  0
 16 17  1  0  0  0  0
 17 18  2  0  0  0  0
 17 38  1  0  0  0  0
 18 19  1  0  0  0  0
M  CHG  1  19  -1
M  END
> <s_m_source_file>
AV-unprocessed.smi

> <i_m_source_file_index>
793

> <i_lp_mmshare_version>
43012

> <i_f3d_flags>
0

> <s_epik_input>
W0NIMl0xW0NIMl1bQ0gyXVtDSDJdW0NIXTFPW0NAQEhdKFtDSDJdW0NIM10pQyg9TylbTkhdYzJbY0hdbltjSF1bY0hdYzJbT0hd

> <s_epik_cmdline>
J2VwaWtfcHl0aG9uJywgJy1waCcsICc3LjAnLCAnLXRuJywgJzgnLCAnLW1hJywgJzIwMCcsICctbWV0YWxfYmluZGluZycsICctaW1hZScsICc8aW5maWxlLm1hZT4nLCAnLW9tYWUnLCAnPG91dGZpbGUubWFlPic=

> <r_lp_tautomer_probability>
1

> <r_epik_Ionization_Penalty>
5.91611

> <r_epik_Ionization_Penalty_Charging>
1.01889

> <r_epik_Ionization_Penalty_Neutral>
4.89722

> <r_epik_State_Penalty>
4.89706

> <r_epik_Charging_Adjusted_Penalty>
5.91595

> <i_epik_Tot_Q>
-1

> <i_epik_Tot_abs_Q>
1

> <r_epik_Metal_State_Penalty>
1.05012

> <b_epik_Metal_Only>
1

> <s_lp_Force_Field>
OPLS_2005

> <r_lp_Energy>
28.2146

> <b_lp_Chiralities_Consistent>
1

> <s_lp_Variant>
AV-unprocessed.smi:793-3

> <Gold.Version>
5.8.1

> <Gold.Id.Protein>
6NUR|6NUR_protein|mol2

> <Gold.PLP.Fitness>
43.2143

> <Gold.PLP.PLP>
-41.1710

> <Gold.PLP.part.hbond>
-1.8634

> <Gold.PLP.part.metal>
0.0000

> <Gold.PLP.part.buried>
0.1467

> <Gold.PLP.part.nonpolar>
-39.2175

> <Gold.PLP.part.repulsive>
0.4291

> <Gold.PLP.ligand.clash>
0.0000

> <Gold.PLP.ligand.torsion>
1.2943

> <Gold.PLP.Chemscore.Hbond>
1.0000

> <Gold.PLP.Chemscore.CHOScore>
0.5269

> <Gold.PLP.Chemscore.Metal>
0.0000

> <Gold.Chemscore.Hbonds>
donor molecule, donor type, donor heavy atom, donor atom, acceptor molecule, acceptor atom, score
      P1  H  7989  7998       L1    19  0.85
      L1  C    14    36       P1  8028  0.33

> <Gold.PLP.Chemscore.Internal.Correction>
0.0513

> <Gold.Rescore>
     Score         DG    S(hbond)    S(metal)    S(lipo)     H(rot)  DE(clash)    DE(int)     intcor
     16.23     -18.38       0.98        0.00     114.85       1.49       0.10       2.04       ----

> <Gold.Chemscore.Fitness>
16.2315

> <Gold.Chemscore.DG>
-18.3791

> <Gold.Chemscore.ZeroCoef>
-5.4800

> <Gold.Chemscore.Hbond>
0.9832

> <Gold.Chemscore.Metal>
0.0000

> <Gold.Chemscore.Lipo>
114.8535

> <Gold.Chemscore.Internal_Hbond>
0.0000

> <Gold.Chemscore.DEClash>
0.1048

> <Gold.Chemscore.DEInternal>
2.0427

> <Gold.Chemscore.Rot>
1.4932

> <Gold.Chemscore.Internal.Correction>
   9.000000E+99

> <Gold.Chemscore.Hbonds>
donor molecule, donor type, donor heavy atom, donor atom, acceptor molecule, acceptor atom, score
      P1  H  7989  7998       L1    19  0.15

> <Gold.Chemscore.Hbond.Weighted>
-3.2839

> <Gold.Chemscore.Metal.Weighted>
-0.0000

> <Gold.Chemscore.Lipo.Weighted>
-13.4379

> <Gold.Chemscore.Internal_Hbond.Weighted>
0.0000

> <Gold.Chemscore.DEClash.Weighted>
0.1048

> <Gold.Chemscore.DEInternal.Weighted>
2.0427

> <Gold.Chemscore.Rot.Weighted>
3.8226

> <Gold.Chemscore.Internal.Correction.Weighted>
   9.000000E+99

> <Gold.Protein.RotatedTorsions>
[ 6907 6896 6895 6894 ] final -172.85 input  -60.11 | X-H torsion
[ 7974 7965 7964 7962 ] final   11.40 input  175.53 | X-H torsion
[ 8008 7997 7996 7995 ] final   38.72 input   59.86 | X-H torsion
[ 10167 10162 10161 10158 ] final  105.09 input  -65.29 | X-H torsion
[ 10718 10713 10712 10709 ] final   -7.63 input   66.30 | X-H torsion
[ 10763 10752 10751 10750 ] final -156.48 input  -60.55 | X-H torsion
[ 11005 11000 10999 10996 ] final   50.46 input  -57.11 | X-H torsion

> <Gold.Protein.ActiveResidues>
 VAL166  LYS551  ARG553  GLY616  TRP617  ASP618  TYR619  PRO620  LYS621  CYS622 
 ASP623  PHE694  ASN695  SER759  ASP760  ASP761  ALA762  ILE779  LEU786  VAL792 
 PHE793  MET794  SER795  GLU796  ALA797  LYS798  CYS799  TRP800  GLU811  SER814 

> <Gold.Protein.RotatedAtoms>
  151.5466  133.3424  159.2944 H   0  0  0  0  0  0  0  0  0  0  0  0  # atno 6907 bound_to 6896
  150.8504  134.7829  159.7015 H   0  0  0  0  0  0  0  0  0  0  0  0  # atno 6908 bound_to 6896
  152.4551  134.5317  159.9864 H   0  0  0  0  0  0  0  0  0  0  0  0  # atno 6909 bound_to 6896
  146.2371  139.9490  142.8473 H   0  0  0  0  0  0  0  0  0  0  0  0  # atno 7974 bound_to 7965
  155.2248  140.3333  155.4311 H   0  0  0  0  0  0  0  0  0  0  0  0  # atno 8008 bound_to 7997
  156.2319  140.1854  156.7268 H   0  0  0  0  0  0  0  0  0  0  0  0  # atno 8009 bound_to 7997
  154.5992  140.0626  156.9330 H   0  0  0  0  0  0  0  0  0  0  0  0  # atno 8010 bound_to 7997
  139.7122  144.7075  151.1008 H   0  0  0  0  0  0  0  0  0  0  0  0  # atno 10167 bound_to 10162
  156.7145  130.5132  149.5883 H   0  0  0  0  0  0  0  0  0  0  0  0  # atno 10718 bound_to 10713
  154.7709  135.3145  154.8190 H   0  0  0  0  0  0  0  0  0  0  0  0  # atno 10763 bound_to 10752
  153.8926  135.6824  153.4764 H   0  0  0  0  0  0  0  0  0  0  0  0  # atno 10764 bound_to 10752
  153.1323  135.4774  154.9303 H   0  0  0  0  0  0  0  0  0  0  0  0  # atno 10765 bound_to 10752
  140.1015  134.5075  155.8758 H   0  0  0  0  0  0  0  0  0  0  0  0  # atno 11005 bound_to 11000
  145.1879  140.9798  143.4228 LP  0  0  0  0  0  0  0  0  0  0  0  0  # atno 17320 bound_to 7965
  144.9883  139.3714  143.6227 LP  0  0  0  0  0  0  0  0  0  0  0  0  # atno 17321 bound_to 7965
  140.7736  143.5278  150.9460 LP  0  0  0  0  0  0  0  0  0  0  0  0  # atno 17342 bound_to 10162
  139.8963  143.6891  152.3138 LP  0  0  0  0  0  0  0  0  0  0  0  0  # atno 17343 bound_to 10162
  156.1638  130.6391  151.0752 LP  0  0  0  0  0  0  0  0  0  0  0  0  # atno 17370 bound_to 10713
  157.6923  131.0806  150.7072 LP  0  0  0  0  0  0  0  0  0  0  0  0  # atno 17371 bound_to 10713
  141.2107  133.6698  156.6527 LP  0  0  0  0  0  0  0  0  0  0  0  0  # atno 17394 bound_to 11000
  140.3213  134.8005  157.4255 LP  0  0  0  0  0  0  0  0  0  0  0  0  # atno 17395 bound_to 11000

$$$$
