AV-unprocessed.smi:1793|AV-procd|sdf|7226|dock5
  -GOLD-   22720 8473D 1   1.00000     0.00000
 Structure written by MMmdl.
 46 48  0  0  0  0  0  0  0  0  1 V2000
  143.8983  135.9946  151.7179 C   0  0  0  0  0  0  0  0  0  0  0  0
  145.1356  135.2308  152.2115 C   0  0  2  0  0  0  0  0  0  0  0  0
  146.2364  136.1784  152.3770 N   0  0  0  0  0  0  0  0  0  0  0  0
  146.1412  137.4111  152.8965 C   0  0  0  0  0  0  0  0  0  0  0  0
  145.0888  137.9028  153.3034 O   0  0  0  0  0  0  0  0  0  0  0  0
  147.3411  138.0135  152.9317 N   0  0  0  0  0  0  0  0  0  0  0  0
  147.6727  139.2691  153.5137 C   0  0  0  0  0  0  0  0  0  0  0  0
  146.7917  140.3753  153.4347 C   0  0  0  0  0  0  0  0  0  0  0  0
  147.1890  141.6138  153.9667 C   0  0  0  0  0  0  0  0  0  0  0  0
  148.4649  141.7087  154.5460 C   0  0  0  0  0  0  0  0  0  0  0  0
  149.3214  140.6702  154.6151 N   0  0  0  0  0  0  0  0  0  0  0  0
  148.9472  139.4644  154.1203 C   0  0  0  0  0  0  0  0  0  0  0  0
  149.8837  138.4105  154.2353 N   0  0  0  0  0  0  0  0  0  0  0  0
  151.2993  138.6976  154.4410 C   0  0  0  0  0  0  0  0  0  0  0  0
  151.9108  137.3723  154.8856 C   0  0  0  0  0  0  0  0  0  0  0  0
  150.7903  136.7621  155.7218 C   0  0  0  0  0  0  0  0  0  0  0  0
  149.5137  137.2347  155.0182 C   0  0  0  0  0  0  0  0  0  0  0  0
  145.5328  134.0999  151.2396 C   0  0  1  0  0  0  0  0  0  0  0  0
  146.1909  132.8816  151.8880 C   0  0  0  0  0  0  0  0  0  0  0  0
  145.9404  131.7733  150.8805 C   0  0  0  0  0  0  0  0  0  0  0  0
  144.7632  132.2890  150.0476 C   0  0  0  0  0  0  0  0  0  0  0  0
  144.3811  133.5214  150.6455 O   0  0  0  0  0  0  0  0  0  0  0  0
  143.0406  135.3298  151.6127 H   0  0  0  0  0  0  0  0  0  0  0  0
  144.0784  136.4599  150.7481 H   0  0  0  0  0  0  0  0  0  0  0  0
  143.6175  136.7818  152.4182 H   0  0  0  0  0  0  0  0  0  0  0  0
  144.8843  134.7879  153.1770 H   0  0  0  0  0  0  0  0  0  0  0  0
  147.1472  135.8641  152.0759 H   0  0  0  0  0  0  0  0  0  0  0  0
  148.1277  137.4543  152.6352 H   0  0  0  0  0  0  0  0  0  0  0  0
  145.8276  140.3000  152.9554 H   0  0  0  0  0  0  0  0  0  0  0  0
  146.5359  142.4726  153.9199 H   0  0  0  0  0  0  0  0  0  0  0  0
  148.8105  142.6446  154.9593 H   0  0  0  0  0  0  0  0  0  0  0  0
  151.7656  139.0744  153.5304 H   0  0  0  0  0  0  0  0  0  0  0  0
  151.4324  139.4404  155.2286 H   0  0  0  0  0  0  0  0  0  0  0  0
  152.1137  136.7436  154.0175 H   0  0  0  0  0  0  0  0  0  0  0  0
  152.8409  137.4978  155.4406 H   0  0  0  0  0  0  0  0  0  0  0  0
  150.8559  135.6762  155.7965 H   0  0  0  0  0  0  0  0  0  0  0  0
  150.8249  137.1710  156.7325 H   0  0  0  0  0  0  0  0  0  0  0  0
  148.7198  137.4504  155.7347 H   0  0  0  0  0  0  0  0  0  0  0  0
  149.1567  136.4590  154.3404 H   0  0  0  0  0  0  0  0  0  0  0  0
  146.1782  134.4884  150.4490 H   0  0  0  0  0  0  0  0  0  0  0  0
  147.2503  133.0312  152.0992 H   0  0  0  0  0  0  0  0  0  0  0  0
  145.6900  132.6396  152.8265 H   0  0  0  0  0  0  0  0  0  0  0  0
  146.8138  131.6187  150.2460 H   0  0  0  0  0  0  0  0  0  0  0  0
  145.7129  130.8289  151.3761 H   0  0  0  0  0  0  0  0  0  0  0  0
  145.0713  132.4669  149.0165 H   0  0  0  0  0  0  0  0  0  0  0  0
  143.9250  131.5921  150.0361 H   0  0  0  0  0  0  0  0  0  0  0  0
  1  2  1  0  0  0  0
  1 23  1  0  0  0  0
  1 24  1  0  0  0  0
  1 25  1  0  0  0  0
  2  3  1  0  0  0  0
  2 18  1  0  0  0  0
  2 26  1  0  0  0  0
  3  4  1  0  0  0  0
  3 27  1  0  0  0  0
  4  5  2  0  0  0  0
  4  6  1  0  0  0  0
  6  7  1  0  0  0  0
  6 28  1  0  0  0  0
  7 12  1  0  0  0  0
  7  8  2  0  0  0  0
  8  9  1  0  0  0  0
  8 29  1  0  0  0  0
  9 10  2  0  0  0  0
  9 30  1  0  0  0  0
 10 11  1  0  0  0  0
 10 31  1  0  0  0  0
 11 12  2  0  0  0  0
 12 13  1  0  0  0  0
 13 17  1  0  0  0  0
 13 14  1  0  0  0  0
 14 15  1  0  0  0  0
 14 32  1  0  0  0  0
 14 33  1  0  0  0  0
 15 16  1  0  0  0  0
 15 34  1  0  0  0  0
 15 35  1  0  0  0  0
 16 17  1  0  0  0  0
 16 36  1  0  0  0  0
 16 37  1  0  0  0  0
 17 38  1  0  0  0  0
 17 39  1  0  0  0  0
 18 22  1  0  0  0  0
 18 19  1  0  0  0  0
 18 40  1  0  0  0  0
 19 20  1  0  0  0  0
 19 41  1  0  0  0  0
 19 42  1  0  0  0  0
 20 21  1  0  0  0  0
 20 43  1  0  0  0  0
 20 44  1  0  0  0  0
 21 22  1  0  0  0  0
 21 45  1  0  0  0  0
 21 46  1  0  0  0  0
M  END
> <s_m_source_file>
AV-unprocessed.smi

> <i_m_source_file_index>
1793

> <i_lp_mmshare_version>
43012

> <i_f3d_flags>
0

> <s_epik_input>
TzFbQ0gyXVtDSDJdW0NIMl1bQ0BIXTFbQ0BIXShbQ0gzXSlbTkhdQyg9TylbTkhdYzJbY0hdW2NIXVtjSF1uYzJOM1tDSDJdW0NIMl1bQ0gyXVtDSDJdMw==

> <s_epik_cmdline>
J2VwaWtfcHl0aG9uJywgJy1waCcsICc3LjAnLCAnLXRuJywgJzgnLCAnLW1hJywgJzIwMCcsICctbWV0YWxfYmluZGluZycsICctaW1hZScsICc8aW5maWxlLm1hZT4nLCAnLW9tYWUnLCAnPG91dGZpbGUubWFlPic=

> <r_lp_tautomer_probability>
1

> <r_epik_Ionization_Penalty>
0.0992086

> <r_epik_Ionization_Penalty_Charging>
0

> <r_epik_Ionization_Penalty_Neutral>
0.0992086

> <r_epik_State_Penalty>
0.0887141

> <r_epik_Charging_Adjusted_Penalty>
0.0887141

> <i_epik_Tot_Q>
0

> <i_epik_Tot_abs_Q>
0

> <r_epik_Metal_State_Penalty>
0.075945

> <b_epik_Metal_Only>
0

> <s_lp_Force_Field>
OPLS_2005

> <r_lp_Energy>
46.1922

> <b_lp_Chiralities_Consistent>
1

> <s_lp_Variant>
AV-unprocessed.smi:1793-3

> <Gold.Version>
5.8.1

> <Gold.Id.Protein>
6NUR|6NUR_protein|mol2

> <Gold.PLP.Fitness>
40.1669

> <Gold.PLP.PLP>
-33.6923

> <Gold.PLP.part.hbond>
-2.0000

> <Gold.PLP.part.metal>
0.0000

> <Gold.PLP.part.buried>
-1.6561

> <Gold.PLP.part.nonpolar>
-30.3866

> <Gold.PLP.part.repulsive>
1.4588

> <Gold.PLP.ligand.clash>
0.0000

> <Gold.PLP.ligand.torsion>
1.4348

> <Gold.PLP.Chemscore.Hbond>
1.9920

> <Gold.PLP.Chemscore.CHOScore>
1.0000

> <Gold.PLP.Chemscore.Metal>
0.0000

> <Gold.Chemscore.Hbonds>
donor molecule, donor type, donor heavy atom, donor atom, acceptor molecule, acceptor atom, score
      L1  H     3    27       P1  7948  0.99
      L1  H     6    28       P1  7948  1.00
      L1  C    10    31       P1  8028  1.00

> <Gold.PLP.Chemscore.Internal.Correction>
0.3683

> <Gold.Rescore>
     Score         DG    S(hbond)    S(metal)    S(lipo)     H(rot)  DE(clash)    DE(int)     intcor
     13.80     -19.10       1.95        0.00      90.49       1.36       0.53       4.77       ----

> <Gold.Chemscore.Fitness>
13.7978

> <Gold.Chemscore.DG>
-19.0976

> <Gold.Chemscore.ZeroCoef>
-5.4800

> <Gold.Chemscore.Hbond>
1.9482

> <Gold.Chemscore.Metal>
0.0000

> <Gold.Chemscore.Lipo>
90.4925

> <Gold.Chemscore.Internal_Hbond>
0.0000

> <Gold.Chemscore.DEClash>
0.5255

> <Gold.Chemscore.DEInternal>
4.7743

> <Gold.Chemscore.Rot>
1.3582

> <Gold.Chemscore.Internal.Correction>
   9.000000E+99

> <Gold.Chemscore.Hbonds>
donor molecule, donor type, donor heavy atom, donor atom, acceptor molecule, acceptor atom, score
      L1  H     3    27       P1  7948  0.94
      L1  H     6    28       P1  7948  0.99

> <Gold.Chemscore.Hbond.Weighted>
-6.5070

> <Gold.Chemscore.Metal.Weighted>
-0.0000

> <Gold.Chemscore.Lipo.Weighted>
-10.5876

> <Gold.Chemscore.Internal_Hbond.Weighted>
0.0000

> <Gold.Chemscore.DEClash.Weighted>
0.5255

> <Gold.Chemscore.DEInternal.Weighted>
4.7743

> <Gold.Chemscore.Rot.Weighted>
3.4771

> <Gold.Chemscore.Internal.Correction.Weighted>
   9.000000E+99

> <Gold.Protein.RotatedTorsions>
[ 6907 6896 6895 6894 ] final   71.29 input  -60.11 | X-H torsion
[ 7974 7965 7964 7962 ] final -133.24 input  175.53 | X-H torsion
[ 8008 7997 7996 7995 ] final -104.57 input   59.86 | X-H torsion
[ 10167 10162 10161 10158 ] final -146.33 input  -65.29 | X-H torsion
[ 10718 10713 10712 10709 ] final  -94.73 input   66.30 | X-H torsion
[ 10763 10752 10751 10750 ] final  -83.40 input  -60.55 | X-H torsion
[ 11005 11000 10999 10996 ] final  -74.59 input  -57.11 | X-H torsion

> <Gold.Protein.ActiveResidues>
 VAL166  LYS551  ARG553  GLY616  TRP617  ASP618  TYR619  PRO620  LYS621  CYS622 
 ASP623  PHE694  ASN695  SER759  ASP760  ASP761  ALA762  ILE779  LEU786  VAL792 
 PHE793  MET794  SER795  GLU796  ALA797  LYS798  CYS799  TRP800  GLU811  SER814 

> <Gold.Protein.RotatedAtoms>
  152.4801  134.4742  159.9644 H   0  0  0  0  0  0  0  0  0  0  0  0  # atno 6907 bound_to 6896
  151.4750  133.3554  159.2837 H   0  0  0  0  0  0  0  0  0  0  0  0  # atno 6908 bound_to 6896
  150.8867  134.8292  159.7325 H   0  0  0  0  0  0  0  0  0  0  0  0  # atno 6909 bound_to 6896
  144.9211  140.7015  143.4965 H   0  0  0  0  0  0  0  0  0  0  0  0  # atno 7974 bound_to 7965
  154.8872  140.0417  157.1817 H   0  0  0  0  0  0  0  0  0  0  0  0  # atno 8008 bound_to 7997
  154.8578  140.2939  155.5537 H   0  0  0  0  0  0  0  0  0  0  0  0  # atno 8009 bound_to 7997
  156.2998  140.2452  156.3547 H   0  0  0  0  0  0  0  0  0  0  0  0  # atno 8010 bound_to 7997
  139.7723  143.8219  152.2626 H   0  0  0  0  0  0  0  0  0  0  0  0  # atno 10167 bound_to 10162
  156.0032  130.5080  150.5971 H   0  0  0  0  0  0  0  0  0  0  0  0  # atno 10718 bound_to 10713
  154.5873  135.5557  153.7244 H   0  0  0  0  0  0  0  0  0  0  0  0  # atno 10763 bound_to 10752
  153.0103  135.6334  154.1898 H   0  0  0  0  0  0  0  0  0  0  0  0  # atno 10764 bound_to 10752
  154.1839  135.2885  155.3023 H   0  0  0  0  0  0  0  0  0  0  0  0  # atno 10765 bound_to 10752
  141.1637  133.6917  156.7388 H   0  0  0  0  0  0  0  0  0  0  0  0  # atno 11005 bound_to 11000
  145.3295  139.1764  143.4544 LP  0  0  0  0  0  0  0  0  0  0  0  0  # atno 17320 bound_to 7965
  146.3205  140.3322  142.8641 LP  0  0  0  0  0  0  0  0  0  0  0  0  # atno 17321 bound_to 7965
  139.8257  144.7276  150.9514 LP  0  0  0  0  0  0  0  0  0  0  0  0  # atno 17342 bound_to 10162
  140.7814  143.4116  151.0983 LP  0  0  0  0  0  0  0  0  0  0  0  0  # atno 17343 bound_to 10162
  157.3826  131.0783  151.1464 LP  0  0  0  0  0  0  0  0  0  0  0  0  # atno 17370 bound_to 10713
  157.2181  130.6469  149.5800 LP  0  0  0  0  0  0  0  0  0  0  0  0  # atno 17371 bound_to 10713
  140.2690  134.8407  157.3829 LP  0  0  0  0  0  0  0  0  0  0  0  0  # atno 17394 bound_to 11000
  140.1539  134.4814  155.7941 LP  0  0  0  0  0  0  0  0  0  0  0  0  # atno 17395 bound_to 11000

$$$$
