AV-unprocessed.smi:3348|AV-procd|sdf|12915|dock2
  -GOLD-   2272019333D 1   1.00000     0.00000
 Structure written by MMmdl.
 47 48  0  0  0  0  0  0  0  0  2 V2000
  145.3598  135.0195  153.1637 C   0  0  0  0  0  0  0  0  0  0  0  0
  145.3926  136.2118  152.1979 C   0  0  2  0  0  0  0  0  0  0  0  0
  145.3641  135.7211  150.7336 C   0  0  0  0  0  0  0  0  0  0  0  0
  145.3319  134.2752  150.6075 N   0  0  0  0  0  0  0  0  0  0  0  0
  144.3129  133.4795  150.1275 C   0  0  0  0  0  0  0  0  0  0  0  0
  144.7436  132.1855  150.1908 C   0  0  0  0  0  0  0  0  0  0  0  0
  146.0602  132.2926  150.7198 C   0  0  0  0  0  0  0  0  0  0  0  0
  146.4103  133.5451  150.9655 N   0  0  0  0  0  0  0  0  0  0  0  0
  146.5996  137.0249  152.4728 N   0  3  0  0  0  0  0  0  0  0  0  0
  146.5304  138.4330  152.0279 C   0  0  0  0  0  0  0  0  0  0  0  0
  147.2451  139.3534  153.0210 C   0  0  0  0  0  0  0  0  0  0  0  0
  148.4510  138.7259  153.4310 O   0  0  0  0  0  0  0  0  0  0  0  0
  149.0529  139.3003  154.5850 C   0  0  2  0  0  0  0  0  0  0  0  0
  149.1498  140.8307  154.4057 C   0  0  0  0  0  0  0  0  0  0  0  0
  149.9192  141.4879  155.5605 C   0  0  0  0  0  0  0  0  0  0  0  0
  151.3152  140.8691  155.7139 C   0  0  0  0  0  0  0  0  0  0  0  0
  151.2250  139.3478  155.9044 C   0  0  0  0  0  0  0  0  0  0  0  0
  150.4550  138.6706  154.7524 C   0  0  1  0  0  0  0  0  0  0  0  0
  150.3750  137.1517  154.9763 C   0  0  0  0  0  0  0  0  0  0  0  0
  144.4652  134.4148  153.0110 H   0  0  0  0  0  0  0  0  0  0  0  0
  145.3546  135.3539  154.2017 H   0  0  0  0  0  0  0  0  0  0  0  0
  146.2262  134.3712  153.0265 H   0  0  0  0  0  0  0  0  0  0  0  0
  144.5023  136.8100  152.3989 H   0  0  0  0  0  0  0  0  0  0  0  0
  144.5020  136.1363  150.2098 H   0  0  0  0  0  0  0  0  0  0  0  0
  146.2477  136.0790  150.2029 H   0  0  0  0  0  0  0  0  0  0  0  0
  143.3758  133.8941  149.7856 H   0  0  0  0  0  0  0  0  0  0  0  0
  144.2029  131.2975  149.8983 H   0  0  0  0  0  0  0  0  0  0  0  0
  146.7672  131.5033  150.9296 H   0  0  0  0  0  0  0  0  0  0  0  0
  146.7347  137.0426  153.4738 H   0  0  0  0  0  0  0  0  0  0  0  0
  146.9967  138.5318  151.0486 H   0  0  0  0  0  0  0  0  0  0  0  0
  145.4885  138.7365  151.9189 H   0  0  0  0  0  0  0  0  0  0  0  0
  147.4325  140.3251  152.5638 H   0  0  0  0  0  0  0  0  0  0  0  0
  146.6078  139.5189  153.8908 H   0  0  0  0  0  0  0  0  0  0  0  0
  148.4619  139.0700  155.4739 H   0  0  0  0  0  0  0  0  0  0  0  0
  149.6498  141.0572  153.4630 H   0  0  0  0  0  0  0  0  0  0  0  0
  148.1573  141.2755  154.3411 H   0  0  0  0  0  0  0  0  0  0  0  0
  150.0049  142.5612  155.3881 H   0  0  0  0  0  0  0  0  0  0  0  0
  149.3599  141.3668  156.4891 H   0  0  0  0  0  0  0  0  0  0  0  0
  151.9161  141.0937  154.8315 H   0  0  0  0  0  0  0  0  0  0  0  0
  151.8304  141.3200  156.5624 H   0  0  0  0  0  0  0  0  0  0  0  0
  152.2303  138.9313  155.9768 H   0  0  0  0  0  0  0  0  0  0  0  0
  150.7339  139.1311  156.8543 H   0  0  0  0  0  0  0  0  0  0  0  0
  151.0153  138.8408  153.8317 H   0  0  0  0  0  0  0  0  0  0  0  0
  149.8192  136.9136  155.8838 H   0  0  0  0  0  0  0  0  0  0  0  0
  151.3702  136.7171  155.0732 H   0  0  0  0  0  0  0  0  0  0  0  0
  149.8814  136.6507  154.1432 H   0  0  0  0  0  0  0  0  0  0  0  0
  147.4004  136.5758  152.0520 H   0  0  0  0  0  0  0  0  0  0  0  0
  1  2  1  0  0  0  0
  1 20  1  0  0  0  0
  1 21  1  0  0  0  0
  1 22  1  0  0  0  0
  2  3  1  0  0  0  0
  2  9  1  0  0  0  0
  2 23  1  0  0  0  0
  3  4  1  0  0  0  0
  3 24  1  0  0  0  0
  3 25  1  0  0  0  0
  4  8  1  0  0  0  0
  4  5  1  0  0  0  0
  5  6  2  0  0  0  0
  5 26  1  0  0  0  0
  6  7  1  0  0  0  0
  6 27  1  0  0  0  0
  7  8  2  0  0  0  0
  7 28  1  0  0  0  0
  9 10  1  0  0  0  0
  9 29  1  0  0  0  0
  9 47  1  0  0  0  0
 10 11  1  0  0  0  0
 10 30  1  0  0  0  0
 10 31  1  0  0  0  0
 11 12  1  0  0  0  0
 11 32  1  0  0  0  0
 11 33  1  0  0  0  0
 12 13  1  0  0  0  0
 13 18  1  0  0  0  0
 13 14  1  0  0  0  0
 13 34  1  0  0  0  0
 14 15  1  0  0  0  0
 14 35  1  0  0  0  0
 14 36  1  0  0  0  0
 15 16  1  0  0  0  0
 15 37  1  0  0  0  0
 15 38  1  0  0  0  0
 16 17  1  0  0  0  0
 16 39  1  0  0  0  0
 16 40  1  0  0  0  0
 17 18  1  0  0  0  0
 17 41  1  0  0  0  0
 17 42  1  0  0  0  0
 18 19  1  0  0  0  0
 18 43  1  0  0  0  0
 19 44  1  0  0  0  0
 19 45  1  0  0  0  0
 19 46  1  0  0  0  0
M  CHG  1   9   1
M  END
> <s_m_source_file>
AV-unprocessed.smi

> <i_m_source_file_index>
3348

> <i_lp_mmshare_version>
43012

> <i_f3d_flags>
0

> <s_epik_input>
bjFbY0hdW2NIXVtjSF1uMVtDSDJdW0NAQEhdKFtDSDNdKVtOSF1bQ0gyXVtDSDJdT1tDQEBIXTJbQ0gyXVtDSDJdW0NIMl1bQ0gyXVtDQEhdMltDSDNd

> <s_epik_cmdline>
J2VwaWtfcHl0aG9uJywgJy1waCcsICc3LjAnLCAnLXRuJywgJzgnLCAnLW1hJywgJzIwMCcsICctbWV0YWxfYmluZGluZycsICctaW1hZScsICc8aW5maWxlLm1hZT4nLCAnLW9tYWUnLCAnPG91dGZpbGUubWFlPic=

> <r_lp_tautomer_probability>
1

> <r_epik_Ionization_Penalty>
0.00925088

> <r_epik_Ionization_Penalty_Charging>
0.00924645

> <r_epik_Ionization_Penalty_Neutral>
4.42413e-06

> <r_epik_State_Penalty>
0.0070118

> <r_epik_Charging_Adjusted_Penalty>
0.0162583

> <i_epik_Tot_Q>
1

> <i_epik_Tot_abs_Q>
1

> <r_epik_Metal_State_Penalty>
0.00701222

> <b_epik_Metal_Only>
0

> <s_lp_Force_Field>
OPLS_2005

> <r_lp_Energy>
16.8222

> <b_lp_Chiralities_Consistent>
1

> <s_lp_Variant>
AV-unprocessed.smi:3348-1

> <Gold.Version>
5.8.1

> <Gold.Id.Protein>
6NUR|6NUR_protein|mol2

> <Gold.PLP.Fitness>
46.6310

> <Gold.PLP.PLP>
-37.3176

> <Gold.PLP.part.hbond>
-1.0000

> <Gold.PLP.part.metal>
0.0000

> <Gold.PLP.part.buried>
-4.5928

> <Gold.PLP.part.nonpolar>
-34.5195

> <Gold.PLP.part.repulsive>
2.5364

> <Gold.PLP.ligand.clash>
0.0000

> <Gold.PLP.ligand.torsion>
1.4554

> <Gold.PLP.Chemscore.Hbond>
2.0000

> <Gold.PLP.Chemscore.CHOScore>
1.9997

> <Gold.PLP.Chemscore.Metal>
0.0000

> <Gold.Chemscore.Hbonds>
donor molecule, donor type, donor heavy atom, donor atom, acceptor molecule, acceptor atom, score
      L1  H     9    47       P1  7948  2.00
      L1  C     5    26       P1 10186  1.00
      L1  C     7    28       P1 10747  1.00

> <Gold.PLP.Chemscore.Internal.Correction>
0.2250

> <Gold.Rescore>
     Score         DG    S(hbond)    S(metal)    S(lipo)     H(rot)  DE(clash)    DE(int)     intcor
     12.94     -15.80       1.00        0.00      99.51       1.82       0.21       2.65       ----

> <Gold.Chemscore.Fitness>
12.9443

> <Gold.Chemscore.DG>
-15.7971

> <Gold.Chemscore.ZeroCoef>
-5.4800

> <Gold.Chemscore.Hbond>
0.9952

> <Gold.Chemscore.Metal>
0.0000

> <Gold.Chemscore.Lipo>
99.5114

> <Gold.Chemscore.Internal_Hbond>
0.0000

> <Gold.Chemscore.DEClash>
0.2053

> <Gold.Chemscore.DEInternal>
2.6475

> <Gold.Chemscore.Rot>
1.8163

> <Gold.Chemscore.Internal.Correction>
   9.000000E+99

> <Gold.Chemscore.Hbonds>
donor molecule, donor type, donor heavy atom, donor atom, acceptor molecule, acceptor atom, score
      L1  H     9    47       P1  7948  0.97

> <Gold.Chemscore.Hbond.Weighted>
-3.3240

> <Gold.Chemscore.Metal.Weighted>
-0.0000

> <Gold.Chemscore.Lipo.Weighted>
-11.6428

> <Gold.Chemscore.Internal_Hbond.Weighted>
0.0000

> <Gold.Chemscore.DEClash.Weighted>
0.2053

> <Gold.Chemscore.DEInternal.Weighted>
2.6475

> <Gold.Chemscore.Rot.Weighted>
4.6497

> <Gold.Chemscore.Internal.Correction.Weighted>
   9.000000E+99

> <Gold.Protein.RotatedTorsions>
[ 6907 6896 6895 6894 ] final -170.22 input  -60.11 | X-H torsion
[ 7974 7965 7964 7962 ] final  116.50 input  175.53 | X-H torsion
[ 8008 7997 7996 7995 ] final   31.16 input   59.86 | X-H torsion
[ 10167 10162 10161 10158 ] final  150.64 input  -65.29 | X-H torsion
[ 10718 10713 10712 10709 ] final  142.89 input   66.30 | X-H torsion
[ 10763 10752 10751 10750 ] final -157.41 input  -60.55 | X-H torsion
[ 11005 11000 10999 10996 ] final -139.58 input  -57.11 | X-H torsion

> <Gold.Protein.ActiveResidues>
 VAL166  LYS551  ARG553  GLY616  TRP617  ASP618  TYR619  PRO620  LYS621  CYS622 
 ASP623  PHE694  ASN695  SER759  ASP760  ASP761  ALA762  ILE779  LEU786  VAL792 
 PHE793  MET794  SER795  GLU796  ALA797  LYS798  CYS799  TRP800  GLU811  SER814 

> <Gold.Protein.RotatedAtoms>
  151.5043  133.3498  159.2873 H   0  0  0  0  0  0  0  0  0  0  0  0  # atno 6907 bound_to 6896
  150.8753  134.8137  159.7196 H   0  0  0  0  0  0  0  0  0  0  0  0  # atno 6908 bound_to 6896
  152.4726  134.4933  159.9754 H   0  0  0  0  0  0  0  0  0  0  0  0  # atno 6909 bound_to 6896
  145.1788  139.3061  143.4429 H   0  0  0  0  0  0  0  0  0  0  0  0  # atno 7974 bound_to 7965
  155.1019  140.3230  155.4545 H   0  0  0  0  0  0  0  0  0  0  0  0  # atno 8008 bound_to 7997
  156.2715  140.2059  156.6092 H   0  0  0  0  0  0  0  0  0  0  0  0  # atno 8009 bound_to 7997
  154.6822  140.0525  157.0265 H   0  0  0  0  0  0  0  0  0  0  0  0  # atno 8010 bound_to 7997
  139.4848  144.5506  151.7408 H   0  0  0  0  0  0  0  0  0  0  0  0  # atno 10167 bound_to 10162
  157.3753  131.0984  151.0790 H   0  0  0  0  0  0  0  0  0  0  0  0  # atno 10718 bound_to 10713
  154.7638  135.3125  154.8326 H   0  0  0  0  0  0  0  0  0  0  0  0  # atno 10763 bound_to 10752
  153.9080  135.6809  153.4756 H   0  0  0  0  0  0  0  0  0  0  0  0  # atno 10764 bound_to 10752
  153.1242  135.4809  154.9177 H   0  0  0  0  0  0  0  0  0  0  0  0  # atno 10765 bound_to 10752
  140.8505  134.2291  157.4762 H   0  0  0  0  0  0  0  0  0  0  0  0  # atno 11005 bound_to 11000
  146.3456  140.1960  142.8589 LP  0  0  0  0  0  0  0  0  0  0  0  0  # atno 17320 bound_to 7965
  145.0157  140.8752  143.5197 LP  0  0  0  0  0  0  0  0  0  0  0  0  # atno 17321 bound_to 7965
  140.5059  144.1099  150.5982 LP  0  0  0  0  0  0  0  0  0  0  0  0  # atno 17342 bound_to 10162
  140.4008  143.2705  151.9950 LP  0  0  0  0  0  0  0  0  0  0  0  0  # atno 17343 bound_to 10162
  157.1879  130.6338  149.5694 LP  0  0  0  0  0  0  0  0  0  0  0  0  # atno 17370 bound_to 10713
  155.9764  130.4732  150.6525 LP  0  0  0  0  0  0  0  0  0  0  0  0  # atno 17371 bound_to 10713
  139.8704  134.9681  156.4619 LP  0  0  0  0  0  0  0  0  0  0  0  0  # atno 17394 bound_to 11000
  140.8795  133.7928  155.9451 LP  0  0  0  0  0  0  0  0  0  0  0  0  # atno 17395 bound_to 11000

$$$$
