AV-unprocessed.smi:2193|AV-procd|sdf|8901|dock9
  -GOLD-   2272012113D 1   1.00000     0.00000
 Structure written by MMmdl.
 41 43  0  0  0  0  0  0  0  0  2 V2000
  150.5252  140.6120  154.9273 O   0  0  0  0  0  0  0  0  0  0  0  0
  150.2073  140.3406  156.2764 C   0  0  0  0  0  0  0  0  0  0  0  0
  150.6784  141.4027  157.2185 C   0  0  0  0  0  0  0  0  0  0  0  0
  150.4430  142.7419  157.1095 N   0  3  0  0  0  0  0  0  0  0  0  0
  151.0454  143.4178  158.1709 C   0  0  0  0  0  0  0  0  0  0  0  0
  151.0823  144.7725  158.4866 C   0  0  0  0  0  0  0  0  0  0  0  0
  151.7925  145.1315  159.6511 C   0  0  0  0  0  0  0  0  0  0  0  0
  152.4315  144.1610  160.4502 C   0  0  0  0  0  0  0  0  0  0  0  0
  152.3873  142.7905  160.1196 C   0  0  0  0  0  0  0  0  0  0  0  0
  151.6818  142.4444  158.9676 C   0  0  0  0  0  0  0  0  0  0  0  0
  151.4261  141.2179  158.3449 N   0  0  0  0  0  0  0  0  0  0  0  0
  151.9628  139.9851  158.9428 C   0  0  0  0  0  0  0  0  0  0  0  0
  152.3380  138.9198  157.8928 C   0  0  1  0  0  0  0  0  0  0  0  0
  153.0980  139.5337  156.8705 O   0  0  0  0  0  0  0  0  0  0  0  0
  153.1659  137.7785  158.5043 C   0  0  0  0  0  0  0  0  0  0  0  0
  154.2871  138.3353  159.1784 O   0  0  0  0  0  0  0  0  0  0  0  0
  154.4028  138.1281  160.5364 C   0  0  0  0  0  0  0  0  0  0  0  0
  153.8479  136.9380  161.0514 C   0  0  0  0  0  0  0  0  0  0  0  0
  153.9199  136.6440  162.4268 C   0  0  0  0  0  0  0  0  0  0  0  0
  154.5502  137.5437  163.3057 C   0  0  0  0  0  0  0  0  0  0  0  0
  154.6200  137.2637  164.6287 F   0  0  0  0  0  0  0  0  0  0  0  0
  155.1077  138.7354  162.8064 C   0  0  0  0  0  0  0  0  0  0  0  0
  155.0362  139.0289  161.4303 C   0  0  0  0  0  0  0  0  0  0  0  0
  149.7211  140.6548  154.4320 H   0  0  0  0  0  0  0  0  0  0  0  0
  149.1264  140.2306  156.3657 H   0  0  0  0  0  0  0  0  0  0  0  0
  150.6554  139.3885  156.5618 H   0  0  0  0  0  0  0  0  0  0  0  0
  150.5940  145.5179  157.8759 H   0  0  0  0  0  0  0  0  0  0  0  0
  151.8485  146.1719  159.9370 H   0  0  0  0  0  0  0  0  0  0  0  0
  152.9667  144.4744  161.3351 H   0  0  0  0  0  0  0  0  0  0  0  0
  152.8795  142.0545  160.7381 H   0  0  0  0  0  0  0  0  0  0  0  0
  152.8368  140.2558  159.5366 H   0  0  0  0  0  0  0  0  0  0  0  0
  151.2249  139.5971  159.6461 H   0  0  0  0  0  0  0  0  0  0  0  0
  151.4268  138.5116  157.4543 H   0  0  0  0  0  0  0  0  0  0  0  0
  152.7985  139.2054  156.0365 H   0  0  0  0  0  0  0  0  0  0  0  0
  152.5533  137.1692  159.1715 H   0  0  0  0  0  0  0  0  0  0  0  0
  153.5335  137.1325  157.7053 H   0  0  0  0  0  0  0  0  0  0  0  0
  153.3619  136.2416  160.3840 H   0  0  0  0  0  0  0  0  0  0  0  0
  153.4914  135.7282  162.8066 H   0  0  0  0  0  0  0  0  0  0  0  0
  155.5912  139.4271  163.4802 H   0  0  0  0  0  0  0  0  0  0  0  0
  155.4752  139.9529  161.0860 H   0  0  0  0  0  0  0  0  0  0  0  0
  149.9054  143.1566  156.3589 H   0  0  0  0  0  0  0  0  0  0  0  0
  1  2  1  0  0  0  0
  1 24  1  0  0  0  0
  2  3  1  0  0  0  0
  2 25  1  0  0  0  0
  2 26  1  0  0  0  0
  3 11  1  0  0  0  0
  3  4  2  0  0  0  0
  4  5  1  0  0  0  0
  4 41  1  0  0  0  0
  5 10  2  0  0  0  0
  5  6  1  0  0  0  0
  6  7  2  0  0  0  0
  6 27  1  0  0  0  0
  7  8  1  0  0  0  0
  7 28  1  0  0  0  0
  8  9  2  0  0  0  0
  8 29  1  0  0  0  0
  9 10  1  0  0  0  0
  9 30  1  0  0  0  0
 10 11  1  0  0  0  0
 11 12  1  0  0  0  0
 12 13  1  0  0  0  0
 12 31  1  0  0  0  0
 12 32  1  0  0  0  0
 13 14  1  0  0  0  0
 13 15  1  0  0  0  0
 13 33  1  0  0  0  0
 14 34  1  0  0  0  0
 15 16  1  0  0  0  0
 15 35  1  0  0  0  0
 15 36  1  0  0  0  0
 16 17  1  0  0  0  0
 17 23  1  0  0  0  0
 17 18  2  0  0  0  0
 18 19  1  0  0  0  0
 18 37  1  0  0  0  0
 19 20  2  0  0  0  0
 19 38  1  0  0  0  0
 20 21  1  0  0  0  0
 20 22  1  0  0  0  0
 22 23  2  0  0  0  0
 22 39  1  0  0  0  0
 23 40  1  0  0  0  0
M  CHG  1   4   1
M  END
> <s_m_source_file>
AV-unprocessed.smi

> <i_m_source_file_index>
2193

> <i_lp_mmshare_version>
43012

> <i_f3d_flags>
0

> <s_epik_input>
W2NIXTFbY0hdW2NIXVtjSF1jKGMxMiluKGMobjIpW0NIMl1bT0hdKVtDSDJdW0NASF0oW09IXSlbQ0gyXU9jM1tjSF1bY0hdYyhGKVtjSF1bY0hdMw==

> <s_epik_cmdline>
J2VwaWtfcHl0aG9uJywgJy1waCcsICc3LjAnLCAnLXRuJywgJzgnLCAnLW1hJywgJzIwMCcsICctbWV0YWxfYmluZGluZycsICctaW1hZScsICc8aW5maWxlLm1hZT4nLCAnLW9tYWUnLCAnPG91dGZpbGUubWFlPic=

> <r_lp_tautomer_probability>
1

> <r_epik_Ionization_Penalty>
1.43752

> <r_epik_Ionization_Penalty_Charging>
1.43666

> <r_epik_Ionization_Penalty_Neutral>
0.000858184

> <r_epik_State_Penalty>
1.52171

> <r_epik_Charging_Adjusted_Penalty>
2.95837

> <i_epik_Tot_Q>
1

> <i_epik_Tot_abs_Q>
1

> <r_epik_Metal_State_Penalty>
5.56725

> <b_epik_Metal_Only>
0

> <s_lp_Force_Field>
OPLS_2005

> <r_lp_Energy>
18.7626

> <b_lp_Chiralities_Consistent>
1

> <s_lp_Variant>
AV-unprocessed.smi:2193-4

> <Gold.Version>
5.8.1

> <Gold.Id.Protein>
6NUR|6NUR_protein|mol2

> <Gold.PLP.Fitness>
56.1333

> <Gold.PLP.PLP>
-46.9025

> <Gold.PLP.part.hbond>
-3.0000

> <Gold.PLP.part.metal>
0.0000

> <Gold.PLP.part.buried>
-7.1273

> <Gold.PLP.part.nonpolar>
-37.4599

> <Gold.PLP.part.repulsive>
0.0129

> <Gold.PLP.ligand.clash>
0.0000

> <Gold.PLP.ligand.torsion>
1.2786

> <Gold.PLP.Chemscore.Hbond>
3.9120

> <Gold.PLP.Chemscore.CHOScore>
0.0000

> <Gold.PLP.Chemscore.Metal>
0.0000

> <Gold.Chemscore.Hbonds>
donor molecule, donor type, donor heavy atom, donor atom, acceptor molecule, acceptor atom, score
      L1  H     4    41       P1  8028  1.92
      P1  H  7989  7998       L1     1  0.71
      P1  H  7997  8010       L1    14  0.75

> <Gold.PLP.Chemscore.Internal.Correction>
0.0520

> <Gold.Rescore>
     Score         DG    S(hbond)    S(metal)    S(lipo)     H(rot)  DE(clash)    DE(int)     intcor
     18.18     -20.17       2.46        0.00     127.68       3.31       0.02       1.97       ----

> <Gold.Chemscore.Fitness>
18.1776

> <Gold.Chemscore.DG>
-20.1694

> <Gold.Chemscore.ZeroCoef>
-5.4800

> <Gold.Chemscore.Hbond>
2.4649

> <Gold.Chemscore.Metal>
0.0000

> <Gold.Chemscore.Lipo>
127.6835

> <Gold.Chemscore.Internal_Hbond>
0.0000

> <Gold.Chemscore.DEClash>
0.0173

> <Gold.Chemscore.DEInternal>
1.9745

> <Gold.Chemscore.Rot>
3.3134

> <Gold.Chemscore.Internal.Correction>
   9.000000E+99

> <Gold.Chemscore.Hbonds>
donor molecule, donor type, donor heavy atom, donor atom, acceptor molecule, acceptor atom, score
      L1  H     4    41       P1  8028  0.89
      P1  H  7989  7998       L1     1  0.09
      P1  H  7997  8010       L1    14  0.59

> <Gold.Chemscore.Hbond.Weighted>
-8.2327

> <Gold.Chemscore.Metal.Weighted>
-0.0000

> <Gold.Chemscore.Lipo.Weighted>
-14.9390

> <Gold.Chemscore.Internal_Hbond.Weighted>
0.0000

> <Gold.Chemscore.DEClash.Weighted>
0.0173

> <Gold.Chemscore.DEInternal.Weighted>
1.9745

> <Gold.Chemscore.Rot.Weighted>
8.4823

> <Gold.Chemscore.Internal.Correction.Weighted>
   9.000000E+99

> <Gold.Protein.RotatedTorsions>
[ 6907 6896 6895 6894 ] final   82.10 input  -60.11 | X-H torsion
[ 7974 7965 7964 7962 ] final   93.00 input  175.53 | X-H torsion
[ 8008 7997 7996 7995 ] final   51.22 input   59.86 | X-H torsion
[ 10167 10162 10161 10158 ] final    7.54 input  -65.29 | X-H torsion
[ 10718 10713 10712 10709 ] final  -49.91 input   66.30 | X-H torsion
[ 10763 10752 10751 10750 ] final -127.90 input  -60.55 | X-H torsion
[ 11005 11000 10999 10996 ] final -145.95 input  -57.11 | X-H torsion

> <Gold.Protein.ActiveResidues>
 VAL166  LYS551  ARG553  GLY616  TRP617  ASP618  TYR619  PRO620  LYS621  CYS622 
 ASP623  PHE694  ASN695  SER759  ASP760  ASP761  ALA762  ILE779  LEU786  VAL792 
 PHE793  MET794  SER795  GLU796  ALA797  LYS798  CYS799  TRP800  GLU811  SER814 

> <Gold.Protein.RotatedAtoms>
  152.5289  134.3103  159.9110 H   0  0  0  0  0  0  0  0  0  0  0  0  # atno 6907 bound_to 6896
  151.3052  133.4098  159.2650 H   0  0  0  0  0  0  0  0  0  0  0  0  # atno 6908 bound_to 6896
  151.0085  134.9394  159.8051 H   0  0  0  0  0  0  0  0  0  0  0  0  # atno 6909 bound_to 6896
  145.4848  139.2277  143.2862 H   0  0  0  0  0  0  0  0  0  0  0  0  # atno 7974 bound_to 7965
  155.4316  140.3451  155.4281 H   0  0  0  0  0  0  0  0  0  0  0  0  # atno 8008 bound_to 7997
  156.1333  140.1520  156.9064 H   0  0  0  0  0  0  0  0  0  0  0  0  # atno 8009 bound_to 7997
  154.4911  140.0841  156.7577 H   0  0  0  0  0  0  0  0  0  0  0  0  # atno 8010 bound_to 7997
  140.6366  143.7872  150.7368 H   0  0  0  0  0  0  0  0  0  0  0  0  # atno 10167 bound_to 10162
  156.1849  130.4151  149.9453 H   0  0  0  0  0  0  0  0  0  0  0  0  # atno 10718 bound_to 10713
  154.8754  135.3946  154.3669 H   0  0  0  0  0  0  0  0  0  0  0  0  # atno 10763 bound_to 10752
  153.4434  135.7027  153.6160 H   0  0  0  0  0  0  0  0  0  0  0  0  # atno 10764 bound_to 10752
  153.4731  135.3786  155.2371 H   0  0  0  0  0  0  0  0  0  0  0  0  # atno 10765 bound_to 10752
  140.7870  134.3013  157.5026 H   0  0  0  0  0  0  0  0  0  0  0  0  # atno 11005 bound_to 11000
  146.2319  140.5637  142.8971 LP  0  0  0  0  0  0  0  0  0  0  0  0  # atno 17320 bound_to 7965
  144.7868  140.5952  143.6568 LP  0  0  0  0  0  0  0  0  0  0  0  0  # atno 17321 bound_to 7965
  140.1495  143.4370  152.2141 LP  0  0  0  0  0  0  0  0  0  0  0  0  # atno 17342 bound_to 10162
  139.5576  144.7383  151.4249 LP  0  0  0  0  0  0  0  0  0  0  0  0  # atno 17343 bound_to 10162
  156.7212  130.9007  151.3618 LP  0  0  0  0  0  0  0  0  0  0  0  0  # atno 17370 bound_to 10713
  157.6892  130.9216  150.0468 LP  0  0  0  0  0  0  0  0  0  0  0  0  # atno 17371 bound_to 10713
  139.8735  134.9352  156.3627 LP  0  0  0  0  0  0  0  0  0  0  0  0  # atno 17394 bound_to 11000
  140.9427  133.7504  156.0167 LP  0  0  0  0  0  0  0  0  0  0  0  0  # atno 17395 bound_to 11000

$$$$
