AV-unprocessed.smi:2740|AV-procd|sdf|10554|dock1
  -GOLD-   2272015 03D 1   1.00000     0.00000
 Structure written by MMmdl.
 31 32  0  0  0  0  0  0  0  0  1 V2000
  144.6432  131.0293  151.0959 C   0  0  0  0  0  0  0  0  0  0  0  0
  144.8099  132.5021  151.2582 C   0  0  0  0  0  0  0  0  0  0  0  0
  143.8377  133.4695  151.1752 C   0  0  0  0  0  0  0  0  0  0  0  0
  144.3124  134.7677  151.3760 N   0  0  0  0  0  0  0  0  0  0  0  0
  145.6291  134.7892  151.6101 C   0  0  0  0  0  0  0  0  0  0  0  0
  146.3823  135.9694  151.8450 N   0  0  0  0  0  0  0  0  0  0  0  0
  145.9293  137.1951  152.1621 C   0  0  0  0  0  0  0  0  0  0  0  0
  144.7463  137.4985  152.3200 O   0  0  0  0  0  0  0  0  0  0  0  0
  146.9388  138.0678  152.2905 N   0  0  0  0  0  0  0  0  0  0  0  0
  146.7865  139.4771  152.6333 C   0  0  0  0  0  0  0  0  0  0  0  0
  147.6395  139.8594  153.8539 C   0  0  2  0  0  0  0  0  0  0  0  0
  148.1761  141.2873  153.8046 C   0  0  0  0  0  0  0  0  0  0  0  0
  149.3626  141.1953  154.7370 C   0  0  0  0  0  0  0  0  0  0  0  0
  149.9083  139.8044  154.4219 C   0  0  0  0  0  0  0  0  0  0  0  0
  148.8063  139.0448  153.9290 O   0  0  0  0  0  0  0  0  0  0  0  0
  146.3736  133.1982  151.6004 S   0  0  0  0  0  0  0  0  0  0  0  0
  143.7417  130.7979  150.5280 H   0  0  0  0  0  0  0  0  0  0  0  0
  144.5650  130.5408  152.0672 H   0  0  0  0  0  0  0  0  0  0  0  0
  145.4924  130.5968  150.5665 H   0  0  0  0  0  0  0  0  0  0  0  0
  142.7860  133.3242  150.9774 H   0  0  0  0  0  0  0  0  0  0  0  0
  147.3825  135.8708  151.7539 H   0  0  0  0  0  0  0  0  0  0  0  0
  147.8809  137.7341  152.1493 H   0  0  0  0  0  0  0  0  0  0  0  0
  147.0779  140.0758  151.7697 H   0  0  0  0  0  0  0  0  0  0  0  0
  145.7352  139.6992  152.8234 H   0  0  0  0  0  0  0  0  0  0  0  0
  147.0726  139.7275  154.7771 H   0  0  0  0  0  0  0  0  0  0  0  0
  148.5105  141.5404  152.7974 H   0  0  0  0  0  0  0  0  0  0  0  0
  147.4408  142.0285  154.1189 H   0  0  0  0  0  0  0  0  0  0  0  0
  150.0959  141.9869  154.5812 H   0  0  0  0  0  0  0  0  0  0  0  0
  149.0254  141.2402  155.7736 H   0  0  0  0  0  0  0  0  0  0  0  0
  150.6677  139.8582  153.6411 H   0  0  0  0  0  0  0  0  0  0  0  0
  150.3553  139.3314  155.2966 H   0  0  0  0  0  0  0  0  0  0  0  0
  1  2  1  0  0  0  0
  1 17  1  0  0  0  0
  1 18  1  0  0  0  0
  1 19  1  0  0  0  0
  2 16  1  0  0  0  0
  2  3  2  0  0  0  0
  3  4  1  0  0  0  0
  3 20  1  0  0  0  0
  4  5  2  0  0  0  0
  5  6  1  0  0  0  0
  5 16  1  0  0  0  0
  6  7  1  0  0  0  0
  6 21  1  0  0  0  0
  7  8  2  0  0  0  0
  7  9  1  0  0  0  0
  9 10  1  0  0  0  0
  9 22  1  0  0  0  0
 10 11  1  0  0  0  0
 10 23  1  0  0  0  0
 10 24  1  0  0  0  0
 11 15  1  0  0  0  0
 11 12  1  0  0  0  0
 11 25  1  0  0  0  0
 12 13  1  0  0  0  0
 12 26  1  0  0  0  0
 12 27  1  0  0  0  0
 13 14  1  0  0  0  0
 13 28  1  0  0  0  0
 13 29  1  0  0  0  0
 14 15  1  0  0  0  0
 14 30  1  0  0  0  0
 14 31  1  0  0  0  0
M  END
> <s_m_source_file>
AV-unprocessed.smi

> <i_m_source_file_index>
2740

> <i_lp_mmshare_version>
43012

> <i_f3d_flags>
0

> <s_epik_input>
W0NIM11jMVtjSF1uYyhzMSlbTkhdQyg9TylbTkhdW0NIMl1bQ0BASF0yW0NIMl1bQ0gyXVtDSDJdTzI=

> <s_epik_cmdline>
J2VwaWtfcHl0aG9uJywgJy1waCcsICc3LjAnLCAnLXRuJywgJzgnLCAnLW1hJywgJzIwMCcsICctbWV0YWxfYmluZGluZycsICctaW1hZScsICc8aW5maWxlLm1hZT4nLCAnLW9tYWUnLCAnPG91dGZpbGUubWFlPic=

> <r_lp_tautomer_probability>
0.999

> <r_epik_Ionization_Penalty>
0.000387528

> <r_epik_Ionization_Penalty_Charging>
0

> <r_epik_Ionization_Penalty_Neutral>
0.000387528

> <r_epik_State_Penalty>
0.000177984

> <r_epik_Charging_Adjusted_Penalty>
0.000177984

> <i_epik_Tot_Q>
0

> <i_epik_Tot_abs_Q>
0

> <r_epik_Metal_State_Penalty>
0.00626158

> <b_epik_Metal_Only>
0

> <s_lp_Force_Field>
OPLS_2005

> <r_lp_Energy>
15.1526

> <b_lp_Chiralities_Consistent>
1

> <s_lp_Variant>
AV-unprocessed.smi:2740-1

> <Gold.Version>
5.8.1

> <Gold.Id.Protein>
6NUR|6NUR_protein|mol2

> <Gold.PLP.Fitness>
36.4305

> <Gold.PLP.PLP>
-28.6096

> <Gold.PLP.part.hbond>
-2.0000

> <Gold.PLP.part.metal>
0.0000

> <Gold.PLP.part.buried>
-2.3833

> <Gold.PLP.part.nonpolar>
-25.6898

> <Gold.PLP.part.repulsive>
2.8866

> <Gold.PLP.ligand.clash>
0.0000

> <Gold.PLP.ligand.torsion>
0.4826

> <Gold.PLP.Chemscore.Hbond>
1.9280

> <Gold.PLP.Chemscore.CHOScore>
0.9996

> <Gold.PLP.Chemscore.Metal>
0.0000

> <Gold.Chemscore.Hbonds>
donor molecule, donor type, donor heavy atom, donor atom, acceptor molecule, acceptor atom, score
      L1  H     6    21       P1  7948  1.00
      L1  H     9    22       P1  7948  0.93
      L1  C     3    20       P1 10186  1.00

> <Gold.PLP.Chemscore.Internal.Correction>
0.0032

> <Gold.Rescore>
     Score         DG    S(hbond)    S(metal)    S(lipo)     H(rot)  DE(clash)    DE(int)     intcor
     14.43     -16.13       1.92        0.00      64.08       1.27       0.02       1.68       ----

> <Gold.Chemscore.Fitness>
14.4299

> <Gold.Chemscore.DG>
-16.1283

> <Gold.Chemscore.ZeroCoef>
-5.4800

> <Gold.Chemscore.Hbond>
1.9152

> <Gold.Chemscore.Metal>
0.0000

> <Gold.Chemscore.Lipo>
64.0769

> <Gold.Chemscore.Internal_Hbond>
0.0000

> <Gold.Chemscore.DEClash>
0.0234

> <Gold.Chemscore.DEInternal>
1.6750

> <Gold.Chemscore.Rot>
1.2678

> <Gold.Chemscore.Internal.Correction>
   9.000000E+99

> <Gold.Chemscore.Hbonds>
donor molecule, donor type, donor heavy atom, donor atom, acceptor molecule, acceptor atom, score
      L1  H     6    21       P1  7948  0.98
      L1  H     9    22       P1  7948  0.90

> <Gold.Chemscore.Hbond.Weighted>
-6.3968

> <Gold.Chemscore.Metal.Weighted>
-0.0000

> <Gold.Chemscore.Lipo.Weighted>
-7.4970

> <Gold.Chemscore.Internal_Hbond.Weighted>
0.0000

> <Gold.Chemscore.DEClash.Weighted>
0.0234

> <Gold.Chemscore.DEInternal.Weighted>
1.6750

> <Gold.Chemscore.Rot.Weighted>
3.2455

> <Gold.Chemscore.Internal.Correction.Weighted>
   9.000000E+99

> <Gold.Protein.RotatedTorsions>
[ 6907 6896 6895 6894 ] final -148.74 input  -60.11 | X-H torsion
[ 7974 7965 7964 7962 ] final -115.20 input  175.53 | X-H torsion
[ 8008 7997 7996 7995 ] final  -96.32 input   59.86 | X-H torsion
[ 10167 10162 10161 10158 ] final  119.93 input  -65.29 | X-H torsion
[ 10718 10713 10712 10709 ] final  -63.86 input   66.30 | X-H torsion
[ 10763 10752 10751 10750 ] final  108.84 input  -60.55 | X-H torsion
[ 11005 11000 10999 10996 ] final -155.19 input  -57.11 | X-H torsion

> <Gold.Protein.ActiveResidues>
 VAL166  LYS551  ARG553  GLY616  TRP617  ASP618  TYR619  PRO620  LYS621  CYS622 
 ASP623  PHE694  ASN695  SER759  ASP760  ASP761  ALA762  ILE779  LEU786  VAL792 
 PHE793  MET794  SER795  GLU796  ALA797  LYS798  CYS799  TRP800  GLU811  SER814 

> <Gold.Protein.RotatedAtoms>
  151.1741  133.4765  159.2593 H   0  0  0  0  0  0  0  0  0  0  0  0  # atno 6907 bound_to 6896
  151.1326  135.0138  159.8599 H   0  0  0  0  0  0  0  0  0  0  0  0  # atno 6908 bound_to 6896
  152.5460  134.1643  159.8623 H   0  0  0  0  0  0  0  0  0  0  0  0  # atno 6909 bound_to 6896
  145.1112  140.8613  143.3869 H   0  0  0  0  0  0  0  0  0  0  0  0  # atno 7974 bound_to 7965
  154.7729  140.0472  157.1066 H   0  0  0  0  0  0  0  0  0  0  0  0  # atno 8008 bound_to 7997
  154.9798  140.3100  155.4932 H   0  0  0  0  0  0  0  0  0  0  0  0  # atno 8009 bound_to 7997
  156.2924  140.2238  156.4896 H   0  0  0  0  0  0  0  0  0  0  0  0  # atno 8010 bound_to 7997
  139.6014  144.7058  151.3053 H   0  0  0  0  0  0  0  0  0  0  0  0  # atno 10167 bound_to 10162
  156.0764  130.4226  150.1338 H   0  0  0  0  0  0  0  0  0  0  0  0  # atno 10718 bound_to 10713
  153.4263  135.3799  155.2143 H   0  0  0  0  0  0  0  0  0  0  0  0  # atno 10763 bound_to 10752
  154.8747  135.3829  154.4322 H   0  0  0  0  0  0  0  0  0  0  0  0  # atno 10764 bound_to 10752
  153.4849  135.7088  153.5980 H   0  0  0  0  0  0  0  0  0  0  0  0  # atno 10765 bound_to 10752
  140.6891  134.4061  157.5221 H   0  0  0  0  0  0  0  0  0  0  0  0  # atno 11005 bound_to 11000
  145.0845  139.2935  143.5767 LP  0  0  0  0  0  0  0  0  0  0  0  0  # atno 17320 bound_to 7965
  146.3526  140.0362  142.8646 LP  0  0  0  0  0  0  0  0  0  0  0  0  # atno 17321 bound_to 7965
  140.7252  143.7022  150.7836 LP  0  0  0  0  0  0  0  0  0  0  0  0  # atno 17342 bound_to 10162
  140.0599  143.5165  152.2632 LP  0  0  0  0  0  0  0  0  0  0  0  0  # atno 17343 bound_to 10162
  156.9378  130.9734  151.3521 LP  0  0  0  0  0  0  0  0  0  0  0  0  # atno 17370 bound_to 10713
  157.5862  130.8411  149.8593 LP  0  0  0  0  0  0  0  0  0  0  0  0  # atno 17371 bound_to 10713
  139.8929  134.8744  156.2250 LP  0  0  0  0  0  0  0  0  0  0  0  0  # atno 17394 bound_to 11000
  141.0256  133.7017  156.1341 LP  0  0  0  0  0  0  0  0  0  0  0  0  # atno 17395 bound_to 11000

$$$$
