AV-unprocessed.smi:2563|AV-procd|sdf|10061|dock9
  -GOLD-   2272014103D 1   1.00000     0.00000
 Structure written by MMmdl.
 34 35  0  0  0  0  0  0  0  0  1 V2000
  152.9157  138.5402  159.2400 C   0  0  0  0  0  0  0  0  0  0  0  0
  152.8681  139.9682  158.6803 C   0  0  0  0  0  0  0  0  0  0  0  0
  151.7646  140.1583  157.7376 N   0  0  0  0  0  0  0  0  0  0  0  0
  150.7047  141.1033  158.0876 C   0  0  0  0  0  0  0  0  0  0  0  0
  151.1978  142.5613  158.1110 C   0  0  1  0  0  0  0  0  0  0  0  0
  150.0216  143.5504  158.2431 C   0  0  0  0  0  0  0  0  0  0  0  0
  150.5137  144.9247  158.3274 N   0  0  0  0  0  0  0  0  0  0  0  0
  151.4759  145.0787  159.4166 C   0  0  0  0  0  0  0  0  0  0  0  0
  152.6113  144.0514  159.2726 C   0  0  0  0  0  0  0  0  0  0  0  0
  152.0575  142.7412  159.2337 O   0  0  0  0  0  0  0  0  0  0  0  0
  151.7781  139.5057  156.4798 C   0  0  0  0  0  0  0  0  0  0  0  0
  150.7102  139.6275  155.5563 C   0  0  0  0  0  0  0  0  0  0  0  0
  150.8086  138.9446  154.3322 C   0  0  0  0  0  0  0  0  0  0  0  0
  151.9675  138.1836  154.1072 C   0  0  0  0  0  0  0  0  0  0  0  0
  152.9621  138.0940  155.0152 N   0  0  0  0  0  0  0  0  0  0  0  0
  152.8636  138.7450  156.1789 N   0  0  0  0  0  0  0  0  0  0  0  0
  153.7477  138.4269  159.9350 H   0  0  0  0  0  0  0  0  0  0  0  0
  153.0459  137.8057  158.4449 H   0  0  0  0  0  0  0  0  0  0  0  0
  152.0000  138.2931  159.7776 H   0  0  0  0  0  0  0  0  0  0  0  0
  152.8167  140.6941  159.4922 H   0  0  0  0  0  0  0  0  0  0  0  0
  153.8064  140.1770  158.1659 H   0  0  0  0  0  0  0  0  0  0  0  0
  149.9295  141.0148  157.3259 H   0  0  0  0  0  0  0  0  0  0  0  0
  150.2095  140.8378  159.0206 H   0  0  0  0  0  0  0  0  0  0  0  0
  151.7455  142.7722  157.1904 H   0  0  0  0  0  0  0  0  0  0  0  0
  149.3496  143.4497  157.3906 H   0  0  0  0  0  0  0  0  0  0  0  0
  149.4369  143.3118  159.1324 H   0  0  0  0  0  0  0  0  0  0  0  0
  149.7332  145.5577  158.4709 H   0  0  0  0  0  0  0  0  0  0  0  0
  151.8822  146.0903  159.4183 H   0  0  0  0  0  0  0  0  0  0  0  0
  150.9761  144.9391  160.3760 H   0  0  0  0  0  0  0  0  0  0  0  0
  153.2019  144.2407  158.3748 H   0  0  0  0  0  0  0  0  0  0  0  0
  153.2914  144.1220  160.1216 H   0  0  0  0  0  0  0  0  0  0  0  0
  149.8264  140.2119  155.7576 H   0  0  0  0  0  0  0  0  0  0  0  0
  150.0230  139.0009  153.5934 H   0  0  0  0  0  0  0  0  0  0  0  0
  152.0999  137.6363  153.1858 H   0  0  0  0  0  0  0  0  0  0  0  0
  1  2  1  0  0  0  0
  1 17  1  0  0  0  0
  1 18  1  0  0  0  0
  1 19  1  0  0  0  0
  2  3  1  0  0  0  0
  2 20  1  0  0  0  0
  2 21  1  0  0  0  0
  3  4  1  0  0  0  0
  3 11  1  0  0  0  0
  4  5  1  0  0  0  0
  4 22  1  0  0  0  0
  4 23  1  0  0  0  0
  5 10  1  0  0  0  0
  5  6  1  0  0  0  0
  5 24  1  0  0  0  0
  6  7  1  0  0  0  0
  6 25  1  0  0  0  0
  6 26  1  0  0  0  0
  7  8  1  0  0  0  0
  7 27  1  0  0  0  0
  8  9  1  0  0  0  0
  8 28  1  0  0  0  0
  8 29  1  0  0  0  0
  9 10  1  0  0  0  0
  9 30  1  0  0  0  0
  9 31  1  0  0  0  0
 11 16  1  0  0  0  0
 11 12  2  0  0  0  0
 12 13  1  0  0  0  0
 12 32  1  0  0  0  0
 13 14  2  0  0  0  0
 13 33  1  0  0  0  0
 14 15  1  0  0  0  0
 14 34  1  0  0  0  0
 15 16  2  0  0  0  0
M  END
> <s_m_source_file>
AV-unprocessed.smi

> <i_m_source_file_index>
2563

> <i_lp_mmshare_version>
43012

> <i_f3d_flags>
0

> <s_epik_input>
bjFuW2NIXVtjSF1bY0hdYzFOKFtDSDJdW0NIM10pW0NIMl1bQ0BASF0yW0NIMl1bTkhdW0NIMl1bQ0gyXU8y

> <s_epik_cmdline>
J2VwaWtfcHl0aG9uJywgJy1waCcsICc3LjAnLCAnLXRuJywgJzgnLCAnLW1hJywgJzIwMCcsICctbWV0YWxfYmluZGluZycsICctaW1hZScsICc8aW5maWxlLm1hZT4nLCAnLW9tYWUnLCAnPG91dGZpbGUubWFlPic=

> <r_lp_tautomer_probability>
1

> <r_epik_Ionization_Penalty>
2.34719

> <r_epik_Ionization_Penalty_Charging>
0

> <r_epik_Ionization_Penalty_Neutral>
2.34719

> <r_epik_State_Penalty>
2.60452

> <r_epik_Charging_Adjusted_Penalty>
2.60452

> <i_epik_Tot_Q>
0

> <i_epik_Tot_abs_Q>
0

> <r_epik_Metal_State_Penalty>
2.56937

> <b_epik_Metal_Only>
0

> <s_lp_Force_Field>
OPLS_2005

> <r_lp_Energy>
25.3459

> <b_lp_Chiralities_Consistent>
1

> <s_lp_Variant>
AV-unprocessed.smi:2563-6

> <Gold.Version>
5.8.1

> <Gold.Id.Protein>
6NUR|6NUR_protein|mol2

> <Gold.PLP.Fitness>
39.0723

> <Gold.PLP.PLP>
-31.8328

> <Gold.PLP.part.hbond>
-3.9196

> <Gold.PLP.part.metal>
0.0000

> <Gold.PLP.part.buried>
-4.1518

> <Gold.PLP.part.nonpolar>
-24.1931

> <Gold.PLP.part.repulsive>
0.0234

> <Gold.PLP.ligand.clash>
0.0000

> <Gold.PLP.ligand.torsion>
0.1916

> <Gold.PLP.Chemscore.Hbond>
1.5330

> <Gold.PLP.Chemscore.CHOScore>
1.0000

> <Gold.PLP.Chemscore.Metal>
0.0000

> <Gold.Chemscore.Hbonds>
donor molecule, donor type, donor heavy atom, donor atom, acceptor molecule, acceptor atom, score
      L1  H     7    27       P1  8029  0.35
      P1  H  7997  8009       L1    16  0.99
      L1  C    14    34       P1  7949  0.99

> <Gold.PLP.Chemscore.Internal.Correction>
0.0237

> <Gold.Rescore>
     Score         DG    S(hbond)    S(metal)    S(lipo)     H(rot)  DE(clash)    DE(int)     intcor
     13.10     -14.89       1.23        0.00      75.04       1.36       0.24       1.56       ----

> <Gold.Chemscore.Fitness>
13.0958

> <Gold.Chemscore.DG>
-14.8946

> <Gold.Chemscore.ZeroCoef>
-5.4800

> <Gold.Chemscore.Hbond>
1.2339

> <Gold.Chemscore.Metal>
0.0000

> <Gold.Chemscore.Lipo>
75.0380

> <Gold.Chemscore.Internal_Hbond>
0.0000

> <Gold.Chemscore.DEClash>
0.2362

> <Gold.Chemscore.DEInternal>
1.5626

> <Gold.Chemscore.Rot>
1.3618

> <Gold.Chemscore.Internal.Correction>
   9.000000E+99

> <Gold.Chemscore.Hbonds>
donor molecule, donor type, donor heavy atom, donor atom, acceptor molecule, acceptor atom, score
      L1  H     7    27       P1  8029  0.27
      P1  H  7997  8009       L1    16  0.17

> <Gold.Chemscore.Hbond.Weighted>
-4.1213

> <Gold.Chemscore.Metal.Weighted>
-0.0000

> <Gold.Chemscore.Lipo.Weighted>
-8.7794

> <Gold.Chemscore.Internal_Hbond.Weighted>
0.0000

> <Gold.Chemscore.DEClash.Weighted>
0.2362

> <Gold.Chemscore.DEInternal.Weighted>
1.5626

> <Gold.Chemscore.Rot.Weighted>
3.4861

> <Gold.Chemscore.Internal.Correction.Weighted>
   9.000000E+99

> <Gold.Protein.RotatedTorsions>
[ 6907 6896 6895 6894 ] final  137.53 input  -60.11 | X-H torsion
[ 7974 7965 7964 7962 ] final   18.21 input  175.53 | X-H torsion
[ 8008 7997 7996 7995 ] final -153.16 input   59.86 | X-H torsion
[ 10167 10162 10161 10158 ] final   21.04 input  -65.29 | X-H torsion
[ 10718 10713 10712 10709 ] final   55.56 input   66.30 | X-H torsion
[ 10763 10752 10751 10750 ] final  -28.20 input  -60.55 | X-H torsion
[ 11005 11000 10999 10996 ] final   -7.93 input  -57.11 | X-H torsion

> <Gold.Protein.ActiveResidues>
 VAL166  LYS551  ARG553  GLY616  TRP617  ASP618  TYR619  PRO620  LYS621  CYS622 
 ASP623  PHE694  ASN695  SER759  ASP760  ASP761  ALA762  ILE779  LEU786  VAL792 
 PHE793  MET794  SER795  GLU796  ALA797  LYS798  CYS799  TRP800  GLU811  SER814 

> <Gold.Protein.RotatedAtoms>
  152.2771  133.5435  159.5474 H   0  0  0  0  0  0  0  0  0  0  0  0  # atno 6907 bound_to 6896
  150.7181  134.0617  159.3842 H   0  0  0  0  0  0  0  0  0  0  0  0  # atno 6908 bound_to 6896
  151.8529  135.0551  160.0512 H   0  0  0  0  0  0  0  0  0  0  0  0  # atno 6909 bound_to 6896
  146.2193  139.8490  142.8626 H   0  0  0  0  0  0  0  0  0  0  0  0  # atno 7974 bound_to 7965
  155.6665  140.0728  157.2535 H   0  0  0  0  0  0  0  0  0  0  0  0  # atno 8008 bound_to 7997
  154.4132  140.1706  156.1884 H   0  0  0  0  0  0  0  0  0  0  0  0  # atno 8009 bound_to 7997
  155.9653  140.3366  155.6529 H   0  0  0  0  0  0  0  0  0  0  0  0  # atno 8010 bound_to 7997
  140.5457  143.9598  150.6546 H   0  0  0  0  0  0  0  0  0  0  0  0  # atno 10167 bound_to 10162
  157.5355  130.8660  149.8747 H   0  0  0  0  0  0  0  0  0  0  0  0  # atno 10718 bound_to 10713
  153.7444  135.6930  153.4959 H   0  0  0  0  0  0  0  0  0  0  0  0  # atno 10763 bound_to 10752
  153.2046  135.4424  155.0307 H   0  0  0  0  0  0  0  0  0  0  0  0  # atno 10764 bound_to 10752
  154.8209  135.3421  154.6968 H   0  0  0  0  0  0  0  0  0  0  0  0  # atno 10765 bound_to 10752
  140.7180  133.8852  155.8799 H   0  0  0  0  0  0  0  0  0  0  0  0  # atno 11005 bound_to 11000
  145.2820  141.0141  143.3712 LP  0  0  0  0  0  0  0  0  0  0  0  0  # atno 17320 bound_to 7965
  144.9142  139.4490  143.6572 LP  0  0  0  0  0  0  0  0  0  0  0  0  # atno 17321 bound_to 7965
  140.3010  143.3260  152.0971 LP  0  0  0  0  0  0  0  0  0  0  0  0  # atno 17342 bound_to 10162
  139.5006  144.6696  151.6274 LP  0  0  0  0  0  0  0  0  0  0  0  0  # atno 17343 bound_to 10162
  156.0455  130.3729  150.1328 LP  0  0  0  0  0  0  0  0  0  0  0  0  # atno 17370 bound_to 10713
  156.9510  130.9775  151.3498 LP  0  0  0  0  0  0  0  0  0  0  0  0  # atno 17371 bound_to 10713
  141.0028  134.1127  157.4300 LP  0  0  0  0  0  0  0  0  0  0  0  0  # atno 17394 bound_to 11000
  139.8855  135.0073  156.6439 LP  0  0  0  0  0  0  0  0  0  0  0  0  # atno 17395 bound_to 11000

$$$$
