AV-unprocessed.smi:3327|AV-procd|sdf|12788|dock1
  -GOLD-   2272019133D 1   1.00000     0.00000
 Structure written by MMmdl.
 41 42  0  0  0  0  0  0  0  0  2 V2000
  154.4975  141.0090  160.4490 C   0  0  0  0  0  0  0  0  0  0  0  0
  153.2882  141.9527  160.5031 C   0  0  1  0  0  0  0  0  0  0  0  0
  153.0037  142.4267  161.9450 C   0  0  0  0  0  0  0  0  0  0  0  0
  151.8703  143.4684  161.9962 C   0  0  0  0  0  0  0  0  0  0  0  0
  152.1245  144.6052  160.9913 C   0  0  0  0  0  0  0  0  0  0  0  0
  152.2801  144.0231  159.6513 N   0  0  0  0  0  0  0  0  0  0  0  0
  151.3968  144.1485  158.6311 C   0  0  0  0  0  0  0  0  0  0  0  0
  150.3729  144.8277  158.7266 O   0  0  0  0  0  0  0  0  0  0  0  0
  151.6807  143.4233  157.3064 C   0  0  0  0  0  0  0  0  0  0  0  0
  150.4918  142.7222  156.7798 N   0  3  0  0  0  0  0  0  0  0  0  0
  150.7990  141.6464  155.8159 C   0  0  0  0  0  0  0  0  0  0  0  0
  149.7842  140.4953  155.9071 C   0  0  0  0  0  0  0  0  0  0  0  0
  148.6613  140.6797  155.0054 N   0  0  0  0  0  0  0  0  0  0  0  0
  148.3956  141.7479  154.1748 C   0  0  0  0  0  0  0  0  0  0  0  0
  147.2336  141.4691  153.5141 C   0  0  0  0  0  0  0  0  0  0  0  0
  146.8569  140.1919  154.0157 C   0  0  0  0  0  0  0  0  0  0  0  0
  147.7154  139.7206  154.9059 N   0  0  0  0  0  0  0  0  0  0  0  0
  153.4719  143.1676  159.5688 C   0  0  0  0  0  0  0  0  0  0  0  0
  155.4073  141.5105  160.7802 H   0  0  0  0  0  0  0  0  0  0  0  0
  154.6675  140.6469  159.4348 H   0  0  0  0  0  0  0  0  0  0  0  0
  154.3451  140.1388  161.0880 H   0  0  0  0  0  0  0  0  0  0  0  0
  152.4188  141.3921  160.1558 H   0  0  0  0  0  0  0  0  0  0  0  0
  152.7559  141.5763  162.5811 H   0  0  0  0  0  0  0  0  0  0  0  0
  153.9084  142.8697  162.3638 H   0  0  0  0  0  0  0  0  0  0  0  0
  150.9186  142.9861  161.7694 H   0  0  0  0  0  0  0  0  0  0  0  0
  151.7810  143.8720  163.0051 H   0  0  0  0  0  0  0  0  0  0  0  0
  151.3286  145.3445  161.0627 H   0  0  0  0  0  0  0  0  0  0  0  0
  153.0388  145.1380  161.2572 H   0  0  0  0  0  0  0  0  0  0  0  0
  152.0208  144.1462  156.5636 H   0  0  0  0  0  0  0  0  0  0  0  0
  152.4769  142.6937  157.4600 H   0  0  0  0  0  0  0  0  0  0  0  0
  149.9893  142.3199  157.5589 H   0  0  0  0  0  0  0  0  0  0  0  0
  150.7872  142.0652  154.8089 H   0  0  0  0  0  0  0  0  0  0  0  0
  151.8074  141.2698  155.9934 H   0  0  0  0  0  0  0  0  0  0  0  0
  150.2619  139.5376  155.6936 H   0  0  0  0  0  0  0  0  0  0  0  0
  149.3942  140.4286  156.9235 H   0  0  0  0  0  0  0  0  0  0  0  0
  149.0481  142.6075  154.1223 H   0  0  0  0  0  0  0  0  0  0  0  0
  146.7280  142.0846  152.7848 H   0  0  0  0  0  0  0  0  0  0  0  0
  145.9925  139.5969  153.7602 H   0  0  0  0  0  0  0  0  0  0  0  0
  154.3497  143.7439  159.8656 H   0  0  0  0  0  0  0  0  0  0  0  0
  153.6746  142.8276  158.5522 H   0  0  0  0  0  0  0  0  0  0  0  0
  149.8909  143.3995  156.3319 H   0  0  0  0  0  0  0  0  0  0  0  0
  1  2  1  0  0  0  0
  1 19  1  0  0  0  0
  1 20  1  0  0  0  0
  1 21  1  0  0  0  0
  2 18  1  0  0  0  0
  2  3  1  0  0  0  0
  2 22  1  0  0  0  0
  3  4  1  0  0  0  0
  3 23  1  0  0  0  0
  3 24  1  0  0  0  0
  4  5  1  0  0  0  0
  4 25  1  0  0  0  0
  4 26  1  0  0  0  0
  5  6  1  0  0  0  0
  5 27  1  0  0  0  0
  5 28  1  0  0  0  0
  6  7  1  0  0  0  0
  6 18  1  0  0  0  0
  7  8  2  0  0  0  0
  7  9  1  0  0  0  0
  9 10  1  0  0  0  0
  9 29  1  0  0  0  0
  9 30  1  0  0  0  0
 10 11  1  0  0  0  0
 10 31  1  0  0  0  0
 10 41  1  0  0  0  0
 11 12  1  0  0  0  0
 11 32  1  0  0  0  0
 11 33  1  0  0  0  0
 12 13  1  0  0  0  0
 12 34  1  0  0  0  0
 12 35  1  0  0  0  0
 13 17  1  0  0  0  0
 13 14  1  0  0  0  0
 14 15  2  0  0  0  0
 14 36  1  0  0  0  0
 15 16  1  0  0  0  0
 15 37  1  0  0  0  0
 16 17  2  0  0  0  0
 16 38  1  0  0  0  0
 18 39  1  0  0  0  0
 18 40  1  0  0  0  0
M  CHG  1  10   1
M  END
> <s_m_source_file>
AV-unprocessed.smi

> <i_m_source_file_index>
3327

> <i_lp_mmshare_version>
43012

> <i_f3d_flags>
0

> <s_epik_input>
W0NIM11bQ0BASF0xW0NIMl1bQ0gyXVtDSDJdTihbQ0gyXTEpQyg9TylbQ0gyXVtOSF1bQ0gyXVtDSDJdbjJbY0hdW2NIXVtjSF1uMg==

> <s_epik_cmdline>
J2VwaWtfcHl0aG9uJywgJy1waCcsICc3LjAnLCAnLXRuJywgJzgnLCAnLW1hJywgJzIwMCcsICctbWV0YWxfYmluZGluZycsICctaW1hZScsICc8aW5maWxlLm1hZT4nLCAnLW9tYWUnLCAnPG91dGZpbGUubWFlPic=

> <r_lp_tautomer_probability>
1

> <r_epik_Ionization_Penalty>
0.195801

> <r_epik_Ionization_Penalty_Charging>
0.195799

> <r_epik_Ionization_Penalty_Neutral>
2.33113e-06

> <r_epik_State_Penalty>
0.185548

> <r_epik_Charging_Adjusted_Penalty>
0.381347

> <i_epik_Tot_Q>
1

> <i_epik_Tot_abs_Q>
1

> <r_epik_Metal_State_Penalty>
0.186014

> <b_epik_Metal_Only>
0

> <s_lp_Force_Field>
OPLS_2005

> <r_lp_Energy>
21.4811

> <b_lp_Chiralities_Consistent>
1

> <s_lp_Variant>
AV-unprocessed.smi:3327-2

> <Gold.Version>
5.8.1

> <Gold.Id.Protein>
6NUR|6NUR_protein|mol2

> <Gold.PLP.Fitness>
53.5418

> <Gold.PLP.PLP>
-42.8931

> <Gold.PLP.part.hbond>
-1.0000

> <Gold.PLP.part.metal>
0.0000

> <Gold.PLP.part.buried>
-2.8177

> <Gold.PLP.part.nonpolar>
-40.9239

> <Gold.PLP.part.repulsive>
0.4954

> <Gold.PLP.ligand.clash>
0.0000

> <Gold.PLP.ligand.torsion>
0.6937

> <Gold.PLP.Chemscore.Hbond>
2.0000

> <Gold.PLP.Chemscore.CHOScore>
1.9925

> <Gold.PLP.Chemscore.Metal>
0.0000

> <Gold.Chemscore.Hbonds>
donor molecule, donor type, donor heavy atom, donor atom, acceptor molecule, acceptor atom, score
      L1  H    10    41       P1  8028  2.00
      L1  C    14    36       P1  8028  0.77
      L1  C    16    38       P1 10175  0.34

> <Gold.PLP.Chemscore.Internal.Correction>
0.0585

> <Gold.Rescore>
     Score         DG    S(hbond)    S(metal)    S(lipo)     H(rot)  DE(clash)    DE(int)     intcor
     16.38     -17.61       1.00        0.00     114.48       1.80       0.13       1.09       ----

> <Gold.Chemscore.Fitness>
16.3822

> <Gold.Chemscore.DG>
-17.6076

> <Gold.Chemscore.ZeroCoef>
-5.4800

> <Gold.Chemscore.Hbond>
0.9975

> <Gold.Chemscore.Metal>
0.0000

> <Gold.Chemscore.Lipo>
114.4812

> <Gold.Chemscore.Internal_Hbond>
0.0000

> <Gold.Chemscore.DEClash>
0.1332

> <Gold.Chemscore.DEInternal>
1.0922

> <Gold.Chemscore.Rot>
1.7963

> <Gold.Chemscore.Internal.Correction>
   9.000000E+99

> <Gold.Chemscore.Hbonds>
donor molecule, donor type, donor heavy atom, donor atom, acceptor molecule, acceptor atom, score
      L1  H    10    41       P1  8028  1.00

> <Gold.Chemscore.Hbond.Weighted>
-3.3318

> <Gold.Chemscore.Metal.Weighted>
-0.0000

> <Gold.Chemscore.Lipo.Weighted>
-13.3943

> <Gold.Chemscore.Internal_Hbond.Weighted>
0.0000

> <Gold.Chemscore.DEClash.Weighted>
0.1332

> <Gold.Chemscore.DEInternal.Weighted>
1.0922

> <Gold.Chemscore.Rot.Weighted>
4.5985

> <Gold.Chemscore.Internal.Correction.Weighted>
   9.000000E+99

> <Gold.Protein.RotatedTorsions>
[ 6907 6896 6895 6894 ] final  119.32 input  -60.11 | X-H torsion
[ 7974 7965 7964 7962 ] final  -52.86 input  175.53 | X-H torsion
[ 8008 7997 7996 7995 ] final  160.47 input   59.86 | X-H torsion
[ 10167 10162 10161 10158 ] final -120.45 input  -65.29 | X-H torsion
[ 10718 10713 10712 10709 ] final  145.49 input   66.30 | X-H torsion
[ 10763 10752 10751 10750 ] final   39.17 input  -60.55 | X-H torsion
[ 11005 11000 10999 10996 ] final   57.88 input  -57.11 | X-H torsion

> <Gold.Protein.ActiveResidues>
 VAL166  LYS551  ARG553  GLY616  TRP617  ASP618  TYR619  PRO620  LYS621  CYS622 
 ASP623  PHE694  ASN695  SER759  ASP760  ASP761  ALA762  ILE779  LEU786  VAL792 
 PHE793  MET794  SER795  GLU796  ALA797  LYS798  CYS799  TRP800  GLU811  SER814 

> <Gold.Protein.RotatedAtoms>
  152.4480  133.7574  159.6727 H   0  0  0  0  0  0  0  0  0  0  0  0  # atno 6907 bound_to 6896
  150.8385  133.7965  159.3076 H   0  0  0  0  0  0  0  0  0  0  0  0  # atno 6908 bound_to 6896
  151.5597  135.1068  160.0021 H   0  0  0  0  0  0  0  0  0  0  0  0  # atno 6909 bound_to 6896
  145.9033  140.7976  142.9732 H   0  0  0  0  0  0  0  0  0  0  0  0  # atno 7974 bound_to 7965
  156.2170  140.1803  156.7565 H   0  0  0  0  0  0  0  0  0  0  0  0  # atno 8008 bound_to 7997
  154.5807  140.0667  156.9129 H   0  0  0  0  0  0  0  0  0  0  0  0  # atno 8009 bound_to 7997
  155.2508  140.3329  155.4285 H   0  0  0  0  0  0  0  0  0  0  0  0  # atno 8010 bound_to 7997
  140.0357  143.5203  152.2154 H   0  0  0  0  0  0  0  0  0  0  0  0  # atno 10167 bound_to 10162
  157.3446  131.0941  151.1053 H   0  0  0  0  0  0  0  0  0  0  0  0  # atno 10718 bound_to 10713
  152.9976  135.6228  154.2422 H   0  0  0  0  0  0  0  0  0  0  0  0  # atno 10763 bound_to 10752
  154.2162  135.2798  155.2942 H   0  0  0  0  0  0  0  0  0  0  0  0  # atno 10764 bound_to 10752
  154.5566  135.5717  153.7028 H   0  0  0  0  0  0  0  0  0  0  0  0  # atno 10765 bound_to 10752
  140.0419  134.5861  155.9371 H   0  0  0  0  0  0  0  0  0  0  0  0  # atno 11005 bound_to 11000
  144.6737  140.1711  143.7414 LP  0  0  0  0  0  0  0  0  0  0  0  0  # atno 17320 bound_to 7965
  145.8764  139.2299  143.1631 LP  0  0  0  0  0  0  0  0  0  0  0  0  # atno 17321 bound_to 7965
  139.6046  144.7592  151.3091 LP  0  0  0  0  0  0  0  0  0  0  0  0  # atno 17342 bound_to 10162
  140.7282  143.6941  150.7898 LP  0  0  0  0  0  0  0  0  0  0  0  0  # atno 17343 bound_to 10162
  157.2251  130.6499  149.5827 LP  0  0  0  0  0  0  0  0  0  0  0  0  # atno 17370 bound_to 10713
  155.9712  130.4616  150.6117 LP  0  0  0  0  0  0  0  0  0  0  0  0  # atno 17371 bound_to 10713
  141.1887  133.6563  156.5337 LP  0  0  0  0  0  0  0  0  0  0  0  0  # atno 17394 bound_to 11000
  140.4055  134.7318  157.4805 LP  0  0  0  0  0  0  0  0  0  0  0  0  # atno 17395 bound_to 11000

$$$$
