AV-unprocessed.smi:10|AV-procd|sdf|54|dock4
  -GOLD-   2262015173D 1   1.00000     0.00000
 Structure written by MMmdl.
 34 36  0  0  0  0  0  0  0  0  1 V2000
  152.0462  144.8980  160.3857 C   0  0  0  0  0  0  0  0  0  0  0  0
  152.2570  143.5188  159.9969 N   0  0  0  0  0  0  0  0  0  0  0  0
  153.0144  142.5991  160.6238 C   0  0  0  0  0  0  0  0  0  0  0  0
  153.0355  141.3975  160.0495 N   0  0  0  0  0  0  0  0  0  0  0  0
  152.2073  141.5805  158.9477 C   0  0  0  0  0  0  0  0  0  0  0  0
  151.8000  140.6381  157.8804 C   0  0  0  0  0  0  0  0  0  0  0  0
  152.1812  139.4676  157.8531 O   0  0  0  0  0  0  0  0  0  0  0  0
  150.9719  141.2050  156.9527 N   0  0  0  0  0  0  0  0  0  0  0  0
  150.4728  140.4247  155.8097 C   0  0  0  0  0  0  0  0  0  0  0  0
  149.6405  141.2834  154.8327 C   0  0  1  0  0  0  0  0  0  0  0  0
  149.8412  140.7885  153.5229 O   0  0  0  0  0  0  0  0  0  0  0  0
  148.1442  141.2270  155.1567 C   0  0  0  0  0  0  0  0  0  0  0  0
  147.1252  142.0573  154.3595 C   0  0  0  0  0  0  0  0  0  0  0  0
  146.2971  142.1809  155.6430 C   0  0  0  0  0  0  0  0  0  0  0  0
  147.5764  141.8758  156.4298 C   0  0  0  0  0  0  0  0  0  0  0  0
  150.5384  142.5627  157.0339 C   0  0  0  0  0  0  0  0  0  0  0  0
  150.8796  143.4167  157.9637 N   0  0  0  0  0  0  0  0  0  0  0  0
  151.7240  142.8582  158.8969 C   0  0  0  0  0  0  0  0  0  0  0  0
  152.5563  145.1079  161.3262 H   0  0  0  0  0  0  0  0  0  0  0  0
  150.9794  145.0853  160.5107 H   0  0  0  0  0  0  0  0  0  0  0  0
  152.4381  145.5601  159.6134 H   0  0  0  0  0  0  0  0  0  0  0  0
  153.5669  142.8162  161.5262 H   0  0  0  0  0  0  0  0  0  0  0  0
  151.2784  139.9121  155.2795 H   0  0  0  0  0  0  0  0  0  0  0  0
  149.8510  139.6150  156.1964 H   0  0  0  0  0  0  0  0  0  0  0  0
  149.9712  142.3224  154.8606 H   0  0  0  0  0  0  0  0  0  0  0  0
  149.2990  140.0232  153.4063 H   0  0  0  0  0  0  0  0  0  0  0  0
  147.8091  140.1873  155.1412 H   0  0  0  0  0  0  0  0  0  0  0  0
  147.5200  143.0166  154.0215 H   0  0  0  0  0  0  0  0  0  0  0  0
  146.6342  141.5182  153.5487 H   0  0  0  0  0  0  0  0  0  0  0  0
  145.8763  143.1709  155.8211 H   0  0  0  0  0  0  0  0  0  0  0  0
  145.5443  141.3968  155.7379 H   0  0  0  0  0  0  0  0  0  0  0  0
  147.4433  141.1918  157.2683 H   0  0  0  0  0  0  0  0  0  0  0  0
  148.1045  142.7813  156.7323 H   0  0  0  0  0  0  0  0  0  0  0  0
  149.8646  142.8558  156.2270 H   0  0  0  0  0  0  0  0  0  0  0  0
  1  2  1  0  0  0  0
  1 19  1  0  0  0  0
  1 20  1  0  0  0  0
  1 21  1  0  0  0  0
  2 18  1  0  0  0  0
  2  3  1  0  0  0  0
  3  4  2  0  0  0  0
  3 22  1  0  0  0  0
  4  5  1  0  0  0  0
  5 18  2  0  0  0  0
  5  6  1  0  0  0  0
  6  7  2  0  0  0  0
  6  8  1  0  0  0  0
  8  9  1  0  0  0  0
  8 16  1  0  0  0  0
  9 10  1  0  0  0  0
  9 23  1  0  0  0  0
  9 24  1  0  0  0  0
 10 11  1  0  0  0  0
 10 12  1  0  0  0  0
 10 25  1  0  0  0  0
 11 26  1  0  0  0  0
 12 15  1  0  0  0  0
 12 13  1  0  0  0  0
 12 27  1  0  0  0  0
 13 14  1  0  0  0  0
 13 28  1  0  0  0  0
 13 29  1  0  0  0  0
 14 15  1  0  0  0  0
 14 30  1  0  0  0  0
 14 31  1  0  0  0  0
 15 32  1  0  0  0  0
 15 33  1  0  0  0  0
 16 17  2  0  0  0  0
 16 34  1  0  0  0  0
 17 18  1  0  0  0  0
M  END
> <s_m_source_file>
AV-unprocessed.smi

> <i_m_source_file_index>
10

> <i_lp_mmshare_version>
43012

> <i_f3d_flags>
0

> <s_epik_input>
bjFbY0hdbihbQ0gzXSljKGMxMiluW2NIXW4oYzI9TylbQ0gyXVtDQEhdKFtPSF0pW0NIXTNbQ0gyXVtDSDJdW0NIMl0z

> <s_epik_cmdline>
J2VwaWtfcHl0aG9uJywgJy1waCcsICc3LjAnLCAnLXRuJywgJzgnLCAnLW1hJywgJzIwMCcsICctbWV0YWxfYmluZGluZycsICctaW1hZScsICc8aW5maWxlLm1hZT4nLCAnLW9tYWUnLCAnPG91dGZpbGUubWFlPic=

> <r_lp_tautomer_probability>
1

> <r_epik_Ionization_Penalty>
0.0003743

> <r_epik_Ionization_Penalty_Charging>
2.98177e-12

> <r_epik_Ionization_Penalty_Neutral>
0.000374299

> <r_epik_State_Penalty>
0.000224514

> <r_epik_Charging_Adjusted_Penalty>
0.000224514

> <i_epik_Tot_Q>
0

> <i_epik_Tot_abs_Q>
0

> <r_epik_Metal_State_Penalty>
-0

> <b_epik_Metal_Only>
0

> <s_lp_Force_Field>
OPLS_2005

> <r_lp_Energy>
33.6231

> <b_lp_Chiralities_Consistent>
1

> <s_lp_Variant>
AV-unprocessed.smi:10-2

> <Gold.Version>
5.8.1

> <Gold.Id.Protein>
6NUR|6NUR_protein|mol2

> <Gold.PLP.Fitness>
42.2586

> <Gold.PLP.PLP>
-37.8347

> <Gold.PLP.part.hbond>
-2.6688

> <Gold.PLP.part.metal>
0.0000

> <Gold.PLP.part.buried>
-2.8396

> <Gold.PLP.part.nonpolar>
-31.9182

> <Gold.PLP.part.repulsive>
0.1446

> <Gold.PLP.ligand.clash>
1.8135

> <Gold.PLP.ligand.torsion>
0.4967

> <Gold.PLP.Chemscore.Hbond>
1.3840

> <Gold.PLP.Chemscore.CHOScore>
1.0000

> <Gold.PLP.Chemscore.Metal>
0.0000

> <Gold.Chemscore.Hbonds>
donor molecule, donor type, donor heavy atom, donor atom, acceptor molecule, acceptor atom, score
      P1  H  7989  7998       L1    11  0.35
      P1  H  8011  8017       L1    11  1.00
      L1  C    16    34       P1  8028  1.00

> <Gold.PLP.Chemscore.Internal.Correction>
0.0787

> <Gold.Rescore>
     Score         DG    S(hbond)    S(metal)    S(lipo)     H(rot)  DE(clash)    DE(int)     intcor
     10.06     -11.70       1.85        0.00      50.36       2.28       1.07       0.56       ----

> <Gold.Chemscore.Fitness>
10.0618

> <Gold.Chemscore.DG>
-11.6970

> <Gold.Chemscore.ZeroCoef>
-5.4800

> <Gold.Chemscore.Hbond>
1.8465

> <Gold.Chemscore.Metal>
0.0000

> <Gold.Chemscore.Lipo>
50.3650

> <Gold.Chemscore.Internal_Hbond>
0.0000

> <Gold.Chemscore.DEClash>
1.0730

> <Gold.Chemscore.DEInternal>
0.5622

> <Gold.Chemscore.Rot>
2.2824

> <Gold.Chemscore.Internal.Correction>
   9.000000E+99

> <Gold.Chemscore.Hbonds>
donor molecule, donor type, donor heavy atom, donor atom, acceptor molecule, acceptor atom, score
      P1  H  7989  7998       L1    11  0.08
      P1  H  8011  8017       L1    11  0.51

> <Gold.Chemscore.Hbond.Weighted>
-6.1673

> <Gold.Chemscore.Metal.Weighted>
-0.0000

> <Gold.Chemscore.Lipo.Weighted>
-5.8927

> <Gold.Chemscore.Internal_Hbond.Weighted>
0.0000

> <Gold.Chemscore.DEClash.Weighted>
1.0730

> <Gold.Chemscore.DEInternal.Weighted>
0.5622

> <Gold.Chemscore.Rot.Weighted>
5.8431

> <Gold.Chemscore.Internal.Correction.Weighted>
   9.000000E+99

> <Gold.Protein.RotatedTorsions>
[ 6907 6896 6895 6894 ] final -153.33 input  -60.11 | X-H torsion
[ 7974 7965 7964 7962 ] final  124.09 input  175.53 | X-H torsion
[ 8008 7997 7996 7995 ] final  151.27 input   59.86 | X-H torsion
[ 10167 10162 10161 10158 ] final  141.33 input  -65.29 | X-H torsion
[ 10718 10713 10712 10709 ] final   33.97 input   66.30 | X-H torsion
[ 10763 10752 10751 10750 ] final  130.83 input  -60.55 | X-H torsion
[ 11005 11000 10999 10996 ] final  135.25 input  -57.11 | X-H torsion

> <Gold.Protein.ActiveResidues>
 VAL166  LYS551  ARG553  GLY616  TRP617  ASP618  TYR619  PRO620  LYS621  CYS622 
 ASP623  PHE694  ASN695  SER759  ASP760  ASP761  ALA762  ILE779  LEU786  VAL792 
 PHE793  MET794  SER795  GLU796  ALA797  LYS798  CYS799  TRP800  GLU811  SER814 

> <Gold.Protein.RotatedAtoms>
  151.2410  133.4399  159.2607 H   0  0  0  0  0  0  0  0  0  0  0  0  # atno 6907 bound_to 6896
  151.0705  134.9796  159.8316 H   0  0  0  0  0  0  0  0  0  0  0  0  # atno 6908 bound_to 6896
  152.5411  134.2355  159.8894 H   0  0  0  0  0  0  0  0  0  0  0  0  # atno 6909 bound_to 6896
  145.0884  139.3605  143.4873 H   0  0  0  0  0  0  0  0  0  0  0  0  # atno 7974 bound_to 7965
  156.2681  140.2052  156.6149 H   0  0  0  0  0  0  0  0  0  0  0  0  # atno 8008 bound_to 7997
  154.6802  140.0541  157.0282 H   0  0  0  0  0  0  0  0  0  0  0  0  # atno 8009 bound_to 7997
  155.1011  140.3206  155.4549 H   0  0  0  0  0  0  0  0  0  0  0  0  # atno 8010 bound_to 7997
  139.5023  144.6178  151.6122 H   0  0  0  0  0  0  0  0  0  0  0  0  # atno 10167 bound_to 10162
  157.3045  130.7367  149.6687 H   0  0  0  0  0  0  0  0  0  0  0  0  # atno 10718 bound_to 10713
  153.7645  135.3191  155.3342 H   0  0  0  0  0  0  0  0  0  0  0  0  # atno 10763 bound_to 10752
  154.8218  135.4597  154.0805 H   0  0  0  0  0  0  0  0  0  0  0  0  # atno 10764 bound_to 10752
  153.2046  135.6927  153.8272 H   0  0  0  0  0  0  0  0  0  0  0  0  # atno 10765 bound_to 10752
  139.9967  134.9494  156.9981 H   0  0  0  0  0  0  0  0  0  0  0  0  # atno 11005 bound_to 11000
  146.3531  140.0707  142.8623 LP  0  0  0  0  0  0  0  0  0  0  0  0  # atno 17320 bound_to 7965
  145.1095  140.9396  143.4665 LP  0  0  0  0  0  0  0  0  0  0  0  0  # atno 17321 bound_to 7965
  140.5871  143.9844  150.6302 LP  0  0  0  0  0  0  0  0  0  0  0  0  # atno 17342 bound_to 10162
  140.3013  143.3259  152.0969 LP  0  0  0  0  0  0  0  0  0  0  0  0  # atno 17343 bound_to 10162
  155.9673  130.4270  150.4723 LP  0  0  0  0  0  0  0  0  0  0  0  0  # atno 17370 bound_to 10713
  157.2710  131.0587  151.2259 LP  0  0  0  0  0  0  0  0  0  0  0  0  # atno 17371 bound_to 10713
  140.4804  134.1295  155.7216 LP  0  0  0  0  0  0  0  0  0  0  0  0  # atno 17394 bound_to 11000
  141.1610  133.8792  157.1847 LP  0  0  0  0  0  0  0  0  0  0  0  0  # atno 17395 bound_to 11000

$$$$
