AV-unprocessed.smi:885|AV-procd|sdf|4045|dock2
  -GOLD-   22720 1533D 1   1.00000     0.00000
 Structure written by MMmdl.
 40 42  0  0  0  0  0  0  0  0  2 V2000
  152.4237  144.3831  160.4685 C   0  0  0  0  0  0  0  0  0  0  0  0
  152.2422  143.1554  161.3748 C   0  0  0  0  0  0  0  0  0  0  0  0
  152.9388  141.9014  160.8210 C   0  0  0  0  0  0  0  0  0  0  0  0
  152.2299  141.2414  159.6290 C   0  0  0  0  0  0  0  0  0  0  0  0
  152.0103  142.1556  158.4039 C   0  0  0  0  0  0  0  0  0  0  0  0
  151.6984  141.3388  157.1847 C   0  0  0  0  0  0  0  0  0  0  0  0
  152.4896  140.3471  156.7887 N   0  0  0  0  0  0  0  0  0  0  0  0
  151.8475  139.8550  155.6439 O   0  0  0  0  0  0  0  0  0  0  0  0
  150.7476  140.6269  155.4750 C   0  0  0  0  0  0  0  0  0  0  0  0
  149.8180  140.3111  154.3473 C   0  0  1  0  0  0  0  0  0  0  0  0
  149.9397  138.8488  153.8783 C   0  0  0  0  0  0  0  0  0  0  0  0
  148.9382  138.5702  152.8303 N   0  3  0  0  0  0  0  0  0  0  0  0
  147.5732  138.9014  153.2856 C   0  0  0  0  0  0  0  0  0  0  0  0
  147.5193  140.3567  153.7836 C   0  0  0  0  0  0  0  0  0  0  0  0
  148.4898  140.5513  154.8073 O   0  0  0  0  0  0  0  0  0  0  0  0
  150.5927  141.5534  156.4188 N   0  0  0  0  0  0  0  0  0  0  0  0
  150.9270  143.2288  158.6439 C   0  0  0  0  0  0  0  0  0  0  0  0
  151.4007  144.5253  159.3276 C   0  0  0  0  0  0  0  0  0  0  0  0
  153.4330  144.3810  160.0552 H   0  0  0  0  0  0  0  0  0  0  0  0
  152.3694  145.2846  161.0797 H   0  0  0  0  0  0  0  0  0  0  0  0
  152.6948  143.3832  162.3407 H   0  0  0  0  0  0  0  0  0  0  0  0
  151.1876  142.9660  161.5773 H   0  0  0  0  0  0  0  0  0  0  0  0
  153.9684  142.1395  160.5511 H   0  0  0  0  0  0  0  0  0  0  0  0
  153.0101  141.1637  161.6210 H   0  0  0  0  0  0  0  0  0  0  0  0
  152.8400  140.3892  159.3260 H   0  0  0  0  0  0  0  0  0  0  0  0
  151.2775  140.8201  159.9532 H   0  0  0  0  0  0  0  0  0  0  0  0
  152.9507  142.6680  158.1937 H   0  0  0  0  0  0  0  0  0  0  0  0
  150.0424  140.9908  153.5231 H   0  0  0  0  0  0  0  0  0  0  0  0
  150.9378  138.6500  153.4865 H   0  0  0  0  0  0  0  0  0  0  0  0
  149.7794  138.1657  154.7140 H   0  0  0  0  0  0  0  0  0  0  0  0
  149.1539  139.1316  152.0186 H   0  0  0  0  0  0  0  0  0  0  0  0
  146.8705  138.7492  152.4661 H   0  0  0  0  0  0  0  0  0  0  0  0
  147.2866  138.2183  154.0865 H   0  0  0  0  0  0  0  0  0  0  0  0
  147.6946  141.0554  152.9641 H   0  0  0  0  0  0  0  0  0  0  0  0
  146.5312  140.5806  154.1862 H   0  0  0  0  0  0  0  0  0  0  0  0
  150.4959  143.5264  157.6868 H   0  0  0  0  0  0  0  0  0  0  0  0
  150.0995  142.7907  159.2032 H   0  0  0  0  0  0  0  0  0  0  0  0
  150.5197  145.0451  159.7052 H   0  0  0  0  0  0  0  0  0  0  0  0
  151.8276  145.1889  158.5750 H   0  0  0  0  0  0  0  0  0  0  0  0
  148.9801  137.5936  152.5755 H   0  0  0  0  0  0  0  0  0  0  0  0
  1 18  1  0  0  0  0
  1  2  1  0  0  0  0
  1 19  1  0  0  0  0
  1 20  1  0  0  0  0
  2  3  1  0  0  0  0
  2 21  1  0  0  0  0
  2 22  1  0  0  0  0
  3  4  1  0  0  0  0
  3 23  1  0  0  0  0
  3 24  1  0  0  0  0
  4  5  1  0  0  0  0
  4 25  1  0  0  0  0
  4 26  1  0  0  0  0
  5  6  1  0  0  0  0
  5 17  1  0  0  0  0
  5 27  1  0  0  0  0
  6 16  1  0  0  0  0
  6  7  2  0  0  0  0
  7  8  1  0  0  0  0
  8  9  1  0  0  0  0
  9 10  1  0  0  0  0
  9 16  2  0  0  0  0
 10 15  1  0  0  0  0
 10 11  1  0  0  0  0
 10 28  1  0  0  0  0
 11 12  1  0  0  0  0
 11 29  1  0  0  0  0
 11 30  1  0  0  0  0
 12 13  1  0  0  0  0
 12 31  1  0  0  0  0
 12 40  1  0  0  0  0
 13 14  1  0  0  0  0
 13 32  1  0  0  0  0
 13 33  1  0  0  0  0
 14 15  1  0  0  0  0
 14 34  1  0  0  0  0
 14 35  1  0  0  0  0
 17 18  1  0  0  0  0
 17 36  1  0  0  0  0
 17 37  1  0  0  0  0
 18 38  1  0  0  0  0
 18 39  1  0  0  0  0
M  CHG  1  12   1
M  END
> <s_m_source_file>
AV-unprocessed.smi

> <i_m_source_file_index>
885

> <i_lp_mmshare_version>
43012

> <i_f3d_flags>
0

> <s_epik_input>
W0NIMl0xW0NIMl1bQ0gyXVtDSDJdW0NIMl1bQ0gyXVtDSF0xYzJub2MobjIpW0NAQEhdM1tDSDJdW05IXVtDSDJdW0NIMl1PMw==

> <s_epik_cmdline>
J2VwaWtfcHl0aG9uJywgJy1waCcsICc3LjAnLCAnLXRuJywgJzgnLCAnLW1hJywgJzIwMCcsICctbWV0YWxfYmluZGluZycsICctaW1hZScsICc8aW5maWxlLm1hZT4nLCAnLW9tYWUnLCAnPG91dGZpbGUubWFlPic=

> <r_lp_tautomer_probability>
1

> <r_epik_Ionization_Penalty>
0.157575

> <r_epik_Ionization_Penalty_Charging>
0.157575

> <r_epik_Ionization_Penalty_Neutral>
1.7642e-13

> <r_epik_State_Penalty>
0.146877

> <r_epik_Charging_Adjusted_Penalty>
0.304452

> <i_epik_Tot_Q>
1

> <i_epik_Tot_abs_Q>
1

> <r_epik_Metal_State_Penalty>
0.146877

> <b_epik_Metal_Only>
0

> <s_lp_Force_Field>
OPLS_2005

> <r_lp_Energy>
20.5432

> <b_lp_Chiralities_Consistent>
1

> <s_lp_Variant>
AV-unprocessed.smi:885-2

> <Gold.Version>
5.8.1

> <Gold.Id.Protein>
6NUR|6NUR_protein|mol2

> <Gold.PLP.Fitness>
46.6523

> <Gold.PLP.PLP>
-36.1033

> <Gold.PLP.part.hbond>
-2.9141

> <Gold.PLP.part.metal>
0.0000

> <Gold.PLP.part.buried>
-4.8562

> <Gold.PLP.part.nonpolar>
-27.5907

> <Gold.PLP.part.repulsive>
0.2094

> <Gold.PLP.ligand.clash>
0.0000

> <Gold.PLP.ligand.torsion>
0.7307

> <Gold.PLP.Chemscore.Hbond>
3.9840

> <Gold.PLP.Chemscore.CHOScore>
0.0000

> <Gold.PLP.Chemscore.Metal>
0.0000

> <Gold.Chemscore.Hbonds>
donor molecule, donor type, donor heavy atom, donor atom, acceptor molecule, acceptor atom, score
      L1  H    12    31       P1  7957  0.46
      L1  H    12    40       P1  7948  1.89
      P1  H  7997  8008       L1     7  0.99

> <Gold.PLP.Chemscore.Internal.Correction>
0.0584

> <Gold.Rescore>
     Score         DG    S(hbond)    S(metal)    S(lipo)     H(rot)  DE(clash)    DE(int)     intcor
     21.62     -22.33       2.68        0.00      94.29       1.23       0.17       0.53       ----

> <Gold.Chemscore.Fitness>
21.6209

> <Gold.Chemscore.DG>
-22.3275

> <Gold.Chemscore.ZeroCoef>
-5.4800

> <Gold.Chemscore.Hbond>
2.6832

> <Gold.Chemscore.Metal>
0.0000

> <Gold.Chemscore.Lipo>
94.2941

> <Gold.Chemscore.Internal_Hbond>
0.0000

> <Gold.Chemscore.DEClash>
0.1729

> <Gold.Chemscore.DEInternal>
0.5337

> <Gold.Chemscore.Rot>
1.2292

> <Gold.Chemscore.Internal.Correction>
   9.000000E+99

> <Gold.Chemscore.Hbonds>
donor molecule, donor type, donor heavy atom, donor atom, acceptor molecule, acceptor atom, score
      L1  H    12    31       P1  7957  0.42
      L1  H    12    40       P1  7948  0.90
      P1  H  7997  8008       L1     7  0.52

> <Gold.Chemscore.Hbond.Weighted>
-8.9618

> <Gold.Chemscore.Metal.Weighted>
-0.0000

> <Gold.Chemscore.Lipo.Weighted>
-11.0324

> <Gold.Chemscore.Internal_Hbond.Weighted>
0.0000

> <Gold.Chemscore.DEClash.Weighted>
0.1729

> <Gold.Chemscore.DEInternal.Weighted>
0.5337

> <Gold.Chemscore.Rot.Weighted>
3.1467

> <Gold.Chemscore.Internal.Correction.Weighted>
   9.000000E+99

> <Gold.Protein.RotatedTorsions>
[ 6907 6896 6895 6894 ] final  160.45 input  -60.11 | X-H torsion
[ 7974 7965 7964 7962 ] final  -66.24 input  175.53 | X-H torsion
[ 8008 7997 7996 7995 ] final  -50.21 input   59.86 | X-H torsion
[ 10167 10162 10161 10158 ] final  142.94 input  -65.29 | X-H torsion
[ 10718 10713 10712 10709 ] final  -61.61 input   66.30 | X-H torsion
[ 10763 10752 10751 10750 ] final   79.28 input  -60.55 | X-H torsion
[ 11005 11000 10999 10996 ] final -134.31 input  -57.11 | X-H torsion

> <Gold.Protein.ActiveResidues>
 VAL166  LYS551  ARG553  GLY616  TRP617  ASP618  TYR619  PRO620  LYS621  CYS622 
 ASP623  PHE694  ASN695  SER759  ASP760  ASP761  ALA762  ILE779  LEU786  VAL792 
 PHE793  MET794  SER795  GLU796  ALA797  LYS798  CYS799  TRP800  GLU811  SER814 

> <Gold.Protein.RotatedAtoms>
  151.9705  133.3724  159.4069 H   0  0  0  0  0  0  0  0  0  0  0  0  # atno 6907 bound_to 6896
  150.6949  134.4145  159.5186 H   0  0  0  0  0  0  0  0  0  0  0  0  # atno 6908 bound_to 6896
  152.1848  134.8723  160.0574 H   0  0  0  0  0  0  0  0  0  0  0  0  # atno 6909 bound_to 6896
  145.7442  140.8939  143.0514 H   0  0  0  0  0  0  0  0  0  0  0  0  # atno 7974 bound_to 7965
  154.4058  140.1278  156.4629 H   0  0  0  0  0  0  0  0  0  0  0  0  # atno 8008 bound_to 7997
  155.7255  140.3492  155.5015 H   0  0  0  0  0  0  0  0  0  0  0  0  # atno 8009 bound_to 7997
  155.9175  140.1047  157.1222 H   0  0  0  0  0  0  0  0  0  0  0  0  # atno 8010 bound_to 7997
  139.4981  144.6073  151.6349 H   0  0  0  0  0  0  0  0  0  0  0  0  # atno 10167 bound_to 10162
  156.0910  130.4200  150.1019 H   0  0  0  0  0  0  0  0  0  0  0  0  # atno 10718 bound_to 10713
  153.0940  135.4845  154.8744 H   0  0  0  0  0  0  0  0  0  0  0  0  # atno 10763 bound_to 10752
  154.7303  135.3058  154.8905 H   0  0  0  0  0  0  0  0  0  0  0  0  # atno 10764 bound_to 10752
  153.9543  135.6820  153.4797 H   0  0  0  0  0  0  0  0  0  0  0  0  # atno 10765 bound_to 10752
  140.9002  134.1700  157.4466 H   0  0  0  0  0  0  0  0  0  0  0  0  # atno 11005 bound_to 11000
  144.6864  139.9502  143.7477 LP  0  0  0  0  0  0  0  0  0  0  0  0  # atno 17320 bound_to 7965
  146.0419  139.3429  143.0692 LP  0  0  0  0  0  0  0  0  0  0  0  0  # atno 17321 bound_to 7965
  140.5739  144.0062  150.6231 LP  0  0  0  0  0  0  0  0  0  0  0  0  # atno 17342 bound_to 10162
  140.3189  143.3150  152.0804 LP  0  0  0  0  0  0  0  0  0  0  0  0  # atno 17343 bound_to 10162
  156.9029  130.9626  151.3574 LP  0  0  0  0  0  0  0  0  0  0  0  0  # atno 17370 bound_to 10713
  157.6059  130.8547  149.8874 LP  0  0  0  0  0  0  0  0  0  0  0  0  # atno 17371 bound_to 10713
  139.8741  134.9895  156.5458 LP  0  0  0  0  0  0  0  0  0  0  0  0  # atno 17394 bound_to 11000
  140.8239  133.8331  155.8921 LP  0  0  0  0  0  0  0  0  0  0  0  0  # atno 17395 bound_to 11000

$$$$
