AV-unprocessed.smi:3134|AV-procd|sdf|11943|dock5
  -GOLD-   2272017333D 1   1.00000     0.00000
 Structure written by MMmdl.
 36 36  0  0  0  0  0  0  0  0  1 V2000
  150.9670  138.3506  154.6203 C   0  0  0  0  0  0  0  0  0  0  0  0
  150.0201  139.1236  153.6931 C   0  0  0  0  0  0  0  0  0  0  0  0
  149.7053  140.5242  154.2421 C   0  0  0  0  0  0  0  0  0  0  0  0
  148.7882  138.3618  153.5145 N   0  0  0  0  0  0  0  0  0  0  0  0
  147.7960  138.2612  154.4134 C   0  0  0  0  0  0  0  0  0  0  0  0
  147.8162  138.8221  155.5096 O   0  0  0  0  0  0  0  0  0  0  0  0
  146.6137  137.3556  154.0287 C   0  0  2  0  0  0  0  0  0  0  0  0
  145.5820  137.2904  155.1667 C   0  0  0  0  0  0  0  0  0  0  0  0
  147.0221  135.9907  153.6489 N   0  0  0  0  0  0  0  0  0  0  0  0
  145.9439  135.1609  153.1227 C   0  0  0  0  0  0  0  0  0  0  0  0
  146.5292  133.8485  152.5826 C   0  0  0  0  0  0  0  0  0  0  0  0
  145.5458  133.0953  151.8288 N   0  0  0  0  0  0  0  0  0  0  0  0
  145.7177  131.9176  151.1323 C   0  0  0  0  0  0  0  0  0  0  0  0
  144.5103  131.5895  150.5856 C   0  0  0  0  0  0  0  0  0  0  0  0
  143.6506  132.6415  151.0086 C   0  0  0  0  0  0  0  0  0  0  0  0
  144.2734  133.5418  151.7521 N   0  0  0  0  0  0  0  0  0  0  0  0
  151.9075  138.8859  154.7533 H   0  0  0  0  0  0  0  0  0  0  0  0
  151.2032  137.3682  154.2101 H   0  0  0  0  0  0  0  0  0  0  0  0
  150.5258  138.2033  155.6066 H   0  0  0  0  0  0  0  0  0  0  0  0
  150.5162  139.2315  152.7270 H   0  0  0  0  0  0  0  0  0  0  0  0
  150.6175  141.1062  154.3751 H   0  0  0  0  0  0  0  0  0  0  0  0
  149.2024  140.4682  155.2081 H   0  0  0  0  0  0  0  0  0  0  0  0
  149.0586  141.0801  153.5623 H   0  0  0  0  0  0  0  0  0  0  0  0
  148.6883  137.8570  152.6458 H   0  0  0  0  0  0  0  0  0  0  0  0
  146.1148  137.8036  153.1671 H   0  0  0  0  0  0  0  0  0  0  0  0
  145.2508  138.2875  155.4595 H   0  0  0  0  0  0  0  0  0  0  0  0
  145.9888  136.8010  156.0528 H   0  0  0  0  0  0  0  0  0  0  0  0
  144.6975  136.7316  154.8592 H   0  0  0  0  0  0  0  0  0  0  0  0
  147.7931  136.0022  152.9963 H   0  0  0  0  0  0  0  0  0  0  0  0
  145.2215  134.9493  153.9126 H   0  0  0  0  0  0  0  0  0  0  0  0
  145.4156  135.6806  152.3222 H   0  0  0  0  0  0  0  0  0  0  0  0
  147.3860  134.0456  151.9363 H   0  0  0  0  0  0  0  0  0  0  0  0
  146.8875  133.2250  153.4030 H   0  0  0  0  0  0  0  0  0  0  0  0
  146.6736  131.4168  151.0852 H   0  0  0  0  0  0  0  0  0  0  0  0
  144.2766  130.7293  149.9762 H   0  0  0  0  0  0  0  0  0  0  0  0
  142.5999  132.7773  150.7986 H   0  0  0  0  0  0  0  0  0  0  0  0
  1  2  1  0  0  0  0
  1 17  1  0  0  0  0
  1 18  1  0  0  0  0
  1 19  1  0  0  0  0
  2  3  1  0  0  0  0
  2  4  1  0  0  0  0
  2 20  1  0  0  0  0
  3 21  1  0  0  0  0
  3 22  1  0  0  0  0
  3 23  1  0  0  0  0
  4  5  1  0  0  0  0
  4 24  1  0  0  0  0
  5  6  2  0  0  0  0
  5  7  1  0  0  0  0
  7  8  1  0  0  0  0
  7  9  1  0  0  0  0
  7 25  1  0  0  0  0
  8 26  1  0  0  0  0
  8 27  1  0  0  0  0
  8 28  1  0  0  0  0
  9 10  1  0  0  0  0
  9 29  1  0  0  0  0
 10 11  1  0  0  0  0
 10 30  1  0  0  0  0
 10 31  1  0  0  0  0
 11 12  1  0  0  0  0
 11 32  1  0  0  0  0
 11 33  1  0  0  0  0
 12 16  1  0  0  0  0
 12 13  1  0  0  0  0
 13 14  2  0  0  0  0
 13 34  1  0  0  0  0
 14 15  1  0  0  0  0
 14 35  1  0  0  0  0
 15 16  2  0  0  0  0
 15 36  1  0  0  0  0
M  END
> <s_m_source_file>
AV-unprocessed.smi

> <i_m_source_file_index>
3134

> <i_lp_mmshare_version>
43012

> <i_f3d_flags>
0

> <s_epik_input>
W0NIM11bQ0hdKFtDSDNdKVtOSF1DKD1PKVtDQEhdKFtDSDNdKVtOSF1bQ0gyXVtDSDJdbjFbY0hdW2NIXVtjSF1uMQ==

> <s_epik_cmdline>
J2VwaWtfcHl0aG9uJywgJy1waCcsICc3LjAnLCAnLXRuJywgJzgnLCAnLW1hJywgJzIwMCcsICctbWV0YWxfYmluZGluZycsICctaW1hZScsICc8aW5maWxlLm1hZT4nLCAnLW9tYWUnLCAnPG91dGZpbGUubWFlPic=

> <r_lp_tautomer_probability>
1

> <r_epik_Ionization_Penalty>
0.731872

> <r_epik_Ionization_Penalty_Charging>
0

> <r_epik_Ionization_Penalty_Neutral>
0.731872

> <r_epik_State_Penalty>
0.75611

> <r_epik_Charging_Adjusted_Penalty>
0.75611

> <i_epik_Tot_Q>
0

> <i_epik_Tot_abs_Q>
0

> <r_epik_Metal_State_Penalty>
0.755373

> <b_epik_Metal_Only>
0

> <s_lp_Force_Field>
OPLS_2005

> <r_lp_Energy>
3.66061

> <b_lp_Chiralities_Consistent>
1

> <s_lp_Variant>
AV-unprocessed.smi:3134-3

> <Gold.Version>
5.8.1

> <Gold.Id.Protein>
6NUR|6NUR_protein|mol2

> <Gold.PLP.Fitness>
36.2133

> <Gold.PLP.PLP>
-24.7162

> <Gold.PLP.part.hbond>
-2.3011

> <Gold.PLP.part.metal>
0.0000

> <Gold.PLP.part.buried>
-3.0073

> <Gold.PLP.part.nonpolar>
-20.0558

> <Gold.PLP.part.repulsive>
0.1703

> <Gold.PLP.ligand.clash>
0.0000

> <Gold.PLP.ligand.torsion>
0.2932

> <Gold.PLP.Chemscore.Hbond>
2.0000

> <Gold.PLP.Chemscore.CHOScore>
2.0000

> <Gold.PLP.Chemscore.Metal>
0.0000

> <Gold.Chemscore.Hbonds>
donor molecule, donor type, donor heavy atom, donor atom, acceptor molecule, acceptor atom, score
      L1  H     4    24       P1  7948  0.88
      L1  H     9    29       P1  7948  1.00
      L1  C    13    34       P1 10747  1.00
      L1  C    15    36       P1 10186  0.82

> <Gold.PLP.Chemscore.Internal.Correction>
0.0836

> <Gold.Rescore>
     Score         DG    S(hbond)    S(metal)    S(lipo)     H(rot)  DE(clash)    DE(int)     intcor
     12.44     -13.80       1.97        0.00      59.69       2.05       0.02       1.34       ----

> <Gold.Chemscore.Fitness>
12.4445

> <Gold.Chemscore.DG>
-13.8014

> <Gold.Chemscore.ZeroCoef>
-5.4800

> <Gold.Chemscore.Hbond>
1.9740

> <Gold.Chemscore.Metal>
0.0000

> <Gold.Chemscore.Lipo>
59.6904

> <Gold.Chemscore.Internal_Hbond>
0.0000

> <Gold.Chemscore.DEClash>
0.0174

> <Gold.Chemscore.DEInternal>
1.3395

> <Gold.Chemscore.Rot>
2.0529

> <Gold.Chemscore.Internal.Correction>
   9.000000E+99

> <Gold.Chemscore.Hbonds>
donor molecule, donor type, donor heavy atom, donor atom, acceptor molecule, acceptor atom, score
      L1  H     4    24       P1  7948  0.87
      L1  H     9    29       P1  7948  1.00

> <Gold.Chemscore.Hbond.Weighted>
-6.5930

> <Gold.Chemscore.Metal.Weighted>
-0.0000

> <Gold.Chemscore.Lipo.Weighted>
-6.9838

> <Gold.Chemscore.Internal_Hbond.Weighted>
0.0000

> <Gold.Chemscore.DEClash.Weighted>
0.0174

> <Gold.Chemscore.DEInternal.Weighted>
1.3395

> <Gold.Chemscore.Rot.Weighted>
5.2554

> <Gold.Chemscore.Internal.Correction.Weighted>
   9.000000E+99

> <Gold.Protein.RotatedTorsions>
[ 6907 6896 6895 6894 ] final  -91.93 input  -60.11 | X-H torsion
[ 7974 7965 7964 7962 ] final  -41.40 input  175.53 | X-H torsion
[ 8008 7997 7996 7995 ] final   -9.24 input   59.86 | X-H torsion
[ 10167 10162 10161 10158 ] final  131.69 input  -65.29 | X-H torsion
[ 10718 10713 10712 10709 ] final  152.79 input   66.30 | X-H torsion
[ 10763 10752 10751 10750 ] final  129.22 input  -60.55 | X-H torsion
[ 11005 11000 10999 10996 ] final  110.10 input  -57.11 | X-H torsion

> <Gold.Protein.ActiveResidues>
 VAL166  LYS551  ARG553  GLY616  TRP617  ASP618  TYR619  PRO620  LYS621  CYS622 
 ASP623  PHE694  ASN695  SER759  ASP760  ASP761  ALA762  ILE779  LEU786  VAL792 
 PHE793  MET794  SER795  GLU796  ALA797  LYS798  CYS799  TRP800  GLU811  SER814 

> <Gold.Protein.RotatedAtoms>
  150.6899  134.2200  159.4392 H   0  0  0  0  0  0  0  0  0  0  0  0  # atno 6907 bound_to 6896
  152.0157  134.9848  160.0578 H   0  0  0  0  0  0  0  0  0  0  0  0  # atno 6908 bound_to 6896
  152.1445  133.4449  159.4820 H   0  0  0  0  0  0  0  0  0  0  0  0  # atno 6909 bound_to 6896
  146.0214  140.6845  142.9176 H   0  0  0  0  0  0  0  0  0  0  0  0  # atno 7974 bound_to 7965
  154.5665  140.2360  155.8256 H   0  0  0  0  0  0  0  0  0  0  0  0  # atno 8008 bound_to 7997
  156.2072  140.3036  155.9612 H   0  0  0  0  0  0  0  0  0  0  0  0  # atno 8009 bound_to 7997
  155.2792  140.0421  157.3004 H   0  0  0  0  0  0  0  0  0  0  0  0  # atno 8010 bound_to 7997
  139.5373  144.6695  151.4744 H   0  0  0  0  0  0  0  0  0  0  0  0  # atno 10167 bound_to 10162
  157.2531  131.0783  151.1716 H   0  0  0  0  0  0  0  0  0  0  0  0  # atno 10718 bound_to 10713
  153.7383  135.3228  155.3299 H   0  0  0  0  0  0  0  0  0  0  0  0  # atno 10763 bound_to 10752
  154.8303  135.4538  154.1052 H   0  0  0  0  0  0  0  0  0  0  0  0  # atno 10764 bound_to 10752
  153.2220  135.6949  153.8071 H   0  0  0  0  0  0  0  0  0  0  0  0  # atno 10765 bound_to 10752
  139.8875  134.9475  156.6228 H   0  0  0  0  0  0  0  0  0  0  0  0  # atno 11005 bound_to 11000
  144.6991  140.3573  143.7170 LP  0  0  0  0  0  0  0  0  0  0  0  0  # atno 17320 bound_to 7965
  145.7187  139.1704  143.2497 LP  0  0  0  0  0  0  0  0  0  0  0  0  # atno 17321 bound_to 7965
  140.6585  143.8548  150.6862 LP  0  0  0  0  0  0  0  0  0  0  0  0  # atno 17342 bound_to 10162
  140.1935  143.4017  152.1845 LP  0  0  0  0  0  0  0  0  0  0  0  0  # atno 17343 bound_to 10162
  157.3256  130.6959  149.6294 LP  0  0  0  0  0  0  0  0  0  0  0  0  # atno 17370 bound_to 10713
  155.9665  130.4322  150.4955 LP  0  0  0  0  0  0  0  0  0  0  0  0  # atno 17371 bound_to 10713
  140.7726  133.8726  155.8504 LP  0  0  0  0  0  0  0  0  0  0  0  0  # atno 17394 bound_to 11000
  140.9829  134.1382  157.4478 LP  0  0  0  0  0  0  0  0  0  0  0  0  # atno 17395 bound_to 11000

$$$$
