AV-unprocessed.smi:221|AV-procd|sdf|1687|dock8
  -GOLD-   2262020123D 1   1.00000     0.00000
 Structure written by MMmdl.
 50 53  0  0  0  0  0  0  0  0  1 V2000
  148.9012  136.3489  159.8820 N   0  0  0  0  0  0  0  0  0  0  0  0
  148.0298  136.2119  160.8863 C   0  0  0  0  0  0  0  0  0  0  0  0
  147.4641  137.1823  161.3857 O   0  0  0  0  0  0  0  0  0  0  0  0
  147.7592  134.7890  161.4182 C   0  0  1  0  0  0  0  0  0  0  0  0
  146.4239  134.5962  162.1522 C   0  0  0  0  0  0  0  0  0  0  0  0
  146.2331  133.0748  162.1579 C   0  0  1  0  0  0  0  0  0  0  0  0
  144.9982  132.7591  161.7661 F   0  0  0  0  0  0  0  0  0  0  0  0
  147.2845  132.5272  161.1774 C   0  0  0  0  0  0  0  0  0  0  0  0
  147.8327  133.6757  160.4623 N   0  0  0  0  0  0  0  0  0  0  0  0
  147.2969  133.7924  159.2191 C   0  0  0  0  0  0  0  0  0  0  0  0
  145.9511  133.8463  159.0329 N   0  0  0  0  0  0  0  0  0  0  0  0
  145.4478  133.9394  157.7985 C   0  0  0  0  0  0  0  0  0  0  0  0
  146.0983  133.9875  156.6337 N   0  0  0  0  0  0  0  0  0  0  0  0
  147.4483  133.9287  156.8179 C   0  0  0  0  0  0  0  0  0  0  0  0
  148.1235  133.8294  158.0662 C   0  0  0  0  0  0  0  0  0  0  0  0
  149.4975  133.7942  157.8661 N   0  0  0  0  0  0  0  0  0  0  0  0
  149.6288  133.8709  156.5698 C   0  0  0  0  0  0  0  0  0  0  0  0
  148.4503  133.9589  155.8638 N   0  0  0  0  0  0  0  0  0  0  0  0
  148.3145  134.0560  154.4212 C   0  0  0  0  0  0  0  0  0  0  0  0
  147.8861  132.7214  153.7628 C   0  0  2  0  0  0  0  0  0  0  0  0
  149.0209  131.6682  153.7631 C   0  0  0  0  0  0  0  0  0  0  0  0
  148.5784  130.4310  153.2437 O   0  0  0  0  0  0  0  0  0  0  0  0
  147.2909  132.9440  152.3493 C   0  0  2  0  0  0  0  0  0  0  0  0
  146.4218  134.1821  152.2119 C   0  0  0  0  0  0  0  0  0  0  0  0
  145.6343  133.8848  150.9408 C   0  0  0  0  0  0  0  0  0  0  0  0
  145.4678  132.4719  150.9128 O   0  0  0  0  0  0  0  0  0  0  0  0
  146.3049  131.8638  151.8915 C   0  0  0  0  0  0  0  0  0  0  0  0
  148.5581  134.6048  162.1388 H   0  0  0  0  0  0  0  0  0  0  0  0
  146.3713  132.6525  163.1535 H   0  0  0  0  0  0  0  0  0  0  0  0
  149.0993  137.2673  159.5125 H   0  0  0  0  0  0  0  0  0  0  0  0
  149.3576  135.5346  159.4971 H   0  0  0  0  0  0  0  0  0  0  0  0
  146.4452  135.0108  163.1604 H   0  0  0  0  0  0  0  0  0  0  0  0
  145.6074  135.0822  161.6159 H   0  0  0  0  0  0  0  0  0  0  0  0
  148.0991  132.0525  161.7257 H   0  0  0  0  0  0  0  0  0  0  0  0
  146.8647  131.7645  160.5177 H   0  0  0  0  0  0  0  0  0  0  0  0
  144.3704  133.9782  157.7353 H   0  0  0  0  0  0  0  0  0  0  0  0
  150.5960  133.8687  156.0880 H   0  0  0  0  0  0  0  0  0  0  0  0
  147.5835  134.8381  154.2170 H   0  0  0  0  0  0  0  0  0  0  0  0
  149.2593  134.4036  154.0016 H   0  0  0  0  0  0  0  0  0  0  0  0
  147.0878  132.3090  154.3819 H   0  0  0  0  0  0  0  0  0  0  0  0
  149.8729  132.0093  153.1754 H   0  0  0  0  0  0  0  0  0  0  0  0
  149.4001  131.5057  154.7717 H   0  0  0  0  0  0  0  0  0  0  0  0
  148.7667  130.4078  152.3179 H   0  0  0  0  0  0  0  0  0  0  0  0
  148.0979  133.0106  151.6176 H   0  0  0  0  0  0  0  0  0  0  0  0
  145.7421  134.2684  153.0610 H   0  0  0  0  0  0  0  0  0  0  0  0
  146.9946  135.1068  152.1368 H   0  0  0  0  0  0  0  0  0  0  0  0
  144.6747  134.4014  150.9148 H   0  0  0  0  0  0  0  0  0  0  0  0
  146.2052  134.1841  150.0610 H   0  0  0  0  0  0  0  0  0  0  0  0
  146.8073  130.9859  151.4845 H   0  0  0  0  0  0  0  0  0  0  0  0
  145.6754  131.5376  152.7206 H   0  0  0  0  0  0  0  0  0  0  0  0
  1  2  1  0  0  0  0
  1 30  1  0  0  0  0
  1 31  1  0  0  0  0
  2  3  2  0  0  0  0
  2  4  1  0  0  0  0
  4 28  1  0  0  0  0
  4  9  1  0  0  0  0
  4  5  1  0  0  0  0
  5  6  1  0  0  0  0
  5 32  1  0  0  0  0
  5 33  1  0  0  0  0
  6 29  1  0  0  0  0
  6  7  1  0  0  0  0
  6  8  1  0  0  0  0
  8  9  1  0  0  0  0
  8 34  1  0  0  0  0
  8 35  1  0  0  0  0
  9 10  1  0  0  0  0
 10 15  1  0  0  0  0
 10 11  2  0  0  0  0
 11 12  1  0  0  0  0
 12 13  2  0  0  0  0
 12 36  1  0  0  0  0
 13 14  1  0  0  0  0
 14 18  1  0  0  0  0
 14 15  2  0  0  0  0
 15 16  1  0  0  0  0
 16 17  2  0  0  0  0
 17 18  1  0  0  0  0
 17 37  1  0  0  0  0
 18 19  1  0  0  0  0
 19 20  1  0  0  0  0
 19 38  1  0  0  0  0
 19 39  1  0  0  0  0
 20 21  1  0  0  0  0
 20 23  1  0  0  0  0
 20 40  1  0  0  0  0
 21 22  1  0  0  0  0
 21 41  1  0  0  0  0
 21 42  1  0  0  0  0
 22 43  1  0  0  0  0
 23 27  1  0  0  0  0
 23 24  1  0  0  0  0
 23 44  1  0  0  0  0
 24 25  1  0  0  0  0
 24 45  1  0  0  0  0
 24 46  1  0  0  0  0
 25 26  1  0  0  0  0
 25 47  1  0  0  0  0
 25 48  1  0  0  0  0
 26 27  1  0  0  0  0
 27 49  1  0  0  0  0
 27 50  1  0  0  0  0
M  END
> <s_m_source_file>
AV-unprocessed.smi

> <i_m_source_file_index>
221

> <i_lp_mmshare_version>
43012

> <i_f3d_flags>
0

> <s_epik_input>
W05IMl1DKD1PKVtDQEBIXTFbQ0gyXVtDQEBIXShGKVtDSDJdTjFjKG5bY0hdbjIpYyhjMjMpbltjSF1uM1tDSDJdW0NASF0oW0NIMl1bT0hdKVtDQEBIXTRbQ0gyXVtDSDJdT1tDSDJdNA==

> <s_epik_cmdline>
J2VwaWtfcHl0aG9uJywgJy1waCcsICc3LjAnLCAnLXRuJywgJzgnLCAnLW1hJywgJzIwMCcsICctbWV0YWxfYmluZGluZycsICctaW1hZScsICc8aW5maWxlLm1hZT4nLCAnLW9tYWUnLCAnPG91dGZpbGUubWFlPic=

> <r_lp_tautomer_probability>
1

> <r_epik_Ionization_Penalty>
0.000818822

> <r_epik_Ionization_Penalty_Charging>
0

> <r_epik_Ionization_Penalty_Neutral>
0.000818822

> <r_epik_State_Penalty>
0.000440551

> <r_epik_Charging_Adjusted_Penalty>
0.000440551

> <i_epik_Tot_Q>
0

> <i_epik_Tot_abs_Q>
0

> <r_epik_Metal_State_Penalty>
-0

> <b_epik_Metal_Only>
0

> <s_lp_Force_Field>
OPLS_2005

> <r_lp_Energy>
55.6777

> <b_lp_Chiralities_Consistent>
1

> <s_lp_Variant>
AV-unprocessed.smi:221-2

> <Gold.Version>
5.8.1

> <Gold.Id.Protein>
6NUR|6NUR_protein|mol2

> <Gold.PLP.Fitness>
44.3122

> <Gold.PLP.PLP>
-35.6421

> <Gold.PLP.part.hbond>
-4.0000

> <Gold.PLP.part.metal>
0.0000

> <Gold.PLP.part.buried>
-4.0621

> <Gold.PLP.part.nonpolar>
-28.2794

> <Gold.PLP.part.repulsive>
0.3484

> <Gold.PLP.ligand.clash>
0.0000

> <Gold.PLP.ligand.torsion>
1.5364

> <Gold.PLP.Chemscore.Hbond>
3.8560

> <Gold.PLP.Chemscore.CHOScore>
0.0000

> <Gold.PLP.Chemscore.Metal>
0.0000

> <Gold.Chemscore.Hbonds>
donor molecule, donor type, donor heavy atom, donor atom, acceptor molecule, acceptor atom, score
      L1  H    22    43       P1 10747  0.91
      P1  H  6896  6908       L1    16  1.00
      P1  H  6931  6943       L1     3  0.93
      P1  H  6934  6947       L1     3  0.91

> <Gold.PLP.Chemscore.Internal.Correction>
0.1750

> <Gold.Rescore>
     Score         DG    S(hbond)    S(metal)    S(lipo)     H(rot)  DE(clash)    DE(int)     intcor
     11.64     -14.89       3.32        0.00      67.03       3.72       0.13       3.12       ----

> <Gold.Chemscore.Fitness>
11.6363

> <Gold.Chemscore.DG>
-14.8872

> <Gold.Chemscore.ZeroCoef>
-5.4800

> <Gold.Chemscore.Hbond>
3.3200

> <Gold.Chemscore.Metal>
0.0000

> <Gold.Chemscore.Lipo>
67.0280

> <Gold.Chemscore.Internal_Hbond>
0.0000

> <Gold.Chemscore.DEClash>
0.1334

> <Gold.Chemscore.DEInternal>
3.1174

> <Gold.Chemscore.Rot>
3.7202

> <Gold.Chemscore.Internal.Correction>
   9.000000E+99

> <Gold.Chemscore.Hbonds>
donor molecule, donor type, donor heavy atom, donor atom, acceptor molecule, acceptor atom, score
      L1  H    22    43       P1 10747  0.39
      P1  H  6896  6908       L1    16  0.99
      P1  H  6931  6943       L1     3  0.23
      P1  H  6934  6947       L1     3  0.89

> <Gold.Chemscore.Hbond.Weighted>
-11.0886

> <Gold.Chemscore.Metal.Weighted>
-0.0000

> <Gold.Chemscore.Lipo.Weighted>
-7.8423

> <Gold.Chemscore.Internal_Hbond.Weighted>
0.0000

> <Gold.Chemscore.DEClash.Weighted>
0.1334

> <Gold.Chemscore.DEInternal.Weighted>
3.1174

> <Gold.Chemscore.Rot.Weighted>
9.5237

> <Gold.Chemscore.Internal.Correction.Weighted>
   9.000000E+99

> <Gold.Protein.RotatedTorsions>
[ 6907 6896 6895 6894 ] final  127.43 input  -60.11 | X-H torsion
[ 7974 7965 7964 7962 ] final -165.98 input  175.53 | X-H torsion
[ 8008 7997 7996 7995 ] final   14.91 input   59.86 | X-H torsion
[ 10167 10162 10161 10158 ] final   71.66 input  -65.29 | X-H torsion
[ 10718 10713 10712 10709 ] final -108.92 input   66.30 | X-H torsion
[ 10763 10752 10751 10750 ] final   21.87 input  -60.55 | X-H torsion
[ 11005 11000 10999 10996 ] final  110.27 input  -57.11 | X-H torsion

> <Gold.Protein.ActiveResidues>
 VAL166  LYS551  ARG553  GLY616  TRP617  ASP618  TYR619  PRO620  LYS621  CYS622 
 ASP623  PHE694  ASN695  SER759  ASP760  ASP761  ALA762  ILE779  LEU786  VAL792 
 PHE793  MET794  SER795  GLU796  ALA797  LYS798  CYS799  TRP800  GLU811  SER814 

> <Gold.Protein.RotatedAtoms>
  152.3813  133.6550  159.6163 H   0  0  0  0  0  0  0  0  0  0  0  0  # atno 6907 bound_to 6896
  150.7743  133.9108  159.3378 H   0  0  0  0  0  0  0  0  0  0  0  0  # atno 6908 bound_to 6896
  151.6913  135.0947  160.0285 H   0  0  0  0  0  0  0  0  0  0  0  0  # atno 6909 bound_to 6896
  144.7256  140.2734  143.6247 H   0  0  0  0  0  0  0  0  0  0  0  0  # atno 7974 bound_to 7965
  154.8551  140.2935  155.5574 H   0  0  0  0  0  0  0  0  0  0  0  0  # atno 8008 bound_to 7997
  156.3018  140.2488  156.3448 H   0  0  0  0  0  0  0  0  0  0  0  0  # atno 8009 bound_to 7997
  154.8979  140.0392  157.1865 H   0  0  0  0  0  0  0  0  0  0  0  0  # atno 8010 bound_to 7997
  140.0437  144.5369  150.7415 H   0  0  0  0  0  0  0  0  0  0  0  0  # atno 10167 bound_to 10162
  156.0510  130.5737  150.8027 H   0  0  0  0  0  0  0  0  0  0  0  0  # atno 10718 bound_to 10713
  153.0960  135.6660  153.9762 H   0  0  0  0  0  0  0  0  0  0  0  0  # atno 10763 bound_to 10752
  153.9346  135.3000  155.3446 H   0  0  0  0  0  0  0  0  0  0  0  0  # atno 10764 bound_to 10752
  154.7379  135.5093  153.9146 H   0  0  0  0  0  0  0  0  0  0  0  0  # atno 10765 bound_to 10752
  139.8878  134.9479  156.6253 H   0  0  0  0  0  0  0  0  0  0  0  0  # atno 11005 bound_to 11000
  145.8020  139.1968  143.2042 LP  0  0  0  0  0  0  0  0  0  0  0  0  # atno 17320 bound_to 7965
  146.0668  140.7912  142.9707 LP  0  0  0  0  0  0  0  0  0  0  0  0  # atno 17321 bound_to 7965
  140.7248  143.2625  151.4156 LP  0  0  0  0  0  0  0  0  0  0  0  0  # atno 17342 bound_to 10162
  139.5997  144.1321  152.2184 LP  0  0  0  0  0  0  0  0  0  0  0  0  # atno 17343 bound_to 10162
  157.5436  131.0941  150.9794 LP  0  0  0  0  0  0  0  0  0  0  0  0  # atno 17370 bound_to 10713
  157.0071  130.5622  149.5317 LP  0  0  0  0  0  0  0  0  0  0  0  0  # atno 17371 bound_to 10713
  140.7708  133.8740  155.8490 LP  0  0  0  0  0  0  0  0  0  0  0  0  # atno 17394 bound_to 11000
  140.9843  134.1363  157.4466 LP  0  0  0  0  0  0  0  0  0  0  0  0  # atno 17395 bound_to 11000

$$$$
