AV-unprocessed.smi:1965|AV-procd|sdf|7933|dock5
  -GOLD-   2272010103D 1   1.00000     0.00000
 Structure written by MMmdl.
 37 39  0  0  0  0  0  0  0  0  2 V2000
  145.6326  138.0335  154.4758 O   0  0  0  0  0  0  0  0  0  0  0  0
  146.5072  137.4731  153.8177 C   0  0  0  0  0  0  0  0  0  0  0  0
  147.7046  138.0569  153.6018 N   0  0  0  0  0  0  0  0  0  0  0  0
  148.2196  139.3186  154.0189 C   0  0  0  0  0  0  0  0  0  0  0  0
  147.5055  140.4479  154.1137 N   0  0  0  0  0  0  0  0  0  0  0  0
  148.2855  141.5327  154.5220 C   0  0  0  0  0  0  0  0  0  0  0  0
  149.6042  141.2133  154.7267 C   0  0  0  0  0  0  0  0  0  0  0  0
  149.9203  139.5283  154.4114 S   0  0  0  0  0  0  0  0  0  0  0  0
  146.3375  136.2559  153.2757 N   0  0  0  0  0  0  0  0  0  0  0  0
  145.1561  135.4172  153.4473 C   0  0  1  0  0  0  0  0  0  0  0  0
  143.9090  135.9886  152.7849 C   0  0  0  0  0  0  0  0  0  0  0  0
  142.9916  134.7671  152.6684 C   0  0  0  0  0  0  0  0  0  0  0  0
  143.8713  133.5744  152.5972 N   0  3  1  0  0  0  0  0  0  0  0  0
  143.6467  132.7289  151.3941 C   0  0  0  0  0  0  0  0  0  0  0  0
  144.8180  131.7594  151.1771 C   0  0  0  0  0  0  0  0  0  0  0  0
  146.1370  132.5150  150.9288 C   0  0  0  0  0  0  0  0  0  0  0  0
  146.1207  133.9389  151.5166 C   0  0  0  0  0  0  0  0  0  0  0  0
  145.2779  134.0180  152.8144 C   0  0  1  0  0  0  0  0  0  0  0  0
  148.3102  137.5501  152.9723 H   0  0  0  0  0  0  0  0  0  0  0  0
  147.8201  142.5002  154.6401 H   0  0  0  0  0  0  0  0  0  0  0  0
  150.4062  141.8650  155.0399 H   0  0  0  0  0  0  0  0  0  0  0  0
  147.1039  135.8675  152.7441 H   0  0  0  0  0  0  0  0  0  0  0  0
  144.9442  135.3063  154.5131 H   0  0  0  0  0  0  0  0  0  0  0  0
  143.4586  136.8014  153.3556 H   0  0  0  0  0  0  0  0  0  0  0  0
  144.1483  136.3679  151.7902 H   0  0  0  0  0  0  0  0  0  0  0  0
  142.3776  134.6749  153.5650 H   0  0  0  0  0  0  0  0  0  0  0  0
  142.3131  134.8540  151.8187 H   0  0  0  0  0  0  0  0  0  0  0  0
  142.7116  132.1813  151.5142 H   0  0  0  0  0  0  0  0  0  0  0  0
  143.5332  133.3565  150.5085 H   0  0  0  0  0  0  0  0  0  0  0  0
  144.9206  131.1251  152.0588 H   0  0  0  0  0  0  0  0  0  0  0  0
  144.6109  131.0885  150.3428 H   0  0  0  0  0  0  0  0  0  0  0  0
  146.9600  131.9426  151.3585 H   0  0  0  0  0  0  0  0  0  0  0  0
  146.3379  132.5772  149.8586 H   0  0  0  0  0  0  0  0  0  0  0  0
  147.1480  134.2596  151.6922 H   0  0  0  0  0  0  0  0  0  0  0  0
  145.7114  134.6300  150.7782 H   0  0  0  0  0  0  0  0  0  0  0  0
  145.7338  133.3443  153.5414 H   0  0  0  0  0  0  0  0  0  0  0  0
  143.6384  133.0039  153.3976 H   0  0  0  0  0  0  0  0  0  0  0  0
  1  2  2  0  0  0  0
  2  3  1  0  0  0  0
  2  9  1  0  0  0  0
  3  4  1  0  0  0  0
  3 19  1  0  0  0  0
  4  8  1  0  0  0  0
  4  5  2  0  0  0  0
  5  6  1  0  0  0  0
  6  7  2  0  0  0  0
  6 20  1  0  0  0  0
  7  8  1  0  0  0  0
  7 21  1  0  0  0  0
  9 10  1  0  0  0  0
  9 22  1  0  0  0  0
 10 18  1  0  0  0  0
 10 11  1  0  0  0  0
 10 23  1  0  0  0  0
 11 12  1  0  0  0  0
 11 24  1  0  0  0  0
 11 25  1  0  0  0  0
 12 13  1  0  0  0  0
 12 26  1  0  0  0  0
 12 27  1  0  0  0  0
 13 18  1  0  0  0  0
 13 14  1  0  0  0  0
 13 37  1  0  0  0  0
 14 15  1  0  0  0  0
 14 28  1  0  0  0  0
 14 29  1  0  0  0  0
 15 16  1  0  0  0  0
 15 30  1  0  0  0  0
 15 31  1  0  0  0  0
 16 17  1  0  0  0  0
 16 32  1  0  0  0  0
 16 33  1  0  0  0  0
 17 18  1  0  0  0  0
 17 34  1  0  0  0  0
 17 35  1  0  0  0  0
 18 36  1  0  0  0  0
M  CHG  1  13   1
M  END
> <s_m_source_file>
AV-unprocessed.smi

> <i_m_source_file_index>
1965

> <i_lp_mmshare_version>
43012

> <i_f3d_flags>
0

> <s_epik_input>
czFbY0hdW2NIXW5jMVtOSF1DKD1PKVtOSF1bQ0BIXShbQ0gyXVtDSDJdMilbQ0BASF0oTjIzKVtDSDJdW0NIMl1bQ0gyXVtDSDJdMw==

> <s_epik_cmdline>
J2VwaWtfcHl0aG9uJywgJy1waCcsICc3LjAnLCAnLXRuJywgJzgnLCAnLW1hJywgJzIwMCcsICctbWV0YWxfYmluZGluZycsICctaW1hZScsICc8aW5maWxlLm1hZT4nLCAnLW9tYWUnLCAnPG91dGZpbGUubWFlPic=

> <r_lp_tautomer_probability>
1

> <r_epik_Ionization_Penalty>
0.00125962

> <r_epik_Ionization_Penalty_Charging>
0.00107044

> <r_epik_Ionization_Penalty_Neutral>
0.000189176

> <r_epik_State_Penalty>
-0

> <r_epik_Charging_Adjusted_Penalty>
0.00107044

> <i_epik_Tot_Q>
1

> <i_epik_Tot_abs_Q>
1

> <r_epik_Metal_State_Penalty>
0.0179285

> <b_epik_Metal_Only>
0

> <s_lp_Force_Field>
OPLS_2005

> <r_lp_Energy>
41.2924

> <b_lp_Chiralities_Consistent>
1

> <s_lp_Variant>
AV-unprocessed.smi:1965-2

> <Gold.Version>
5.8.1

> <Gold.Id.Protein>
6NUR|6NUR_protein|mol2

> <Gold.PLP.Fitness>
41.5394

> <Gold.PLP.PLP>
-29.0547

> <Gold.PLP.part.hbond>
-2.8635

> <Gold.PLP.part.metal>
0.0000

> <Gold.PLP.part.buried>
-4.1231

> <Gold.PLP.part.nonpolar>
-22.6562

> <Gold.PLP.part.repulsive>
0.2262

> <Gold.PLP.ligand.clash>
0.0000

> <Gold.PLP.ligand.torsion>
0.2909

> <Gold.PLP.Chemscore.Hbond>
3.5815

> <Gold.PLP.Chemscore.CHOScore>
0.7728

> <Gold.PLP.Chemscore.Metal>
0.0000

> <Gold.Chemscore.Hbonds>
donor molecule, donor type, donor heavy atom, donor atom, acceptor molecule, acceptor atom, score
      L1  H     3    19       P1  7948  1.00
      L1  H     9    22       P1  7948  0.86
      L1  H    13    37       P1 10957  1.69
      L1  C     6    20       P1  8028  0.73

> <Gold.PLP.Chemscore.Internal.Correction>
0.0034

> <Gold.Rescore>
     Score         DG    S(hbond)    S(metal)    S(lipo)     H(rot)  DE(clash)    DE(int)     intcor
     18.82     -19.23       2.60        0.00      65.08       1.00       0.08       0.33       ----

> <Gold.Chemscore.Fitness>
18.8159

> <Gold.Chemscore.DG>
-19.2259

> <Gold.Chemscore.ZeroCoef>
-5.4800

> <Gold.Chemscore.Hbond>
2.6023

> <Gold.Chemscore.Metal>
0.0000

> <Gold.Chemscore.Lipo>
65.0780

> <Gold.Chemscore.Internal_Hbond>
0.0000

> <Gold.Chemscore.DEClash>
0.0765

> <Gold.Chemscore.DEInternal>
0.3335

> <Gold.Chemscore.Rot>
1.0000

> <Gold.Chemscore.Internal.Correction>
   9.000000E+99

> <Gold.Chemscore.Hbonds>
donor molecule, donor type, donor heavy atom, donor atom, acceptor molecule, acceptor atom, score
      L1  H     3    19       P1  7948  1.00
      L1  H     9    22       P1  7948  0.79
      L1  H    13    37       P1 10957  0.64

> <Gold.Chemscore.Hbond.Weighted>
-8.6918

> <Gold.Chemscore.Metal.Weighted>
-0.0000

> <Gold.Chemscore.Lipo.Weighted>
-7.6141

> <Gold.Chemscore.Internal_Hbond.Weighted>
0.0000

> <Gold.Chemscore.DEClash.Weighted>
0.0765

> <Gold.Chemscore.DEInternal.Weighted>
0.3335

> <Gold.Chemscore.Rot.Weighted>
2.5600

> <Gold.Chemscore.Internal.Correction.Weighted>
   9.000000E+99

> <Gold.Protein.RotatedTorsions>
[ 6907 6896 6895 6894 ] final  136.34 input  -60.11 | X-H torsion
[ 7974 7965 7964 7962 ] final  168.79 input  175.53 | X-H torsion
[ 8008 7997 7996 7995 ] final   85.46 input   59.86 | X-H torsion
[ 10167 10162 10161 10158 ] final   -3.48 input  -65.29 | X-H torsion
[ 10718 10713 10712 10709 ] final  107.75 input   66.30 | X-H torsion
[ 10763 10752 10751 10750 ] final   73.08 input  -60.55 | X-H torsion
[ 11005 11000 10999 10996 ] final -156.32 input  -57.11 | X-H torsion

> <Gold.Protein.ActiveResidues>
 VAL166  LYS551  ARG553  GLY616  TRP617  ASP618  TYR619  PRO620  LYS621  CYS622 
 ASP623  PHE694  ASN695  SER759  ASP760  ASP761  ALA762  ILE779  LEU786  VAL792 
 PHE793  MET794  SER795  GLU796  ALA797  LYS798  CYS799  TRP800  GLU811  SER814 

> <Gold.Protein.RotatedAtoms>
  152.2904  133.5556  159.5553 H   0  0  0  0  0  0  0  0  0  0  0  0  # atno 6907 bound_to 6896
  150.7233  134.0437  159.3783 H   0  0  0  0  0  0  0  0  0  0  0  0  # atno 6908 bound_to 6896
  151.8343  135.0611  160.0491 H   0  0  0  0  0  0  0  0  0  0  0  0  # atno 6909 bound_to 6896
  144.7376  139.8959  143.6406 H   0  0  0  0  0  0  0  0  0  0  0  0  # atno 7974 bound_to 7965
  155.9503  140.3401  155.6402 H   0  0  0  0  0  0  0  0  0  0  0  0  # atno 8008 bound_to 7997
  155.6928  140.0751  157.2460 H   0  0  0  0  0  0  0  0  0  0  0  0  # atno 8009 bound_to 7997
  154.4120  140.1654  156.2092 H   0  0  0  0  0  0  0  0  0  0  0  0  # atno 8010 bound_to 7997
  140.6891  143.6535  150.8329 H   0  0  0  0  0  0  0  0  0  0  0  0  # atno 10167 bound_to 10162
  157.6615  131.0879  150.6203 H   0  0  0  0  0  0  0  0  0  0  0  0  # atno 10718 bound_to 10713
  153.0499  135.5076  154.7840 H   0  0  0  0  0  0  0  0  0  0  0  0  # atno 10763 bound_to 10752
  154.6711  135.2953  154.9743 H   0  0  0  0  0  0  0  0  0  0  0  0  # atno 10764 bound_to 10752
  154.0561  135.6697  153.4859 H   0  0  0  0  0  0  0  0  0  0  0  0  # atno 10765 bound_to 10752
  140.6768  134.4188  157.5229 H   0  0  0  0  0  0  0  0  0  0  0  0  # atno 11005 bound_to 11000
  146.1107  139.4112  143.0289 LP  0  0  0  0  0  0  0  0  0  0  0  0  # atno 17320 bound_to 7965
  145.7447  140.9995  143.1282 LP  0  0  0  0  0  0  0  0  0  0  0  0  # atno 17321 bound_to 7965
  140.0246  143.5507  152.2786 LP  0  0  0  0  0  0  0  0  0  0  0  0  # atno 17342 bound_to 10162
  139.6277  144.7640  151.2602 LP  0  0  0  0  0  0  0  0  0  0  0  0  # atno 17343 bound_to 10162
  156.6505  130.4484  149.5721 LP  0  0  0  0  0  0  0  0  0  0  0  0  # atno 17370 bound_to 10713
  156.2141  130.6697  151.1300 LP  0  0  0  0  0  0  0  0  0  0  0  0  # atno 17371 bound_to 10713
  139.8964  134.8660  156.2089 LP  0  0  0  0  0  0  0  0  0  0  0  0  # atno 17394 bound_to 11000
  141.0349  133.6969  156.1495 LP  0  0  0  0  0  0  0  0  0  0  0  0  # atno 17395 bound_to 11000

$$$$
