AV-unprocessed.smi:1484|AV-procd|sdf|5998|dock5
  -GOLD-   22720 6 93D 1   1.00000     0.00000
 Structure written by MMmdl.
 38 39  0  0  0  0  0  0  0  0  1 V2000
  151.7862  145.3966  160.4355 C   0  0  0  0  0  0  0  0  0  0  0  0
  152.1506  144.3299  159.3933 C   0  0  1  0  0  0  0  0  0  0  0  0
  152.5716  143.0083  160.0637 C   0  0  0  0  0  0  0  0  0  0  0  0
  152.9369  141.9403  159.0211 C   0  0  0  0  0  0  0  0  0  0  0  0
  151.7825  141.7049  158.0351 C   0  0  0  0  0  0  0  0  0  0  0  0
  151.3479  143.0189  157.3556 C   0  0  1  0  0  0  0  0  0  0  0  0
  150.1958  142.7914  156.4911 N   0  0  0  0  0  0  0  0  0  0  0  0
  150.0939  141.8370  155.5503 C   0  0  0  0  0  0  0  0  0  0  0  0
  150.9929  141.0286  155.3208 O   0  0  0  0  0  0  0  0  0  0  0  0
  148.7912  141.7582  154.7346 C   0  0  0  0  0  0  0  0  0  0  0  0
  148.1784  140.4209  154.6725 N   0  0  0  0  0  0  0  0  0  0  0  0
  147.8245  140.0202  153.3929 N   0  0  0  0  0  0  0  0  0  0  0  0
  147.2932  138.8599  153.2041 C   0  0  0  0  0  0  0  0  0  0  0  0
  146.9616  138.5028  151.9204 O   0  0  0  0  0  0  0  0  0  0  0  0
  147.0525  137.9582  154.3091 C   0  0  0  0  0  0  0  0  0  0  0  0
  147.3985  138.3578  155.5523 C   0  0  0  0  0  0  0  0  0  0  0  0
  148.0060  139.6663  155.8015 C   0  0  0  0  0  0  0  0  0  0  0  0
  148.3418  140.0512  156.9211 O   0  0  0  0  0  0  0  0  0  0  0  0
  150.9922  144.0874  158.4066 C   0  0  0  0  0  0  0  0  0  0  0  0
  147.5942  137.8466  151.6711 H   0  0  0  0  0  0  0  0  0  0  0  0
  150.9397  145.0814  161.0467 H   0  0  0  0  0  0  0  0  0  0  0  0
  151.5186  146.3388  159.9564 H   0  0  0  0  0  0  0  0  0  0  0  0
  152.6245  145.5944  161.1041 H   0  0  0  0  0  0  0  0  0  0  0  0
  153.0027  144.7055  158.8244 H   0  0  0  0  0  0  0  0  0  0  0  0
  153.4221  143.1786  160.7246 H   0  0  0  0  0  0  0  0  0  0  0  0
  151.7609  142.6386  160.6930 H   0  0  0  0  0  0  0  0  0  0  0  0
  153.8267  142.2531  158.4734 H   0  0  0  0  0  0  0  0  0  0  0  0
  153.1940  141.0060  159.5208 H   0  0  0  0  0  0  0  0  0  0  0  0
  152.0873  140.9744  157.2849 H   0  0  0  0  0  0  0  0  0  0  0  0
  150.9370  141.2666  158.5673 H   0  0  0  0  0  0  0  0  0  0  0  0
  152.1761  143.3975  156.7534 H   0  0  0  0  0  0  0  0  0  0  0  0
  149.4096  143.4133  156.6125 H   0  0  0  0  0  0  0  0  0  0  0  0
  148.0818  142.4814  155.1404 H   0  0  0  0  0  0  0  0  0  0  0  0
  149.0093  142.1089  153.7243 H   0  0  0  0  0  0  0  0  0  0  0  0
  146.6054  136.9907  154.1341 H   0  0  0  0  0  0  0  0  0  0  0  0
  147.2241  137.6942  156.3867 H   0  0  0  0  0  0  0  0  0  0  0  0
  150.1029  143.7782  158.9585 H   0  0  0  0  0  0  0  0  0  0  0  0
  150.7336  145.0216  157.9058 H   0  0  0  0  0  0  0  0  0  0  0  0
  1  2  1  0  0  0  0
  1 21  1  0  0  0  0
  1 22  1  0  0  0  0
  1 23  1  0  0  0  0
  2 19  1  0  0  0  0
  2  3  1  0  0  0  0
  2 24  1  0  0  0  0
  3  4  1  0  0  0  0
  3 25  1  0  0  0  0
  3 26  1  0  0  0  0
  4  5  1  0  0  0  0
  4 27  1  0  0  0  0
  4 28  1  0  0  0  0
  5  6  1  0  0  0  0
  5 29  1  0  0  0  0
  5 30  1  0  0  0  0
  6  7  1  0  0  0  0
  6 19  1  0  0  0  0
  6 31  1  0  0  0  0
  7  8  1  0  0  0  0
  7 32  1  0  0  0  0
  8  9  2  0  0  0  0
  8 10  1  0  0  0  0
 10 33  1  0  0  0  0
 10 34  1  0  0  0  0
 10 11  1  0  0  0  0
 11 12  1  0  0  0  0
 11 17  1  0  0  0  0
 12 13  2  0  0  0  0
 13 14  1  0  0  0  0
 13 15  1  0  0  0  0
 14 20  1  0  0  0  0
 15 35  1  0  0  0  0
 15 16  2  0  0  0  0
 16 36  1  0  0  0  0
 16 17  1  0  0  0  0
 17 18  2  0  0  0  0
 19 37  1  0  0  0  0
 19 38  1  0  0  0  0
M  END
> <s_m_source_file>
AV-unprocessed.smi

> <i_m_source_file_index>
1484

> <i_lp_mmshare_version>
43012

> <i_f3d_flags>
0

> <s_epik_input>
W0NIM11bQ0BASF0xW0NIMl1bQ0gyXVtDSDJdW0NASF0oW0NIMl0xKVtOSF1DKD1PKVtDSDJdbjJbbkhdYyg9TylbY0hdW2NIXWMyPU8=

> <s_epik_cmdline>
J2VwaWtfcHl0aG9uJywgJy1waCcsICc3LjAnLCAnLXRuJywgJzgnLCAnLW1hJywgJzIwMCcsICctbWV0YWxfYmluZGluZycsICctaW1hZScsICc8aW5maWxlLm1hZT4nLCAnLW9tYWUnLCAnPG91dGZpbGUubWFlPic=

> <r_lp_tautomer_probability>
0.9996

> <r_epik_Ionization_Penalty>
2.10343

> <r_epik_Ionization_Penalty_Charging>
3.97871e-08

> <r_epik_Ionization_Penalty_Neutral>
2.10343

> <r_epik_State_Penalty>
1.67966

> <r_epik_Charging_Adjusted_Penalty>
1.67966

> <i_epik_Tot_Q>
0

> <i_epik_Tot_abs_Q>
0

> <r_epik_Metal_State_Penalty>
1.67966

> <b_epik_Metal_Only>
0

> <s_lp_Force_Field>
OPLS_2005

> <r_lp_Energy>
20.3723

> <b_lp_Chiralities_Consistent>
1

> <s_lp_Variant>
AV-unprocessed.smi:1484-6

> <Gold.Version>
5.8.1

> <Gold.Id.Protein>
6NUR|6NUR_protein|mol2

> <Gold.PLP.Fitness>
43.6214

> <Gold.PLP.PLP>
-36.3356

> <Gold.PLP.part.hbond>
-3.0769

> <Gold.PLP.part.metal>
0.0000

> <Gold.PLP.part.buried>
-5.7904

> <Gold.PLP.part.nonpolar>
-28.8362

> <Gold.PLP.part.repulsive>
1.7489

> <Gold.PLP.ligand.clash>
0.0000

> <Gold.PLP.ligand.torsion>
0.2769

> <Gold.PLP.Chemscore.Hbond>
2.6115

> <Gold.PLP.Chemscore.CHOScore>
0.0000

> <Gold.PLP.Chemscore.Metal>
0.0000

> <Gold.Chemscore.Hbonds>
donor molecule, donor type, donor heavy atom, donor atom, acceptor molecule, acceptor atom, score
      L1  H     7    32       P1  8028  0.61
      L1  H    14    20       P1  7948  0.86
      P1  H  7989  7998       L1     9  0.67

> <Gold.PLP.Chemscore.Internal.Correction>
0.0050

> <Gold.Rescore>
     Score         DG    S(hbond)    S(metal)    S(lipo)     H(rot)  DE(clash)    DE(int)     intcor
     13.28     -16.52       1.99        0.00      86.56       2.24       0.11       3.13       ----

> <Gold.Chemscore.Fitness>
13.2817

> <Gold.Chemscore.DG>
-16.5151

> <Gold.Chemscore.ZeroCoef>
-5.4800

> <Gold.Chemscore.Hbond>
1.9901

> <Gold.Chemscore.Metal>
0.0000

> <Gold.Chemscore.Lipo>
86.5636

> <Gold.Chemscore.Internal_Hbond>
0.0000

> <Gold.Chemscore.DEClash>
0.1071

> <Gold.Chemscore.DEInternal>
3.1263

> <Gold.Chemscore.Rot>
2.2421

> <Gold.Chemscore.Internal.Correction>
   9.000000E+99

> <Gold.Chemscore.Hbonds>
donor molecule, donor type, donor heavy atom, donor atom, acceptor molecule, acceptor atom, score
      L1  H     7    32       P1  8028  0.62
      L1  H    14    20       P1  7948  0.84
      P1  H  7989  7998       L1     9  0.65

> <Gold.Chemscore.Hbond.Weighted>
-6.6469

> <Gold.Chemscore.Metal.Weighted>
-0.0000

> <Gold.Chemscore.Lipo.Weighted>
-10.1279

> <Gold.Chemscore.Internal_Hbond.Weighted>
0.0000

> <Gold.Chemscore.DEClash.Weighted>
0.1071

> <Gold.Chemscore.DEInternal.Weighted>
3.1263

> <Gold.Chemscore.Rot.Weighted>
5.7398

> <Gold.Chemscore.Internal.Correction.Weighted>
   9.000000E+99

> <Gold.Protein.RotatedTorsions>
[ 6907 6896 6895 6894 ] final   75.31 input  -60.11 | X-H torsion
[ 7974 7965 7964 7962 ] final  101.87 input  175.53 | X-H torsion
[ 8008 7997 7996 7995 ] final  -55.79 input   59.86 | X-H torsion
[ 10167 10162 10161 10158 ] final   89.86 input  -65.29 | X-H torsion
[ 10718 10713 10712 10709 ] final -101.66 input   66.30 | X-H torsion
[ 10763 10752 10751 10750 ] final   16.84 input  -60.55 | X-H torsion
[ 11005 11000 10999 10996 ] final  104.69 input  -57.11 | X-H torsion

> <Gold.Protein.ActiveResidues>
 VAL166  LYS551  ARG553  GLY616  TRP617  ASP618  TYR619  PRO620  LYS621  CYS622 
 ASP623  PHE694  ASN695  SER759  ASP760  ASP761  ALA762  ILE779  LEU786  VAL792 
 PHE793  MET794  SER795  GLU796  ALA797  LYS798  CYS799  TRP800  GLU811  SER814 

> <Gold.Protein.RotatedAtoms>
  152.5019  134.4140  159.9458 H   0  0  0  0  0  0  0  0  0  0  0  0  # atno 6907 bound_to 6896
  151.4110  133.3721  159.2751 H   0  0  0  0  0  0  0  0  0  0  0  0  # atno 6908 bound_to 6896
  150.9292  134.8729  159.7599 H   0  0  0  0  0  0  0  0  0  0  0  0  # atno 6909 bound_to 6896
  145.3666  139.2406  143.3478 H   0  0  0  0  0  0  0  0  0  0  0  0  # atno 7974 bound_to 7965
  154.4207  140.1145  156.5533 H   0  0  0  0  0  0  0  0  0  0  0  0  # atno 8008 bound_to 7997
  155.6387  140.3496  155.4688 H   0  0  0  0  0  0  0  0  0  0  0  0  # atno 8009 bound_to 7997
  155.9888  140.1175  157.0647 H   0  0  0  0  0  0  0  0  0  0  0  0  # atno 8010 bound_to 7997
  139.8531  144.6583  150.9147 H   0  0  0  0  0  0  0  0  0  0  0  0  # atno 10167 bound_to 10162
  156.0202  130.5384  150.6995 H   0  0  0  0  0  0  0  0  0  0  0  0  # atno 10718 bound_to 10713
  153.1394  135.6757  153.9052 H   0  0  0  0  0  0  0  0  0  0  0  0  # atno 10763 bound_to 10752
  153.8513  135.3093  155.3434 H   0  0  0  0  0  0  0  0  0  0  0  0  # atno 10764 bound_to 10752
  154.7774  135.4907  153.9857 H   0  0  0  0  0  0  0  0  0  0  0  0  # atno 10765 bound_to 10752
  139.8794  134.9309  156.5399 H   0  0  0  0  0  0  0  0  0  0  0  0  # atno 11005 bound_to 11000
  146.2904  140.4310  142.8742 LP  0  0  0  0  0  0  0  0  0  0  0  0  # atno 17320 bound_to 7965
  144.8607  140.7135  143.6109 LP  0  0  0  0  0  0  0  0  0  0  0  0  # atno 17321 bound_to 7965
  140.7785  143.3810  151.1477 LP  0  0  0  0  0  0  0  0  0  0  0  0  # atno 17342 bound_to 10162
  139.7446  143.8871  152.3060 LP  0  0  0  0  0  0  0  0  0  0  0  0  # atno 17343 bound_to 10162
  157.4658  131.0888  151.0696 LP  0  0  0  0  0  0  0  0  0  0  0  0  # atno 17370 bound_to 10713
  157.1170  130.6046  149.5496 LP  0  0  0  0  0  0  0  0  0  0  0  0  # atno 17371 bound_to 10713
  140.8318  133.8273  155.8991 LP  0  0  0  0  0  0  0  0  0  0  0  0  # atno 17394 bound_to 11000
  140.9321  134.2008  157.4856 LP  0  0  0  0  0  0  0  0  0  0  0  0  # atno 17395 bound_to 11000

$$$$
