AV-unprocessed.smi:2524|AV-procd|sdf|9922|dock2
  -GOLD-   2272013563D 1   1.00000     0.00000
 Structure written by MMmdl.
 36 37  0  0  0  0  0  0  0  0  1 V2000
  152.2413  144.1735  159.7386 C   0  0  0  0  0  0  0  0  0  0  0  0
  152.7983  143.0218  160.1418 C   0  0  0  0  0  0  0  0  0  0  0  0
  153.1838  141.8856  159.2180 C   0  0  0  0  0  0  0  0  0  0  0  0
  152.8164  140.5203  159.8103 C   0  0  0  0  0  0  0  0  0  0  0  0
  152.2882  139.3497  158.4924 S   0  0  0  0  0  0  0  0  0  0  0  0
  153.4183  139.1437  157.5736 O   0  0  0  0  0  0  0  0  0  0  0  0
  151.6247  138.1926  159.1118 O   0  0  0  0  0  0  0  0  0  0  0  0
  151.0858  140.2568  157.6572 N   0  0  0  0  0  0  0  0  0  0  0  0
  151.3096  140.5962  156.2511 C   0  0  0  0  0  0  0  0  0  0  0  0
  150.6512  139.5789  155.3300 C   0  0  0  0  0  0  0  0  0  0  0  0
  149.4021  140.1340  154.7013 C   0  0  0  0  0  0  0  0  0  0  0  0
  148.4545  139.2899  154.0825 C   0  0  0  0  0  0  0  0  0  0  0  0
  147.2955  139.8631  153.5229 C   0  0  0  0  0  0  0  0  0  0  0  0
  147.0388  141.1881  153.5455 N   0  0  0  0  0  0  0  0  0  0  0  0
  147.9453  141.9936  154.1381 C   0  0  0  0  0  0  0  0  0  0  0  0
  149.1347  141.5192  154.7262 C   0  0  0  0  0  0  0  0  0  0  0  0
  151.5311  138.6719  154.4952 C   0  0  0  0  0  0  0  0  0  0  0  0
  150.7435  138.1001  155.6460 C   0  0  0  0  0  0  0  0  0  0  0  0
  152.0295  144.3609  158.6959 H   0  0  0  0  0  0  0  0  0  0  0  0
  151.9891  144.9461  160.4498 H   0  0  0  0  0  0  0  0  0  0  0  0
  152.9952  142.8715  161.1935 H   0  0  0  0  0  0  0  0  0  0  0  0
  152.6945  142.0163  158.2520 H   0  0  0  0  0  0  0  0  0  0  0  0
  154.2578  141.9371  159.0369 H   0  0  0  0  0  0  0  0  0  0  0  0
  153.6633  140.0808  160.3376 H   0  0  0  0  0  0  0  0  0  0  0  0
  151.9955  140.6186  160.5212 H   0  0  0  0  0  0  0  0  0  0  0  0
  150.1570  139.8599  157.7979 H   0  0  0  0  0  0  0  0  0  0  0  0
  150.9014  141.5839  156.0350 H   0  0  0  0  0  0  0  0  0  0  0  0
  152.3826  140.6414  156.0622 H   0  0  0  0  0  0  0  0  0  0  0  0
  148.6082  138.2218  154.0422 H   0  0  0  0  0  0  0  0  0  0  0  0
  146.5540  139.2392  153.0462 H   0  0  0  0  0  0  0  0  0  0  0  0
  147.7161  143.0489  154.1455 H   0  0  0  0  0  0  0  0  0  0  0  0
  149.8257  142.2066  155.1916 H   0  0  0  0  0  0  0  0  0  0  0  0
  151.1981  138.4192  153.4905 H   0  0  0  0  0  0  0  0  0  0  0  0
  152.6094  138.7378  154.6261 H   0  0  0  0  0  0  0  0  0  0  0  0
  151.3111  137.7977  156.5237 H   0  0  0  0  0  0  0  0  0  0  0  0
  149.8909  137.4693  155.4025 H   0  0  0  0  0  0  0  0  0  0  0  0
  1  2  2  0  0  0  0
  1 19  1  0  0  0  0
  1 20  1  0  0  0  0
  2  3  1  0  0  0  0
  2 21  1  0  0  0  0
  3  4  1  0  0  0  0
  3 22  1  0  0  0  0
  3 23  1  0  0  0  0
  4  5  1  0  0  0  0
  4 24  1  0  0  0  0
  4 25  1  0  0  0  0
  5  6  2  0  0  0  0
  5  7  2  0  0  0  0
  5  8  1  0  0  0  0
  8  9  1  0  0  0  0
  8 26  1  0  0  0  0
  9 10  1  0  0  0  0
  9 27  1  0  0  0  0
  9 28  1  0  0  0  0
 10 18  1  0  0  0  0
 10 11  1  0  0  0  0
 10 17  1  0  0  0  0
 11 16  1  0  0  0  0
 11 12  2  0  0  0  0
 12 13  1  0  0  0  0
 12 29  1  0  0  0  0
 13 14  2  0  0  0  0
 13 30  1  0  0  0  0
 14 15  1  0  0  0  0
 15 16  2  0  0  0  0
 15 31  1  0  0  0  0
 16 32  1  0  0  0  0
 17 18  1  0  0  0  0
 17 33  1  0  0  0  0
 17 34  1  0  0  0  0
 18 35  1  0  0  0  0
 18 36  1  0  0  0  0
M  END
> <s_m_source_file>
AV-unprocessed.smi

> <i_m_source_file_index>
2524

> <i_lp_mmshare_version>
43012

> <i_f3d_flags>
0

> <s_epik_input>
W0NIMl09W0NIXVtDSDJdW0NIMl1TKD1PKSg9TylbTkhdW0NIMl1DMShbQ0gyXVtDSDJdMSljMltjSF1bY0hdbltjSF1bY0hdMg==

> <s_epik_cmdline>
J2VwaWtfcHl0aG9uJywgJy1waCcsICc3LjAnLCAnLXRuJywgJzgnLCAnLW1hJywgJzIwMCcsICctbWV0YWxfYmluZGluZycsICctaW1hZScsICc8aW5maWxlLm1hZT4nLCAnLW9tYWUnLCAnPG91dGZpbGUubWFlPic=

> <r_epik_Ionization_Penalty>
0.0344299

> <r_epik_Ionization_Penalty_Charging>
0

> <r_epik_Ionization_Penalty_Neutral>
0.0344299

> <r_epik_State_Penalty>
0.0286381

> <r_epik_Charging_Adjusted_Penalty>
0.0286381

> <i_epik_Tot_Q>
0

> <i_epik_Tot_abs_Q>
0

> <r_epik_Metal_State_Penalty>
0.0327794

> <b_epik_Metal_Only>
0

> <s_lp_Force_Field>
OPLS_2005

> <r_lp_Energy>
10.3721

> <b_lp_Chiralities_Consistent>
1

> <s_lp_Variant>
AV-unprocessed.smi:2524-1

> <Gold.Version>
5.8.1

> <Gold.Id.Protein>
6NUR|6NUR_protein|mol2

> <Gold.PLP.Fitness>
42.1227

> <Gold.PLP.PLP>
-38.9037

> <Gold.PLP.part.hbond>
-1.0000

> <Gold.PLP.part.metal>
0.0000

> <Gold.PLP.part.buried>
-3.5959

> <Gold.PLP.part.nonpolar>
-34.0138

> <Gold.PLP.part.repulsive>
0.1801

> <Gold.PLP.ligand.clash>
0.0000

> <Gold.PLP.ligand.torsion>
1.9929

> <Gold.PLP.Chemscore.Hbond>
1.0000

> <Gold.PLP.Chemscore.CHOScore>
0.8716

> <Gold.PLP.Chemscore.Metal>
0.0000

> <Gold.Chemscore.Hbonds>
donor molecule, donor type, donor heavy atom, donor atom, acceptor molecule, acceptor atom, score
      P1  H  7997  8009       L1     6  1.00
      L1  C    15    31       P1  8028  0.90

> <Gold.PLP.Chemscore.Internal.Correction>
1.5902

> <Gold.Rescore>
     Score         DG    S(hbond)    S(metal)    S(lipo)     H(rot)  DE(clash)    DE(int)     intcor
     14.26     -16.44       1.00        0.00     105.67       1.85       0.15       2.03       ----

> <Gold.Chemscore.Fitness>
14.2623

> <Gold.Chemscore.DG>
-16.4442

> <Gold.Chemscore.ZeroCoef>
-5.4800

> <Gold.Chemscore.Hbond>
0.9966

> <Gold.Chemscore.Metal>
0.0000

> <Gold.Chemscore.Lipo>
105.6653

> <Gold.Chemscore.Internal_Hbond>
0.0000

> <Gold.Chemscore.DEClash>
0.1517

> <Gold.Chemscore.DEInternal>
2.0302

> <Gold.Chemscore.Rot>
1.8465

> <Gold.Chemscore.Internal.Correction>
   9.000000E+99

> <Gold.Chemscore.Hbonds>
donor molecule, donor type, donor heavy atom, donor atom, acceptor molecule, acceptor atom, score
      P1  H  7997  8009       L1     6  0.96

> <Gold.Chemscore.Hbond.Weighted>
-3.3286

> <Gold.Chemscore.Metal.Weighted>
-0.0000

> <Gold.Chemscore.Lipo.Weighted>
-12.3628

> <Gold.Chemscore.Internal_Hbond.Weighted>
0.0000

> <Gold.Chemscore.DEClash.Weighted>
0.1517

> <Gold.Chemscore.DEInternal.Weighted>
2.0302

> <Gold.Chemscore.Rot.Weighted>
4.7272

> <Gold.Chemscore.Internal.Correction.Weighted>
   9.000000E+99

> <Gold.Protein.RotatedTorsions>
[ 6907 6896 6895 6894 ] final  145.81 input  -60.11 | X-H torsion
[ 7974 7965 7964 7962 ] final -166.72 input  175.53 | X-H torsion
[ 8008 7997 7996 7995 ] final  167.42 input   59.86 | X-H torsion
[ 10167 10162 10161 10158 ] final   42.92 input  -65.29 | X-H torsion
[ 10718 10713 10712 10709 ] final -169.69 input   66.30 | X-H torsion
[ 10763 10752 10751 10750 ] final  128.20 input  -60.55 | X-H torsion
[ 11005 11000 10999 10996 ] final  179.30 input  -57.11 | X-H torsion

> <Gold.Protein.ActiveResidues>
 VAL166  LYS551  ARG553  GLY616  TRP617  ASP618  TYR619  PRO620  LYS621  CYS622 
 ASP623  PHE694  ASN695  SER759  ASP760  ASP761  ALA762  ILE779  LEU786  VAL792 
 PHE793  MET794  SER795  GLU796  ALA797  LYS798  CYS799  TRP800  GLU811  SER814 

> <Gold.Protein.RotatedAtoms>
  152.1760  133.4675  159.4933 H   0  0  0  0  0  0  0  0  0  0  0  0  # atno 6907 bound_to 6896
  150.6927  134.1893  159.4288 H   0  0  0  0  0  0  0  0  0  0  0  0  # atno 6908 bound_to 6896
  151.9802  135.0032  160.0607 H   0  0  0  0  0  0  0  0  0  0  0  0  # atno 6909 bound_to 6896
  144.7239  140.2624  143.6263 H   0  0  0  0  0  0  0  0  0  0  0  0  # atno 7974 bound_to 7965
  156.1635  140.1617  156.8572 H   0  0  0  0  0  0  0  0  0  0  0  0  # atno 8008 bound_to 7997
  154.5184  140.0784  156.8160 H   0  0  0  0  0  0  0  0  0  0  0  0  # atno 8009 bound_to 7997
  155.3659  140.3397  155.4244 H   0  0  0  0  0  0  0  0  0  0  0  0  # atno 8010 bound_to 7997
  140.3495  144.2368  150.6147 H   0  0  0  0  0  0  0  0  0  0  0  0  # atno 10167 bound_to 10162
  156.7153  130.9249  151.3093 H   0  0  0  0  0  0  0  0  0  0  0  0  # atno 10718 bound_to 10713
  153.7216  135.3252  155.3268 H   0  0  0  0  0  0  0  0  0  0  0  0  # atno 10763 bound_to 10752
  154.8354  135.4501  154.1211 H   0  0  0  0  0  0  0  0  0  0  0  0  # atno 10764 bound_to 10752
  153.2333  135.6962  153.7945 H   0  0  0  0  0  0  0  0  0  0  0  0  # atno 10765 bound_to 10752
  140.4046  134.6746  157.4581 H   0  0  0  0  0  0  0  0  0  0  0  0  # atno 11005 bound_to 11000
  145.8123  139.2008  143.1986 LP  0  0  0  0  0  0  0  0  0  0  0  0  # atno 17320 bound_to 7965
  146.0585  140.7995  142.9746 LP  0  0  0  0  0  0  0  0  0  0  0  0  # atno 17321 bound_to 7965
  140.5232  143.2260  151.8355 LP  0  0  0  0  0  0  0  0  0  0  0  0  # atno 17342 bound_to 10162
  139.4828  144.4811  151.9305 LP  0  0  0  0  0  0  0  0  0  0  0  0  # atno 17343 bound_to 10162
  157.6920  130.9243  150.0539 LP  0  0  0  0  0  0  0  0  0  0  0  0  # atno 17370 bound_to 10713
  156.1632  130.3644  149.9269 LP  0  0  0  0  0  0  0  0  0  0  0  0  # atno 17371 bound_to 10713
  140.0311  134.6405  155.9105 LP  0  0  0  0  0  0  0  0  0  0  0  0  # atno 17394 bound_to 11000
  141.1844  133.6553  156.5155 LP  0  0  0  0  0  0  0  0  0  0  0  0  # atno 17395 bound_to 11000

$$$$
