AV-unprocessed.smi:525|AV-procd|sdf|2807|dock9
  -GOLD-   2262023283D 1   1.00000     0.00000
 Structure written by MMmdl.
 43 45  0  0  0  0  0  0  0  0  1 V2000
  151.1035  132.9771  156.5022 C   0  0  0  0  0  0  0  0  0  0  0  0
  150.1918  133.4399  157.4833 O   0  0  0  0  0  0  0  0  0  0  0  0
  149.5852  134.6673  157.1190 C   0  0  0  0  0  0  0  0  0  0  0  0
  148.2238  134.7827  157.8149 C   0  0  0  0  0  0  0  0  0  0  0  0
  148.3333  135.4693  159.0924 N   0  0  0  0  0  0  0  0  0  0  0  0
  149.0035  136.6145  159.3676 C   0  0  0  0  0  0  0  0  0  0  0  0
  149.8911  137.4978  158.1282 S   0  0  0  0  0  0  0  0  0  0  0  0
  148.8220  138.9724  158.0127 C   0  0  2  0  0  0  0  0  0  0  0  0
  147.6017  138.7421  157.1062 C   0  0  0  0  0  0  0  0  0  0  0  0
  147.8552  138.4162  155.8357 N   0  0  0  0  0  0  0  0  0  0  0  0
  146.4510  138.8340  157.5318 O   0  0  0  0  0  0  0  0  0  0  0  0
  149.6548  140.1779  157.5794 C   0  0  0  0  0  0  0  0  0  0  0  0
  150.3872  140.1623  156.3697 C   0  0  0  0  0  0  0  0  0  0  0  0
  151.1671  141.2730  155.9946 C   0  0  0  0  0  0  0  0  0  0  0  0
  151.2203  142.4091  156.8241 C   0  0  0  0  0  0  0  0  0  0  0  0
  150.4927  142.4333  158.0289 C   0  0  0  0  0  0  0  0  0  0  0  0
  149.7127  141.3226  158.4048 C   0  0  0  0  0  0  0  0  0  0  0  0
  148.9439  137.0310  160.6327 N   0  0  0  0  0  0  0  0  0  0  0  0
  148.1692  136.0597  161.2363 C   0  0  0  0  0  0  0  0  0  0  0  0
  147.7436  135.9263  162.5775 C   0  0  0  0  0  0  0  0  0  0  0  0
  146.9469  134.8298  162.9673 C   0  0  0  0  0  0  0  0  0  0  0  0
  146.5661  133.8528  162.0247 C   0  0  0  0  0  0  0  0  0  0  0  0
  146.9788  133.9671  160.6833 C   0  0  0  0  0  0  0  0  0  0  0  0
  147.7722  135.0645  160.2988 C   0  0  0  0  0  0  0  0  0  0  0  0
  151.5492  132.0378  156.8292 H   0  0  0  0  0  0  0  0  0  0  0  0
  151.9091  133.6948  156.3424 H   0  0  0  0  0  0  0  0  0  0  0  0
  150.6013  132.7972  155.5510 H   0  0  0  0  0  0  0  0  0  0  0  0
  150.2276  135.5020  157.4044 H   0  0  0  0  0  0  0  0  0  0  0  0
  149.4562  134.7065  156.0380 H   0  0  0  0  0  0  0  0  0  0  0  0
  147.5126  135.3134  157.1817 H   0  0  0  0  0  0  0  0  0  0  0  0
  147.8033  133.7910  157.9840 H   0  0  0  0  0  0  0  0  0  0  0  0
  148.4245  139.1877  159.0051 H   0  0  0  0  0  0  0  0  0  0  0  0
  147.0908  138.2498  155.1966 H   0  0  0  0  0  0  0  0  0  0  0  0
  148.8106  138.3339  155.5200 H   0  0  0  0  0  0  0  0  0  0  0  0
  150.3532  139.2967  155.7242 H   0  0  0  0  0  0  0  0  0  0  0  0
  151.7243  141.2528  155.0697 H   0  0  0  0  0  0  0  0  0  0  0  0
  151.8189  143.2606  156.5360 H   0  0  0  0  0  0  0  0  0  0  0  0
  150.5337  143.3041  158.6664 H   0  0  0  0  0  0  0  0  0  0  0  0
  149.1618  141.3530  159.3335 H   0  0  0  0  0  0  0  0  0  0  0  0
  148.0307  136.6686  163.3075 H   0  0  0  0  0  0  0  0  0  0  0  0
  146.6266  134.7376  163.9948 H   0  0  0  0  0  0  0  0  0  0  0  0
  145.9565  133.0156  162.3316 H   0  0  0  0  0  0  0  0  0  0  0  0
  146.6889  133.2201  159.9594 H   0  0  0  0  0  0  0  0  0  0  0  0
  1  2  1  0  0  0  0
  1 25  1  0  0  0  0
  1 26  1  0  0  0  0
  1 27  1  0  0  0  0
  2  3  1  0  0  0  0
  3  4  1  0  0  0  0
  3 28  1  0  0  0  0
  3 29  1  0  0  0  0
  4  5  1  0  0  0  0
  4 30  1  0  0  0  0
  4 31  1  0  0  0  0
  5 24  1  0  0  0  0
  5  6  1  0  0  0  0
  6  7  1  0  0  0  0
  6 18  2  0  0  0  0
  7  8  1  0  0  0  0
  8  9  1  0  0  0  0
  8 12  1  0  0  0  0
  8 32  1  0  0  0  0
  9 10  1  0  0  0  0
  9 11  2  0  0  0  0
 10 33  1  0  0  0  0
 10 34  1  0  0  0  0
 12 17  1  0  0  0  0
 12 13  2  0  0  0  0
 13 14  1  0  0  0  0
 13 35  1  0  0  0  0
 14 15  2  0  0  0  0
 14 36  1  0  0  0  0
 15 16  1  0  0  0  0
 15 37  1  0  0  0  0
 16 17  2  0  0  0  0
 16 38  1  0  0  0  0
 17 39  1  0  0  0  0
 18 19  1  0  0  0  0
 19 24  2  0  0  0  0
 19 20  1  0  0  0  0
 20 21  2  0  0  0  0
 20 40  1  0  0  0  0
 21 22  1  0  0  0  0
 21 41  1  0  0  0  0
 22 23  2  0  0  0  0
 22 42  1  0  0  0  0
 23 24  1  0  0  0  0
 23 43  1  0  0  0  0
M  END
> <s_m_source_file>
AV-unprocessed.smi

> <i_m_source_file_index>
525

> <i_lp_mmshare_version>
43012

> <i_f3d_flags>
0

> <s_epik_input>
W2NIXTFbY0hdW2NIXVtjSF1jKGMxMiluKFtDSDJdW0NIMl1PW0NIM10pYyhuMilTW0NASF0oQyg9TylbTkgyXSljM1tjSF1bY0hdW2NIXVtjSF1bY0hdMw==

> <s_epik_cmdline>
J2VwaWtfcHl0aG9uJywgJy1waCcsICc3LjAnLCAnLXRuJywgJzgnLCAnLW1hJywgJzIwMCcsICctbWV0YWxfYmluZGluZycsICctaW1hZScsICc8aW5maWxlLm1hZT4nLCAnLW9tYWUnLCAnPG91dGZpbGUubWFlPic=

> <r_epik_Ionization_Penalty>
0.0706634

> <r_epik_Ionization_Penalty_Charging>
0

> <r_epik_Ionization_Penalty_Neutral>
0.0706634

> <r_epik_State_Penalty>
0.0619781

> <r_epik_Charging_Adjusted_Penalty>
0.0619781

> <i_epik_Tot_Q>
0

> <i_epik_Tot_abs_Q>
0

> <r_epik_Metal_State_Penalty>
0.0552401

> <b_epik_Metal_Only>
0

> <s_lp_Force_Field>
OPLS_2005

> <r_lp_Energy>
11.715

> <b_lp_Chiralities_Consistent>
1

> <s_lp_Variant>
AV-unprocessed.smi:525-1

> <Gold.Version>
5.8.1

> <Gold.Id.Protein>
6NUR|6NUR_protein|mol2

> <Gold.PLP.Fitness>
40.5825

> <Gold.PLP.PLP>
-37.1950

> <Gold.PLP.part.hbond>
-2.4228

> <Gold.PLP.part.metal>
0.0000

> <Gold.PLP.part.buried>
-4.3955

> <Gold.PLP.part.nonpolar>
-30.0766

> <Gold.PLP.part.repulsive>
0.0000

> <Gold.PLP.ligand.clash>
0.0000

> <Gold.PLP.ligand.torsion>
0.9632

> <Gold.PLP.Chemscore.Hbond>
1.7120

> <Gold.PLP.Chemscore.CHOScore>
0.0000

> <Gold.PLP.Chemscore.Metal>
0.0000

> <Gold.Chemscore.Hbonds>
donor molecule, donor type, donor heavy atom, donor atom, acceptor molecule, acceptor atom, score
      P1  H  6896  6909       L1     2  1.00
      P1  H  6931  6943       L1    18  0.75

> <Gold.PLP.Chemscore.Internal.Correction>
0.1779

> <Gold.Rescore>
     Score         DG    S(hbond)    S(metal)    S(lipo)     H(rot)  DE(clash)    DE(int)     intcor
     13.35     -14.21       1.24        0.00      92.51       2.44       0.06       0.81       ----

> <Gold.Chemscore.Fitness>
13.3501

> <Gold.Chemscore.DG>
-14.2146

> <Gold.Chemscore.ZeroCoef>
-5.4800

> <Gold.Chemscore.Hbond>
1.2444

> <Gold.Chemscore.Metal>
0.0000

> <Gold.Chemscore.Lipo>
92.5095

> <Gold.Chemscore.Internal_Hbond>
0.0000

> <Gold.Chemscore.DEClash>
0.0559

> <Gold.Chemscore.DEInternal>
0.8085

> <Gold.Chemscore.Rot>
2.4396

> <Gold.Chemscore.Internal.Correction>
   9.000000E+99

> <Gold.Chemscore.Hbonds>
donor molecule, donor type, donor heavy atom, donor atom, acceptor molecule, acceptor atom, score
      P1  H  6896  6909       L1     2  0.60
      P1  H  6931  6943       L1    18  0.30

> <Gold.Chemscore.Hbond.Weighted>
-4.1564

> <Gold.Chemscore.Metal.Weighted>
-0.0000

> <Gold.Chemscore.Lipo.Weighted>
-10.8236

> <Gold.Chemscore.Internal_Hbond.Weighted>
0.0000

> <Gold.Chemscore.DEClash.Weighted>
0.0559

> <Gold.Chemscore.DEInternal.Weighted>
0.8085

> <Gold.Chemscore.Rot.Weighted>
6.2454

> <Gold.Chemscore.Internal.Correction.Weighted>
   9.000000E+99

> <Gold.Protein.RotatedTorsions>
[ 6907 6896 6895 6894 ] final  -13.60 input  -60.11 | X-H torsion
[ 7974 7965 7964 7962 ] final -178.97 input  175.53 | X-H torsion
[ 8008 7997 7996 7995 ] final  -63.68 input   59.86 | X-H torsion
[ 10167 10162 10161 10158 ] final  150.79 input  -65.29 | X-H torsion
[ 10718 10713 10712 10709 ] final   48.01 input   66.30 | X-H torsion
[ 10763 10752 10751 10750 ] final -168.05 input  -60.55 | X-H torsion
[ 11005 11000 10999 10996 ] final -158.20 input  -57.11 | X-H torsion

> <Gold.Protein.ActiveResidues>
 VAL166  LYS551  ARG553  GLY616  TRP617  ASP618  TYR619  PRO620  LYS621  CYS622 
 ASP623  PHE694  ASN695  SER759  ASP760  ASP761  ALA762  ILE779  LEU786  VAL792 
 PHE793  MET794  SER795  GLU796  ALA797  LYS798  CYS799  TRP800  GLU811  SER814 

> <Gold.Protein.RotatedAtoms>
  151.3524  135.0887  159.9407 H   0  0  0  0  0  0  0  0  0  0  0  0  # atno 6907 bound_to 6896
  152.5183  133.9339  159.7604 H   0  0  0  0  0  0  0  0  0  0  0  0  # atno 6908 bound_to 6896
  150.9717  133.6283  159.2766 H   0  0  0  0  0  0  0  0  0  0  0  0  # atno 6909 bound_to 6896
  144.7134  140.0788  143.6426 H   0  0  0  0  0  0  0  0  0  0  0  0  # atno 7974 bound_to 7965
  154.4568  140.0969  156.6780 H   0  0  0  0  0  0  0  0  0  0  0  0  # atno 8008 bound_to 7997
  155.5114  140.3476  155.4370 H   0  0  0  0  0  0  0  0  0  0  0  0  # atno 8009 bound_to 7997
  156.0793  140.1369  156.9721 H   0  0  0  0  0  0  0  0  0  0  0  0  # atno 8010 bound_to 7997
  139.4846  144.5494  151.7427 H   0  0  0  0  0  0  0  0  0  0  0  0  # atno 10167 bound_to 10162
  157.4643  130.8216  149.7919 H   0  0  0  0  0  0  0  0  0  0  0  0  # atno 10718 bound_to 10713
  154.6668  135.2933  154.9794 H   0  0  0  0  0  0  0  0  0  0  0  0  # atno 10763 bound_to 10752
  154.0835  135.6601  153.4845 H   0  0  0  0  0  0  0  0  0  0  0  0  # atno 10764 bound_to 10752
  153.0462  135.5203  154.7645 H   0  0  0  0  0  0  0  0  0  0  0  0  # atno 10765 bound_to 10752
  140.6562  134.4398  157.5235 H   0  0  0  0  0  0  0  0  0  0  0  0  # atno 11005 bound_to 11000
  145.9720  139.2877  143.1093 LP  0  0  0  0  0  0  0  0  0  0  0  0  # atno 17320 bound_to 7965
  145.9106  140.9182  143.0456 LP  0  0  0  0  0  0  0  0  0  0  0  0  # atno 17321 bound_to 7965
  140.5045  144.1118  150.5979 LP  0  0  0  0  0  0  0  0  0  0  0  0  # atno 17342 bound_to 10162
  140.4023  143.2698  151.9933 LP  0  0  0  0  0  0  0  0  0  0  0  0  # atno 17343 bound_to 10162
  156.0043  130.3863  150.2489 LP  0  0  0  0  0  0  0  0  0  0  0  0  # atno 17370 bound_to 10713
  157.0668  131.0105  151.3204 LP  0  0  0  0  0  0  0  0  0  0  0  0  # atno 17371 bound_to 10713
  139.9028  134.8516  156.1824 LP  0  0  0  0  0  0  0  0  0  0  0  0  # atno 17394 bound_to 11000
  141.0499  133.6894  156.1753 LP  0  0  0  0  0  0  0  0  0  0  0  0  # atno 17395 bound_to 11000

$$$$
