AV-unprocessed.smi:1406|AV-procd|sdf|5717|dock4
  -GOLD-   22720 5353D 1   1.00000     0.00000
 Structure written by MMmdl.
 41 43  0  0  0  0  0  0  0  0  2 V2000
  147.5737  140.9284  153.5248 C   0  0  0  0  0  0  0  0  0  0  0  0
  148.0653  141.7455  154.7370 C   0  0  2  0  0  0  0  0  0  0  0  0
  149.4859  141.3608  155.1804 C   0  0  0  0  0  0  0  0  0  0  0  0
  150.0802  140.4216  154.6503 O   0  0  0  0  0  0  0  0  0  0  0  0
  150.0262  142.1078  156.1571 N   0  0  0  0  0  0  0  0  0  0  0  0
  151.3450  141.8957  156.7506 C   0  0  2  0  0  0  0  0  0  0  0  0
  151.4578  140.5550  157.5006 C   0  0  0  0  0  0  0  0  0  0  0  0
  152.2811  140.8809  158.7510 C   0  0  0  0  0  0  0  0  0  0  0  0
  151.8691  142.2540  159.0643 N   0  3  1  0  0  0  0  0  0  0  0  0
  152.6316  143.0084  160.0793 C   0  0  0  0  0  0  0  0  0  0  0  0
  151.8890  144.3325  160.3602 C   0  0  0  0  0  0  0  0  0  0  0  0
  151.5881  145.1224  159.0656 C   0  0  0  0  0  0  0  0  0  0  0  0
  150.9089  144.2388  157.9966 C   0  0  0  0  0  0  0  0  0  0  0  0
  151.7575  142.9725  157.7830 C   0  0  2  0  0  0  0  0  0  0  0  0
  147.1433  141.6631  155.8630 N   0  0  0  0  0  0  0  0  0  0  0  0
  147.1618  142.3003  157.0358 C   0  0  0  0  0  0  0  0  0  0  0  0
  146.1802  141.9502  157.8547 N   0  0  0  0  0  0  0  0  0  0  0  0
  145.5520  141.0218  157.0741 C   0  0  0  0  0  0  0  0  0  0  0  0
  146.0938  140.8038  155.8760 N   0  0  0  0  0  0  0  0  0  0  0  0
  148.2439  141.0472  152.6728 H   0  0  0  0  0  0  0  0  0  0  0  0
  146.5842  141.2603  153.2090 H   0  0  0  0  0  0  0  0  0  0  0  0
  147.5077  139.8625  153.7473 H   0  0  0  0  0  0  0  0  0  0  0  0
  148.0984  142.7914  154.4268 H   0  0  0  0  0  0  0  0  0  0  0  0
  149.4708  142.8613  156.5355 H   0  0  0  0  0  0  0  0  0  0  0  0
  152.0895  141.8886  155.9516 H   0  0  0  0  0  0  0  0  0  0  0  0
  150.4692  140.2059  157.8036 H   0  0  0  0  0  0  0  0  0  0  0  0
  151.9121  139.7704  156.8947 H   0  0  0  0  0  0  0  0  0  0  0  0
  152.0839  140.1960  159.5762 H   0  0  0  0  0  0  0  0  0  0  0  0
  153.3486  140.8576  158.5263 H   0  0  0  0  0  0  0  0  0  0  0  0
  152.7106  142.4202  160.9941 H   0  0  0  0  0  0  0  0  0  0  0  0
  153.6464  143.1966  159.7253 H   0  0  0  0  0  0  0  0  0  0  0  0
  150.9485  144.1132  160.8673 H   0  0  0  0  0  0  0  0  0  0  0  0
  152.4699  144.9483  161.0475 H   0  0  0  0  0  0  0  0  0  0  0  0
  150.9619  145.9863  159.2902 H   0  0  0  0  0  0  0  0  0  0  0  0
  152.5220  145.5178  158.6638 H   0  0  0  0  0  0  0  0  0  0  0  0
  149.9001  143.9728  158.3151 H   0  0  0  0  0  0  0  0  0  0  0  0
  150.8128  144.7993  157.0663 H   0  0  0  0  0  0  0  0  0  0  0  0
  152.7628  143.2922  157.4994 H   0  0  0  0  0  0  0  0  0  0  0  0
  147.9113  143.0329  157.2979 H   0  0  0  0  0  0  0  0  0  0  0  0
  144.6728  140.4861  157.4007 H   0  0  0  0  0  0  0  0  0  0  0  0
  150.9269  142.1741  159.4191 H   0  0  0  0  0  0  0  0  0  0  0  0
  1  2  1  0  0  0  0
  1 20  1  0  0  0  0
  1 21  1  0  0  0  0
  1 22  1  0  0  0  0
  2  3  1  0  0  0  0
  2 15  1  0  0  0  0
  2 23  1  0  0  0  0
  3  4  2  0  0  0  0
  3  5  1  0  0  0  0
  5  6  1  0  0  0  0
  5 24  1  0  0  0  0
  6 14  1  0  0  0  0
  6  7  1  0  0  0  0
  6 25  1  0  0  0  0
  7  8  1  0  0  0  0
  7 26  1  0  0  0  0
  7 27  1  0  0  0  0
  8  9  1  0  0  0  0
  8 28  1  0  0  0  0
  8 29  1  0  0  0  0
  9 14  1  0  0  0  0
  9 10  1  0  0  0  0
  9 41  1  0  0  0  0
 10 11  1  0  0  0  0
 10 30  1  0  0  0  0
 10 31  1  0  0  0  0
 11 12  1  0  0  0  0
 11 32  1  0  0  0  0
 11 33  1  0  0  0  0
 12 13  1  0  0  0  0
 12 34  1  0  0  0  0
 12 35  1  0  0  0  0
 13 14  1  0  0  0  0
 13 36  1  0  0  0  0
 13 37  1  0  0  0  0
 14 38  1  0  0  0  0
 15 19  1  0  0  0  0
 15 16  1  0  0  0  0
 16 17  2  0  0  0  0
 16 39  1  0  0  0  0
 17 18  1  0  0  0  0
 18 19  2  0  0  0  0
 18 40  1  0  0  0  0
M  CHG  1   9   1
M  END
> <s_m_source_file>
AV-unprocessed.smi

> <i_m_source_file_index>
1406

> <i_lp_mmshare_version>
43012

> <i_f3d_flags>
0

> <s_epik_input>
bjFbY0hdbltjSF1uMVtDQEhdKFtDSDNdKUMoPU8pW05IXVtDQEhdKFtDSDJdW0NIMl0yKVtDQEBIXShOMjMpW0NIMl1bQ0gyXVtDSDJdW0NIMl0z

> <s_epik_cmdline>
J2VwaWtfcHl0aG9uJywgJy1waCcsICc3LjAnLCAnLXRuJywgJzgnLCAnLW1hJywgJzIwMCcsICctbWV0YWxfYmluZGluZycsICctaW1hZScsICc8aW5maWxlLm1hZT4nLCAnLW9tYWUnLCAnPG91dGZpbGUubWFlPic=

> <r_lp_tautomer_probability>
1

> <r_epik_Ionization_Penalty>
0.00197066

> <r_epik_Ionization_Penalty_Charging>
0.00196223

> <r_epik_Ionization_Penalty_Neutral>
8.43107e-06

> <r_epik_State_Penalty>
0.00133866

> <r_epik_Charging_Adjusted_Penalty>
0.00330089

> <i_epik_Tot_Q>
1

> <i_epik_Tot_abs_Q>
1

> <r_epik_Metal_State_Penalty>
-0

> <b_epik_Metal_Only>
0

> <s_lp_Force_Field>
OPLS_2005

> <r_lp_Energy>
47.4686

> <b_lp_Chiralities_Consistent>
1

> <s_lp_Variant>
AV-unprocessed.smi:1406-9

> <Gold.Version>
5.8.1

> <Gold.Id.Protein>
6NUR|6NUR_protein|mol2

> <Gold.PLP.Fitness>
40.4023

> <Gold.PLP.PLP>
-34.6119

> <Gold.PLP.part.hbond>
-2.0000

> <Gold.PLP.part.metal>
0.0000

> <Gold.PLP.part.buried>
-3.7758

> <Gold.PLP.part.nonpolar>
-28.7473

> <Gold.PLP.part.repulsive>
0.3956

> <Gold.PLP.ligand.clash>
0.0000

> <Gold.PLP.ligand.torsion>
0.1048

> <Gold.PLP.Chemscore.Hbond>
1.4307

> <Gold.PLP.Chemscore.CHOScore>
0.5371

> <Gold.PLP.Chemscore.Metal>
0.0000

> <Gold.Chemscore.Hbonds>
donor molecule, donor type, donor heavy atom, donor atom, acceptor molecule, acceptor atom, score
      L1  H     5    24       P1  8028  0.44
      P1  H  7989  7998       L1     4  0.94
      L1  C    16    39       P1  8028  0.54

> <Gold.PLP.Chemscore.Internal.Correction>
0.0966

> <Gold.Rescore>
     Score         DG    S(hbond)    S(metal)    S(lipo)     H(rot)  DE(clash)    DE(int)     intcor
     15.13     -15.71       1.32        0.00      91.15       1.89       0.26       0.33       ----

> <Gold.Chemscore.Fitness>
15.1292

> <Gold.Chemscore.DG>
-15.7142

> <Gold.Chemscore.ZeroCoef>
-5.4800

> <Gold.Chemscore.Hbond>
1.3170

> <Gold.Chemscore.Metal>
0.0000

> <Gold.Chemscore.Lipo>
91.1523

> <Gold.Chemscore.Internal_Hbond>
0.0000

> <Gold.Chemscore.DEClash>
0.2592

> <Gold.Chemscore.DEInternal>
0.3258

> <Gold.Chemscore.Rot>
1.8865

> <Gold.Chemscore.Internal.Correction>
   9.000000E+99

> <Gold.Chemscore.Hbonds>
donor molecule, donor type, donor heavy atom, donor atom, acceptor molecule, acceptor atom, score
      L1  H     5    24       P1  8028  0.45
      P1  H  7989  7998       L1     4  0.84

> <Gold.Chemscore.Hbond.Weighted>
-4.3989

> <Gold.Chemscore.Metal.Weighted>
-0.0000

> <Gold.Chemscore.Lipo.Weighted>
-10.6648

> <Gold.Chemscore.Internal_Hbond.Weighted>
0.0000

> <Gold.Chemscore.DEClash.Weighted>
0.2592

> <Gold.Chemscore.DEInternal.Weighted>
0.3258

> <Gold.Chemscore.Rot.Weighted>
4.8295

> <Gold.Chemscore.Internal.Correction.Weighted>
   9.000000E+99

> <Gold.Protein.RotatedTorsions>
[ 6907 6896 6895 6894 ] final   11.86 input  -60.11 | X-H torsion
[ 7974 7965 7964 7962 ] final -109.74 input  175.53 | X-H torsion
[ 8008 7997 7996 7995 ] final  143.07 input   59.86 | X-H torsion
[ 10167 10162 10161 10158 ] final  -83.47 input  -65.29 | X-H torsion
[ 10718 10713 10712 10709 ] final  -67.44 input   66.30 | X-H torsion
[ 10763 10752 10751 10750 ] final  105.31 input  -60.55 | X-H torsion
[ 11005 11000 10999 10996 ] final   47.55 input  -57.11 | X-H torsion

> <Gold.Protein.ActiveResidues>
 VAL166  LYS551  ARG553  GLY616  TRP617  ASP618  TYR619  PRO620  LYS621  CYS622 
 ASP623  PHE694  ASN695  SER759  ASP760  ASP761  ALA762  ILE779  LEU786  VAL792 
 PHE793  MET794  SER795  GLU796  ALA797  LYS798  CYS799  TRP800  GLU811  SER814 

> <Gold.Protein.RotatedAtoms>
  151.7611  135.0809  160.0345 H   0  0  0  0  0  0  0  0  0  0  0  0  # atno 6907 bound_to 6896
  152.3352  133.5999  159.5846 H   0  0  0  0  0  0  0  0  0  0  0  0  # atno 6908 bound_to 6896
  150.7446  133.9723  159.3591 H   0  0  0  0  0  0  0  0  0  0  0  0  # atno 6909 bound_to 6896
  145.1768  140.8952  143.3503 H   0  0  0  0  0  0  0  0  0  0  0  0  # atno 7974 bound_to 7965
  156.2937  140.2272  156.4831 H   0  0  0  0  0  0  0  0  0  0  0  0  # atno 8008 bound_to 7997
  154.7835  140.0458  157.1167 H   0  0  0  0  0  0  0  0  0  0  0  0  # atno 8009 bound_to 7997
  154.9730  140.3069  155.4983 H   0  0  0  0  0  0  0  0  0  0  0  0  # atno 8010 bound_to 7997
  140.4223  143.2580  151.8873 H   0  0  0  0  0  0  0  0  0  0  0  0  # atno 10167 bound_to 10162
  156.0557  130.4278  150.1855 H   0  0  0  0  0  0  0  0  0  0  0  0  # atno 10718 bound_to 10713
  153.3777  135.3914  155.1834 H   0  0  0  0  0  0  0  0  0  0  0  0  # atno 10763 bound_to 10752
  154.8703  135.3718  154.4897 H   0  0  0  0  0  0  0  0  0  0  0  0  # atno 10764 bound_to 10752
  153.5371  135.7085  153.5716 H   0  0  0  0  0  0  0  0  0  0  0  0  # atno 10765 bound_to 10752
  140.1269  134.4756  155.8552 H   0  0  0  0  0  0  0  0  0  0  0  0  # atno 11005 bound_to 11000
  145.0177  139.3452  143.6088 LP  0  0  0  0  0  0  0  0  0  0  0  0  # atno 17320 bound_to 7965
  146.3460  139.9465  142.8734 LP  0  0  0  0  0  0  0  0  0  0  0  0  # atno 17321 bound_to 7965
  139.4783  144.5424  151.8509 LP  0  0  0  0  0  0  0  0  0  0  0  0  # atno 17342 bound_to 10162
  140.4519  144.1842  150.5898 LP  0  0  0  0  0  0  0  0  0  0  0  0  # atno 17343 bound_to 10162
  156.9932  130.9899  151.3409 LP  0  0  0  0  0  0  0  0  0  0  0  0  # atno 17370 bound_to 10713
  157.5525  130.8192  149.8163 LP  0  0  0  0  0  0  0  0  0  0  0  0  # atno 17371 bound_to 10713
  141.2163  133.6781  156.6996 LP  0  0  0  0  0  0  0  0  0  0  0  0  # atno 17394 bound_to 11000
  140.2892  134.8254  157.4002 LP  0  0  0  0  0  0  0  0  0  0  0  0  # atno 17395 bound_to 11000

$$$$
