AV-unprocessed.smi:262|AV-procd|sdf|2002|dock2
  -GOLD-   2262021193D 1   1.00000     0.00000
 Structure written by MMmdl.
 59 63  0  0  0  0  0  0  0  0  1 V2000
  145.2303  135.8382  150.0911 O   0  0  0  0  0  0  0  0  0  0  0  0
  144.9258  135.0945  151.2579 C   0  0  0  0  0  0  0  0  0  0  0  0
  144.3198  136.0708  152.2969 C   0  0  0  0  0  0  0  0  0  0  0  0
  145.2774  137.0180  152.8488 N   0  0  0  0  0  0  0  0  0  0  0  0
  145.9922  137.9645  152.1528 C   0  0  0  0  0  0  0  0  0  0  0  0
  146.7917  138.6977  152.8769 N   0  0  0  0  0  0  0  0  0  0  0  0
  146.6257  138.2211  154.1741 C   0  0  0  0  0  0  0  0  0  0  0  0
  147.1834  138.5496  155.4486 C   0  0  0  0  0  0  0  0  0  0  0  0
  148.0877  139.5351  155.6920 N   0  0  0  0  0  0  0  0  0  0  0  0
  149.2429  139.6889  154.8150 C   0  0  0  0  0  0  0  0  0  0  0  0
  149.8957  141.0685  155.0182 C   0  0  0  0  0  0  0  0  0  0  0  0
  150.2872  141.2396  156.4218 N   0  0  0  0  0  0  0  0  0  0  0  0
  150.9382  142.5322  156.6365 C   0  0  0  0  0  0  0  0  0  0  0  0
  151.2448  142.8066  158.1230 C   0  0  1  0  0  0  0  0  0  0  0  0
  152.2370  141.8289  158.7190 C   0  0  0  0  0  0  0  0  0  0  0  0
  152.7139  142.5810  159.9569 C   0  0  0  0  0  0  0  0  0  0  0  0
  152.6797  143.9601  159.6033 O   0  0  0  0  0  0  0  0  0  0  0  0
  151.9573  144.1350  158.3876 C   0  0  0  0  0  0  0  0  0  0  0  0
  149.0709  141.1866  157.2371 C   0  0  0  0  0  0  0  0  0  0  0  0
  148.3898  139.8134  157.0945 C   0  0  0  0  0  0  0  0  0  0  0  0
  146.7631  137.8183  156.5143 N   0  0  0  0  0  0  0  0  0  0  0  0
  145.8668  136.8407  156.3607 C   0  0  0  0  0  0  0  0  0  0  0  0
  145.2665  136.4298  155.2440 N   0  0  0  0  0  0  0  0  0  0  0  0
  145.6797  137.1541  154.1659 C   0  0  0  0  0  0  0  0  0  0  0  0
  143.9004  134.0058  150.8826 C   0  0  0  0  0  0  0  0  0  0  0  0
  144.5125  132.9163  149.9843 C   0  0  0  0  0  0  0  0  0  0  0  0
  145.6550  132.3519  150.6159 O   0  0  0  0  0  0  0  0  0  0  0  0
  146.6957  133.3010  150.8133 C   0  0  0  0  0  0  0  0  0  0  0  0
  146.2216  134.4190  151.7593 C   0  0  0  0  0  0  0  0  0  0  0  0
  145.4133  135.2332  149.3881 H   0  0  0  0  0  0  0  0  0  0  0  0
  143.4947  136.6326  151.8562 H   0  0  0  0  0  0  0  0  0  0  0  0
  143.8914  135.5087  153.1279 H   0  0  0  0  0  0  0  0  0  0  0  0
  145.8972  138.0992  151.0849 H   0  0  0  0  0  0  0  0  0  0  0  0
  149.9660  138.8985  155.0200 H   0  0  0  0  0  0  0  0  0  0  0  0
  148.9350  139.5938  153.7733 H   0  0  0  0  0  0  0  0  0  0  0  0
  150.7652  141.1377  154.3663 H   0  0  0  0  0  0  0  0  0  0  0  0
  149.2076  141.8605  154.7180 H   0  0  0  0  0  0  0  0  0  0  0  0
  151.8514  142.5899  156.0424 H   0  0  0  0  0  0  0  0  0  0  0  0
  150.2847  143.3267  156.2728 H   0  0  0  0  0  0  0  0  0  0  0  0
  150.3378  142.7619  158.7259 H   0  0  0  0  0  0  0  0  0  0  0  0
  151.7961  140.8601  158.9554 H   0  0  0  0  0  0  0  0  0  0  0  0
  153.0728  141.6668  158.0365 H   0  0  0  0  0  0  0  0  0  0  0  0
  152.0268  142.4182  160.7883 H   0  0  0  0  0  0  0  0  0  0  0  0
  153.7103  142.2735  160.2747 H   0  0  0  0  0  0  0  0  0  0  0  0
  152.6719  144.3576  157.5942 H   0  0  0  0  0  0  0  0  0  0  0  0
  151.2617  144.9717  158.4570 H   0  0  0  0  0  0  0  0  0  0  0  0
  149.3229  141.3508  158.2854 H   0  0  0  0  0  0  0  0  0  0  0  0
  148.3836  141.9826  156.9448 H   0  0  0  0  0  0  0  0  0  0  0  0
  147.4886  139.8048  157.7074 H   0  0  0  0  0  0  0  0  0  0  0  0
  149.0410  139.0281  157.4803 H   0  0  0  0  0  0  0  0  0  0  0  0
  145.5900  136.3141  157.2618 H   0  0  0  0  0  0  0  0  0  0  0  0
  143.5282  133.5319  151.7918 H   0  0  0  0  0  0  0  0  0  0  0  0
  143.0324  134.4499  150.3934 H   0  0  0  0  0  0  0  0  0  0  0  0
  143.7828  132.1253  149.8096 H   0  0  0  0  0  0  0  0  0  0  0  0
  144.7822  133.3167  149.0059 H   0  0  0  0  0  0  0  0  0  0  0  0
  147.5573  132.7907  151.2442 H   0  0  0  0  0  0  0  0  0  0  0  0
  147.0193  133.7082  149.8541 H   0  0  0  0  0  0  0  0  0  0  0  0
  147.0200  135.1509  151.8856 H   0  0  0  0  0  0  0  0  0  0  0  0
  146.0427  133.9866  152.7446 H   0  0  0  0  0  0  0  0  0  0  0  0
  1  2  1  0  0  0  0
  1 30  1  0  0  0  0
  2 29  1  0  0  0  0
  2  3  1  0  0  0  0
  2 25  1  0  0  0  0
  3  4  1  0  0  0  0
  3 31  1  0  0  0  0
  3 32  1  0  0  0  0
  4 24  1  0  0  0  0
  4  5  1  0  0  0  0
  5  6  2  0  0  0  0
  5 33  1  0  0  0  0
  6  7  1  0  0  0  0
  7 24  2  0  0  0  0
  7  8  1  0  0  0  0
  8  9  1  0  0  0  0
  8 21  2  0  0  0  0
  9 20  1  0  0  0  0
  9 10  1  0  0  0  0
 10 11  1  0  0  0  0
 10 34  1  0  0  0  0
 10 35  1  0  0  0  0
 11 12  1  0  0  0  0
 11 36  1  0  0  0  0
 11 37  1  0  0  0  0
 12 13  1  0  0  0  0
 12 19  1  0  0  0  0
 13 14  1  0  0  0  0
 13 38  1  0  0  0  0
 13 39  1  0  0  0  0
 14 18  1  0  0  0  0
 14 15  1  0  0  0  0
 14 40  1  0  0  0  0
 15 16  1  0  0  0  0
 15 41  1  0  0  0  0
 15 42  1  0  0  0  0
 16 17  1  0  0  0  0
 16 43  1  0  0  0  0
 16 44  1  0  0  0  0
 17 18  1  0  0  0  0
 18 45  1  0  0  0  0
 18 46  1  0  0  0  0
 19 20  1  0  0  0  0
 19 47  1  0  0  0  0
 19 48  1  0  0  0  0
 20 49  1  0  0  0  0
 20 50  1  0  0  0  0
 21 22  1  0  0  0  0
 22 23  2  0  0  0  0
 22 51  1  0  0  0  0
 23 24  1  0  0  0  0
 25 26  1  0  0  0  0
 25 52  1  0  0  0  0
 25 53  1  0  0  0  0
 26 27  1  0  0  0  0
 26 54  1  0  0  0  0
 26 55  1  0  0  0  0
 27 28  1  0  0  0  0
 28 29  1  0  0  0  0
 28 56  1  0  0  0  0
 28 57  1  0  0  0  0
 29 58  1  0  0  0  0
 29 59  1  0  0  0  0
M  END
> <s_m_source_file>
AV-unprocessed.smi

> <i_m_source_file_index>
262

> <i_lp_mmshare_version>
43012

> <i_f3d_flags>
0

> <s_epik_input>
W0NIMl0xW0NIMl1PW0NIMl1bQ0gyXUMxKFtPSF0pW0NIMl1uKFtjSF1uMiljKGMyMyluW2NIXW5jM040W0NIMl1bQ0gyXU4oW0NIMl1bQ0gyXTQpW0NIMl1bQ0BASF01W0NIMl1bQ0gyXU9bQ0gyXTU=

> <s_epik_cmdline>
J2VwaWtfcHl0aG9uJywgJy1waCcsICc3LjAnLCAnLXRuJywgJzgnLCAnLW1hJywgJzIwMCcsICctbWV0YWxfYmluZGluZycsICctaW1hZScsICc8aW5maWxlLm1hZT4nLCAnLW9tYWUnLCAnPG91dGZpbGUubWFlPic=

> <r_lp_tautomer_probability>
1

> <r_epik_Ionization_Penalty>
2.38637

> <r_epik_Ionization_Penalty_Charging>
0

> <r_epik_Ionization_Penalty_Neutral>
2.38637

> <r_epik_State_Penalty>
2.53316

> <r_epik_Charging_Adjusted_Penalty>
2.53316

> <i_epik_Tot_Q>
0

> <i_epik_Tot_abs_Q>
0

> <r_epik_Metal_State_Penalty>
2.52423

> <b_epik_Metal_Only>
0

> <s_lp_Force_Field>
OPLS_2005

> <r_lp_Energy>
58.0525

> <b_lp_Chiralities_Consistent>
1

> <s_lp_Variant>
AV-unprocessed.smi:262-4

> <Gold.Version>
5.8.1

> <Gold.Id.Protein>
6NUR|6NUR_protein|mol2

> <Gold.PLP.Fitness>
48.0345

> <Gold.PLP.PLP>
-42.2170

> <Gold.PLP.part.hbond>
-1.9753

> <Gold.PLP.part.metal>
0.0000

> <Gold.PLP.part.buried>
-6.1198

> <Gold.PLP.part.nonpolar>
-35.4454

> <Gold.PLP.part.repulsive>
0.4701

> <Gold.PLP.ligand.clash>
0.0000

> <Gold.PLP.ligand.torsion>
0.3282

> <Gold.PLP.Chemscore.Hbond>
1.0000

> <Gold.PLP.Chemscore.CHOScore>
0.9911

> <Gold.PLP.Chemscore.Metal>
0.0000

> <Gold.Chemscore.Hbonds>
donor molecule, donor type, donor heavy atom, donor atom, acceptor molecule, acceptor atom, score
      L1  H     1    30       P1  7921  1.00
      L1  C     5    33       P1 10171  0.97

> <Gold.PLP.Chemscore.Internal.Correction>
0.5007

> <Gold.Rescore>
     Score         DG    S(hbond)    S(metal)    S(lipo)     H(rot)  DE(clash)    DE(int)     intcor
     14.57     -15.00       0.97        0.00     108.12       2.49       0.05       0.38       ----

> <Gold.Chemscore.Fitness>
14.5719

> <Gold.Chemscore.DG>
-15.0004

> <Gold.Chemscore.ZeroCoef>
-5.4800

> <Gold.Chemscore.Hbond>
0.9680

> <Gold.Chemscore.Metal>
0.0000

> <Gold.Chemscore.Lipo>
108.1192

> <Gold.Chemscore.Internal_Hbond>
0.0000

> <Gold.Chemscore.DEClash>
0.0456

> <Gold.Chemscore.DEInternal>
0.3828

> <Gold.Chemscore.Rot>
2.4855

> <Gold.Chemscore.Internal.Correction>
   9.000000E+99

> <Gold.Chemscore.Hbonds>
donor molecule, donor type, donor heavy atom, donor atom, acceptor molecule, acceptor atom, score
      L1  H     1    30       P1  7921  0.95

> <Gold.Chemscore.Hbond.Weighted>
-3.2333

> <Gold.Chemscore.Metal.Weighted>
-0.0000

> <Gold.Chemscore.Lipo.Weighted>
-12.6499

> <Gold.Chemscore.Internal_Hbond.Weighted>
0.0000

> <Gold.Chemscore.DEClash.Weighted>
0.0456

> <Gold.Chemscore.DEInternal.Weighted>
0.3828

> <Gold.Chemscore.Rot.Weighted>
6.3629

> <Gold.Chemscore.Internal.Correction.Weighted>
   9.000000E+99

> <Gold.Protein.RotatedTorsions>
[ 6907 6896 6895 6894 ] final -124.12 input  -60.11 | X-H torsion
[ 7974 7965 7964 7962 ] final   44.51 input  175.53 | X-H torsion
[ 8008 7997 7996 7995 ] final  134.18 input   59.86 | X-H torsion
[ 10167 10162 10161 10158 ] final -103.84 input  -65.29 | X-H torsion
[ 10718 10713 10712 10709 ] final   11.68 input   66.30 | X-H torsion
[ 10763 10752 10751 10750 ] final -143.38 input  -60.55 | X-H torsion
[ 11005 11000 10999 10996 ] final  140.44 input  -57.11 | X-H torsion

> <Gold.Protein.ActiveResidues>
 VAL166  LYS551  ARG553  GLY616  TRP617  ASP618  TYR619  PRO620  LYS621  CYS622 
 ASP623  PHE694  ASN695  SER759  ASP760  ASP761  ALA762  ILE779  LEU786  VAL792 
 PHE793  MET794  SER795  GLU796  ALA797  LYS798  CYS799  TRP800  GLU811  SER814 

> <Gold.Protein.RotatedAtoms>
  150.8737  133.7469  159.2953 H   0  0  0  0  0  0  0  0  0  0  0  0  # atno 6907 bound_to 6896
  151.5073  135.1062  159.9854 H   0  0  0  0  0  0  0  0  0  0  0  0  # atno 6908 bound_to 6896
  152.4713  133.7991  159.6998 H   0  0  0  0  0  0  0  0  0  0  0  0  # atno 6909 bound_to 6896
  146.0562  139.5066  142.9687 H   0  0  0  0  0  0  0  0  0  0  0  0  # atno 7974 bound_to 7965
  156.2997  140.2502  156.3375 H   0  0  0  0  0  0  0  0  0  0  0  0  # atno 8008 bound_to 7997
  154.9087  140.0404  157.1953 H   0  0  0  0  0  0  0  0  0  0  0  0  # atno 8009 bound_to 7997
  154.8427  140.2893  155.5653 H   0  0  0  0  0  0  0  0  0  0  0  0  # atno 8010 bound_to 7997
  140.2156  143.3713  152.1013 H   0  0  0  0  0  0  0  0  0  0  0  0  # atno 10167 bound_to 10162
  156.9991  130.6072  149.5694 H   0  0  0  0  0  0  0  0  0  0  0  0  # atno 10718 bound_to 10713
  154.8472  135.3469  154.6178 H   0  0  0  0  0  0  0  0  0  0  0  0  # atno 10763 bound_to 10752
  153.6786  135.6981  153.5129 H   0  0  0  0  0  0  0  0  0  0  0  0  # atno 10764 bound_to 10752
  153.2686  135.4300  155.0921 H   0  0  0  0  0  0  0  0  0  0  0  0  # atno 10765 bound_to 10752
  140.0327  134.9344  157.0694 H   0  0  0  0  0  0  0  0  0  0  0  0  # atno 11005 bound_to 11000
  145.6640  141.0233  143.1694 LP  0  0  0  0  0  0  0  0  0  0  0  0  # atno 17320 bound_to 7965
  144.7149  139.8233  143.7402 LP  0  0  0  0  0  0  0  0  0  0  0  0  # atno 17321 bound_to 7965
  139.5163  144.6975  151.5587 LP  0  0  0  0  0  0  0  0  0  0  0  0  # atno 17342 bound_to 10162
  140.6292  143.9110  150.6590 LP  0  0  0  0  0  0  0  0  0  0  0  0  # atno 17343 bound_to 10162
  156.0178  130.5272  150.8186 LP  0  0  0  0  0  0  0  0  0  0  0  0  # atno 17370 bound_to 10713
  157.5403  131.0940  150.9836 LP  0  0  0  0  0  0  0  0  0  0  0  0  # atno 17371 bound_to 10713
  140.4198  134.1892  155.7164 LP  0  0  0  0  0  0  0  0  0  0  0  0  # atno 17394 bound_to 11000
  141.1840  133.8353  157.1155 LP  0  0  0  0  0  0  0  0  0  0  0  0  # atno 17395 bound_to 11000

$$$$
