AV-unprocessed.smi:2243|AV-procd|sdf|9070|dock4
  -GOLD-   2272012273D 1   1.00000     0.00000
 Structure written by MMmdl.
 33 34  0  0  0  0  0  0  0  0  2 V2000
  148.2284  138.0085  156.0408 C   0  0  0  0  0  0  0  0  0  0  0  0
  149.2904  137.7641  157.1265 C   0  0  2  0  0  0  0  0  0  0  0  0
  148.6162  137.7980  158.4262 N   0  0  0  0  0  0  0  0  0  0  0  0
  148.6987  136.8817  159.4036 C   0  0  0  0  0  0  0  0  0  0  0  0
  149.4134  135.8869  159.2620 O   0  0  0  0  0  0  0  0  0  0  0  0
  147.9516  137.1808  160.4900 N   0  5  0  0  0  0  0  0  0  0  0  0
  147.3978  136.1936  161.2124 C   0  0  0  0  0  0  0  0  0  0  0  0
  146.5023  136.3362  162.1913 N   0  0  0  0  0  0  0  0  0  0  0  0
  146.2284  135.0547  162.6438 C   0  0  0  0  0  0  0  0  0  0  0  0
  146.9865  134.1808  161.9134 C   0  0  0  0  0  0  0  0  0  0  0  0
  147.7310  134.8873  161.0096 O   0  0  0  0  0  0  0  0  0  0  0  0
  150.4567  138.7889  157.0850 C   0  0  0  0  0  0  0  0  0  0  0  0
  151.3081  138.6664  155.8047 C   0  0  0  0  0  0  0  0  0  0  0  0
  152.4965  139.6415  155.8254 C   0  0  0  0  0  0  0  0  0  0  0  0
  153.2956  139.4143  156.9795 O   0  0  0  0  0  0  0  0  0  0  0  0
  152.5845  139.6430  158.1896 C   0  0  0  0  0  0  0  0  0  0  0  0
  151.4025  138.6669  158.2991 C   0  0  0  0  0  0  0  0  0  0  0  0
  148.6303  137.8585  155.0393 H   0  0  0  0  0  0  0  0  0  0  0  0
  147.8297  139.0221  156.0958 H   0  0  0  0  0  0  0  0  0  0  0  0
  147.3921  137.3172  156.1514 H   0  0  0  0  0  0  0  0  0  0  0  0
  149.7046  136.7700  156.9509 H   0  0  0  0  0  0  0  0  0  0  0  0
  148.0199  138.5935  158.6007 H   0  0  0  0  0  0  0  0  0  0  0  0
  145.5245  134.8688  163.4413 H   0  0  0  0  0  0  0  0  0  0  0  0
  147.1059  133.1078  161.9100 H   0  0  0  0  0  0  0  0  0  0  0  0
  150.0245  139.7908  157.1033 H   0  0  0  0  0  0  0  0  0  0  0  0
  151.6797  137.6457  155.7052 H   0  0  0  0  0  0  0  0  0  0  0  0
  150.7071  138.8688  154.9187 H   0  0  0  0  0  0  0  0  0  0  0  0
  153.1133  139.4967  154.9384 H   0  0  0  0  0  0  0  0  0  0  0  0
  152.1515  140.6763  155.8060 H   0  0  0  0  0  0  0  0  0  0  0  0
  153.2647  139.5010  159.0294 H   0  0  0  0  0  0  0  0  0  0  0  0
  152.2394  140.6772  158.2321 H   0  0  0  0  0  0  0  0  0  0  0  0
  150.8689  138.8666  159.2285 H   0  0  0  0  0  0  0  0  0  0  0  0
  151.7806  137.6463  158.3713 H   0  0  0  0  0  0  0  0  0  0  0  0
  1  2  1  0  0  0  0
  1 18  1  0  0  0  0
  1 19  1  0  0  0  0
  1 20  1  0  0  0  0
  2  3  1  0  0  0  0
  2 12  1  0  0  0  0
  2 21  1  0  0  0  0
  3 22  1  0  0  0  0
  3  4  1  0  0  0  0
  4  6  1  0  0  0  0
  4  5  2  0  0  0  0
  6  7  1  0  0  0  0
  7 11  1  0  0  0  0
  7  8  2  0  0  0  0
  8  9  1  0  0  0  0
  9 23  1  0  0  0  0
  9 10  2  0  0  0  0
 10 24  1  0  0  0  0
 10 11  1  0  0  0  0
 12 17  1  0  0  0  0
 12 13  1  0  0  0  0
 12 25  1  0  0  0  0
 13 14  1  0  0  0  0
 13 26  1  0  0  0  0
 13 27  1  0  0  0  0
 14 15  1  0  0  0  0
 14 28  1  0  0  0  0
 14 29  1  0  0  0  0
 15 16  1  0  0  0  0
 16 17  1  0  0  0  0
 16 30  1  0  0  0  0
 16 31  1  0  0  0  0
 17 32  1  0  0  0  0
 17 33  1  0  0  0  0
M  CHG  1   6  -1
M  END
> <s_m_source_file>
AV-unprocessed.smi

> <i_m_source_file_index>
2243

> <i_lp_mmshare_version>
43012

> <i_f3d_flags>
0

> <s_epik_input>
W0NIMl0xW0NIMl1PW0NIMl1bQ0gyXVtDSF0xW0NASF0oW0NIM10pW05IXUMoPU8pW05IXWMybltjSF1bY0hdbzI=

> <s_epik_cmdline>
J2VwaWtfcHl0aG9uJywgJy1waCcsICc3LjAnLCAnLXRuJywgJzgnLCAnLW1hJywgJzIwMCcsICctbWV0YWxfYmluZGluZycsICctaW1hZScsICc8aW5maWxlLm1hZT4nLCAnLW9tYWUnLCAnPG91dGZpbGUubWFlPic=

> <r_lp_tautomer_probability>
0.107061

> <r_epik_Ionization_Penalty>
11.1403

> <r_epik_Ionization_Penalty_Charging>
7.81312

> <r_epik_Ionization_Penalty_Neutral>
3.32719

> <r_epik_State_Penalty>
5.94317

> <r_epik_Charging_Adjusted_Penalty>
13.7563

> <i_epik_Tot_Q>
-1

> <i_epik_Tot_abs_Q>
1

> <r_epik_Metal_State_Penalty>
1.86619

> <b_epik_Metal_Only>
1

> <s_lp_Force_Field>
OPLS_2005

> <r_lp_Energy>
6.48942

> <b_lp_Chiralities_Consistent>
1

> <s_lp_Variant>
AV-unprocessed.smi:2243-9

> <Gold.Version>
5.8.1

> <Gold.Id.Protein>
6NUR|6NUR_protein|mol2

> <Gold.PLP.Fitness>
39.2339

> <Gold.PLP.PLP>
-24.8441

> <Gold.PLP.part.hbond>
-3.7813

> <Gold.PLP.part.metal>
0.0000

> <Gold.PLP.part.buried>
-3.2425

> <Gold.PLP.part.nonpolar>
-17.5659

> <Gold.PLP.part.repulsive>
0.1319

> <Gold.PLP.ligand.clash>
0.0000

> <Gold.PLP.ligand.torsion>
0.4294

> <Gold.PLP.Chemscore.Hbond>
5.0720

> <Gold.PLP.Chemscore.CHOScore>
0.0000

> <Gold.PLP.Chemscore.Metal>
0.0000

> <Gold.Chemscore.Hbonds>
donor molecule, donor type, donor heavy atom, donor atom, acceptor molecule, acceptor atom, score
      P1  H  6896  6909       L1     5  1.00
      P1  H  6931  6943       L1     6  1.34
      P1  H  6934  6947       L1     6  1.53
      P1  H  7997  8010       L1    15  0.49

> <Gold.PLP.Chemscore.Internal.Correction>
0.0326

> <Gold.Rescore>
     Score         DG    S(hbond)    S(metal)    S(lipo)     H(rot)  DE(clash)    DE(int)     intcor
     15.38     -17.33       3.06        0.00      42.51       1.31       0.01       1.93       ----

> <Gold.Chemscore.Fitness>
15.3834

> <Gold.Chemscore.DG>
-17.3264

> <Gold.Chemscore.ZeroCoef>
-5.4800

> <Gold.Chemscore.Hbond>
3.0591

> <Gold.Chemscore.Metal>
0.0000

> <Gold.Chemscore.Lipo>
42.5068

> <Gold.Chemscore.Internal_Hbond>
0.0000

> <Gold.Chemscore.DEClash>
0.0110

> <Gold.Chemscore.DEInternal>
1.9320

> <Gold.Chemscore.Rot>
1.3063

> <Gold.Chemscore.Internal.Correction>
   9.000000E+99

> <Gold.Chemscore.Hbonds>
donor molecule, donor type, donor heavy atom, donor atom, acceptor molecule, acceptor atom, score
      P1  H  6896  6909       L1     5  1.00
      P1  H  6931  6943       L1     6  0.23
      P1  H  6934  6947       L1     6  0.63
      P1  H  7997  8010       L1    15  0.31

> <Gold.Chemscore.Hbond.Weighted>
-10.2174

> <Gold.Chemscore.Metal.Weighted>
-0.0000

> <Gold.Chemscore.Lipo.Weighted>
-4.9733

> <Gold.Chemscore.Internal_Hbond.Weighted>
0.0000

> <Gold.Chemscore.DEClash.Weighted>
0.0110

> <Gold.Chemscore.DEInternal.Weighted>
1.9320

> <Gold.Chemscore.Rot.Weighted>
3.3443

> <Gold.Chemscore.Internal.Correction.Weighted>
   9.000000E+99

> <Gold.Protein.RotatedTorsions>
[ 6907 6896 6895 6894 ] final   53.29 input  -60.11 | X-H torsion
[ 7974 7965 7964 7962 ] final  176.36 input  175.53 | X-H torsion
[ 8008 7997 7996 7995 ] final   48.35 input   59.86 | X-H torsion
[ 10167 10162 10161 10158 ] final  -12.38 input  -65.29 | X-H torsion
[ 10718 10713 10712 10709 ] final  -88.36 input   66.30 | X-H torsion
[ 10763 10752 10751 10750 ] final   35.50 input  -60.55 | X-H torsion
[ 11005 11000 10999 10996 ] final -122.32 input  -57.11 | X-H torsion

> <Gold.Protein.ActiveResidues>
 VAL166  LYS551  ARG553  GLY616  TRP617  ASP618  TYR619  PRO620  LYS621  CYS622 
 ASP623  PHE694  ASN695  SER759  ASP760  ASP761  ALA762  ILE779  LEU786  VAL792 
 PHE793  MET794  SER795  GLU796  ALA797  LYS798  CYS799  TRP800  GLU811  SER814 

> <Gold.Protein.RotatedAtoms>
  152.3322  134.7245  160.0286 H   0  0  0  0  0  0  0  0  0  0  0  0  # atno 6907 bound_to 6896
  151.7658  133.3332  159.3438 H   0  0  0  0  0  0  0  0  0  0  0  0  # atno 6908 bound_to 6896
  150.7429  134.5996  159.6074 H   0  0  0  0  0  0  0  0  0  0  0  0  # atno 6909 bound_to 6896
  144.7185  140.0086  143.6440 H   0  0  0  0  0  0  0  0  0  0  0  0  # atno 7974 bound_to 7965
  155.3842  140.3430  155.4248 H   0  0  0  0  0  0  0  0  0  0  0  0  # atno 8008 bound_to 7997
  156.1593  140.1595  156.8672 H   0  0  0  0  0  0  0  0  0  0  0  0  # atno 8009 bound_to 7997
  154.5124  140.0786  156.7998 H   0  0  0  0  0  0  0  0  0  0  0  0  # atno 8010 bound_to 7997
  140.7160  143.5539  150.9270 H   0  0  0  0  0  0  0  0  0  0  0  0  # atno 10167 bound_to 10162
  155.9984  130.4833  150.5008 H   0  0  0  0  0  0  0  0  0  0  0  0  # atno 10718 bound_to 10713
  153.0116  135.6331  154.1836 H   0  0  0  0  0  0  0  0  0  0  0  0  # atno 10763 bound_to 10752
  154.1578  135.2825  155.3119 H   0  0  0  0  0  0  0  0  0  0  0  0  # atno 10764 bound_to 10752
  154.6004  135.5589  153.7429 H   0  0  0  0  0  0  0  0  0  0  0  0  # atno 10765 bound_to 10752
  141.0004  134.0411  157.3545 H   0  0  0  0  0  0  0  0  0  0  0  0  # atno 11005 bound_to 11000
  146.0277  139.3307  143.0774 LP  0  0  0  0  0  0  0  0  0  0  0  0  # atno 17320 bound_to 7965
  145.8491  140.9539  143.0759 LP  0  0  0  0  0  0  0  0  0  0  0  0  # atno 17321 bound_to 7965
  139.9263  143.6545  152.3086 LP  0  0  0  0  0  0  0  0  0  0  0  0  # atno 17342 bound_to 10162
  139.6980  144.7639  151.1322 LP  0  0  0  0  0  0  0  0  0  0  0  0  # atno 17343 bound_to 10162
  157.2992  131.0642  151.2080 LP  0  0  0  0  0  0  0  0  0  0  0  0  # atno 17370 bound_to 10713
  157.3065  130.6868  149.6192 LP  0  0  0  0  0  0  0  0  0  0  0  0  # atno 17371 bound_to 10713
  139.9036  135.0173  156.7382 LP  0  0  0  0  0  0  0  0  0  0  0  0  # atno 17394 bound_to 11000
  140.6898  133.9400  155.7959 LP  0  0  0  0  0  0  0  0  0  0  0  0  # atno 17395 bound_to 11000

$$$$
