AV-unprocessed.smi:2840|AV-procd|sdf|10932|dock1
  -GOLD-   2272015373D 1   1.00000     0.00000
 Structure written by MMmdl.
 36 37  0  0  0  0  0  0  0  0  1 V2000
  145.2403  143.3570  155.7262 C   0  0  0  0  0  0  0  0  0  0  0  0
  145.8739  142.0714  155.1678 C   0  0  1  0  0  0  0  0  0  0  0  0
  146.5333  142.3144  153.7943 C   0  0  0  0  0  0  0  0  0  0  0  0
  147.1087  141.0160  153.2068 C   0  0  0  0  0  0  0  0  0  0  0  0
  148.0998  140.3549  154.1760 C   0  0  0  0  0  0  0  0  0  0  0  0
  147.4546  140.1093  155.5511 C   0  0  0  0  0  0  0  0  0  0  0  0
  146.8606  141.3976  156.1563 C   0  0  1  0  0  0  0  0  0  0  0  0
  147.9427  142.3018  156.5526 N   0  0  0  0  0  0  0  0  0  0  0  0
  148.8708  142.0622  157.4913 C   0  0  0  0  0  0  0  0  0  0  0  0
  148.9045  141.0366  158.1720 O   0  0  0  0  0  0  0  0  0  0  0  0
  149.7413  143.0830  157.5805 N   0  0  0  0  0  0  0  0  0  0  0  0
  150.8771  143.1982  158.4257 C   0  0  0  0  0  0  0  0  0  0  0  0
  151.4157  141.9711  158.8747 C   0  0  0  0  0  0  0  0  0  0  0  0
  152.5395  141.9764  159.7237 C   0  0  0  0  0  0  0  0  0  0  0  0
  153.0978  143.2106  160.1010 C   0  0  0  0  0  0  0  0  0  0  0  0
  152.5027  144.3861  159.6073 C   0  0  0  0  0  0  0  0  0  0  0  0
  151.4251  144.3833  158.7945 N   0  0  0  0  0  0  0  0  0  0  0  0
  145.9780  144.1495  155.8520 H   0  0  0  0  0  0  0  0  0  0  0  0
  144.7762  143.1754  156.6960 H   0  0  0  0  0  0  0  0  0  0  0  0
  144.4661  143.7329  155.0569 H   0  0  0  0  0  0  0  0  0  0  0  0
  145.0556  141.3673  155.0094 H   0  0  0  0  0  0  0  0  0  0  0  0
  145.8034  142.7331  153.1006 H   0  0  0  0  0  0  0  0  0  0  0  0
  147.3272  143.0565  153.8879 H   0  0  0  0  0  0  0  0  0  0  0  0
  146.2955  140.3229  152.9879 H   0  0  0  0  0  0  0  0  0  0  0  0
  147.6014  141.2245  152.2568 H   0  0  0  0  0  0  0  0  0  0  0  0
  148.4518  139.4112  153.7585 H   0  0  0  0  0  0  0  0  0  0  0  0
  148.9807  140.9880  154.2871 H   0  0  0  0  0  0  0  0  0  0  0  0
  146.6624  139.3675  155.4429 H   0  0  0  0  0  0  0  0  0  0  0  0
  148.1849  139.6727  156.2337 H   0  0  0  0  0  0  0  0  0  0  0  0
  146.2986  141.1030  157.0443 H   0  0  0  0  0  0  0  0  0  0  0  0
  147.9952  143.1783  156.0548 H   0  0  0  0  0  0  0  0  0  0  0  0
  149.5847  143.8606  156.9568 H   0  0  0  0  0  0  0  0  0  0  0  0
  150.9738  141.0317  158.5755 H   0  0  0  0  0  0  0  0  0  0  0  0
  152.9644  141.0493  160.0796 H   0  0  0  0  0  0  0  0  0  0  0  0
  153.9592  143.2555  160.7507 H   0  0  0  0  0  0  0  0  0  0  0  0
  152.9014  145.3542  159.8725 H   0  0  0  0  0  0  0  0  0  0  0  0
  1  2  1  0  0  0  0
  1 18  1  0  0  0  0
  1 19  1  0  0  0  0
  1 20  1  0  0  0  0
  2  7  1  0  0  0  0
  2  3  1  0  0  0  0
  2 21  1  0  0  0  0
  3  4  1  0  0  0  0
  3 22  1  0  0  0  0
  3 23  1  0  0  0  0
  4  5  1  0  0  0  0
  4 24  1  0  0  0  0
  4 25  1  0  0  0  0
  5  6  1  0  0  0  0
  5 26  1  0  0  0  0
  5 27  1  0  0  0  0
  6  7  1  0  0  0  0
  6 28  1  0  0  0  0
  6 29  1  0  0  0  0
  7  8  1  0  0  0  0
  7 30  1  0  0  0  0
  8  9  1  0  0  0  0
  8 31  1  0  0  0  0
  9 10  2  0  0  0  0
  9 11  1  0  0  0  0
 11 12  1  0  0  0  0
 11 32  1  0  0  0  0
 12 17  1  0  0  0  0
 12 13  2  0  0  0  0
 13 14  1  0  0  0  0
 13 33  1  0  0  0  0
 14 15  2  0  0  0  0
 14 34  1  0  0  0  0
 15 16  1  0  0  0  0
 15 35  1  0  0  0  0
 16 17  2  0  0  0  0
 16 36  1  0  0  0  0
M  END
> <s_m_source_file>
AV-unprocessed.smi

> <i_m_source_file_index>
2840

> <i_lp_mmshare_version>
43012

> <i_f3d_flags>
0

> <s_epik_input>
W0NIM11bQ0BASF0xW0NIMl1bQ0gyXVtDSDJdW0NIMl1bQ0BIXTFbTkhdQyg9TylbTkhdYzJbY0hdW2NIXVtjSF1bY0hdbjI=

> <s_epik_cmdline>
J2VwaWtfcHl0aG9uJywgJy1waCcsICc3LjAnLCAnLXRuJywgJzgnLCAnLW1hJywgJzIwMCcsICctbWV0YWxfYmluZGluZycsICctaW1hZScsICc8aW5maWxlLm1hZT4nLCAnLW9tYWUnLCAnPG91dGZpbGUubWFlPic=

> <r_lp_tautomer_probability>
1

> <r_epik_Ionization_Penalty>
5.29956e-05

> <r_epik_Ionization_Penalty_Charging>
0

> <r_epik_Ionization_Penalty_Neutral>
5.29956e-05

> <r_epik_State_Penalty>
-0

> <r_epik_Charging_Adjusted_Penalty>
0

> <i_epik_Tot_Q>
0

> <i_epik_Tot_abs_Q>
0

> <r_epik_Metal_State_Penalty>
-0

> <b_epik_Metal_Only>
0

> <s_lp_Force_Field>
OPLS_2005

> <r_lp_Energy>
11.7155

> <b_lp_Chiralities_Consistent>
1

> <s_lp_Variant>
AV-unprocessed.smi:2840-2

> <Gold.Version>
5.8.1

> <Gold.Id.Protein>
6NUR|6NUR_protein|mol2

> <Gold.PLP.Fitness>
37.8140

> <Gold.PLP.PLP>
-32.1050

> <Gold.PLP.part.hbond>
-2.0808

> <Gold.PLP.part.metal>
0.0000

> <Gold.PLP.part.buried>
-5.7468

> <Gold.PLP.part.nonpolar>
-23.4845

> <Gold.PLP.part.repulsive>
0.1537

> <Gold.PLP.ligand.clash>
0.0000

> <Gold.PLP.ligand.torsion>
0.1491

> <Gold.PLP.Chemscore.Hbond>
2.0000

> <Gold.PLP.Chemscore.CHOScore>
0.0000

> <Gold.PLP.Chemscore.Metal>
0.0000

> <Gold.Chemscore.Hbonds>
donor molecule, donor type, donor heavy atom, donor atom, acceptor molecule, acceptor atom, score
      L1  H     8    31       P1  8028  1.00
      L1  H    11    32       P1  8028  1.00

> <Gold.PLP.Chemscore.Internal.Correction>
0.0071

> <Gold.Rescore>
     Score         DG    S(hbond)    S(metal)    S(lipo)     H(rot)  DE(clash)    DE(int)     intcor
     16.38     -17.99       1.80        0.00      77.46       1.00       0.00       1.60       ----

> <Gold.Chemscore.Fitness>
16.3838

> <Gold.Chemscore.DG>
-17.9874

> <Gold.Chemscore.ZeroCoef>
-5.4800

> <Gold.Chemscore.Hbond>
1.7977

> <Gold.Chemscore.Metal>
0.0000

> <Gold.Chemscore.Lipo>
77.4628

> <Gold.Chemscore.Internal_Hbond>
0.0000

> <Gold.Chemscore.DEClash>
0.0013

> <Gold.Chemscore.DEInternal>
1.6022

> <Gold.Chemscore.Rot>
1.0000

> <Gold.Chemscore.Internal.Correction>
   9.000000E+99

> <Gold.Chemscore.Hbonds>
donor molecule, donor type, donor heavy atom, donor atom, acceptor molecule, acceptor atom, score
      L1  H     8    31       P1  8028  0.43
      L1  H    11    32       P1  8028  0.87

> <Gold.Chemscore.Hbond.Weighted>
-6.0042

> <Gold.Chemscore.Metal.Weighted>
-0.0000

> <Gold.Chemscore.Lipo.Weighted>
-9.0631

> <Gold.Chemscore.Internal_Hbond.Weighted>
0.0000

> <Gold.Chemscore.DEClash.Weighted>
0.0013

> <Gold.Chemscore.DEInternal.Weighted>
1.6022

> <Gold.Chemscore.Rot.Weighted>
2.5600

> <Gold.Chemscore.Internal.Correction.Weighted>
   9.000000E+99

> <Gold.Protein.RotatedTorsions>
[ 6907 6896 6895 6894 ] final -132.91 input  -60.11 | X-H torsion
[ 7974 7965 7964 7962 ] final  -41.66 input  175.53 | X-H torsion
[ 8008 7997 7996 7995 ] final  153.15 input   59.86 | X-H torsion
[ 10167 10162 10161 10158 ] final   -7.48 input  -65.29 | X-H torsion
[ 10718 10713 10712 10709 ] final  104.64 input   66.30 | X-H torsion
[ 10763 10752 10751 10750 ] final    5.62 input  -60.55 | X-H torsion
[ 11005 11000 10999 10996 ] final  -42.90 input  -57.11 | X-H torsion

> <Gold.Protein.ActiveResidues>
 VAL166  LYS551  ARG553  GLY616  TRP617  ASP618  TYR619  PRO620  LYS621  CYS622 
 ASP623  PHE694  ASN695  SER759  ASP760  ASP761  ALA762  ILE779  LEU786  VAL792 
 PHE793  MET794  SER795  GLU796  ALA797  LYS798  CYS799  TRP800  GLU811  SER814 

> <Gold.Protein.RotatedAtoms>
  150.9679  133.6375  159.2742 H   0  0  0  0  0  0  0  0  0  0  0  0  # atno 6907 bound_to 6896
  151.3674  135.0915  159.9464 H   0  0  0  0  0  0  0  0  0  0  0  0  # atno 6908 bound_to 6896
  152.5172  133.9240  159.7603 H   0  0  0  0  0  0  0  0  0  0  0  0  # atno 6909 bound_to 6896
  146.0190  140.6873  142.9187 H   0  0  0  0  0  0  0  0  0  0  0  0  # atno 7974 bound_to 7965
  156.2595  140.2001  156.6445 H   0  0  0  0  0  0  0  0  0  0  0  0  # atno 8008 bound_to 7997
  154.6584  140.0563  157.0059 H   0  0  0  0  0  0  0  0  0  0  0  0  # atno 8009 bound_to 7997
  155.1313  140.3234  155.4476 H   0  0  0  0  0  0  0  0  0  0  0  0  # atno 8010 bound_to 7997
  140.7030  143.6076  150.8735 H   0  0  0  0  0  0  0  0  0  0  0  0  # atno 10167 bound_to 10162
  157.6733  131.0809  150.5737 H   0  0  0  0  0  0  0  0  0  0  0  0  # atno 10718 bound_to 10713
  153.2573  135.6919  153.7615 H   0  0  0  0  0  0  0  0  0  0  0  0  # atno 10763 bound_to 10752
  153.6688  135.3348  155.3148 H   0  0  0  0  0  0  0  0  0  0  0  0  # atno 10764 bound_to 10752
  154.8417  135.4495  154.1551 H   0  0  0  0  0  0  0  0  0  0  0  0  # atno 10765 bound_to 10752
  141.0347  133.6805  156.2658 H   0  0  0  0  0  0  0  0  0  0  0  0  # atno 11005 bound_to 11000
  144.6982  140.3532  143.7178 LP  0  0  0  0  0  0  0  0  0  0  0  0  # atno 17320 bound_to 7965
  145.7223  139.1713  143.2477 LP  0  0  0  0  0  0  0  0  0  0  0  0  # atno 17321 bound_to 7965
  139.9800  143.5962  152.2946 LP  0  0  0  0  0  0  0  0  0  0  0  0  # atno 17342 bound_to 10162
  139.6579  144.7662  151.2019 LP  0  0  0  0  0  0  0  0  0  0  0  0  # atno 17343 bound_to 10162
  156.6038  130.4361  149.5886 LP  0  0  0  0  0  0  0  0  0  0  0  0  # atno 17370 bound_to 10713
  156.2485  130.6893  151.1622 LP  0  0  0  0  0  0  0  0  0  0  0  0  # atno 17371 bound_to 10713
  140.6344  134.5231  157.5563 LP  0  0  0  0  0  0  0  0  0  0  0  0  # atno 17394 bound_to 11000
  139.9232  134.8107  156.1147 LP  0  0  0  0  0  0  0  0  0  0  0  0  # atno 17395 bound_to 11000

$$$$
