AV-unprocessed.smi:1244|AV-procd|sdf|5236|dock5
  -GOLD-   22720 4343D 1   1.00000     0.00000
 Structure written by MMmdl.
 55 57  0  0  0  0  0  0  0  0  4 V2000
  145.4876  134.3431  154.9095 C   0  0  0  0  0  0  0  0  0  0  0  0
  146.8765  134.4704  154.2740 C   0  0  1  0  0  0  0  0  0  0  0  0
  147.8302  135.3226  155.1305 C   0  0  0  0  0  0  0  0  0  0  0  0
  149.1810  135.3675  154.5118 N   0  3  1  0  0  0  0  0  0  0  0  0
  150.1444  136.2410  155.2332 C   0  0  0  0  0  0  0  0  0  0  0  0
  151.1705  136.8817  154.2745 C   0  0  0  0  0  0  0  0  0  0  0  0
  152.3910  137.2443  154.9941 N   0  5  0  0  0  0  0  0  0  0  0  0
  152.5333  138.3556  155.7654 C   0  0  0  0  0  0  0  0  0  0  0  0
  153.4234  138.5958  156.5900 O   0  0  0  0  0  0  0  0  0  0  0  0
  151.5476  139.2450  155.5602 N   0  0  0  0  0  0  0  0  0  0  0  0
  151.3230  140.4719  156.2416 C   0  0  0  0  0  0  0  0  0  0  0  0
  152.1944  140.8883  157.2786 C   0  0  0  0  0  0  0  0  0  0  0  0
  151.9527  142.0989  157.9546 C   0  0  0  0  0  0  0  0  0  0  0  0
  150.8441  142.8765  157.5783 C   0  0  0  0  0  0  0  0  0  0  0  0
  150.0447  142.4611  156.5737 N   0  3  0  0  0  0  0  0  0  0  0  0
  150.2329  141.3131  155.8751 C   0  0  0  0  0  0  0  0  0  0  0  0
  149.3119  141.0129  154.8450 N   0  0  0  0  0  0  0  0  0  0  0  0
  148.6881  139.6978  154.7655 C   0  0  0  0  0  0  0  0  0  0  0  0
  147.5631  139.8555  153.7456 C   0  0  0  0  0  0  0  0  0  0  0  0
  147.0915  141.2858  153.9926 C   0  0  0  0  0  0  0  0  0  0  0  0
  148.3738  142.0295  154.3811 C   0  0  0  0  0  0  0  0  0  0  0  0
  149.6898  133.9909  154.3019 C   0  0  0  0  0  0  0  0  0  0  0  0
  148.6856  133.1652  153.4747 C   0  0  1  0  0  0  0  0  0  0  0  0
  149.1366  131.7107  153.3025 C   0  0  0  0  0  0  0  0  0  0  0  0
  147.4242  133.1636  154.1347 O   0  0  0  0  0  0  0  0  0  0  0  0
  145.0205  135.3210  155.0310 H   0  0  0  0  0  0  0  0  0  0  0  0
  145.5447  133.8750  155.8924 H   0  0  0  0  0  0  0  0  0  0  0  0
  144.8290  133.7356  154.2887 H   0  0  0  0  0  0  0  0  0  0  0  0
  146.7657  134.9223  153.2865 H   0  0  0  0  0  0  0  0  0  0  0  0
  147.4271  136.3307  155.2329 H   0  0  0  0  0  0  0  0  0  0  0  0
  147.9050  134.9070  156.1368 H   0  0  0  0  0  0  0  0  0  0  0  0
  149.6017  136.9996  155.7997 H   0  0  0  0  0  0  0  0  0  0  0  0
  150.6949  135.6531  155.9694 H   0  0  0  0  0  0  0  0  0  0  0  0
  151.3842  136.1764  153.4711 H   0  0  0  0  0  0  0  0  0  0  0  0
  150.7172  137.7449  153.7849 H   0  0  0  0  0  0  0  0  0  0  0  0
  150.8031  138.9342  154.9537 H   0  0  0  0  0  0  0  0  0  0  0  0
  153.0479  140.2895  157.5609 H   0  0  0  0  0  0  0  0  0  0  0  0
  152.6068  142.4223  158.7510 H   0  0  0  0  0  0  0  0  0  0  0  0
  150.5770  143.8150  158.0420 H   0  0  0  0  0  0  0  0  0  0  0  0
  149.4048  138.9336  154.4622 H   0  0  0  0  0  0  0  0  0  0  0  0
  148.2719  139.4174  155.7341 H   0  0  0  0  0  0  0  0  0  0  0  0
  147.9615  139.7651  152.7338 H   0  0  0  0  0  0  0  0  0  0  0  0
  146.7714  139.1159  153.8670 H   0  0  0  0  0  0  0  0  0  0  0  0
  146.5929  141.7260  153.1284 H   0  0  0  0  0  0  0  0  0  0  0  0
  146.3907  141.3003  154.8286 H   0  0  0  0  0  0  0  0  0  0  0  0
  148.1778  142.7862  155.1418 H   0  0  0  0  0  0  0  0  0  0  0  0
  148.7972  142.5248  153.5065 H   0  0  0  0  0  0  0  0  0  0  0  0
  150.6476  134.0290  153.7810 H   0  0  0  0  0  0  0  0  0  0  0  0
  149.8676  133.5178  155.2691 H   0  0  0  0  0  0  0  0  0  0  0  0
  148.5704  133.6114  152.4852 H   0  0  0  0  0  0  0  0  0  0  0  0
  150.0937  131.6554  152.7831 H   0  0  0  0  0  0  0  0  0  0  0  0
  148.4100  131.1436  152.7200 H   0  0  0  0  0  0  0  0  0  0  0  0
  149.2496  131.2150  154.2671 H   0  0  0  0  0  0  0  0  0  0  0  0
  149.0747  135.7713  153.5921 H   0  0  0  0  0  0  0  0  0  0  0  0
  149.2521  143.0507  156.3196 H   0  0  0  0  0  0  0  0  0  0  0  0
  1  2  1  0  0  0  0
  1 26  1  0  0  0  0
  1 27  1  0  0  0  0
  1 28  1  0  0  0  0
  2 25  1  0  0  0  0
  2  3  1  0  0  0  0
  2 29  1  0  0  0  0
  3  4  1  0  0  0  0
  3 30  1  0  0  0  0
  3 31  1  0  0  0  0
  4  5  1  0  0  0  0
  4 22  1  0  0  0  0
  4 54  1  0  0  0  0
  5  6  1  0  0  0  0
  5 32  1  0  0  0  0
  5 33  1  0  0  0  0
  6  7  1  0  0  0  0
  6 34  1  0  0  0  0
  6 35  1  0  0  0  0
  7  8  1  0  0  0  0
  8  9  2  0  0  0  0
  8 10  1  0  0  0  0
 10 11  1  0  0  0  0
 10 36  1  0  0  0  0
 11 16  1  0  0  0  0
 11 12  2  0  0  0  0
 12 13  1  0  0  0  0
 12 37  1  0  0  0  0
 13 14  2  0  0  0  0
 13 38  1  0  0  0  0
 14 15  1  0  0  0  0
 14 39  1  0  0  0  0
 15 16  2  0  0  0  0
 15 55  1  0  0  0  0
 16 17  1  0  0  0  0
 17 21  1  0  0  0  0
 17 18  1  0  0  0  0
 18 19  1  0  0  0  0
 18 40  1  0  0  0  0
 18 41  1  0  0  0  0
 19 20  1  0  0  0  0
 19 42  1  0  0  0  0
 19 43  1  0  0  0  0
 20 21  1  0  0  0  0
 20 44  1  0  0  0  0
 20 45  1  0  0  0  0
 21 46  1  0  0  0  0
 21 47  1  0  0  0  0
 22 23  1  0  0  0  0
 22 48  1  0  0  0  0
 22 49  1  0  0  0  0
 23 24  1  0  0  0  0
 23 25  1  0  0  0  0
 23 50  1  0  0  0  0
 24 51  1  0  0  0  0
 24 52  1  0  0  0  0
 24 53  1  0  0  0  0
M  CHG  1   4   1
M  CHG  1   7  -1
M  CHG  1  15   1
M  END
> <s_m_source_file>
AV-unprocessed.smi

> <i_m_source_file_index>
1244

> <i_lp_mmshare_version>
43012

> <i_f3d_flags>
0

> <s_epik_input>
W0NIM11bQ0BASF0xW0NIMl1OKFtDSDJdW0NASF0oTzEpW0NIM10pW0NIMl1bQ0gyXVtOSF1DKD1PKVtOSF1jMltjSF1bY0hdW2NIXW5jMk4zW0NIMl1bQ0gyXVtDSDJdW0NIMl0z

> <s_epik_cmdline>
J2VwaWtfcHl0aG9uJywgJy1waCcsICc3LjAnLCAnLXRuJywgJzgnLCAnLW1hJywgJzIwMCcsICctbWV0YWxfYmluZGluZycsICctaW1hZScsICc8aW5maWxlLm1hZT4nLCAnLW9tYWUnLCAnPG91dGZpbGUubWFlPic=

> <r_lp_tautomer_probability>
0.999994

> <r_epik_Ionization_Penalty>
8.60539

> <r_epik_Ionization_Penalty_Charging>
8.60539

> <r_epik_Ionization_Penalty_Neutral>
3.60441e-06

> <r_epik_State_Penalty>
8.59967

> <r_epik_Charging_Adjusted_Penalty>
17.2051

> <i_epik_Tot_Q>
1

> <i_epik_Tot_abs_Q>
3

> <r_epik_Metal_State_Penalty>
4.59489

> <b_epik_Metal_Only>
1

> <s_lp_Force_Field>
OPLS_2005

> <r_lp_Energy>
44.1273

> <b_lp_Chiralities_Consistent>
1

> <s_lp_Variant>
AV-unprocessed.smi:1244-16

> <Gold.Version>
5.8.1

> <Gold.Id.Protein>
6NUR|6NUR_protein|mol2

> <Gold.PLP.Fitness>
51.2968

> <Gold.PLP.PLP>
-37.0600

> <Gold.PLP.part.hbond>
-4.0000

> <Gold.PLP.part.metal>
0.0000

> <Gold.PLP.part.buried>
1.4831

> <Gold.PLP.part.nonpolar>
-34.3043

> <Gold.PLP.part.repulsive>
0.3078

> <Gold.PLP.ligand.clash>
3.3388

> <Gold.PLP.ligand.torsion>
1.1034

> <Gold.PLP.Chemscore.Hbond>
6.1920

> <Gold.PLP.Chemscore.CHOScore>
0.0000

> <Gold.PLP.Chemscore.Metal>
0.0000

> <Gold.Chemscore.Hbonds>
donor molecule, donor type, donor heavy atom, donor atom, acceptor molecule, acceptor atom, score
      L1  H     4    54       P1  7948  2.00
      L1  H    15    55       P1  8028  1.63
      P1  H  7997  8008       L1     9  0.88
      P1  H 10752 10763       L1     7  0.71

> <Gold.PLP.Chemscore.Internal.Correction>
1.2064

> <Gold.Rescore>
     Score         DG    S(hbond)    S(metal)    S(lipo)     H(rot)  DE(clash)    DE(int)     intcor
     17.80     -21.49       2.81        0.00      87.55       1.42       0.33       3.36       ----

> <Gold.Chemscore.Fitness>
17.8046

> <Gold.Chemscore.DG>
-21.4910

> <Gold.Chemscore.ZeroCoef>
-5.4800

> <Gold.Chemscore.Hbond>
2.8142

> <Gold.Chemscore.Metal>
0.0000

> <Gold.Chemscore.Lipo>
87.5470

> <Gold.Chemscore.Internal_Hbond>
0.0000

> <Gold.Chemscore.DEClash>
0.3256

> <Gold.Chemscore.DEInternal>
3.3608

> <Gold.Chemscore.Rot>
1.4185

> <Gold.Chemscore.Internal.Correction>
   9.000000E+99

> <Gold.Chemscore.Hbonds>
donor molecule, donor type, donor heavy atom, donor atom, acceptor molecule, acceptor atom, score
      L1  H     4    54       P1  7948  0.82
      L1  H    15    55       P1  8028  0.81
      P1  H  7997  8008       L1     9  0.86
      P1  H 10752 10763       L1     7  0.06

> <Gold.Chemscore.Hbond.Weighted>
-9.3993

> <Gold.Chemscore.Metal.Weighted>
-0.0000

> <Gold.Chemscore.Lipo.Weighted>
-10.2430

> <Gold.Chemscore.Internal_Hbond.Weighted>
0.0000

> <Gold.Chemscore.DEClash.Weighted>
0.3256

> <Gold.Chemscore.DEInternal.Weighted>
3.3608

> <Gold.Chemscore.Rot.Weighted>
3.6313

> <Gold.Chemscore.Internal.Correction.Weighted>
   9.000000E+99

> <Gold.Protein.RotatedTorsions>
[ 6907 6896 6895 6894 ] final   12.35 input  -60.11 | X-H torsion
[ 7974 7965 7964 7962 ] final   33.47 input  175.53 | X-H torsion
[ 8008 7997 7996 7995 ] final  -68.57 input   59.86 | X-H torsion
[ 10167 10162 10161 10158 ] final  -25.43 input  -65.29 | X-H torsion
[ 10718 10713 10712 10709 ] final -125.05 input   66.30 | X-H torsion
[ 10763 10752 10751 10750 ] final   91.19 input  -60.55 | X-H torsion
[ 11005 11000 10999 10996 ] final  -72.55 input  -57.11 | X-H torsion

> <Gold.Protein.ActiveResidues>
 VAL166  LYS551  ARG553  GLY616  TRP617  ASP618  TYR619  PRO620  LYS621  CYS622 
 ASP623  PHE694  ASN695  SER759  ASP760  ASP761  ALA762  ILE779  LEU786  VAL792 
 PHE793  MET794  SER795  GLU796  ALA797  LYS798  CYS799  TRP800  GLU811  SER814 

> <Gold.Protein.RotatedAtoms>
  151.7689  135.0791  160.0356 H   0  0  0  0  0  0  0  0  0  0  0  0  # atno 6907 bound_to 6896
  152.3302  133.5946  159.5813 H   0  0  0  0  0  0  0  0  0  0  0  0  # atno 6908 bound_to 6896
  150.7418  133.9795  159.3613 H   0  0  0  0  0  0  0  0  0  0  0  0  # atno 6909 bound_to 6896
  146.1418  139.6392  142.9158 H   0  0  0  0  0  0  0  0  0  0  0  0  # atno 7974 bound_to 7965
  154.4877  140.0870  156.7524 H   0  0  0  0  0  0  0  0  0  0  0  0  # atno 8008 bound_to 7997
  155.4309  140.3449  155.4262 H   0  0  0  0  0  0  0  0  0  0  0  0  # atno 8009 bound_to 7997
  156.1285  140.1494  156.9088 H   0  0  0  0  0  0  0  0  0  0  0  0  # atno 8010 bound_to 7997
  140.7286  143.4266  151.0867 H   0  0  0  0  0  0  0  0  0  0  0  0  # atno 10167 bound_to 10162
  156.1641  130.6622  151.0091 H   0  0  0  0  0  0  0  0  0  0  0  0  # atno 10718 bound_to 10713
  153.2056  135.4406  155.0319 H   0  0  0  0  0  0  0  0  0  0  0  0  # atno 10763 bound_to 10752
  154.8172  135.3320  154.7145 H   0  0  0  0  0  0  0  0  0  0  0  0  # atno 10764 bound_to 10752
  153.7587  135.6993  153.4985 H   0  0  0  0  0  0  0  0  0  0  0  0  # atno 10765 bound_to 10752
  141.1610  133.6850  156.7076 H   0  0  0  0  0  0  0  0  0  0  0  0  # atno 11005 bound_to 11000
  145.5029  141.0437  143.2530 LP  0  0  0  0  0  0  0  0  0  0  0  0  # atno 17320 bound_to 7965
  144.7801  139.6545  143.7158 LP  0  0  0  0  0  0  0  0  0  0  0  0  # atno 17321 bound_to 7965
  139.7918  143.8208  152.3152 LP  0  0  0  0  0  0  0  0  0  0  0  0  # atno 17342 bound_to 10162
  139.8194  144.7302  150.9592 LP  0  0  0  0  0  0  0  0  0  0  0  0  # atno 17343 bound_to 10162
  157.6755  131.0851  150.7505 LP  0  0  0  0  0  0  0  0  0  0  0  0  # atno 17370 bound_to 10713
  156.7567  130.4785  149.5445 LP  0  0  0  0  0  0  0  0  0  0  0  0  # atno 17371 bound_to 10713
  140.2911  134.8239  157.4018 LP  0  0  0  0  0  0  0  0  0  0  0  0  # atno 17394 bound_to 11000
  140.1346  134.5051  155.8079 LP  0  0  0  0  0  0  0  0  0  0  0  0  # atno 17395 bound_to 11000

$$$$
