AV-unprocessed.smi:1115|AV-procd|sdf|4802|dock9
  -GOLD-   22720 3353D 1   1.00000     0.00000
 Structure written by MMmdl.
 51 52  0  0  0  0  0  0  0  0  2 V2000
  151.2511  145.5192  159.8957 C   0  0  0  0  0  0  0  0  0  0  0  0
  151.8014  144.5240  158.9826 N   0  0  0  0  0  0  0  0  0  0  0  0
  151.5878  144.6477  157.5467 C   0  0  0  0  0  0  0  0  0  0  0  0
  152.4300  143.3704  159.4995 C   0  0  0  0  0  0  0  0  0  0  0  0
  152.7715  143.2208  160.8657 C   0  0  0  0  0  0  0  0  0  0  0  0
  153.3999  142.0385  161.3061 C   0  0  0  0  0  0  0  0  0  0  0  0
  153.6921  141.0114  160.3850 C   0  0  0  0  0  0  0  0  0  0  0  0
  154.3214  139.8399  160.8881 N   0  0  0  0  0  0  0  0  0  0  0  0
  155.2734  139.0785  160.3218 C   0  0  0  0  0  0  0  0  0  0  0  0
  155.7867  139.2780  159.2215 O   0  0  0  0  0  0  0  0  0  0  0  0
  155.6043  138.0541  161.1197 N   0  0  0  0  0  0  0  0  0  0  0  0
  156.5805  137.0086  160.8133 C   0  0  0  0  0  0  0  0  0  0  0  0
  155.9246  135.6089  160.6232 C   0  0  0  0  0  0  0  0  0  0  0  0
  154.6358  135.8347  159.7925 C   0  0  0  0  0  0  0  0  0  0  0  0
  156.8865  134.7688  159.7488 C   0  0  0  0  0  0  0  0  0  0  0  0
  155.6131  134.9662  161.9314 N   0  0  0  0  0  0  0  0  0  0  0  0
  154.6784  135.7136  162.7807 C   0  0  0  0  0  0  0  0  0  0  0  0
  154.4970  135.0563  164.1596 C   0  0  0  0  0  0  0  0  0  0  0  0
  154.0600  133.7126  163.9974 O   0  0  0  0  0  0  0  0  0  0  0  0
  154.9697  132.9356  163.2285 C   0  0  0  0  0  0  0  0  0  0  0  0
  155.1531  133.5752  161.8418 C   0  0  0  0  0  0  0  0  0  0  0  0
  153.3226  141.2035  159.0320 C   0  0  0  0  0  0  0  0  0  0  0  0
  152.7206  142.3518  158.6537 N   0  3  0  0  0  0  0  0  0  0  0  0
  152.0280  145.9053  160.5564 H   0  0  0  0  0  0  0  0  0  0  0  0
  150.4608  145.0820  160.5068 H   0  0  0  0  0  0  0  0  0  0  0  0
  150.8272  146.3645  159.3532 H   0  0  0  0  0  0  0  0  0  0  0  0
  150.9999  143.8088  157.1724 H   0  0  0  0  0  0  0  0  0  0  0  0
  152.5410  144.6693  157.0179 H   0  0  0  0  0  0  0  0  0  0  0  0
  151.0514  145.5649  157.3033 H   0  0  0  0  0  0  0  0  0  0  0  0
  152.5610  143.9951  161.5881 H   0  0  0  0  0  0  0  0  0  0  0  0
  153.6587  141.9267  162.3488 H   0  0  0  0  0  0  0  0  0  0  0  0
  154.0323  139.5606  161.8141 H   0  0  0  0  0  0  0  0  0  0  0  0
  155.1239  137.9690  162.0035 H   0  0  0  0  0  0  0  0  0  0  0  0
  157.1644  137.2756  159.9306 H   0  0  0  0  0  0  0  0  0  0  0  0
  157.3103  136.9901  161.6224 H   0  0  0  0  0  0  0  0  0  0  0  0
  154.8249  136.4663  158.9236 H   0  0  0  0  0  0  0  0  0  0  0  0
  153.8555  136.3177  160.3817 H   0  0  0  0  0  0  0  0  0  0  0  0
  154.2254  134.9019  159.4056 H   0  0  0  0  0  0  0  0  0  0  0  0
  157.0838  135.2655  158.7983 H   0  0  0  0  0  0  0  0  0  0  0  0
  156.4769  133.7875  159.5103 H   0  0  0  0  0  0  0  0  0  0  0  0
  157.8532  134.6166  160.2285 H   0  0  0  0  0  0  0  0  0  0  0  0
  155.0300  136.7307  162.9444 H   0  0  0  0  0  0  0  0  0  0  0  0
  153.7049  135.7879  162.2960 H   0  0  0  0  0  0  0  0  0  0  0  0
  155.4310  135.0777  164.7234 H   0  0  0  0  0  0  0  0  0  0  0  0
  153.7579  135.6028  164.7451 H   0  0  0  0  0  0  0  0  0  0  0  0
  155.9259  132.8594  163.7486 H   0  0  0  0  0  0  0  0  0  0  0  0
  154.5777  131.9233  163.1292 H   0  0  0  0  0  0  0  0  0  0  0  0
  154.2051  133.5254  161.3060 H   0  0  0  0  0  0  0  0  0  0  0  0
  155.8625  132.9646  161.2865 H   0  0  0  0  0  0  0  0  0  0  0  0
  153.4719  140.4929  158.2338 H   0  0  0  0  0  0  0  0  0  0  0  0
  152.4696  142.4569  157.6706 H   0  0  0  0  0  0  0  0  0  0  0  0
  1  2  1  0  0  0  0
  1 24  1  0  0  0  0
  1 25  1  0  0  0  0
  1 26  1  0  0  0  0
  2  3  1  0  0  0  0
  2  4  1  0  0  0  0
  3 27  1  0  0  0  0
  3 28  1  0  0  0  0
  3 29  1  0  0  0  0
  4 23  1  0  0  0  0
  4  5  2  0  0  0  0
  5  6  1  0  0  0  0
  5 30  1  0  0  0  0
  6  7  2  0  0  0  0
  6 31  1  0  0  0  0
  7  8  1  0  0  0  0
  7 22  1  0  0  0  0
  8  9  1  0  0  0  0
  8 32  1  0  0  0  0
  9 10  2  0  0  0  0
  9 11  1  0  0  0  0
 11 12  1  0  0  0  0
 11 33  1  0  0  0  0
 12 13  1  0  0  0  0
 12 34  1  0  0  0  0
 12 35  1  0  0  0  0
 13 14  1  0  0  0  0
 13 15  1  0  0  0  0
 13 16  1  0  0  0  0
 14 36  1  0  0  0  0
 14 37  1  0  0  0  0
 14 38  1  0  0  0  0
 15 39  1  0  0  0  0
 15 40  1  0  0  0  0
 15 41  1  0  0  0  0
 16 21  1  0  0  0  0
 16 17  1  0  0  0  0
 17 18  1  0  0  0  0
 17 42  1  0  0  0  0
 17 43  1  0  0  0  0
 18 19  1  0  0  0  0
 18 44  1  0  0  0  0
 18 45  1  0  0  0  0
 19 20  1  0  0  0  0
 20 21  1  0  0  0  0
 20 46  1  0  0  0  0
 20 47  1  0  0  0  0
 21 48  1  0  0  0  0
 21 49  1  0  0  0  0
 22 23  2  0  0  0  0
 22 50  1  0  0  0  0
 23 51  1  0  0  0  0
M  CHG  1  23   1
M  END
> <s_m_source_file>
AV-unprocessed.smi

> <i_m_source_file_index>
1115

> <i_lp_mmshare_version>
43012

> <i_f3d_flags>
0

> <s_epik_input>
W0NIM11OKFtDSDNdKWMxW2NIXVtjSF1jKFtjSF1uMSlbTkhdQyg9TylbTkhdW0NIMl1DKFtDSDNdKShbQ0gzXSlOMltDSDJdW0NIMl1PW0NIMl1bQ0gyXTI=

> <s_epik_cmdline>
J2VwaWtfcHl0aG9uJywgJy1waCcsICc3LjAnLCAnLXRuJywgJzgnLCAnLW1hJywgJzIwMCcsICctbWV0YWxfYmluZGluZycsICctaW1hZScsICc8aW5maWxlLm1hZT4nLCAnLW9tYWUnLCAnPG91dGZpbGUubWFlPic=

> <r_lp_tautomer_probability>
0.999994

> <r_epik_Ionization_Penalty>
0.525804

> <r_epik_Ionization_Penalty_Charging>
0.259793

> <r_epik_Ionization_Penalty_Neutral>
0.266011

> <r_epik_State_Penalty>
0.517093

> <r_epik_Charging_Adjusted_Penalty>
0.776886

> <i_epik_Tot_Q>
1

> <i_epik_Tot_abs_Q>
1

> <r_epik_Metal_State_Penalty>
0.804287

> <b_epik_Metal_Only>
0

> <s_lp_Force_Field>
OPLS_2005

> <r_lp_Energy>
49.9386

> <b_lp_Chiralities_Consistent>
1

> <s_lp_Variant>
AV-unprocessed.smi:1115-1

> <Gold.Version>
5.8.1

> <Gold.Id.Protein>
6NUR|6NUR_protein|mol2

> <Gold.PLP.Fitness>
41.4706

> <Gold.PLP.PLP>
-39.8029

> <Gold.PLP.part.hbond>
-0.9833

> <Gold.PLP.part.metal>
0.0000

> <Gold.PLP.part.buried>
-5.5277

> <Gold.PLP.part.nonpolar>
-32.7231

> <Gold.PLP.part.repulsive>
0.1430

> <Gold.PLP.ligand.clash>
0.0000

> <Gold.PLP.ligand.torsion>
0.7013

> <Gold.PLP.Chemscore.Hbond>
1.0000

> <Gold.PLP.Chemscore.CHOScore>
0.0000

> <Gold.PLP.Chemscore.Metal>
0.0000

> <Gold.Chemscore.Hbonds>
donor molecule, donor type, donor heavy atom, donor atom, acceptor molecule, acceptor atom, score
      P1  H  7997  8009       L1    10  1.00

> <Gold.PLP.Chemscore.Internal.Correction>
0.0703

> <Gold.Rescore>
     Score         DG    S(hbond)    S(metal)    S(lipo)     H(rot)  DE(clash)    DE(int)     intcor
     14.58     -15.57       0.99        0.00      89.49       1.44       0.06       0.93       ----

> <Gold.Chemscore.Fitness>
14.5753

> <Gold.Chemscore.DG>
-15.5711

> <Gold.Chemscore.ZeroCoef>
-5.4800

> <Gold.Chemscore.Hbond>
0.9937

> <Gold.Chemscore.Metal>
0.0000

> <Gold.Chemscore.Lipo>
89.4909

> <Gold.Chemscore.Internal_Hbond>
0.0000

> <Gold.Chemscore.DEClash>
0.0616

> <Gold.Chemscore.DEInternal>
0.9342

> <Gold.Chemscore.Rot>
1.4447

> <Gold.Chemscore.Internal.Correction>
   9.000000E+99

> <Gold.Chemscore.Hbonds>
donor molecule, donor type, donor heavy atom, donor atom, acceptor molecule, acceptor atom, score
      P1  H  7997  8009       L1    10  0.93

> <Gold.Chemscore.Hbond.Weighted>
-3.3191

> <Gold.Chemscore.Metal.Weighted>
-0.0000

> <Gold.Chemscore.Lipo.Weighted>
-10.4704

> <Gold.Chemscore.Internal_Hbond.Weighted>
0.0000

> <Gold.Chemscore.DEClash.Weighted>
0.0616

> <Gold.Chemscore.DEInternal.Weighted>
0.9342

> <Gold.Chemscore.Rot.Weighted>
3.6985

> <Gold.Chemscore.Internal.Correction.Weighted>
   9.000000E+99

> <Gold.Protein.RotatedTorsions>
[ 6907 6896 6895 6894 ] final  157.69 input  -60.11 | X-H torsion
[ 7974 7965 7964 7962 ] final  -97.78 input  175.53 | X-H torsion
[ 8008 7997 7996 7995 ] final   99.58 input   59.86 | X-H torsion
[ 10167 10162 10161 10158 ] final   97.00 input  -65.29 | X-H torsion
[ 10718 10713 10712 10709 ] final    1.50 input   66.30 | X-H torsion
[ 10763 10752 10751 10750 ] final -179.92 input  -60.55 | X-H torsion
[ 11005 11000 10999 10996 ] final  127.71 input  -57.11 | X-H torsion

> <Gold.Protein.ActiveResidues>
 VAL166  LYS551  ARG553  GLY616  TRP617  ASP618  TYR619  PRO620  LYS621  CYS622 
 ASP623  PHE694  ASN695  SER759  ASP760  ASP761  ALA762  ILE779  LEU786  VAL792 
 PHE793  MET794  SER795  GLU796  ALA797  LYS798  CYS799  TRP800  GLU811  SER814 

> <Gold.Protein.RotatedAtoms>
  152.0115  133.3863  159.4221 H   0  0  0  0  0  0  0  0  0  0  0  0  # atno 6907 bound_to 6896
  150.6899  134.3725  159.5008 H   0  0  0  0  0  0  0  0  0  0  0  0  # atno 6908 bound_to 6896
  152.1487  134.9005  160.0600 H   0  0  0  0  0  0  0  0  0  0  0  0  # atno 6909 bound_to 6896
  145.3292  140.9438  143.2671 H   0  0  0  0  0  0  0  0  0  0  0  0  # atno 7974 bound_to 7965
  156.1119  140.3226  155.8084 H   0  0  0  0  0  0  0  0  0  0  0  0  # atno 8008 bound_to 7997
  155.4658  140.0543  157.3003 H   0  0  0  0  0  0  0  0  0  0  0  0  # atno 8009 bound_to 7997
  154.4766  140.2035  155.9878 H   0  0  0  0  0  0  0  0  0  0  0  0  # atno 8010 bound_to 7997
  139.7842  144.6877  150.9981 H   0  0  0  0  0  0  0  0  0  0  0  0  # atno 10167 bound_to 10162
  156.8492  130.5548  149.5671 H   0  0  0  0  0  0  0  0  0  0  0  0  # atno 10718 bound_to 10713
  154.5289  135.2798  155.1197 H   0  0  0  0  0  0  0  0  0  0  0  0  # atno 10763 bound_to 10752
  154.2725  135.6301  153.5319 H   0  0  0  0  0  0  0  0  0  0  0  0  # atno 10764 bound_to 10752
  152.9952  135.5632  154.5797 H   0  0  0  0  0  0  0  0  0  0  0  0  # atno 10765 bound_to 10752
  139.9522  134.9620  156.8895 H   0  0  0  0  0  0  0  0  0  0  0  0  # atno 11005 bound_to 11000
  144.8877  139.4816  143.6692 LP  0  0  0  0  0  0  0  0  0  0  0  0  # atno 17320 bound_to 7965
  146.3052  139.7556  142.9061 LP  0  0  0  0  0  0  0  0  0  0  0  0  # atno 17321 bound_to 7965
  140.7819  143.4450  151.0496 LP  0  0  0  0  0  0  0  0  0  0  0  0  # atno 17342 bound_to 10162
  139.8129  143.7925  152.3172 LP  0  0  0  0  0  0  0  0  0  0  0  0  # atno 17343 bound_to 10162
  156.0838  130.5841  150.9610 LP  0  0  0  0  0  0  0  0  0  0  0  0  # atno 17370 bound_to 10713
  157.6313  131.0921  150.8436 LP  0  0  0  0  0  0  0  0  0  0  0  0  # atno 17371 bound_to 10713
  140.5692  134.0459  155.7425 LP  0  0  0  0  0  0  0  0  0  0  0  0  # atno 17394 bound_to 11000
  141.1187  133.9497  157.2772 LP  0  0  0  0  0  0  0  0  0  0  0  0  # atno 17395 bound_to 11000

$$$$
