AV-unprocessed.smi:907|AV-procd|sdf|4113|dock2
  -GOLD-   22720 2 13D 1   1.00000     0.00000
 Structure written by MMmdl.
 54 57  0  0  0  0  0  0  0  0  3 V2000
  149.9626  139.7545  154.2550 O   0  0  0  0  0  0  0  0  0  0  0  0
  149.1536  140.6692  154.4156 C   0  0  0  0  0  0  0  0  0  0  0  0
  149.3723  141.6716  155.2844 N   0  0  0  0  0  0  0  0  0  0  0  0
  150.5783  141.8315  156.0901 C   0  0  0  0  0  0  0  0  0  0  0  0
  150.2586  141.8695  157.5943 C   0  0  0  0  0  0  0  0  0  0  0  0
  151.0369  142.9504  158.3190 C   0  0  0  0  0  0  0  0  0  0  0  0
  151.9446  142.6498  159.3578 C   0  0  0  0  0  0  0  0  0  0  0  0
  152.6435  143.7002  159.9883 C   0  0  0  0  0  0  0  0  0  0  0  0
  152.4219  145.0277  159.5664 C   0  0  0  0  0  0  0  0  0  0  0  0
  151.5056  145.2709  158.5227 C   0  0  0  0  0  0  0  0  0  0  0  0
  150.8551  144.2375  157.9437 N   0  3  0  0  0  0  0  0  0  0  0  0
  147.9502  140.7114  153.7916 N   0  0  0  0  0  0  0  0  0  0  0  0
  147.4963  139.8041  152.7293 C   0  0  0  0  0  0  0  0  0  0  0  0
  146.4847  138.8014  153.3179 C   0  0  0  0  0  0  0  0  0  0  0  0
  145.3480  139.4889  153.9968 N   0  3  0  0  0  0  0  0  0  0  0  0
  144.3589  138.5437  154.5912 C   0  0  1  0  0  0  0  0  0  0  0  0
  143.0426  139.2085  155.0650 C   0  0  0  0  0  0  0  0  0  0  0  0
  141.9541  138.3250  154.4271 C   0  0  1  0  0  0  0  0  0  0  0  0
  141.8660  138.6549  152.9274 C   0  0  0  0  0  0  0  0  0  0  0  0
  143.1730  138.0572  152.3774 C   0  0  0  0  0  0  0  0  0  0  0  0
  143.8315  137.4454  153.6336 C   0  0  2  0  0  0  0  0  0  0  0  0
  142.6123  136.9508  154.4049 C   0  0  0  0  0  0  0  0  0  0  0  0
  145.8161  140.5165  154.9707 C   0  0  0  0  0  0  0  0  0  0  0  0
  146.8270  141.4822  154.3287 C   0  0  0  0  0  0  0  0  0  0  0  0
  148.6540  142.3732  155.3912 H   0  0  0  0  0  0  0  0  0  0  0  0
  151.2791  141.0243  155.8699 H   0  0  0  0  0  0  0  0  0  0  0  0
  151.0683  142.7576  155.7883 H   0  0  0  0  0  0  0  0  0  0  0  0
  149.1916  142.0361  157.7473 H   0  0  0  0  0  0  0  0  0  0  0  0
  150.4871  140.9073  158.0550 H   0  0  0  0  0  0  0  0  0  0  0  0
  152.1061  141.6274  159.6678 H   0  0  0  0  0  0  0  0  0  0  0  0
  153.3423  143.4897  160.7850 H   0  0  0  0  0  0  0  0  0  0  0  0
  152.9479  145.8463  160.0358 H   0  0  0  0  0  0  0  0  0  0  0  0
  151.2754  146.2530  158.1361 H   0  0  0  0  0  0  0  0  0  0  0  0
  147.0216  140.3903  151.9408 H   0  0  0  0  0  0  0  0  0  0  0  0
  148.3041  139.2599  152.2405 H   0  0  0  0  0  0  0  0  0  0  0  0
  146.1178  138.1680  152.5109 H   0  0  0  0  0  0  0  0  0  0  0  0
  146.9871  138.1469  154.0321 H   0  0  0  0  0  0  0  0  0  0  0  0
  144.8344  138.0541  155.4436 H   0  0  0  0  0  0  0  0  0  0  0  0
  142.9766  139.1899  156.1535 H   0  0  0  0  0  0  0  0  0  0  0  0
  142.9353  140.2451  154.7439 H   0  0  0  0  0  0  0  0  0  0  0  0
  140.9936  138.3708  154.9411 H   0  0  0  0  0  0  0  0  0  0  0  0
  141.0010  138.1696  152.4729 H   0  0  0  0  0  0  0  0  0  0  0  0
  141.7842  139.7262  152.7393 H   0  0  0  0  0  0  0  0  0  0  0  0
  142.9548  137.2822  151.6416 H   0  0  0  0  0  0  0  0  0  0  0  0
  143.7981  138.8052  151.8896 H   0  0  0  0  0  0  0  0  0  0  0  0
  144.5594  136.6644  153.4119 H   0  0  0  0  0  0  0  0  0  0  0  0
  142.8503  136.5685  155.3993 H   0  0  0  0  0  0  0  0  0  0  0  0
  142.0313  136.2011  153.8642 H   0  0  0  0  0  0  0  0  0  0  0  0
  144.9766  141.0936  155.3565 H   0  0  0  0  0  0  0  0  0  0  0  0
  146.2748  140.0200  155.8276 H   0  0  0  0  0  0  0  0  0  0  0  0
  147.1429  142.2329  155.0548 H   0  0  0  0  0  0  0  0  0  0  0  0
  146.3516  142.0390  153.5194 H   0  0  0  0  0  0  0  0  0  0  0  0
  144.8569  139.9923  153.2719 H   0  0  0  0  0  0  0  0  0  0  0  0
  150.1968  144.4377  157.1903 H   0  0  0  0  0  0  0  0  0  0  0  0
  1  2  2  0  0  0  0
  2  3  1  0  0  0  0
  2 12  1  0  0  0  0
  3  4  1  0  0  0  0
  3 25  1  0  0  0  0
  4  5  1  0  0  0  0
  4 26  1  0  0  0  0
  4 27  1  0  0  0  0
  5  6  1  0  0  0  0
  5 28  1  0  0  0  0
  5 29  1  0  0  0  0
  6 11  1  0  0  0  0
  6  7  2  0  0  0  0
  7  8  1  0  0  0  0
  7 30  1  0  0  0  0
  8  9  2  0  0  0  0
  8 31  1  0  0  0  0
  9 10  1  0  0  0  0
  9 32  1  0  0  0  0
 10 11  2  0  0  0  0
 10 33  1  0  0  0  0
 11 54  1  0  0  0  0
 12 24  1  0  0  0  0
 12 13  1  0  0  0  0
 13 14  1  0  0  0  0
 13 34  1  0  0  0  0
 13 35  1  0  0  0  0
 14 15  1  0  0  0  0
 14 36  1  0  0  0  0
 14 37  1  0  0  0  0
 15 16  1  0  0  0  0
 15 23  1  0  0  0  0
 15 53  1  0  0  0  0
 16 21  1  0  0  0  0
 16 17  1  0  0  0  0
 16 38  1  0  0  0  0
 17 18  1  0  0  0  0
 17 39  1  0  0  0  0
 17 40  1  0  0  0  0
 18 22  1  0  0  0  0
 18 19  1  0  0  0  0
 18 41  1  0  0  0  0
 19 20  1  0  0  0  0
 19 42  1  0  0  0  0
 19 43  1  0  0  0  0
 20 21  1  0  0  0  0
 20 44  1  0  0  0  0
 20 45  1  0  0  0  0
 21 22  1  0  0  0  0
 21 46  1  0  0  0  0
 22 47  1  0  0  0  0
 22 48  1  0  0  0  0
 23 24  1  0  0  0  0
 23 49  1  0  0  0  0
 23 50  1  0  0  0  0
 24 51  1  0  0  0  0
 24 52  1  0  0  0  0
M  CHG  1  11   1
M  CHG  1  15   1
M  END
> <s_m_source_file>
AV-unprocessed.smi

> <i_m_source_file_index>
907

> <i_lp_mmshare_version>
43012

> <i_f3d_flags>
0

> <s_epik_input>
W0NIMl0xW0NIMl1bQ0BASF0oW0NIMl0yKVtDQEBIXShbQ0gyXVtDQEhdMTIpTihbQ0gyXVtDSDJdMylbQ0gyXVtDSDJdTjNDKD1PKVtOSF1bQ0gyXVtDSDJdYzRbY0hdW2NIXVtjSF1bY0hdbjQ=

> <s_epik_cmdline>
J2VwaWtfcHl0aG9uJywgJy1waCcsICc3LjAnLCAnLXRuJywgJzgnLCAnLW1hJywgJzIwMCcsICctbWV0YWxfYmluZGluZycsICctaW1hZScsICc8aW5maWxlLm1hZT4nLCAnLW9tYWUnLCAnPG91dGZpbGUubWFlPic=

> <r_epik_Ionization_Penalty>
1.63018

> <r_epik_Ionization_Penalty_Charging>
1.63015

> <r_epik_Ionization_Penalty_Neutral>
2.64641e-05

> <r_epik_State_Penalty>
1.72761

> <r_epik_Charging_Adjusted_Penalty>
3.35777

> <i_epik_Tot_Q>
2

> <i_epik_Tot_abs_Q>
2

> <r_epik_Metal_State_Penalty>
1.76501

> <b_epik_Metal_Only>
0

> <s_lp_Force_Field>
OPLS_2005

> <r_lp_Energy>
102.542

> <b_lp_Chiralities_Consistent>
1

> <s_lp_Variant>
AV-unprocessed.smi:907-8

> <Gold.Version>
5.8.1

> <Gold.Id.Protein>
6NUR|6NUR_protein|mol2

> <Gold.PLP.Fitness>
53.8498

> <Gold.PLP.PLP>
-40.5812

> <Gold.PLP.part.hbond>
-4.0098

> <Gold.PLP.part.metal>
0.0000

> <Gold.PLP.part.buried>
-1.7831

> <Gold.PLP.part.nonpolar>
-35.1088

> <Gold.PLP.part.repulsive>
1.3029

> <Gold.PLP.ligand.clash>
0.8923

> <Gold.PLP.ligand.torsion>
0.4713

> <Gold.PLP.Chemscore.Hbond>
4.9920

> <Gold.PLP.Chemscore.CHOScore>
0.0000

> <Gold.PLP.Chemscore.Metal>
0.0000

> <Gold.Chemscore.Hbonds>
donor molecule, donor type, donor heavy atom, donor atom, acceptor molecule, acceptor atom, score
      L1  H     3    25       P1  8028  0.10
      L1  H    11    54       P1  8028  2.00
      L1  H    15    53       P1 10175  1.85
      P1  H  7989  7998       L1     1  0.73

> <Gold.PLP.Chemscore.Internal.Correction>
0.1276

> <Gold.Rescore>
     Score         DG    S(hbond)    S(metal)    S(lipo)     H(rot)  DE(clash)    DE(int)     intcor
     19.42     -22.74       2.44        0.00     109.84       1.46       2.84       0.48       ----

> <Gold.Chemscore.Fitness>
19.4152

> <Gold.Chemscore.DG>
-22.7364

> <Gold.Chemscore.ZeroCoef>
-5.4800

> <Gold.Chemscore.Hbond>
2.4360

> <Gold.Chemscore.Metal>
0.0000

> <Gold.Chemscore.Lipo>
109.8360

> <Gold.Chemscore.Internal_Hbond>
0.0000

> <Gold.Chemscore.DEClash>
2.8395

> <Gold.Chemscore.DEInternal>
0.4816

> <Gold.Chemscore.Rot>
1.4572

> <Gold.Chemscore.Internal.Correction>
   9.000000E+99

> <Gold.Chemscore.Hbonds>
donor molecule, donor type, donor heavy atom, donor atom, acceptor molecule, acceptor atom, score
      L1  H     3    25       P1  8028  0.11
      L1  H    11    54       P1  8028  0.58
      L1  H    15    53       P1 10175  0.88
      P1  H  7989  7998       L1     1  0.18

> <Gold.Chemscore.Hbond.Weighted>
-8.1361

> <Gold.Chemscore.Metal.Weighted>
-0.0000

> <Gold.Chemscore.Lipo.Weighted>
-12.8508

> <Gold.Chemscore.Internal_Hbond.Weighted>
0.0000

> <Gold.Chemscore.DEClash.Weighted>
2.8395

> <Gold.Chemscore.DEInternal.Weighted>
0.4816

> <Gold.Chemscore.Rot.Weighted>
3.7305

> <Gold.Chemscore.Internal.Correction.Weighted>
   9.000000E+99

> <Gold.Protein.RotatedTorsions>
[ 6907 6896 6895 6894 ] final   76.49 input  -60.11 | X-H torsion
[ 7974 7965 7964 7962 ] final  125.24 input  175.53 | X-H torsion
[ 8008 7997 7996 7995 ] final  102.60 input   59.86 | X-H torsion
[ 10167 10162 10161 10158 ] final   -6.63 input  -65.29 | X-H torsion
[ 10718 10713 10712 10709 ] final  -10.46 input   66.30 | X-H torsion
[ 10763 10752 10751 10750 ] final  -87.77 input  -60.55 | X-H torsion
[ 11005 11000 10999 10996 ] final  168.58 input  -57.11 | X-H torsion

> <Gold.Protein.ActiveResidues>
 VAL166  LYS551  ARG553  GLY616  TRP617  ASP618  TYR619  PRO620  LYS621  CYS622 
 ASP623  PHE694  ASN695  SER759  ASP760  ASP761  ALA762  ILE779  LEU786  VAL792 
 PHE793  MET794  SER795  GLU796  ALA797  LYS798  CYS799  TRP800  GLU811  SER814 

> <Gold.Protein.RotatedAtoms>
  152.5075  134.3961  159.9400 H   0  0  0  0  0  0  0  0  0  0  0  0  # atno 6907 bound_to 6896
  151.3923  133.3778  159.2730 H   0  0  0  0  0  0  0  0  0  0  0  0  # atno 6908 bound_to 6896
  150.9423  134.8852  159.7679 H   0  0  0  0  0  0  0  0  0  0  0  0  # atno 6909 bound_to 6896
  145.0752  139.3699  143.4937 H   0  0  0  0  0  0  0  0  0  0  0  0  # atno 7974 bound_to 7965
  156.1408  140.3178  155.8492 H   0  0  0  0  0  0  0  0  0  0  0  0  # atno 8008 bound_to 7997
  155.4158  140.0509  157.3046 H   0  0  0  0  0  0  0  0  0  0  0  0  # atno 8009 bound_to 7997
  154.4974  140.2116  155.9429 H   0  0  0  0  0  0  0  0  0  0  0  0  # atno 8010 bound_to 7997
  140.7003  143.6172  150.8647 H   0  0  0  0  0  0  0  0  0  0  0  0  # atno 10167 bound_to 10162
  156.6732  130.5015  149.5994 H   0  0  0  0  0  0  0  0  0  0  0  0  # atno 10718 bound_to 10713
  154.6373  135.5401  153.7748 H   0  0  0  0  0  0  0  0  0  0  0  0  # atno 10763 bound_to 10752
  153.0315  135.6450  154.1212 H   0  0  0  0  0  0  0  0  0  0  0  0  # atno 10764 bound_to 10752
  154.1139  135.2925  155.3204 H   0  0  0  0  0  0  0  0  0  0  0  0  # atno 10765 bound_to 10752
  140.2887  134.7691  157.3820 H   0  0  0  0  0  0  0  0  0  0  0  0  # atno 11005 bound_to 11000
  146.3530  140.0516  142.8635 LP  0  0  0  0  0  0  0  0  0  0  0  0  # atno 17320 bound_to 7965
  145.1244  140.9481  143.4581 LP  0  0  0  0  0  0  0  0  0  0  0  0  # atno 17321 bound_to 7965
  139.9894  143.5864  152.2915 LP  0  0  0  0  0  0  0  0  0  0  0  0  # atno 17342 bound_to 10162
  139.6513  144.7661  151.2142 LP  0  0  0  0  0  0  0  0  0  0  0  0  # atno 17343 bound_to 10162
  156.1923  130.6567  151.1075 LP  0  0  0  0  0  0  0  0  0  0  0  0  # atno 17370 bound_to 10713
  157.7070  131.0752  150.6633 LP  0  0  0  0  0  0  0  0  0  0  0  0  # atno 17371 bound_to 10713
  140.1216  134.5213  155.8179 LP  0  0  0  0  0  0  0  0  0  0  0  0  # atno 17394 bound_to 11000
  141.2150  133.6758  156.6875 LP  0  0  0  0  0  0  0  0  0  0  0  0  # atno 17395 bound_to 11000

$$$$
