AV-unprocessed.smi:2032|AV-procd|sdf|8239|dock1
  -GOLD-   2272010503D 1   1.00000     0.00000
 Structure written by MMmdl.
 43 44  0  0  0  0  0  0  0  0  2 V2000
  151.6296  138.4509  154.2082 C   0  0  0  0  0  0  0  0  0  0  0  0
  150.4310  139.2953  154.6551 C   0  0  2  0  0  0  0  0  0  0  0  0
  149.1384  138.8949  153.9240 C   0  0  0  0  0  0  0  0  0  0  0  0
  148.0053  139.7679  154.3293 N   0  3  2  0  0  0  0  0  0  0  0  0
  146.6935  139.3007  153.7703 C   0  0  1  0  0  0  0  0  0  0  0  0
  146.7135  139.4219  152.2297 C   0  0  0  0  0  0  0  0  0  0  0  0
  146.3004  137.8618  154.2070 C   0  0  0  0  0  0  0  0  0  0  0  0
  146.7273  136.8382  153.2551 N   0  0  0  0  0  0  0  0  0  0  0  0
  145.9830  135.8019  152.8413 C   0  0  0  0  0  0  0  0  0  0  0  0
  144.8395  135.5854  153.2431 O   0  0  0  0  0  0  0  0  0  0  0  0
  146.6503  135.0468  151.9513 N   0  0  0  0  0  0  0  0  0  0  0  0
  146.2151  133.8580  151.3085 C   0  0  0  0  0  0  0  0  0  0  0  0
  147.0347  132.9073  150.8450 N   0  0  0  0  0  0  0  0  0  0  0  0
  146.3338  131.8526  150.2546 C   0  0  0  0  0  0  0  0  0  0  0  0
  144.9714  132.0185  150.2770 C   0  0  0  0  0  0  0  0  0  0  0  0
  144.5117  133.5142  151.0457 S   0  0  0  0  0  0  0  0  0  0  0  0
  148.3627  141.1891  154.0658 C   0  0  0  0  0  0  0  0  0  0  0  0
  149.6981  141.5750  154.7348 C   0  0  1  0  0  0  0  0  0  0  0  0
  149.5925  141.7521  156.2604 C   0  0  0  0  0  0  0  0  0  0  0  0
  150.7262  140.6577  154.3688 O   0  0  0  0  0  0  0  0  0  0  0  0
  151.4622  137.3926  154.4107 H   0  0  0  0  0  0  0  0  0  0  0  0
  152.5354  138.7497  154.7365 H   0  0  0  0  0  0  0  0  0  0  0  0
  151.8158  138.5620  153.1396 H   0  0  0  0  0  0  0  0  0  0  0  0
  150.3048  139.1582  155.7291 H   0  0  0  0  0  0  0  0  0  0  0  0
  149.2819  138.9664  152.8443 H   0  0  0  0  0  0  0  0  0  0  0  0
  148.9249  137.8498  154.1413 H   0  0  0  0  0  0  0  0  0  0  0  0
  145.9180  139.9662  154.1537 H   0  0  0  0  0  0  0  0  0  0  0  0
  145.7401  139.1986  151.7940 H   0  0  0  0  0  0  0  0  0  0  0  0
  147.4363  138.7319  151.7927 H   0  0  0  0  0  0  0  0  0  0  0  0
  146.9692  140.4229  151.8877 H   0  0  0  0  0  0  0  0  0  0  0  0
  146.6861  137.6472  155.2055 H   0  0  0  0  0  0  0  0  0  0  0  0
  145.2166  137.7635  154.2650 H   0  0  0  0  0  0  0  0  0  0  0  0
  147.6560  136.9357  152.8711 H   0  0  0  0  0  0  0  0  0  0  0  0
  147.5809  135.3530  151.7086 H   0  0  0  0  0  0  0  0  0  0  0  0
  146.8862  131.0219  149.8412 H   0  0  0  0  0  0  0  0  0  0  0  0
  144.2136  131.3541  149.8892 H   0  0  0  0  0  0  0  0  0  0  0  0
  148.4333  141.3436  152.9879 H   0  0  0  0  0  0  0  0  0  0  0  0
  147.5969  141.8676  154.4401 H   0  0  0  0  0  0  0  0  0  0  0  0
  150.0024  142.5407  154.3297 H   0  0  0  0  0  0  0  0  0  0  0  0
  148.9046  142.5605  156.5092 H   0  0  0  0  0  0  0  0  0  0  0  0
  150.5623  142.0034  156.6900 H   0  0  0  0  0  0  0  0  0  0  0  0
  149.2277  140.8541  156.7581 H   0  0  0  0  0  0  0  0  0  0  0  0
  147.9195  139.6922  155.3330 H   0  0  0  0  0  0  0  0  0  0  0  0
  1  2  1  0  0  0  0
  1 21  1  0  0  0  0
  1 22  1  0  0  0  0
  1 23  1  0  0  0  0
  2 20  1  0  0  0  0
  2  3  1  0  0  0  0
  2 24  1  0  0  0  0
  3  4  1  0  0  0  0
  3 25  1  0  0  0  0
  3 26  1  0  0  0  0
  4  5  1  0  0  0  0
  4 17  1  0  0  0  0
  4 43  1  0  0  0  0
  5  6  1  0  0  0  0
  5  7  1  0  0  0  0
  5 27  1  0  0  0  0
  6 28  1  0  0  0  0
  6 29  1  0  0  0  0
  6 30  1  0  0  0  0
  7  8  1  0  0  0  0
  7 31  1  0  0  0  0
  7 32  1  0  0  0  0
  8  9  1  0  0  0  0
  8 33  1  0  0  0  0
  9 10  2  0  0  0  0
  9 11  1  0  0  0  0
 11 12  1  0  0  0  0
 11 34  1  0  0  0  0
 12 16  1  0  0  0  0
 12 13  2  0  0  0  0
 13 14  1  0  0  0  0
 14 15  2  0  0  0  0
 14 35  1  0  0  0  0
 15 16  1  0  0  0  0
 15 36  1  0  0  0  0
 17 18  1  0  0  0  0
 17 37  1  0  0  0  0
 17 38  1  0  0  0  0
 18 19  1  0  0  0  0
 18 20  1  0  0  0  0
 18 39  1  0  0  0  0
 19 40  1  0  0  0  0
 19 41  1  0  0  0  0
 19 42  1  0  0  0  0
M  CHG  1   4   1
M  END
> <s_m_source_file>
AV-unprocessed.smi

> <i_m_source_file_index>
2032

> <i_lp_mmshare_version>
43012

> <i_f3d_flags>
0

> <s_epik_input>
W0NIM11bQ0BASF0xW0NIMl1OKFtDSDJdW0NASF0oTzEpW0NIM10pW0NASF0oW0NIM10pW0NIMl1bTkhdQyg9TylbTkhdYzJuW2NIXVtjSF1zMg==

> <s_epik_cmdline>
J2VwaWtfcHl0aG9uJywgJy1waCcsICc3LjAnLCAnLXRuJywgJzgnLCAnLW1hJywgJzIwMCcsICctbWV0YWxfYmluZGluZycsICctaW1hZScsICc8aW5maWxlLm1hZT4nLCAnLW9tYWUnLCAnPG91dGZpbGUubWFlPic=

> <r_lp_tautomer_probability>
0.999

> <r_epik_Ionization_Penalty>
0.695838

> <r_epik_Ionization_Penalty_Charging>
0.695697

> <r_epik_Ionization_Penalty_Neutral>
0.000141198

> <r_epik_State_Penalty>
0.717972

> <r_epik_Charging_Adjusted_Penalty>
1.41367

> <i_epik_Tot_Q>
1

> <i_epik_Tot_abs_Q>
1

> <r_epik_Metal_State_Penalty>
0.756405

> <b_epik_Metal_Only>
0

> <s_lp_Force_Field>
OPLS_2005

> <r_lp_Energy>
21.3106

> <b_lp_Chiralities_Consistent>
1

> <s_lp_Variant>
AV-unprocessed.smi:2032-9

> <Gold.Version>
5.8.1

> <Gold.Id.Protein>
6NUR|6NUR_protein|mol2

> <Gold.PLP.Fitness>
44.8552

> <Gold.PLP.PLP>
-34.8808

> <Gold.PLP.part.hbond>
-3.0000

> <Gold.PLP.part.metal>
0.0000

> <Gold.PLP.part.buried>
-3.2812

> <Gold.PLP.part.nonpolar>
-29.5122

> <Gold.PLP.part.repulsive>
0.6309

> <Gold.PLP.ligand.clash>
0.0000

> <Gold.PLP.ligand.torsion>
0.6666

> <Gold.PLP.Chemscore.Hbond>
3.0000

> <Gold.PLP.Chemscore.CHOScore>
0.7545

> <Gold.PLP.Chemscore.Metal>
0.0000

> <Gold.Chemscore.Hbonds>
donor molecule, donor type, donor heavy atom, donor atom, acceptor molecule, acceptor atom, score
      L1  H     8    33       P1  7948  0.96
      L1  H    11    34       P1  7948  1.00
      P1  H  7989  7998       L1    20  0.32
      L1  C    14    35       P1 10747  0.80

> <Gold.PLP.Chemscore.Internal.Correction>
0.0440

> <Gold.Rescore>
     Score         DG    S(hbond)    S(metal)    S(lipo)     H(rot)  DE(clash)    DE(int)     intcor
     19.31     -20.22       2.69        0.00      84.57       1.61       0.18       0.73       ----

> <Gold.Chemscore.Fitness>
19.3069

> <Gold.Chemscore.DG>
-20.2191

> <Gold.Chemscore.ZeroCoef>
-5.4800

> <Gold.Chemscore.Hbond>
2.6853

> <Gold.Chemscore.Metal>
0.0000

> <Gold.Chemscore.Lipo>
84.5668

> <Gold.Chemscore.Internal_Hbond>
0.0000

> <Gold.Chemscore.DEClash>
0.1798

> <Gold.Chemscore.DEInternal>
0.7324

> <Gold.Chemscore.Rot>
1.6110

> <Gold.Chemscore.Internal.Correction>
   9.000000E+99

> <Gold.Chemscore.Hbonds>
donor molecule, donor type, donor heavy atom, donor atom, acceptor molecule, acceptor atom, score
      L1  H     8    33       P1  7948  0.92
      L1  H    11    34       P1  7948  0.90
      P1  H  7989  7998       L1    20  0.30

> <Gold.Chemscore.Hbond.Weighted>
-8.9689

> <Gold.Chemscore.Metal.Weighted>
-0.0000

> <Gold.Chemscore.Lipo.Weighted>
-9.8943

> <Gold.Chemscore.Internal_Hbond.Weighted>
0.0000

> <Gold.Chemscore.DEClash.Weighted>
0.1798

> <Gold.Chemscore.DEInternal.Weighted>
0.7324

> <Gold.Chemscore.Rot.Weighted>
4.1242

> <Gold.Chemscore.Internal.Correction.Weighted>
   9.000000E+99

> <Gold.Protein.RotatedTorsions>
[ 6907 6896 6895 6894 ] final   53.72 input  -60.11 | X-H torsion
[ 7974 7965 7964 7962 ] final  152.24 input  175.53 | X-H torsion
[ 8008 7997 7996 7995 ] final -163.01 input   59.86 | X-H torsion
[ 10167 10162 10161 10158 ] final   23.99 input  -65.29 | X-H torsion
[ 10718 10713 10712 10709 ] final  -41.96 input   66.30 | X-H torsion
[ 10763 10752 10751 10750 ] final -150.27 input  -60.55 | X-H torsion
[ 11005 11000 10999 10996 ] final  -50.77 input  -57.11 | X-H torsion

> <Gold.Protein.ActiveResidues>
 VAL166  LYS551  ARG553  GLY616  TRP617  ASP618  TYR619  PRO620  LYS621  CYS622 
 ASP623  PHE694  ASN695  SER759  ASP760  ASP761  ALA762  ILE779  LEU786  VAL792 
 PHE793  MET794  SER795  GLU796  ALA797  LYS798  CYS799  TRP800  GLU811  SER814 

> <Gold.Protein.RotatedAtoms>
  152.3366  134.7190  160.0275 H   0  0  0  0  0  0  0  0  0  0  0  0  # atno 6907 bound_to 6896
  151.7589  133.3327  159.3420 H   0  0  0  0  0  0  0  0  0  0  0  0  # atno 6908 bound_to 6896
  150.7454  134.6056  159.6104 H   0  0  0  0  0  0  0  0  0  0  0  0  # atno 6909 bound_to 6896
  144.8236  139.6643  143.6090 H   0  0  0  0  0  0  0  0  0  0  0  0  # atno 7974 bound_to 7965
  155.8152  140.0911  157.1881 H   0  0  0  0  0  0  0  0  0  0  0  0  # atno 8008 bound_to 7997
  154.3979  140.1447  156.3493 H   0  0  0  0  0  0  0  0  0  0  0  0  # atno 8009 bound_to 7997
  155.8324  140.3442  155.5583 H   0  0  0  0  0  0  0  0  0  0  0  0  # atno 8010 bound_to 7997
  140.5225  143.9979  150.6424 H   0  0  0  0  0  0  0  0  0  0  0  0  # atno 10167 bound_to 10162
  156.2647  130.4200  149.8503 H   0  0  0  0  0  0  0  0  0  0  0  0  # atno 10718 bound_to 10713
  154.8128  135.3288  154.7258 H   0  0  0  0  0  0  0  0  0  0  0  0  # atno 10763 bound_to 10752
  153.7904  135.6911  153.4877 H   0  0  0  0  0  0  0  0  0  0  0  0  # atno 10764 bound_to 10752
  153.1921  135.4547  155.0108 H   0  0  0  0  0  0  0  0  0  0  0  0  # atno 10765 bound_to 10752
  141.0835  133.6648  156.3780 H   0  0  0  0  0  0  0  0  0  0  0  0  # atno 11005 bound_to 11000
  146.2541  139.6264  142.9407 LP  0  0  0  0  0  0  0  0  0  0  0  0  # atno 17320 bound_to 7965
  145.5050  141.0437  143.2519 LP  0  0  0  0  0  0  0  0  0  0  0  0  # atno 17321 bound_to 7965
  140.3332  143.3065  152.0666 LP  0  0  0  0  0  0  0  0  0  0  0  0  # atno 17342 bound_to 10162
  139.4928  144.6495  151.6707 LP  0  0  0  0  0  0  0  0  0  0  0  0  # atno 17343 bound_to 10162
  156.6006  130.8545  151.3431 LP  0  0  0  0  0  0  0  0  0  0  0  0  # atno 17370 bound_to 10713
  157.7263  130.9627  150.1650 LP  0  0  0  0  0  0  0  0  0  0  0  0  # atno 17371 bound_to 10713
  140.5416  134.6114  157.5381 LP  0  0  0  0  0  0  0  0  0  0  0  0  # atno 17394 bound_to 11000
  139.9650  134.7388  156.0157 LP  0  0  0  0  0  0  0  0  0  0  0  0  # atno 17395 bound_to 11000

$$$$
