AV-unprocessed.smi:1459|AV-procd|sdf|5924|dock9
  -GOLD-   22720 6 03D 1   1.00000     0.00000
 Structure written by MMmdl.
 34 35  0  0  0  0  0  0  0  0  1 V2000
  143.8223  132.7311  150.2508 C   0  0  0  0  0  0  0  0  0  0  0  0
  144.3397  133.9011  151.0150 C   0  0  0  0  0  0  0  0  0  0  0  0
  145.5700  134.4908  151.0935 C   0  0  0  0  0  0  0  0  0  0  0  0
  145.3564  135.5564  152.0079 C   0  0  0  0  0  0  0  0  0  0  0  0
  146.4142  136.4306  152.3671 N   0  0  0  0  0  0  0  0  0  0  0  0
  146.3294  137.5782  153.0613 C   0  0  0  0  0  0  0  0  0  0  0  0
  145.2883  138.0602  153.5080 O   0  0  0  0  0  0  0  0  0  0  0  0
  147.5374  138.1407  153.2167 N   0  0  0  0  0  0  0  0  0  0  0  0
  147.8177  139.3922  153.9195 C   0  0  2  0  0  0  0  0  0  0  0  0
  147.1002  140.5384  153.1916 C   0  0  0  0  0  0  0  0  0  0  0  0
  149.3393  139.6322  154.0090 C   0  0  2  0  0  0  0  0  0  0  0  0
  150.1267  138.5353  154.7296 C   0  0  0  0  0  0  0  0  0  0  0  0
  151.3601  139.2860  155.1753 C   0  0  0  0  0  0  0  0  0  0  0  0
  150.7730  140.6381  155.5671 C   0  0  0  0  0  0  0  0  0  0  0  0
  149.6179  140.8179  154.7514 O   0  0  0  0  0  0  0  0  0  0  0  0
  144.1086  135.6121  152.4479 N   0  0  0  0  0  0  0  0  0  0  0  0
  143.4506  134.5518  151.8134 O   0  0  0  0  0  0  0  0  0  0  0  0
  144.5876  132.3303  149.5858 H   0  0  0  0  0  0  0  0  0  0  0  0
  142.9630  133.0150  149.6432 H   0  0  0  0  0  0  0  0  0  0  0  0
  143.5112  131.9350  150.9274 H   0  0  0  0  0  0  0  0  0  0  0  0
  146.4745  134.2035  150.5783 H   0  0  0  0  0  0  0  0  0  0  0  0
  147.3351  136.1516  152.0635 H   0  0  0  0  0  0  0  0  0  0  0  0
  148.3327  137.6650  152.8164 H   0  0  0  0  0  0  0  0  0  0  0  0
  147.4165  139.3462  154.9333 H   0  0  0  0  0  0  0  0  0  0  0  0
  147.2519  141.4884  153.7047 H   0  0  0  0  0  0  0  0  0  0  0  0
  146.0250  140.3614  153.1453 H   0  0  0  0  0  0  0  0  0  0  0  0
  147.4641  140.6515  152.1699 H   0  0  0  0  0  0  0  0  0  0  0  0
  149.7568  139.7650  153.0094 H   0  0  0  0  0  0  0  0  0  0  0  0
  149.5768  138.1746  155.6003 H   0  0  0  0  0  0  0  0  0  0  0  0
  150.3538  137.6815  154.0905 H   0  0  0  0  0  0  0  0  0  0  0  0
  151.8896  138.7974  155.9935 H   0  0  0  0  0  0  0  0  0  0  0  0
  152.0510  139.4021  154.3392 H   0  0  0  0  0  0  0  0  0  0  0  0
  150.4589  140.6284  156.6113 H   0  0  0  0  0  0  0  0  0  0  0  0
  151.4850  141.4533  155.4350 H   0  0  0  0  0  0  0  0  0  0  0  0
  1  2  1  0  0  0  0
  1 18  1  0  0  0  0
  1 19  1  0  0  0  0
  1 20  1  0  0  0  0
  2 17  1  0  0  0  0
  2  3  2  0  0  0  0
  3  4  1  0  0  0  0
  3 21  1  0  0  0  0
  4  5  1  0  0  0  0
  4 16  2  0  0  0  0
  5  6  1  0  0  0  0
  5 22  1  0  0  0  0
  6  7  2  0  0  0  0
  6  8  1  0  0  0  0
  8  9  1  0  0  0  0
  8 23  1  0  0  0  0
  9 10  1  0  0  0  0
  9 11  1  0  0  0  0
  9 24  1  0  0  0  0
 10 25  1  0  0  0  0
 10 26  1  0  0  0  0
 10 27  1  0  0  0  0
 11 15  1  0  0  0  0
 11 12  1  0  0  0  0
 11 28  1  0  0  0  0
 12 13  1  0  0  0  0
 12 29  1  0  0  0  0
 12 30  1  0  0  0  0
 13 14  1  0  0  0  0
 13 31  1  0  0  0  0
 13 32  1  0  0  0  0
 14 15  1  0  0  0  0
 14 33  1  0  0  0  0
 14 34  1  0  0  0  0
 16 17  1  0  0  0  0
M  END
> <s_m_source_file>
AV-unprocessed.smi

> <i_m_source_file_index>
1459

> <i_lp_mmshare_version>
43012

> <i_f3d_flags>
0

> <s_epik_input>
W0NIM11jMVtjSF1jKG5vMSlbTkhdQyg9TylbTkhdW0NASF0oW0NIM10pW0NAQEhdMltDSDJdW0NIMl1bQ0gyXU8y

> <s_epik_cmdline>
J2VwaWtfcHl0aG9uJywgJy1waCcsICc3LjAnLCAnLXRuJywgJzgnLCAnLW1hJywgJzIwMCcsICctbWV0YWxfYmluZGluZycsICctaW1hZScsICc8aW5maWxlLm1hZT4nLCAnLW9tYWUnLCAnPG91dGZpbGUubWFlPic=

> <r_lp_tautomer_probability>
1

> <r_epik_Ionization_Penalty>
2.20869e-05

> <r_epik_Ionization_Penalty_Charging>
0

> <r_epik_Ionization_Penalty_Neutral>
2.20869e-05

> <r_epik_State_Penalty>
-0

> <r_epik_Charging_Adjusted_Penalty>
0

> <i_epik_Tot_Q>
0

> <i_epik_Tot_abs_Q>
0

> <r_epik_Metal_State_Penalty>
-0

> <b_epik_Metal_Only>
0

> <s_lp_Force_Field>
OPLS_2005

> <r_lp_Energy>
15.5661

> <b_lp_Chiralities_Consistent>
1

> <s_lp_Variant>
AV-unprocessed.smi:1459-1

> <Gold.Version>
5.8.1

> <Gold.Id.Protein>
6NUR|6NUR_protein|mol2

> <Gold.PLP.Fitness>
33.0310

> <Gold.PLP.PLP>
-27.1880

> <Gold.PLP.part.hbond>
-2.5810

> <Gold.PLP.part.metal>
0.0000

> <Gold.PLP.part.buried>
-1.8853

> <Gold.PLP.part.nonpolar>
-24.0316

> <Gold.PLP.part.repulsive>
0.9593

> <Gold.PLP.ligand.clash>
0.0000

> <Gold.PLP.ligand.torsion>
0.0466

> <Gold.PLP.Chemscore.Hbond>
1.9760

> <Gold.PLP.Chemscore.CHOScore>
0.0000

> <Gold.PLP.Chemscore.Metal>
0.0000

> <Gold.Chemscore.Hbonds>
donor molecule, donor type, donor heavy atom, donor atom, acceptor molecule, acceptor atom, score
      L1  H     5    22       P1  7948  1.00
      L1  H     8    23       P1  7948  0.96

> <Gold.PLP.Chemscore.Internal.Correction>
0.0082

> <Gold.Rescore>
     Score         DG    S(hbond)    S(metal)    S(lipo)     H(rot)  DE(clash)    DE(int)     intcor
     13.74     -15.62       1.90        0.00      60.45       1.28       0.59       1.29       ----

> <Gold.Chemscore.Fitness>
13.7387

> <Gold.Chemscore.DG>
-15.6192

> <Gold.Chemscore.ZeroCoef>
-5.4800

> <Gold.Chemscore.Hbond>
1.8973

> <Gold.Chemscore.Metal>
0.0000

> <Gold.Chemscore.Lipo>
60.4517

> <Gold.Chemscore.Internal_Hbond>
0.0000

> <Gold.Chemscore.DEClash>
0.5884

> <Gold.Chemscore.DEInternal>
1.2921

> <Gold.Chemscore.Rot>
1.2776

> <Gold.Chemscore.Internal.Correction>
   9.000000E+99

> <Gold.Chemscore.Hbonds>
donor molecule, donor type, donor heavy atom, donor atom, acceptor molecule, acceptor atom, score
      L1  H     5    22       P1  7948  0.98
      L1  H     8    23       P1  7948  0.92

> <Gold.Chemscore.Hbond.Weighted>
-6.3371

> <Gold.Chemscore.Metal.Weighted>
-0.0000

> <Gold.Chemscore.Lipo.Weighted>
-7.0728

> <Gold.Chemscore.Internal_Hbond.Weighted>
0.0000

> <Gold.Chemscore.DEClash.Weighted>
0.5884

> <Gold.Chemscore.DEInternal.Weighted>
1.2921

> <Gold.Chemscore.Rot.Weighted>
3.2707

> <Gold.Chemscore.Internal.Correction.Weighted>
   9.000000E+99

> <Gold.Protein.RotatedTorsions>
[ 6907 6896 6895 6894 ] final  -74.98 input  -60.11 | X-H torsion
[ 7974 7965 7964 7962 ] final -113.83 input  175.53 | X-H torsion
[ 8008 7997 7996 7995 ] final -102.53 input   59.86 | X-H torsion
[ 10167 10162 10161 10158 ] final   77.94 input  -65.29 | X-H torsion
[ 10718 10713 10712 10709 ] final  -45.06 input   66.30 | X-H torsion
[ 10763 10752 10751 10750 ] final  -93.54 input  -60.55 | X-H torsion
[ 11005 11000 10999 10996 ] final   69.45 input  -57.11 | X-H torsion

> <Gold.Protein.ActiveResidues>
 VAL166  LYS551  ARG553  GLY616  TRP617  ASP618  TYR619  PRO620  LYS621  CYS622 
 ASP623  PHE694  ASN695  SER759  ASP760  ASP761  ALA762  ILE779  LEU786  VAL792 
 PHE793  MET794  SER795  GLU796  ALA797  LYS798  CYS799  TRP800  GLU811  SER814 

> <Gold.Protein.RotatedAtoms>
  150.7074  134.4788  159.5460 H   0  0  0  0  0  0  0  0  0  0  0  0  # atno 6907 bound_to 6896
  152.2429  134.8207  160.0466 H   0  0  0  0  0  0  0  0  0  0  0  0  # atno 6908 bound_to 6896
  151.8982  133.3496  159.3858 H   0  0  0  0  0  0  0  0  0  0  0  0  # atno 6909 bound_to 6896
  145.1274  140.8705  143.3778 H   0  0  0  0  0  0  0  0  0  0  0  0  # atno 7974 bound_to 7965
  154.8580  140.0428  157.1647 H   0  0  0  0  0  0  0  0  0  0  0  0  # atno 8008 bound_to 7997
  154.8871  140.2981  155.5371 H   0  0  0  0  0  0  0  0  0  0  0  0  # atno 8009 bound_to 7997
  156.2998  140.2400  156.3881 H   0  0  0  0  0  0  0  0  0  0  0  0  # atno 8010 bound_to 7997
  139.9763  144.5859  150.7940 H   0  0  0  0  0  0  0  0  0  0  0  0  # atno 10167 bound_to 10162
  156.2322  130.4173  149.8861 H   0  0  0  0  0  0  0  0  0  0  0  0  # atno 10718 bound_to 10713
  154.6969  135.5190  153.8471 H   0  0  0  0  0  0  0  0  0  0  0  0  # atno 10763 bound_to 10752
  153.0674  135.6589  154.0333 H   0  0  0  0  0  0  0  0  0  0  0  0  # atno 10764 bound_to 10752
  154.0198  135.2994  155.3362 H   0  0  0  0  0  0  0  0  0  0  0  0  # atno 10765 bound_to 10752
  139.9653  134.6992  156.0559 H   0  0  0  0  0  0  0  0  0  0  0  0  # atno 11005 bound_to 11000
  145.0673  139.3059  143.5850 LP  0  0  0  0  0  0  0  0  0  0  0  0  # atno 17320 bound_to 7965
  146.3516  140.0135  142.8665 LP  0  0  0  0  0  0  0  0  0  0  0  0  # atno 17321 bound_to 7965
  140.7505  143.2956  151.3214 LP  0  0  0  0  0  0  0  0  0  0  0  0  # atno 17342 bound_to 10162
  139.6443  144.0480  152.2579 LP  0  0  0  0  0  0  0  0  0  0  0  0  # atno 17343 bound_to 10162
  156.6472  130.8729  151.3525 LP  0  0  0  0  0  0  0  0  0  0  0  0  # atno 17370 bound_to 10713
  157.7138  130.9472  150.1182 LP  0  0  0  0  0  0  0  0  0  0  0  0  # atno 17371 bound_to 10713
  141.1332  133.6581  156.3522 LP  0  0  0  0  0  0  0  0  0  0  0  0  # atno 17394 bound_to 11000
  140.5411  134.6120  157.5380 LP  0  0  0  0  0  0  0  0  0  0  0  0  # atno 17395 bound_to 11000

$$$$
