AV-unprocessed.smi:101|AV-procd|sdf|942|dock5
  -GOLD-   2262017463D 1   1.00000     0.00000
 Structure written by MMmdl.
 43 45  0  0  0  0  0  0  0  0  2 V2000
  147.2500  136.8315  157.8486 C   0  0  0  0  0  0  0  0  0  0  0  0
  146.8067  138.2839  157.8438 C   0  0  0  0  0  0  0  0  0  0  0  0
  147.4958  139.2459  157.1911 C   0  0  0  0  0  0  0  0  0  0  0  0
  147.0861  140.5679  157.1880 N   0  0  0  0  0  0  0  0  0  0  0  0
  147.8682  141.6214  156.4360 C   0  0  1  0  0  0  0  0  0  0  0  0
  149.1768  141.6588  156.9302 O   0  0  0  0  0  0  0  0  0  0  0  0
  150.1120  141.5001  155.8690 C   0  0  1  0  0  0  0  0  0  0  0  0
  151.3685  140.7997  156.4016 C   0  0  0  0  0  0  0  0  0  0  0  0
  151.6886  141.3082  157.6861 O   0  0  0  0  0  0  0  0  0  0  0  0
  152.6192  140.6963  158.4428 C   0  0  0  0  0  0  0  0  0  0  0  0
  153.2290  139.6848  158.0896 O   0  0  0  0  0  0  0  0  0  0  0  0
  152.8343  141.3715  159.7550 C   0  0  0  0  0  0  0  0  0  0  0  0
  153.6914  140.7750  160.7093 C   0  0  0  0  0  0  0  0  0  0  0  0
  153.9138  141.3895  161.9570 C   0  0  0  0  0  0  0  0  0  0  0  0
  153.2835  142.6093  162.2649 C   0  0  0  0  0  0  0  0  0  0  0  0
  152.4299  143.2137  161.3236 C   0  0  0  0  0  0  0  0  0  0  0  0
  152.2050  142.6000  160.0758 C   0  0  0  0  0  0  0  0  0  0  0  0
  149.3414  140.7055  154.8146 C   0  0  2  0  0  0  0  0  0  0  0  0
  149.8685  140.8397  153.5082 O   0  0  0  0  0  0  0  0  0  0  0  0
  147.9312  141.2664  154.9423 C   0  0  2  0  0  0  0  0  0  0  0  0
  147.7209  142.4176  154.1446 O   0  0  0  0  0  0  0  0  0  0  0  0
  145.8884  140.9333  157.8556 C   0  0  0  0  0  0  0  0  0  0  0  0
  145.5247  142.1079  157.7908 O   0  0  0  0  0  0  0  0  0  0  0  0
  145.1919  139.9714  158.5256 N   0  5  0  0  0  0  0  0  0  0  0  0
  145.5860  138.6660  158.5642 C   0  0  0  0  0  0  0  0  0  0  0  0
  144.9505  137.8089  159.1775 O   0  0  0  0  0  0  0  0  0  0  0  0
  148.1681  136.6954  157.2768 H   0  0  0  0  0  0  0  0  0  0  0  0
  146.4803  136.1972  157.4083 H   0  0  0  0  0  0  0  0  0  0  0  0
  147.4342  136.4927  158.8684 H   0  0  0  0  0  0  0  0  0  0  0  0
  148.3883  138.9656  156.6523 H   0  0  0  0  0  0  0  0  0  0  0  0
  147.3811  142.5737  156.6521 H   0  0  0  0  0  0  0  0  0  0  0  0
  150.3557  142.4956  155.4934 H   0  0  0  0  0  0  0  0  0  0  0  0
  151.1894  139.7267  156.4795 H   0  0  0  0  0  0  0  0  0  0  0  0
  152.2030  140.9430  155.7136 H   0  0  0  0  0  0  0  0  0  0  0  0
  154.1870  139.8390  160.4952 H   0  0  0  0  0  0  0  0  0  0  0  0
  154.5696  140.9240  162.6778 H   0  0  0  0  0  0  0  0  0  0  0  0
  153.4550  143.0809  163.2213 H   0  0  0  0  0  0  0  0  0  0  0  0
  151.9460  144.1502  161.5584 H   0  0  0  0  0  0  0  0  0  0  0  0
  151.5447  143.0912  159.3761 H   0  0  0  0  0  0  0  0  0  0  0  0
  149.3332  139.6493  155.0878 H   0  0  0  0  0  0  0  0  0  0  0  0
  149.5037  140.1517  152.9723 H   0  0  0  0  0  0  0  0  0  0  0  0
  147.1753  140.5252  154.6778 H   0  0  0  0  0  0  0  0  0  0  0  0
  148.2538  143.1177  154.4909 H   0  0  0  0  0  0  0  0  0  0  0  0
  1  2  1  0  0  0  0
  1 27  1  0  0  0  0
  1 28  1  0  0  0  0
  1 29  1  0  0  0  0
  2 25  1  0  0  0  0
  2  3  2  0  0  0  0
  3  4  1  0  0  0  0
  3 30  1  0  0  0  0
  4  5  1  0  0  0  0
  4 22  1  0  0  0  0
  5 20  1  0  0  0  0
  5  6  1  0  0  0  0
  5 31  1  0  0  0  0
  6  7  1  0  0  0  0
  7  8  1  0  0  0  0
  7 18  1  0  0  0  0
  7 32  1  0  0  0  0
  8  9  1  0  0  0  0
  8 33  1  0  0  0  0
  8 34  1  0  0  0  0
  9 10  1  0  0  0  0
 10 11  2  0  0  0  0
 10 12  1  0  0  0  0
 12 17  1  0  0  0  0
 12 13  2  0  0  0  0
 13 14  1  0  0  0  0
 13 35  1  0  0  0  0
 14 15  2  0  0  0  0
 14 36  1  0  0  0  0
 15 16  1  0  0  0  0
 15 37  1  0  0  0  0
 16 17  2  0  0  0  0
 16 38  1  0  0  0  0
 17 39  1  0  0  0  0
 18 19  1  0  0  0  0
 18 20  1  0  0  0  0
 18 40  1  0  0  0  0
 19 41  1  0  0  0  0
 20 21  1  0  0  0  0
 20 42  1  0  0  0  0
 21 43  1  0  0  0  0
 22 23  2  0  0  0  0
 22 24  1  0  0  0  0
 24 25  1  0  0  0  0
 25 26  2  0  0  0  0
M  CHG  1  24  -1
M  END
> <s_m_source_file>
AV-unprocessed.smi

> <i_m_source_file_index>
101

> <i_lp_mmshare_version>
43012

> <i_f3d_flags>
0

> <s_epik_input>
Tz1jMVtuSF1jKD1PKW4oW2NIXWMxW0NIM10pW0NAQEhdMk9bQ0BIXShbQ0BASF0oW09IXSlbQ0BIXTJbT0hdKVtDSDJdT0MoPU8pYzNbY0hdW2NIXVtjSF1bY0hdW2NIXTM=

> <s_epik_cmdline>
J2VwaWtfcHl0aG9uJywgJy1waCcsICc3LjAnLCAnLXRuJywgJzgnLCAnLW1hJywgJzIwMCcsICctbWV0YWxfYmluZGluZycsICctaW1hZScsICc8aW5maWxlLm1hZT4nLCAnLW9tYWUnLCAnPG91dGZpbGUubWFlPic=

> <r_lp_tautomer_probability>
0.999537

> <r_epik_Ionization_Penalty>
3.21006

> <r_epik_Ionization_Penalty_Charging>
5.75142e-08

> <r_epik_Ionization_Penalty_Neutral>
3.21006

> <r_epik_State_Penalty>
3.20925

> <r_epik_Charging_Adjusted_Penalty>
3.20925

> <i_epik_Tot_Q>
-1

> <i_epik_Tot_abs_Q>
1

> <r_epik_Metal_State_Penalty>
0.119957

> <b_epik_Metal_Only>
1

> <s_epik_Chemistry_Notes>
This compound has an ester and may undergo hydrolysis at high or low pH. This compound contains an acetal/aminal-like group ( X-CH(R)-Y where X, Y are N, S, or O) that may be acid/base labile, releasing an aldehyde.

> <s_lp_Force_Field>
OPLS_2005

> <r_lp_Energy>
44.5591

> <b_lp_Chiralities_Consistent>
1

> <s_lp_Variant>
AV-unprocessed.smi:101-30

> <Gold.Version>
5.8.1

> <Gold.Id.Protein>
6NUR|6NUR_protein|mol2

> <Gold.PLP.Fitness>
52.9999

> <Gold.PLP.PLP>
-41.9910

> <Gold.PLP.part.hbond>
-4.8247

> <Gold.PLP.part.metal>
0.0000

> <Gold.PLP.part.buried>
-4.6268

> <Gold.PLP.part.nonpolar>
-31.3673

> <Gold.PLP.part.repulsive>
0.1711

> <Gold.PLP.ligand.clash>
0.0000

> <Gold.PLP.ligand.torsion>
0.2706

> <Gold.PLP.Chemscore.Hbond>
3.8320

> <Gold.PLP.Chemscore.CHOScore>
0.0000

> <Gold.PLP.Chemscore.Metal>
0.0000

> <Gold.Chemscore.Hbonds>
donor molecule, donor type, donor heavy atom, donor atom, acceptor molecule, acceptor atom, score
      L1  H    19    41       P1  7957  0.51
      L1  H    21    43       P1  8028  0.96
      P1  H  7989  7998       L1    19  0.34
      P1  H  7997  8010       L1    11  1.00
      P1  H  8011  8017       L1    19  1.00

> <Gold.PLP.Chemscore.Internal.Correction>
0.0541

> <Gold.Rescore>
     Score         DG    S(hbond)    S(metal)    S(lipo)     H(rot)  DE(clash)    DE(int)     intcor
     18.03     -18.39       3.16        0.00      91.48       3.27       0.08       0.28       ----

> <Gold.Chemscore.Fitness>
18.0252

> <Gold.Chemscore.DG>
-18.3912

> <Gold.Chemscore.ZeroCoef>
-5.4800

> <Gold.Chemscore.Hbond>
3.1642

> <Gold.Chemscore.Metal>
0.0000

> <Gold.Chemscore.Lipo>
91.4751

> <Gold.Chemscore.Internal_Hbond>
0.0000

> <Gold.Chemscore.DEClash>
0.0834

> <Gold.Chemscore.DEInternal>
0.2827

> <Gold.Chemscore.Rot>
3.2656

> <Gold.Chemscore.Internal.Correction>
   9.000000E+99

> <Gold.Chemscore.Hbonds>
donor molecule, donor type, donor heavy atom, donor atom, acceptor molecule, acceptor atom, score
      L1  H    19    41       P1  7957  0.52
      L1  H    21    43       P1  8028  0.90
      P1  H  7989  7998       L1    19  0.26
      P1  H  7997  8010       L1    11  0.85
      P1  H  8011  8017       L1    19  0.38

> <Gold.Chemscore.Hbond.Weighted>
-10.5685

> <Gold.Chemscore.Metal.Weighted>
-0.0000

> <Gold.Chemscore.Lipo.Weighted>
-10.7026

> <Gold.Chemscore.Internal_Hbond.Weighted>
0.0000

> <Gold.Chemscore.DEClash.Weighted>
0.0834

> <Gold.Chemscore.DEInternal.Weighted>
0.2827

> <Gold.Chemscore.Rot.Weighted>
8.3598

> <Gold.Chemscore.Internal.Correction.Weighted>
   9.000000E+99

> <Gold.Protein.RotatedTorsions>
[ 6907 6896 6895 6894 ] final  150.14 input  -60.11 | X-H torsion
[ 7974 7965 7964 7962 ] final  -99.78 input  175.53 | X-H torsion
[ 8008 7997 7996 7995 ] final   27.52 input   59.86 | X-H torsion
[ 10167 10162 10161 10158 ] final  -13.75 input  -65.29 | X-H torsion
[ 10718 10713 10712 10709 ] final  177.63 input   66.30 | X-H torsion
[ 10763 10752 10751 10750 ] final  110.72 input  -60.55 | X-H torsion
[ 11005 11000 10999 10996 ] final   12.72 input  -57.11 | X-H torsion

> <Gold.Protein.ActiveResidues>
 VAL166  LYS551  ARG553  GLY616  TRP617  ASP618  TYR619  PRO620  LYS621  CYS622 
 ASP623  PHE694  ASN695  SER759  ASP760  ASP761  ALA762  ILE779  LEU786  VAL792 
 PHE793  MET794  SER795  GLU796  ALA797  LYS798  CYS799  TRP800  GLU811  SER814 

> <Gold.Protein.RotatedAtoms>
  152.1185  133.4340  159.4663 H   0  0  0  0  0  0  0  0  0  0  0  0  # atno 6907 bound_to 6896
  150.6870  134.2563  159.4540 H   0  0  0  0  0  0  0  0  0  0  0  0  # atno 6908 bound_to 6896
  152.0438  134.9695  160.0625 H   0  0  0  0  0  0  0  0  0  0  0  0  # atno 6909 bound_to 6896
  145.3031  140.9382  143.2812 H   0  0  0  0  0  0  0  0  0  0  0  0  # atno 7974 bound_to 7965
  155.0442  140.3172  155.4714 H   0  0  0  0  0  0  0  0  0  0  0  0  # atno 8008 bound_to 7997
  156.2848  140.2157  156.5510 H   0  0  0  0  0  0  0  0  0  0  0  0  # atno 8009 bound_to 7997
  154.7264  140.0485  157.0674 H   0  0  0  0  0  0  0  0  0  0  0  0  # atno 8010 bound_to 7997
  140.7188  143.5393  150.9428 H   0  0  0  0  0  0  0  0  0  0  0  0  # atno 10167 bound_to 10162
  156.9025  130.9883  151.3033 H   0  0  0  0  0  0  0  0  0  0  0  0  # atno 10718 bound_to 10713
  153.4530  135.3739  155.2294 H   0  0  0  0  0  0  0  0  0  0  0  0  # atno 10763 bound_to 10752
  154.8756  135.3890  154.4016 H   0  0  0  0  0  0  0  0  0  0  0  0  # atno 10764 bound_to 10752
  153.4578  135.7086  153.6133 H   0  0  0  0  0  0  0  0  0  0  0  0  # atno 10765 bound_to 10752
  140.4888  134.0861  155.7767 H   0  0  0  0  0  0  0  0  0  0  0  0  # atno 11005 bound_to 11000
  144.9077  139.4568  143.6602 LP  0  0  0  0  0  0  0  0  0  0  0  0  # atno 17320 bound_to 7965
  146.3145  139.7868  142.8994 LP  0  0  0  0  0  0  0  0  0  0  0  0  # atno 17321 bound_to 7965
  139.9115  143.6714  152.3114 LP  0  0  0  0  0  0  0  0  0  0  0  0  # atno 17342 bound_to 10162
  139.7099  144.7622  151.1130 LP  0  0  0  0  0  0  0  0  0  0  0  0  # atno 17343 bound_to 10162
  157.6017  130.8517  149.8813 LP  0  0  0  0  0  0  0  0  0  0  0  0  # atno 17370 bound_to 10713
  156.0575  130.3706  150.1058 LP  0  0  0  0  0  0  0  0  0  0  0  0  # atno 17371 bound_to 10713
  141.1494  133.8996  157.2135 LP  0  0  0  0  0  0  0  0  0  0  0  0  # atno 17394 bound_to 11000
  139.9781  135.0107  156.9682 LP  0  0  0  0  0  0  0  0  0  0  0  0  # atno 17395 bound_to 11000

$$$$
