AV-unprocessed.smi:1499|AV-procd|sdf|6061|dock3
  -GOLD-   22720 6173D 1   1.00000     0.00000
 Structure written by MMmdl.
 41 42  0  0  0  0  0  0  0  0  2 V2000
  147.6959  128.1647  151.9773 C   0  0  0  0  0  0  0  0  0  0  0  0
  147.3284  129.3530  152.8778 C   0  0  0  0  0  0  0  0  0  0  0  0
  147.0359  130.5874  152.1065 N   0  3  0  0  0  0  0  0  0  0  0  0
  146.9490  131.7872  152.9830 C   0  0  0  0  0  0  0  0  0  0  0  0
  146.6499  133.0631  152.1728 C   0  0  0  0  0  0  0  0  0  0  0  0
  145.4210  132.8563  151.3930 N   0  0  0  0  0  0  0  0  0  0  0  0
  144.1972  133.3568  151.6963 C   0  0  0  0  0  0  0  0  0  0  0  0
  143.1718  132.9973  151.1173 O   0  0  0  0  0  0  0  0  0  0  0  0
  144.2188  134.3410  152.6153 N   0  0  0  0  0  0  0  0  0  0  0  0
  143.1119  135.0239  153.1801 C   0  0  0  0  0  0  0  0  0  0  0  0
  141.8462  134.4366  153.4383 C   0  0  0  0  0  0  0  0  0  0  0  0
  141.0056  135.3180  153.9580 N   0  0  0  0  0  0  0  0  0  0  0  0
  141.7122  136.4736  154.0392 N   0  0  0  0  0  0  0  0  0  0  0  0
  141.0796  137.6690  154.5681 C   0  0  0  0  0  0  0  0  0  0  0  0
  140.3146  138.4183  153.4757 C   0  0  0  0  0  0  0  0  0  0  0  0
  141.0374  139.1097  152.5906 N   0  0  0  0  0  0  0  0  0  0  0  0
  139.0872  138.3727  153.4313 O   0  0  0  0  0  0  0  0  0  0  0  0
  143.0044  136.3283  153.5731 C   0  0  0  0  0  0  0  0  0  0  0  0
  145.5940  131.7625  150.4331 C   0  0  0  0  0  0  0  0  0  0  0  0
  145.8635  130.4533  151.1975 C   0  0  0  0  0  0  0  0  0  0  0  0
  148.0009  127.3084  152.5795 H   0  0  0  0  0  0  0  0  0  0  0  0
  148.5248  128.4134  151.3144 H   0  0  0  0  0  0  0  0  0  0  0  0
  146.8562  127.8408  151.3629 H   0  0  0  0  0  0  0  0  0  0  0  0
  146.4815  129.1025  153.5187 H   0  0  0  0  0  0  0  0  0  0  0  0
  148.1733  129.5410  153.5421 H   0  0  0  0  0  0  0  0  0  0  0  0
  146.1677  131.6329  153.7293 H   0  0  0  0  0  0  0  0  0  0  0  0
  147.8862  131.9123  153.5264 H   0  0  0  0  0  0  0  0  0  0  0  0
  146.6069  133.9190  152.8463 H   0  0  0  0  0  0  0  0  0  0  0  0
  147.4741  133.2721  151.4890 H   0  0  0  0  0  0  0  0  0  0  0  0
  145.1254  134.6078  152.9705 H   0  0  0  0  0  0  0  0  0  0  0  0
  141.5150  133.4226  153.2686 H   0  0  0  0  0  0  0  0  0  0  0  0
  140.4052  137.3998  155.3829 H   0  0  0  0  0  0  0  0  0  0  0  0
  141.8513  138.3136  154.9909 H   0  0  0  0  0  0  0  0  0  0  0  0
  140.5752  139.6140  151.8475 H   0  0  0  0  0  0  0  0  0  0  0  0
  142.0444  139.1196  152.6636 H   0  0  0  0  0  0  0  0  0  0  0  0
  143.7035  137.1515  153.5623 H   0  0  0  0  0  0  0  0  0  0  0  0
  144.7327  131.6434  149.7738 H   0  0  0  0  0  0  0  0  0  0  0  0
  146.4347  131.9920  149.7767 H   0  0  0  0  0  0  0  0  0  0  0  0
  146.0325  129.6520  150.4790 H   0  0  0  0  0  0  0  0  0  0  0  0
  144.9822  130.1779  151.7794 H   0  0  0  0  0  0  0  0  0  0  0  0
  147.8367  130.7464  151.5117 H   0  0  0  0  0  0  0  0  0  0  0  0
  1  2  1  0  0  0  0
  1 21  1  0  0  0  0
  1 22  1  0  0  0  0
  1 23  1  0  0  0  0
  2  3  1  0  0  0  0
  2 24  1  0  0  0  0
  2 25  1  0  0  0  0
  3 20  1  0  0  0  0
  3  4  1  0  0  0  0
  3 41  1  0  0  0  0
  4  5  1  0  0  0  0
  4 26  1  0  0  0  0
  4 27  1  0  0  0  0
  5  6  1  0  0  0  0
  5 28  1  0  0  0  0
  5 29  1  0  0  0  0
  6  7  1  0  0  0  0
  6 19  1  0  0  0  0
  7  8  2  0  0  0  0
  7  9  1  0  0  0  0
  9 10  1  0  0  0  0
  9 30  1  0  0  0  0
 10 18  2  0  0  0  0
 10 11  1  0  0  0  0
 11 12  2  0  0  0  0
 11 31  1  0  0  0  0
 12 13  1  0  0  0  0
 13 14  1  0  0  0  0
 13 18  1  0  0  0  0
 14 15  1  0  0  0  0
 14 32  1  0  0  0  0
 14 33  1  0  0  0  0
 15 16  1  0  0  0  0
 15 17  2  0  0  0  0
 16 34  1  0  0  0  0
 16 35  1  0  0  0  0
 18 36  1  0  0  0  0
 19 20  1  0  0  0  0
 19 37  1  0  0  0  0
 19 38  1  0  0  0  0
 20 39  1  0  0  0  0
 20 40  1  0  0  0  0
M  CHG  1   3   1
M  END
> <s_m_source_file>
AV-unprocessed.smi

> <i_m_source_file_index>
1499

> <i_lp_mmshare_version>
43012

> <i_f3d_flags>
0

> <s_epik_input>
W0NIM11bQ0gyXU4xW0NIMl1bQ0gyXU4oW0NIMl1bQ0gyXTEpQyg9TylbTkhdYzJbY0hdbm4oW2NIXTIpW0NIMl1DKD1PKVtOSDJd

> <s_epik_cmdline>
J2VwaWtfcHl0aG9uJywgJy1waCcsICc3LjAnLCAnLXRuJywgJzgnLCAnLW1hJywgJzIwMCcsICctbWV0YWxfYmluZGluZycsICctaW1hZScsICc8aW5maWxlLm1hZT4nLCAnLW9tYWUnLCAnPG91dGZpbGUubWFlPic=

> <r_lp_tautomer_probability>
1

> <r_epik_Ionization_Penalty>
0.390351

> <r_epik_Ionization_Penalty_Charging>
0.390326

> <r_epik_Ionization_Penalty_Neutral>
2.46507e-05

> <r_epik_State_Penalty>
0.388987

> <r_epik_Charging_Adjusted_Penalty>
0.779313

> <i_epik_Tot_Q>
1

> <i_epik_Tot_abs_Q>
1

> <r_epik_Metal_State_Penalty>
0.388988

> <b_epik_Metal_Only>
0

> <s_lp_Force_Field>
OPLS_2005

> <r_lp_Energy>
52.2824

> <b_lp_Chiralities_Consistent>
1

> <s_lp_Variant>
AV-unprocessed.smi:1499-1

> <Gold.Version>
5.8.1

> <Gold.Id.Protein>
6NUR|6NUR_protein|mol2

> <Gold.PLP.Fitness>
44.6657

> <Gold.PLP.PLP>
-33.9963

> <Gold.PLP.part.hbond>
-3.8923

> <Gold.PLP.part.metal>
0.0000

> <Gold.PLP.part.buried>
-7.1812

> <Gold.PLP.part.nonpolar>
-24.5475

> <Gold.PLP.part.repulsive>
1.4844

> <Gold.PLP.ligand.clash>
0.0000

> <Gold.PLP.ligand.torsion>
0.8533

> <Gold.PLP.Chemscore.Hbond>
3.5128

> <Gold.PLP.Chemscore.CHOScore>
0.5806

> <Gold.PLP.Chemscore.Metal>
0.0000

> <Gold.Chemscore.Hbonds>
donor molecule, donor type, donor heavy atom, donor atom, acceptor molecule, acceptor atom, score
      L1  H     3    41       P1 10747  1.00
      L1  H    16    34       P1 10160  0.50
      L1  H    16    35       P1 10175  0.75
      P1  H 11000 11005       L1    12  0.71
      L1  C    11    31       P1 10957  0.67

> <Gold.PLP.Chemscore.Internal.Correction>
0.0958

> <Gold.Rescore>
     Score         DG    S(hbond)    S(metal)    S(lipo)     H(rot)  DE(clash)    DE(int)     intcor
     15.90     -18.31       3.01        0.00      64.22       1.85       0.75       1.66       ----

> <Gold.Chemscore.Fitness>
15.8996

> <Gold.Chemscore.DG>
-18.3096

> <Gold.Chemscore.ZeroCoef>
-5.4800

> <Gold.Chemscore.Hbond>
3.0119

> <Gold.Chemscore.Metal>
0.0000

> <Gold.Chemscore.Lipo>
64.2221

> <Gold.Chemscore.Internal_Hbond>
0.0000

> <Gold.Chemscore.DEClash>
0.7504

> <Gold.Chemscore.DEInternal>
1.6597

> <Gold.Chemscore.Rot>
1.8532

> <Gold.Chemscore.Internal.Correction>
   9.000000E+99

> <Gold.Chemscore.Hbonds>
donor molecule, donor type, donor heavy atom, donor atom, acceptor molecule, acceptor atom, score
      L1  H     3    41       P1 10747  1.00
      L1  H    16    34       P1 10160  0.49
      L1  H    16    35       P1 10175  0.59
      P1  H 11000 11005       L1    12  0.28

> <Gold.Chemscore.Hbond.Weighted>
-10.0597

> <Gold.Chemscore.Metal.Weighted>
-0.0000

> <Gold.Chemscore.Lipo.Weighted>
-7.5140

> <Gold.Chemscore.Internal_Hbond.Weighted>
0.0000

> <Gold.Chemscore.DEClash.Weighted>
0.7504

> <Gold.Chemscore.DEInternal.Weighted>
1.6597

> <Gold.Chemscore.Rot.Weighted>
4.7441

> <Gold.Chemscore.Internal.Correction.Weighted>
   9.000000E+99

> <Gold.Protein.RotatedTorsions>
[ 6907 6896 6895 6894 ] final   50.47 input  -60.11 | X-H torsion
[ 7974 7965 7964 7962 ] final  129.01 input  175.53 | X-H torsion
[ 8008 7997 7996 7995 ] final    0.21 input   59.86 | X-H torsion
[ 10167 10162 10161 10158 ] final  154.29 input  -65.29 | X-H torsion
[ 10718 10713 10712 10709 ] final  -41.73 input   66.30 | X-H torsion
[ 10763 10752 10751 10750 ] final  111.65 input  -60.55 | X-H torsion
[ 11005 11000 10999 10996 ] final   32.30 input  -57.11 | X-H torsion

> <Gold.Protein.ActiveResidues>
 VAL166  LYS551  ARG553  GLY616  TRP617  ASP618  TYR619  PRO620  LYS621  CYS622 
 ASP623  PHE694  ASN695  SER759  ASP760  ASP761  ALA762  ILE779  LEU786  VAL792 
 PHE793  MET794  SER795  GLU796  ALA797  LYS798  CYS799  TRP800  GLU811  SER814 

> <Gold.Protein.RotatedAtoms>
  152.3022  134.7598  160.0355 H   0  0  0  0  0  0  0  0  0  0  0  0  # atno 6907 bound_to 6896
  151.8107  133.3376  159.3562 H   0  0  0  0  0  0  0  0  0  0  0  0  # atno 6908 bound_to 6896
  150.7279  134.5596  159.5880 H   0  0  0  0  0  0  0  0  0  0  0  0  # atno 6909 bound_to 6896
  145.0333  139.4027  143.5139 H   0  0  0  0  0  0  0  0  0  0  0  0  # atno 7974 bound_to 7965
  154.6654  140.2600  155.7064 H   0  0  0  0  0  0  0  0  0  0  0  0  # atno 8008 bound_to 7997
  156.2636  140.2840  156.1064 H   0  0  0  0  0  0  0  0  0  0  0  0  # atno 8009 bound_to 7997
  155.1246  140.0377  157.2749 H   0  0  0  0  0  0  0  0  0  0  0  0  # atno 8010 bound_to 7997
  139.4824  144.5199  151.7892 H   0  0  0  0  0  0  0  0  0  0  0  0  # atno 10167 bound_to 10162
  156.2673  130.4203  149.8477 H   0  0  0  0  0  0  0  0  0  0  0  0  # atno 10718 bound_to 10713
  153.4664  135.3710  155.2367 H   0  0  0  0  0  0  0  0  0  0  0  0  # atno 10763 bound_to 10752
  154.8757  135.3921  154.3864 H   0  0  0  0  0  0  0  0  0  0  0  0  # atno 10764 bound_to 10752
  153.4445  135.7084  153.6212 H   0  0  0  0  0  0  0  0  0  0  0  0  # atno 10765 bound_to 10752
  140.2749  134.3039  155.7817 H   0  0  0  0  0  0  0  0  0  0  0  0  # atno 11005 bound_to 11000
  146.3501  139.9895  142.8687 LP  0  0  0  0  0  0  0  0  0  0  0  0  # atno 17320 bound_to 7965
  145.1742  140.9736  143.4304 LP  0  0  0  0  0  0  0  0  0  0  0  0  # atno 17321 bound_to 7965
  140.4712  144.1584  150.5918 LP  0  0  0  0  0  0  0  0  0  0  0  0  # atno 17342 bound_to 10162
  140.4380  143.2539  151.9510 LP  0  0  0  0  0  0  0  0  0  0  0  0  # atno 17343 bound_to 10162
  156.5971  130.8531  151.3422 LP  0  0  0  0  0  0  0  0  0  0  0  0  # atno 17370 bound_to 10713
  157.7271  130.9639  150.1687 LP  0  0  0  0  0  0  0  0  0  0  0  0  # atno 17371 bound_to 10713
  141.2172  133.7490  156.9392 LP  0  0  0  0  0  0  0  0  0  0  0  0  # atno 17394 bound_to 11000
  140.1337  134.9339  157.2373 LP  0  0  0  0  0  0  0  0  0  0  0  0  # atno 17395 bound_to 11000

$$$$
