AV-unprocessed.smi:1128|AV-procd|sdf|4844|dock5
  -GOLD-   22720 3413D 1   1.00000     0.00000
 Structure written by MMmdl.
 37 38  0  0  0  0  0  0  0  0  2 V2000
  150.9753  137.2915  159.6211 O   0  0  0  0  0  0  0  0  0  0  0  0
  150.2363  138.0051  158.9438 C   0  0  0  0  0  0  0  0  0  0  0  0
  150.6149  139.1920  158.4477 N   0  0  0  0  0  0  0  0  0  0  0  0
  151.9219  139.8170  158.6323 C   0  0  0  0  0  0  0  0  0  0  0  0
  151.8198  141.3472  158.7973 C   0  0  2  0  0  0  0  0  0  0  0  0
  151.5683  142.0774  157.4562 C   0  0  0  0  0  0  0  0  0  0  0  0
  151.7502  143.5810  157.5623 C   0  0  0  0  0  0  0  0  0  0  0  0
  152.3589  144.1822  158.5978 C   0  0  0  0  0  0  0  0  0  0  0  0
  152.9417  143.4242  159.7756 C   0  0  0  0  0  0  0  0  0  0  0  0
  153.0729  141.9163  159.4909 C   0  0  0  0  0  0  0  0  0  0  0  0
  148.9645  137.7322  158.5987 N   0  0  0  0  0  0  0  0  0  0  0  0
  148.1619  136.6168  158.8994 C   0  0  0  0  0  0  0  0  0  0  0  0
  147.5748  136.3708  160.1040 C   0  0  0  0  0  0  0  0  0  0  0  0
  146.7517  135.1919  160.3453 C   0  0  0  0  0  0  0  0  0  0  0  0
  146.1484  134.8471  161.6955 C   0  0  0  0  0  0  0  0  0  0  0  0
  146.4566  135.7683  162.6087 F   0  0  0  0  0  0  0  0  0  0  0  0
  144.8203  134.7607  161.6175 F   0  0  0  0  0  0  0  0  0  0  0  0
  146.6177  133.6731  162.1155 F   0  0  0  0  0  0  0  0  0  0  0  0
  146.6719  134.3718  159.2369 C   0  0  0  0  0  0  0  0  0  0  0  0
  147.2091  134.5458  158.0100 N   0  5  0  0  0  0  0  0  0  0  0  0
  147.9691  135.6560  157.7925 C   0  0  0  0  0  0  0  0  0  0  0  0
  148.4935  135.8713  156.6990 O   0  0  0  0  0  0  0  0  0  0  0  0
  149.9408  139.7090  157.9022 H   0  0  0  0  0  0  0  0  0  0  0  0
  152.3630  139.3813  159.5292 H   0  0  0  0  0  0  0  0  0  0  0  0
  152.5984  139.5673  157.8130 H   0  0  0  0  0  0  0  0  0  0  0  0
  150.9705  141.5523  159.4516 H   0  0  0  0  0  0  0  0  0  0  0  0
  152.2513  141.7117  156.6887 H   0  0  0  0  0  0  0  0  0  0  0  0
  150.5571  141.8749  157.1024 H   0  0  0  0  0  0  0  0  0  0  0  0
  151.3693  144.1755  156.7449 H   0  0  0  0  0  0  0  0  0  0  0  0
  152.4415  145.2591  158.6212 H   0  0  0  0  0  0  0  0  0  0  0  0
  153.9180  143.8408  160.0246 H   0  0  0  0  0  0  0  0  0  0  0  0
  152.2958  143.5912  160.6380 H   0  0  0  0  0  0  0  0  0  0  0  0
  153.2664  141.3879  160.4251 H   0  0  0  0  0  0  0  0  0  0  0  0
  153.9429  141.7429  158.8560 H   0  0  0  0  0  0  0  0  0  0  0  0
  148.4928  138.4371  158.0510 H   0  0  0  0  0  0  0  0  0  0  0  0
  147.7003  137.0442  160.9343 H   0  0  0  0  0  0  0  0  0  0  0  0
  146.0921  133.4315  159.3550 H   0  0  0  0  0  0  0  0  0  0  0  0
  1  2  2  0  0  0  0
  2  3  1  0  0  0  0
  2 11  1  0  0  0  0
  3  4  1  0  0  0  0
  3 23  1  0  0  0  0
  4  5  1  0  0  0  0
  4 24  1  0  0  0  0
  4 25  1  0  0  0  0
  5 10  1  0  0  0  0
  5  6  1  0  0  0  0
  5 26  1  0  0  0  0
  6  7  1  0  0  0  0
  6 27  1  0  0  0  0
  6 28  1  0  0  0  0
  7  8  2  0  0  0  0
  7 29  1  0  0  0  0
  8  9  1  0  0  0  0
  8 30  1  0  0  0  0
  9 10  1  0  0  0  0
  9 31  1  0  0  0  0
  9 32  1  0  0  0  0
 10 33  1  0  0  0  0
 10 34  1  0  0  0  0
 11 12  1  0  0  0  0
 11 35  1  0  0  0  0
 12 21  1  0  0  0  0
 12 13  2  0  0  0  0
 13 14  1  0  0  0  0
 13 36  1  0  0  0  0
 14 15  1  0  0  0  0
 14 19  2  0  0  0  0
 15 16  1  0  0  0  0
 15 17  1  0  0  0  0
 15 18  1  0  0  0  0
 19 20  1  0  0  0  0
 19 37  1  0  0  0  0
 20 21  1  0  0  0  0
 21 22  2  0  0  0  0
M  CHG  1  20  -1
M  END
> <s_m_source_file>
AV-unprocessed.smi

> <i_m_source_file_index>
1128

> <i_lp_mmshare_version>
43012

> <i_f3d_flags>
0

> <s_epik_input>
Tz1jMVtuSF1bY0hdYyhDKEYpKEYpRilbY0hdYzFbTkhdQyg9TylbTkhdW0NIMl1bQ0BASF0yW0NIMl1bQ0hdPVtDSF1bQ0gyXVtDSDJdMg==

> <s_epik_cmdline>
J2VwaWtfcHl0aG9uJywgJy1waCcsICc3LjAnLCAnLXRuJywgJzgnLCAnLW1hJywgJzIwMCcsICctbWV0YWxfYmluZGluZycsICctaW1hZScsICc8aW5maWxlLm1hZT4nLCAnLW9tYWUnLCAnPG91dGZpbGUubWFlPic=

> <r_lp_tautomer_probability>
1

> <r_epik_Ionization_Penalty>
3.16664

> <r_epik_Ionization_Penalty_Charging>
0.172425

> <r_epik_Ionization_Penalty_Neutral>
2.99422

> <r_epik_State_Penalty>
2.99038

> <r_epik_Charging_Adjusted_Penalty>
3.16281

> <i_epik_Tot_Q>
-1

> <i_epik_Tot_abs_Q>
1

> <r_epik_Metal_State_Penalty>
0.453031

> <b_epik_Metal_Only>
1

> <s_lp_Force_Field>
OPLS_2005

> <r_lp_Energy>
22.3955

> <b_lp_Chiralities_Consistent>
1

> <s_lp_Variant>
AV-unprocessed.smi:1128-3

> <Gold.Version>
5.8.1

> <Gold.Id.Protein>
6NUR|6NUR_protein|mol2

> <Gold.PLP.Fitness>
44.9085

> <Gold.PLP.PLP>
-43.9884

> <Gold.PLP.part.hbond>
-0.9766

> <Gold.PLP.part.metal>
0.0000

> <Gold.PLP.part.buried>
-5.9898

> <Gold.PLP.part.nonpolar>
-38.5600

> <Gold.PLP.part.repulsive>
0.3352

> <Gold.PLP.ligand.clash>
0.0000

> <Gold.PLP.ligand.torsion>
1.0646

> <Gold.PLP.Chemscore.Hbond>
0.9913

> <Gold.PLP.Chemscore.CHOScore>
0.0000

> <Gold.PLP.Chemscore.Metal>
0.0000

> <Gold.Chemscore.Hbonds>
donor molecule, donor type, donor heavy atom, donor atom, acceptor molecule, acceptor atom, score
      P1  H  6896  6907       L1     1  0.57

> <Gold.PLP.Chemscore.Internal.Correction>
0.0756

> <Gold.Rescore>
     Score         DG    S(hbond)    S(metal)    S(lipo)     H(rot)  DE(clash)    DE(int)     intcor
     16.04     -17.11       0.98        0.00      99.63       1.29       0.03       1.04       ----

> <Gold.Chemscore.Fitness>
16.0376

> <Gold.Chemscore.DG>
-17.1115

> <Gold.Chemscore.ZeroCoef>
-5.4800

> <Gold.Chemscore.Hbond>
0.9845

> <Gold.Chemscore.Metal>
0.0000

> <Gold.Chemscore.Lipo>
99.6280

> <Gold.Chemscore.Internal_Hbond>
0.0000

> <Gold.Chemscore.DEClash>
0.0298

> <Gold.Chemscore.DEInternal>
1.0441

> <Gold.Chemscore.Rot>
1.2943

> <Gold.Chemscore.Internal.Correction>
   9.000000E+99

> <Gold.Chemscore.Hbonds>
donor molecule, donor type, donor heavy atom, donor atom, acceptor molecule, acceptor atom, score
      P1  H  6896  6907       L1     1  0.58

> <Gold.Chemscore.Hbond.Weighted>
-3.2883

> <Gold.Chemscore.Metal.Weighted>
-0.0000

> <Gold.Chemscore.Lipo.Weighted>
-11.6565

> <Gold.Chemscore.Internal_Hbond.Weighted>
0.0000

> <Gold.Chemscore.DEClash.Weighted>
0.0298

> <Gold.Chemscore.DEInternal.Weighted>
1.0441

> <Gold.Chemscore.Rot.Weighted>
3.3133

> <Gold.Chemscore.Internal.Correction.Weighted>
   9.000000E+99

> <Gold.Protein.RotatedTorsions>
[ 6907 6896 6895 6894 ] final   -6.25 input  -60.11 | X-H torsion
[ 7974 7965 7964 7962 ] final  -31.46 input  175.53 | X-H torsion
[ 8008 7997 7996 7995 ] final   49.55 input   59.86 | X-H torsion
[ 10167 10162 10161 10158 ] final -158.06 input  -65.29 | X-H torsion
[ 10718 10713 10712 10709 ] final  140.63 input   66.30 | X-H torsion
[ 10763 10752 10751 10750 ] final   21.12 input  -60.55 | X-H torsion
[ 11005 11000 10999 10996 ] final  164.76 input  -57.11 | X-H torsion

> <Gold.Protein.ActiveResidues>
 VAL166  LYS551  ARG553  GLY616  TRP617  ASP618  TYR619  PRO620  LYS621  CYS622 
 ASP623  PHE694  ASN695  SER759  ASP760  ASP761  ALA762  ILE779  LEU786  VAL792 
 PHE793  MET794  SER795  GLU796  ALA797  LYS798  CYS799  TRP800  GLU811  SER814 

> <Gold.Protein.RotatedAtoms>
  151.4686  135.1044  159.9744 H   0  0  0  0  0  0  0  0  0  0  0  0  # atno 6907 bound_to 6896
  152.4825  133.8286  159.7102 H   0  0  0  0  0  0  0  0  0  0  0  0  # atno 6908 bound_to 6896
  150.8908  133.7185  159.2932 H   0  0  0  0  0  0  0  0  0  0  0  0  # atno 6909 bound_to 6896
  146.1066  140.5669  142.8797 H   0  0  0  0  0  0  0  0  0  0  0  0  # atno 7974 bound_to 7965
  155.4040  140.3439  155.4259 H   0  0  0  0  0  0  0  0  0  0  0  0  # atno 8008 bound_to 7997
  156.1487  140.1564  156.8837 H   0  0  0  0  0  0  0  0  0  0  0  0  # atno 8009 bound_to 7997
  154.5033  140.0809  156.7824 H   0  0  0  0  0  0  0  0  0  0  0  0  # atno 8010 bound_to 7997
  139.6722  143.9726  152.2290 H   0  0  0  0  0  0  0  0  0  0  0  0  # atno 10167 bound_to 10162
  157.4011  131.1017  151.0550 H   0  0  0  0  0  0  0  0  0  0  0  0  # atno 10718 bound_to 10713
  153.1021  135.6675  153.9653 H   0  0  0  0  0  0  0  0  0  0  0  0  # atno 10763 bound_to 10752
  153.9221  135.3013  155.3449 H   0  0  0  0  0  0  0  0  0  0  0  0  # atno 10764 bound_to 10752
  154.7442  135.5065  153.9250 H   0  0  0  0  0  0  0  0  0  0  0  0  # atno 10765 bound_to 10752
  140.2492  134.7990  157.3486 H   0  0  0  0  0  0  0  0  0  0  0  0  # atno 11005 bound_to 11000
  144.7476  140.5108  143.6825 LP  0  0  0  0  0  0  0  0  0  0  0  0  # atno 17320 bound_to 7965
  145.5749  139.1485  143.3268 LP  0  0  0  0  0  0  0  0  0  0  0  0  # atno 17321 bound_to 7965
  139.9493  144.6631  150.8187 LP  0  0  0  0  0  0  0  0  0  0  0  0  # atno 17342 bound_to 10162
  140.7622  143.3193  151.2660 LP  0  0  0  0  0  0  0  0  0  0  0  0  # atno 17343 bound_to 10162
  157.1549  130.6200  149.5593 LP  0  0  0  0  0  0  0  0  0  0  0  0  # atno 17370 bound_to 10713
  155.9823  130.4836  150.6876 LP  0  0  0  0  0  0  0  0  0  0  0  0  # atno 17371 bound_to 10713
  140.1575  134.4771  155.7918 LP  0  0  0  0  0  0  0  0  0  0  0  0  # atno 17394 bound_to 11000
  141.2203  133.6887  156.7486 LP  0  0  0  0  0  0  0  0  0  0  0  0  # atno 17395 bound_to 11000

$$$$
