AV-unprocessed.smi:1030|AV-procd|sdf|4478|dock1
  -GOLD-   22720 2453D 1   1.00000     0.00000
 Structure written by MMmdl.
 29 30  0  0  0  0  0  0  0  0  1 V2000
  151.2474  136.3760  158.8103 N   0  0  0  0  0  0  0  0  0  0  0  0
  152.9020  136.7608  158.5320 S   0  0  0  0  0  0  0  0  0  0  0  0
  153.6865  136.0517  159.5546 O   0  0  0  0  0  0  0  0  0  0  0  0
  153.1781  136.5493  157.1025 O   0  0  0  0  0  0  0  0  0  0  0  0
  152.9613  138.5228  158.8896 C   0  0  0  0  0  0  0  0  0  0  0  0
  153.6838  138.9714  160.0149 C   0  0  0  0  0  0  0  0  0  0  0  0
  153.7236  140.3515  160.2882 C   0  0  0  0  0  0  0  0  0  0  0  0
  153.0374  141.2253  159.4235 C   0  0  0  0  0  0  0  0  0  0  0  0
  152.3422  140.8059  158.3450 N   0  0  0  0  0  0  0  0  0  0  0  0
  152.3001  139.4778  158.0755 C   0  0  0  0  0  0  0  0  0  0  0  0
  151.5730  139.0744  156.9455 N   0  0  0  0  0  0  0  0  0  0  0  0
  152.3952  138.8425  155.7656 C   0  0  0  0  0  0  0  0  0  0  0  0
  151.5351  138.2364  154.6435 C   0  0  0  0  0  0  0  0  0  0  0  0
  150.4248  139.0898  154.3777 O   0  0  0  0  0  0  0  0  0  0  0  0
  149.5891  139.2558  155.5204 C   0  0  0  0  0  0  0  0  0  0  0  0
  150.3992  139.8899  156.6639 C   0  0  0  0  0  0  0  0  0  0  0  0
  150.8080  136.0030  157.9692 H   0  0  0  0  0  0  0  0  0  0  0  0
  150.7363  137.1838  159.1654 H   0  0  0  0  0  0  0  0  0  0  0  0
  154.2017  138.2796  160.6620 H   0  0  0  0  0  0  0  0  0  0  0  0
  154.2677  140.7313  161.1401 H   0  0  0  0  0  0  0  0  0  0  0  0
  153.0468  142.2903  159.6027 H   0  0  0  0  0  0  0  0  0  0  0  0
  152.8335  139.7837  155.4306 H   0  0  0  0  0  0  0  0  0  0  0  0
  153.2185  138.1710  156.0124 H   0  0  0  0  0  0  0  0  0  0  0  0
  152.1255  138.1262  153.7339 H   0  0  0  0  0  0  0  0  0  0  0  0
  151.1838  137.2407  154.9193 H   0  0  0  0  0  0  0  0  0  0  0  0
  148.7468  139.8950  155.2562 H   0  0  0  0  0  0  0  0  0  0  0  0
  149.1765  138.2924  155.8248 H   0  0  0  0  0  0  0  0  0  0  0  0
  149.7829  139.9735  157.5599 H   0  0  0  0  0  0  0  0  0  0  0  0
  150.7071  140.8988  156.3862 H   0  0  0  0  0  0  0  0  0  0  0  0
  1  2  1  0  0  0  0
  1 17  1  0  0  0  0
  1 18  1  0  0  0  0
  2  3  2  0  0  0  0
  2  4  2  0  0  0  0
  2  5  1  0  0  0  0
  5 10  1  0  0  0  0
  5  6  2  0  0  0  0
  6  7  1  0  0  0  0
  6 19  1  0  0  0  0
  7  8  2  0  0  0  0
  7 20  1  0  0  0  0
  8  9  1  0  0  0  0
  8 21  1  0  0  0  0
  9 10  2  0  0  0  0
 10 11  1  0  0  0  0
 11 16  1  0  0  0  0
 11 12  1  0  0  0  0
 12 13  1  0  0  0  0
 12 22  1  0  0  0  0
 12 23  1  0  0  0  0
 13 14  1  0  0  0  0
 13 24  1  0  0  0  0
 13 25  1  0  0  0  0
 14 15  1  0  0  0  0
 15 16  1  0  0  0  0
 15 26  1  0  0  0  0
 15 27  1  0  0  0  0
 16 28  1  0  0  0  0
 16 29  1  0  0  0  0
M  END
> <s_m_source_file>
AV-unprocessed.smi

> <i_m_source_file_index>
1030

> <i_lp_mmshare_version>
43012

> <i_f3d_flags>
0

> <s_epik_input>
W05IMl1TKD1PKSg9TyljMVtjSF1bY0hdW2NIXW5jMU4yW0NIMl1bQ0gyXU9bQ0gyXVtDSDJdMg==

> <s_epik_cmdline>
J2VwaWtfcHl0aG9uJywgJy1waCcsICc3LjAnLCAnLXRuJywgJzgnLCAnLW1hJywgJzIwMCcsICctbWV0YWxfYmluZGluZycsICctaW1hZScsICc8aW5maWxlLm1hZT4nLCAnLW9tYWUnLCAnPG91dGZpbGUubWFlPic=

> <r_lp_tautomer_probability>
1

> <r_epik_Ionization_Penalty>
0.00223263

> <r_epik_Ionization_Penalty_Charging>
0

> <r_epik_Ionization_Penalty_Neutral>
0.00223263

> <r_epik_State_Penalty>
-0

> <r_epik_Charging_Adjusted_Penalty>
0

> <i_epik_Tot_Q>
0

> <i_epik_Tot_abs_Q>
0

> <r_epik_Metal_State_Penalty>
0.346078

> <b_epik_Metal_Only>
0

> <s_lp_Force_Field>
OPLS_2005

> <r_lp_Energy>
28.1978

> <b_lp_Chiralities_Consistent>
1

> <s_lp_Variant>
AV-unprocessed.smi:1030-1

> <Gold.Version>
5.8.1

> <Gold.Id.Protein>
6NUR|6NUR_protein|mol2

> <Gold.PLP.Fitness>
31.3105

> <Gold.PLP.PLP>
-22.3545

> <Gold.PLP.part.hbond>
-4.0000

> <Gold.PLP.part.metal>
0.0000

> <Gold.PLP.part.buried>
-2.8084

> <Gold.PLP.part.nonpolar>
-15.9245

> <Gold.PLP.part.repulsive>
0.1867

> <Gold.PLP.ligand.clash>
0.0000

> <Gold.PLP.ligand.torsion>
1.7103

> <Gold.PLP.Chemscore.Hbond>
3.4194

> <Gold.PLP.Chemscore.CHOScore>
0.0000

> <Gold.PLP.Chemscore.Metal>
0.0000

> <Gold.Chemscore.Hbonds>
donor molecule, donor type, donor heavy atom, donor atom, acceptor molecule, acceptor atom, score
      P1  H  6896  6908       L1     1  0.17
      P1  H  6896  6909       L1     3  1.00
      P1  H  7989  7998       L1    14  0.25
      P1  H 10752 10765       L1     4  0.70

> <Gold.PLP.Chemscore.Internal.Correction>
2.1183

> <Gold.Rescore>
     Score         DG    S(hbond)    S(metal)    S(lipo)     H(rot)  DE(clash)    DE(int)     intcor
     14.83     -17.98       2.62        0.00      54.03       1.00       0.06       3.10       ----

> <Gold.Chemscore.Fitness>
14.8251

> <Gold.Chemscore.DG>
-17.9825

> <Gold.Chemscore.ZeroCoef>
-5.4800

> <Gold.Chemscore.Hbond>
2.6169

> <Gold.Chemscore.Metal>
0.0000

> <Gold.Chemscore.Lipo>
54.0347

> <Gold.Chemscore.Internal_Hbond>
0.0000

> <Gold.Chemscore.DEClash>
0.0571

> <Gold.Chemscore.DEInternal>
3.1003

> <Gold.Chemscore.Rot>
1.0000

> <Gold.Chemscore.Internal.Correction>
   9.000000E+99

> <Gold.Chemscore.Hbonds>
donor molecule, donor type, donor heavy atom, donor atom, acceptor molecule, acceptor atom, score
      P1  H  6896  6909       L1     3  0.25
      P1  H  7989  7998       L1    14  0.04
      P1  H 10752 10765       L1     4  0.68

> <Gold.Chemscore.Hbond.Weighted>
-8.7404

> <Gold.Chemscore.Metal.Weighted>
-0.0000

> <Gold.Chemscore.Lipo.Weighted>
-6.3221

> <Gold.Chemscore.Internal_Hbond.Weighted>
0.0000

> <Gold.Chemscore.DEClash.Weighted>
0.0571

> <Gold.Chemscore.DEInternal.Weighted>
3.1003

> <Gold.Chemscore.Rot.Weighted>
2.5600

> <Gold.Chemscore.Internal.Correction.Weighted>
   9.000000E+99

> <Gold.Protein.RotatedTorsions>
[ 6907 6896 6895 6894 ] final -177.00 input  -60.11 | X-H torsion
[ 7974 7965 7964 7962 ] final  -55.34 input  175.53 | X-H torsion
[ 8008 7997 7996 7995 ] final -163.80 input   59.86 | X-H torsion
[ 10167 10162 10161 10158 ] final -144.74 input  -65.29 | X-H torsion
[ 10718 10713 10712 10709 ] final   21.84 input   66.30 | X-H torsion
[ 10763 10752 10751 10750 ] final -111.58 input  -60.55 | X-H torsion
[ 11005 11000 10999 10996 ] final -117.53 input  -57.11 | X-H torsion

> <Gold.Protein.ActiveResidues>
 VAL166  LYS551  ARG553  GLY616  TRP617  ASP618  TYR619  PRO620  LYS621  CYS622 
 ASP623  PHE694  ASN695  SER759  ASP760  ASP761  ALA762  ILE779  LEU786  VAL792 
 PHE793  MET794  SER795  GLU796  ALA797  LYS798  CYS799  TRP800  GLU811  SER814 

> <Gold.Protein.RotatedAtoms>
  151.6139  133.3345  159.3073 H   0  0  0  0  0  0  0  0  0  0  0  0  # atno 6907 bound_to 6896
  150.8141  134.7317  159.6726 H   0  0  0  0  0  0  0  0  0  0  0  0  # atno 6908 bound_to 6896
  152.4238  134.5912  160.0026 H   0  0  0  0  0  0  0  0  0  0  0  0  # atno 6909 bound_to 6896
  145.8753  140.8185  142.9867 H   0  0  0  0  0  0  0  0  0  0  0  0  # atno 7974 bound_to 7965
  155.8265  140.0927  157.1818 H   0  0  0  0  0  0  0  0  0  0  0  0  # atno 8008 bound_to 7997
  154.3979  140.1427  156.3623 H   0  0  0  0  0  0  0  0  0  0  0  0  # atno 8009 bound_to 7997
  155.8211  140.3446  155.5517 H   0  0  0  0  0  0  0  0  0  0  0  0  # atno 8010 bound_to 7997
  139.7871  143.8018  152.2646 H   0  0  0  0  0  0  0  0  0  0  0  0  # atno 10167 bound_to 10162
  157.1440  130.6645  149.5990 H   0  0  0  0  0  0  0  0  0  0  0  0  # atno 10718 bound_to 10713
  154.8307  135.4522  154.1061 H   0  0  0  0  0  0  0  0  0  0  0  0  # atno 10763 bound_to 10752
  153.2336  135.6908  153.7868 H   0  0  0  0  0  0  0  0  0  0  0  0  # atno 10764 bound_to 10752
  153.7241  135.3337  155.3249 H   0  0  0  0  0  0  0  0  0  0  0  0  # atno 10765 bound_to 10752
  141.0348  133.9926  157.3087 H   0  0  0  0  0  0  0  0  0  0  0  0  # atno 11005 bound_to 11000
  144.6726  140.1301  143.7444 LP  0  0  0  0  0  0  0  0  0  0  0  0  # atno 17320 bound_to 7965
  145.9088  139.2474  143.1450 LP  0  0  0  0  0  0  0  0  0  0  0  0  # atno 17321 bound_to 7965
  139.8099  144.7340  150.9712 LP  0  0  0  0  0  0  0  0  0  0  0  0  # atno 17342 bound_to 10162
  140.7820  143.4261  151.0765 LP  0  0  0  0  0  0  0  0  0  0  0  0  # atno 17343 bound_to 10162
  155.9783  130.4768  150.6647 LP  0  0  0  0  0  0  0  0  0  0  0  0  # atno 17370 bound_to 10713
  157.4281  131.0845  151.1065 LP  0  0  0  0  0  0  0  0  0  0  0  0  # atno 17371 bound_to 10713
  139.9233  135.0201  156.8144 LP  0  0  0  0  0  0  0  0  0  0  0  0  # atno 17394 bound_to 11000
  140.6341  133.9878  155.7676 LP  0  0  0  0  0  0  0  0  0  0  0  0  # atno 17395 bound_to 11000

$$$$
