AV-unprocessed.smi:249|AV-procd|sdf|1921|dock7
  -GOLD-   2262021 23D 1   1.00000     0.00000
 Structure written by MMmdl.
 64 67  0  0  0  0  0  0  0  0  2 V2000
  153.3912  142.8572  161.2895 C   0  0  0  0  0  0  0  0  0  0  0  0
  152.4456  143.6399  160.3632 C   0  0  0  0  0  0  0  0  0  0  0  0
  152.1496  142.9389  159.0795 N   0  3  1  0  0  0  0  0  0  0  0  0
  151.9858  141.4686  159.2771 C   0  0  0  0  0  0  0  0  0  0  0  0
  151.7954  140.7212  157.9500 C   0  0  0  0  0  0  0  0  0  0  0  0
  150.5845  141.2796  157.1949 C   0  0  2  0  0  0  0  0  0  0  0  0
  150.3347  140.5676  155.9385 N   0  0  0  0  0  0  0  0  0  0  0  0
  151.2809  139.5801  155.4244 C   0  0  0  0  0  0  0  0  0  0  0  0
  149.0887  140.6038  155.3994 C   0  0  0  0  0  0  0  0  0  0  0  0
  148.8934  140.0689  154.1652 N   0  0  0  0  0  0  0  0  0  0  0  0
  147.6789  140.0767  153.6085 C   0  0  0  0  0  0  0  0  0  0  0  0
  146.5398  140.5679  154.0990 N   0  0  0  0  0  0  0  0  0  0  0  0
  146.7307  141.1243  155.3290 C   0  0  0  0  0  0  0  0  0  0  0  0
  147.9589  141.1828  156.0477 C   0  0  0  0  0  0  0  0  0  0  0  0
  147.7620  141.8327  157.2616 N   0  0  0  0  0  0  0  0  0  0  0  0
  146.4910  142.1274  157.2663 C   0  0  0  0  0  0  0  0  0  0  0  0
  145.7997  141.7555  156.1357 N   0  0  0  0  0  0  0  0  0  0  0  0
  144.3846  141.9575  155.8796 C   0  0  0  0  0  0  0  0  0  0  0  0
  143.9779  143.4282  155.5988 C   0  0  1  0  0  0  0  0  0  0  0  0
  144.3547  143.7896  154.1432 C   0  0  0  0  0  0  0  0  0  0  0  0
  143.2522  143.6513  153.2698 O   0  0  0  0  0  0  0  0  0  0  0  0
  142.4932  143.7618  155.9295 C   0  0  2  0  0  0  0  0  0  0  0  0
  142.0975  145.2088  155.6785 C   0  0  0  0  0  0  0  0  0  0  0  0
  140.8164  145.3363  156.4888 C   0  0  0  0  0  0  0  0  0  0  0  0
  141.0655  144.5776  157.6618 O   0  0  0  0  0  0  0  0  0  0  0  0
  142.0838  143.6148  157.4046 C   0  0  0  0  0  0  0  0  0  0  0  0
  150.7791  142.7864  156.9833 C   0  0  0  0  0  0  0  0  0  0  0  0
  150.9954  143.5268  158.3212 C   0  0  2  0  0  0  0  0  0  0  0  0
  151.1624  145.0324  158.0274 C   0  0  0  0  0  0  0  0  0  0  0  0
  153.6994  143.4804  162.1294 H   0  0  0  0  0  0  0  0  0  0  0  0
  154.2942  142.5463  160.7635 H   0  0  0  0  0  0  0  0  0  0  0  0
  152.9199  141.9715  161.7143 H   0  0  0  0  0  0  0  0  0  0  0  0
  151.5150  143.8756  160.8813 H   0  0  0  0  0  0  0  0  0  0  0  0
  152.9424  144.5881  160.1708 H   0  0  0  0  0  0  0  0  0  0  0  0
  152.8607  141.0454  159.7670 H   0  0  0  0  0  0  0  0  0  0  0  0
  151.1354  141.2831  159.9355 H   0  0  0  0  0  0  0  0  0  0  0  0
  152.7013  140.8135  157.3495 H   0  0  0  0  0  0  0  0  0  0  0  0
  151.6563  139.6569  158.1439 H   0  0  0  0  0  0  0  0  0  0  0  0
  149.7297  141.1454  157.8567 H   0  0  0  0  0  0  0  0  0  0  0  0
  151.2549  139.5512  154.3344 H   0  0  0  0  0  0  0  0  0  0  0  0
  151.0382  138.5862  155.8013 H   0  0  0  0  0  0  0  0  0  0  0  0
  152.3018  139.8137  155.7235 H   0  0  0  0  0  0  0  0  0  0  0  0
  147.6103  139.6252  152.6298 H   0  0  0  0  0  0  0  0  0  0  0  0
  146.0231  142.6415  158.0935 H   0  0  0  0  0  0  0  0  0  0  0  0
  144.1201  141.3299  155.0277 H   0  0  0  0  0  0  0  0  0  0  0  0
  143.8224  141.5693  156.7298 H   0  0  0  0  0  0  0  0  0  0  0  0
  144.5983  144.0656  156.2294 H   0  0  0  0  0  0  0  0  0  0  0  0
  144.7330  144.8093  154.0751 H   0  0  0  0  0  0  0  0  0  0  0  0
  145.1606  143.1456  153.7895 H   0  0  0  0  0  0  0  0  0  0  0  0
  142.8281  142.8258  153.4484 H   0  0  0  0  0  0  0  0  0  0  0  0
  141.8402  143.1280  155.3270 H   0  0  0  0  0  0  0  0  0  0  0  0
  142.8562  145.8880  156.0708 H   0  0  0  0  0  0  0  0  0  0  0  0
  141.9439  145.4373  154.6234 H   0  0  0  0  0  0  0  0  0  0  0  0
  140.5652  146.3707  156.7245 H   0  0  0  0  0  0  0  0  0  0  0  0
  139.9776  144.8931  155.9504 H   0  0  0  0  0  0  0  0  0  0  0  0
  141.7138  142.6155  157.6300 H   0  0  0  0  0  0  0  0  0  0  0  0
  142.9201  143.8251  158.0721 H   0  0  0  0  0  0  0  0  0  0  0  0
  151.6296  142.9711  156.3261 H   0  0  0  0  0  0  0  0  0  0  0  0
  149.9036  143.1919  156.4742 H   0  0  0  0  0  0  0  0  0  0  0  0
  150.0967  143.3996  158.9272 H   0  0  0  0  0  0  0  0  0  0  0  0
  150.3925  145.3822  157.3390 H   0  0  0  0  0  0  0  0  0  0  0  0
  152.1297  145.2448  157.5711 H   0  0  0  0  0  0  0  0  0  0  0  0
  151.0628  145.6449  158.9228 H   0  0  0  0  0  0  0  0  0  0  0  0
  152.9627  143.0630  158.4933 H   0  0  0  0  0  0  0  0  0  0  0  0
  1  2  1  0  0  0  0
  1 30  1  0  0  0  0
  1 31  1  0  0  0  0
  1 32  1  0  0  0  0
  2  3  1  0  0  0  0
  2 33  1  0  0  0  0
  2 34  1  0  0  0  0
  3 28  1  0  0  0  0
  3  4  1  0  0  0  0
  3 64  1  0  0  0  0
  4  5  1  0  0  0  0
  4 35  1  0  0  0  0
  4 36  1  0  0  0  0
  5  6  1  0  0  0  0
  5 37  1  0  0  0  0
  5 38  1  0  0  0  0
  6  7  1  0  0  0  0
  6 27  1  0  0  0  0
  6 39  1  0  0  0  0
  7  8  1  0  0  0  0
  7  9  1  0  0  0  0
  8 40  1  0  0  0  0
  8 41  1  0  0  0  0
  8 42  1  0  0  0  0
  9 14  1  0  0  0  0
  9 10  2  0  0  0  0
 10 11  1  0  0  0  0
 11 12  2  0  0  0  0
 11 43  1  0  0  0  0
 12 13  1  0  0  0  0
 13 17  1  0  0  0  0
 13 14  2  0  0  0  0
 14 15  1  0  0  0  0
 15 16  2  0  0  0  0
 16 17  1  0  0  0  0
 16 44  1  0  0  0  0
 17 18  1  0  0  0  0
 18 19  1  0  0  0  0
 18 45  1  0  0  0  0
 18 46  1  0  0  0  0
 19 20  1  0  0  0  0
 19 22  1  0  0  0  0
 19 47  1  0  0  0  0
 20 21  1  0  0  0  0
 20 48  1  0  0  0  0
 20 49  1  0  0  0  0
 21 50  1  0  0  0  0
 22 26  1  0  0  0  0
 22 23  1  0  0  0  0
 22 51  1  0  0  0  0
 23 24  1  0  0  0  0
 23 52  1  0  0  0  0
 23 53  1  0  0  0  0
 24 25  1  0  0  0  0
 24 54  1  0  0  0  0
 24 55  1  0  0  0  0
 25 26  1  0  0  0  0
 26 56  1  0  0  0  0
 26 57  1  0  0  0  0
 27 28  1  0  0  0  0
 27 58  1  0  0  0  0
 27 59  1  0  0  0  0
 28 29  1  0  0  0  0
 28 60  1  0  0  0  0
 29 61  1  0  0  0  0
 29 62  1  0  0  0  0
 29 63  1  0  0  0  0
M  CHG  1   3   1
M  END
> <s_m_source_file>
AV-unprocessed.smi

> <i_m_source_file_index>
249

> <i_lp_mmshare_version>
43012

> <i_f3d_flags>
0

> <s_epik_input>
W0NIM11bQ0gyXU4xW0NIMl1bQ0gyXVtDQEhdKFtDSDJdW0NASF0xW0NIM10pTihbQ0gzXSljKG5bY0hdbjIpYyhjMjMpbltjSF1uM1tDSDJdW0NASF0oW0NIMl1bT0hdKVtDQEBIXTRbQ0gyXVtDSDJdT1tDSDJdNA==

> <s_epik_cmdline>
J2VwaWtfcHl0aG9uJywgJy1waCcsICc3LjAnLCAnLXRuJywgJzgnLCAnLW1hJywgJzIwMCcsICctbWV0YWxfYmluZGluZycsICctaW1hZScsICc8aW5maWxlLm1hZT4nLCAnLW9tYWUnLCAnPG91dGZpbGUubWFlPic=

> <r_lp_tautomer_probability>
1

> <r_epik_Ionization_Penalty>
0.00294688

> <r_epik_Ionization_Penalty_Charging>
0.00169971

> <r_epik_Ionization_Penalty_Neutral>
0.00124717

> <r_epik_State_Penalty>
-0

> <r_epik_Charging_Adjusted_Penalty>
0.00169971

> <i_epik_Tot_Q>
1

> <i_epik_Tot_abs_Q>
1

> <r_epik_Metal_State_Penalty>
-0

> <b_epik_Metal_Only>
0

> <s_lp_Force_Field>
OPLS_2005

> <r_lp_Energy>
53.8216

> <b_lp_Chiralities_Consistent>
1

> <s_lp_Variant>
AV-unprocessed.smi:249-24

> <Gold.Version>
5.8.1

> <Gold.Id.Protein>
6NUR|6NUR_protein|mol2

> <Gold.PLP.Fitness>
52.8999

> <Gold.PLP.PLP>
-49.6901

> <Gold.PLP.part.hbond>
-2.0000

> <Gold.PLP.part.metal>
0.0000

> <Gold.PLP.part.buried>
-7.8562

> <Gold.PLP.part.nonpolar>
-43.4407

> <Gold.PLP.part.repulsive>
2.5669

> <Gold.PLP.ligand.clash>
0.0000

> <Gold.PLP.ligand.torsion>
1.3703

> <Gold.PLP.Chemscore.Hbond>
1.0000

> <Gold.PLP.Chemscore.CHOScore>
0.8285

> <Gold.PLP.Chemscore.Metal>
0.0000

> <Gold.Chemscore.Hbonds>
donor molecule, donor type, donor heavy atom, donor atom, acceptor molecule, acceptor atom, score
      L1  C    11    43       P1  7957  0.70

> <Gold.PLP.Chemscore.Internal.Correction>
0.4649

> <Gold.Rescore>
     Score         DG    S(hbond)    S(metal)    S(lipo)     H(rot)  DE(clash)    DE(int)     intcor
     10.83     -14.64       0.87        0.00     111.33       2.65       1.37       2.43       ----

> <Gold.Chemscore.Fitness>
10.8317

> <Gold.Chemscore.DG>
-14.6375

> <Gold.Chemscore.ZeroCoef>
-5.4800

> <Gold.Chemscore.Hbond>
0.8742

> <Gold.Chemscore.Metal>
0.0000

> <Gold.Chemscore.Lipo>
111.3313

> <Gold.Chemscore.Internal_Hbond>
0.0000

> <Gold.Chemscore.DEClash>
1.3724

> <Gold.Chemscore.DEInternal>
2.4334

> <Gold.Chemscore.Rot>
2.6515

> <Gold.Chemscore.Internal.Correction>
   9.000000E+99

> <Gold.Chemscore.Hbonds>
donor molecule, donor type, donor heavy atom, donor atom, acceptor molecule, acceptor atom, score
      L1  H    21    50       P1 10174  0.01

> <Gold.Chemscore.Hbond.Weighted>
-2.9197

> <Gold.Chemscore.Metal.Weighted>
-0.0000

> <Gold.Chemscore.Lipo.Weighted>
-13.0258

> <Gold.Chemscore.Internal_Hbond.Weighted>
0.0000

> <Gold.Chemscore.DEClash.Weighted>
1.3724

> <Gold.Chemscore.DEInternal.Weighted>
2.4334

> <Gold.Chemscore.Rot.Weighted>
6.7880

> <Gold.Chemscore.Internal.Correction.Weighted>
   9.000000E+99

> <Gold.Protein.RotatedTorsions>
[ 6907 6896 6895 6894 ] final  175.53 input  -60.11 | X-H torsion
[ 7974 7965 7964 7962 ] final  177.44 input  175.53 | X-H torsion
[ 8008 7997 7996 7995 ] final  -50.28 input   59.86 | X-H torsion
[ 10167 10162 10161 10158 ] final  174.17 input  -65.29 | X-H torsion
[ 10718 10713 10712 10709 ] final  -78.09 input   66.30 | X-H torsion
[ 10763 10752 10751 10750 ] final   72.05 input  -60.55 | X-H torsion
[ 11005 11000 10999 10996 ] final  123.53 input  -57.11 | X-H torsion

> <Gold.Protein.ActiveResidues>
 VAL166  LYS551  ARG553  GLY616  TRP617  ASP618  TYR619  PRO620  LYS621  CYS622 
 ASP623  PHE694  ASN695  SER759  ASP760  ASP761  ALA762  ILE779  LEU786  VAL792 
 PHE793  MET794  SER795  GLU796  ALA797  LYS798  CYS799  TRP800  GLU811  SER814 

> <Gold.Protein.RotatedAtoms>
  151.7348  133.3319  159.3349 H   0  0  0  0  0  0  0  0  0  0  0  0  # atno 6907 bound_to 6896
  150.7598  134.6331  159.6206 H   0  0  0  0  0  0  0  0  0  0  0  0  # atno 6908 bound_to 6896
  152.3569  134.6930  160.0271 H   0  0  0  0  0  0  0  0  0  0  0  0  # atno 6909 bound_to 6896
  144.7169  140.0248  143.6439 H   0  0  0  0  0  0  0  0  0  0  0  0  # atno 7974 bound_to 7965
  154.4059  140.1276  156.4639 H   0  0  0  0  0  0  0  0  0  0  0  0  # atno 8008 bound_to 7997
  155.7245  140.3492  155.5011 H   0  0  0  0  0  0  0  0  0  0  0  0  # atno 8009 bound_to 7997
  155.9184  140.1048  157.1216 H   0  0  0  0  0  0  0  0  0  0  0  0  # atno 8010 bound_to 7997
  139.5133  144.3177  152.0232 H   0  0  0  0  0  0  0  0  0  0  0  0  # atno 10167 bound_to 10162
  156.0127  130.4508  150.3443 H   0  0  0  0  0  0  0  0  0  0  0  0  # atno 10718 bound_to 10713
  153.0435  135.5114  154.7685 H   0  0  0  0  0  0  0  0  0  0  0  0  # atno 10763 bound_to 10752
  154.6603  135.2938  154.9877 H   0  0  0  0  0  0  0  0  0  0  0  0  # atno 10764 bound_to 10752
  154.0730  135.6675  153.4879 H   0  0  0  0  0  0  0  0  0  0  0  0  # atno 10765 bound_to 10752
  139.9317  134.9641  156.8274 H   0  0  0  0  0  0  0  0  0  0  0  0  # atno 11005 bound_to 11000
  146.0151  139.3203  143.0847 LP  0  0  0  0  0  0  0  0  0  0  0  0  # atno 17320 bound_to 7965
  145.8635  140.9461  143.0687 LP  0  0  0  0  0  0  0  0  0  0  0  0  # atno 17321 bound_to 7965
  140.2620  144.4057  150.6182 LP  0  0  0  0  0  0  0  0  0  0  0  0  # atno 17342 bound_to 10162
  140.6150  143.2172  151.6809 LP  0  0  0  0  0  0  0  0  0  0  0  0  # atno 17343 bound_to 10162
  157.1538  131.0327  151.2873 LP  0  0  0  0  0  0  0  0  0  0  0  0  # atno 17370 bound_to 10713
  157.4370  130.7522  149.7037 LP  0  0  0  0  0  0  0  0  0  0  0  0  # atno 17371 bound_to 10713
  140.6184  134.0017  155.7607 LP  0  0  0  0  0  0  0  0  0  0  0  0  # atno 17394 bound_to 11000
  141.0909  133.9918  157.3238 LP  0  0  0  0  0  0  0  0  0  0  0  0  # atno 17395 bound_to 11000

$$$$
