AV-unprocessed.smi:162|AV-procd|sdf|1378|dock6
  -GOLD-   2262019103D 1   1.00000     0.00000
 Structure written by MMmdl.
 54 57  0  0  0  0  0  0  0  0  1 V2000
  152.1781  139.3274  155.3002 C   0  0  0  0  0  0  0  0  0  0  0  0
  151.4303  140.5257  155.2005 O   0  0  0  0  0  0  0  0  0  0  0  0
  150.3050  140.5414  156.0638 C   0  0  0  0  0  0  0  0  0  0  0  0
  150.6842  141.2459  157.3766 C   0  0  2  0  0  0  0  0  0  0  0  0
  150.8797  142.7526  157.2327 C   0  0  0  0  0  0  0  0  0  0  0  0
  151.6454  143.0957  158.5136 C   0  0  2  0  0  0  0  0  0  0  0  0
  152.4705  144.2446  158.3859 O   0  0  0  0  0  0  0  0  0  0  0  0
  152.0776  145.3222  159.2203 C   0  0  0  0  0  0  0  0  0  0  0  0
  152.4952  141.8428  158.7750 C   0  0  0  0  0  0  0  0  0  0  0  0
  151.9570  140.7892  157.9222 N   0  0  0  0  0  0  0  0  0  0  0  0
  151.9853  139.5525  158.4630 C   0  0  0  0  0  0  0  0  0  0  0  0
  150.7991  138.9072  158.5772 N   0  0  0  0  0  0  0  0  0  0  0  0
  150.7539  137.6842  159.1140 C   0  0  0  0  0  0  0  0  0  0  0  0
  151.7572  136.9418  159.5876 N   0  0  0  0  0  0  0  0  0  0  0  0
  152.9526  137.5875  159.4659 C   0  0  0  0  0  0  0  0  0  0  0  0
  153.1577  138.8839  158.9158 C   0  0  0  0  0  0  0  0  0  0  0  0
  154.5097  139.2045  158.9501 N   0  0  0  0  0  0  0  0  0  0  0  0
  155.0699  138.1616  159.4996 C   0  0  0  0  0  0  0  0  0  0  0  0
  154.2090  137.1413  159.8363 N   0  0  0  0  0  0  0  0  0  0  0  0
  154.5585  135.8729  160.4578 C   0  0  0  0  0  0  0  0  0  0  0  0
  154.6771  135.9407  162.0002 C   0  0  0  0  0  0  0  0  0  0  0  0
  155.9129  136.5632  162.3082 O   0  0  0  0  0  0  0  0  0  0  0  0
  153.5400  136.7990  162.5904 C   0  0  0  0  0  0  0  0  0  0  0  0
  153.5236  136.7607  164.1290 C   0  0  0  0  0  0  0  0  0  0  0  0
  153.4407  135.4144  164.5805 O   0  0  0  0  0  0  0  0  0  0  0  0
  154.5672  134.6352  164.1969 C   0  0  0  0  0  0  0  0  0  0  0  0
  154.6535  134.5454  162.6627 C   0  0  0  0  0  0  0  0  0  0  0  0
  149.8877  141.0857  158.1032 H   0  0  0  0  0  0  0  0  0  0  0  0
  150.9433  143.2164  159.3408 H   0  0  0  0  0  0  0  0  0  0  0  0
  153.0245  139.3668  154.6147 H   0  0  0  0  0  0  0  0  0  0  0  0
  151.5702  138.4613  155.0358 H   0  0  0  0  0  0  0  0  0  0  0  0
  152.5676  139.1887  156.3095 H   0  0  0  0  0  0  0  0  0  0  0  0
  149.4540  141.0357  155.5919 H   0  0  0  0  0  0  0  0  0  0  0  0
  150.0103  139.5119  156.2735 H   0  0  0  0  0  0  0  0  0  0  0  0
  151.4924  142.9725  156.3569 H   0  0  0  0  0  0  0  0  0  0  0  0
  149.9390  143.2954  157.1379 H   0  0  0  0  0  0  0  0  0  0  0  0
  152.7688  146.1543  159.0878 H   0  0  0  0  0  0  0  0  0  0  0  0
  152.0964  145.0349  160.2723 H   0  0  0  0  0  0  0  0  0  0  0  0
  151.0775  145.6783  158.9720 H   0  0  0  0  0  0  0  0  0  0  0  0
  153.5316  142.0146  158.4826 H   0  0  0  0  0  0  0  0  0  0  0  0
  152.4912  141.5754  159.8329 H   0  0  0  0  0  0  0  0  0  0  0  0
  149.7727  137.2366  159.1723 H   0  0  0  0  0  0  0  0  0  0  0  0
  156.1351  138.1046  159.6715 H   0  0  0  0  0  0  0  0  0  0  0  0
  153.8129  135.1321  160.1655 H   0  0  0  0  0  0  0  0  0  0  0  0
  155.5024  135.5367  160.0268 H   0  0  0  0  0  0  0  0  0  0  0  0
  156.3676  136.7427  161.4993 H   0  0  0  0  0  0  0  0  0  0  0  0
  153.6163  137.8297  162.2417 H   0  0  0  0  0  0  0  0  0  0  0  0
  152.5814  136.4250  162.2279 H   0  0  0  0  0  0  0  0  0  0  0  0
  154.4091  137.2428  164.5459 H   0  0  0  0  0  0  0  0  0  0  0  0
  152.6602  137.3094  164.5057 H   0  0  0  0  0  0  0  0  0  0  0  0
  155.4791  135.0621  164.6173 H   0  0  0  0  0  0  0  0  0  0  0  0
  154.4632  133.6370  164.6223 H   0  0  0  0  0  0  0  0  0  0  0  0
  153.7881  133.9903  162.2984 H   0  0  0  0  0  0  0  0  0  0  0  0
  155.5313  133.9633  162.3795 H   0  0  0  0  0  0  0  0  0  0  0  0
  1  2  1  0  0  0  0
  1 30  1  0  0  0  0
  1 31  1  0  0  0  0
  1 32  1  0  0  0  0
  2  3  1  0  0  0  0
  3  4  1  0  0  0  0
  3 33  1  0  0  0  0
  3 34  1  0  0  0  0
  4 28  1  0  0  0  0
  4 10  1  0  0  0  0
  4  5  1  0  0  0  0
  5  6  1  0  0  0  0
  5 35  1  0  0  0  0
  5 36  1  0  0  0  0
  6 29  1  0  0  0  0
  6  7  1  0  0  0  0
  6  9  1  0  0  0  0
  7  8  1  0  0  0  0
  8 37  1  0  0  0  0
  8 38  1  0  0  0  0
  8 39  1  0  0  0  0
  9 10  1  0  0  0  0
  9 40  1  0  0  0  0
  9 41  1  0  0  0  0
 10 11  1  0  0  0  0
 11 16  1  0  0  0  0
 11 12  2  0  0  0  0
 12 13  1  0  0  0  0
 13 14  2  0  0  0  0
 13 42  1  0  0  0  0
 14 15  1  0  0  0  0
 15 19  1  0  0  0  0
 15 16  2  0  0  0  0
 16 17  1  0  0  0  0
 17 18  2  0  0  0  0
 18 19  1  0  0  0  0
 18 43  1  0  0  0  0
 19 20  1  0  0  0  0
 20 21  1  0  0  0  0
 20 44  1  0  0  0  0
 20 45  1  0  0  0  0
 21 27  1  0  0  0  0
 21 22  1  0  0  0  0
 21 23  1  0  0  0  0
 22 46  1  0  0  0  0
 23 24  1  0  0  0  0
 23 47  1  0  0  0  0
 23 48  1  0  0  0  0
 24 25  1  0  0  0  0
 24 49  1  0  0  0  0
 24 50  1  0  0  0  0
 25 26  1  0  0  0  0
 26 27  1  0  0  0  0
 26 51  1  0  0  0  0
 26 52  1  0  0  0  0
 27 53  1  0  0  0  0
 27 54  1  0  0  0  0
M  END
> <s_m_source_file>
AV-unprocessed.smi

> <i_m_source_file_index>
162

> <i_lp_mmshare_version>
43012

> <i_f3d_flags>
0

> <s_epik_input>
W0NIM11PW0NIMl1bQ0BASF0xW0NIMl1bQ0BASF0oT1tDSDNdKVtDSDJdTjFjKG5bY0hdbjIpYyhjMjMpbltjSF1uM1tDSDJdQzQoW09IXSlbQ0gyXVtDSDJdT1tDSDJdW0NIMl00

> <s_epik_cmdline>
J2VwaWtfcHl0aG9uJywgJy1waCcsICc3LjAnLCAnLXRuJywgJzgnLCAnLW1hJywgJzIwMCcsICctbWV0YWxfYmluZGluZycsICctaW1hZScsICc8aW5maWxlLm1hZT4nLCAnLW9tYWUnLCAnPG91dGZpbGUubWFlPic=

> <r_lp_tautomer_probability>
1

> <r_epik_Ionization_Penalty>
0.00660334

> <r_epik_Ionization_Penalty_Charging>
0

> <r_epik_Ionization_Penalty_Neutral>
0.00660334

> <r_epik_State_Penalty>
0.00469459

> <r_epik_Charging_Adjusted_Penalty>
0.00469459

> <i_epik_Tot_Q>
0

> <i_epik_Tot_abs_Q>
0

> <r_epik_Metal_State_Penalty>
-0

> <b_epik_Metal_Only>
0

> <s_lp_Force_Field>
OPLS_2005

> <r_lp_Energy>
44.4659

> <b_lp_Chiralities_Consistent>
1

> <s_lp_Variant>
AV-unprocessed.smi:162-3

> <Gold.Version>
5.8.1

> <Gold.Id.Protein>
6NUR|6NUR_protein|mol2

> <Gold.PLP.Fitness>
50.5882

> <Gold.PLP.PLP>
-44.9912

> <Gold.PLP.part.hbond>
-3.0000

> <Gold.PLP.part.metal>
0.0000

> <Gold.PLP.part.buried>
-7.6180

> <Gold.PLP.part.nonpolar>
-34.5671

> <Gold.PLP.part.repulsive>
0.1503

> <Gold.PLP.ligand.clash>
0.0000

> <Gold.PLP.ligand.torsion>
1.6341

> <Gold.PLP.Chemscore.Hbond>
2.8960

> <Gold.PLP.Chemscore.CHOScore>
0.0000

> <Gold.PLP.Chemscore.Metal>
0.0000

> <Gold.Chemscore.Hbonds>
donor molecule, donor type, donor heavy atom, donor atom, acceptor molecule, acceptor atom, score
      P1  H  6896  6908       L1    14  1.00
      P1  H  7989  7998       L1     2  0.86
      P1  H  7997  8008       L1    17  1.00

> <Gold.PLP.Chemscore.Internal.Correction>
0.1773

> <Gold.Rescore>
     Score         DG    S(hbond)    S(metal)    S(lipo)     H(rot)  DE(clash)    DE(int)     intcor
     18.11     -19.83       2.76        0.00     106.44       2.86       0.05       1.68       ----

> <Gold.Chemscore.Fitness>
18.1113

> <Gold.Chemscore.DG>
-19.8346

> <Gold.Chemscore.ZeroCoef>
-5.4800

> <Gold.Chemscore.Hbond>
2.7646

> <Gold.Chemscore.Metal>
0.0000

> <Gold.Chemscore.Lipo>
106.4375

> <Gold.Chemscore.Internal_Hbond>
0.0000

> <Gold.Chemscore.DEClash>
0.0463

> <Gold.Chemscore.DEInternal>
1.6770

> <Gold.Chemscore.Rot>
2.8642

> <Gold.Chemscore.Internal.Correction>
   9.000000E+99

> <Gold.Chemscore.Hbonds>
donor molecule, donor type, donor heavy atom, donor atom, acceptor molecule, acceptor atom, score
      P1  H  6896  6908       L1    14  0.99
      P1  H  7989  7998       L1     2  0.22
      P1  H  7997  8008       L1    17  0.92

> <Gold.Chemscore.Hbond.Weighted>
-9.2338

> <Gold.Chemscore.Metal.Weighted>
-0.0000

> <Gold.Chemscore.Lipo.Weighted>
-12.4532

> <Gold.Chemscore.Internal_Hbond.Weighted>
0.0000

> <Gold.Chemscore.DEClash.Weighted>
0.0463

> <Gold.Chemscore.DEInternal.Weighted>
1.6770

> <Gold.Chemscore.Rot.Weighted>
7.3324

> <Gold.Chemscore.Internal.Correction.Weighted>
   9.000000E+99

> <Gold.Protein.RotatedTorsions>
[ 6907 6896 6895 6894 ] final -120.82 input  -60.11 | X-H torsion
[ 7974 7965 7964 7962 ] final  -65.49 input  175.53 | X-H torsion
[ 8008 7997 7996 7995 ] final -131.41 input   59.86 | X-H torsion
[ 10167 10162 10161 10158 ] final -135.83 input  -65.29 | X-H torsion
[ 10718 10713 10712 10709 ] final  179.21 input   66.30 | X-H torsion
[ 10763 10752 10751 10750 ] final -115.56 input  -60.55 | X-H torsion
[ 11005 11000 10999 10996 ] final -140.75 input  -57.11 | X-H torsion

> <Gold.Protein.ActiveResidues>
 VAL166  LYS551  ARG553  GLY616  TRP617  ASP618  TYR619  PRO620  LYS621  CYS622 
 ASP623  PHE694  ASN695  SER759  ASP760  ASP761  ALA762  ILE779  LEU786  VAL792 
 PHE793  MET794  SER795  GLU796  ALA797  LYS798  CYS799  TRP800  GLU811  SER814 

> <Gold.Protein.RotatedAtoms>
  150.8427  133.7910  159.3054 H   0  0  0  0  0  0  0  0  0  0  0  0  # atno 6907 bound_to 6896
  151.5606  135.1064  159.9981 H   0  0  0  0  0  0  0  0  0  0  0  0  # atno 6908 bound_to 6896
  152.4488  133.7545  159.6768 H   0  0  0  0  0  0  0  0  0  0  0  0  # atno 6909 bound_to 6896
  145.7536  140.8896  143.0467 H   0  0  0  0  0  0  0  0  0  0  0  0  # atno 7974 bound_to 7965
  155.3118  140.0458  157.3035 H   0  0  0  0  0  0  0  0  0  0  0  0  # atno 8008 bound_to 7997
  154.5428  140.2293  155.8579 H   0  0  0  0  0  0  0  0  0  0  0  0  # atno 8009 bound_to 7997
  156.1897  140.3054  155.9314 H   0  0  0  0  0  0  0  0  0  0  0  0  # atno 8010 bound_to 7997
  139.8739  143.6923  152.2636 H   0  0  0  0  0  0  0  0  0  0  0  0  # atno 10167 bound_to 10162
  156.8791  130.9810  151.3064 H   0  0  0  0  0  0  0  0  0  0  0  0  # atno 10718 bound_to 10713
  154.8486  135.4377  154.1682 H   0  0  0  0  0  0  0  0  0  0  0  0  # atno 10763 bound_to 10752
  153.2802  135.6953  153.7399 H   0  0  0  0  0  0  0  0  0  0  0  0  # atno 10764 bound_to 10752
  153.6606  135.3435  155.3101 H   0  0  0  0  0  0  0  0  0  0  0  0  # atno 10765 bound_to 10752
  140.8392  134.2422  157.4818 H   0  0  0  0  0  0  0  0  0  0  0  0  # atno 11005 bound_to 11000
  144.6844  139.9625  143.7480 LP  0  0  0  0  0  0  0  0  0  0  0  0  # atno 17320 bound_to 7965
  146.0333  139.3354  143.0742 LP  0  0  0  0  0  0  0  0  0  0  0  0  # atno 17321 bound_to 7965
  139.7258  144.7593  151.0881 LP  0  0  0  0  0  0  0  0  0  0  0  0  # atno 17342 bound_to 10162
  140.7756  143.5150  150.9606 LP  0  0  0  0  0  0  0  0  0  0  0  0  # atno 17343 bound_to 10162
  157.6151  130.8612  149.9014 LP  0  0  0  0  0  0  0  0  0  0  0  0  # atno 17370 bound_to 10713
  156.0686  130.3688  150.0824 LP  0  0  0  0  0  0  0  0  0  0  0  0  # atno 17371 bound_to 10713
  139.8703  134.9627  156.4436 LP  0  0  0  0  0  0  0  0  0  0  0  0  # atno 17394 bound_to 11000
  140.8913  133.7846  155.9575 LP  0  0  0  0  0  0  0  0  0  0  0  0  # atno 17395 bound_to 11000

$$$$
