AV-unprocessed.smi:3292|AV-procd|sdf|12623|dock3
  -GOLD-   2272018553D 1   1.00000     0.00000
 Structure written by MMmdl.
 39 40  0  0  0  0  0  0  0  0  2 V2000
  148.0475  131.5096  153.5377 C   0  0  0  0  0  0  0  0  0  0  0  0
  147.3041  132.7870  153.1251 C   0  0  2  0  0  0  0  0  0  0  0  0
  146.8536  132.7208  151.6482 C   0  0  0  0  0  0  0  0  0  0  0  0
  145.7602  133.6503  151.3389 N   0  0  0  0  0  0  0  0  0  0  0  0
  145.8012  135.0207  151.3668 C   0  0  0  0  0  0  0  0  0  0  0  0
  144.5607  135.4568  150.9779 C   0  0  0  0  0  0  0  0  0  0  0  0
  143.8127  134.3356  150.7374 N   0  3  0  0  0  0  0  0  0  0  0  0
  144.5412  133.2383  150.9659 C   0  0  0  0  0  0  0  0  0  0  0  0
  148.1743  133.9400  153.3564 N   0  0  0  0  0  0  0  0  0  0  0  0
  148.8395  134.1923  154.4932 C   0  0  0  0  0  0  0  0  0  0  0  0
  148.8555  133.4375  155.4659 O   0  0  0  0  0  0  0  0  0  0  0  0
  149.4328  135.3931  154.4686 N   0  0  0  0  0  0  0  0  0  0  0  0
  150.0853  136.0193  155.6138 C   0  0  0  0  0  0  0  0  0  0  0  0
  150.2045  137.5481  155.4438 C   0  0  1  0  0  0  0  0  0  0  0  0
  150.9323  138.2493  156.5810 C   0  0  0  0  0  0  0  0  0  0  0  0
  151.6304  139.4340  155.9025 C   0  0  0  0  0  0  0  0  0  0  0  0
  151.2880  139.3528  154.5238 O   0  0  0  0  0  0  0  0  0  0  0  0
  151.0065  137.9969  154.2251 C   0  0  0  0  0  0  0  0  0  0  0  0
  147.4161  130.6299  153.4092 H   0  0  0  0  0  0  0  0  0  0  0  0
  148.3453  131.5489  154.5859 H   0  0  0  0  0  0  0  0  0  0  0  0
  148.9480  131.3621  152.9399 H   0  0  0  0  0  0  0  0  0  0  0  0
  146.4191  132.8635  153.7597 H   0  0  0  0  0  0  0  0  0  0  0  0
  147.6889  132.9293  150.9775 H   0  0  0  0  0  0  0  0  0  0  0  0
  146.4984  131.7182  151.4063 H   0  0  0  0  0  0  0  0  0  0  0  0
  146.6905  135.5693  151.6417 H   0  0  0  0  0  0  0  0  0  0  0  0
  144.1655  136.4545  150.8550 H   0  0  0  0  0  0  0  0  0  0  0  0
  144.2130  132.2204  150.8537 H   0  0  0  0  0  0  0  0  0  0  0  0
  148.2315  134.6211  152.6131 H   0  0  0  0  0  0  0  0  0  0  0  0
  149.3751  135.9394  153.6214 H   0  0  0  0  0  0  0  0  0  0  0  0
  149.5377  135.7806  156.5272 H   0  0  0  0  0  0  0  0  0  0  0  0
  151.0754  135.5753  155.7213 H   0  0  0  0  0  0  0  0  0  0  0  0
  149.2079  137.9863  155.3686 H   0  0  0  0  0  0  0  0  0  0  0  0
  150.2425  138.5686  157.3629 H   0  0  0  0  0  0  0  0  0  0  0  0
  151.6755  137.5953  157.0390 H   0  0  0  0  0  0  0  0  0  0  0  0
  151.3147  140.3922  156.3157 H   0  0  0  0  0  0  0  0  0  0  0  0
  152.7127  139.3564  156.0141 H   0  0  0  0  0  0  0  0  0  0  0  0
  151.9393  137.4377  154.1337 H   0  0  0  0  0  0  0  0  0  0  0  0
  150.4512  137.9004  153.2922 H   0  0  0  0  0  0  0  0  0  0  0  0
  142.8481  134.3343  150.4294 H   0  0  0  0  0  0  0  0  0  0  0  0
  1  2  1  0  0  0  0
  1 19  1  0  0  0  0
  1 20  1  0  0  0  0
  1 21  1  0  0  0  0
  2  3  1  0  0  0  0
  2  9  1  0  0  0  0
  2 22  1  0  0  0  0
  3  4  1  0  0  0  0
  3 23  1  0  0  0  0
  3 24  1  0  0  0  0
  4  8  1  0  0  0  0
  4  5  1  0  0  0  0
  5  6  2  0  0  0  0
  5 25  1  0  0  0  0
  6  7  1  0  0  0  0
  6 26  1  0  0  0  0
  7  8  2  0  0  0  0
  7 39  1  0  0  0  0
  8 27  1  0  0  0  0
  9 10  1  0  0  0  0
  9 28  1  0  0  0  0
 10 11  2  0  0  0  0
 10 12  1  0  0  0  0
 12 13  1  0  0  0  0
 12 29  1  0  0  0  0
 13 14  1  0  0  0  0
 13 30  1  0  0  0  0
 13 31  1  0  0  0  0
 14 18  1  0  0  0  0
 14 15  1  0  0  0  0
 14 32  1  0  0  0  0
 15 16  1  0  0  0  0
 15 33  1  0  0  0  0
 15 34  1  0  0  0  0
 16 17  1  0  0  0  0
 16 35  1  0  0  0  0
 16 36  1  0  0  0  0
 17 18  1  0  0  0  0
 18 37  1  0  0  0  0
 18 38  1  0  0  0  0
M  CHG  1   7   1
M  END
> <s_m_source_file>
AV-unprocessed.smi

> <i_m_source_file_index>
3292

> <i_lp_mmshare_version>
43012

> <i_f3d_flags>
0

> <s_epik_input>
W2NIXTFuW2NIXVtjSF1uMVtDSDJdW0NAQEhdKFtDSDNdKVtOSF1DKD1PKVtOSF1bQ0gyXVtDQEBIXTJbQ0gyXVtDSDJdT1tDSDJdMg==

> <s_epik_cmdline>
J2VwaWtfcHl0aG9uJywgJy1waCcsICc3LjAnLCAnLXRuJywgJzgnLCAnLW1hJywgJzIwMCcsICctbWV0YWxfYmluZGluZycsICctaW1hZScsICc8aW5maWxlLm1hZT4nLCAnLW9tYWUnLCAnPG91dGZpbGUubWFlPic=

> <r_lp_tautomer_probability>
1

> <r_epik_Ionization_Penalty>
0.255703

> <r_epik_Ionization_Penalty_Charging>
0

> <r_epik_Ionization_Penalty_Neutral>
0.255703

> <r_epik_State_Penalty>
0.247169

> <r_epik_Charging_Adjusted_Penalty>
0.247169

> <i_epik_Tot_Q>
1

> <i_epik_Tot_abs_Q>
1

> <r_epik_Metal_State_Penalty>
0.536791

> <b_epik_Metal_Only>
0

> <s_lp_Force_Field>
OPLS_2005

> <r_lp_Energy>
18.6884

> <b_lp_Chiralities_Consistent>
1

> <s_lp_Variant>
AV-unprocessed.smi:3292-3

> <Gold.Version>
5.8.1

> <Gold.Id.Protein>
6NUR|6NUR_protein|mol2

> <Gold.PLP.Fitness>
48.0333

> <Gold.PLP.PLP>
-30.8565

> <Gold.PLP.part.hbond>
-4.0000

> <Gold.PLP.part.metal>
0.0000

> <Gold.PLP.part.buried>
-2.9409

> <Gold.PLP.part.nonpolar>
-23.4179

> <Gold.PLP.part.repulsive>
0.1813

> <Gold.PLP.ligand.clash>
0.0000

> <Gold.PLP.ligand.torsion>
0.4383

> <Gold.PLP.Chemscore.Hbond>
5.0000

> <Gold.PLP.Chemscore.CHOScore>
1.0000

> <Gold.PLP.Chemscore.Metal>
0.0000

> <Gold.Chemscore.Hbonds>
donor molecule, donor type, donor heavy atom, donor atom, acceptor molecule, acceptor atom, score
      L1  H     7    39       P1 10186  1.98
      L1  H     9    28       P1  7948  1.00
      L1  H    12    29       P1  7948  1.00
      P1  H  7989  7998       L1    17  1.00
      L1  C     5    25       P1  7948  1.00

> <Gold.PLP.Chemscore.Internal.Correction>
0.0534

> <Gold.Rescore>
     Score         DG    S(hbond)    S(metal)    S(lipo)     H(rot)  DE(clash)    DE(int)     intcor
     15.70     -17.63       3.55        0.00      51.53       2.24       0.09       1.84       ----

> <Gold.Chemscore.Fitness>
15.7018

> <Gold.Chemscore.DG>
-17.6256

> <Gold.Chemscore.ZeroCoef>
-5.4800

> <Gold.Chemscore.Hbond>
3.5456

> <Gold.Chemscore.Metal>
0.0000

> <Gold.Chemscore.Lipo>
51.5312

> <Gold.Chemscore.Internal_Hbond>
0.0000

> <Gold.Chemscore.DEClash>
0.0859

> <Gold.Chemscore.DEInternal>
1.8379

> <Gold.Chemscore.Rot>
2.2367

> <Gold.Chemscore.Internal.Correction>
   9.000000E+99

> <Gold.Chemscore.Hbonds>
donor molecule, donor type, donor heavy atom, donor atom, acceptor molecule, acceptor atom, score
      L1  H     7    39       P1 10186  0.65
      L1  H     9    28       P1  7948  0.38
      L1  H    12    29       P1  7948  0.59
      P1  H  7989  7998       L1    17  0.94

> <Gold.Chemscore.Hbond.Weighted>
-11.8423

> <Gold.Chemscore.Metal.Weighted>
-0.0000

> <Gold.Chemscore.Lipo.Weighted>
-6.0291

> <Gold.Chemscore.Internal_Hbond.Weighted>
0.0000

> <Gold.Chemscore.DEClash.Weighted>
0.0859

> <Gold.Chemscore.DEInternal.Weighted>
1.8379

> <Gold.Chemscore.Rot.Weighted>
5.7259

> <Gold.Chemscore.Internal.Correction.Weighted>
   9.000000E+99

> <Gold.Protein.RotatedTorsions>
[ 6907 6896 6895 6894 ] final  -80.28 input  -60.11 | X-H torsion
[ 7974 7965 7964 7962 ] final   63.19 input  175.53 | X-H torsion
[ 8008 7997 7996 7995 ] final  -31.27 input   59.86 | X-H torsion
[ 10167 10162 10161 10158 ] final  105.05 input  -65.29 | X-H torsion
[ 10718 10713 10712 10709 ] final   72.65 input   66.30 | X-H torsion
[ 10763 10752 10751 10750 ] final  -80.55 input  -60.55 | X-H torsion
[ 11005 11000 10999 10996 ] final   30.82 input  -57.11 | X-H torsion

> <Gold.Protein.ActiveResidues>
 VAL166  LYS551  ARG553  GLY616  TRP617  ASP618  TYR619  PRO620  LYS621  CYS622 
 ASP623  PHE694  ASN695  SER759  ASP760  ASP761  ALA762  ILE779  LEU786  VAL792 
 PHE793  MET794  SER795  GLU796  ALA797  LYS798  CYS799  TRP800  GLU811  SER814 

> <Gold.Protein.RotatedAtoms>
  150.6932  134.3993  159.5111 H   0  0  0  0  0  0  0  0  0  0  0  0  # atno 6907 bound_to 6896
  152.1769  134.8784  160.0539 H   0  0  0  0  0  0  0  0  0  0  0  0  # atno 6908 bound_to 6896
  151.9789  133.3716  159.4137 H   0  0  0  0  0  0  0  0  0  0  0  0  # atno 6909 bound_to 6896
  145.8647  139.3338  143.0798 H   0  0  0  0  0  0  0  0  0  0  0  0  # atno 7974 bound_to 7965
  154.4220  140.1769  156.1540 H   0  0  0  0  0  0  0  0  0  0  0  0  # atno 8008 bound_to 7997
  155.9892  140.3370  155.6712 H   0  0  0  0  0  0  0  0  0  0  0  0  # atno 8009 bound_to 7997
  155.6396  140.0678  157.2613 H   0  0  0  0  0  0  0  0  0  0  0  0  # atno 8010 bound_to 7997
  139.7125  144.7075  151.1004 H   0  0  0  0  0  0  0  0  0  0  0  0  # atno 10167 bound_to 10162
  157.6511  130.9589  150.0958 H   0  0  0  0  0  0  0  0  0  0  0  0  # atno 10718 bound_to 10713
  154.5526  135.5657  153.6936 H   0  0  0  0  0  0  0  0  0  0  0  0  # atno 10763 bound_to 10752
  152.9994  135.6254  154.2353 H   0  0  0  0  0  0  0  0  0  0  0  0  # atno 10764 bound_to 10752
  154.2288  135.2866  155.2877 H   0  0  0  0  0  0  0  0  0  0  0  0  # atno 10765 bound_to 10752
  140.2903  134.2871  155.7777 H   0  0  0  0  0  0  0  0  0  0  0  0  # atno 11005 bound_to 11000
  145.9206  140.9117  143.0407 LP  0  0  0  0  0  0  0  0  0  0  0  0  # atno 17320 bound_to 7965
  144.6726  140.1284  143.7445 LP  0  0  0  0  0  0  0  0  0  0  0  0  # atno 17321 bound_to 7965
  140.7736  143.5274  150.9464 LP  0  0  0  0  0  0  0  0  0  0  0  0  # atno 17342 bound_to 10162
  139.8959  143.6895  152.3138 LP  0  0  0  0  0  0  0  0  0  0  0  0  # atno 17343 bound_to 10162
  156.1895  130.3654  149.8929 LP  0  0  0  0  0  0  0  0  0  0  0  0  # atno 17370 bound_to 10713
  156.6861  130.8877  151.3582 LP  0  0  0  0  0  0  0  0  0  0  0  0  # atno 17371 bound_to 10713
  141.2147  133.7581  156.9615 LP  0  0  0  0  0  0  0  0  0  0  0  0  # atno 17394 bound_to 11000
  140.1201  134.9422  157.2191 LP  0  0  0  0  0  0  0  0  0  0  0  0  # atno 17395 bound_to 11000

$$$$
