AV-unprocessed.smi:3145|AV-procd|sdf|11979|dock4
  -GOLD-   2272017383D 1   1.00000     0.00000
 Structure written by MMmdl.
 35 35  0  0  0  0  0  0  0  0  2 V2000
  144.1535  136.3370  152.0922 C   0  0  0  0  0  0  0  0  0  0  0  0
  145.5797  135.9614  151.6554 C   0  0  2  0  0  0  0  0  0  0  0  0
  145.9443  134.4975  151.9962 C   0  0  0  0  0  0  0  0  0  0  0  0
  145.2656  133.5354  151.1466 N   0  0  0  0  0  0  0  0  0  0  0  0
  145.8133  132.4972  150.4226 C   0  0  0  0  0  0  0  0  0  0  0  0
  144.7882  131.8670  149.7776 C   0  0  0  0  0  0  0  0  0  0  0  0
  143.6357  132.5991  150.1779 C   0  0  0  0  0  0  0  0  0  0  0  0
  143.9248  133.5968  150.9981 N   0  0  0  0  0  0  0  0  0  0  0  0
  146.5384  136.9147  152.2677 N   0  3  0  0  0  0  0  0  0  0  0  0
  146.2112  138.3557  152.1496 C   0  0  0  0  0  0  0  0  0  0  0  0
  147.1843  139.2538  152.9172 C   0  0  0  0  0  0  0  0  0  0  0  0
  146.9220  140.4437  153.0929 O   0  0  0  0  0  0  0  0  0  0  0  0
  148.3038  138.6692  153.3672 N   0  0  0  0  0  0  0  0  0  0  0  0
  149.3838  139.3530  154.0698 C   0  0  0  0  0  0  0  0  0  0  0  0
  150.5106  138.3885  154.4753 C   0  0  0  0  0  0  0  0  0  0  0  0
  151.7686  139.0740  154.8105 C   0  0  0  0  0  0  0  0  0  0  0  0
  152.7580  139.6143  155.0702 N   0  0  0  0  0  0  0  0  0  0  0  0
  143.4032  135.7350  151.5790 H   0  0  0  0  0  0  0  0  0  0  0  0
  143.9357  137.3806  151.8635 H   0  0  0  0  0  0  0  0  0  0  0  0
  144.0172  136.1956  153.1650 H   0  0  0  0  0  0  0  0  0  0  0  0
  145.6174  136.0808  150.5721 H   0  0  0  0  0  0  0  0  0  0  0  0
  147.0149  134.3267  151.8852 H   0  0  0  0  0  0  0  0  0  0  0  0
  145.7020  134.2809  153.0381 H   0  0  0  0  0  0  0  0  0  0  0  0
  146.8745  132.2966  150.4247 H   0  0  0  0  0  0  0  0  0  0  0  0
  144.8511  131.0120  149.1206 H   0  0  0  0  0  0  0  0  0  0  0  0
  142.6050  132.4359  149.8990 H   0  0  0  0  0  0  0  0  0  0  0  0
  146.5965  136.7037  153.2540 H   0  0  0  0  0  0  0  0  0  0  0  0
  146.2745  138.6254  151.0951 H   0  0  0  0  0  0  0  0  0  0  0  0
  145.1818  138.5470  152.4526 H   0  0  0  0  0  0  0  0  0  0  0  0
  148.4318  137.6830  153.1895 H   0  0  0  0  0  0  0  0  0  0  0  0
  149.7801  140.1559  153.4463 H   0  0  0  0  0  0  0  0  0  0  0  0
  148.9666  139.8267  154.9587 H   0  0  0  0  0  0  0  0  0  0  0  0
  150.2180  137.7872  155.3362 H   0  0  0  0  0  0  0  0  0  0  0  0
  150.7182  137.6943  153.6607 H   0  0  0  0  0  0  0  0  0  0  0  0
  147.4462  136.7550  151.8549 H   0  0  0  0  0  0  0  0  0  0  0  0
  1  2  1  0  0  0  0
  1 18  1  0  0  0  0
  1 19  1  0  0  0  0
  1 20  1  0  0  0  0
  2  3  1  0  0  0  0
  2  9  1  0  0  0  0
  2 21  1  0  0  0  0
  3  4  1  0  0  0  0
  3 22  1  0  0  0  0
  3 23  1  0  0  0  0
  4  8  1  0  0  0  0
  4  5  1  0  0  0  0
  5  6  2  0  0  0  0
  5 24  1  0  0  0  0
  6  7  1  0  0  0  0
  6 25  1  0  0  0  0
  7  8  2  0  0  0  0
  7 26  1  0  0  0  0
  9 10  1  0  0  0  0
  9 27  1  0  0  0  0
  9 35  1  0  0  0  0
 10 11  1  0  0  0  0
 10 28  1  0  0  0  0
 10 29  1  0  0  0  0
 11 12  2  0  0  0  0
 11 13  1  0  0  0  0
 13 14  1  0  0  0  0
 13 30  1  0  0  0  0
 14 15  1  0  0  0  0
 14 31  1  0  0  0  0
 14 32  1  0  0  0  0
 15 16  1  0  0  0  0
 15 33  1  0  0  0  0
 15 34  1  0  0  0  0
 16 17  3  0  0  0  0
M  CHG  1   9   1
M  END
> <s_m_source_file>
AV-unprocessed.smi

> <i_m_source_file_index>
3145

> <i_lp_mmshare_version>
43012

> <i_f3d_flags>
0

> <s_epik_input>
bjFbY0hdW2NIXVtjSF1uMVtDSDJdW0NAQEhdKFtDSDNdKVtOSF1bQ0gyXUMoPU8pW05IXVtDSDJdW0NIMl1DI04=

> <s_epik_cmdline>
J2VwaWtfcHl0aG9uJywgJy1waCcsICc3LjAnLCAnLXRuJywgJzgnLCAnLW1hJywgJzIwMCcsICctbWV0YWxfYmluZGluZycsICctaW1hZScsICc8aW5maWxlLm1hZT4nLCAnLW9tYWUnLCAnPG91dGZpbGUubWFlPic=

> <r_lp_tautomer_probability>
1

> <r_epik_Ionization_Penalty>
0.190162

> <r_epik_Ionization_Penalty_Charging>
0.190142

> <r_epik_Ionization_Penalty_Neutral>
2.0165e-05

> <r_epik_State_Penalty>
0.179787

> <r_epik_Charging_Adjusted_Penalty>
0.369929

> <i_epik_Tot_Q>
1

> <i_epik_Tot_abs_Q>
1

> <r_epik_Metal_State_Penalty>
0.191786

> <b_epik_Metal_Only>
0

> <s_lp_Force_Field>
OPLS_2005

> <r_lp_Energy>
3.88931

> <b_lp_Chiralities_Consistent>
1

> <s_lp_Variant>
AV-unprocessed.smi:3145-1

> <Gold.Version>
5.8.1

> <Gold.Id.Protein>
6NUR|6NUR_protein|mol2

> <Gold.PLP.Fitness>
53.4834

> <Gold.PLP.PLP>
-35.9973

> <Gold.PLP.part.hbond>
-4.8738

> <Gold.PLP.part.metal>
0.0000

> <Gold.PLP.part.buried>
-2.1150

> <Gold.PLP.part.nonpolar>
-30.5124

> <Gold.PLP.part.repulsive>
0.4758

> <Gold.PLP.ligand.clash>
0.0000

> <Gold.PLP.ligand.torsion>
0.4152

> <Gold.PLP.Chemscore.Hbond>
4.0000

> <Gold.PLP.Chemscore.CHOScore>
2.0806

> <Gold.PLP.Chemscore.Metal>
0.0000

> <Gold.Chemscore.Hbonds>
donor molecule, donor type, donor heavy atom, donor atom, acceptor molecule, acceptor atom, score
      L1  H     9    35       P1  7948  2.00
      L1  H    13    30       P1  7948  0.93
      P1  H  7997  8008       L1    17  1.00
      L1  C     5    24       P1 10747  0.96
      L1  C     7    26       P1 10186  0.75
      L1  C     7    26       P1 10952  0.43

> <Gold.PLP.Chemscore.Internal.Correction>
0.0746

> <Gold.Rescore>
     Score         DG    S(hbond)    S(metal)    S(lipo)     H(rot)  DE(clash)    DE(int)     intcor
     15.67     -16.26       2.94        0.00      71.47       2.89       0.04       0.55       ----

> <Gold.Chemscore.Fitness>
15.6665

> <Gold.Chemscore.DG>
-16.2597

> <Gold.Chemscore.ZeroCoef>
-5.4800

> <Gold.Chemscore.Hbond>
2.9386

> <Gold.Chemscore.Metal>
0.0000

> <Gold.Chemscore.Lipo>
71.4661

> <Gold.Chemscore.Internal_Hbond>
0.0000

> <Gold.Chemscore.DEClash>
0.0392

> <Gold.Chemscore.DEInternal>
0.5539

> <Gold.Chemscore.Rot>
2.8894

> <Gold.Chemscore.Internal.Correction>
   9.000000E+99

> <Gold.Chemscore.Hbonds>
donor molecule, donor type, donor heavy atom, donor atom, acceptor molecule, acceptor atom, score
      L1  H     9    35       P1  7948  0.95
      L1  H    13    30       P1  7948  0.86
      P1  H  7997  8008       L1    17  0.98

> <Gold.Chemscore.Hbond.Weighted>
-9.8149

> <Gold.Chemscore.Metal.Weighted>
-0.0000

> <Gold.Chemscore.Lipo.Weighted>
-8.3615

> <Gold.Chemscore.Internal_Hbond.Weighted>
0.0000

> <Gold.Chemscore.DEClash.Weighted>
0.0392

> <Gold.Chemscore.DEInternal.Weighted>
0.5539

> <Gold.Chemscore.Rot.Weighted>
7.3968

> <Gold.Chemscore.Internal.Correction.Weighted>
   9.000000E+99

> <Gold.Protein.RotatedTorsions>
[ 6907 6896 6895 6894 ] final  -43.81 input  -60.11 | X-H torsion
[ 7974 7965 7964 7962 ] final  -85.74 input  175.53 | X-H torsion
[ 8008 7997 7996 7995 ] final  -20.38 input   59.86 | X-H torsion
[ 10167 10162 10161 10158 ] final   72.99 input  -65.29 | X-H torsion
[ 10718 10713 10712 10709 ] final   94.92 input   66.30 | X-H torsion
[ 10763 10752 10751 10750 ] final   17.94 input  -60.55 | X-H torsion
[ 11005 11000 10999 10996 ] final -127.51 input  -57.11 | X-H torsion

> <Gold.Protein.ActiveResidues>
 VAL166  LYS551  ARG553  GLY616  TRP617  ASP618  TYR619  PRO620  LYS621  CYS622 
 ASP623  PHE694  ASN695  SER759  ASP760  ASP761  ALA762  ILE779  LEU786  VAL792 
 PHE793  MET794  SER795  GLU796  ALA797  LYS798  CYS799  TRP800  GLU811  SER814 

> <Gold.Protein.RotatedAtoms>
  150.9398  134.8808  159.7604 H   0  0  0  0  0  0  0  0  0  0  0  0  # atno 6907 bound_to 6896
  152.5075  134.3958  159.9409 H   0  0  0  0  0  0  0  0  0  0  0  0  # atno 6908 bound_to 6896
  151.3980  133.3727  159.2763 H   0  0  0  0  0  0  0  0  0  0  0  0  # atno 6909 bound_to 6896
  145.4892  140.9553  143.1821 H   0  0  0  0  0  0  0  0  0  0  0  0  # atno 7974 bound_to 7965
  154.4773  140.2063  155.9847 H   0  0  0  0  0  0  0  0  0  0  0  0  # atno 8008 bound_to 7997
  156.1110  140.3229  155.8042 H   0  0  0  0  0  0  0  0  0  0  0  0  # atno 8009 bound_to 7997
  155.4635  140.0526  157.2979 H   0  0  0  0  0  0  0  0  0  0  0  0  # atno 8010 bound_to 7997
  140.0293  144.5478  150.7519 H   0  0  0  0  0  0  0  0  0  0  0  0  # atno 10167 bound_to 10162
  157.6943  131.0528  150.4260 H   0  0  0  0  0  0  0  0  0  0  0  0  # atno 10718 bound_to 10713
  153.1293  135.6737  153.9204 H   0  0  0  0  0  0  0  0  0  0  0  0  # atno 10763 bound_to 10752
  153.8695  135.3071  155.3442 H   0  0  0  0  0  0  0  0  0  0  0  0  # atno 10764 bound_to 10752
  154.7693  135.4947  153.9698 H   0  0  0  0  0  0  0  0  0  0  0  0  # atno 10765 bound_to 10752
  140.9593  134.0958  157.3984 H   0  0  0  0  0  0  0  0  0  0  0  0  # atno 11005 bound_to 11000
  144.7843  139.6459  143.7141 LP  0  0  0  0  0  0  0  0  0  0  0  0  # atno 17320 bound_to 7965
  146.2294  139.5785  142.9565 LP  0  0  0  0  0  0  0  0  0  0  0  0  # atno 17321 bound_to 7965
  140.7309  143.2688  151.3956 LP  0  0  0  0  0  0  0  0  0  0  0  0  # atno 17342 bound_to 10162
  139.6087  144.1144  152.2276 LP  0  0  0  0  0  0  0  0  0  0  0  0  # atno 17343 bound_to 10162
  156.4631  130.4036  149.6564 LP  0  0  0  0  0  0  0  0  0  0  0  0  # atno 17370 bound_to 10713
  156.3672  130.7512  151.2491 LP  0  0  0  0  0  0  0  0  0  0  0  0  # atno 17371 bound_to 10713
  139.8873  135.0088  156.6550 LP  0  0  0  0  0  0  0  0  0  0  0  0  # atno 17394 bound_to 11000
  140.7490  133.8913  155.8333 LP  0  0  0  0  0  0  0  0  0  0  0  0  # atno 17395 bound_to 11000

$$$$
