AV-unprocessed.smi:2739|AV-procd|sdf|10551|dock8
  -GOLD-   2272015 03D 1   1.00000     0.00000
 Structure written by MMmdl.
 35 35  0  0  0  0  0  0  0  0  1 V2000
  152.5235  144.4190  158.4891 C   0  0  0  0  0  0  0  0  0  0  0  0
  151.1554  143.9675  157.9575 C   0  0  0  0  0  0  0  0  0  0  0  0
  151.1871  142.6097  157.2213 C   0  0  1  0  0  0  0  0  0  0  0  0
  151.3016  141.4193  158.1899 C   0  0  0  0  0  0  0  0  0  0  0  0
  150.0700  142.4374  156.2892 N   0  0  0  0  0  0  0  0  0  0  0  0
  149.9071  141.4618  155.3784 C   0  0  0  0  0  0  0  0  0  0  0  0
  150.6985  140.5337  155.2159 O   0  0  0  0  0  0  0  0  0  0  0  0
  148.6525  141.5513  154.5097 C   0  0  0  0  0  0  0  0  0  0  0  0
  148.1376  140.2289  154.2037 N   0  0  0  0  0  0  0  0  0  0  0  0
  148.4052  139.0369  154.8420 C   0  0  0  0  0  0  0  0  0  0  0  0
  147.7011  138.0636  154.1936 C   0  0  0  0  0  0  0  0  0  0  0  0
  147.0219  138.7617  153.1527 C   0  0  0  0  0  0  0  0  0  0  0  0
  146.0856  138.2126  152.1078 C   0  0  2  0  0  0  0  0  0  0  0  0
  145.8263  136.7144  152.3171 C   0  0  0  0  0  0  0  0  0  0  0  0
  146.5813  138.3976  150.7979 O   0  0  0  0  0  0  0  0  0  0  0  0
  147.2881  140.0600  153.1675 N   0  0  0  0  0  0  0  0  0  0  0  0
  152.4316  145.3533  159.0433 H   0  0  0  0  0  0  0  0  0  0  0  0
  153.2334  144.5868  157.6789 H   0  0  0  0  0  0  0  0  0  0  0  0
  152.9500  143.6741  159.1614 H   0  0  0  0  0  0  0  0  0  0  0  0
  150.4655  143.8954  158.7990 H   0  0  0  0  0  0  0  0  0  0  0  0
  150.7475  144.7422  157.3077 H   0  0  0  0  0  0  0  0  0  0  0  0
  152.0837  142.5992  156.6004 H   0  0  0  0  0  0  0  0  0  0  0  0
  152.2099  141.4910  158.7886 H   0  0  0  0  0  0  0  0  0  0  0  0
  151.3407  140.4740  157.6476 H   0  0  0  0  0  0  0  0  0  0  0  0
  150.4587  141.3736  158.8797 H   0  0  0  0  0  0  0  0  0  0  0  0
  149.3520  143.1467  156.3279 H   0  0  0  0  0  0  0  0  0  0  0  0
  147.8777  142.1169  155.0292 H   0  0  0  0  0  0  0  0  0  0  0  0
  148.8726  142.0840  153.5830 H   0  0  0  0  0  0  0  0  0  0  0  0
  149.0682  138.9819  155.6930 H   0  0  0  0  0  0  0  0  0  0  0  0
  147.6748  137.0096  154.4274 H   0  0  0  0  0  0  0  0  0  0  0  0
  145.1326  138.7406  152.1619 H   0  0  0  0  0  0  0  0  0  0  0  0
  145.3886  136.5255  153.2978 H   0  0  0  0  0  0  0  0  0  0  0  0
  146.7503  136.1387  152.2491 H   0  0  0  0  0  0  0  0  0  0  0  0
  145.1349  136.3257  151.5688 H   0  0  0  0  0  0  0  0  0  0  0  0
  145.8502  138.5710  150.2246 H   0  0  0  0  0  0  0  0  0  0  0  0
  1  2  1  0  0  0  0
  1 17  1  0  0  0  0
  1 18  1  0  0  0  0
  1 19  1  0  0  0  0
  2  3  1  0  0  0  0
  2 20  1  0  0  0  0
  2 21  1  0  0  0  0
  3  4  1  0  0  0  0
  3  5  1  0  0  0  0
  3 22  1  0  0  0  0
  4 23  1  0  0  0  0
  4 24  1  0  0  0  0
  4 25  1  0  0  0  0
  5  6  1  0  0  0  0
  5 26  1  0  0  0  0
  6  7  2  0  0  0  0
  6  8  1  0  0  0  0
  8  9  1  0  0  0  0
  8 27  1  0  0  0  0
  8 28  1  0  0  0  0
  9 16  1  0  0  0  0
  9 10  1  0  0  0  0
 10 11  2  0  0  0  0
 10 29  1  0  0  0  0
 11 12  1  0  0  0  0
 11 30  1  0  0  0  0
 12 13  1  0  0  0  0
 12 16  2  0  0  0  0
 13 14  1  0  0  0  0
 13 15  1  0  0  0  0
 13 31  1  0  0  0  0
 14 32  1  0  0  0  0
 14 33  1  0  0  0  0
 14 34  1  0  0  0  0
 15 35  1  0  0  0  0
M  END
> <s_m_source_file>
AV-unprocessed.smi

> <i_m_source_file_index>
2739

> <i_lp_mmshare_version>
43012

> <i_f3d_flags>
0

> <s_epik_input>
W0NIM11bQ0gyXVtDQEhdKFtDSDNdKVtOSF1DKD1PKVtDSDJdbjFbY0hdW2NIXWMobjEpW0NASF0oW0NIM10pW09IXQ==

> <s_epik_cmdline>
J2VwaWtfcHl0aG9uJywgJy1waCcsICc3LjAnLCAnLXRuJywgJzgnLCAnLW1hJywgJzIwMCcsICctbWV0YWxfYmluZGluZycsICctaW1hZScsICc8aW5maWxlLm1hZT4nLCAnLW9tYWUnLCAnPG91dGZpbGUubWFlPic=

> <r_lp_tautomer_probability>
1

> <r_epik_Ionization_Penalty>
5.22246e-06

> <r_epik_Ionization_Penalty_Charging>
0

> <r_epik_Ionization_Penalty_Neutral>
5.22246e-06

> <r_epik_State_Penalty>
-0

> <r_epik_Charging_Adjusted_Penalty>
0

> <i_epik_Tot_Q>
0

> <i_epik_Tot_abs_Q>
0

> <r_epik_Metal_State_Penalty>
-0

> <b_epik_Metal_Only>
0

> <s_lp_Force_Field>
OPLS_2005

> <r_lp_Energy>
1.58762

> <b_lp_Chiralities_Consistent>
1

> <s_lp_Variant>
AV-unprocessed.smi:2739-2

> <Gold.Version>
5.8.1

> <Gold.Id.Protein>
6NUR|6NUR_protein|mol2

> <Gold.PLP.Fitness>
43.3432

> <Gold.PLP.PLP>
-32.9786

> <Gold.PLP.part.hbond>
-4.1849

> <Gold.PLP.part.metal>
0.0000

> <Gold.PLP.part.buried>
-3.6050

> <Gold.PLP.part.nonpolar>
-26.4800

> <Gold.PLP.part.repulsive>
1.3691

> <Gold.PLP.ligand.clash>
0.0000

> <Gold.PLP.ligand.torsion>
0.8474

> <Gold.PLP.Chemscore.Hbond>
3.9913

> <Gold.PLP.Chemscore.CHOScore>
0.0000

> <Gold.PLP.Chemscore.Metal>
0.0000

> <Gold.Chemscore.Hbonds>
donor molecule, donor type, donor heavy atom, donor atom, acceptor molecule, acceptor atom, score
      L1  H     5    26       P1  8028  0.86
      L1  H    15    35       P1 10171  1.00
      P1  H  7954  7966       L1    15  0.98
      P1  H  7989  7998       L1     7  0.98

> <Gold.PLP.Chemscore.Internal.Correction>
0.0855

> <Gold.Rescore>
     Score         DG    S(hbond)    S(metal)    S(lipo)     H(rot)  DE(clash)    DE(int)     intcor
     17.03     -19.14       3.32        0.00      73.23       2.34       0.10       2.00       ----

> <Gold.Chemscore.Fitness>
17.0317

> <Gold.Chemscore.DG>
-19.1374

> <Gold.Chemscore.ZeroCoef>
-5.4800

> <Gold.Chemscore.Hbond>
3.3209

> <Gold.Chemscore.Metal>
0.0000

> <Gold.Chemscore.Lipo>
73.2328

> <Gold.Chemscore.Internal_Hbond>
0.0000

> <Gold.Chemscore.DEClash>
0.1024

> <Gold.Chemscore.DEInternal>
2.0033

> <Gold.Chemscore.Rot>
2.3448

> <Gold.Chemscore.Internal.Correction>
   9.000000E+99

> <Gold.Chemscore.Hbonds>
donor molecule, donor type, donor heavy atom, donor atom, acceptor molecule, acceptor atom, score
      L1  H     5    26       P1  8028  0.85
      L1  H    15    35       P1 10171  0.94
      P1  H  7954  7966       L1    15  0.80
      P1  H  7989  7998       L1     7  0.50

> <Gold.Chemscore.Hbond.Weighted>
-11.0919

> <Gold.Chemscore.Metal.Weighted>
-0.0000

> <Gold.Chemscore.Lipo.Weighted>
-8.5682

> <Gold.Chemscore.Internal_Hbond.Weighted>
0.0000

> <Gold.Chemscore.DEClash.Weighted>
0.1024

> <Gold.Chemscore.DEInternal.Weighted>
2.0033

> <Gold.Chemscore.Rot.Weighted>
6.0027

> <Gold.Chemscore.Internal.Correction.Weighted>
   9.000000E+99

> <Gold.Protein.RotatedTorsions>
[ 6907 6896 6895 6894 ] final  -67.20 input  -60.11 | X-H torsion
[ 7974 7965 7964 7962 ] final  -35.22 input  175.53 | X-H torsion
[ 8008 7997 7996 7995 ] final  -83.73 input   59.86 | X-H torsion
[ 10167 10162 10161 10158 ] final  169.48 input  -65.29 | X-H torsion
[ 10718 10713 10712 10709 ] final   87.12 input   66.30 | X-H torsion
[ 10763 10752 10751 10750 ] final   50.61 input  -60.55 | X-H torsion
[ 11005 11000 10999 10996 ] final   61.71 input  -57.11 | X-H torsion

> <Gold.Protein.ActiveResidues>
 VAL166  LYS551  ARG553  GLY616  TRP617  ASP618  TYR619  PRO620  LYS621  CYS622 
 ASP623  PHE694  ASN695  SER759  ASP760  ASP761  ALA762  ILE779  LEU786  VAL792 
 PHE793  MET794  SER795  GLU796  ALA797  LYS798  CYS799  TRP800  GLU811  SER814 

> <Gold.Protein.RotatedAtoms>
  150.7423  134.5915  159.5989 H   0  0  0  0  0  0  0  0  0  0  0  0  # atno 6907 bound_to 6896
  152.3301  134.7267  160.0300 H   0  0  0  0  0  0  0  0  0  0  0  0  # atno 6908 bound_to 6896
  151.7754  133.3309  159.3493 H   0  0  0  0  0  0  0  0  0  0  0  0  # atno 6909 bound_to 6896
  146.0764  140.6133  142.8928 H   0  0  0  0  0  0  0  0  0  0  0  0  # atno 7974 bound_to 7965
  154.6222  140.0615  156.9629 H   0  0  0  0  0  0  0  0  0  0  0  0  # atno 8008 bound_to 7997
  155.1799  140.3298  155.4359 H   0  0  0  0  0  0  0  0  0  0  0  0  # atno 8009 bound_to 7997
  156.2438  140.1899  156.6896 H   0  0  0  0  0  0  0  0  0  0  0  0  # atno 8010 bound_to 7997
  139.4993  144.3702  151.9733 H   0  0  0  0  0  0  0  0  0  0  0  0  # atno 10167 bound_to 10162
  157.6936  131.0243  150.3075 H   0  0  0  0  0  0  0  0  0  0  0  0  # atno 10718 bound_to 10713
  152.9784  135.5873  154.4280 H   0  0  0  0  0  0  0  0  0  0  0  0  # atno 10763 bound_to 10752
  154.3896  135.2767  155.2164 H   0  0  0  0  0  0  0  0  0  0  0  0  # atno 10764 bound_to 10752
  154.4042  135.6096  153.5969 H   0  0  0  0  0  0  0  0  0  0  0  0  # atno 10765 bound_to 10752
  140.0142  134.6250  155.9734 H   0  0  0  0  0  0  0  0  0  0  0  0  # atno 11005 bound_to 11000
  144.7264  140.4539  143.6970 LP  0  0  0  0  0  0  0  0  0  0  0  0  # atno 17320 bound_to 7965
  145.6298  139.1535  143.2975 LP  0  0  0  0  0  0  0  0  0  0  0  0  # atno 17321 bound_to 7965
  140.3138  144.3507  150.6027 LP  0  0  0  0  0  0  0  0  0  0  0  0  # atno 17342 bound_to 10162
  140.5778  143.2175  151.7484 LP  0  0  0  0  0  0  0  0  0  0  0  0  # atno 17343 bound_to 10162
  156.3582  130.3842  149.7273 LP  0  0  0  0  0  0  0  0  0  0  0  0  # atno 17370 bound_to 10713
  156.4728  130.8004  151.3022 LP  0  0  0  0  0  0  0  0  0  0  0  0  # atno 17371 bound_to 10713
  141.1732  133.6538  156.4728 LP  0  0  0  0  0  0  0  0  0  0  0  0  # atno 17394 bound_to 11000
  140.4500  134.6938  157.5035 LP  0  0  0  0  0  0  0  0  0  0  0  0  # atno 17395 bound_to 11000

$$$$
