AV-unprocessed.smi:1877|AV-procd|sdf|7622|dock3
  -GOLD-   22720 9353D 1   1.00000     0.00000
 Structure written by MMmdl.
 32 34  0  0  0  0  0  0  0  0  1 V2000
  151.0790  144.0335  157.4346 O   0  0  0  0  0  0  0  0  0  0  0  0
  151.4331  142.7503  157.9092 C   0  0  2  0  0  0  0  0  0  0  0  0
  150.1863  141.8483  157.8284 C   0  0  0  0  0  0  0  0  0  0  0  0
  149.9695  141.3319  156.4891 N   0  0  0  0  0  0  0  0  0  0  0  0
  150.8666  140.7059  155.7030 C   0  0  0  0  0  0  0  0  0  0  0  0
  150.4567  140.3202  154.4980 N   0  0  0  0  0  0  0  0  0  0  0  0
  149.1382  140.7423  154.5032 C   0  0  0  0  0  0  0  0  0  0  0  0
  148.1364  140.6360  153.5120 C   0  0  0  0  0  0  0  0  0  0  0  0
  146.8432  141.1489  153.7454 C   0  0  0  0  0  0  0  0  0  0  0  0
  146.5322  141.7752  154.9700 C   0  0  0  0  0  0  0  0  0  0  0  0
  147.5139  141.8932  155.9725 C   0  0  0  0  0  0  0  0  0  0  0  0
  148.8019  141.3788  155.7362 C   0  0  0  0  0  0  0  0  0  0  0  0
  152.0206  142.7952  159.3154 C   0  0  0  0  0  0  0  0  0  0  0  0
  152.9270  141.7979  159.7398 C   0  0  0  0  0  0  0  0  0  0  0  0
  153.4878  141.8473  161.0304 C   0  0  0  0  0  0  0  0  0  0  0  0
  154.3554  140.8872  161.4284 F   0  0  0  0  0  0  0  0  0  0  0  0
  153.1487  142.8960  161.9056 C   0  0  0  0  0  0  0  0  0  0  0  0
  152.2496  143.8959  161.4886 C   0  0  0  0  0  0  0  0  0  0  0  0
  151.6871  143.8483  160.1982 C   0  0  0  0  0  0  0  0  0  0  0  0
  150.8322  144.8252  159.8103 F   0  0  0  0  0  0  0  0  0  0  0  0
  150.2864  143.9564  156.9256 H   0  0  0  0  0  0  0  0  0  0  0  0
  152.1881  142.3735  157.2186 H   0  0  0  0  0  0  0  0  0  0  0  0
  150.2679  141.0107  158.5230 H   0  0  0  0  0  0  0  0  0  0  0  0
  149.2956  142.4080  158.1176 H   0  0  0  0  0  0  0  0  0  0  0  0
  151.8806  140.5301  156.0318 H   0  0  0  0  0  0  0  0  0  0  0  0
  148.3630  140.1588  152.5701 H   0  0  0  0  0  0  0  0  0  0  0  0
  146.0856  141.0614  152.9806 H   0  0  0  0  0  0  0  0  0  0  0  0
  145.5391  142.1651  155.1392 H   0  0  0  0  0  0  0  0  0  0  0  0
  147.2806  142.3732  156.9113 H   0  0  0  0  0  0  0  0  0  0  0  0
  153.2002  140.9926  159.0737 H   0  0  0  0  0  0  0  0  0  0  0  0
  153.5799  142.9355  162.8950 H   0  0  0  0  0  0  0  0  0  0  0  0
  151.9929  144.7028  162.1591 H   0  0  0  0  0  0  0  0  0  0  0  0
  1  2  1  0  0  0  0
  1 21  1  0  0  0  0
  2  3  1  0  0  0  0
  2 13  1  0  0  0  0
  2 22  1  0  0  0  0
  3  4  1  0  0  0  0
  3 23  1  0  0  0  0
  3 24  1  0  0  0  0
  4 12  1  0  0  0  0
  4  5  1  0  0  0  0
  5  6  2  0  0  0  0
  5 25  1  0  0  0  0
  6  7  1  0  0  0  0
  7 12  2  0  0  0  0
  7  8  1  0  0  0  0
  8  9  2  0  0  0  0
  8 26  1  0  0  0  0
  9 10  1  0  0  0  0
  9 27  1  0  0  0  0
 10 11  2  0  0  0  0
 10 28  1  0  0  0  0
 11 12  1  0  0  0  0
 11 29  1  0  0  0  0
 13 19  1  0  0  0  0
 13 14  2  0  0  0  0
 14 15  1  0  0  0  0
 14 30  1  0  0  0  0
 15 16  1  0  0  0  0
 15 17  2  0  0  0  0
 17 18  1  0  0  0  0
 17 31  1  0  0  0  0
 18 19  2  0  0  0  0
 18 32  1  0  0  0  0
 19 20  1  0  0  0  0
M  END
> <s_m_source_file>
AV-unprocessed.smi

> <i_m_source_file_index>
1877

> <i_lp_mmshare_version>
43012

> <i_f3d_flags>
0

> <s_epik_input>
RmMxW2NIXVtjSF1jKEYpW2NIXWMxW0NASF0oW09IXSlbQ0gyXW4oW2NIXW4yKWMoYzIzKVtjSF1bY0hdW2NIXVtjSF0z

> <s_epik_cmdline>
J2VwaWtfcHl0aG9uJywgJy1waCcsICc3LjAnLCAnLXRuJywgJzgnLCAnLW1hJywgJzIwMCcsICctbWV0YWxfYmluZGluZycsICctaW1hZScsICc8aW5maWxlLm1hZT4nLCAnLW9tYWUnLCAnPG91dGZpbGUubWFlPic=

> <r_epik_Ionization_Penalty>
0.0696522

> <r_epik_Ionization_Penalty_Charging>
0

> <r_epik_Ionization_Penalty_Neutral>
0.0696522

> <r_epik_State_Penalty>
0.0610247

> <r_epik_Charging_Adjusted_Penalty>
0.0610247

> <i_epik_Tot_Q>
0

> <i_epik_Tot_abs_Q>
0

> <r_epik_Metal_State_Penalty>
6.42746e-05

> <b_epik_Metal_Only>
0

> <s_lp_Force_Field>
OPLS_2005

> <r_lp_Energy>
11.8113

> <b_lp_Chiralities_Consistent>
1

> <s_lp_Variant>
AV-unprocessed.smi:1877-1

> <Gold.Version>
5.8.1

> <Gold.Id.Protein>
6NUR|6NUR_protein|mol2

> <Gold.PLP.Fitness>
54.5998

> <Gold.PLP.PLP>
-50.6228

> <Gold.PLP.part.hbond>
-2.0000

> <Gold.PLP.part.metal>
0.0000

> <Gold.PLP.part.buried>
-1.4801

> <Gold.PLP.part.nonpolar>
-46.8878

> <Gold.PLP.part.repulsive>
0.0983

> <Gold.PLP.ligand.clash>
0.0000

> <Gold.PLP.ligand.torsion>
1.0187

> <Gold.PLP.Chemscore.Hbond>
2.0000

> <Gold.PLP.Chemscore.CHOScore>
0.0000

> <Gold.PLP.Chemscore.Metal>
0.0000

> <Gold.Chemscore.Hbonds>
donor molecule, donor type, donor heavy atom, donor atom, acceptor molecule, acceptor atom, score
      L1  H     1    21       P1  8028  1.00
      P1  H  7989  7998       L1     6  1.00

> <Gold.PLP.Chemscore.Internal.Correction>
0.0144

> <Gold.Rescore>
     Score         DG    S(hbond)    S(metal)    S(lipo)     H(rot)  DE(clash)    DE(int)     intcor
     15.67     -19.84       1.72        0.00     117.48       2.00       1.24       2.92       ----

> <Gold.Chemscore.Fitness>
15.6747

> <Gold.Chemscore.DG>
-19.8353

> <Gold.Chemscore.ZeroCoef>
-5.4800

> <Gold.Chemscore.Hbond>
1.7186

> <Gold.Chemscore.Metal>
0.0000

> <Gold.Chemscore.Lipo>
117.4815

> <Gold.Chemscore.Internal_Hbond>
0.0000

> <Gold.Chemscore.DEClash>
1.2410

> <Gold.Chemscore.DEInternal>
2.9195

> <Gold.Chemscore.Rot>
2.0040

> <Gold.Chemscore.Internal.Correction>
   9.000000E+99

> <Gold.Chemscore.Hbonds>
donor molecule, donor type, donor heavy atom, donor atom, acceptor molecule, acceptor atom, score
      L1  H     1    21       P1  8028  0.89
      P1  H  7989  7998       L1     6  0.44

> <Gold.Chemscore.Hbond.Weighted>
-5.7403

> <Gold.Chemscore.Metal.Weighted>
-0.0000

> <Gold.Chemscore.Lipo.Weighted>
-13.7453

> <Gold.Chemscore.Internal_Hbond.Weighted>
0.0000

> <Gold.Chemscore.DEClash.Weighted>
1.2410

> <Gold.Chemscore.DEInternal.Weighted>
2.9195

> <Gold.Chemscore.Rot.Weighted>
5.1303

> <Gold.Chemscore.Internal.Correction.Weighted>
   9.000000E+99

> <Gold.Protein.RotatedTorsions>
[ 6907 6896 6895 6894 ] final  120.33 input  -60.11 | X-H torsion
[ 7974 7965 7964 7962 ] final   62.14 input  175.53 | X-H torsion
[ 8008 7997 7996 7995 ] final   37.07 input   59.86 | X-H torsion
[ 10167 10162 10161 10158 ] final   89.79 input  -65.29 | X-H torsion
[ 10718 10713 10712 10709 ] final -106.44 input   66.30 | X-H torsion
[ 10763 10752 10751 10750 ] final  119.01 input  -60.55 | X-H torsion
[ 11005 11000 10999 10996 ] final   88.27 input  -57.11 | X-H torsion

> <Gold.Protein.ActiveResidues>
 VAL166  LYS551  ARG553  GLY616  TRP617  ASP618  TYR619  PRO620  LYS621  CYS622 
 ASP623  PHE694  ASN695  SER759  ASP760  ASP761  ALA762  ILE779  LEU786  VAL792 
 PHE793  MET794  SER795  GLU796  ALA797  LYS798  CYS799  TRP800  GLU811  SER814 

> <Gold.Protein.RotatedAtoms>
  152.4406  133.7440  159.6656 H   0  0  0  0  0  0  0  0  0  0  0  0  # atno 6907 bound_to 6896
  150.8296  133.8103  159.3110 H   0  0  0  0  0  0  0  0  0  0  0  0  # atno 6908 bound_to 6896
  151.5761  135.1063  160.0058 H   0  0  0  0  0  0  0  0  0  0  0  0  # atno 6909 bound_to 6896
  145.8767  139.3415  143.0730 H   0  0  0  0  0  0  0  0  0  0  0  0  # atno 7974 bound_to 7965
  155.1977  140.3313  155.4348 H   0  0  0  0  0  0  0  0  0  0  0  0  # atno 8008 bound_to 7997
  156.2418  140.1899  156.7016 H   0  0  0  0  0  0  0  0  0  0  0  0  # atno 8009 bound_to 7997
  154.6162  140.0602  156.9543 H   0  0  0  0  0  0  0  0  0  0  0  0  # atno 8010 bound_to 7997
  139.8538  144.6580  150.9139 H   0  0  0  0  0  0  0  0  0  0  0  0  # atno 10167 bound_to 10162
  156.0390  130.5613  150.7681 H   0  0  0  0  0  0  0  0  0  0  0  0  # atno 10718 bound_to 10713
  153.5765  135.3492  155.2858 H   0  0  0  0  0  0  0  0  0  0  0  0  # atno 10763 bound_to 10752
  154.8674  135.4172  154.2668 H   0  0  0  0  0  0  0  0  0  0  0  0  # atno 10764 bound_to 10752
  153.3445  135.7052  153.6910 H   0  0  0  0  0  0  0  0  0  0  0  0  # atno 10765 bound_to 10752
  139.8900  134.8477  156.2977 H   0  0  0  0  0  0  0  0  0  0  0  0  # atno 11005 bound_to 11000
  145.9072  140.9204  143.0472 LP  0  0  0  0  0  0  0  0  0  0  0  0  # atno 17320 bound_to 7965
  144.6726  140.1112  143.7455 LP  0  0  0  0  0  0  0  0  0  0  0  0  # atno 17321 bound_to 7965
  140.7784  143.3804  151.1487 LP  0  0  0  0  0  0  0  0  0  0  0  0  # atno 17342 bound_to 10162
  139.7440  143.8881  152.3058 LP  0  0  0  0  0  0  0  0  0  0  0  0  # atno 17343 bound_to 10162
  157.5182  131.0930  151.0112 LP  0  0  0  0  0  0  0  0  0  0  0  0  # atno 17370 bound_to 10713
  157.0449  130.5764  149.5361 LP  0  0  0  0  0  0  0  0  0  0  0  0  # atno 17371 bound_to 10713
  140.9934  133.7195  156.0849 LP  0  0  0  0  0  0  0  0  0  0  0  0  # atno 17394 bound_to 11000
  140.7595  134.3955  157.5528 LP  0  0  0  0  0  0  0  0  0  0  0  0  # atno 17395 bound_to 11000

$$$$
