AV-unprocessed.smi:269|AV-procd|sdf|2044|dock5
  -GOLD-   2262021263D 1   1.00000     0.00000
 Structure written by MMmdl.
 61 64  0  0  0  0  0  0  0  0  3 V2000
  152.1105  144.4026  160.9703 C   0  0  0  0  0  0  0  0  0  0  0  0
  152.0360  145.4456  159.8506 C   0  0  0  0  0  0  0  0  0  0  0  0
  152.0015  144.7753  158.5544 N   0  5  0  0  0  0  0  0  0  0  0  0
  152.1683  143.4348  158.3970 C   0  0  0  0  0  0  0  0  0  0  0  0
  152.9752  142.6566  158.9163 O   0  0  0  0  0  0  0  0  0  0  0  0
  151.1346  142.8596  157.4223 C   0  0  0  0  0  0  0  0  0  0  0  0
  151.2937  141.3880  157.3187 N   0  3  0  0  0  0  0  0  0  0  0  0
  150.5061  140.8120  156.1990 C   0  0  0  0  0  0  0  0  0  0  0  0
  150.7601  139.3004  156.0581 C   0  0  0  0  0  0  0  0  0  0  0  0
  150.5151  138.6120  157.3228 N   0  0  0  0  0  0  0  0  0  0  0  0
  149.2508  138.1540  157.5289 C   0  0  0  0  0  0  0  0  0  0  0  0
  148.2937  138.3669  156.5866 N   0  0  0  0  0  0  0  0  0  0  0  0
  147.0499  137.9158  156.7678 C   0  0  0  0  0  0  0  0  0  0  0  0
  146.5515  137.2432  157.8053 N   0  0  0  0  0  0  0  0  0  0  0  0
  147.4974  137.0392  158.7653 C   0  0  0  0  0  0  0  0  0  0  0  0
  148.8591  137.4525  158.7060 C   0  0  0  0  0  0  0  0  0  0  0  0
  149.5164  137.0670  159.8683 N   0  0  0  0  0  0  0  0  0  0  0  0
  148.6017  136.4511  160.5656 C   0  0  0  0  0  0  0  0  0  0  0  0
  147.3522  136.4047  159.9879 N   0  0  0  0  0  0  0  0  0  0  0  0
  146.1548  135.7851  160.5421 C   0  0  0  0  0  0  0  0  0  0  0  0
  145.9181  136.0409  162.0654 C   0  0  0  0  0  0  0  0  0  0  0  0
  147.0477  135.4045  162.9187 C   0  0  0  0  0  0  0  0  0  0  0  0
  147.1202  134.0023  162.7521 O   0  0  0  0  0  0  0  0  0  0  0  0
  145.8756  137.5546  162.3958 C   0  0  0  0  0  0  0  0  0  0  0  0
  144.6092  138.2481  161.8609 C   0  0  0  0  0  0  0  0  0  0  0  0
  143.4518  137.6052  162.3777 O   0  0  0  0  0  0  0  0  0  0  0  0
  143.3517  136.2468  161.9715 C   0  0  0  0  0  0  0  0  0  0  0  0
  144.5551  135.4473  162.5039 C   0  0  0  0  0  0  0  0  0  0  0  0
  151.2695  139.1593  158.4505 C   0  0  0  0  0  0  0  0  0  0  0  0
  151.0404  140.6761  158.6007 C   0  0  0  0  0  0  0  0  0  0  0  0
  152.1423  144.8872  161.9463 H   0  0  0  0  0  0  0  0  0  0  0  0
  153.0043  143.7847  160.8791 H   0  0  0  0  0  0  0  0  0  0  0  0
  151.2418  143.7435  160.9568 H   0  0  0  0  0  0  0  0  0  0  0  0
  151.1551  146.0681  160.0099 H   0  0  0  0  0  0  0  0  0  0  0  0
  152.8944  146.1132  159.9334 H   0  0  0  0  0  0  0  0  0  0  0  0
  150.1068  143.1137  157.6911 H   0  0  0  0  0  0  0  0  0  0  0  0
  151.3230  143.3229  156.4528 H   0  0  0  0  0  0  0  0  0  0  0  0
  149.4446  140.9990  156.3698 H   0  0  0  0  0  0  0  0  0  0  0  0
  150.7716  141.3103  155.2659 H   0  0  0  0  0  0  0  0  0  0  0  0
  150.1502  138.9030  155.2484 H   0  0  0  0  0  0  0  0  0  0  0  0
  151.7976  139.1265  155.7704 H   0  0  0  0  0  0  0  0  0  0  0  0
  146.3546  138.1240  155.9678 H   0  0  0  0  0  0  0  0  0  0  0  0
  148.8156  136.0187  161.5320 H   0  0  0  0  0  0  0  0  0  0  0  0
  145.3054  136.1256  159.9514 H   0  0  0  0  0  0  0  0  0  0  0  0
  146.2209  134.7135  160.3504 H   0  0  0  0  0  0  0  0  0  0  0  0
  148.0175  135.8393  162.6770 H   0  0  0  0  0  0  0  0  0  0  0  0
  146.8854  135.6033  163.9787 H   0  0  0  0  0  0  0  0  0  0  0  0
  148.0097  133.7701  162.5347 H   0  0  0  0  0  0  0  0  0  0  0  0
  145.8914  137.6886  163.4783 H   0  0  0  0  0  0  0  0  0  0  0  0
  146.7672  138.0619  162.0283 H   0  0  0  0  0  0  0  0  0  0  0  0
  144.5979  139.2915  162.1764 H   0  0  0  0  0  0  0  0  0  0  0  0
  144.5776  138.2527  160.7717 H   0  0  0  0  0  0  0  0  0  0  0  0
  142.4266  135.8334  162.3736 H   0  0  0  0  0  0  0  0  0  0  0  0
  143.2739  136.1816  160.8860 H   0  0  0  0  0  0  0  0  0  0  0  0
  144.4707  134.4068  162.1886 H   0  0  0  0  0  0  0  0  0  0  0  0
  144.4959  135.4366  163.5932 H   0  0  0  0  0  0  0  0  0  0  0  0
  151.0266  138.6382  159.3774 H   0  0  0  0  0  0  0  0  0  0  0  0
  152.3277  138.9688  158.2691 H   0  0  0  0  0  0  0  0  0  0  0  0
  151.6941  141.0589  159.3845 H   0  0  0  0  0  0  0  0  0  0  0  0
  150.0179  140.8752  158.9233 H   0  0  0  0  0  0  0  0  0  0  0  0
  152.2648  141.2323  157.0886 H   0  0  0  0  0  0  0  0  0  0  0  0
  1  2  1  0  0  0  0
  1 31  1  0  0  0  0
  1 32  1  0  0  0  0
  1 33  1  0  0  0  0
  2  3  1  0  0  0  0
  2 34  1  0  0  0  0
  2 35  1  0  0  0  0
  3  4  1  0  0  0  0
  4  5  2  0  0  0  0
  4  6  1  0  0  0  0
  6  7  1  0  0  0  0
  6 36  1  0  0  0  0
  6 37  1  0  0  0  0
  7 30  1  0  0  0  0
  7  8  1  0  0  0  0
  7 61  1  0  0  0  0
  8  9  1  0  0  0  0
  8 38  1  0  0  0  0
  8 39  1  0  0  0  0
  9 10  1  0  0  0  0
  9 40  1  0  0  0  0
  9 41  1  0  0  0  0
 10 11  1  0  0  0  0
 10 29  1  0  0  0  0
 11 16  1  0  0  0  0
 11 12  2  0  0  0  0
 12 13  1  0  0  0  0
 13 14  2  0  0  0  0
 13 42  1  0  0  0  0
 14 15  1  0  0  0  0
 15 19  1  0  0  0  0
 15 16  2  0  0  0  0
 16 17  1  0  0  0  0
 17 18  2  0  0  0  0
 18 19  1  0  0  0  0
 18 43  1  0  0  0  0
 19 20  1  0  0  0  0
 20 21  1  0  0  0  0
 20 44  1  0  0  0  0
 20 45  1  0  0  0  0
 21 28  1  0  0  0  0
 21 22  1  0  0  0  0
 21 24  1  0  0  0  0
 22 23  1  0  0  0  0
 22 46  1  0  0  0  0
 22 47  1  0  0  0  0
 23 48  1  0  0  0  0
 24 25  1  0  0  0  0
 24 49  1  0  0  0  0
 24 50  1  0  0  0  0
 25 26  1  0  0  0  0
 25 51  1  0  0  0  0
 25 52  1  0  0  0  0
 26 27  1  0  0  0  0
 27 28  1  0  0  0  0
 27 53  1  0  0  0  0
 27 54  1  0  0  0  0
 28 55  1  0  0  0  0
 28 56  1  0  0  0  0
 29 30  1  0  0  0  0
 29 57  1  0  0  0  0
 29 58  1  0  0  0  0
 30 59  1  0  0  0  0
 30 60  1  0  0  0  0
M  CHG  1   3  -1
M  CHG  1   7   1
M  END
> <s_m_source_file>
AV-unprocessed.smi

> <i_m_source_file_index>
269

> <i_lp_mmshare_version>
43012

> <i_f3d_flags>
0

> <s_epik_input>
W0NIM11bQ0gyXVtOSF1DKD1PKVtDSDJdTjFbQ0gyXVtDSDJdTihbQ0gyXVtDSDJdMSljKG5bY0hdbjIpYyhjMjMpbltjSF1uM1tDSDJdQzQoW0NIMl1bT0hdKVtDSDJdW0NIMl1PW0NIMl1bQ0gyXTQ=

> <s_epik_cmdline>
J2VwaWtfcHl0aG9uJywgJy1waCcsICc3LjAnLCAnLXRuJywgJzgnLCAnLW1hJywgJzIwMCcsICctbWV0YWxfYmluZGluZycsICctaW1hZScsICc8aW5maWxlLm1hZT4nLCAnLW9tYWUnLCAnPG91dGZpbGUubWFlPic=

> <r_lp_tautomer_probability>
1

> <r_epik_Ionization_Penalty>
6.2463

> <r_epik_Ionization_Penalty_Charging>
6.24626

> <r_epik_Ionization_Penalty_Neutral>
4.36947e-05

> <r_epik_State_Penalty>
6.38251

> <r_epik_Charging_Adjusted_Penalty>
12.6288

> <i_epik_Tot_Q>
0

> <i_epik_Tot_abs_Q>
2

> <r_epik_Metal_State_Penalty>
2.3175

> <b_epik_Metal_Only>
1

> <s_lp_Force_Field>
OPLS_2005

> <r_lp_Energy>
38.3131

> <b_lp_Chiralities_Consistent>
1

> <s_lp_Variant>
AV-unprocessed.smi:269-3

> <Gold.Version>
5.8.1

> <Gold.Id.Protein>
6NUR|6NUR_protein|mol2

> <Gold.PLP.Fitness>
44.6935

> <Gold.PLP.PLP>
-45.7226

> <Gold.PLP.part.hbond>
-1.0328

> <Gold.PLP.part.metal>
0.0000

> <Gold.PLP.part.buried>
-9.5271

> <Gold.PLP.part.nonpolar>
-36.6101

> <Gold.PLP.part.repulsive>
0.1849

> <Gold.PLP.ligand.clash>
0.0015

> <Gold.PLP.ligand.torsion>
1.0091

> <Gold.PLP.Chemscore.Hbond>
0.1138

> <Gold.PLP.Chemscore.CHOScore>
0.0000

> <Gold.PLP.Chemscore.Metal>
0.0000

> <Gold.PLP.Chemscore.Internal.Correction>
0.6494

> <Gold.Rescore>
     Score         DG    S(hbond)    S(metal)    S(lipo)     H(rot)  DE(clash)    DE(int)     intcor
      5.80      -8.35       0.00        0.00      96.29       3.28       0.00       2.54       ----

> <Gold.Chemscore.Fitness>
5.7999

> <Gold.Chemscore.DG>
-8.3463

> <Gold.Chemscore.ZeroCoef>
-5.4800

> <Gold.Chemscore.Hbond>
0.0005

> <Gold.Chemscore.Metal>
0.0000

> <Gold.Chemscore.Lipo>
96.2859

> <Gold.Chemscore.Internal_Hbond>
0.0000

> <Gold.Chemscore.DEClash>
0.0038

> <Gold.Chemscore.DEInternal>
2.5426

> <Gold.Chemscore.Rot>
3.2816

> <Gold.Chemscore.Internal.Correction>
   9.000000E+99

> <Gold.Chemscore.Hbond.Weighted>
-0.0018

> <Gold.Chemscore.Metal.Weighted>
-0.0000

> <Gold.Chemscore.Lipo.Weighted>
-11.2654

> <Gold.Chemscore.Internal_Hbond.Weighted>
0.0000

> <Gold.Chemscore.DEClash.Weighted>
0.0038

> <Gold.Chemscore.DEInternal.Weighted>
2.5426

> <Gold.Chemscore.Rot.Weighted>
8.4009

> <Gold.Chemscore.Internal.Correction.Weighted>
   9.000000E+99

> <Gold.Protein.RotatedTorsions>
[ 6907 6896 6895 6894 ] final -149.40 input  -60.11 | X-H torsion
[ 7974 7965 7964 7962 ] final  146.81 input  175.53 | X-H torsion
[ 8008 7997 7996 7995 ] final   45.77 input   59.86 | X-H torsion
[ 10167 10162 10161 10158 ] final  -78.44 input  -65.29 | X-H torsion
[ 10718 10713 10712 10709 ] final  -45.23 input   66.30 | X-H torsion
[ 10763 10752 10751 10750 ] final   33.99 input  -60.55 | X-H torsion
[ 11005 11000 10999 10996 ] final -140.94 input  -57.11 | X-H torsion

> <Gold.Protein.ActiveResidues>
 VAL166  LYS551  ARG553  GLY616  TRP617  ASP618  TYR619  PRO620  LYS621  CYS622 
 ASP623  PHE694  ASN695  SER759  ASP760  ASP761  ALA762  ILE779  LEU786  VAL792 
 PHE793  MET794  SER795  GLU796  ALA797  LYS798  CYS799  TRP800  GLU811  SER814 

> <Gold.Protein.RotatedAtoms>
  151.1836  133.4710  159.2594 H   0  0  0  0  0  0  0  0  0  0  0  0  # atno 6907 bound_to 6896
  151.1234  135.0092  159.8559 H   0  0  0  0  0  0  0  0  0  0  0  0  # atno 6908 bound_to 6896
  152.5457  134.1745  159.8663 H   0  0  0  0  0  0  0  0  0  0  0  0  # atno 6909 bound_to 6896
  144.8641  139.5951  143.5917 H   0  0  0  0  0  0  0  0  0  0  0  0  # atno 7974 bound_to 7965
  155.3414  140.3408  155.4239 H   0  0  0  0  0  0  0  0  0  0  0  0  # atno 8008 bound_to 7997
  156.1811  140.1664  156.8308 H   0  0  0  0  0  0  0  0  0  0  0  0  # atno 8009 bound_to 7997
  154.5335  140.0740  156.8369 H   0  0  0  0  0  0  0  0  0  0  0  0  # atno 8010 bound_to 7997
  140.4682  143.2434  151.8245 H   0  0  0  0  0  0  0  0  0  0  0  0  # atno 10167 bound_to 10162
  156.2304  130.4172  149.8882 H   0  0  0  0  0  0  0  0  0  0  0  0  # atno 10718 bound_to 10713
  153.0185  135.6372  154.1599 H   0  0  0  0  0  0  0  0  0  0  0  0  # atno 10763 bound_to 10752
  154.1336  135.2839  155.3180 H   0  0  0  0  0  0  0  0  0  0  0  0  # atno 10764 bound_to 10752
  154.6176  135.5535  153.7602 H   0  0  0  0  0  0  0  0  0  0  0  0  # atno 10765 bound_to 10752
  140.8373  134.2444  157.4827 H   0  0  0  0  0  0  0  0  0  0  0  0  # atno 11005 bound_to 11000
  146.2883  139.7065  142.9180 LP  0  0  0  0  0  0  0  0  0  0  0  0  # atno 17320 bound_to 7965
  145.4255  141.0410  143.2940 LP  0  0  0  0  0  0  0  0  0  0  0  0  # atno 17321 bound_to 7965
  139.4815  144.4924  151.9167 LP  0  0  0  0  0  0  0  0  0  0  0  0  # atno 17342 bound_to 10162
  140.4010  144.2493  150.5893 LP  0  0  0  0  0  0  0  0  0  0  0  0  # atno 17343 bound_to 10162
  156.6498  130.8739  151.3529 LP  0  0  0  0  0  0  0  0  0  0  0  0  # atno 17370 bound_to 10713
  157.7130  130.9463  150.1156 LP  0  0  0  0  0  0  0  0  0  0  0  0  # atno 17371 bound_to 10713
  139.8704  134.9617  156.4406 LP  0  0  0  0  0  0  0  0  0  0  0  0  # atno 17394 bound_to 11000
  140.8933  133.7832  155.9596 LP  0  0  0  0  0  0  0  0  0  0  0  0  # atno 17395 bound_to 11000

$$$$
