AV-unprocessed.smi:3228|AV-procd|sdf|12324|dock10
  -GOLD-   2272018173D 1   1.00000     0.00000
 Structure written by MMmdl.
 30 31  0  0  0  0  0  0  0  0  2 V2000
  151.4676  140.8613  155.1167 O   0  0  0  0  0  0  0  0  0  0  0  0
  150.6148  141.4044  155.8228 C   0  0  0  0  0  0  0  0  0  0  0  0
  150.8551  141.5993  157.1260 N   0  0  0  0  0  0  0  0  0  0  0  0
  152.0764  141.2125  157.8212 C   0  0  0  0  0  0  0  0  0  0  0  0
  152.0507  141.6848  159.2871 C   0  0  1  0  0  0  0  0  0  0  0  0
  153.3331  141.4081  160.0835 C   0  0  0  0  0  0  0  0  0  0  0  0
  153.3258  142.4112  161.2473 C   0  0  0  0  0  0  0  0  0  0  0  0
  152.2044  143.4199  160.9510 C   0  0  0  0  0  0  0  0  0  0  0  0
  151.7999  143.1859  159.4915 C   0  0  1  0  0  0  0  0  0  0  0  0
  152.6282  143.9713  158.6541 O   0  0  0  0  0  0  0  0  0  0  0  0
  149.4026  141.8484  155.4191 N   0  5  0  0  0  0  0  0  0  0  0  0
  148.6862  141.1356  154.5347 C   0  0  0  0  0  0  0  0  0  0  0  0
  149.0132  139.8921  154.1645 N   0  0  0  0  0  0  0  0  0  0  0  0
  148.1347  139.3420  153.2293 C   0  0  0  0  0  0  0  0  0  0  0  0
  147.1198  140.1895  152.8726 C   0  0  0  0  0  0  0  0  0  0  0  0
  147.2382  141.7135  153.7053 S   0  0  0  0  0  0  0  0  0  0  0  0
  150.1341  142.0461  157.6733 H   0  0  0  0  0  0  0  0  0  0  0  0
  152.1846  140.1282  157.7677 H   0  0  0  0  0  0  0  0  0  0  0  0
  152.9350  141.6480  157.3078 H   0  0  0  0  0  0  0  0  0  0  0  0
  151.2380  141.1581  159.7910 H   0  0  0  0  0  0  0  0  0  0  0  0
  153.3871  140.3753  160.4291 H   0  0  0  0  0  0  0  0  0  0  0  0
  154.2072  141.5876  159.4558 H   0  0  0  0  0  0  0  0  0  0  0  0
  153.1476  141.9105  162.1996 H   0  0  0  0  0  0  0  0  0  0  0  0
  154.2918  142.9118  161.3192 H   0  0  0  0  0  0  0  0  0  0  0  0
  151.3520  143.2011  161.5956 H   0  0  0  0  0  0  0  0  0  0  0  0
  152.5010  144.4503  161.1522 H   0  0  0  0  0  0  0  0  0  0  0  0
  150.7588  143.4542  159.3093 H   0  0  0  0  0  0  0  0  0  0  0  0
  152.2810  143.9393  157.7756 H   0  0  0  0  0  0  0  0  0  0  0  0
  148.3091  138.3388  152.8703 H   0  0  0  0  0  0  0  0  0  0  0  0
  146.3153  140.0133  152.1748 H   0  0  0  0  0  0  0  0  0  0  0  0
  1  2  2  0  0  0  0
  2  3  1  0  0  0  0
  2 11  1  0  0  0  0
  3  4  1  0  0  0  0
  3 17  1  0  0  0  0
  4  5  1  0  0  0  0
  4 18  1  0  0  0  0
  4 19  1  0  0  0  0
  5  9  1  0  0  0  0
  5  6  1  0  0  0  0
  5 20  1  0  0  0  0
  6  7  1  0  0  0  0
  6 21  1  0  0  0  0
  6 22  1  0  0  0  0
  7  8  1  0  0  0  0
  7 23  1  0  0  0  0
  7 24  1  0  0  0  0
  8  9  1  0  0  0  0
  8 25  1  0  0  0  0
  8 26  1  0  0  0  0
  9 10  1  0  0  0  0
  9 27  1  0  0  0  0
 10 28  1  0  0  0  0
 11 12  1  0  0  0  0
 12 16  1  0  0  0  0
 12 13  2  0  0  0  0
 13 14  1  0  0  0  0
 14 15  2  0  0  0  0
 14 29  1  0  0  0  0
 15 16  1  0  0  0  0
 15 30  1  0  0  0  0
M  CHG  1  11  -1
M  END
> <s_m_source_file>
AV-unprocessed.smi

> <i_m_source_file_index>
3228

> <i_lp_mmshare_version>
43012

> <i_f3d_flags>
0

> <s_epik_input>
czFbY0hdW2NIXW5jMVtOSF1DKD1PKVtOSF1bQ0gyXVtDQEBIXTJbQ0gyXVtDSDJdW0NIMl1bQ0BIXTJbT0hd

> <s_epik_cmdline>
J2VwaWtfcHl0aG9uJywgJy1waCcsICc3LjAnLCAnLXRuJywgJzgnLCAnLW1hJywgJzIwMCcsICctbWV0YWxfYmluZGluZycsICctaW1hZScsICc8aW5maWxlLm1hZT4nLCAnLW9tYWUnLCAnPG91dGZpbGUubWFlPic=

> <r_lp_tautomer_probability>
0.999

> <r_epik_Ionization_Penalty>
8.49756

> <r_epik_Ionization_Penalty_Charging>
6.79645

> <r_epik_Ionization_Penalty_Neutral>
1.70111

> <r_epik_State_Penalty>
6.79662

> <r_epik_Charging_Adjusted_Penalty>
13.5931

> <i_epik_Tot_Q>
-1

> <i_epik_Tot_abs_Q>
1

> <r_epik_Metal_State_Penalty>
2.71629

> <b_epik_Metal_Only>
1

> <s_lp_Force_Field>
OPLS_2005

> <r_lp_Energy>
20.5315

> <b_lp_Chiralities_Consistent>
1

> <s_lp_Variant>
AV-unprocessed.smi:3228-6

> <Gold.Version>
5.8.1

> <Gold.Id.Protein>
6NUR|6NUR_protein|mol2

> <Gold.PLP.Fitness>
41.6280

> <Gold.PLP.PLP>
-33.6309

> <Gold.PLP.part.hbond>
-1.0000

> <Gold.PLP.part.metal>
0.0000

> <Gold.PLP.part.buried>
-4.3399

> <Gold.PLP.part.nonpolar>
-28.3486

> <Gold.PLP.part.repulsive>
0.6660

> <Gold.PLP.ligand.clash>
0.0000

> <Gold.PLP.ligand.torsion>
0.3469

> <Gold.PLP.Chemscore.Hbond>
0.8960

> <Gold.PLP.Chemscore.CHOScore>
2.0000

> <Gold.PLP.Chemscore.Metal>
0.0000

> <Gold.Chemscore.Hbonds>
donor molecule, donor type, donor heavy atom, donor atom, acceptor molecule, acceptor atom, score
      P1  H  7989  7998       L1     1  0.67
      L1  C    14    29       P1  7948  1.00
      L1  C    15    30       P1 10175  0.63

> <Gold.PLP.Chemscore.Internal.Correction>
0.0029

> <Gold.Rescore>
     Score         DG    S(hbond)    S(metal)    S(lipo)     H(rot)  DE(clash)    DE(int)     intcor
     11.52     -13.26       0.93        0.00      80.32       1.85       0.01       1.73       ----

> <Gold.Chemscore.Fitness>
11.5190

> <Gold.Chemscore.DG>
-13.2588

> <Gold.Chemscore.ZeroCoef>
-5.4800

> <Gold.Chemscore.Hbond>
0.9321

> <Gold.Chemscore.Metal>
0.0000

> <Gold.Chemscore.Lipo>
80.3158

> <Gold.Chemscore.Internal_Hbond>
0.0000

> <Gold.Chemscore.DEClash>
0.0147

> <Gold.Chemscore.DEInternal>
1.7251

> <Gold.Chemscore.Rot>
1.8481

> <Gold.Chemscore.Internal.Correction>
   9.000000E+99

> <Gold.Chemscore.Hbonds>
donor molecule, donor type, donor heavy atom, donor atom, acceptor molecule, acceptor atom, score
      P1  H  7989  7998       L1     1  0.67

> <Gold.Chemscore.Hbond.Weighted>
-3.1131

> <Gold.Chemscore.Metal.Weighted>
-0.0000

> <Gold.Chemscore.Lipo.Weighted>
-9.3970

> <Gold.Chemscore.Internal_Hbond.Weighted>
0.0000

> <Gold.Chemscore.DEClash.Weighted>
0.0147

> <Gold.Chemscore.DEInternal.Weighted>
1.7251

> <Gold.Chemscore.Rot.Weighted>
4.7313

> <Gold.Chemscore.Internal.Correction.Weighted>
   9.000000E+99

> <Gold.Protein.RotatedTorsions>
[ 6907 6896 6895 6894 ] final   65.01 input  -60.11 | X-H torsion
[ 7974 7965 7964 7962 ] final   88.33 input  175.53 | X-H torsion
[ 8008 7997 7996 7995 ] final  -66.58 input   59.86 | X-H torsion
[ 10167 10162 10161 10158 ] final -170.22 input  -65.29 | X-H torsion
[ 10718 10713 10712 10709 ] final  -30.47 input   66.30 | X-H torsion
[ 10763 10752 10751 10750 ] final   63.27 input  -60.55 | X-H torsion
[ 11005 11000 10999 10996 ] final   34.77 input  -57.11 | X-H torsion

> <Gold.Protein.ActiveResidues>
 VAL166  LYS551  ARG553  GLY616  TRP617  ASP618  TYR619  PRO620  LYS621  CYS622 
 ASP623  PHE694  ASN695  SER759  ASP760  ASP761  ALA762  ILE779  LEU786  VAL792 
 PHE793  MET794  SER795  GLU796  ALA797  LYS798  CYS799  TRP800  GLU811  SER814 

> <Gold.Protein.RotatedAtoms>
  152.4375  134.5656  159.9906 H   0  0  0  0  0  0  0  0  0  0  0  0  # atno 6907 bound_to 6896
  151.5763  133.3377  159.3007 H   0  0  0  0  0  0  0  0  0  0  0  0  # atno 6908 bound_to 6896
  150.8276  134.7549  159.6890 H   0  0  0  0  0  0  0  0  0  0  0  0  # atno 6909 bound_to 6896
  145.5471  139.2293  143.2533 H   0  0  0  0  0  0  0  0  0  0  0  0  # atno 7974 bound_to 7965
  154.4743  140.0910  156.7224 H   0  0  0  0  0  0  0  0  0  0  0  0  # atno 8008 bound_to 7997
  155.4638  140.3462  155.4298 H   0  0  0  0  0  0  0  0  0  0  0  0  # atno 8009 bound_to 7997
  156.1091  140.1443  156.9351 H   0  0  0  0  0  0  0  0  0  0  0  0  # atno 8010 bound_to 7997
  139.5875  144.1286  152.1593 H   0  0  0  0  0  0  0  0  0  0  0  0  # atno 10167 bound_to 10162
  156.3994  130.4387  149.7334 H   0  0  0  0  0  0  0  0  0  0  0  0  # atno 10718 bound_to 10713
  153.0012  135.5435  154.6326 H   0  0  0  0  0  0  0  0  0  0  0  0  # atno 10763 bound_to 10752
  154.5600  135.2833  155.0930 H   0  0  0  0  0  0  0  0  0  0  0  0  # atno 10764 bound_to 10752
  154.2137  135.6463  153.5175 H   0  0  0  0  0  0  0  0  0  0  0  0  # atno 10765 bound_to 10752
  140.2495  134.3320  155.7895 H   0  0  0  0  0  0  0  0  0  0  0  0  # atno 11005 bound_to 11000
  146.1942  140.6293  142.9132 LP  0  0  0  0  0  0  0  0  0  0  0  0  # atno 17320 bound_to 7965
  144.7548  140.5279  143.6777 LP  0  0  0  0  0  0  0  0  0  0  0  0  # atno 17321 bound_to 7965
  140.0853  144.5666  150.7093 LP  0  0  0  0  0  0  0  0  0  0  0  0  # atno 17342 bound_to 10162
  140.7144  143.2532  151.4480 LP  0  0  0  0  0  0  0  0  0  0  0  0  # atno 17343 bound_to 10162
  156.4356  130.7836  151.2857 LP  0  0  0  0  0  0  0  0  0  0  0  0  # atno 17370 bound_to 10713
  157.7503  131.0140  150.3449 LP  0  0  0  0  0  0  0  0  0  0  0  0  # atno 17371 bound_to 10713
  141.2203  133.7345  156.9014 LP  0  0  0  0  0  0  0  0  0  0  0  0  # atno 17394 bound_to 11000
  140.1572  134.9190  157.2669 LP  0  0  0  0  0  0  0  0  0  0  0  0  # atno 17395 bound_to 11000

$$$$
