AV-unprocessed.smi:3228|AV-procd|sdf|12322|dock3
  -GOLD-   2272018173D 1   1.00000     0.00000
 Structure written by MMmdl.
 31 32  0  0  0  0  0  0  0  0  1 V2000
  144.3886  136.8339  152.3415 O   0  0  0  0  0  0  0  0  0  0  0  0
  145.6050  136.6771  152.2325 C   0  0  0  0  0  0  0  0  0  0  0  0
  146.5057  137.5821  152.6416 N   0  0  0  0  0  0  0  0  0  0  0  0
  146.1828  138.8650  153.2579 C   0  0  0  0  0  0  0  0  0  0  0  0
  147.3932  139.8198  153.2776 C   0  0  1  0  0  0  0  0  0  0  0  0
  147.0862  141.2055  153.8695 C   0  0  0  0  0  0  0  0  0  0  0  0
  148.3881  141.7030  154.5180 C   0  0  0  0  0  0  0  0  0  0  0  0
  149.4063  140.5673  154.3690 C   0  0  0  0  0  0  0  0  0  0  0  0
  148.5650  139.3140  154.1254 C   0  0  2  0  0  0  0  0  0  0  0  0
  149.3135  138.3143  153.4649 O   0  0  0  0  0  0  0  0  0  0  0  0
  146.2059  135.5987  151.6991 N   0  0  0  0  0  0  0  0  0  0  0  0
  145.5998  134.4471  151.1311 C   0  0  0  0  0  0  0  0  0  0  0  0
  144.2853  134.3117  150.9200 N   0  0  0  0  0  0  0  0  0  0  0  0
  143.9710  133.0789  150.3423 C   0  0  0  0  0  0  0  0  0  0  0  0
  145.0659  132.2814  150.1205 C   0  0  0  0  0  0  0  0  0  0  0  0
  146.5444  133.0520  150.6306 S   0  0  0  0  0  0  0  0  0  0  0  0
  147.4850  137.3713  152.5161 H   0  0  0  0  0  0  0  0  0  0  0  0
  145.3626  139.3121  152.6957 H   0  0  0  0  0  0  0  0  0  0  0  0
  145.8080  138.7060  154.2702 H   0  0  0  0  0  0  0  0  0  0  0  0
  147.7527  139.9658  152.2569 H   0  0  0  0  0  0  0  0  0  0  0  0
  146.7212  141.8933  153.1060 H   0  0  0  0  0  0  0  0  0  0  0  0
  146.3115  141.1306  154.6339 H   0  0  0  0  0  0  0  0  0  0  0  0
  148.7499  142.6187  154.0493 H   0  0  0  0  0  0  0  0  0  0  0  0
  148.2163  141.9223  155.5724 H   0  0  0  0  0  0  0  0  0  0  0  0
  150.0374  140.7668  153.5013 H   0  0  0  0  0  0  0  0  0  0  0  0
  150.0604  140.4718  155.2364 H   0  0  0  0  0  0  0  0  0  0  0  0
  148.2007  138.9255  155.0776 H   0  0  0  0  0  0  0  0  0  0  0  0
  149.5440  138.6294  152.6043 H   0  0  0  0  0  0  0  0  0  0  0  0
  147.2150  135.6074  151.6863 H   0  0  0  0  0  0  0  0  0  0  0  0
  142.9387  132.8512  150.1210 H   0  0  0  0  0  0  0  0  0  0  0  0
  145.0921  131.2917  149.6891 H   0  0  0  0  0  0  0  0  0  0  0  0
  1  2  2  0  0  0  0
  2  3  1  0  0  0  0
  2 11  1  0  0  0  0
  3  4  1  0  0  0  0
  3 17  1  0  0  0  0
  4  5  1  0  0  0  0
  4 18  1  0  0  0  0
  4 19  1  0  0  0  0
  5  9  1  0  0  0  0
  5  6  1  0  0  0  0
  5 20  1  0  0  0  0
  6  7  1  0  0  0  0
  6 21  1  0  0  0  0
  6 22  1  0  0  0  0
  7  8  1  0  0  0  0
  7 23  1  0  0  0  0
  7 24  1  0  0  0  0
  8  9  1  0  0  0  0
  8 25  1  0  0  0  0
  8 26  1  0  0  0  0
  9 10  1  0  0  0  0
  9 27  1  0  0  0  0
 10 28  1  0  0  0  0
 11 12  1  0  0  0  0
 11 29  1  0  0  0  0
 12 16  1  0  0  0  0
 12 13  2  0  0  0  0
 13 14  1  0  0  0  0
 14 15  2  0  0  0  0
 14 30  1  0  0  0  0
 15 16  1  0  0  0  0
 15 31  1  0  0  0  0
M  END
> <s_m_source_file>
AV-unprocessed.smi

> <i_m_source_file_index>
3228

> <i_lp_mmshare_version>
43012

> <i_f3d_flags>
0

> <s_epik_input>
czFbY0hdW2NIXW5jMVtOSF1DKD1PKVtOSF1bQ0gyXVtDQEBIXTJbQ0gyXVtDSDJdW0NIMl1bQ0BIXTJbT0hd

> <s_epik_cmdline>
J2VwaWtfcHl0aG9uJywgJy1waCcsICc3LjAnLCAnLXRuJywgJzgnLCAnLW1hJywgJzIwMCcsICctbWV0YWxfYmluZGluZycsICctaW1hZScsICc8aW5maWxlLm1hZT4nLCAnLW9tYWUnLCAnPG91dGZpbGUubWFlPic=

> <r_lp_tautomer_probability>
0.999

> <r_epik_Ionization_Penalty>
0.000399498

> <r_epik_Ionization_Penalty_Charging>
0

> <r_epik_Ionization_Penalty_Neutral>
0.000399498

> <r_epik_State_Penalty>
0.000177984

> <r_epik_Charging_Adjusted_Penalty>
0.000177984

> <i_epik_Tot_Q>
0

> <i_epik_Tot_abs_Q>
0

> <r_epik_Metal_State_Penalty>
0.0060793

> <b_epik_Metal_Only>
0

> <s_lp_Force_Field>
OPLS_2005

> <r_lp_Energy>
21.0821

> <b_lp_Chiralities_Consistent>
1

> <s_lp_Variant>
AV-unprocessed.smi:3228-4

> <Gold.Version>
5.8.1

> <Gold.Id.Protein>
6NUR|6NUR_protein|mol2

> <Gold.PLP.Fitness>
41.8408

> <Gold.PLP.PLP>
-30.0555

> <Gold.PLP.part.hbond>
-4.0000

> <Gold.PLP.part.metal>
0.0000

> <Gold.PLP.part.buried>
-2.0281

> <Gold.PLP.part.nonpolar>
-24.9883

> <Gold.PLP.part.repulsive>
0.8256

> <Gold.PLP.ligand.clash>
0.0000

> <Gold.PLP.ligand.torsion>
0.1080

> <Gold.PLP.Chemscore.Hbond>
3.0000

> <Gold.PLP.Chemscore.CHOScore>
1.0000

> <Gold.PLP.Chemscore.Metal>
0.0000

> <Gold.Chemscore.Hbonds>
donor molecule, donor type, donor heavy atom, donor atom, acceptor molecule, acceptor atom, score
      L1  H     3    17       P1  7948  1.00
      L1  H    10    28       P1  7957  1.00
      L1  H    11    29       P1  7948  1.00
      L1  C    14    30       P1 10186  0.95

> <Gold.PLP.Chemscore.Internal.Correction>
0.0012

> <Gold.Rescore>
     Score         DG    S(hbond)    S(metal)    S(lipo)     H(rot)  DE(clash)    DE(int)     intcor
     14.89     -17.50       2.67        0.00      67.69       1.88       0.21       2.40       ----

> <Gold.Chemscore.Fitness>
14.8897

> <Gold.Chemscore.DG>
-17.4961

> <Gold.Chemscore.ZeroCoef>
-5.4800

> <Gold.Chemscore.Hbond>
2.6664

> <Gold.Chemscore.Metal>
0.0000

> <Gold.Chemscore.Lipo>
67.6875

> <Gold.Chemscore.Internal_Hbond>
0.0000

> <Gold.Chemscore.DEClash>
0.2073

> <Gold.Chemscore.DEInternal>
2.3991

> <Gold.Chemscore.Rot>
1.8786

> <Gold.Chemscore.Internal.Correction>
   9.000000E+99

> <Gold.Chemscore.Hbonds>
donor molecule, donor type, donor heavy atom, donor atom, acceptor molecule, acceptor atom, score
      L1  H     3    17       P1  7948  0.95
      L1  H    10    28       P1  7957  0.66
      L1  H    11    29       P1  7948  0.99

> <Gold.Chemscore.Hbond.Weighted>
-8.9058

> <Gold.Chemscore.Metal.Weighted>
-0.0000

> <Gold.Chemscore.Lipo.Weighted>
-7.9194

> <Gold.Chemscore.Internal_Hbond.Weighted>
0.0000

> <Gold.Chemscore.DEClash.Weighted>
0.2073

> <Gold.Chemscore.DEInternal.Weighted>
2.3991

> <Gold.Chemscore.Rot.Weighted>
4.8091

> <Gold.Chemscore.Internal.Correction.Weighted>
   9.000000E+99

> <Gold.Protein.RotatedTorsions>
[ 6907 6896 6895 6894 ] final   95.44 input  -60.11 | X-H torsion
[ 7974 7965 7964 7962 ] final -139.37 input  175.53 | X-H torsion
[ 8008 7997 7996 7995 ] final   16.10 input   59.86 | X-H torsion
[ 10167 10162 10161 10158 ] final   73.84 input  -65.29 | X-H torsion
[ 10718 10713 10712 10709 ] final -126.21 input   66.30 | X-H torsion
[ 10763 10752 10751 10750 ] final -154.85 input  -60.55 | X-H torsion
[ 11005 11000 10999 10996 ] final -177.00 input  -57.11 | X-H torsion

> <Gold.Protein.ActiveResidues>
 VAL166  LYS551  ARG553  GLY616  TRP617  ASP618  TYR619  PRO620  LYS621  CYS622 
 ASP623  PHE694  ASN695  SER759  ASP760  ASP761  ALA762  ILE779  LEU786  VAL792 
 PHE793  MET794  SER795  GLU796  ALA797  LYS798  CYS799  TRP800  GLU811  SER814 

> <Gold.Protein.RotatedAtoms>
  152.5443  134.1040  159.8329 H   0  0  0  0  0  0  0  0  0  0  0  0  # atno 6907 bound_to 6896
  151.1114  133.5163  159.2613 H   0  0  0  0  0  0  0  0  0  0  0  0  # atno 6908 bound_to 6896
  151.1880  135.0399  159.8875 H   0  0  0  0  0  0  0  0  0  0  0  0  # atno 6909 bound_to 6896
  144.8682  140.6326  143.5284 H   0  0  0  0  0  0  0  0  0  0  0  0  # atno 7974 bound_to 7965
  154.8722  140.2960  155.5474 H   0  0  0  0  0  0  0  0  0  0  0  0  # atno 8008 bound_to 7997
  156.3021  140.2458  156.3645 H   0  0  0  0  0  0  0  0  0  0  0  0  # atno 8009 bound_to 7997
  154.8805  140.0398  157.1768 H   0  0  0  0  0  0  0  0  0  0  0  0  # atno 8010 bound_to 7997
  140.0201  144.5547  150.7589 H   0  0  0  0  0  0  0  0  0  0  0  0  # atno 10167 bound_to 10162
  156.1744  130.6690  151.0223 H   0  0  0  0  0  0  0  0  0  0  0  0  # atno 10718 bound_to 10713
  154.7829  135.3181  154.7949 H   0  0  0  0  0  0  0  0  0  0  0  0  # atno 10763 bound_to 10752
  153.8656  135.6849  153.4783 H   0  0  0  0  0  0  0  0  0  0  0  0  # atno 10764 bound_to 10752
  153.1472  135.4714  154.9521 H   0  0  0  0  0  0  0  0  0  0  0  0  # atno 10765 bound_to 10752
  140.4458  134.6389  157.4779 H   0  0  0  0  0  0  0  0  0  0  0  0  # atno 11005 bound_to 11000
  145.4181  139.1568  143.4089 LP  0  0  0  0  0  0  0  0  0  0  0  0  # atno 17320 bound_to 7965
  146.2911  140.4289  142.8739 LP  0  0  0  0  0  0  0  0  0  0  0  0  # atno 17321 bound_to 7965
  140.7346  143.2731  151.3827 LP  0  0  0  0  0  0  0  0  0  0  0  0  # atno 17342 bound_to 10162
  139.6146  144.1030  152.2332 LP  0  0  0  0  0  0  0  0  0  0  0  0  # atno 17343 bound_to 10162
  157.6825  131.0834  150.7330 LP  0  0  0  0  0  0  0  0  0  0  0  0  # atno 17370 bound_to 10713
  156.7389  130.4733  149.5482 LP  0  0  0  0  0  0  0  0  0  0  0  0  # atno 17371 bound_to 10713
  140.0039  134.6793  155.9486 LP  0  0  0  0  0  0  0  0  0  0  0  0  # atno 17394 bound_to 11000
  141.1686  133.6537  156.4568 LP  0  0  0  0  0  0  0  0  0  0  0  0  # atno 17395 bound_to 11000

$$$$
