AV-unprocessed.smi:2303|AV-procd|sdf|9242|dock5
  -GOLD-   2272012463D 1   1.00000     0.00000
 Structure written by MMmdl.
 33 34  0  0  0  0  0  0  0  0  1 V2000
  151.9467  144.0931  157.8549 C   0  0  0  0  0  0  0  0  0  0  0  0
  151.7420  143.0623  158.9794 C   0  0  0  0  0  0  0  0  0  0  0  0
  152.7395  143.3066  160.1258 C   0  0  0  0  0  0  0  0  0  0  0  0
  151.7781  141.6112  158.4980 C   0  0  0  0  0  0  0  0  0  0  0  0
  151.9723  140.5171  159.2621 C   0  0  0  0  0  0  0  0  0  0  0  0
  151.9801  139.2062  158.6359 C   0  0  0  0  0  0  0  0  0  0  0  0
  152.1230  138.0304  159.4959 C   0  0  0  0  0  0  0  0  0  0  0  0
  151.2538  137.1639  159.5942 O   0  0  0  0  0  0  0  0  0  0  0  0
  153.2756  137.9351  160.1971 N   0  0  0  0  0  0  0  0  0  0  0  0
  153.6407  136.9135  161.1695 C   0  0  0  0  0  0  0  0  0  0  0  0
  154.7895  137.5378  161.9407 C   0  0  0  0  0  0  0  0  0  0  0  0
  154.5229  139.0255  161.7758 C   0  0  0  0  0  0  0  0  0  0  0  0
  154.0114  139.1098  160.4569 O   0  0  0  0  0  0  0  0  0  0  0  0
  151.7647  139.0962  157.3014 C   0  0  0  0  0  0  0  0  0  0  0  0
  151.5703  140.2789  156.4598 C   0  0  0  0  0  0  0  0  0  0  0  0
  151.3975  140.2302  155.2442 O   0  0  0  0  0  0  0  0  0  0  0  0
  151.5898  141.4620  157.1157 N   0  0  0  0  0  0  0  0  0  0  0  0
  151.2046  143.9724  157.0651 H   0  0  0  0  0  0  0  0  0  0  0  0
  152.9371  144.0056  157.4066 H   0  0  0  0  0  0  0  0  0  0  0  0
  151.8486  145.1098  158.2364 H   0  0  0  0  0  0  0  0  0  0  0  0
  150.7398  143.2247  159.3789 H   0  0  0  0  0  0  0  0  0  0  0  0
  152.5361  142.6676  160.9853 H   0  0  0  0  0  0  0  0  0  0  0  0
  152.6900  144.3385  160.4745 H   0  0  0  0  0  0  0  0  0  0  0  0
  153.7636  143.1153  159.8036 H   0  0  0  0  0  0  0  0  0  0  0  0
  152.1216  140.6029  160.3284 H   0  0  0  0  0  0  0  0  0  0  0  0
  152.7967  136.7113  161.8312 H   0  0  0  0  0  0  0  0  0  0  0  0
  153.9310  135.9814  160.6836 H   0  0  0  0  0  0  0  0  0  0  0  0
  154.8285  137.2227  162.9838 H   0  0  0  0  0  0  0  0  0  0  0  0
  155.7381  137.2779  161.4691 H   0  0  0  0  0  0  0  0  0  0  0  0
  153.7618  139.3635  162.4807 H   0  0  0  0  0  0  0  0  0  0  0  0
  155.4153  139.6379  161.9060 H   0  0  0  0  0  0  0  0  0  0  0  0
  151.7191  138.1248  156.8299 H   0  0  0  0  0  0  0  0  0  0  0  0
  151.4562  142.3089  156.5823 H   0  0  0  0  0  0  0  0  0  0  0  0
  1  2  1  0  0  0  0
  1 18  1  0  0  0  0
  1 19  1  0  0  0  0
  1 20  1  0  0  0  0
  2  3  1  0  0  0  0
  2 21  1  0  0  0  0
  2  4  1  0  0  0  0
  3 22  1  0  0  0  0
  3 23  1  0  0  0  0
  3 24  1  0  0  0  0
  4 17  1  0  0  0  0
  4  5  2  0  0  0  0
  5 25  1  0  0  0  0
  5  6  1  0  0  0  0
  6  7  1  0  0  0  0
  6 14  2  0  0  0  0
  7  8  2  0  0  0  0
  7  9  1  0  0  0  0
  9 13  1  0  0  0  0
  9 10  1  0  0  0  0
 10 11  1  0  0  0  0
 10 26  1  0  0  0  0
 10 27  1  0  0  0  0
 11 12  1  0  0  0  0
 11 28  1  0  0  0  0
 11 29  1  0  0  0  0
 12 13  1  0  0  0  0
 12 30  1  0  0  0  0
 12 31  1  0  0  0  0
 14 15  1  0  0  0  0
 14 32  1  0  0  0  0
 15 16  2  0  0  0  0
 15 17  1  0  0  0  0
 17 33  1  0  0  0  0
M  END
> <s_m_source_file>
AV-unprocessed.smi

> <i_m_source_file_index>
2303

> <i_lp_mmshare_version>
43012

> <i_f3d_flags>
0

> <s_epik_input>
W0NIM11bQ0hdKFtDSDNdKWMxW2NIXWMoW2NIXWMobjEpW09IXSlDKD1PKU4yW0NIMl1bQ0gyXVtDSDJdTzI=

> <s_epik_cmdline>
J2VwaWtfcHl0aG9uJywgJy1waCcsICc3LjAnLCAnLXRuJywgJzgnLCAnLW1hJywgJzIwMCcsICctbWV0YWxfYmluZGluZycsICctaW1hZScsICc8aW5maWxlLm1hZT4nLCAnLW9tYWUnLCAnPG91dGZpbGUubWFlPic=

> <r_lp_tautomer_probability>
1

> <r_epik_Ionization_Penalty>
8.70942e-05

> <r_epik_Ionization_Penalty_Charging>
8.7046e-05

> <r_epik_Ionization_Penalty_Neutral>
4.82304e-08

> <r_epik_State_Penalty>
-0

> <r_epik_Charging_Adjusted_Penalty>
8.7046e-05

> <i_epik_Tot_Q>
0

> <i_epik_Tot_abs_Q>
0

> <r_epik_Metal_State_Penalty>
0.0811253

> <b_epik_Metal_Only>
0

> <s_epik_Chemistry_Notes>
This compound has a N-S or N-O group and may undergo hydrolysis at high or low pH.

> <s_lp_Force_Field>
OPLS_2005

> <r_lp_Energy>
27.1372

> <b_lp_Chiralities_Consistent>
1

> <s_lp_Variant>
AV-unprocessed.smi:2303-1

> <Gold.Version>
5.8.1

> <Gold.Id.Protein>
6NUR|6NUR_protein|mol2

> <Gold.PLP.Fitness>
35.2349

> <Gold.PLP.PLP>
-31.6835

> <Gold.PLP.part.hbond>
-2.0000

> <Gold.PLP.part.metal>
0.0000

> <Gold.PLP.part.buried>
-3.8346

> <Gold.PLP.part.nonpolar>
-25.9483

> <Gold.PLP.part.repulsive>
0.1229

> <Gold.PLP.ligand.clash>
0.0000

> <Gold.PLP.ligand.torsion>
1.8333

> <Gold.PLP.Chemscore.Hbond>
2.0000

> <Gold.PLP.Chemscore.CHOScore>
0.0000

> <Gold.PLP.Chemscore.Metal>
0.0000

> <Gold.Chemscore.Hbonds>
donor molecule, donor type, donor heavy atom, donor atom, acceptor molecule, acceptor atom, score
      P1  H  6896  6908       L1     8  0.99
      P1  H  7989  7998       L1    16  1.00

> <Gold.PLP.Chemscore.Internal.Correction>
1.2181

> <Gold.Rescore>
     Score         DG    S(hbond)    S(metal)    S(lipo)     H(rot)  DE(clash)    DE(int)     intcor
     16.04     -18.75       1.98        0.00      78.84       1.00       0.00       2.71       ----

> <Gold.Chemscore.Fitness>
16.0402

> <Gold.Chemscore.DG>
-18.7478

> <Gold.Chemscore.ZeroCoef>
-5.4800

> <Gold.Chemscore.Hbond>
1.9771

> <Gold.Chemscore.Metal>
0.0000

> <Gold.Chemscore.Lipo>
78.8410

> <Gold.Chemscore.Internal_Hbond>
0.0000

> <Gold.Chemscore.DEClash>
0.0009

> <Gold.Chemscore.DEInternal>
2.7066

> <Gold.Chemscore.Rot>
1.0000

> <Gold.Chemscore.Internal.Correction>
   9.000000E+99

> <Gold.Chemscore.Hbonds>
donor molecule, donor type, donor heavy atom, donor atom, acceptor molecule, acceptor atom, score
      P1  H  6896  6908       L1     8  0.92
      P1  H  7989  7998       L1    16  0.95

> <Gold.Chemscore.Hbond.Weighted>
-6.6034

> <Gold.Chemscore.Metal.Weighted>
-0.0000

> <Gold.Chemscore.Lipo.Weighted>
-9.2244

> <Gold.Chemscore.Internal_Hbond.Weighted>
0.0000

> <Gold.Chemscore.DEClash.Weighted>
0.0009

> <Gold.Chemscore.DEInternal.Weighted>
2.7066

> <Gold.Chemscore.Rot.Weighted>
2.5600

> <Gold.Chemscore.Internal.Correction.Weighted>
   9.000000E+99

> <Gold.Protein.RotatedTorsions>
[ 6907 6896 6895 6894 ] final -132.30 input  -60.11 | X-H torsion
[ 7974 7965 7964 7962 ] final   10.55 input  175.53 | X-H torsion
[ 8008 7997 7996 7995 ] final   80.62 input   59.86 | X-H torsion
[ 10167 10162 10161 10158 ] final   30.19 input  -65.29 | X-H torsion
[ 10718 10713 10712 10709 ] final   89.54 input   66.30 | X-H torsion
[ 10763 10752 10751 10750 ] final  -37.24 input  -60.55 | X-H torsion
[ 11005 11000 10999 10996 ] final  -70.69 input  -57.11 | X-H torsion

> <Gold.Protein.ActiveResidues>
 VAL166  LYS551  ARG553  GLY616  TRP617  ASP618  TYR619  PRO620  LYS621  CYS622 
 ASP623  PHE694  ASN695  SER759  ASP760  ASP761  ALA762  ILE779  LEU786  VAL792 
 PHE793  MET794  SER795  GLU796  ALA797  LYS798  CYS799  TRP800  GLU811  SER814 

> <Gold.Protein.RotatedAtoms>
  150.9608  133.6447  159.2754 H   0  0  0  0  0  0  0  0  0  0  0  0  # atno 6907 bound_to 6896
  151.3770  135.0932  159.9493 H   0  0  0  0  0  0  0  0  0  0  0  0  # atno 6908 bound_to 6896
  152.5147  133.9151  159.7561 H   0  0  0  0  0  0  0  0  0  0  0  0  # atno 6909 bound_to 6896
  146.2386  139.9617  142.8457 H   0  0  0  0  0  0  0  0  0  0  0  0  # atno 7974 bound_to 7965
  155.8860  140.3441  155.5922 H   0  0  0  0  0  0  0  0  0  0  0  0  # atno 8008 bound_to 7997
  155.7665  140.0839  157.2148 H   0  0  0  0  0  0  0  0  0  0  0  0  # atno 8009 bound_to 7997
  154.4029  140.1526  156.2880 H   0  0  0  0  0  0  0  0  0  0  0  0  # atno 8010 bound_to 7997
  140.4699  144.0778  150.6234 H   0  0  0  0  0  0  0  0  0  0  0  0  # atno 10167 bound_to 10162
  157.6955  131.0337  150.3441 H   0  0  0  0  0  0  0  0  0  0  0  0  # atno 10718 bound_to 10713
  153.8931  135.6810  153.4759 H   0  0  0  0  0  0  0  0  0  0  0  0  # atno 10763 bound_to 10752
  153.1170  135.4757  154.9130 H   0  0  0  0  0  0  0  0  0  0  0  0  # atno 10764 bound_to 10752
  154.7612  135.3211  154.8327 H   0  0  0  0  0  0  0  0  0  0  0  0  # atno 10765 bound_to 10752
  141.1579  133.6797  156.6791 H   0  0  0  0  0  0  0  0  0  0  0  0  # atno 11005 bound_to 11000
  145.1764  140.9746  143.4291 LP  0  0  0  0  0  0  0  0  0  0  0  0  # atno 17320 bound_to 7965
  144.9981  139.3624  143.6181 LP  0  0  0  0  0  0  0  0  0  0  0  0  # atno 17321 bound_to 7965
  140.3989  143.2714  151.9971 LP  0  0  0  0  0  0  0  0  0  0  0  0  # atno 17342 bound_to 10162
  139.4817  144.6014  151.7599 LP  0  0  0  0  0  0  0  0  0  0  0  0  # atno 17343 bound_to 10162
  156.3898  130.3896  149.7038 LP  0  0  0  0  0  0  0  0  0  0  0  0  # atno 17370 bound_to 10713
  156.4392  130.7853  151.2874 LP  0  0  0  0  0  0  0  0  0  0  0  0  # atno 17371 bound_to 10713
  140.3116  134.8081  157.4181 LP  0  0  0  0  0  0  0  0  0  0  0  0  # atno 17394 bound_to 11000
  140.1173  134.5266  155.8213 LP  0  0  0  0  0  0  0  0  0  0  0  0  # atno 17395 bound_to 11000

$$$$
