AV-unprocessed.smi:36|AV-procd|sdf|295|dock2
  -GOLD-   2262016 93D 1   1.00000     0.00000
 Structure written by MMmdl.
 63 66  0  0  0  0  0  0  0  0  2 V2000
  143.8434  145.8498  156.5567 C   0  0  0  0  0  0  0  0  0  0  0  0
  143.1654  144.4832  156.7487 C   0  0  0  0  0  0  0  0  0  0  0  0
  141.9148  144.6455  157.6294 C   0  0  0  0  0  0  0  0  0  0  0  0
  142.7722  143.8972  155.3826 C   0  0  0  0  0  0  0  0  0  0  0  0
  144.3831  143.2977  157.6205 Si  0  0  0  0  0  0  0  0  0  0  0  0
  144.9226  143.9976  159.3052 C   0  0  0  0  0  0  0  0  0  0  0  0
  143.6152  141.5769  157.8620 C   0  0  0  0  0  0  0  0  0  0  0  0
  145.7409  143.1266  156.6229 O   0  0  0  0  0  0  0  0  0  0  0  0
  145.6992  142.6154  155.3062 C   0  0  0  0  0  0  0  0  0  0  0  0
  146.7927  141.5509  155.1447 C   0  0  2  0  0  0  0  0  0  0  0  0
  148.0671  142.1810  155.0577 O   0  0  0  0  0  0  0  0  0  0  0  0
  148.9328  141.4105  154.2779 C   0  0  1  0  0  0  0  0  0  0  0  0
  150.0387  140.9188  155.1532 N   0  0  0  0  0  0  0  0  0  0  0  0
  150.4577  141.4083  156.3383 C   0  0  0  0  0  0  0  0  0  0  0  0
  151.4803  140.7919  156.9287 N   0  0  0  0  0  0  0  0  0  0  0  0
  151.7638  139.7836  156.0185 C   0  0  0  0  0  0  0  0  0  0  0  0
  152.7442  138.7531  156.0015 C   0  0  0  0  0  0  0  0  0  0  0  0
  153.6398  138.5823  156.9862 N   0  5  0  0  0  0  0  0  0  0  0  0
  154.0497  137.3321  157.3193 C   0  0  0  0  0  0  0  0  0  0  0  0
  154.2755  136.3840  156.5644 O   0  0  0  0  0  0  0  0  0  0  0  0
  154.1585  137.1169  158.8056 C   0  0  0  0  0  0  0  0  0  0  0  0
  154.4912  135.8368  159.3048 C   0  0  0  0  0  0  0  0  0  0  0  0
  154.6208  135.6190  160.6903 C   0  0  0  0  0  0  0  0  0  0  0  0
  154.4279  136.6820  161.5921 C   0  0  0  0  0  0  0  0  0  0  0  0
  154.1101  137.9641  161.1068 C   0  0  0  0  0  0  0  0  0  0  0  0
  153.9809  138.1828  159.7213 C   0  0  0  0  0  0  0  0  0  0  0  0
  152.7325  137.9113  154.9361 N   0  0  0  0  0  0  0  0  0  0  0  0
  151.8382  138.0751  153.9539 C   0  0  0  0  0  0  0  0  0  0  0  0
  150.8762  138.9960  153.8372 N   0  0  0  0  0  0  0  0  0  0  0  0
  150.8738  139.8437  154.9069 C   0  0  0  0  0  0  0  0  0  0  0  0
  148.1243  140.2340  153.7229 C   0  0  0  0  0  0  0  0  0  0  0  0
  146.7082  140.7598  153.8395 C   0  0  1  0  0  0  0  0  0  0  0  0
  145.7760  139.7000  153.9109 O   0  0  0  0  0  0  0  0  0  0  0  0
  143.1728  146.5609  156.0731 H   0  0  0  0  0  0  0  0  0  0  0  0
  144.7362  145.7683  155.9365 H   0  0  0  0  0  0  0  0  0  0  0  0
  144.1450  146.2797  157.5122 H   0  0  0  0  0  0  0  0  0  0  0  0
  142.1724  145.0356  158.6148 H   0  0  0  0  0  0  0  0  0  0  0  0
  141.4045  143.6937  157.7773 H   0  0  0  0  0  0  0  0  0  0  0  0
  141.1988  145.3342  157.1798 H   0  0  0  0  0  0  0  0  0  0  0  0
  142.0721  144.5488  154.8590 H   0  0  0  0  0  0  0  0  0  0  0  0
  142.2955  142.9225  155.4901 H   0  0  0  0  0  0  0  0  0  0  0  0
  143.6438  143.7681  154.7404 H   0  0  0  0  0  0  0  0  0  0  0  0
  144.0779  144.0880  159.9878 H   0  0  0  0  0  0  0  0  0  0  0  0
  145.3658  144.9882  159.2079 H   0  0  0  0  0  0  0  0  0  0  0  0
  145.6607  143.3584  159.7888 H   0  0  0  0  0  0  0  0  0  0  0  0
  142.7220  141.6197  158.4846 H   0  0  0  0  0  0  0  0  0  0  0  0
  144.3136  140.8925  158.3430 H   0  0  0  0  0  0  0  0  0  0  0  0
  143.3279  141.1297  156.9107 H   0  0  0  0  0  0  0  0  0  0  0  0
  144.7154  142.1837  155.1192 H   0  0  0  0  0  0  0  0  0  0  0  0
  145.8336  143.4263  154.5902 H   0  0  0  0  0  0  0  0  0  0  0  0
  146.8005  140.8636  155.9918 H   0  0  0  0  0  0  0  0  0  0  0  0
  149.4049  142.0270  153.5123 H   0  0  0  0  0  0  0  0  0  0  0  0
  149.9869  142.2668  156.7939 H   0  0  0  0  0  0  0  0  0  0  0  0
  154.6437  135.0101  158.6262 H   0  0  0  0  0  0  0  0  0  0  0  0
  154.8697  134.6355  161.0602 H   0  0  0  0  0  0  0  0  0  0  0  0
  154.5276  136.5150  162.6543 H   0  0  0  0  0  0  0  0  0  0  0  0
  153.9684  138.7825  161.7968 H   0  0  0  0  0  0  0  0  0  0  0  0
  153.7469  139.1773  159.3696 H   0  0  0  0  0  0  0  0  0  0  0  0
  151.9028  137.3643  153.1436 H   0  0  0  0  0  0  0  0  0  0  0  0
  148.4238  139.9939  152.7024 H   0  0  0  0  0  0  0  0  0  0  0  0
  148.2663  139.3535  154.3527 H   0  0  0  0  0  0  0  0  0  0  0  0
  146.4762  141.4166  152.9999 H   0  0  0  0  0  0  0  0  0  0  0  0
  145.0882  139.8604  153.2827 H   0  0  0  0  0  0  0  0  0  0  0  0
  1  2  1  0  0  0  0
  1 34  1  0  0  0  0
  1 35  1  0  0  0  0
  1 36  1  0  0  0  0
  2  3  1  0  0  0  0
  2  4  1  0  0  0  0
  2  5  1  0  0  0  0
  3 37  1  0  0  0  0
  3 38  1  0  0  0  0
  3 39  1  0  0  0  0
  4 40  1  0  0  0  0
  4 41  1  0  0  0  0
  4 42  1  0  0  0  0
  5  6  1  0  0  0  0
  5  7  1  0  0  0  0
  5  8  1  0  0  0  0
  6 43  1  0  0  0  0
  6 44  1  0  0  0  0
  6 45  1  0  0  0  0
  7 46  1  0  0  0  0
  7 47  1  0  0  0  0
  7 48  1  0  0  0  0
  8  9  1  0  0  0  0
  9 10  1  0  0  0  0
  9 49  1  0  0  0  0
  9 50  1  0  0  0  0
 10 32  1  0  0  0  0
 10 11  1  0  0  0  0
 10 51  1  0  0  0  0
 11 12  1  0  0  0  0
 12 13  1  0  0  0  0
 12 31  1  0  0  0  0
 12 52  1  0  0  0  0
 13 30  1  0  0  0  0
 13 14  1  0  0  0  0
 14 15  2  0  0  0  0
 14 53  1  0  0  0  0
 15 16  1  0  0  0  0
 16 30  2  0  0  0  0
 16 17  1  0  0  0  0
 17 18  1  0  0  0  0
 17 27  2  0  0  0  0
 18 19  1  0  0  0  0
 19 20  2  0  0  0  0
 19 21  1  0  0  0  0
 21 26  1  0  0  0  0
 21 22  2  0  0  0  0
 22 23  1  0  0  0  0
 22 54  1  0  0  0  0
 23 24  2  0  0  0  0
 23 55  1  0  0  0  0
 24 25  1  0  0  0  0
 24 56  1  0  0  0  0
 25 26  2  0  0  0  0
 25 57  1  0  0  0  0
 26 58  1  0  0  0  0
 27 28  1  0  0  0  0
 28 29  2  0  0  0  0
 28 59  1  0  0  0  0
 29 30  1  0  0  0  0
 31 32  1  0  0  0  0
 31 60  1  0  0  0  0
 31 61  1  0  0  0  0
 32 33  1  0  0  0  0
 32 62  1  0  0  0  0
 33 63  1  0  0  0  0
M  CHG  1  18  -1
M  END
> <s_m_source_file>
AV-unprocessed.smi

> <i_m_source_file_index>
36

> <i_lp_mmshare_version>
43012

> <i_f3d_flags>
0

> <s_epik_input>
W0NIM11DKFtDSDNdKShbQ0gzXSlbU2ldKFtDSDNdKShbQ0gzXSlPW0NIMl1bQ0BASF0xT1tDQEhdKFtDSDJdW0NASF0xW09IXSluKFtjSF1uMiljKGMyMyluW2NIXW5jM1tOSF1DKD1PKWM0W2NIXVtjSF1bY0hdW2NIXVtjSF00

> <s_epik_cmdline>
J2VwaWtfcHl0aG9uJywgJy1waCcsICc3LjAnLCAnLXRuJywgJzgnLCAnLW1hJywgJzIwMCcsICctbWV0YWxfYmluZGluZycsICctaW1hZScsICc8aW5maWxlLm1hZT4nLCAnLW9tYWUnLCAnPG91dGZpbGUubWFlPic=

> <r_lp_tautomer_probability>
1

> <r_epik_Ionization_Penalty>
4.75685

> <r_epik_Ionization_Penalty_Charging>
3.55822

> <r_epik_Ionization_Penalty_Neutral>
1.19863

> <r_epik_State_Penalty>
3.564

> <r_epik_Charging_Adjusted_Penalty>
7.12222

> <i_epik_Tot_Q>
-1

> <i_epik_Tot_abs_Q>
1

> <r_epik_Metal_State_Penalty>
0.523258

> <b_epik_Metal_Only>
1

> <s_epik_Chemistry_Notes>
This compound contains an acetal/aminal-like group ( X-CH(R)-Y where X, Y are N, S, or O) that may be acid/base labile, releasing an aldehyde.

> <s_lp_Force_Field>
OPLS_2005

> <r_lp_Energy>
36.9476

> <b_lp_Chiralities_Consistent>
1

> <s_lp_Variant>
AV-unprocessed.smi:36-17

> <Gold.Version>
5.8.1

> <Gold.Id.Protein>
6NUR|6NUR_protein|mol2

> <Gold.PLP.Fitness>
59.7361

> <Gold.PLP.PLP>
-43.3714

> <Gold.PLP.part.hbond>
-3.8265

> <Gold.PLP.part.metal>
0.0000

> <Gold.PLP.part.buried>
-2.9518

> <Gold.PLP.part.nonpolar>
-38.5556

> <Gold.PLP.part.repulsive>
2.1937

> <Gold.PLP.ligand.clash>
0.0000

> <Gold.PLP.ligand.torsion>
1.4950

> <Gold.PLP.Chemscore.Hbond>
4.0000

> <Gold.PLP.Chemscore.CHOScore>
2.0000

> <Gold.PLP.Chemscore.Metal>
0.0000

> <Gold.Chemscore.Hbonds>
donor molecule, donor type, donor heavy atom, donor atom, acceptor molecule, acceptor atom, score
      L1  H    33    63       P1 10175  1.00
      P1  H  7997  8010       L1    18  1.37
      P1  H 10752 10765       L1    20  0.90
      L1  C    14    53       P1  8028  0.03
      L1  C    28    59       P1  7949  1.00

> <Gold.PLP.Chemscore.Internal.Correction>
1.3547

> <Gold.Rescore>
     Score         DG    S(hbond)    S(metal)    S(lipo)     H(rot)  DE(clash)    DE(int)     intcor
     11.88     -16.94       2.73        0.00      78.59       2.67       0.50       4.56       ----

> <Gold.Chemscore.Fitness>
11.8767

> <Gold.Chemscore.DG>
-16.9435

> <Gold.Chemscore.ZeroCoef>
-5.4800

> <Gold.Chemscore.Hbond>
2.7258

> <Gold.Chemscore.Metal>
0.0000

> <Gold.Chemscore.Lipo>
78.5907

> <Gold.Chemscore.Internal_Hbond>
0.0000

> <Gold.Chemscore.DEClash>
0.5039

> <Gold.Chemscore.DEInternal>
4.5629

> <Gold.Chemscore.Rot>
2.6702

> <Gold.Chemscore.Internal.Correction>
   9.000000E+99

> <Gold.Chemscore.Hbonds>
donor molecule, donor type, donor heavy atom, donor atom, acceptor molecule, acceptor atom, score
      L1  H    33    63       P1 10175  1.00
      P1  H  7997  8010       L1    18  0.08
      P1  H 10752 10765       L1    20  0.87

> <Gold.Chemscore.Hbond.Weighted>
-9.1042

> <Gold.Chemscore.Metal.Weighted>
-0.0000

> <Gold.Chemscore.Lipo.Weighted>
-9.1951

> <Gold.Chemscore.Internal_Hbond.Weighted>
0.0000

> <Gold.Chemscore.DEClash.Weighted>
0.5039

> <Gold.Chemscore.DEInternal.Weighted>
4.5629

> <Gold.Chemscore.Rot.Weighted>
6.8358

> <Gold.Chemscore.Internal.Correction.Weighted>
   9.000000E+99

> <Gold.Protein.RotatedTorsions>
[ 6907 6896 6895 6894 ] final  122.98 input  -60.11 | X-H torsion
[ 7974 7965 7964 7962 ] final  -27.38 input  175.53 | X-H torsion
[ 8008 7997 7996 7995 ] final   54.79 input   59.86 | X-H torsion
[ 10167 10162 10161 10158 ] final  178.54 input  -65.29 | X-H torsion
[ 10718 10713 10712 10709 ] final  -22.12 input   66.30 | X-H torsion
[ 10763 10752 10751 10750 ] final -101.99 input  -60.55 | X-H torsion
[ 11005 11000 10999 10996 ] final -144.20 input  -57.11 | X-H torsion

> <Gold.Protein.ActiveResidues>
 VAL166  LYS551  ARG553  GLY616  TRP617  ASP618  TYR619  PRO620  LYS621  CYS622 
 ASP623  PHE694  ASN695  SER759  ASP760  ASP761  ALA762  ILE779  LEU786  VAL792 
 PHE793  MET794  SER795  GLU796  ALA797  LYS798  CYS799  TRP800  GLU811  SER814 

> <Gold.Protein.RotatedAtoms>
  152.4199  133.7099  159.6472 H   0  0  0  0  0  0  0  0  0  0  0  0  # atno 6907 bound_to 6896
  150.8075  133.8472  159.3204 H   0  0  0  0  0  0  0  0  0  0  0  0  # atno 6908 bound_to 6896
  151.6191  135.1035  160.0149 H   0  0  0  0  0  0  0  0  0  0  0  0  # atno 6909 bound_to 6896
  146.1361  140.5144  142.8672 H   0  0  0  0  0  0  0  0  0  0  0  0  # atno 7974 bound_to 7965
  155.4904  140.3471  155.4354 H   0  0  0  0  0  0  0  0  0  0  0  0  # atno 8008 bound_to 7997
  156.0980  140.1428  156.9533 H   0  0  0  0  0  0  0  0  0  0  0  0  # atno 8009 bound_to 7997
  154.4676  140.0912  156.7038 H   0  0  0  0  0  0  0  0  0  0  0  0  # atno 8010 bound_to 7997
  139.5298  144.2668  152.0661 H   0  0  0  0  0  0  0  0  0  0  0  0  # atno 10167 bound_to 10162
  156.5088  130.4605  149.6659 H   0  0  0  0  0  0  0  0  0  0  0  0  # atno 10718 bound_to 10713
  154.7700  135.4877  153.9630 H   0  0  0  0  0  0  0  0  0  0  0  0  # atno 10763 bound_to 10752
  153.1356  135.6762  153.9116 H   0  0  0  0  0  0  0  0  0  0  0  0  # atno 10764 bound_to 10752
  153.8807  135.3132  155.3423 H   0  0  0  0  0  0  0  0  0  0  0  0  # atno 10765 bound_to 10752
  140.8049  134.2813  157.4964 H   0  0  0  0  0  0  0  0  0  0  0  0  # atno 11005 bound_to 11000
  144.7742  140.5703  143.6649 LP  0  0  0  0  0  0  0  0  0  0  0  0  # atno 17320 bound_to 7965
  145.5152  139.1478  143.3583 LP  0  0  0  0  0  0  0  0  0  0  0  0  # atno 17321 bound_to 7965
  140.2130  144.4543  150.6377 LP  0  0  0  0  0  0  0  0  0  0  0  0  # atno 17342 bound_to 10162
  140.6468  143.2215  151.6168 LP  0  0  0  0  0  0  0  0  0  0  0  0  # atno 17343 bound_to 10162
  156.3260  130.7306  151.2227 LP  0  0  0  0  0  0  0  0  0  0  0  0  # atno 17370 bound_to 10713
  157.7453  131.0443  150.4784 LP  0  0  0  0  0  0  0  0  0  0  0  0  # atno 17371 bound_to 10713
  139.8718  134.9450  156.3898 LP  0  0  0  0  0  0  0  0  0  0  0  0  # atno 17394 bound_to 11000
  140.9257  133.7614  155.9962 LP  0  0  0  0  0  0  0  0  0  0  0  0  # atno 17395 bound_to 11000

$$$$
