AV-unprocessed.smi:258|AV-procd|sdf|1968|dock1
  -GOLD-   2262021123D 1   1.00000     0.00000
 Structure written by MMmdl.
 57 60  0  0  0  0  0  0  0  0  1 V2000
  149.9276  144.4445  158.4630 O   0  0  0  0  0  0  0  0  0  0  0  0
  151.2203  144.9574  158.2190 C   0  0  0  0  0  0  0  0  0  0  0  0
  152.1750  144.5474  159.3469 C   0  0  0  0  0  0  0  0  0  0  0  0
  152.1430  143.1344  159.4910 O   0  0  0  0  0  0  0  0  0  0  0  0
  153.1805  142.6022  160.3042 C   0  0  1  0  0  0  0  0  0  0  0  0
  152.9022  142.8605  161.7988 C   0  0  0  0  0  0  0  0  0  0  0  0
  153.9520  142.1493  162.6660 C   0  0  0  0  0  0  0  0  0  0  0  0
  154.0190  140.6499  162.3341 C   0  0  0  0  0  0  0  0  0  0  0  0
  154.2327  140.4425  160.9006 N   0  0  0  0  0  0  0  0  0  0  0  0
  154.6261  139.2092  160.4919 C   0  0  0  0  0  0  0  0  0  0  0  0
  155.2053  139.0508  159.2713 N   0  0  0  0  0  0  0  0  0  0  0  0
  155.6076  137.8429  158.8658 C   0  0  0  0  0  0  0  0  0  0  0  0
  155.5275  136.6772  159.5095 N   0  0  0  0  0  0  0  0  0  0  0  0
  154.9407  136.8264  160.7312 C   0  0  0  0  0  0  0  0  0  0  0  0
  154.4631  138.0440  161.2939 C   0  0  0  0  0  0  0  0  0  0  0  0
  153.9136  137.8010  162.5477 N   0  0  0  0  0  0  0  0  0  0  0  0
  154.0695  136.5170  162.7217 C   0  0  0  0  0  0  0  0  0  0  0  0
  154.6867  135.8556  161.6848 N   0  0  0  0  0  0  0  0  0  0  0  0
  154.9857  134.4351  161.6224 C   0  0  0  0  0  0  0  0  0  0  0  0
  154.2858  133.6153  162.7341 C   0  0  1  0  0  0  0  0  0  0  0  0
  154.3520  132.1017  162.4201 C   0  0  0  0  0  0  0  0  0  0  0  0
  155.6861  131.7004  162.1884 O   0  0  0  0  0  0  0  0  0  0  0  0
  154.7975  133.9780  164.1573 C   0  0  2  0  0  0  0  0  0  0  0  0
  156.2649  133.6545  164.4345 C   0  0  0  0  0  0  0  0  0  0  0  0
  156.2571  133.2588  165.9049 C   0  0  0  0  0  0  0  0  0  0  0  0
  155.0323  132.5572  166.0273 O   0  0  0  0  0  0  0  0  0  0  0  0
  154.0472  133.2933  165.3140 C   0  0  0  0  0  0  0  0  0  0  0  0
  153.2509  141.0900  160.0304 C   0  0  0  0  0  0  0  0  0  0  0  0
  149.2923  145.0695  158.1488 H   0  0  0  0  0  0  0  0  0  0  0  0
  151.5870  144.6256  157.2471 H   0  0  0  0  0  0  0  0  0  0  0  0
  151.1402  146.0438  158.1802 H   0  0  0  0  0  0  0  0  0  0  0  0
  153.1893  144.8439  159.0761 H   0  0  0  0  0  0  0  0  0  0  0  0
  151.9250  145.0636  160.2742 H   0  0  0  0  0  0  0  0  0  0  0  0
  154.1388  143.0434  160.0237 H   0  0  0  0  0  0  0  0  0  0  0  0
  152.9115  143.9274  162.0200 H   0  0  0  0  0  0  0  0  0  0  0  0
  151.9069  142.4963  162.0564 H   0  0  0  0  0  0  0  0  0  0  0  0
  154.9295  142.6031  162.4985 H   0  0  0  0  0  0  0  0  0  0  0  0
  153.7223  142.2876  163.7228 H   0  0  0  0  0  0  0  0  0  0  0  0
  154.8267  140.1895  162.9048 H   0  0  0  0  0  0  0  0  0  0  0  0
  153.0910  140.1608  162.6341 H   0  0  0  0  0  0  0  0  0  0  0  0
  156.0599  137.8059  157.8857 H   0  0  0  0  0  0  0  0  0  0  0  0
  153.7407  136.0137  163.6193 H   0  0  0  0  0  0  0  0  0  0  0  0
  154.6827  134.0784  160.6377 H   0  0  0  0  0  0  0  0  0  0  0  0
  156.0664  134.2996  161.6772 H   0  0  0  0  0  0  0  0  0  0  0  0
  153.2308  133.8940  162.7200 H   0  0  0  0  0  0  0  0  0  0  0  0
  153.9480  131.5084  163.2403 H   0  0  0  0  0  0  0  0  0  0  0  0
  153.7738  131.8499  161.5320 H   0  0  0  0  0  0  0  0  0  0  0  0
  155.9641  131.1522  162.9065 H   0  0  0  0  0  0  0  0  0  0  0  0
  154.6617  135.0487  164.3130 H   0  0  0  0  0  0  0  0  0  0  0  0
  156.6103  132.8092  163.8414 H   0  0  0  0  0  0  0  0  0  0  0  0
  156.9302  134.4938  164.2326 H   0  0  0  0  0  0  0  0  0  0  0  0
  157.1096  132.6375  166.1805 H   0  0  0  0  0  0  0  0  0  0  0  0
  156.2452  134.1395  166.5492 H   0  0  0  0  0  0  0  0  0  0  0  0
  153.6161  134.0421  165.9804 H   0  0  0  0  0  0  0  0  0  0  0  0
  153.2350  132.6432  164.9893 H   0  0  0  0  0  0  0  0  0  0  0  0
  152.2759  140.6345  160.2097 H   0  0  0  0  0  0  0  0  0  0  0  0
  153.4796  140.9263  158.9780 H   0  0  0  0  0  0  0  0  0  0  0  0
  1  2  1  0  0  0  0
  1 29  1  0  0  0  0
  2  3  1  0  0  0  0
  2 30  1  0  0  0  0
  2 31  1  0  0  0  0
  3  4  1  0  0  0  0
  3 32  1  0  0  0  0
  3 33  1  0  0  0  0
  4  5  1  0  0  0  0
  5 28  1  0  0  0  0
  5  6  1  0  0  0  0
  5 34  1  0  0  0  0
  6  7  1  0  0  0  0
  6 35  1  0  0  0  0
  6 36  1  0  0  0  0
  7  8  1  0  0  0  0
  7 37  1  0  0  0  0
  7 38  1  0  0  0  0
  8  9  1  0  0  0  0
  8 39  1  0  0  0  0
  8 40  1  0  0  0  0
  9 10  1  0  0  0  0
  9 28  1  0  0  0  0
 10 15  1  0  0  0  0
 10 11  2  0  0  0  0
 11 12  1  0  0  0  0
 12 13  2  0  0  0  0
 12 41  1  0  0  0  0
 13 14  1  0  0  0  0
 14 18  1  0  0  0  0
 14 15  2  0  0  0  0
 15 16  1  0  0  0  0
 16 17  2  0  0  0  0
 17 18  1  0  0  0  0
 17 42  1  0  0  0  0
 18 19  1  0  0  0  0
 19 20  1  0  0  0  0
 19 43  1  0  0  0  0
 19 44  1  0  0  0  0
 20 21  1  0  0  0  0
 20 23  1  0  0  0  0
 20 45  1  0  0  0  0
 21 22  1  0  0  0  0
 21 46  1  0  0  0  0
 21 47  1  0  0  0  0
 22 48  1  0  0  0  0
 23 27  1  0  0  0  0
 23 24  1  0  0  0  0
 23 49  1  0  0  0  0
 24 25  1  0  0  0  0
 24 50  1  0  0  0  0
 24 51  1  0  0  0  0
 25 26  1  0  0  0  0
 25 52  1  0  0  0  0
 25 53  1  0  0  0  0
 26 27  1  0  0  0  0
 27 54  1  0  0  0  0
 27 55  1  0  0  0  0
 28 56  1  0  0  0  0
 28 57  1  0  0  0  0
M  END
> <s_m_source_file>
AV-unprocessed.smi

> <i_m_source_file_index>
258

> <i_lp_mmshare_version>
43012

> <i_f3d_flags>
0

> <s_epik_input>
W09IXVtDSDJdW0NIMl1PW0NAQEhdMVtDSDJdW0NIMl1bQ0gyXU4oW0NIMl0xKWMobltjSF1uMiljKGMyMyluW2NIXW4zW0NIMl1bQ0BIXShbQ0gyXVtPSF0pW0NAQEhdNFtDSDJdW0NIMl1PW0NIMl00

> <s_epik_cmdline>
J2VwaWtfcHl0aG9uJywgJy1waCcsICc3LjAnLCAnLXRuJywgJzgnLCAnLW1hJywgJzIwMCcsICctbWV0YWxfYmluZGluZycsICctaW1hZScsICc8aW5maWxlLm1hZT4nLCAnLW9tYWUnLCAnPG91dGZpbGUubWFlPic=

> <r_lp_tautomer_probability>
1

> <r_epik_Ionization_Penalty>
0.00349036

> <r_epik_Ionization_Penalty_Charging>
0

> <r_epik_Ionization_Penalty_Neutral>
0.00349036

> <r_epik_State_Penalty>
0.00229798

> <r_epik_Charging_Adjusted_Penalty>
0.00229798

> <i_epik_Tot_Q>
0

> <i_epik_Tot_abs_Q>
0

> <r_epik_Metal_State_Penalty>
-0

> <b_epik_Metal_Only>
0

> <s_lp_Force_Field>
OPLS_2005

> <r_lp_Energy>
48.0574

> <b_lp_Chiralities_Consistent>
1

> <s_lp_Variant>
AV-unprocessed.smi:258-4

> <Gold.Version>
5.8.1

> <Gold.Id.Protein>
6NUR|6NUR_protein|mol2

> <Gold.PLP.Fitness>
49.0604

> <Gold.PLP.PLP>
-44.6835

> <Gold.PLP.part.hbond>
-2.6180

> <Gold.PLP.part.metal>
0.0000

> <Gold.PLP.part.buried>
-5.0381

> <Gold.PLP.part.nonpolar>
-37.4527

> <Gold.PLP.part.repulsive>
0.0714

> <Gold.PLP.ligand.clash>
0.0000

> <Gold.PLP.ligand.torsion>
0.6948

> <Gold.PLP.Chemscore.Hbond>
1.6370

> <Gold.PLP.Chemscore.CHOScore>
0.0000

> <Gold.PLP.Chemscore.Metal>
0.0000

> <Gold.Chemscore.Hbonds>
donor molecule, donor type, donor heavy atom, donor atom, acceptor molecule, acceptor atom, score
      L1  H     1    29       P1  8029  1.00
      P1  H  7997  8008       L1    11  0.62

> <Gold.PLP.Chemscore.Internal.Correction>
0.8555

> <Gold.Rescore>
     Score         DG    S(hbond)    S(metal)    S(lipo)     H(rot)  DE(clash)    DE(int)     intcor
      8.13     -11.91       1.13        0.00     115.08       4.22       0.52       3.26       ----

> <Gold.Chemscore.Fitness>
8.1328

> <Gold.Chemscore.DG>
-11.9089

> <Gold.Chemscore.ZeroCoef>
-5.4800

> <Gold.Chemscore.Hbond>
1.1317

> <Gold.Chemscore.Metal>
0.0000

> <Gold.Chemscore.Lipo>
115.0760

> <Gold.Chemscore.Internal_Hbond>
0.0000

> <Gold.Chemscore.DEClash>
0.5169

> <Gold.Chemscore.DEInternal>
3.2592

> <Gold.Chemscore.Rot>
4.2246

> <Gold.Chemscore.Internal.Correction>
   9.000000E+99

> <Gold.Chemscore.Hbonds>
donor molecule, donor type, donor heavy atom, donor atom, acceptor molecule, acceptor atom, score
      L1  H     1    29       P1  8029  0.40
      P1  H  7997  8008       L1    11  0.11

> <Gold.Chemscore.Hbond.Weighted>
-3.7799

> <Gold.Chemscore.Metal.Weighted>
-0.0000

> <Gold.Chemscore.Lipo.Weighted>
-13.4639

> <Gold.Chemscore.Internal_Hbond.Weighted>
0.0000

> <Gold.Chemscore.DEClash.Weighted>
0.5169

> <Gold.Chemscore.DEInternal.Weighted>
3.2592

> <Gold.Chemscore.Rot.Weighted>
10.8149

> <Gold.Chemscore.Internal.Correction.Weighted>
   9.000000E+99

> <Gold.Protein.RotatedTorsions>
[ 6907 6896 6895 6894 ] final -122.33 input  -60.11 | X-H torsion
[ 7974 7965 7964 7962 ] final  -62.59 input  175.53 | X-H torsion
[ 8008 7997 7996 7995 ] final -132.13 input   59.86 | X-H torsion
[ 10167 10162 10161 10158 ] final  112.12 input  -65.29 | X-H torsion
[ 10718 10713 10712 10709 ] final  114.52 input   66.30 | X-H torsion
[ 10763 10752 10751 10750 ] final   35.12 input  -60.55 | X-H torsion
[ 11005 11000 10999 10996 ] final -148.12 input  -57.11 | X-H torsion

> <Gold.Protein.ActiveResidues>
 VAL166  LYS551  ARG553  GLY616  TRP617  ASP618  TYR619  PRO620  LYS621  CYS622 
 ASP623  PHE694  ASN695  SER759  ASP760  ASP761  ALA762  ILE779  LEU786  VAL792 
 PHE793  MET794  SER795  GLU796  ALA797  LYS798  CYS799  TRP800  GLU811  SER814 

> <Gold.Protein.RotatedAtoms>
  150.8566  133.7706  159.3006 H   0  0  0  0  0  0  0  0  0  0  0  0  # atno 6907 bound_to 6896
  151.5361  135.1067  159.9924 H   0  0  0  0  0  0  0  0  0  0  0  0  # atno 6908 bound_to 6896
  152.4594  133.7748  159.6874 H   0  0  0  0  0  0  0  0  0  0  0  0  # atno 6909 bound_to 6896
  145.7895  140.8717  143.0288 H   0  0  0  0  0  0  0  0  0  0  0  0  # atno 7974 bound_to 7965
  155.3237  140.0463  157.3040 H   0  0  0  0  0  0  0  0  0  0  0  0  # atno 8008 bound_to 7997
  154.5366  140.2274  155.8679 H   0  0  0  0  0  0  0  0  0  0  0  0  # atno 8009 bound_to 7997
  156.1840  140.3067  155.9210 H   0  0  0  0  0  0  0  0  0  0  0  0  # atno 8010 bound_to 7997
  139.6560  144.7129  151.1956 H   0  0  0  0  0  0  0  0  0  0  0  0  # atno 10167 bound_to 10162
  157.6277  131.0999  150.7197 H   0  0  0  0  0  0  0  0  0  0  0  0  # atno 10718 bound_to 10713
  153.0133  135.6342  154.1777 H   0  0  0  0  0  0  0  0  0  0  0  0  # atno 10763 bound_to 10752
  154.1518  135.2828  155.3135 H   0  0  0  0  0  0  0  0  0  0  0  0  # atno 10764 bound_to 10752
  154.6048  135.5575  153.7472 H   0  0  0  0  0  0  0  0  0  0  0  0  # atno 10765 bound_to 10752
  140.7645  134.3260  157.5092 H   0  0  0  0  0  0  0  0  0  0  0  0  # atno 11005 bound_to 11000
  144.6784  140.0103  143.7484 LP  0  0  0  0  0  0  0  0  0  0  0  0  # atno 17320 bound_to 7965
  145.9991  139.3077  143.0938 LP  0  0  0  0  0  0  0  0  0  0  0  0  # atno 17321 bound_to 7965
  140.7559  143.6072  150.8641 LP  0  0  0  0  0  0  0  0  0  0  0  0  # atno 17342 bound_to 10162
  139.9725  143.6041  152.2969 LP  0  0  0  0  0  0  0  0  0  0  0  0  # atno 17343 bound_to 10162
  156.7542  130.4778  149.5450 LP  0  0  0  0  0  0  0  0  0  0  0  0  # atno 17370 bound_to 10713
  156.1459  130.6276  151.0530 LP  0  0  0  0  0  0  0  0  0  0  0  0  # atno 17371 bound_to 10713
  139.8765  134.9223  156.3296 LP  0  0  0  0  0  0  0  0  0  0  0  0  # atno 17394 bound_to 11000
  140.9632  133.7375  156.0430 LP  0  0  0  0  0  0  0  0  0  0  0  0  # atno 17395 bound_to 11000

$$$$
