AV-unprocessed.smi:2655|AV-procd|sdf|10302|dock9
  -GOLD-   2272014313D 1   1.00000     0.00000
 Structure written by MMmdl.
 33 34  0  0  0  0  0  0  0  0  2 V2000
  145.5848  144.0177  153.2935 C   0  0  0  0  0  0  0  0  0  0  0  0
  145.8511  143.1848  154.5293 C   0  0  0  0  0  0  0  0  0  0  0  0
  145.2774  143.5057  155.7327 N   0  0  0  0  0  0  0  0  0  0  0  0
  145.6780  142.5861  156.6915 N   0  5  0  0  0  0  0  0  0  0  0  0
  146.4989  141.7134  156.0545 C   0  0  0  0  0  0  0  0  0  0  0  0
  147.0713  140.7412  156.5441 O   0  0  0  0  0  0  0  0  0  0  0  0
  146.6144  142.1022  154.6660 C   0  0  0  0  0  0  0  0  0  0  0  0
  147.4275  141.3674  153.6168 C   0  0  0  0  0  0  0  0  0  0  0  0
  148.8342  141.0097  154.1226 C   0  0  0  0  0  0  0  0  0  0  0  0
  149.3354  142.0075  155.0602 N   0  0  0  0  0  0  0  0  0  0  0  0
  150.2269  141.7691  156.0327 C   0  0  0  0  0  0  0  0  0  0  0  0
  150.7232  140.6618  156.2413 O   0  0  0  0  0  0  0  0  0  0  0  0
  150.4928  142.8852  156.7320 N   0  0  0  0  0  0  0  0  0  0  0  0
  151.3886  143.0514  157.8199 C   0  0  0  0  0  0  0  0  0  0  0  0
  151.8425  142.0294  158.7038 C   0  0  0  0  0  0  0  0  0  0  0  0
  152.6762  142.7041  159.5499 C   0  0  0  0  0  0  0  0  0  0  0  0
  153.4992  142.2768  160.7165 C   0  0  0  0  0  0  0  0  0  0  0  0
  152.7269  144.0213  159.2149 O   0  0  0  0  0  0  0  0  0  0  0  0
  151.9002  144.2347  158.1057 N   0  0  0  0  0  0  0  0  0  0  0  0
  146.5216  144.4027  152.8901 H   0  0  0  0  0  0  0  0  0  0  0  0
  144.9358  144.8634  153.5228 H   0  0  0  0  0  0  0  0  0  0  0  0
  145.1020  143.4116  152.5269 H   0  0  0  0  0  0  0  0  0  0  0  0
  147.4983  141.9946  152.7277 H   0  0  0  0  0  0  0  0  0  0  0  0
  146.8893  140.4667  153.3183 H   0  0  0  0  0  0  0  0  0  0  0  0
  148.8329  140.0228  154.5887 H   0  0  0  0  0  0  0  0  0  0  0  0
  149.5300  140.9550  153.2849 H   0  0  0  0  0  0  0  0  0  0  0  0
  148.9768  142.9458  154.9587 H   0  0  0  0  0  0  0  0  0  0  0  0
  149.9991  143.7187  156.4488 H   0  0  0  0  0  0  0  0  0  0  0  0
  151.6089  140.9758  158.7277 H   0  0  0  0  0  0  0  0  0  0  0  0
  153.5512  141.1897  160.7786 H   0  0  0  0  0  0  0  0  0  0  0  0
  153.0719  142.6489  161.6477 H   0  0  0  0  0  0  0  0  0  0  0  0
  154.5167  142.6591  160.6337 H   0  0  0  0  0  0  0  0  0  0  0  0
  144.6543  144.2847  155.8907 H   0  0  0  0  0  0  0  0  0  0  0  0
  1 20  1  0  0  0  0
  1 21  1  0  0  0  0
  1 22  1  0  0  0  0
  1  2  1  0  0  0  0
  2  7  2  0  0  0  0
  2  3  1  0  0  0  0
  3  4  1  0  0  0  0
  3 33  1  0  0  0  0
  4  5  1  0  0  0  0
  5  7  1  0  0  0  0
  5  6  2  0  0  0  0
  7  8  1  0  0  0  0
  8  9  1  0  0  0  0
  8 23  1  0  0  0  0
  8 24  1  0  0  0  0
  9 10  1  0  0  0  0
  9 25  1  0  0  0  0
  9 26  1  0  0  0  0
 10 11  1  0  0  0  0
 10 27  1  0  0  0  0
 11 12  2  0  0  0  0
 11 13  1  0  0  0  0
 13 14  1  0  0  0  0
 13 28  1  0  0  0  0
 14 19  2  0  0  0  0
 14 15  1  0  0  0  0
 15 16  2  0  0  0  0
 15 29  1  0  0  0  0
 16 17  1  0  0  0  0
 16 18  1  0  0  0  0
 17 30  1  0  0  0  0
 17 31  1  0  0  0  0
 17 32  1  0  0  0  0
 18 19  1  0  0  0  0
M  CHG  1   4  -1
M  END
> <s_m_source_file>
AV-unprocessed.smi

> <i_m_source_file_index>
2655

> <i_lp_mmshare_version>
43012

> <i_f3d_flags>
0

> <s_epik_input>
W0NIM11DMT1OW05IXUMoPU8pW0NASF0xW0NIMl1bQ0gyXVtOSF1DKD1PKVtOSF1jMltjSF1jKFtDSDNdKW9uMg==

> <s_epik_cmdline>
J2VwaWtfcHl0aG9uJywgJy1waCcsICc3LjAnLCAnLXRuJywgJzgnLCAnLW1hJywgJzIwMCcsICctbWV0YWxfYmluZGluZycsICctaW1hZScsICc8aW5maWxlLm1hZT4nLCAnLW9tYWUnLCAnPG91dGZpbGUubWFlPic=

> <r_lp_tautomer_probability>
0.00220696

> <r_epik_Ionization_Penalty>
4.81787

> <r_epik_Ionization_Penalty_Charging>
2.1236

> <r_epik_Ionization_Penalty_Neutral>
2.69427

> <r_epik_State_Penalty>
2.7337

> <r_epik_Charging_Adjusted_Penalty>
4.8573

> <i_epik_Tot_Q>
-1

> <i_epik_Tot_abs_Q>
1

> <r_epik_Metal_State_Penalty>
2.0342

> <b_epik_Metal_Only>
1

> <s_lp_Force_Field>
OPLS_2005

> <r_lp_Energy>
14.0901

> <b_lp_Chiralities_Consistent>
1

> <s_lp_Variant>
AV-unprocessed.smi:2655-5

> <Gold.Version>
5.8.1

> <Gold.Id.Protein>
6NUR|6NUR_protein|mol2

> <Gold.PLP.Fitness>
41.8140

> <Gold.PLP.PLP>
-37.1815

> <Gold.PLP.part.hbond>
-2.0000

> <Gold.PLP.part.metal>
0.0000

> <Gold.PLP.part.buried>
-6.8509

> <Gold.PLP.part.nonpolar>
-27.5837

> <Gold.PLP.part.repulsive>
0.5238

> <Gold.PLP.ligand.clash>
0.0000

> <Gold.PLP.ligand.torsion>
0.6490

> <Gold.PLP.Chemscore.Hbond>
1.9760

> <Gold.PLP.Chemscore.CHOScore>
0.0000

> <Gold.PLP.Chemscore.Metal>
0.0000

> <Gold.Chemscore.Hbonds>
donor molecule, donor type, donor heavy atom, donor atom, acceptor molecule, acceptor atom, score
      L1  H    10    27       P1  8028  0.98
      L1  H    13    28       P1  8028  1.00

> <Gold.PLP.Chemscore.Internal.Correction>
0.0025

> <Gold.Rescore>
     Score         DG    S(hbond)    S(metal)    S(lipo)     H(rot)  DE(clash)    DE(int)     intcor
     12.90     -15.03       1.92        0.00      67.41       1.85       0.01       2.12       ----

> <Gold.Chemscore.Fitness>
12.8966

> <Gold.Chemscore.DG>
-15.0292

> <Gold.Chemscore.ZeroCoef>
-5.4800

> <Gold.Chemscore.Hbond>
1.9160

> <Gold.Chemscore.Metal>
0.0000

> <Gold.Chemscore.Lipo>
67.4082

> <Gold.Chemscore.Internal_Hbond>
0.0000

> <Gold.Chemscore.DEClash>
0.0095

> <Gold.Chemscore.DEInternal>
2.1232

> <Gold.Chemscore.Rot>
1.8504

> <Gold.Chemscore.Internal.Correction>
   9.000000E+99

> <Gold.Chemscore.Hbonds>
donor molecule, donor type, donor heavy atom, donor atom, acceptor molecule, acceptor atom, score
      L1  H    10    27       P1  8028  0.93
      L1  H    13    28       P1  8028  1.00

> <Gold.Chemscore.Hbond.Weighted>
-6.3994

> <Gold.Chemscore.Metal.Weighted>
-0.0000

> <Gold.Chemscore.Lipo.Weighted>
-7.8868

> <Gold.Chemscore.Internal_Hbond.Weighted>
0.0000

> <Gold.Chemscore.DEClash.Weighted>
0.0095

> <Gold.Chemscore.DEInternal.Weighted>
2.1232

> <Gold.Chemscore.Rot.Weighted>
4.7369

> <Gold.Chemscore.Internal.Correction.Weighted>
   9.000000E+99

> <Gold.Protein.RotatedTorsions>
[ 6907 6896 6895 6894 ] final -109.48 input  -60.11 | X-H torsion
[ 7974 7965 7964 7962 ] final   71.62 input  175.53 | X-H torsion
[ 8008 7997 7996 7995 ] final  -93.91 input   59.86 | X-H torsion
[ 10167 10162 10161 10158 ] final  -39.58 input  -65.29 | X-H torsion
[ 10718 10713 10712 10709 ] final  170.86 input   66.30 | X-H torsion
[ 10763 10752 10751 10750 ] final   90.42 input  -60.55 | X-H torsion
[ 11005 11000 10999 10996 ] final -176.95 input  -57.11 | X-H torsion

> <Gold.Protein.ActiveResidues>
 VAL166  LYS551  ARG553  GLY616  TRP617  ASP618  TYR619  PRO620  LYS621  CYS622 
 ASP623  PHE694  ASN695  SER759  ASP760  ASP761  ALA762  ILE779  LEU786  VAL792 
 PHE793  MET794  SER795  GLU796  ALA797  LYS798  CYS799  TRP800  GLU811  SER814 

> <Gold.Protein.RotatedAtoms>
  150.7564  133.9523  159.3489 H   0  0  0  0  0  0  0  0  0  0  0  0  # atno 6907 bound_to 6896
  151.7442  135.0845  160.0330 H   0  0  0  0  0  0  0  0  0  0  0  0  # atno 6908 bound_to 6896
  152.3509  133.6141  159.5980 H   0  0  0  0  0  0  0  0  0  0  0  0  # atno 6909 bound_to 6896
  145.7635  139.2811  143.1362 H   0  0  0  0  0  0  0  0  0  0  0  0  # atno 7974 bound_to 7965
  154.7417  140.0494  157.0816 H   0  0  0  0  0  0  0  0  0  0  0  0  # atno 8008 bound_to 7997
  155.0170  140.3142  155.4788 H   0  0  0  0  0  0  0  0  0  0  0  0  # atno 8009 bound_to 7997
  156.2866  140.2174  156.5287 H   0  0  0  0  0  0  0  0  0  0  0  0  # atno 8010 bound_to 7997
  140.7060  143.3205  151.2803 H   0  0  0  0  0  0  0  0  0  0  0  0  # atno 10167 bound_to 10162
  157.0019  131.0178  151.2828 H   0  0  0  0  0  0  0  0  0  0  0  0  # atno 10718 bound_to 10713
  153.1974  135.4434  155.0224 H   0  0  0  0  0  0  0  0  0  0  0  0  # atno 10763 bound_to 10752
  154.8127  135.3301  154.7265 H   0  0  0  0  0  0  0  0  0  0  0  0  # atno 10764 bound_to 10752
  153.7713  135.6984  153.4961 H   0  0  0  0  0  0  0  0  0  0  0  0  # atno 10765 bound_to 10752
  140.4463  134.6385  157.4781 H   0  0  0  0  0  0  0  0  0  0  0  0  # atno 11005 bound_to 11000
  146.0240  140.8321  142.9909 LP  0  0  0  0  0  0  0  0  0  0  0  0  # atno 17320 bound_to 7965
  144.6826  140.2671  143.7311 LP  0  0  0  0  0  0  0  0  0  0  0  0  # atno 17321 bound_to 7965
  139.6658  144.0108  152.2722 LP  0  0  0  0  0  0  0  0  0  0  0  0  # atno 17342 bound_to 10162
  139.9690  144.6506  150.8007 LP  0  0  0  0  0  0  0  0  0  0  0  0  # atno 17343 bound_to 10162
  157.5384  130.8104  149.7999 LP  0  0  0  0  0  0  0  0  0  0  0  0  # atno 17370 bound_to 10713
  156.0168  130.3810  150.2086 LP  0  0  0  0  0  0  0  0  0  0  0  0  # atno 17371 bound_to 10713
  140.0036  134.6798  155.9490 LP  0  0  0  0  0  0  0  0  0  0  0  0  # atno 17394 bound_to 11000
  141.1684  133.6537  156.4561 LP  0  0  0  0  0  0  0  0  0  0  0  0  # atno 17395 bound_to 11000

$$$$
