AV-unprocessed.smi:911|AV-procd|sdf|4139|dock10
  -GOLD-   22720 2 43D 1   1.00000     0.00000
 Structure written by MMmdl.
 47 49  0  0  0  0  0  0  0  0  3 V2000
  149.0050  141.4342  155.5617 C   0  0  0  0  0  0  0  0  0  0  0  0
  148.1184  140.1712  155.3727 C   0  0  0  0  0  0  0  0  0  0  0  0
  148.1483  139.4373  156.7424 C   0  0  0  0  0  0  0  0  0  0  0  0
  146.7024  140.4723  154.8425 C   0  0  1  0  0  0  0  0  0  0  0  0
  146.9567  141.0655  153.4381 C   0  0  0  0  0  0  0  0  0  0  0  0
  148.1890  140.2742  152.9580 C   0  0  0  0  0  0  0  0  0  0  0  0
  148.4442  139.2913  154.1350 C   0  0  1  0  0  0  0  0  0  0  0  0
  149.8559  138.6792  154.1070 C   0  0  0  0  0  0  0  0  0  0  0  0
  147.2928  138.2325  154.1516 C   0  0  2  0  0  0  0  0  0  0  0  0
  147.0163  137.6274  152.8502 N   0  0  0  0  0  0  0  0  0  0  0  0
  145.9805  136.8234  152.5681 C   0  0  0  0  0  0  0  0  0  0  0  0
  145.0764  136.5690  153.3630 O   0  0  0  0  0  0  0  0  0  0  0  0
  145.9827  136.1889  151.1753 C   0  0  0  0  0  0  0  0  0  0  0  0
  146.0494  134.7231  151.2772 N   0  0  0  0  0  0  0  0  0  0  0  0
  147.0479  134.1965  152.1201 C   0  0  0  0  0  0  0  0  0  0  0  0
  147.1781  132.8740  152.3384 C   0  0  0  0  0  0  0  0  0  0  0  0
  148.1945  132.3575  153.2279 N   0  3  0  0  0  0  0  0  0  0  0  0
  148.9942  133.1431  153.7258 O   0  0  0  0  0  0  0  0  0  0  0  0
  148.2292  131.1517  153.4552 O   0  5  0  0  0  0  0  0  0  0  0  0
  146.2534  131.9852  151.6628 C   0  0  0  0  0  0  0  0  0  0  0  0
  145.2959  132.4818  150.8545 C   0  0  0  0  0  0  0  0  0  0  0  0
  145.1493  133.9237  150.6270 C   0  0  0  0  0  0  0  0  0  0  0  0
  144.2682  134.3828  149.9005 O   0  0  0  0  0  0  0  0  0  0  0  0
  146.0872  139.0712  154.6350 C   0  0  0  0  0  0  0  0  0  0  0  0
  148.6095  142.0619  156.3607 H   0  0  0  0  0  0  0  0  0  0  0  0
  149.0931  142.0744  154.6872 H   0  0  0  0  0  0  0  0  0  0  0  0
  150.0199  141.1568  155.8474 H   0  0  0  0  0  0  0  0  0  0  0  0
  147.5628  138.5224  156.7917 H   0  0  0  0  0  0  0  0  0  0  0  0
  147.7703  140.0864  157.5330 H   0  0  0  0  0  0  0  0  0  0  0  0
  149.1690  139.1661  157.0129 H   0  0  0  0  0  0  0  0  0  0  0  0
  146.0985  141.1178  155.4810 H   0  0  0  0  0  0  0  0  0  0  0  0
  146.1018  140.9368  152.7732 H   0  0  0  0  0  0  0  0  0  0  0  0
  147.1680  142.1342  153.4845 H   0  0  0  0  0  0  0  0  0  0  0  0
  148.0192  139.7861  151.9992 H   0  0  0  0  0  0  0  0  0  0  0  0
  149.0393  140.9379  152.8013 H   0  0  0  0  0  0  0  0  0  0  0  0
  150.0278  138.1289  153.1820 H   0  0  0  0  0  0  0  0  0  0  0  0
  150.0058  137.9876  154.9360 H   0  0  0  0  0  0  0  0  0  0  0  0
  150.6252  139.4484  154.1722 H   0  0  0  0  0  0  0  0  0  0  0  0
  147.4999  137.4408  154.8730 H   0  0  0  0  0  0  0  0  0  0  0  0
  147.7025  137.7829  152.1263 H   0  0  0  0  0  0  0  0  0  0  0  0
  145.0935  136.5111  150.6307 H   0  0  0  0  0  0  0  0  0  0  0  0
  146.8250  136.5723  150.5969 H   0  0  0  0  0  0  0  0  0  0  0  0
  147.6800  134.9411  152.5828 H   0  0  0  0  0  0  0  0  0  0  0  0
  146.3199  130.9161  151.8021 H   0  0  0  0  0  0  0  0  0  0  0  0
  144.6153  131.8020  150.3629 H   0  0  0  0  0  0  0  0  0  0  0  0
  145.6799  138.6732  155.5648 H   0  0  0  0  0  0  0  0  0  0  0  0
  145.2642  139.0916  153.9187 H   0  0  0  0  0  0  0  0  0  0  0  0
  1  2  1  0  0  0  0
  1 25  1  0  0  0  0
  1 26  1  0  0  0  0
  1 27  1  0  0  0  0
  2  7  1  0  0  0  0
  2  3  1  0  0  0  0
  2  4  1  0  0  0  0
  3 28  1  0  0  0  0
  3 29  1  0  0  0  0
  3 30  1  0  0  0  0
  4 24  1  0  0  0  0
  4  5  1  0  0  0  0
  4 31  1  0  0  0  0
  5  6  1  0  0  0  0
  5 32  1  0  0  0  0
  5 33  1  0  0  0  0
  6  7  1  0  0  0  0
  6 34  1  0  0  0  0
  6 35  1  0  0  0  0
  7  8  1  0  0  0  0
  7  9  1  0  0  0  0
  8 36  1  0  0  0  0
  8 37  1  0  0  0  0
  8 38  1  0  0  0  0
  9 10  1  0  0  0  0
  9 24  1  0  0  0  0
  9 39  1  0  0  0  0
 10 11  1  0  0  0  0
 10 40  1  0  0  0  0
 11 12  2  0  0  0  0
 11 13  1  0  0  0  0
 13 14  1  0  0  0  0
 13 41  1  0  0  0  0
 13 42  1  0  0  0  0
 14 22  1  0  0  0  0
 14 15  1  0  0  0  0
 15 16  2  0  0  0  0
 15 43  1  0  0  0  0
 16 17  1  0  0  0  0
 16 20  1  0  0  0  0
 17 18  2  0  0  0  0
 17 19  1  0  0  0  0
 20 21  2  0  0  0  0
 20 44  1  0  0  0  0
 21 22  1  0  0  0  0
 21 45  1  0  0  0  0
 22 23  2  0  0  0  0
 24 46  1  0  0  0  0
 24 47  1  0  0  0  0
M  CHG  1  17   1
M  CHG  1  19  -1
M  END
> <s_m_source_file>
AV-unprocessed.smi

> <i_m_source_file_index>
911

> <i_lp_mmshare_version>
43012

> <i_f3d_flags>
0

> <s_epik_input>
W0NIM11bQ0BdMTJDKFtDSDNdKShbQ0gzXSlbQ0BIXShbQ0gyXVtDSDJdMSlbQ0gyXVtDQEBIXTJbTkhdQyg9TylbQ0gyXW4zW2NIXWMoW04rXSg9TylbTy1dKVtjSF1bY0hdYzM9Tw==

> <s_epik_cmdline>
J2VwaWtfcHl0aG9uJywgJy1waCcsICc3LjAnLCAnLXRuJywgJzgnLCAnLW1hJywgJzIwMCcsICctbWV0YWxfYmluZGluZycsICctaW1hZScsICc8aW5maWxlLm1hZT4nLCAnLW9tYWUnLCAnPG91dGZpbGUubWFlPic=

> <r_lp_tautomer_probability>
1

> <r_epik_Ionization_Penalty>
2.04092e-08

> <r_epik_Ionization_Penalty_Charging>
8.54191e-11

> <r_epik_Ionization_Penalty_Neutral>
2.03238e-08

> <r_epik_State_Penalty>
-0

> <r_epik_Charging_Adjusted_Penalty>
8.54191e-11

> <i_epik_Tot_Q>
0

> <i_epik_Tot_abs_Q>
2

> <r_epik_Metal_State_Penalty>
-0

> <b_epik_Metal_Only>
0

> <s_lp_Force_Field>
OPLS_2005

> <r_lp_Energy>
68.3511

> <b_lp_Chiralities_Consistent>
1

> <s_lp_Variant>
AV-unprocessed.smi:911-4

> <Gold.Version>
5.8.1

> <Gold.Id.Protein>
6NUR|6NUR_protein|mol2

> <Gold.PLP.Fitness>
32.4802

> <Gold.PLP.PLP>
-28.6616

> <Gold.PLP.part.hbond>
-1.0000

> <Gold.PLP.part.metal>
0.0000

> <Gold.PLP.part.buried>
2.4750

> <Gold.PLP.part.nonpolar>
-31.5547

> <Gold.PLP.part.repulsive>
0.9543

> <Gold.PLP.ligand.clash>
0.0000

> <Gold.PLP.ligand.torsion>
0.1311

> <Gold.PLP.Chemscore.Hbond>
0.3520

> <Gold.PLP.Chemscore.CHOScore>
1.0000

> <Gold.PLP.Chemscore.Metal>
0.0000

> <Gold.Chemscore.Hbonds>
donor molecule, donor type, donor heavy atom, donor atom, acceptor molecule, acceptor atom, score
      L1  H    10    40       P1  7948  0.30
      L1  C    15    43       P1  7948  0.72

> <Gold.PLP.Chemscore.Internal.Correction>
0.0247

> <Gold.Rescore>
     Score         DG    S(hbond)    S(metal)    S(lipo)     H(rot)  DE(clash)    DE(int)     intcor
      8.33     -11.96       0.51        0.00      74.12       1.53       2.18       1.45       ----

> <Gold.Chemscore.Fitness>
8.3261

> <Gold.Chemscore.DG>
-11.9602

> <Gold.Chemscore.ZeroCoef>
-5.4800

> <Gold.Chemscore.Hbond>
0.5146

> <Gold.Chemscore.Metal>
0.0000

> <Gold.Chemscore.Lipo>
74.1222

> <Gold.Chemscore.Internal_Hbond>
0.0000

> <Gold.Chemscore.DEClash>
2.1836

> <Gold.Chemscore.DEInternal>
1.4505

> <Gold.Chemscore.Rot>
1.5277

> <Gold.Chemscore.Internal.Correction>
   9.000000E+99

> <Gold.Chemscore.Hbonds>
donor molecule, donor type, donor heavy atom, donor atom, acceptor molecule, acceptor atom, score
      L1  H    10    40       P1  7948  0.29

> <Gold.Chemscore.Hbond.Weighted>
-1.7189

> <Gold.Chemscore.Metal.Weighted>
-0.0000

> <Gold.Chemscore.Lipo.Weighted>
-8.6723

> <Gold.Chemscore.Internal_Hbond.Weighted>
0.0000

> <Gold.Chemscore.DEClash.Weighted>
2.1836

> <Gold.Chemscore.DEInternal.Weighted>
1.4505

> <Gold.Chemscore.Rot.Weighted>
3.9110

> <Gold.Chemscore.Internal.Correction.Weighted>
   9.000000E+99

> <Gold.Protein.RotatedTorsions>
[ 6907 6896 6895 6894 ] final  157.55 input  -60.11 | X-H torsion
[ 7974 7965 7964 7962 ] final -126.86 input  175.53 | X-H torsion
[ 8008 7997 7996 7995 ] final -157.31 input   59.86 | X-H torsion
[ 10167 10162 10161 10158 ] final   79.33 input  -65.29 | X-H torsion
[ 10718 10713 10712 10709 ] final   21.54 input   66.30 | X-H torsion
[ 10763 10752 10751 10750 ] final   79.34 input  -60.55 | X-H torsion
[ 11005 11000 10999 10996 ] final  -50.59 input  -57.11 | X-H torsion

> <Gold.Protein.ActiveResidues>
 VAL166  LYS551  ARG553  GLY616  TRP617  ASP618  TYR619  PRO620  LYS621  CYS622 
 ASP623  PHE694  ASN695  SER759  ASP760  ASP761  ALA762  ILE779  LEU786  VAL792 
 PHE793  MET794  SER795  GLU796  ALA797  LYS798  CYS799  TRP800  GLU811  SER814 

> <Gold.Protein.RotatedAtoms>
  152.0134  133.3870  159.4228 H   0  0  0  0  0  0  0  0  0  0  0  0  # atno 6907 bound_to 6896
  150.6897  134.3705  159.4999 H   0  0  0  0  0  0  0  0  0  0  0  0  # atno 6908 bound_to 6896
  152.1469  134.9019  160.0601 H   0  0  0  0  0  0  0  0  0  0  0  0  # atno 6909 bound_to 6896
  144.9829  140.7658  143.4601 H   0  0  0  0  0  0  0  0  0  0  0  0  # atno 7974 bound_to 7965
  155.7305  140.0801  157.2291 H   0  0  0  0  0  0  0  0  0  0  0  0  # atno 8008 bound_to 7997
  154.4033  140.1596  156.2557 H   0  0  0  0  0  0  0  0  0  0  0  0  # atno 8009 bound_to 7997
  155.9114  140.3403  155.6104 H   0  0  0  0  0  0  0  0  0  0  0  0  # atno 8010 bound_to 7997
  139.9615  144.5957  150.8068 H   0  0  0  0  0  0  0  0  0  0  0  0  # atno 10167 bound_to 10162
  157.1398  130.6627  149.5977 H   0  0  0  0  0  0  0  0  0  0  0  0  # atno 10718 bound_to 10713
  153.0945  135.4843  154.8752 H   0  0  0  0  0  0  0  0  0  0  0  0  # atno 10763 bound_to 10752
  154.7308  135.3060  154.8897 H   0  0  0  0  0  0  0  0  0  0  0  0  # atno 10764 bound_to 10752
  153.9533  135.6821  153.4797 H   0  0  0  0  0  0  0  0  0  0  0  0  # atno 10765 bound_to 10752
  141.0824  133.6650  156.3754 H   0  0  0  0  0  0  0  0  0  0  0  0  # atno 11005 bound_to 11000
  145.2395  139.2079  143.5000 LP  0  0  0  0  0  0  0  0  0  0  0  0  # atno 17320 bound_to 7965
  146.3413  140.2287  142.8593 LP  0  0  0  0  0  0  0  0  0  0  0  0  # atno 17321 bound_to 7965
  140.7551  143.3041  151.3007 LP  0  0  0  0  0  0  0  0  0  0  0  0  # atno 17342 bound_to 10162
  139.6550  144.0292  152.2653 LP  0  0  0  0  0  0  0  0  0  0  0  0  # atno 17343 bound_to 10162
  155.9791  130.4781  150.6694 LP  0  0  0  0  0  0  0  0  0  0  0  0  # atno 17370 bound_to 10713
  157.4317  131.0850  151.1032 LP  0  0  0  0  0  0  0  0  0  0  0  0  # atno 17371 bound_to 10713
  140.5438  134.6095  157.5387 LP  0  0  0  0  0  0  0  0  0  0  0  0  # atno 17394 bound_to 11000
  139.9639  134.7405  156.0178 LP  0  0  0  0  0  0  0  0  0  0  0  0  # atno 17395 bound_to 11000

$$$$
