AV-unprocessed.smi:2787|AV-procd|sdf|10758|dock2
  -GOLD-   2272015193D 1   1.00000     0.00000
 Structure written by MMmdl.
 36 37  0  0  0  0  0  0  0  0  2 V2000
  145.7807  140.8122  154.4219 O   0  0  0  0  0  0  0  0  0  0  0  0
  147.0968  141.1308  154.0229 C   0  0  0  0  0  0  0  0  0  0  0  0
  147.9256  141.5961  155.2291 C   0  0  0  0  0  0  0  0  0  0  0  0
  149.4305  141.3108  155.0718 C   0  0  0  0  0  0  0  0  0  0  0  0
  150.2486  141.7610  156.2435 C   0  0  0  0  0  0  0  0  0  0  0  0
  150.5322  143.0468  156.6024 N   0  3  0  0  0  0  0  0  0  0  0  0
  151.3286  143.0560  157.7475 C   0  0  0  0  0  0  0  0  0  0  0  0
  151.8619  144.1139  158.4775 C   0  0  0  0  0  0  0  0  0  0  0  0
  152.6360  143.7766  159.6069 C   0  0  0  0  0  0  0  0  0  0  0  0
  152.8539  142.4322  159.9725 C   0  0  0  0  0  0  0  0  0  0  0  0
  152.3090  141.3685  159.2234 C   0  0  0  0  0  0  0  0  0  0  0  0
  151.5459  141.7101  158.1068 C   0  0  0  0  0  0  0  0  0  0  0  0
  150.8640  140.9480  157.1499 N   0  0  0  0  0  0  0  0  0  0  0  0
  150.8975  139.4778  157.2272 C   0  0  0  0  0  0  0  0  0  0  0  0
  151.9390  138.8490  156.2789 C   0  0  2  0  0  0  0  0  0  0  0  0
  152.6342  139.8689  155.5877 O   0  0  0  0  0  0  0  0  0  0  0  0
  151.3114  137.8787  155.2594 C   0  0  0  0  0  0  0  0  0  0  0  0
  150.3297  138.4858  154.5922 F   0  0  0  0  0  0  0  0  0  0  0  0
  152.2372  137.5030  154.3769 F   0  0  0  0  0  0  0  0  0  0  0  0
  150.8347  136.7910  155.8662 F   0  0  0  0  0  0  0  0  0  0  0  0
  145.2013  140.9479  153.6872 H   0  0  0  0  0  0  0  0  0  0  0  0
  147.5542  140.2625  153.5476 H   0  0  0  0  0  0  0  0  0  0  0  0
  147.0488  141.9213  153.2734 H   0  0  0  0  0  0  0  0  0  0  0  0
  147.7773  142.6694  155.3550 H   0  0  0  0  0  0  0  0  0  0  0  0
  147.5458  141.1232  156.1359 H   0  0  0  0  0  0  0  0  0  0  0  0
  149.5925  140.2418  154.9310 H   0  0  0  0  0  0  0  0  0  0  0  0
  149.8085  141.8054  154.1765 H   0  0  0  0  0  0  0  0  0  0  0  0
  151.6963  145.1447  158.1997 H   0  0  0  0  0  0  0  0  0  0  0  0
  153.0710  144.5643  160.2050 H   0  0  0  0  0  0  0  0  0  0  0  0
  153.4510  142.2117  160.8455 H   0  0  0  0  0  0  0  0  0  0  0  0
  152.4799  140.3432  159.5168 H   0  0  0  0  0  0  0  0  0  0  0  0
  151.1288  139.2156  158.2598 H   0  0  0  0  0  0  0  0  0  0  0  0
  149.8992  139.0846  157.0358 H   0  0  0  0  0  0  0  0  0  0  0  0
  152.6737  138.3023  156.8717 H   0  0  0  0  0  0  0  0  0  0  0  0
  152.0736  140.6273  155.5323 H   0  0  0  0  0  0  0  0  0  0  0  0
  150.2014  143.8585  156.0968 H   0  0  0  0  0  0  0  0  0  0  0  0
  1  2  1  0  0  0  0
  1 21  1  0  0  0  0
  2  3  1  0  0  0  0
  2 22  1  0  0  0  0
  2 23  1  0  0  0  0
  3  4  1  0  0  0  0
  3 24  1  0  0  0  0
  3 25  1  0  0  0  0
  4  5  1  0  0  0  0
  4 26  1  0  0  0  0
  4 27  1  0  0  0  0
  5 13  1  0  0  0  0
  5  6  2  0  0  0  0
  6  7  1  0  0  0  0
  6 36  1  0  0  0  0
  7 12  2  0  0  0  0
  7  8  1  0  0  0  0
  8  9  2  0  0  0  0
  8 28  1  0  0  0  0
  9 10  1  0  0  0  0
  9 29  1  0  0  0  0
 10 11  2  0  0  0  0
 10 30  1  0  0  0  0
 11 12  1  0  0  0  0
 11 31  1  0  0  0  0
 12 13  1  0  0  0  0
 13 14  1  0  0  0  0
 14 15  1  0  0  0  0
 14 32  1  0  0  0  0
 14 33  1  0  0  0  0
 15 16  1  0  0  0  0
 15 17  1  0  0  0  0
 15 34  1  0  0  0  0
 16 35  1  0  0  0  0
 17 18  1  0  0  0  0
 17 19  1  0  0  0  0
 17 20  1  0  0  0  0
M  CHG  1   6   1
M  END
> <s_m_source_file>
AV-unprocessed.smi

> <i_m_source_file_index>
2787

> <i_lp_mmshare_version>
43012

> <i_f3d_flags>
0

> <s_epik_input>
W09IXVtDSDJdW0NIMl1bQ0gyXWMobjEpbihbQ0gyXVtDQEhdKFtPSF0pQyhGKShGKUYpYyhjMTIpW2NIXVtjSF1bY0hdW2NIXTI=

> <s_epik_cmdline>
J2VwaWtfcHl0aG9uJywgJy1waCcsICc3LjAnLCAnLXRuJywgJzgnLCAnLW1hJywgJzIwMCcsICctbWV0YWxfYmluZGluZycsICctaW1hZScsICc8aW5maWxlLm1hZT4nLCAnLW9tYWUnLCAnPG91dGZpbGUubWFlPic=

> <r_epik_Ionization_Penalty>
0.964009

> <r_epik_Ionization_Penalty_Charging>
0.952215

> <r_epik_Ionization_Penalty_Neutral>
0.0117938

> <r_epik_State_Penalty>
1.09527

> <r_epik_Charging_Adjusted_Penalty>
2.04749

> <i_epik_Tot_Q>
1

> <i_epik_Tot_abs_Q>
1

> <r_epik_Metal_State_Penalty>
5.08046

> <b_epik_Metal_Only>
0

> <s_lp_Force_Field>
OPLS_2005

> <r_lp_Energy>
17.2873

> <b_lp_Chiralities_Consistent>
1

> <s_lp_Variant>
AV-unprocessed.smi:2787-3

> <Gold.Version>
5.8.1

> <Gold.Id.Protein>
6NUR|6NUR_protein|mol2

> <Gold.PLP.Fitness>
53.2053

> <Gold.PLP.PLP>
-44.3866

> <Gold.PLP.part.hbond>
-3.8273

> <Gold.PLP.part.metal>
0.0000

> <Gold.PLP.part.buried>
-2.1927

> <Gold.PLP.part.nonpolar>
-40.2530

> <Gold.PLP.part.repulsive>
0.0723

> <Gold.PLP.ligand.clash>
0.0000

> <Gold.PLP.ligand.torsion>
1.4284

> <Gold.PLP.Chemscore.Hbond>
3.8560

> <Gold.PLP.Chemscore.CHOScore>
0.0000

> <Gold.PLP.Chemscore.Metal>
0.0000

> <Gold.Chemscore.Hbonds>
donor molecule, donor type, donor heavy atom, donor atom, acceptor molecule, acceptor atom, score
      L1  H     1    21       P1 10175  1.00
      L1  H     6    36       P1  8028  1.86
      P1  H  7997  8010       L1    16  1.00

> <Gold.PLP.Chemscore.Internal.Correction>
0.1075

> <Gold.Rescore>
     Score         DG    S(hbond)    S(metal)    S(lipo)     H(rot)  DE(clash)    DE(int)     intcor
     15.03     -17.17       2.80        0.00      96.81       3.51       0.58       1.56       ----

> <Gold.Chemscore.Fitness>
15.0311

> <Gold.Chemscore.DG>
-17.1657

> <Gold.Chemscore.ZeroCoef>
-5.4800

> <Gold.Chemscore.Hbond>
2.8012

> <Gold.Chemscore.Metal>
0.0000

> <Gold.Chemscore.Lipo>
96.8076

> <Gold.Chemscore.Internal_Hbond>
0.0000

> <Gold.Chemscore.DEClash>
0.5776

> <Gold.Chemscore.DEInternal>
1.5570

> <Gold.Chemscore.Rot>
3.5143

> <Gold.Chemscore.Internal.Correction>
   9.000000E+99

> <Gold.Chemscore.Hbonds>
donor molecule, donor type, donor heavy atom, donor atom, acceptor molecule, acceptor atom, score
      L1  H     1    21       P1 10175  0.75
      L1  H     6    36       P1  8028  0.89
      P1  H  7997  8010       L1    16  0.90

> <Gold.Chemscore.Hbond.Weighted>
-9.3559

> <Gold.Chemscore.Metal.Weighted>
-0.0000

> <Gold.Chemscore.Lipo.Weighted>
-11.3265

> <Gold.Chemscore.Internal_Hbond.Weighted>
0.0000

> <Gold.Chemscore.DEClash.Weighted>
0.5776

> <Gold.Chemscore.DEInternal.Weighted>
1.5570

> <Gold.Chemscore.Rot.Weighted>
8.9967

> <Gold.Chemscore.Internal.Correction.Weighted>
   9.000000E+99

> <Gold.Protein.RotatedTorsions>
[ 6907 6896 6895 6894 ] final   50.91 input  -60.11 | X-H torsion
[ 7974 7965 7964 7962 ] final -119.55 input  175.53 | X-H torsion
[ 8008 7997 7996 7995 ] final   96.35 input   59.86 | X-H torsion
[ 10167 10162 10161 10158 ] final  -60.88 input  -65.29 | X-H torsion
[ 10718 10713 10712 10709 ] final  -75.78 input   66.30 | X-H torsion
[ 10763 10752 10751 10750 ] final  -23.64 input  -60.55 | X-H torsion
[ 11005 11000 10999 10996 ] final   -0.17 input  -57.11 | X-H torsion

> <Gold.Protein.ActiveResidues>
 VAL166  LYS551  ARG553  GLY616  TRP617  ASP618  TYR619  PRO620  LYS621  CYS622 
 ASP623  PHE694  ASN695  SER759  ASP760  ASP761  ALA762  ILE779  LEU786  VAL792 
 PHE793  MET794  SER795  GLU796  ALA797  LYS798  CYS799  TRP800  GLU811  SER814 

> <Gold.Protein.RotatedAtoms>
  152.3069  134.7544  160.0344 H   0  0  0  0  0  0  0  0  0  0  0  0  # atno 6907 bound_to 6896
  151.8038  133.3368  159.3543 H   0  0  0  0  0  0  0  0  0  0  0  0  # atno 6908 bound_to 6896
  150.7301  134.5659  159.5910 H   0  0  0  0  0  0  0  0  0  0  0  0  # atno 6909 bound_to 6896
  145.0613  140.8292  143.4150 H   0  0  0  0  0  0  0  0  0  0  0  0  # atno 7974 bound_to 7965
  156.0787  140.3274  155.7666 H   0  0  0  0  0  0  0  0  0  0  0  0  # atno 8008 bound_to 7997
  155.5188  140.0583  157.2928 H   0  0  0  0  0  0  0  0  0  0  0  0  # atno 8009 bound_to 7997
  154.4570  140.1947  156.0369 H   0  0  0  0  0  0  0  0  0  0  0  0  # atno 8010 bound_to 7997
  140.6042  143.2369  151.5859 H   0  0  0  0  0  0  0  0  0  0  0  0  # atno 10167 bound_to 10162
  156.0196  130.4449  150.3095 H   0  0  0  0  0  0  0  0  0  0  0  0  # atno 10718 bound_to 10713
  153.6710  135.6971  153.5147 H   0  0  0  0  0  0  0  0  0  0  0  0  # atno 10763 bound_to 10752
  153.2558  135.4260  155.0843 H   0  0  0  0  0  0  0  0  0  0  0  0  # atno 10764 bound_to 10752
  154.8426  135.3542  154.6254 H   0  0  0  0  0  0  0  0  0  0  0  0  # atno 10765 bound_to 10752
  140.6333  133.9555  155.8286 H   0  0  0  0  0  0  0  0  0  0  0  0  # atno 11005 bound_to 11000
  145.1405  139.2575  143.5492 LP  0  0  0  0  0  0  0  0  0  0  0  0  # atno 17320 bound_to 7965
  146.3524  140.1081  142.8605 LP  0  0  0  0  0  0  0  0  0  0  0  0  # atno 17321 bound_to 7965
  139.5313  144.2908  152.1153 LP  0  0  0  0  0  0  0  0  0  0  0  0  # atno 17342 bound_to 10162
  140.2095  144.4577  150.6392 LP  0  0  0  0  0  0  0  0  0  0  0  0  # atno 17343 bound_to 10162
  157.1196  131.0243  151.3014 LP  0  0  0  0  0  0  0  0  0  0  0  0  # atno 17370 bound_to 10713
  157.4638  130.7669  149.7260 LP  0  0  0  0  0  0  0  0  0  0  0  0  # atno 17371 bound_to 10713
  141.0660  134.0277  157.3594 LP  0  0  0  0  0  0  0  0  0  0  0  0  # atno 17394 bound_to 11000
  139.9108  135.0189  156.7682 LP  0  0  0  0  0  0  0  0  0  0  0  0  # atno 17395 bound_to 11000

$$$$
