AV-unprocessed.smi:1295|AV-procd|sdf|5401|dock7
  -GOLD-   22720 4563D 1   1.00000     0.00000
 Structure written by MMmdl.
 43 44  0  0  0  0  0  0  0  0  1 V2000
  149.2089  135.1733  155.9590 C   0  0  0  0  0  0  0  0  0  0  0  0
  150.1559  136.0047  156.7983 C   0  0  0  0  0  0  0  0  0  0  0  0
  151.3712  136.2790  156.4550 N   0  0  0  0  0  0  0  0  0  0  0  0
  152.1532  137.0631  157.3144 C   0  0  0  0  0  0  0  0  0  0  0  0
  153.5670  137.3483  156.8376 C   0  0  0  0  0  0  0  0  0  0  0  0
  151.6628  137.5350  158.4980 C   0  0  0  0  0  0  0  0  0  0  0  0
  152.4900  138.3955  159.4517 C   0  0  0  0  0  0  0  0  0  0  0  0
  152.6120  139.8728  159.0707 C   0  0  0  0  0  0  0  0  0  0  0  0
  153.6086  140.2770  158.4716 O   0  0  0  0  0  0  0  0  0  0  0  0
  151.5903  140.6645  159.4323 N   0  0  0  0  0  0  0  0  0  0  0  0
  151.5035  142.1081  159.2170 C   0  0  2  0  0  0  0  0  0  0  0  0
  151.3069  142.3689  157.7105 C   0  0  0  0  0  0  0  0  0  0  0  0
  151.2707  143.8705  157.3930 C   0  0  0  0  0  0  0  0  0  0  0  0
  152.5380  144.5684  157.9045 C   0  0  0  0  0  0  0  0  0  0  0  0
  152.7288  144.3289  159.4096 C   0  0  0  0  0  0  0  0  0  0  0  0
  152.7681  142.8260  159.7550 C   0  0  1  0  0  0  0  0  0  0  0  0
  152.9642  142.6282  161.2691 C   0  0  0  0  0  0  0  0  0  0  0  0
  150.2743  137.2135  158.8811 C   0  0  0  0  0  0  0  0  0  0  0  0
  149.7319  137.5883  159.9196 O   0  0  0  0  0  0  0  0  0  0  0  0
  149.5945  136.4556  157.9917 N   0  0  0  0  0  0  0  0  0  0  0  0
  148.6388  136.2109  158.2068 H   0  0  0  0  0  0  0  0  0  0  0  0
  149.0629  135.6410  154.9847 H   0  0  0  0  0  0  0  0  0  0  0  0
  148.2337  135.0679  156.4364 H   0  0  0  0  0  0  0  0  0  0  0  0
  149.6221  134.1764  155.8030 H   0  0  0  0  0  0  0  0  0  0  0  0
  154.2967  136.9238  157.5270 H   0  0  0  0  0  0  0  0  0  0  0  0
  153.7405  138.4220  156.7651 H   0  0  0  0  0  0  0  0  0  0  0  0
  153.7478  136.9157  155.8527 H   0  0  0  0  0  0  0  0  0  0  0  0
  152.0918  138.3391  160.4652 H   0  0  0  0  0  0  0  0  0  0  0  0
  153.4889  137.9636  159.5232 H   0  0  0  0  0  0  0  0  0  0  0  0
  150.8149  140.2347  159.9155 H   0  0  0  0  0  0  0  0  0  0  0  0
  150.6334  142.5136  159.7370 H   0  0  0  0  0  0  0  0  0  0  0  0
  152.1151  141.9019  157.1452 H   0  0  0  0  0  0  0  0  0  0  0  0
  150.3827  141.9009  157.3686 H   0  0  0  0  0  0  0  0  0  0  0  0
  151.1706  144.0214  156.3179 H   0  0  0  0  0  0  0  0  0  0  0  0
  150.3905  144.3220  157.8525 H   0  0  0  0  0  0  0  0  0  0  0  0
  153.4071  144.1960  157.3609 H   0  0  0  0  0  0  0  0  0  0  0  0
  152.4812  145.6384  157.7025 H   0  0  0  0  0  0  0  0  0  0  0  0
  153.6505  144.8107  159.7381 H   0  0  0  0  0  0  0  0  0  0  0  0
  151.9181  144.8110  159.9579 H   0  0  0  0  0  0  0  0  0  0  0  0
  153.6384  142.3978  159.2550 H   0  0  0  0  0  0  0  0  0  0  0  0
  152.1049  142.9976  161.8296 H   0  0  0  0  0  0  0  0  0  0  0  0
  153.8463  143.1622  161.6233 H   0  0  0  0  0  0  0  0  0  0  0  0
  153.1009  141.5775  161.5248 H   0  0  0  0  0  0  0  0  0  0  0  0
  1  2  1  0  0  0  0
  1 22  1  0  0  0  0
  1 23  1  0  0  0  0
  1 24  1  0  0  0  0
  2 20  1  0  0  0  0
  2  3  2  0  0  0  0
  3  4  1  0  0  0  0
  4  5  1  0  0  0  0
  4  6  2  0  0  0  0
  5 25  1  0  0  0  0
  5 26  1  0  0  0  0
  5 27  1  0  0  0  0
  6  7  1  0  0  0  0
  6 18  1  0  0  0  0
  7  8  1  0  0  0  0
  7 28  1  0  0  0  0
  7 29  1  0  0  0  0
  8  9  2  0  0  0  0
  8 10  1  0  0  0  0
 10 11  1  0  0  0  0
 10 30  1  0  0  0  0
 11 16  1  0  0  0  0
 11 12  1  0  0  0  0
 11 31  1  0  0  0  0
 12 13  1  0  0  0  0
 12 32  1  0  0  0  0
 12 33  1  0  0  0  0
 13 14  1  0  0  0  0
 13 34  1  0  0  0  0
 13 35  1  0  0  0  0
 14 15  1  0  0  0  0
 14 36  1  0  0  0  0
 14 37  1  0  0  0  0
 15 16  1  0  0  0  0
 15 38  1  0  0  0  0
 15 39  1  0  0  0  0
 16 17  1  0  0  0  0
 16 40  1  0  0  0  0
 17 41  1  0  0  0  0
 17 42  1  0  0  0  0
 17 43  1  0  0  0  0
 18 19  2  0  0  0  0
 18 20  1  0  0  0  0
 20 21  1  0  0  0  0
M  END
> <s_m_source_file>
AV-unprocessed.smi

> <i_m_source_file_index>
1295

> <i_lp_mmshare_version>
43012

> <i_f3d_flags>
0

> <s_epik_input>
W0NIM11jMW5jKFtDSDNdKWMoYyg9TylbbkhdMSlbQ0gyXUMoPU8pW05IXVtDQEBIXTJbQ0gyXVtDSDJdW0NIMl1bQ0gyXVtDQEhdMltDSDNd

> <s_epik_cmdline>
J2VwaWtfcHl0aG9uJywgJy1waCcsICc3LjAnLCAnLXRuJywgJzgnLCAnLW1hJywgJzIwMCcsICctbWV0YWxfYmluZGluZycsICctaW1hZScsICc8aW5maWxlLm1hZT4nLCAnLW9tYWUnLCAnPG91dGZpbGUubWFlPic=

> <r_lp_tautomer_probability>
0.839158

> <r_epik_Ionization_Penalty>
0.00037085

> <r_epik_Ionization_Penalty_Charging>
0.000336002

> <r_epik_Ionization_Penalty_Neutral>
3.48485e-05

> <r_epik_State_Penalty>
0.09125

> <r_epik_Charging_Adjusted_Penalty>
0.091586

> <i_epik_Tot_Q>
0

> <i_epik_Tot_abs_Q>
0

> <r_epik_Metal_State_Penalty>
0.251445

> <b_epik_Metal_Only>
0

> <s_lp_Force_Field>
OPLS_2005

> <r_lp_Energy>
11.9109

> <b_lp_Chiralities_Consistent>
1

> <s_lp_Variant>
AV-unprocessed.smi:1295-1

> <Gold.Version>
5.8.1

> <Gold.Id.Protein>
6NUR|6NUR_protein|mol2

> <Gold.PLP.Fitness>
41.2587

> <Gold.PLP.PLP>
-37.0079

> <Gold.PLP.part.hbond>
-3.0000

> <Gold.PLP.part.metal>
0.0000

> <Gold.PLP.part.buried>
-4.2860

> <Gold.PLP.part.nonpolar>
-29.2410

> <Gold.PLP.part.repulsive>
0.2730

> <Gold.PLP.ligand.clash>
0.0000

> <Gold.PLP.ligand.torsion>
0.6730

> <Gold.PLP.Chemscore.Hbond>
1.8640

> <Gold.PLP.Chemscore.CHOScore>
0.0000

> <Gold.PLP.Chemscore.Metal>
0.0000

> <Gold.Chemscore.Hbonds>
donor molecule, donor type, donor heavy atom, donor atom, acceptor molecule, acceptor atom, score
      P1  H  6931  6943       L1    19  0.08
      P1  H  7997  8009       L1     9  0.85

> <Gold.PLP.Chemscore.Internal.Correction>
0.0048

> <Gold.Rescore>
     Score         DG    S(hbond)    S(metal)    S(lipo)     H(rot)  DE(clash)    DE(int)     intcor
     18.59     -19.97       1.82        0.00     104.30       1.48       0.06       1.31       ----

> <Gold.Chemscore.Fitness>
18.5874

> <Gold.Chemscore.DG>
-19.9662

> <Gold.Chemscore.ZeroCoef>
-5.4800

> <Gold.Chemscore.Hbond>
1.8181

> <Gold.Chemscore.Metal>
0.0000

> <Gold.Chemscore.Lipo>
104.2994

> <Gold.Chemscore.Internal_Hbond>
0.0000

> <Gold.Chemscore.DEClash>
0.0643

> <Gold.Chemscore.DEInternal>
1.3145

> <Gold.Chemscore.Rot>
1.4801

> <Gold.Chemscore.Internal.Correction>
   9.000000E+99

> <Gold.Chemscore.Hbonds>
donor molecule, donor type, donor heavy atom, donor atom, acceptor molecule, acceptor atom, score
      P1  H  6931  6943       L1    19  0.09
      P1  H  7997  8009       L1     9  0.83

> <Gold.Chemscore.Hbond.Weighted>
-6.0723

> <Gold.Chemscore.Metal.Weighted>
-0.0000

> <Gold.Chemscore.Lipo.Weighted>
-12.2030

> <Gold.Chemscore.Internal_Hbond.Weighted>
0.0000

> <Gold.Chemscore.DEClash.Weighted>
0.0643

> <Gold.Chemscore.DEInternal.Weighted>
1.3145

> <Gold.Chemscore.Rot.Weighted>
3.7891

> <Gold.Chemscore.Internal.Correction.Weighted>
   9.000000E+99

> <Gold.Protein.RotatedTorsions>
[ 6907 6896 6895 6894 ] final -153.43 input  -60.11 | X-H torsion
[ 7974 7965 7964 7962 ] final  151.74 input  175.53 | X-H torsion
[ 8008 7997 7996 7995 ] final  138.00 input   59.86 | X-H torsion
[ 10167 10162 10161 10158 ] final -154.60 input  -65.29 | X-H torsion
[ 10718 10713 10712 10709 ] final   54.83 input   66.30 | X-H torsion
[ 10763 10752 10751 10750 ] final  104.33 input  -60.55 | X-H torsion
[ 11005 11000 10999 10996 ] final  144.26 input  -57.11 | X-H torsion

> <Gold.Protein.ActiveResidues>
 VAL166  LYS551  ARG553  GLY616  TRP617  ASP618  TYR619  PRO620  LYS621  CYS622 
 ASP623  PHE694  ASN695  SER759  ASP760  ASP761  ALA762  ILE779  LEU786  VAL792 
 PHE793  MET794  SER795  GLU796  ALA797  LYS798  CYS799  TRP800  GLU811  SER814 

> <Gold.Protein.RotatedAtoms>
  151.2425  133.4392  159.2607 H   0  0  0  0  0  0  0  0  0  0  0  0  # atno 6907 bound_to 6896
  151.0692  134.9788  159.8310 H   0  0  0  0  0  0  0  0  0  0  0  0  # atno 6908 bound_to 6896
  152.5410  134.2371  159.8900 H   0  0  0  0  0  0  0  0  0  0  0  0  # atno 6909 bound_to 6896
  144.8271  139.6578  143.6075 H   0  0  0  0  0  0  0  0  0  0  0  0  # atno 7974 bound_to 7965
  156.2999  140.2405  156.4002 H   0  0  0  0  0  0  0  0  0  0  0  0  # atno 8008 bound_to 7997
  154.8534  140.0423  157.1639 H   0  0  0  0  0  0  0  0  0  0  0  0  # atno 8009 bound_to 7997
  154.8974  140.2972  155.5340 H   0  0  0  0  0  0  0  0  0  0  0  0  # atno 8010 bound_to 7997
  139.7000  143.9279  152.2424 H   0  0  0  0  0  0  0  0  0  0  0  0  # atno 10167 bound_to 10162
  157.5292  130.8618  149.8663 H   0  0  0  0  0  0  0  0  0  0  0  0  # atno 10718 bound_to 10713
  153.3645  135.3947  155.1743 H   0  0  0  0  0  0  0  0  0  0  0  0  # atno 10763 bound_to 10752
  154.8684  135.3687  154.5056 H   0  0  0  0  0  0  0  0  0  0  0  0  # atno 10764 bound_to 10752
  153.5519  135.7083  153.5648 H   0  0  0  0  0  0  0  0  0  0  0  0  # atno 10765 bound_to 10752
  140.0618  134.9200  157.1197 H   0  0  0  0  0  0  0  0  0  0  0  0  # atno 11005 bound_to 11000
  146.2575  139.6336  142.9384 LP  0  0  0  0  0  0  0  0  0  0  0  0  # atno 17320 bound_to 7965
  145.4977  141.0438  143.2558 LP  0  0  0  0  0  0  0  0  0  0  0  0  # atno 17321 bound_to 7965
  139.9119  144.6851  150.8553 LP  0  0  0  0  0  0  0  0  0  0  0  0  # atno 17342 bound_to 10162
  140.7707  143.3437  151.2155 LP  0  0  0  0  0  0  0  0  0  0  0  0  # atno 17343 bound_to 10162
  156.0409  130.3739  150.1437 LP  0  0  0  0  0  0  0  0  0  0  0  0  # atno 17370 bound_to 10713
  156.9623  130.9808  151.3476 LP  0  0  0  0  0  0  0  0  0  0  0  0  # atno 17371 bound_to 10713
  140.3759  134.2340  155.7174 LP  0  0  0  0  0  0  0  0  0  0  0  0  # atno 17394 bound_to 11000
  141.1976  133.8055  157.0619 LP  0  0  0  0  0  0  0  0  0  0  0  0  # atno 17395 bound_to 11000

$$$$
