AV-unprocessed.smi:763|AV-procd|sdf|3639|dock9
  -GOLD-   22720 1 43D 1   1.00000     0.00000
 Structure written by MMmdl.
 43 44  0  0  0  0  0  0  0  0  2 V2000
  156.9282  138.1725  158.6060 C   0  0  0  0  0  0  0  0  0  0  0  0
  156.3225  139.4155  158.9133 O   0  0  0  0  0  0  0  0  0  0  0  0
  155.9415  139.5114  160.2759 C   0  0  0  0  0  0  0  0  0  0  0  0
  155.1420  140.8005  160.4855 C   0  0  0  0  0  0  0  0  0  0  0  0
  153.8440  140.6227  159.9285 O   0  0  0  0  0  0  0  0  0  0  0  0
  153.0139  141.7208  159.7969 C   0  0  0  0  0  0  0  0  0  0  0  0
  153.2919  142.8217  160.5412 N   0  0  0  0  0  0  0  0  0  0  0  0
  152.4907  143.8977  160.4215 C   0  0  0  0  0  0  0  0  0  0  0  0
  151.3794  143.9328  159.5635 C   0  0  0  0  0  0  0  0  0  0  0  0
  151.0959  142.7898  158.7948 C   0  0  0  0  0  0  0  0  0  0  0  0
  151.9214  141.6429  158.8964 C   0  0  0  0  0  0  0  0  0  0  0  0
  151.7098  140.5211  158.1868 N   0  5  0  0  0  0  0  0  0  0  0  0
  150.6455  140.3305  156.9826 S   0  0  0  0  0  0  0  0  0  0  0  0
  149.4961  139.5172  157.4100 O   0  0  0  0  0  0  0  0  0  0  0  0
  150.3396  141.6135  156.3324 O   0  0  0  0  0  0  0  0  0  0  0  0
  151.6520  139.2886  155.7937 C   0  0  1  0  0  0  0  0  0  0  0  0
  152.3186  138.0982  156.5153 C   0  0  0  0  0  0  0  0  0  0  0  0
  151.3002  137.0087  156.8925 C   0  0  0  0  0  0  0  0  0  0  0  0
  150.5653  136.4908  155.6458 C   0  0  0  0  0  0  0  0  0  0  0  0
  149.8780  137.6327  154.8797 C   0  0  0  0  0  0  0  0  0  0  0  0
  150.8686  138.7718  154.5580 C   0  0  1  0  0  0  0  0  0  0  0  0
  150.2101  139.8216  153.8789 O   0  0  0  0  0  0  0  0  0  0  0  0
  157.2055  138.1506  157.5522 H   0  0  0  0  0  0  0  0  0  0  0  0
  156.2421  137.3445  158.7905 H   0  0  0  0  0  0  0  0  0  0  0  0
  157.8324  138.0167  159.1956 H   0  0  0  0  0  0  0  0  0  0  0  0
  155.3524  138.6451  160.5813 H   0  0  0  0  0  0  0  0  0  0  0  0
  156.8385  139.5335  160.8967 H   0  0  0  0  0  0  0  0  0  0  0  0
  155.0554  140.9970  161.5552 H   0  0  0  0  0  0  0  0  0  0  0  0
  155.6592  141.6455  160.0277 H   0  0  0  0  0  0  0  0  0  0  0  0
  152.7426  144.7553  161.0275 H   0  0  0  0  0  0  0  0  0  0  0  0
  150.7592  144.8139  159.4945 H   0  0  0  0  0  0  0  0  0  0  0  0
  150.2425  142.8095  158.1334 H   0  0  0  0  0  0  0  0  0  0  0  0
  152.4581  139.9342  155.4439 H   0  0  0  0  0  0  0  0  0  0  0  0
  153.0734  137.6622  155.8596 H   0  0  0  0  0  0  0  0  0  0  0  0
  152.8597  138.4354  157.3993 H   0  0  0  0  0  0  0  0  0  0  0  0
  151.8104  136.1831  157.3890 H   0  0  0  0  0  0  0  0  0  0  0  0
  150.5784  137.4008  157.6097 H   0  0  0  0  0  0  0  0  0  0  0  0
  151.2766  135.9896  154.9883 H   0  0  0  0  0  0  0  0  0  0  0  0
  149.8282  135.7405  155.9325 H   0  0  0  0  0  0  0  0  0  0  0  0
  149.4536  137.2431  153.9538 H   0  0  0  0  0  0  0  0  0  0  0  0
  149.0322  137.9962  155.4598 H   0  0  0  0  0  0  0  0  0  0  0  0
  151.6013  138.3752  153.8542 H   0  0  0  0  0  0  0  0  0  0  0  0
  149.9757  139.5208  153.0141 H   0  0  0  0  0  0  0  0  0  0  0  0
  1  2  1  0  0  0  0
  1 23  1  0  0  0  0
  1 24  1  0  0  0  0
  1 25  1  0  0  0  0
  2  3  1  0  0  0  0
  3  4  1  0  0  0  0
  3 26  1  0  0  0  0
  3 27  1  0  0  0  0
  4  5  1  0  0  0  0
  4 28  1  0  0  0  0
  4 29  1  0  0  0  0
  5  6  1  0  0  0  0
  6 11  1  0  0  0  0
  6  7  2  0  0  0  0
  7  8  1  0  0  0  0
  8  9  2  0  0  0  0
  8 30  1  0  0  0  0
  9 10  1  0  0  0  0
  9 31  1  0  0  0  0
 10 11  2  0  0  0  0
 10 32  1  0  0  0  0
 11 12  1  0  0  0  0
 12 13  1  0  0  0  0
 13 14  2  0  0  0  0
 13 15  2  0  0  0  0
 13 16  1  0  0  0  0
 16 21  1  0  0  0  0
 16 17  1  0  0  0  0
 16 33  1  0  0  0  0
 17 18  1  0  0  0  0
 17 34  1  0  0  0  0
 17 35  1  0  0  0  0
 18 19  1  0  0  0  0
 18 36  1  0  0  0  0
 18 37  1  0  0  0  0
 19 20  1  0  0  0  0
 19 38  1  0  0  0  0
 19 39  1  0  0  0  0
 20 21  1  0  0  0  0
 20 40  1  0  0  0  0
 20 41  1  0  0  0  0
 21 22  1  0  0  0  0
 21 42  1  0  0  0  0
 22 43  1  0  0  0  0
M  CHG  1  12  -1
M  END
> <s_m_source_file>
AV-unprocessed.smi

> <i_m_source_file_index>
763

> <i_lp_mmshare_version>
43012

> <i_f3d_flags>
0

> <s_epik_input>
W0NIM11PW0NIMl1bQ0gyXU9jMW5bY0hdW2NIXVtjSF1jMVtOSF1TKD1PKSg9TylbQ0BASF0yW0NIMl1bQ0gyXVtDSDJdW0NIMl1bQ0BIXTJbT0hd

> <s_epik_cmdline>
J2VwaWtfcHl0aG9uJywgJy1waCcsICc3LjAnLCAnLXRuJywgJzgnLCAnLW1hJywgJzIwMCcsICctbWV0YWxfYmluZGluZycsICctaW1hZScsICc8aW5maWxlLm1hZT4nLCAnLW9tYWUnLCAnPG91dGZpbGUubWFlPic=

> <r_epik_Ionization_Penalty>
0.985866

> <r_epik_Ionization_Penalty_Charging>
0.984689

> <r_epik_Ionization_Penalty_Neutral>
0.00117669

> <r_epik_State_Penalty>
1.03185

> <r_epik_Charging_Adjusted_Penalty>
2.01654

> <i_epik_Tot_Q>
-1

> <i_epik_Tot_abs_Q>
1

> <r_epik_Metal_State_Penalty>
0.379327

> <b_epik_Metal_Only>
0

> <s_lp_Force_Field>
OPLS_2005

> <r_lp_Energy>
9.05773

> <b_lp_Chiralities_Consistent>
1

> <s_lp_Variant>
AV-unprocessed.smi:763-6

> <Gold.Version>
5.8.1

> <Gold.Id.Protein>
6NUR|6NUR_protein|mol2

> <Gold.PLP.Fitness>
42.3906

> <Gold.PLP.PLP>
-34.8166

> <Gold.PLP.part.hbond>
-3.0000

> <Gold.PLP.part.metal>
0.0000

> <Gold.PLP.part.buried>
-5.3141

> <Gold.PLP.part.nonpolar>
-26.8100

> <Gold.PLP.part.repulsive>
0.1275

> <Gold.PLP.ligand.clash>
0.0000

> <Gold.PLP.ligand.torsion>
1.1963

> <Gold.PLP.Chemscore.Hbond>
2.9280

> <Gold.PLP.Chemscore.CHOScore>
0.0000

> <Gold.PLP.Chemscore.Metal>
0.0000

> <Gold.Chemscore.Hbonds>
donor molecule, donor type, donor heavy atom, donor atom, acceptor molecule, acceptor atom, score
      L1  H    22    43       P1  7957  0.93
      P1  H  7989  7998       L1    22  0.96
      P1  H  7997  8010       L1     2  1.00

> <Gold.PLP.Chemscore.Internal.Correction>
1.1827

> <Gold.Rescore>
     Score         DG    S(hbond)    S(metal)    S(lipo)     H(rot)  DE(clash)    DE(int)     intcor
     14.46     -17.02       1.98        0.00      93.39       2.35       0.01       2.55       ----

> <Gold.Chemscore.Fitness>
14.4574

> <Gold.Chemscore.DG>
-17.0165

> <Gold.Chemscore.ZeroCoef>
-5.4800

> <Gold.Chemscore.Hbond>
1.9844

> <Gold.Chemscore.Metal>
0.0000

> <Gold.Chemscore.Lipo>
93.3933

> <Gold.Chemscore.Internal_Hbond>
0.0000

> <Gold.Chemscore.DEClash>
0.0122

> <Gold.Chemscore.DEInternal>
2.5469

> <Gold.Chemscore.Rot>
2.3509

> <Gold.Chemscore.Internal.Correction>
   9.000000E+99

> <Gold.Chemscore.Hbonds>
donor molecule, donor type, donor heavy atom, donor atom, acceptor molecule, acceptor atom, score
      L1  H    22    43       P1  7957  0.88
      P1  H  7989  7998       L1    22  0.06
      P1  H  7997  8010       L1     2  0.45

> <Gold.Chemscore.Hbond.Weighted>
-6.6277

> <Gold.Chemscore.Metal.Weighted>
-0.0000

> <Gold.Chemscore.Lipo.Weighted>
-10.9270

> <Gold.Chemscore.Internal_Hbond.Weighted>
0.0000

> <Gold.Chemscore.DEClash.Weighted>
0.0122

> <Gold.Chemscore.DEInternal.Weighted>
2.5469

> <Gold.Chemscore.Rot.Weighted>
6.0182

> <Gold.Chemscore.Internal.Correction.Weighted>
   9.000000E+99

> <Gold.Protein.RotatedTorsions>
[ 6907 6896 6895 6894 ] final  -94.83 input  -60.11 | X-H torsion
[ 7974 7965 7964 7962 ] final -169.08 input  175.53 | X-H torsion
[ 8008 7997 7996 7995 ] final  -38.58 input   59.86 | X-H torsion
[ 10167 10162 10161 10158 ] final  -84.97 input  -65.29 | X-H torsion
[ 10718 10713 10712 10709 ] final  -90.87 input   66.30 | X-H torsion
[ 10763 10752 10751 10750 ] final   79.90 input  -60.55 | X-H torsion
[ 11005 11000 10999 10996 ] final  -61.73 input  -57.11 | X-H torsion

> <Gold.Protein.ActiveResidues>
 VAL166  LYS551  ARG553  GLY616  TRP617  ASP618  TYR619  PRO620  LYS621  CYS622 
 ASP623  PHE694  ASN695  SER759  ASP760  ASP761  ALA762  ILE779  LEU786  VAL792 
 PHE793  MET794  SER795  GLU796  ALA797  LYS798  CYS799  TRP800  GLU811  SER814 

> <Gold.Protein.RotatedAtoms>
  150.6950  134.1751  159.4226 H   0  0  0  0  0  0  0  0  0  0  0  0  # atno 6907 bound_to 6896
  151.9727  135.0066  160.0563 H   0  0  0  0  0  0  0  0  0  0  0  0  # atno 6908 bound_to 6896
  152.1826  133.4683  159.5003 H   0  0  0  0  0  0  0  0  0  0  0  0  # atno 6909 bound_to 6896
  144.7191  140.2274  143.6308 H   0  0  0  0  0  0  0  0  0  0  0  0  # atno 7974 bound_to 7965
  154.4035  140.1574  156.2723 H   0  0  0  0  0  0  0  0  0  0  0  0  # atno 8008 bound_to 7997
  155.8943  140.3437  155.5957 H   0  0  0  0  0  0  0  0  0  0  0  0  # atno 8009 bound_to 7997
  155.7522  140.0806  157.2186 H   0  0  0  0  0  0  0  0  0  0  0  0  # atno 8010 bound_to 7997
  140.4081  143.2634  151.9053 H   0  0  0  0  0  0  0  0  0  0  0  0  # atno 10167 bound_to 10162
  155.9990  130.4926  150.5388 H   0  0  0  0  0  0  0  0  0  0  0  0  # atno 10718 bound_to 10713
  153.0990  135.4822  154.8832 H   0  0  0  0  0  0  0  0  0  0  0  0  # atno 10763 bound_to 10752
  154.7357  135.3070  154.8817 H   0  0  0  0  0  0  0  0  0  0  0  0  # atno 10764 bound_to 10752
  153.9440  135.6831  153.4797 H   0  0  0  0  0  0  0  0  0  0  0  0  # atno 10765 bound_to 10752
  141.1335  133.6633  156.5420 H   0  0  0  0  0  0  0  0  0  0  0  0  # atno 11005 bound_to 11000
  145.8443  139.2145  143.1809 LP  0  0  0  0  0  0  0  0  0  0  0  0  # atno 17320 bound_to 7965
  146.0318  140.8251  142.9872 LP  0  0  0  0  0  0  0  0  0  0  0  0  # atno 17321 bound_to 7965
  139.4783  144.5565  151.8306 LP  0  0  0  0  0  0  0  0  0  0  0  0  # atno 17342 bound_to 10162
  140.4667  144.1645  150.5912 LP  0  0  0  0  0  0  0  0  0  0  0  0  # atno 17343 bound_to 10162
  157.3327  131.0702  151.1848 LP  0  0  0  0  0  0  0  0  0  0  0  0  # atno 17370 bound_to 10713
  157.2723  130.6710  149.6025 LP  0  0  0  0  0  0  0  0  0  0  0  0  # atno 17371 bound_to 10713
  140.4132  134.7253  157.4848 LP  0  0  0  0  0  0  0  0  0  0  0  0  # atno 17394 bound_to 11000
  140.0412  134.6264  155.8978 LP  0  0  0  0  0  0  0  0  0  0  0  0  # atno 17395 bound_to 11000

$$$$
