AV-unprocessed.smi:3017|AV-procd|sdf|11476|dock10
  -GOLD-   2272016413D 1   1.00000     0.00000
 Structure written by MMmdl.
 37 38  0  0  0  0  0  0  0  0  1 V2000
  151.3638  144.7294  158.8051 C   0  0  0  0  0  0  0  0  0  0  0  0
  152.3874  144.0789  159.7465 C   0  0  1  0  0  0  0  0  0  0  0  0
  151.8719  144.0365  161.1977 C   0  0  0  0  0  0  0  0  0  0  0  0
  152.8976  143.3864  162.1395 C   0  0  0  0  0  0  0  0  0  0  0  0
  153.2844  141.9798  161.6571 C   0  0  0  0  0  0  0  0  0  0  0  0
  153.8063  142.0090  160.2062 C   0  0  1  0  0  0  0  0  0  0  0  0
  154.0334  140.6873  159.7342 O   0  0  0  0  0  0  0  0  0  0  0  0
  152.8759  139.8598  159.7321 C   0  0  0  0  0  0  0  0  0  0  0  0
  152.6419  139.2883  158.3314 C   0  0  0  0  0  0  0  0  0  0  0  0
  153.5526  138.6675  157.7836 O   0  0  0  0  0  0  0  0  0  0  0  0
  151.4370  139.5199  157.7758 N   0  0  0  0  0  0  0  0  0  0  0  0
  150.9578  139.0911  156.5100 C   0  0  0  0  0  0  0  0  0  0  0  0
  150.1491  140.0187  155.8116 C   0  0  0  0  0  0  0  0  0  0  0  0
  149.6151  139.7531  154.5985 N   0  0  0  0  0  0  0  0  0  0  0  0
  149.8907  138.5419  154.0696 C   0  0  0  0  0  0  0  0  0  0  0  0
  150.6954  137.6059  154.7495 C   0  0  0  0  0  0  0  0  0  0  0  0
  151.2259  137.8781  155.9616 N   0  0  0  0  0  0  0  0  0  0  0  0
  152.7725  142.6635  159.2724 C   0  0  0  0  0  0  0  0  0  0  0  0
  150.4363  144.1568  158.7693 H   0  0  0  0  0  0  0  0  0  0  0  0
  151.7531  144.7967  157.7889 H   0  0  0  0  0  0  0  0  0  0  0  0
  151.1184  145.7406  159.1309 H   0  0  0  0  0  0  0  0  0  0  0  0
  153.2868  144.6961  159.7273 H   0  0  0  0  0  0  0  0  0  0  0  0
  151.6467  145.0457  161.5447 H   0  0  0  0  0  0  0  0  0  0  0  0
  150.9347  143.4794  161.2412 H   0  0  0  0  0  0  0  0  0  0  0  0
  153.7896  144.0118  162.1963 H   0  0  0  0  0  0  0  0  0  0  0  0
  152.4923  143.3339  163.1503 H   0  0  0  0  0  0  0  0  0  0  0  0
  154.0343  141.5633  162.3292 H   0  0  0  0  0  0  0  0  0  0  0  0
  152.4156  141.3234  161.7192 H   0  0  0  0  0  0  0  0  0  0  0  0
  154.7296  142.5895  160.1550 H   0  0  0  0  0  0  0  0  0  0  0  0
  153.0007  139.0346  160.4345 H   0  0  0  0  0  0  0  0  0  0  0  0
  151.9923  140.4229  160.0336 H   0  0  0  0  0  0  0  0  0  0  0  0
  150.7837  140.0480  158.3359 H   0  0  0  0  0  0  0  0  0  0  0  0
  149.9233  140.9884  156.2312 H   0  0  0  0  0  0  0  0  0  0  0  0
  149.4676  138.3177  153.1016 H   0  0  0  0  0  0  0  0  0  0  0  0
  150.9124  136.6382  154.3222 H   0  0  0  0  0  0  0  0  0  0  0  0
  151.8794  142.0387  159.2204 H   0  0  0  0  0  0  0  0  0  0  0  0
  153.1759  142.7089  158.2602 H   0  0  0  0  0  0  0  0  0  0  0  0
  1  2  1  0  0  0  0
  1 19  1  0  0  0  0
  1 20  1  0  0  0  0
  1 21  1  0  0  0  0
  2 18  1  0  0  0  0
  2  3  1  0  0  0  0
  2 22  1  0  0  0  0
  3  4  1  0  0  0  0
  3 23  1  0  0  0  0
  3 24  1  0  0  0  0
  4  5  1  0  0  0  0
  4 25  1  0  0  0  0
  4 26  1  0  0  0  0
  5  6  1  0  0  0  0
  5 27  1  0  0  0  0
  5 28  1  0  0  0  0
  6  7  1  0  0  0  0
  6 18  1  0  0  0  0
  6 29  1  0  0  0  0
  7  8  1  0  0  0  0
  8  9  1  0  0  0  0
  8 30  1  0  0  0  0
  8 31  1  0  0  0  0
  9 10  2  0  0  0  0
  9 11  1  0  0  0  0
 11 12  1  0  0  0  0
 11 32  1  0  0  0  0
 12 17  1  0  0  0  0
 12 13  2  0  0  0  0
 13 14  1  0  0  0  0
 13 33  1  0  0  0  0
 14 15  2  0  0  0  0
 15 16  1  0  0  0  0
 15 34  1  0  0  0  0
 16 17  2  0  0  0  0
 16 35  1  0  0  0  0
 18 36  1  0  0  0  0
 18 37  1  0  0  0  0
M  END
> <s_m_source_file>
AV-unprocessed.smi

> <i_m_source_file_index>
3017

> <i_lp_mmshare_version>
43012

> <i_f3d_flags>
0

> <s_epik_input>
W0NIM11bQ0BASF0xW0NIMl1bQ0gyXVtDSDJdW0NASF0oW0NIMl0xKU9bQ0gyXUMoPU8pW05IXWMyW2NIXW5bY0hdW2NIXW4y

> <s_epik_cmdline>
J2VwaWtfcHl0aG9uJywgJy1waCcsICc3LjAnLCAnLXRuJywgJzgnLCAnLW1hJywgJzIwMCcsICctbWV0YWxfYmluZGluZycsICctaW1hZScsICc8aW5maWxlLm1hZT4nLCAnLW9tYWUnLCAnPG91dGZpbGUubWFlPic=

> <r_lp_tautomer_probability>
1

> <r_epik_Ionization_Penalty>
2.89243e-06

> <r_epik_Ionization_Penalty_Charging>
0

> <r_epik_Ionization_Penalty_Neutral>
2.89243e-06

> <r_epik_State_Penalty>
-0

> <r_epik_Charging_Adjusted_Penalty>
0

> <i_epik_Tot_Q>
0

> <i_epik_Tot_abs_Q>
0

> <r_epik_Metal_State_Penalty>
-0

> <b_epik_Metal_Only>
0

> <s_lp_Force_Field>
OPLS_2005

> <r_lp_Energy>
20.2083

> <b_lp_Chiralities_Consistent>
1

> <s_lp_Variant>
AV-unprocessed.smi:3017-2

> <Gold.Version>
5.8.1

> <Gold.Id.Protein>
6NUR|6NUR_protein|mol2

> <Gold.PLP.Fitness>
52.3037

> <Gold.PLP.PLP>
-41.9048

> <Gold.PLP.part.hbond>
-2.0000

> <Gold.PLP.part.metal>
0.0000

> <Gold.PLP.part.buried>
-5.0794

> <Gold.PLP.part.nonpolar>
-35.6012

> <Gold.PLP.part.repulsive>
0.2004

> <Gold.PLP.ligand.clash>
0.0000

> <Gold.PLP.ligand.torsion>
0.6764

> <Gold.PLP.Chemscore.Hbond>
1.6500

> <Gold.PLP.Chemscore.CHOScore>
2.2633

> <Gold.PLP.Chemscore.Metal>
0.0000

> <Gold.Chemscore.Hbonds>
donor molecule, donor type, donor heavy atom, donor atom, acceptor molecule, acceptor atom, score
      P1  H  7997  8010       L1    10  1.00
      L1  C    15    34       P1  7948  1.00
      L1  C    15    34       P1  7957  0.72
      L1  C    16    35       P1  7949  0.04

> <Gold.PLP.Chemscore.Internal.Correction>
0.0118

> <Gold.Rescore>
     Score         DG    S(hbond)    S(metal)    S(lipo)     H(rot)  DE(clash)    DE(int)     intcor
     16.89     -18.32       0.98        0.00     114.75       1.51       0.01       1.42       ----

> <Gold.Chemscore.Fitness>
16.8928

> <Gold.Chemscore.DG>
-18.3157

> <Gold.Chemscore.ZeroCoef>
-5.4800

> <Gold.Chemscore.Hbond>
0.9823

> <Gold.Chemscore.Metal>
0.0000

> <Gold.Chemscore.Lipo>
114.7468

> <Gold.Chemscore.Internal_Hbond>
0.0000

> <Gold.Chemscore.DEClash>
0.0076

> <Gold.Chemscore.DEInternal>
1.4153

> <Gold.Chemscore.Rot>
1.5119

> <Gold.Chemscore.Internal.Correction>
   9.000000E+99

> <Gold.Chemscore.Hbonds>
donor molecule, donor type, donor heavy atom, donor atom, acceptor molecule, acceptor atom, score
      P1  H  7997  8010       L1    10  0.50

> <Gold.Chemscore.Hbond.Weighted>
-3.2809

> <Gold.Chemscore.Metal.Weighted>
-0.0000

> <Gold.Chemscore.Lipo.Weighted>
-13.4254

> <Gold.Chemscore.Internal_Hbond.Weighted>
0.0000

> <Gold.Chemscore.DEClash.Weighted>
0.0076

> <Gold.Chemscore.DEInternal.Weighted>
1.4153

> <Gold.Chemscore.Rot.Weighted>
3.8706

> <Gold.Chemscore.Internal.Correction.Weighted>
   9.000000E+99

> <Gold.Protein.RotatedTorsions>
[ 6907 6896 6895 6894 ] final  -90.23 input  -60.11 | X-H torsion
[ 7974 7965 7964 7962 ] final    7.14 input  175.53 | X-H torsion
[ 8008 7997 7996 7995 ] final   27.25 input   59.86 | X-H torsion
[ 10167 10162 10161 10158 ] final  148.86 input  -65.29 | X-H torsion
[ 10718 10713 10712 10709 ] final  -23.20 input   66.30 | X-H torsion
[ 10763 10752 10751 10750 ] final  -68.63 input  -60.55 | X-H torsion
[ 11005 11000 10999 10996 ] final -105.87 input  -57.11 | X-H torsion

> <Gold.Protein.ActiveResidues>
 VAL166  LYS551  ARG553  GLY616  TRP617  ASP618  TYR619  PRO620  LYS621  CYS622 
 ASP623  PHE694  ASN695  SER759  ASP760  ASP761  ALA762  ILE779  LEU786  VAL792 
 PHE793  MET794  SER795  GLU796  ALA797  LYS798  CYS799  TRP800  GLU811  SER814 

> <Gold.Protein.RotatedAtoms>
  150.6880  134.2465  159.4493 H   0  0  0  0  0  0  0  0  0  0  0  0  # atno 6907 bound_to 6896
  152.0405  134.9711  160.0583 H   0  0  0  0  0  0  0  0  0  0  0  0  # atno 6908 bound_to 6896
  152.1215  133.4321  159.4714 H   0  0  0  0  0  0  0  0  0  0  0  0  # atno 6909 bound_to 6896
  146.2429  140.0129  142.8405 H   0  0  0  0  0  0  0  0  0  0  0  0  # atno 7974 bound_to 7965
  155.0400  140.3168  155.4728 H   0  0  0  0  0  0  0  0  0  0  0  0  # atno 8008 bound_to 7997
  156.2857  140.2165  156.5466 H   0  0  0  0  0  0  0  0  0  0  0  0  # atno 8009 bound_to 7997
  154.7298  140.0482  157.0704 H   0  0  0  0  0  0  0  0  0  0  0  0  # atno 8010 bound_to 7997
  139.4869  144.5646  151.7168 H   0  0  0  0  0  0  0  0  0  0  0  0  # atno 10167 bound_to 10162
  156.4942  130.4573  149.6738 H   0  0  0  0  0  0  0  0  0  0  0  0  # atno 10718 bound_to 10713
  154.3918  135.6051  153.5847 H   0  0  0  0  0  0  0  0  0  0  0  0  # atno 10763 bound_to 10752
  152.9787  135.5885  154.4289 H   0  0  0  0  0  0  0  0  0  0  0  0  # atno 10764 bound_to 10752
  154.4074  135.2843  155.2036 H   0  0  0  0  0  0  0  0  0  0  0  0  # atno 10765 bound_to 10752
  141.1033  133.8844  157.1786 H   0  0  0  0  0  0  0  0  0  0  0  0  # atno 11005 bound_to 11000
  145.1312  140.9518  143.4543 LP  0  0  0  0  0  0  0  0  0  0  0  0  # atno 17320 bound_to 7965
  145.0386  139.3279  143.5988 LP  0  0  0  0  0  0  0  0  0  0  0  0  # atno 17321 bound_to 7965
  140.5222  144.0861  150.6026 LP  0  0  0  0  0  0  0  0  0  0  0  0  # atno 17342 bound_to 10162
  140.3823  143.2796  152.0156 LP  0  0  0  0  0  0  0  0  0  0  0  0  # atno 17343 bound_to 10162
  156.3396  130.7375  151.2318 LP  0  0  0  0  0  0  0  0  0  0  0  0  # atno 17370 bound_to 10713
  157.7470  131.0407  150.4611 LP  0  0  0  0  0  0  0  0  0  0  0  0  # atno 17371 bound_to 10713
  139.9892  135.0071  156.9935 LP  0  0  0  0  0  0  0  0  0  0  0  0  # atno 17394 bound_to 11000
  140.4968  134.1138  155.7243 LP  0  0  0  0  0  0  0  0  0  0  0  0  # atno 17395 bound_to 11000

$$$$
