AV-unprocessed.smi:1295|AV-procd|sdf|5412|dock5
  -GOLD-   22720 4573D 1   1.00000     0.00000
 Structure written by MMmdl.
 42 43  0  0  0  0  0  0  0  0  2 V2000
  151.2495  133.3631  156.6466 C   0  0  0  0  0  0  0  0  0  0  0  0
  150.9550  134.8475  156.6671 C   0  0  0  0  0  0  0  0  0  0  0  0
  151.2826  135.5641  155.6604 N   0  0  0  0  0  0  0  0  0  0  0  0
  151.0151  136.9436  155.6775 C   0  0  0  0  0  0  0  0  0  0  0  0
  151.4371  137.7166  154.4397 C   0  0  0  0  0  0  0  0  0  0  0  0
  150.4137  137.5327  156.7507 C   0  0  0  0  0  0  0  0  0  0  0  0
  150.1033  139.0276  156.8164 C   0  0  0  0  0  0  0  0  0  0  0  0
  151.2588  139.9243  157.2659 C   0  0  0  0  0  0  0  0  0  0  0  0
  152.3626  139.8315  156.7291 O   0  0  0  0  0  0  0  0  0  0  0  0
  150.9842  140.7914  158.2530 N   0  0  0  0  0  0  0  0  0  0  0  0
  151.9084  141.7745  158.8158 C   0  0  1  0  0  0  0  0  0  0  0  0
  151.1430  143.0938  159.0377 C   0  0  0  0  0  0  0  0  0  0  0  0
  152.0276  144.1640  159.6930 C   0  0  0  0  0  0  0  0  0  0  0  0
  152.6255  143.6511  161.0096 C   0  0  0  0  0  0  0  0  0  0  0  0
  153.4086  142.3492  160.7864 C   0  0  0  0  0  0  0  0  0  0  0  0
  152.5369  141.2560  160.1354 C   0  0  2  0  0  0  0  0  0  0  0  0
  153.3538  139.9660  159.9400 C   0  0  0  0  0  0  0  0  0  0  0  0
  150.0538  136.6715  157.8914 C   0  0  0  0  0  0  0  0  0  0  0  0
  149.5187  137.1527  158.8895 O   0  0  0  0  0  0  0  0  0  0  0  0
  150.3378  135.3414  157.7941 N   0  5  0  0  0  0  0  0  0  0  0  0
  151.9031  133.1035  155.8128 H   0  0  0  0  0  0  0  0  0  0  0  0
  150.3229  132.7978  156.5464 H   0  0  0  0  0  0  0  0  0  0  0  0
  151.7420  133.0599  157.5713 H   0  0  0  0  0  0  0  0  0  0  0  0
  150.5698  138.1621  153.9524 H   0  0  0  0  0  0  0  0  0  0  0  0
  151.9294  137.0652  153.7165 H   0  0  0  0  0  0  0  0  0  0  0  0
  152.1360  138.5111  154.7021 H   0  0  0  0  0  0  0  0  0  0  0  0
  149.7704  139.3479  155.8287 H   0  0  0  0  0  0  0  0  0  0  0  0
  149.2513  139.2208  157.4686 H   0  0  0  0  0  0  0  0  0  0  0  0
  150.0483  140.7856  158.6313 H   0  0  0  0  0  0  0  0  0  0  0  0
  152.7155  141.9774  158.1092 H   0  0  0  0  0  0  0  0  0  0  0  0
  150.7626  143.4675  158.0860 H   0  0  0  0  0  0  0  0  0  0  0  0
  150.2709  142.9142  159.6684 H   0  0  0  0  0  0  0  0  0  0  0  0
  152.8304  144.4449  159.0100 H   0  0  0  0  0  0  0  0  0  0  0  0
  151.4449  145.0672  159.8757 H   0  0  0  0  0  0  0  0  0  0  0  0
  153.2797  144.4093  161.4410 H   0  0  0  0  0  0  0  0  0  0  0  0
  151.8283  143.4808  161.7344 H   0  0  0  0  0  0  0  0  0  0  0  0
  154.2750  142.5522  160.1553 H   0  0  0  0  0  0  0  0  0  0  0  0
  153.8001  141.9947  161.7405 H   0  0  0  0  0  0  0  0  0  0  0  0
  151.7261  141.0268  160.8289 H   0  0  0  0  0  0  0  0  0  0  0  0
  154.1563  140.1130  159.2165 H   0  0  0  0  0  0  0  0  0  0  0  0
  152.7320  139.1443  159.5845 H   0  0  0  0  0  0  0  0  0  0  0  0
  153.8067  139.6429  160.8776 H   0  0  0  0  0  0  0  0  0  0  0  0
  1  2  1  0  0  0  0
  1 21  1  0  0  0  0
  1 22  1  0  0  0  0
  1 23  1  0  0  0  0
  2 20  1  0  0  0  0
  2  3  2  0  0  0  0
  3  4  1  0  0  0  0
  4  5  1  0  0  0  0
  4  6  2  0  0  0  0
  5 24  1  0  0  0  0
  5 25  1  0  0  0  0
  5 26  1  0  0  0  0
  6  7  1  0  0  0  0
  6 18  1  0  0  0  0
  7  8  1  0  0  0  0
  7 27  1  0  0  0  0
  7 28  1  0  0  0  0
  8  9  2  0  0  0  0
  8 10  1  0  0  0  0
 10 11  1  0  0  0  0
 10 29  1  0  0  0  0
 11 16  1  0  0  0  0
 11 12  1  0  0  0  0
 11 30  1  0  0  0  0
 12 13  1  0  0  0  0
 12 31  1  0  0  0  0
 12 32  1  0  0  0  0
 13 14  1  0  0  0  0
 13 33  1  0  0  0  0
 13 34  1  0  0  0  0
 14 15  1  0  0  0  0
 14 35  1  0  0  0  0
 14 36  1  0  0  0  0
 15 16  1  0  0  0  0
 15 37  1  0  0  0  0
 15 38  1  0  0  0  0
 16 17  1  0  0  0  0
 16 39  1  0  0  0  0
 17 40  1  0  0  0  0
 17 41  1  0  0  0  0
 17 42  1  0  0  0  0
 18 19  2  0  0  0  0
 18 20  1  0  0  0  0
M  CHG  1  20  -1
M  END
> <s_m_source_file>
AV-unprocessed.smi

> <i_m_source_file_index>
1295

> <i_lp_mmshare_version>
43012

> <i_f3d_flags>
0

> <s_epik_input>
W0NIM11jMW5jKFtDSDNdKWMoYyg9TylbbkhdMSlbQ0gyXUMoPU8pW05IXVtDQEBIXTJbQ0gyXVtDSDJdW0NIMl1bQ0gyXVtDQEhdMltDSDNd

> <s_epik_cmdline>
J2VwaWtfcHl0aG9uJywgJy1waCcsICc3LjAnLCAnLXRuJywgJzgnLCAnLW1hJywgJzIwMCcsICctbWV0YWxfYmluZGluZycsICctaW1hZScsICc8aW5maWxlLm1hZT4nLCAnLW9tYWUnLCAnPG91dGZpbGUubWFlPic=

> <r_lp_tautomer_probability>
0.839158

> <r_epik_Ionization_Penalty>
6.67742

> <r_epik_Ionization_Penalty_Charging>
7.78154e-08

> <r_epik_Ionization_Penalty_Neutral>
6.67742

> <r_epik_State_Penalty>
4.51991

> <r_epik_Charging_Adjusted_Penalty>
4.51991

> <i_epik_Tot_Q>
-1

> <i_epik_Tot_abs_Q>
1

> <r_epik_Metal_State_Penalty>
0.853272

> <b_epik_Metal_Only>
1

> <s_lp_Force_Field>
OPLS_2005

> <r_lp_Energy>
15.3241

> <b_lp_Chiralities_Consistent>
1

> <s_lp_Variant>
AV-unprocessed.smi:1295-12

> <Gold.Version>
5.8.1

> <Gold.Id.Protein>
6NUR|6NUR_protein|mol2

> <Gold.PLP.Fitness>
41.6303

> <Gold.PLP.PLP>
-33.2050

> <Gold.PLP.part.hbond>
-3.0000

> <Gold.PLP.part.metal>
0.0000

> <Gold.PLP.part.buried>
-5.9068

> <Gold.PLP.part.nonpolar>
-25.6765

> <Gold.PLP.part.repulsive>
0.1993

> <Gold.PLP.ligand.clash>
0.0000

> <Gold.PLP.ligand.torsion>
0.6930

> <Gold.PLP.Chemscore.Hbond>
3.2688

> <Gold.PLP.Chemscore.CHOScore>
0.0000

> <Gold.PLP.Chemscore.Metal>
0.0000

> <Gold.Chemscore.Hbonds>
donor molecule, donor type, donor heavy atom, donor atom, acceptor molecule, acceptor atom, score
      P1  H  6896  6909       L1    20  1.31
      P1  H  7997  8008       L1     9  0.96
      P1  H 10752 10764       L1     3  1.00

> <Gold.PLP.Chemscore.Internal.Correction>
0.0050

> <Gold.Rescore>
     Score         DG    S(hbond)    S(metal)    S(lipo)     H(rot)  DE(clash)    DE(int)     intcor
     18.94     -19.67       2.06        0.00      94.08       1.45       0.00       0.73       ----

> <Gold.Chemscore.Fitness>
18.9381

> <Gold.Chemscore.DG>
-19.6670

> <Gold.Chemscore.ZeroCoef>
-5.4800

> <Gold.Chemscore.Hbond>
2.0596

> <Gold.Chemscore.Metal>
0.0000

> <Gold.Chemscore.Lipo>
94.0772

> <Gold.Chemscore.Internal_Hbond>
0.0000

> <Gold.Chemscore.DEClash>
0.0000

> <Gold.Chemscore.DEInternal>
0.7289

> <Gold.Chemscore.Rot>
1.4450

> <Gold.Chemscore.Internal.Correction>
   9.000000E+99

> <Gold.Chemscore.Hbonds>
donor molecule, donor type, donor heavy atom, donor atom, acceptor molecule, acceptor atom, score
      P1  H  6896  6909       L1    20  0.54
      P1  H  7997  8008       L1     9  0.90
      P1  H 10752 10764       L1     3  0.39

> <Gold.Chemscore.Hbond.Weighted>
-6.8792

> <Gold.Chemscore.Metal.Weighted>
-0.0000

> <Gold.Chemscore.Lipo.Weighted>
-11.0070

> <Gold.Chemscore.Internal_Hbond.Weighted>
0.0000

> <Gold.Chemscore.DEClash.Weighted>
0.0000

> <Gold.Chemscore.DEInternal.Weighted>
0.7289

> <Gold.Chemscore.Rot.Weighted>
3.6992

> <Gold.Chemscore.Internal.Correction.Weighted>
   9.000000E+99

> <Gold.Protein.RotatedTorsions>
[ 6907 6896 6895 6894 ] final   45.06 input  -60.11 | X-H torsion
[ 7974 7965 7964 7962 ] final  -51.23 input  175.53 | X-H torsion
[ 8008 7997 7996 7995 ] final  -64.41 input   59.86 | X-H torsion
[ 10167 10162 10161 10158 ] final -170.03 input  -65.29 | X-H torsion
[ 10718 10713 10712 10709 ] final   25.07 input   66.30 | X-H torsion
[ 10763 10752 10751 10750 ] final  -39.85 input  -60.55 | X-H torsion
[ 11005 11000 10999 10996 ] final -102.47 input  -57.11 | X-H torsion

> <Gold.Protein.ActiveResidues>
 VAL166  LYS551  ARG553  GLY616  TRP617  ASP618  TYR619  PRO620  LYS621  CYS622 
 ASP623  PHE694  ASN695  SER759  ASP760  ASP761  ALA762  ILE779  LEU786  VAL792 
 PHE793  MET794  SER795  GLU796  ALA797  LYS798  CYS799  TRP800  GLU811  SER814 

> <Gold.Protein.RotatedAtoms>
  152.2400  134.8238  160.0461 H   0  0  0  0  0  0  0  0  0  0  0  0  # atno 6907 bound_to 6896
  151.8956  133.3521  159.3821 H   0  0  0  0  0  0  0  0  0  0  0  0  # atno 6908 bound_to 6896
  150.7051  134.4806  159.5513 H   0  0  0  0  0  0  0  0  0  0  0  0  # atno 6909 bound_to 6896
  145.9212  140.7832  142.9646 H   0  0  0  0  0  0  0  0  0  0  0  0  # atno 7974 bound_to 7965
  154.4610  140.0954  156.6893 H   0  0  0  0  0  0  0  0  0  0  0  0  # atno 8008 bound_to 7997
  155.4994  140.3473  155.4350 H   0  0  0  0  0  0  0  0  0  0  0  0  # atno 8009 bound_to 7997
  156.0871  140.1387  156.9629 H   0  0  0  0  0  0  0  0  0  0  0  0  # atno 8010 bound_to 7997
  139.5886  144.1262  152.1607 H   0  0  0  0  0  0  0  0  0  0  0  0  # atno 10167 bound_to 10162
  157.1884  130.6835  149.6140 H   0  0  0  0  0  0  0  0  0  0  0  0  # atno 10718 bound_to 10713
  153.9362  135.6766  153.4745 H   0  0  0  0  0  0  0  0  0  0  0  0  # atno 10763 bound_to 10752
  153.0954  135.4854  154.8766 H   0  0  0  0  0  0  0  0  0  0  0  0  # atno 10764 bound_to 10752
  154.7402  135.3159  154.8700 H   0  0  0  0  0  0  0  0  0  0  0  0  # atno 10765 bound_to 10752
  141.1188  133.8561  157.1363 H   0  0  0  0  0  0  0  0  0  0  0  0  # atno 11005 bound_to 11000
  144.6753  140.1979  143.7390 LP  0  0  0  0  0  0  0  0  0  0  0  0  # atno 17320 bound_to 7965
  145.8547  139.2193  143.1751 LP  0  0  0  0  0  0  0  0  0  0  0  0  # atno 17321 bound_to 7965
  140.0831  144.5683  150.7108 LP  0  0  0  0  0  0  0  0  0  0  0  0  # atno 17342 bound_to 10162
  140.7154  143.2540  151.4452 LP  0  0  0  0  0  0  0  0  0  0  0  0  # atno 17343 bound_to 10162
  155.9715  130.4623  150.6140 LP  0  0  0  0  0  0  0  0  0  0  0  0  # atno 17370 bound_to 10713
  157.3884  131.0792  151.1415 LP  0  0  0  0  0  0  0  0  0  0  0  0  # atno 17371 bound_to 10713
  140.0129  134.9980  157.0433 LP  0  0  0  0  0  0  0  0  0  0  0  0  # atno 17394 bound_to 11000
  140.4569  134.1524  155.7187 LP  0  0  0  0  0  0  0  0  0  0  0  0  # atno 17395 bound_to 11000

$$$$
