AV-unprocessed.smi:509|AV-procd|sdf|2761|dock10
  -GOLD-   2262023223D 1   1.00000     0.00000
 Structure written by MMmdl.
 45 47  0  0  0  0  0  0  0  0  1 V2000
  154.1150  136.3577  158.8328 C   0  0  0  0  0  0  0  0  0  0  0  0
  152.7113  136.5150  158.7346 O   0  0  0  0  0  0  0  0  0  0  0  0
  152.2941  137.8523  158.9558 C   0  0  0  0  0  0  0  0  0  0  0  0
  152.7216  138.7249  157.7676 C   0  0  0  0  0  0  0  0  0  0  0  0
  152.1183  140.0557  157.8241 N   0  0  0  0  0  0  0  0  0  0  0  0
  151.3684  140.6973  156.8851 C   0  0  0  0  0  0  0  0  0  0  0  0
  151.0172  140.1068  155.6707 N   0  0  0  0  0  0  0  0  0  0  0  0
  149.9215  140.4945  154.7849 C   0  0  0  0  0  0  0  0  0  0  0  0
  149.1073  139.2619  154.3446 C   0  0  0  0  0  0  0  0  0  0  0  0
  149.9726  138.3490  153.6057 N   0  0  0  0  0  0  0  0  0  0  0  0
  151.0719  137.9421  154.4747 C   0  0  0  0  0  0  0  0  0  0  0  0
  151.8687  139.1821  154.9280 C   0  0  0  0  0  0  0  0  0  0  0  0
  151.0365  141.9506  157.2039 N   0  0  0  0  0  0  0  0  0  0  0  0
  151.5954  142.1141  158.4612 C   0  0  0  0  0  0  0  0  0  0  0  0
  152.2508  140.9958  158.8502 C   0  0  0  0  0  0  0  0  0  0  0  0
  152.9673  140.9022  160.1295 C   0  0  0  0  0  0  0  0  0  0  0  0
  153.5835  139.8840  160.4460 O   0  0  0  0  0  0  0  0  0  0  0  0
  152.8793  142.0304  160.9022 N   0  0  0  0  0  0  0  0  0  0  0  0
  153.5487  142.0333  162.2165 C   0  0  0  0  0  0  0  0  0  0  0  0
  152.2086  143.1882  160.5491 C   0  0  0  0  0  0  0  0  0  0  0  0
  152.1678  144.1598  161.3096 O   0  0  0  0  0  0  0  0  0  0  0  0
  151.5855  143.2366  159.3281 N   0  0  0  0  0  0  0  0  0  0  0  0
  150.8761  144.4502  158.9128 C   0  0  0  0  0  0  0  0  0  0  0  0
  154.3787  135.3150  158.6565 H   0  0  0  0  0  0  0  0  0  0  0  0
  154.4740  136.6335  159.8252 H   0  0  0  0  0  0  0  0  0  0  0  0
  154.6324  136.9663  158.0902 H   0  0  0  0  0  0  0  0  0  0  0  0
  151.2100  137.8906  159.0700 H   0  0  0  0  0  0  0  0  0  0  0  0
  152.7331  138.2326  159.8794 H   0  0  0  0  0  0  0  0  0  0  0  0
  153.8038  138.7964  157.7488 H   0  0  0  0  0  0  0  0  0  0  0  0
  152.4555  138.2488  156.8252 H   0  0  0  0  0  0  0  0  0  0  0  0
  149.2803  141.2288  155.2707 H   0  0  0  0  0  0  0  0  0  0  0  0
  150.3333  141.0004  153.9104 H   0  0  0  0  0  0  0  0  0  0  0  0
  148.6733  138.7508  155.2052 H   0  0  0  0  0  0  0  0  0  0  0  0
  148.2825  139.5661  153.7002 H   0  0  0  0  0  0  0  0  0  0  0  0
  149.4455  137.5354  153.3223 H   0  0  0  0  0  0  0  0  0  0  0  0
  150.6830  137.3961  155.3351 H   0  0  0  0  0  0  0  0  0  0  0  0
  151.7206  137.2584  153.9272 H   0  0  0  0  0  0  0  0  0  0  0  0
  152.3074  139.6938  154.0702 H   0  0  0  0  0  0  0  0  0  0  0  0
  152.6986  138.8668  155.5613 H   0  0  0  0  0  0  0  0  0  0  0  0
  152.8249  142.2178  163.0119 H   0  0  0  0  0  0  0  0  0  0  0  0
  154.3009  142.8226  162.2579 H   0  0  0  0  0  0  0  0  0  0  0  0
  154.0587  141.1048  162.4750 H   0  0  0  0  0  0  0  0  0  0  0  0
  149.9772  144.5862  159.5149 H   0  0  0  0  0  0  0  0  0  0  0  0
  150.5713  144.4211  157.8670 H   0  0  0  0  0  0  0  0  0  0  0  0
  151.5052  145.3330  159.0348 H   0  0  0  0  0  0  0  0  0  0  0  0
  1  2  1  0  0  0  0
  1 24  1  0  0  0  0
  1 25  1  0  0  0  0
  1 26  1  0  0  0  0
  2  3  1  0  0  0  0
  3  4  1  0  0  0  0
  3 27  1  0  0  0  0
  3 28  1  0  0  0  0
  4  5  1  0  0  0  0
  4 29  1  0  0  0  0
  4 30  1  0  0  0  0
  5 15  1  0  0  0  0
  5  6  1  0  0  0  0
  6  7  1  0  0  0  0
  6 13  2  0  0  0  0
  7 12  1  0  0  0  0
  7  8  1  0  0  0  0
  8  9  1  0  0  0  0
  8 31  1  0  0  0  0
  8 32  1  0  0  0  0
  9 10  1  0  0  0  0
  9 33  1  0  0  0  0
  9 34  1  0  0  0  0
 10 11  1  0  0  0  0
 10 35  1  0  0  0  0
 11 12  1  0  0  0  0
 11 36  1  0  0  0  0
 11 37  1  0  0  0  0
 12 38  1  0  0  0  0
 12 39  1  0  0  0  0
 13 14  1  0  0  0  0
 14 22  1  0  0  0  0
 14 15  2  0  0  0  0
 15 16  1  0  0  0  0
 16 17  2  0  0  0  0
 16 18  1  0  0  0  0
 18 19  1  0  0  0  0
 18 20  1  0  0  0  0
 19 40  1  0  0  0  0
 19 41  1  0  0  0  0
 19 42  1  0  0  0  0
 20 21  2  0  0  0  0
 20 22  1  0  0  0  0
 22 23  1  0  0  0  0
 23 43  1  0  0  0  0
 23 44  1  0  0  0  0
 23 45  1  0  0  0  0
M  END
> <s_m_source_file>
AV-unprocessed.smi

> <i_m_source_file_index>
509

> <i_lp_mmshare_version>
43012

> <i_f3d_flags>
0

> <s_epik_input>
W0NIM11uMWMoPU8pbihbQ0gzXSljKD1PKWMoYzEyKW4oW0NIMl1bQ0gyXU9bQ0gzXSljKG4yKU4zW0NIMl1bQ0gyXVtOSF1bQ0gyXVtDSDJdMw==

> <s_epik_cmdline>
J2VwaWtfcHl0aG9uJywgJy1waCcsICc3LjAnLCAnLXRuJywgJzgnLCAnLW1hJywgJzIwMCcsICctbWV0YWxfYmluZGluZycsICctaW1hZScsICc8aW5maWxlLm1hZT4nLCAnLW9tYWUnLCAnPG91dGZpbGUubWFlPic=

> <r_epik_Ionization_Penalty>
2.51424

> <r_epik_Ionization_Penalty_Charging>
1.27827e-08

> <r_epik_Ionization_Penalty_Neutral>
2.51424

> <r_epik_State_Penalty>
2.67993

> <r_epik_Charging_Adjusted_Penalty>
2.67993

> <i_epik_Tot_Q>
0

> <i_epik_Tot_abs_Q>
0

> <r_epik_Metal_State_Penalty>
2.67967

> <b_epik_Metal_Only>
0

> <s_lp_Force_Field>
OPLS_2005

> <r_lp_Energy>
54.3442

> <b_lp_Chiralities_Consistent>
1

> <s_lp_Variant>
AV-unprocessed.smi:509-2

> <Gold.Version>
5.8.1

> <Gold.Id.Protein>
6NUR|6NUR_protein|mol2

> <Gold.PLP.Fitness>
51.6999

> <Gold.PLP.PLP>
-48.2091

> <Gold.PLP.part.hbond>
-2.9322

> <Gold.PLP.part.metal>
0.0000

> <Gold.PLP.part.buried>
-4.8550

> <Gold.PLP.part.nonpolar>
-40.8174

> <Gold.PLP.part.repulsive>
0.2066

> <Gold.PLP.ligand.clash>
0.0000

> <Gold.PLP.ligand.torsion>
0.4235

> <Gold.PLP.Chemscore.Hbond>
1.3353

> <Gold.PLP.Chemscore.CHOScore>
0.0000

> <Gold.PLP.Chemscore.Metal>
0.0000

> <Gold.Chemscore.Hbonds>
donor molecule, donor type, donor heavy atom, donor atom, acceptor molecule, acceptor atom, score
      L1  H    10    35       P1  7948  0.94
      P1  H  6896  6907       L1     2  0.31

> <Gold.PLP.Chemscore.Internal.Correction>
0.3319

> <Gold.Rescore>
     Score         DG    S(hbond)    S(metal)    S(lipo)     H(rot)  DE(clash)    DE(int)     intcor
     10.70     -12.27       0.76        0.00      69.10       1.49       0.01       1.57       ----

> <Gold.Chemscore.Fitness>
10.6956

> <Gold.Chemscore.DG>
-12.2745

> <Gold.Chemscore.ZeroCoef>
-5.4800

> <Gold.Chemscore.Hbond>
0.7568

> <Gold.Chemscore.Metal>
0.0000

> <Gold.Chemscore.Lipo>
69.1034

> <Gold.Chemscore.Internal_Hbond>
0.0000

> <Gold.Chemscore.DEClash>
0.0095

> <Gold.Chemscore.DEInternal>
1.5694

> <Gold.Chemscore.Rot>
1.4915

> <Gold.Chemscore.Internal.Correction>
   9.000000E+99

> <Gold.Chemscore.Hbonds>
donor molecule, donor type, donor heavy atom, donor atom, acceptor molecule, acceptor atom, score
      L1  H    10    35       P1  7948  0.82
      P1  H  6896  6907       L1     2  0.03

> <Gold.Chemscore.Hbond.Weighted>
-2.5277

> <Gold.Chemscore.Metal.Weighted>
-0.0000

> <Gold.Chemscore.Lipo.Weighted>
-8.0851

> <Gold.Chemscore.Internal_Hbond.Weighted>
0.0000

> <Gold.Chemscore.DEClash.Weighted>
0.0095

> <Gold.Chemscore.DEInternal.Weighted>
1.5694

> <Gold.Chemscore.Rot.Weighted>
3.8183

> <Gold.Chemscore.Internal.Correction.Weighted>
   9.000000E+99

> <Gold.Protein.RotatedTorsions>
[ 6907 6896 6895 6894 ] final   47.21 input  -60.11 | X-H torsion
[ 7974 7965 7964 7962 ] final  172.35 input  175.53 | X-H torsion
[ 8008 7997 7996 7995 ] final  148.12 input   59.86 | X-H torsion
[ 10167 10162 10161 10158 ] final  -52.07 input  -65.29 | X-H torsion
[ 10718 10713 10712 10709 ] final   39.75 input   66.30 | X-H torsion
[ 10763 10752 10751 10750 ] final  -18.04 input  -60.55 | X-H torsion
[ 11005 11000 10999 10996 ] final  135.56 input  -57.11 | X-H torsion

> <Gold.Protein.ActiveResidues>
 VAL166  LYS551  ARG553  GLY616  TRP617  ASP618  TYR619  PRO620  LYS621  CYS622 
 ASP623  PHE694  ASN695  SER759  ASP760  ASP761  ALA762  ILE779  LEU786  VAL792 
 PHE793  MET794  SER795  GLU796  ALA797  LYS798  CYS799  TRP800  GLU811  SER814 

> <Gold.Protein.RotatedAtoms>
  152.2654  134.7990  160.0423 H   0  0  0  0  0  0  0  0  0  0  0  0  # atno 6907 bound_to 6896
  151.8622  133.3454  159.3715 H   0  0  0  0  0  0  0  0  0  0  0  0  # atno 6908 bound_to 6896
  150.7132  134.5123  159.5657 H   0  0  0  0  0  0  0  0  0  0  0  0  # atno 6909 bound_to 6896
  144.7270  139.9486  143.6431 H   0  0  0  0  0  0  0  0  0  0  0  0  # atno 7974 bound_to 7965
  156.2802  140.2137  156.5647 H   0  0  0  0  0  0  0  0  0  0  0  0  # atno 8008 bound_to 7997
  154.7184  140.0505  157.0639 H   0  0  0  0  0  0  0  0  0  0  0  0  # atno 8009 bound_to 7997
  155.0511  140.3156  155.4695 H   0  0  0  0  0  0  0  0  0  0  0  0  # atno 8010 bound_to 7997
  140.6556  143.2597  151.4595 H   0  0  0  0  0  0  0  0  0  0  0  0  # atno 10167 bound_to 10162
  157.3742  130.7718  149.7142 H   0  0  0  0  0  0  0  0  0  0  0  0  # atno 10718 bound_to 10713
  153.5831  135.7004  153.5455 H   0  0  0  0  0  0  0  0  0  0  0  0  # atno 10763 bound_to 10752
  153.3243  135.4065  155.1443 H   0  0  0  0  0  0  0  0  0  0  0  0  # atno 10764 bound_to 10752
  154.8614  135.3703  154.5360 H   0  0  0  0  0  0  0  0  0  0  0  0  # atno 10765 bound_to 10752
  139.9988  134.9487  157.0025 H   0  0  0  0  0  0  0  0  0  0  0  0  # atno 11005 bound_to 11000
  146.0729  139.3717  143.0512 LP  0  0  0  0  0  0  0  0  0  0  0  0  # atno 17320 bound_to 7965
  145.7944  140.9800  143.1032 LP  0  0  0  0  0  0  0  0  0  0  0  0  # atno 17321 bound_to 7965
  139.5778  144.1778  152.1927 LP  0  0  0  0  0  0  0  0  0  0  0  0  # atno 17342 bound_to 10162
  140.1094  144.5470  150.6935 LP  0  0  0  0  0  0  0  0  0  0  0  0  # atno 17343 bound_to 10162
  155.9762  130.4079  150.3798 LP  0  0  0  0  0  0  0  0  0  0  0  0  # atno 17370 bound_to 10713
  157.1893  131.0411  151.2708 LP  0  0  0  0  0  0  0  0  0  0  0  0  # atno 17371 bound_to 10713
  140.4767  134.1331  155.7211 LP  0  0  0  0  0  0  0  0  0  0  0  0  # atno 17394 bound_to 11000
  141.1625  133.8765  157.1807 LP  0  0  0  0  0  0  0  0  0  0  0  0  # atno 17395 bound_to 11000

$$$$
