AV-unprocessed.smi:494|AV-procd|sdf|2713|dock8
  -GOLD-   2262023163D 1   1.00000     0.00000
 Structure written by MMmdl.
 49 50  0  0  0  0  0  0  0  0  2 V2000
  150.3320  135.1876  156.8853 C   0  0  0  0  0  0  0  0  0  0  0  0
  150.3450  133.7245  156.5470 C   0  0  0  0  0  0  0  0  0  0  0  0
  150.7247  132.8509  157.4641 N   0  0  0  0  0  0  0  0  0  0  0  0
  150.6319  131.5941  156.8588 O   0  0  0  0  0  0  0  0  0  0  0  0
  150.1919  131.7619  155.5862 C   0  0  0  0  0  0  0  0  0  0  0  0
  150.0304  130.5274  154.7644 C   0  0  0  0  0  0  0  0  0  0  0  0
  149.9910  133.0891  155.3216 C   0  0  0  0  0  0  0  0  0  0  0  0
  149.5131  133.7325  154.0446 C   0  0  0  0  0  0  0  0  0  0  0  0
  147.9846  133.7589  154.0125 C   0  0  0  0  0  0  0  0  0  0  0  0
  147.3426  132.8062  154.4519 O   0  0  0  0  0  0  0  0  0  0  0  0
  147.4168  134.8516  153.4786 N   0  0  0  0  0  0  0  0  0  0  0  0
  145.9826  135.1146  153.3681 C   0  0  0  0  0  0  0  0  0  0  0  0
  145.5197  135.4271  151.9084 C   0  0  0  0  0  0  0  0  0  0  0  0
  146.1651  136.7247  151.4773 N   0  3  0  0  0  0  0  0  0  0  0  0
  146.0274  137.8773  152.4040 C   0  0  0  0  0  0  0  0  0  0  0  0
  145.8674  137.1526  150.0849 C   0  0  0  0  0  0  0  0  0  0  0  0
  145.9314  134.2612  150.9584 C   0  0  0  0  0  0  0  0  0  0  0  0
  145.1994  132.9332  151.2380 C   0  0  0  0  0  0  0  0  0  0  0  0
  143.6747  133.1051  151.2289 C   0  0  0  0  0  0  0  0  0  0  0  0
  143.2335  134.2121  152.1951 C   0  0  0  0  0  0  0  0  0  0  0  0
  143.9576  135.5323  151.8765 C   0  0  0  0  0  0  0  0  0  0  0  0
  149.4238  135.4541  157.4260 H   0  0  0  0  0  0  0  0  0  0  0  0
  150.3761  135.8032  155.9870 H   0  0  0  0  0  0  0  0  0  0  0  0
  151.1842  135.4588  157.5091 H   0  0  0  0  0  0  0  0  0  0  0  0
  150.8576  130.4208  154.0628 H   0  0  0  0  0  0  0  0  0  0  0  0
  149.1032  130.5614  154.1921 H   0  0  0  0  0  0  0  0  0  0  0  0
  150.0038  129.6373  155.3934 H   0  0  0  0  0  0  0  0  0  0  0  0
  149.8843  134.7535  153.9482 H   0  0  0  0  0  0  0  0  0  0  0  0
  149.8814  133.1951  153.1699 H   0  0  0  0  0  0  0  0  0  0  0  0
  148.0332  135.5806  153.1494 H   0  0  0  0  0  0  0  0  0  0  0  0
  145.4150  134.2908  153.8004 H   0  0  0  0  0  0  0  0  0  0  0  0
  145.7773  135.9499  154.0341 H   0  0  0  0  0  0  0  0  0  0  0  0
  144.9801  138.0955  152.6160 H   0  0  0  0  0  0  0  0  0  0  0  0
  146.4718  138.7749  151.9729 H   0  0  0  0  0  0  0  0  0  0  0  0
  146.5520  137.7037  153.3433 H   0  0  0  0  0  0  0  0  0  0  0  0
  144.8527  137.5424  149.9966 H   0  0  0  0  0  0  0  0  0  0  0  0
  145.9872  136.3488  149.3610 H   0  0  0  0  0  0  0  0  0  0  0  0
  146.5504  137.9476  149.7844 H   0  0  0  0  0  0  0  0  0  0  0  0
  145.7354  134.5466  149.9241 H   0  0  0  0  0  0  0  0  0  0  0  0
  147.0030  134.0708  151.0209 H   0  0  0  0  0  0  0  0  0  0  0  0
  145.4859  132.1950  150.4884 H   0  0  0  0  0  0  0  0  0  0  0  0
  145.5172  132.5201  152.1952 H   0  0  0  0  0  0  0  0  0  0  0  0
  143.3431  133.3499  150.2190 H   0  0  0  0  0  0  0  0  0  0  0  0
  143.1906  132.1641  151.4924 H   0  0  0  0  0  0  0  0  0  0  0  0
  142.1562  134.3581  152.1102 H   0  0  0  0  0  0  0  0  0  0  0  0
  143.4101  133.9079  153.2264 H   0  0  0  0  0  0  0  0  0  0  0  0
  143.6048  136.3159  152.5478 H   0  0  0  0  0  0  0  0  0  0  0  0
  143.6137  135.8137  150.8816 H   0  0  0  0  0  0  0  0  0  0  0  0
  147.1544  136.5204  151.4771 H   0  0  0  0  0  0  0  0  0  0  0  0
  1  2  1  0  0  0  0
  1 22  1  0  0  0  0
  1 23  1  0  0  0  0
  1 24  1  0  0  0  0
  2  7  1  0  0  0  0
  2  3  2  0  0  0  0
  3  4  1  0  0  0  0
  4  5  1  0  0  0  0
  5  6  1  0  0  0  0
  5  7  2  0  0  0  0
  6 25  1  0  0  0  0
  6 26  1  0  0  0  0
  6 27  1  0  0  0  0
  7  8  1  0  0  0  0
  8  9  1  0  0  0  0
  8 28  1  0  0  0  0
  8 29  1  0  0  0  0
  9 10  2  0  0  0  0
  9 11  1  0  0  0  0
 11 12  1  0  0  0  0
 11 30  1  0  0  0  0
 12 13  1  0  0  0  0
 12 31  1  0  0  0  0
 12 32  1  0  0  0  0
 13 21  1  0  0  0  0
 13 14  1  0  0  0  0
 13 17  1  0  0  0  0
 14 15  1  0  0  0  0
 14 16  1  0  0  0  0
 14 49  1  0  0  0  0
 15 33  1  0  0  0  0
 15 34  1  0  0  0  0
 15 35  1  0  0  0  0
 16 36  1  0  0  0  0
 16 37  1  0  0  0  0
 16 38  1  0  0  0  0
 17 18  1  0  0  0  0
 17 39  1  0  0  0  0
 17 40  1  0  0  0  0
 18 19  1  0  0  0  0
 18 41  1  0  0  0  0
 18 42  1  0  0  0  0
 19 20  1  0  0  0  0
 19 43  1  0  0  0  0
 19 44  1  0  0  0  0
 20 21  1  0  0  0  0
 20 45  1  0  0  0  0
 20 46  1  0  0  0  0
 21 47  1  0  0  0  0
 21 48  1  0  0  0  0
M  CHG  1  14   1
M  END
> <s_m_source_file>
AV-unprocessed.smi

> <i_m_source_file_index>
494

> <i_lp_mmshare_version>
43012

> <i_f3d_flags>
0

> <s_epik_input>
W0NIM11jMW5vYyhbQ0gzXSljMVtDSDJdQyg9TylbTkhdW0NIMl1DMihOKFtDSDNdKVtDSDNdKVtDSDJdW0NIMl1bQ0gyXVtDSDJdW0NIMl0y

> <s_epik_cmdline>
J2VwaWtfcHl0aG9uJywgJy1waCcsICc3LjAnLCAnLXRuJywgJzgnLCAnLW1hJywgJzIwMCcsICctbWV0YWxfYmluZGluZycsICctaW1hZScsICc8aW5maWxlLm1hZT4nLCAnLW9tYWUnLCAnPG91dGZpbGUubWFlPic=

> <r_epik_Ionization_Penalty>
0.00230711

> <r_epik_Ionization_Penalty_Charging>
0.00230702

> <r_epik_Ionization_Penalty_Neutral>
8.72116e-08

> <r_epik_State_Penalty>
0.00159123

> <r_epik_Charging_Adjusted_Penalty>
0.00389825

> <i_epik_Tot_Q>
1

> <i_epik_Tot_abs_Q>
1

> <r_epik_Metal_State_Penalty>
-0

> <b_epik_Metal_Only>
0

> <s_lp_Force_Field>
OPLS_2005

> <r_lp_Energy>
28.1912

> <b_lp_Chiralities_Consistent>
1

> <s_lp_Variant>
AV-unprocessed.smi:494-1

> <Gold.Version>
5.8.1

> <Gold.Id.Protein>
6NUR|6NUR_protein|mol2

> <Gold.PLP.Fitness>
44.1600

> <Gold.PLP.PLP>
-33.6632

> <Gold.PLP.part.hbond>
-3.0000

> <Gold.PLP.part.metal>
0.0000

> <Gold.PLP.part.buried>
-0.6972

> <Gold.PLP.part.nonpolar>
-31.2905

> <Gold.PLP.part.repulsive>
0.1114

> <Gold.PLP.ligand.clash>
0.0000

> <Gold.PLP.ligand.torsion>
0.7785

> <Gold.PLP.Chemscore.Hbond>
3.9760

> <Gold.PLP.Chemscore.CHOScore>
0.0000

> <Gold.PLP.Chemscore.Metal>
0.0000

> <Gold.Chemscore.Hbonds>
donor molecule, donor type, donor heavy atom, donor atom, acceptor molecule, acceptor atom, score
      L1  H    11    30       P1  7948  0.94
      L1  H    14    49       P1  7948  2.00
      P1  H  6896  6907       L1     3  0.93

> <Gold.PLP.Chemscore.Internal.Correction>
0.1258

> <Gold.Rescore>
     Score         DG    S(hbond)    S(metal)    S(lipo)     H(rot)  DE(clash)    DE(int)     intcor
     18.16     -20.44       2.84        0.00      83.42       1.68       1.59       0.69       ----

> <Gold.Chemscore.Fitness>
18.1563

> <Gold.Chemscore.DG>
-20.4359

> <Gold.Chemscore.ZeroCoef>
-5.4800

> <Gold.Chemscore.Hbond>
2.8397

> <Gold.Chemscore.Metal>
0.0000

> <Gold.Chemscore.Lipo>
83.4165

> <Gold.Chemscore.Internal_Hbond>
0.0000

> <Gold.Chemscore.DEClash>
1.5892

> <Gold.Chemscore.DEInternal>
0.6904

> <Gold.Chemscore.Rot>
1.6752

> <Gold.Chemscore.Internal.Correction>
   9.000000E+99

> <Gold.Chemscore.Hbonds>
donor molecule, donor type, donor heavy atom, donor atom, acceptor molecule, acceptor atom, score
      L1  H    11    30       P1  7948  0.91
      L1  H    14    49       P1  7948  1.00
      P1  H  6896  6907       L1     3  0.88

> <Gold.Chemscore.Hbond.Weighted>
-9.4846

> <Gold.Chemscore.Metal.Weighted>
-0.0000

> <Gold.Chemscore.Lipo.Weighted>
-9.7597

> <Gold.Chemscore.Internal_Hbond.Weighted>
0.0000

> <Gold.Chemscore.DEClash.Weighted>
1.5892

> <Gold.Chemscore.DEInternal.Weighted>
0.6904

> <Gold.Chemscore.Rot.Weighted>
4.2884

> <Gold.Chemscore.Internal.Correction.Weighted>
   9.000000E+99

> <Gold.Protein.RotatedTorsions>
[ 6907 6896 6895 6894 ] final -166.41 input  -60.11 | X-H torsion
[ 7974 7965 7964 7962 ] final  -14.89 input  175.53 | X-H torsion
[ 8008 7997 7996 7995 ] final  -41.21 input   59.86 | X-H torsion
[ 10167 10162 10161 10158 ] final   -7.71 input  -65.29 | X-H torsion
[ 10718 10713 10712 10709 ] final -116.44 input   66.30 | X-H torsion
[ 10763 10752 10751 10750 ] final   75.89 input  -60.55 | X-H torsion
[ 11005 11000 10999 10996 ] final  138.07 input  -57.11 | X-H torsion

> <Gold.Protein.ActiveResidues>
 VAL166  LYS551  ARG553  GLY616  TRP617  ASP618  TYR619  PRO620  LYS621  CYS622 
 ASP623  PHE694  ASN695  SER759  ASP760  ASP761  ALA762  ILE779  LEU786  VAL792 
 PHE793  MET794  SER795  GLU796  ALA797  LYS798  CYS799  TRP800  GLU811  SER814 

> <Gold.Protein.RotatedAtoms>
  151.4432  133.3637  159.2784 H   0  0  0  0  0  0  0  0  0  0  0  0  # atno 6907 bound_to 6896
  150.9143  134.8562  159.7457 H   0  0  0  0  0  0  0  0  0  0  0  0  # atno 6908 bound_to 6896
  152.4949  134.4364  159.9581 H   0  0  0  0  0  0  0  0  0  0  0  0  # atno 6909 bound_to 6896
  146.2055  140.3414  142.8408 H   0  0  0  0  0  0  0  0  0  0  0  0  # atno 7974 bound_to 7965
  154.4006  140.1505  156.3154 H   0  0  0  0  0  0  0  0  0  0  0  0  # atno 8008 bound_to 7997
  155.8577  140.3455  155.5714 H   0  0  0  0  0  0  0  0  0  0  0  0  # atno 8009 bound_to 7997
  155.7914  140.0857  157.1997 H   0  0  0  0  0  0  0  0  0  0  0  0  # atno 8010 bound_to 7997
  140.7037  143.6050  150.8760 H   0  0  0  0  0  0  0  0  0  0  0  0  # atno 10167 bound_to 10162
  156.0964  130.6135  150.9036 H   0  0  0  0  0  0  0  0  0  0  0  0  # atno 10718 bound_to 10713
  153.0686  135.4972  154.8256 H   0  0  0  0  0  0  0  0  0  0  0  0  # atno 10763 bound_to 10752
  154.6990  135.2998  154.9371 H   0  0  0  0  0  0  0  0  0  0  0  0  # atno 10764 bound_to 10752
  154.0101  135.6755  153.4817 H   0  0  0  0  0  0  0  0  0  0  0  0  # atno 10765 bound_to 10752
  140.0158  134.9419  157.0373 H   0  0  0  0  0  0  0  0  0  0  0  0  # atno 11005 bound_to 11000
  144.8783  140.7366  143.6003 LP  0  0  0  0  0  0  0  0  0  0  0  0  # atno 17320 bound_to 7965
  145.3334  139.1753  143.4525 LP  0  0  0  0  0  0  0  0  0  0  0  0  # atno 17321 bound_to 7965
  139.9773  143.5990  152.2954 LP  0  0  0  0  0  0  0  0  0  0  0  0  # atno 17342 bound_to 10162
  139.6598  144.7662  151.1985 LP  0  0  0  0  0  0  0  0  0  0  0  0  # atno 17343 bound_to 10162
  157.6125  131.0935  150.8769 LP  0  0  0  0  0  0  0  0  0  0  0  0  # atno 17370 bound_to 10713
  156.8906  130.5211  149.5286 LP  0  0  0  0  0  0  0  0  0  0  0  0  # atno 17371 bound_to 10713
  140.4473  134.1618  155.7178 LP  0  0  0  0  0  0  0  0  0  0  0  0  # atno 17394 bound_to 11000
  141.1742  133.8548  157.1475 LP  0  0  0  0  0  0  0  0  0  0  0  0  # atno 17395 bound_to 11000

$$$$
