AV-unprocessed.smi:157|AV-procd|sdf|1321|dock3
  -GOLD-   2262019 13D 1   1.00000     0.00000
 Structure written by MMmdl.
 36 38  0  0  0  0  0  0  0  0  2 V2000
  150.4182  135.8218  157.8847 O   0  0  0  0  0  0  0  0  0  0  0  0
  150.7145  135.8864  156.5062 C   0  0  0  0  0  0  0  0  0  0  0  0
  150.5866  137.3339  156.0007 C   0  0  1  0  0  0  0  0  0  0  0  0
  151.6313  138.1524  156.5172 O   0  0  0  0  0  0  0  0  0  0  0  0
  151.8940  139.2109  155.6421 C   0  0  2  0  0  0  0  0  0  0  0  0
  151.5331  140.4959  156.3167 N   0  0  0  0  0  0  0  0  0  0  0  0
  150.6315  141.4071  155.8924 C   0  0  0  0  0  0  0  0  0  0  0  0
  150.5142  142.4639  156.6784 N   0  3  0  0  0  0  0  0  0  0  0  0
  151.3989  142.2774  157.7194 C   0  0  0  0  0  0  0  0  0  0  0  0
  152.0162  141.0469  157.4809 C   0  0  0  0  0  0  0  0  0  0  0  0
  152.9981  140.3742  158.2241 N   0  0  0  0  0  0  0  0  0  0  0  0
  153.2830  140.6774  159.4487 C   0  0  0  0  0  0  0  0  0  0  0  0
  152.7966  141.7143  160.2272 N   0  0  0  0  0  0  0  0  0  0  0  0
  152.6998  143.0832  159.7521 C   0  0  0  0  0  0  0  0  0  0  0  0
  151.5318  143.3198  158.7853 C   0  0  2  0  0  0  0  0  0  0  0  0
  150.3474  143.4783  159.5384 O   0  0  0  0  0  0  0  0  0  0  0  0
  151.0251  139.0138  154.3944 C   0  0  0  0  0  0  0  0  0  0  0  0
  150.6561  137.5469  154.4825 C   0  0  1  0  0  0  0  0  0  0  0  0
  151.6479  136.7436  153.8716 O   0  0  0  0  0  0  0  0  0  0  0  0
  149.6491  137.7568  156.3664 H   0  0  0  0  0  0  0  0  0  0  0  0
  152.9627  139.2775  155.4355 H   0  0  0  0  0  0  0  0  0  0  0  0
  151.7027  144.2768  158.2910 H   0  0  0  0  0  0  0  0  0  0  0  0
  149.7000  137.3408  154.0003 H   0  0  0  0  0  0  0  0  0  0  0  0
  150.2081  136.6921  158.1881 H   0  0  0  0  0  0  0  0  0  0  0  0
  151.7343  135.5307  156.3586 H   0  0  0  0  0  0  0  0  0  0  0  0
  150.0609  135.2093  155.9560 H   0  0  0  0  0  0  0  0  0  0  0  0
  150.0601  141.2828  154.9901 H   0  0  0  0  0  0  0  0  0  0  0  0
  154.0080  140.0666  159.9886 H   0  0  0  0  0  0  0  0  0  0  0  0
  152.9490  141.6798  161.2252 H   0  0  0  0  0  0  0  0  0  0  0  0
  152.6427  143.7642  160.6020 H   0  0  0  0  0  0  0  0  0  0  0  0
  153.6347  143.3166  159.2401 H   0  0  0  0  0  0  0  0  0  0  0  0
  150.5586  143.4084  160.4566 H   0  0  0  0  0  0  0  0  0  0  0  0
  150.1255  139.6272  154.4686 H   0  0  0  0  0  0  0  0  0  0  0  0
  151.5628  139.2897  153.4865 H   0  0  0  0  0  0  0  0  0  0  0  0
  151.4887  136.7283  152.9400 H   0  0  0  0  0  0  0  0  0  0  0  0
  149.9000  143.2551  156.5342 H   0  0  0  0  0  0  0  0  0  0  0  0
  1  2  1  0  0  0  0
  1 24  1  0  0  0  0
  2  3  1  0  0  0  0
  2 25  1  0  0  0  0
  2 26  1  0  0  0  0
  3 20  1  0  0  0  0
  3 18  1  0  0  0  0
  3  4  1  0  0  0  0
  4  5  1  0  0  0  0
  5 21  1  0  0  0  0
  5  6  1  0  0  0  0
  5 17  1  0  0  0  0
  6 10  1  0  0  0  0
  6  7  1  0  0  0  0
  7  8  2  0  0  0  0
  7 27  1  0  0  0  0
  8  9  1  0  0  0  0
  8 36  1  0  0  0  0
  9 15  1  0  0  0  0
  9 10  2  0  0  0  0
 10 11  1  0  0  0  0
 11 12  2  0  0  0  0
 12 13  1  0  0  0  0
 12 28  1  0  0  0  0
 13 14  1  0  0  0  0
 13 29  1  0  0  0  0
 14 15  1  0  0  0  0
 14 30  1  0  0  0  0
 14 31  1  0  0  0  0
 15 22  1  0  0  0  0
 15 16  1  0  0  0  0
 16 32  1  0  0  0  0
 17 18  1  0  0  0  0
 17 33  1  0  0  0  0
 17 34  1  0  0  0  0
 18 23  1  0  0  0  0
 18 19  1  0  0  0  0
 19 35  1  0  0  0  0
M  CHG  1   8   1
M  END
> <s_m_source_file>
AV-unprocessed.smi

> <i_m_source_file_index>
157

> <i_lp_mmshare_version>
43012

> <i_f3d_flags>
0

> <s_epik_input>
W09IXVtDSDJdW0NASF0xT1tDQEhdKFtDSDJdW0NAQEhdMVtPSF0pbihbY0hdbjIpYyhjMjMpTj1bQ0hdW05IXVtDSDJdW0NASF0zW09IXQ==

> <s_epik_cmdline>
J2VwaWtfcHl0aG9uJywgJy1waCcsICc3LjAnLCAnLXRuJywgJzgnLCAnLW1hJywgJzIwMCcsICctbWV0YWxfYmluZGluZycsICctaW1hZScsICc8aW5maWxlLm1hZT4nLCAnLW9tYWUnLCAnPG91dGZpbGUubWFlPic=

> <r_epik_Ionization_Penalty>
1.68594

> <r_epik_Ionization_Penalty_Charging>
0

> <r_epik_Ionization_Penalty_Neutral>
1.68594

> <r_epik_State_Penalty>
1.79006

> <r_epik_Charging_Adjusted_Penalty>
1.79006

> <i_epik_Tot_Q>
1

> <i_epik_Tot_abs_Q>
1

> <r_epik_Metal_State_Penalty>
5.85324

> <b_epik_Metal_Only>
0

> <s_epik_Chemistry_Notes>
This compound has an imine and may undergo hydrolysis. This compound contains an acetal/aminal-like group ( X-CH(R)-Y where X, Y are N, S, or O) that may be acid/base labile, releasing an aldehyde.

> <s_lp_Force_Field>
OPLS_2005

> <r_lp_Energy>
54.2112

> <b_lp_Chiralities_Consistent>
1

> <s_lp_Variant>
AV-unprocessed.smi:157-31

> <Gold.Version>
5.8.1

> <Gold.Id.Protein>
6NUR|6NUR_protein|mol2

> <Gold.PLP.Fitness>
51.2044

> <Gold.PLP.PLP>
-34.5367

> <Gold.PLP.part.hbond>
-5.5315

> <Gold.PLP.part.metal>
0.0000

> <Gold.PLP.part.buried>
-4.4447

> <Gold.PLP.part.nonpolar>
-23.3863

> <Gold.PLP.part.repulsive>
0.1497

> <Gold.PLP.ligand.clash>
0.0000

> <Gold.PLP.ligand.torsion>
0.0572

> <Gold.PLP.Chemscore.Hbond>
5.5923

> <Gold.PLP.Chemscore.CHOScore>
0.0000

> <Gold.PLP.Chemscore.Metal>
0.0000

> <Gold.Chemscore.Hbonds>
donor molecule, donor type, donor heavy atom, donor atom, acceptor molecule, acceptor atom, score
      L1  H     8    36       P1  8028  2.00
      L1  H    19    35       P1  7949  1.00
      P1  H  6896  6909       L1     1  0.63
      P1  H  7997  8010       L1    11  0.88
      P1  H 10752 10764       L1    19  1.00

> <Gold.PLP.Chemscore.Internal.Correction>
0.0052

> <Gold.Rescore>
     Score         DG    S(hbond)    S(metal)    S(lipo)     H(rot)  DE(clash)    DE(int)     intcor
     13.88     -14.20       3.49        0.00      55.15       3.67       0.32       0.01       ----

> <Gold.Chemscore.Fitness>
13.8771

> <Gold.Chemscore.DG>
-14.2043

> <Gold.Chemscore.ZeroCoef>
-5.4800

> <Gold.Chemscore.Hbond>
3.4900

> <Gold.Chemscore.Metal>
0.0000

> <Gold.Chemscore.Lipo>
55.1495

> <Gold.Chemscore.Internal_Hbond>
0.0000

> <Gold.Chemscore.DEClash>
0.3196

> <Gold.Chemscore.DEInternal>
0.0076

> <Gold.Chemscore.Rot>
3.6659

> <Gold.Chemscore.Internal.Correction>
   9.000000E+99

> <Gold.Chemscore.Hbonds>
donor molecule, donor type, donor heavy atom, donor atom, acceptor molecule, acceptor atom, score
      L1  H     8    36       P1  8028  0.97
      L1  H    19    35       P1  7949  0.90
      P1  H  6896  6909       L1     1  0.27
      P1  H  7997  8010       L1    11  0.47
      P1  H 10752 10764       L1    19  0.55

> <Gold.Chemscore.Hbond.Weighted>
-11.6566

> <Gold.Chemscore.Metal.Weighted>
-0.0000

> <Gold.Chemscore.Lipo.Weighted>
-6.4525

> <Gold.Chemscore.Internal_Hbond.Weighted>
0.0000

> <Gold.Chemscore.DEClash.Weighted>
0.3196

> <Gold.Chemscore.DEInternal.Weighted>
0.0076

> <Gold.Chemscore.Rot.Weighted>
9.3848

> <Gold.Chemscore.Internal.Correction.Weighted>
   9.000000E+99

> <Gold.Protein.RotatedTorsions>
[ 6907 6896 6895 6894 ] final   62.33 input  -60.11 | X-H torsion
[ 7974 7965 7964 7962 ] final   28.20 input  175.53 | X-H torsion
[ 8008 7997 7996 7995 ] final   38.21 input   59.86 | X-H torsion
[ 10167 10162 10161 10158 ] final  -51.00 input  -65.29 | X-H torsion
[ 10718 10713 10712 10709 ] final  168.26 input   66.30 | X-H torsion
[ 10763 10752 10751 10750 ] final  -85.53 input  -60.55 | X-H torsion
[ 11005 11000 10999 10996 ] final  129.14 input  -57.11 | X-H torsion

> <Gold.Protein.ActiveResidues>
 VAL166  LYS551  ARG553  GLY616  TRP617  ASP618  TYR619  PRO620  LYS621  CYS622 
 ASP623  PHE694  ASN695  SER759  ASP760  ASP761  ALA762  ILE779  LEU786  VAL792 
 PHE793  MET794  SER795  GLU796  ALA797  LYS798  CYS799  TRP800  GLU811  SER814 

> <Gold.Protein.RotatedAtoms>
  152.4163  134.6035  160.0006 H   0  0  0  0  0  0  0  0  0  0  0  0  # atno 6907 bound_to 6896
  151.6198  133.3334  159.3093 H   0  0  0  0  0  0  0  0  0  0  0  0  # atno 6908 bound_to 6896
  150.8052  134.7211  159.6703 H   0  0  0  0  0  0  0  0  0  0  0  0  # atno 6909 bound_to 6896
  146.1742  139.7088  142.8946 H   0  0  0  0  0  0  0  0  0  0  0  0  # atno 7974 bound_to 7965
  155.2164  140.3327  155.4321 H   0  0  0  0  0  0  0  0  0  0  0  0  # atno 8008 bound_to 7997
  156.2350  140.1868  156.7190 H   0  0  0  0  0  0  0  0  0  0  0  0  # atno 8009 bound_to 7997
  154.6044  140.0618  156.9397 H   0  0  0  0  0  0  0  0  0  0  0  0  # atno 8010 bound_to 7997
  140.6610  143.2636  151.4441 H   0  0  0  0  0  0  0  0  0  0  0  0  # atno 10167 bound_to 10162
  157.0396  131.0283  151.2717 H   0  0  0  0  0  0  0  0  0  0  0  0  # atno 10718 bound_to 10713
  154.6121  135.5481  153.7485 H   0  0  0  0  0  0  0  0  0  0  0  0  # atno 10763 bound_to 10752
  153.0200  135.6392  154.1563 H   0  0  0  0  0  0  0  0  0  0  0  0  # atno 10764 bound_to 10752
  154.1500  135.2903  155.3118 H   0  0  0  0  0  0  0  0  0  0  0  0  # atno 10765 bound_to 10752
  139.9599  134.9604  156.9105 H   0  0  0  0  0  0  0  0  0  0  0  0  # atno 11005 bound_to 11000
  145.4258  141.0411  143.2938 LP  0  0  0  0  0  0  0  0  0  0  0  0  # atno 17320 bound_to 7965
  144.8210  139.5792  143.6987 LP  0  0  0  0  0  0  0  0  0  0  0  0  # atno 17321 bound_to 7965
  139.5844  144.1638  152.2009 LP  0  0  0  0  0  0  0  0  0  0  0  0  # atno 17342 bound_to 10162
  140.0973  144.5570  150.7013 LP  0  0  0  0  0  0  0  0  0  0  0  0  # atno 17343 bound_to 10162
  157.5114  130.7941  149.7709 LP  0  0  0  0  0  0  0  0  0  0  0  0  # atno 17370 bound_to 10713
  156.0042  130.3864  150.2491 LP  0  0  0  0  0  0  0  0  0  0  0  0  # atno 17371 bound_to 10713
  140.5524  134.0614  155.7373 LP  0  0  0  0  0  0  0  0  0  0  0  0  # atno 17394 bound_to 11000
  141.1275  133.9358  157.2605 LP  0  0  0  0  0  0  0  0  0  0  0  0  # atno 17395 bound_to 11000

$$$$
