AV-unprocessed.smi:1428|AV-procd|sdf|5817|dock4
  -GOLD-   22720 5473D 1   1.00000     0.00000
 Structure written by MMmdl.
 43 44  0  0  0  0  0  0  0  0  3 V2000
  151.4687  144.7921  159.0216 C   0  0  0  0  0  0  0  0  0  0  0  0
  151.3845  143.4238  158.6383 O   0  0  0  0  0  0  0  0  0  0  0  0
  152.2045  142.5098  159.2725 C   0  0  0  0  0  0  0  0  0  0  0  0
  152.9047  142.9173  160.3608 N   0  0  0  0  0  0  0  0  0  0  0  0
  153.7034  142.0257  160.9821 C   0  0  0  0  0  0  0  0  0  0  0  0
  153.8418  140.6908  160.5601 C   0  0  0  0  0  0  0  0  0  0  0  0
  153.1166  140.2653  159.4320 C   0  0  0  0  0  0  0  0  0  0  0  0
  152.2847  141.1938  158.7599 C   0  0  0  0  0  0  0  0  0  0  0  0
  151.4957  140.8676  157.6222 N   0  0  0  0  0  0  0  0  0  0  0  0
  151.8084  140.0724  156.5854 C   0  0  0  0  0  0  0  0  0  0  0  0
  152.8675  139.4607  156.4494 O   0  0  0  0  0  0  0  0  0  0  0  0
  150.8157  140.0402  155.6847 N   0  0  0  0  0  0  0  0  0  0  0  0
  150.8317  139.2818  154.4343 C   0  0  2  0  0  0  0  0  0  0  0  0
  149.4230  139.1541  153.8207 C   0  0  0  0  0  0  0  0  0  0  0  0
  148.5180  138.2218  154.6450 C   0  0  0  0  0  0  0  0  0  0  0  0
  149.1370  136.8824  154.8086 N   0  3  2  0  0  0  0  0  0  0  0  0
  148.2241  135.9174  155.4711 C   0  0  0  0  0  0  0  0  0  0  0  0
  148.6235  134.4793  155.1216 C   0  0  0  0  0  0  0  0  0  0  0  0
  148.4854  134.2112  153.8092 N   0  5  0  0  0  0  0  0  0  0  0  0
  149.0047  133.7206  156.0110 O   0  0  0  0  0  0  0  0  0  0  0  0
  150.4709  136.9715  155.4616 C   0  0  0  0  0  0  0  0  0  0  0  0
  151.4238  137.8800  154.6628 C   0  0  0  0  0  0  0  0  0  0  0  0
  150.7662  145.3773  158.4284 H   0  0  0  0  0  0  0  0  0  0  0  0
  152.4667  145.1951  158.8437 H   0  0  0  0  0  0  0  0  0  0  0  0
  151.2088  144.9292  160.0723 H   0  0  0  0  0  0  0  0  0  0  0  0
  154.2436  142.3856  161.8453 H   0  0  0  0  0  0  0  0  0  0  0  0
  154.4860  140.0071  161.0930 H   0  0  0  0  0  0  0  0  0  0  0  0
  153.2020  139.2372  159.1165 H   0  0  0  0  0  0  0  0  0  0  0  0
  150.6181  141.3621  157.5541 H   0  0  0  0  0  0  0  0  0  0  0  0
  149.9818  140.5740  155.8825 H   0  0  0  0  0  0  0  0  0  0  0  0
  151.4763  139.8114  153.7303 H   0  0  0  0  0  0  0  0  0  0  0  0
  148.9554  140.1338  153.7174 H   0  0  0  0  0  0  0  0  0  0  0  0
  149.5109  138.7573  152.8086 H   0  0  0  0  0  0  0  0  0  0  0  0
  148.3166  138.6545  155.6262 H   0  0  0  0  0  0  0  0  0  0  0  0
  147.5563  138.1235  154.1401 H   0  0  0  0  0  0  0  0  0  0  0  0
  148.1971  136.1009  156.5476 H   0  0  0  0  0  0  0  0  0  0  0  0
  147.2059  136.0572  155.1055 H   0  0  0  0  0  0  0  0  0  0  0  0
  148.8391  134.8885  153.1231 H   0  0  0  0  0  0  0  0  0  0  0  0
  150.3541  137.3463  156.4796 H   0  0  0  0  0  0  0  0  0  0  0  0
  150.9170  135.9799  155.5447 H   0  0  0  0  0  0  0  0  0  0  0  0
  151.6268  137.4162  153.6964 H   0  0  0  0  0  0  0  0  0  0  0  0
  152.3864  137.9533  155.1706 H   0  0  0  0  0  0  0  0  0  0  0  0
  149.2882  136.5213  153.8772 H   0  0  0  0  0  0  0  0  0  0  0  0
  1  2  1  0  0  0  0
  1 23  1  0  0  0  0
  1 24  1  0  0  0  0
  1 25  1  0  0  0  0
  2  3  1  0  0  0  0
  3  8  1  0  0  0  0
  3  4  2  0  0  0  0
  4  5  1  0  0  0  0
  5  6  2  0  0  0  0
  5 26  1  0  0  0  0
  6  7  1  0  0  0  0
  6 27  1  0  0  0  0
  7  8  2  0  0  0  0
  7 28  1  0  0  0  0
  8  9  1  0  0  0  0
  9 10  1  0  0  0  0
  9 29  1  0  0  0  0
 10 11  2  0  0  0  0
 10 12  1  0  0  0  0
 12 13  1  0  0  0  0
 12 30  1  0  0  0  0
 13 22  1  0  0  0  0
 13 14  1  0  0  0  0
 13 31  1  0  0  0  0
 14 15  1  0  0  0  0
 14 32  1  0  0  0  0
 14 33  1  0  0  0  0
 15 16  1  0  0  0  0
 15 34  1  0  0  0  0
 15 35  1  0  0  0  0
 16 17  1  0  0  0  0
 16 21  1  0  0  0  0
 16 43  1  0  0  0  0
 17 18  1  0  0  0  0
 17 36  1  0  0  0  0
 17 37  1  0  0  0  0
 18 19  1  0  0  0  0
 18 20  2  0  0  0  0
 19 38  1  0  0  0  0
 21 22  1  0  0  0  0
 21 39  1  0  0  0  0
 21 40  1  0  0  0  0
 22 41  1  0  0  0  0
 22 42  1  0  0  0  0
M  CHG  1  16   1
M  CHG  1  19  -1
M  END
> <s_m_source_file>
AV-unprocessed.smi

> <i_m_source_file_index>
1428

> <i_lp_mmshare_version>
43012

> <i_f3d_flags>
0

> <s_epik_input>
W0NIM11PYzFuW2NIXVtjSF1bY0hdYzFbTkhdQyg9TylbTkhdW0NIXTJbQ0gyXVtDSDJdTihbQ0gyXVtDSDJdMilbQ0gyXUMoPU8pW05IMl0=

> <s_epik_cmdline>
J2VwaWtfcHl0aG9uJywgJy1waCcsICc3LjAnLCAnLXRuJywgJzgnLCAnLW1hJywgJzIwMCcsICctbWV0YWxfYmluZGluZycsICctaW1hZScsICc8aW5maWxlLm1hZT4nLCAnLW9tYWUnLCAnPG91dGZpbGUubWFlPic=

> <r_lp_tautomer_probability>
1

> <r_epik_Ionization_Penalty>
5.72888

> <r_epik_Ionization_Penalty_Charging>
5.7288

> <r_epik_Ionization_Penalty_Neutral>
7.84403e-05

> <r_epik_State_Penalty>
6.54882

> <r_epik_Charging_Adjusted_Penalty>
12.2776

> <i_epik_Tot_Q>
0

> <i_epik_Tot_abs_Q>
2

> <r_epik_Metal_State_Penalty>
2.51301

> <b_epik_Metal_Only>
1

> <s_lp_Force_Field>
OPLS_2005

> <r_lp_Energy>
10.1368

> <b_lp_Chiralities_Consistent>
1

> <s_lp_Variant>
AV-unprocessed.smi:1428-5

> <Gold.Version>
5.8.1

> <Gold.Id.Protein>
6NUR|6NUR_protein|mol2

> <Gold.PLP.Fitness>
45.5726

> <Gold.PLP.PLP>
-35.1041

> <Gold.PLP.part.hbond>
-3.0000

> <Gold.PLP.part.metal>
0.0000

> <Gold.PLP.part.buried>
-2.7882

> <Gold.PLP.part.nonpolar>
-29.8756

> <Gold.PLP.part.repulsive>
0.2547

> <Gold.PLP.ligand.clash>
0.0000

> <Gold.PLP.ligand.torsion>
0.7880

> <Gold.PLP.Chemscore.Hbond>
4.0000

> <Gold.PLP.Chemscore.CHOScore>
0.0000

> <Gold.PLP.Chemscore.Metal>
0.0000

> <Gold.Chemscore.Hbonds>
donor molecule, donor type, donor heavy atom, donor atom, acceptor molecule, acceptor atom, score
      L1  H    16    43       P1  7948  1.95
      L1  H    19    38       P1  7948  1.00
      P1  H  7997  8008       L1    11  1.00

> <Gold.PLP.Chemscore.Internal.Correction>
0.0446

> <Gold.Rescore>
     Score         DG    S(hbond)    S(metal)    S(lipo)     H(rot)  DE(clash)    DE(int)     intcor
     15.19     -18.81       2.95        0.00      79.75       2.29       1.35       2.27       ----

> <Gold.Chemscore.Fitness>
15.1866

> <Gold.Chemscore.DG>
-18.8126

> <Gold.Chemscore.ZeroCoef>
-5.4800

> <Gold.Chemscore.Hbond>
2.9530

> <Gold.Chemscore.Metal>
0.0000

> <Gold.Chemscore.Lipo>
79.7471

> <Gold.Chemscore.Internal_Hbond>
0.0000

> <Gold.Chemscore.DEClash>
1.3522

> <Gold.Chemscore.DEInternal>
2.2738

> <Gold.Chemscore.Rot>
2.2894

> <Gold.Chemscore.Internal.Correction>
   9.000000E+99

> <Gold.Chemscore.Hbonds>
donor molecule, donor type, donor heavy atom, donor atom, acceptor molecule, acceptor atom, score
      L1  H    16    43       P1  7948  0.86
      L1  H    19    38       P1  7948  0.26
      P1  H  7997  8008       L1    11  0.99

> <Gold.Chemscore.Hbond.Weighted>
-9.8629

> <Gold.Chemscore.Metal.Weighted>
-0.0000

> <Gold.Chemscore.Lipo.Weighted>
-9.3304

> <Gold.Chemscore.Internal_Hbond.Weighted>
0.0000

> <Gold.Chemscore.DEClash.Weighted>
1.3522

> <Gold.Chemscore.DEInternal.Weighted>
2.2738

> <Gold.Chemscore.Rot.Weighted>
5.8608

> <Gold.Chemscore.Internal.Correction.Weighted>
   9.000000E+99

> <Gold.Protein.RotatedTorsions>
[ 6907 6896 6895 6894 ] final   89.66 input  -60.11 | X-H torsion
[ 7974 7965 7964 7962 ] final  162.54 input  175.53 | X-H torsion
[ 8008 7997 7996 7995 ] final  -57.15 input   59.86 | X-H torsion
[ 10167 10162 10161 10158 ] final  151.20 input  -65.29 | X-H torsion
[ 10718 10713 10712 10709 ] final -169.39 input   66.30 | X-H torsion
[ 10763 10752 10751 10750 ] final   83.56 input  -60.55 | X-H torsion
[ 11005 11000 10999 10996 ] final   -1.95 input  -57.11 | X-H torsion

> <Gold.Protein.ActiveResidues>
 VAL166  LYS551  ARG553  GLY616  TRP617  ASP618  TYR619  PRO620  LYS621  CYS622 
 ASP623  PHE694  ASN695  SER759  ASP760  ASP761  ALA762  ILE779  LEU786  VAL792 
 PHE793  MET794  SER795  GLU796  ALA797  LYS798  CYS799  TRP800  GLU811  SER814 

> <Gold.Protein.RotatedAtoms>
  152.5438  134.1932  159.8682 H   0  0  0  0  0  0  0  0  0  0  0  0  # atno 6907 bound_to 6896
  151.1926  133.4651  159.2602 H   0  0  0  0  0  0  0  0  0  0  0  0  # atno 6908 bound_to 6896
  151.1068  135.0016  159.8530 H   0  0  0  0  0  0  0  0  0  0  0  0  # atno 6909 bound_to 6896
  144.7632  139.8054  143.6325 H   0  0  0  0  0  0  0  0  0  0  0  0  # atno 7974 bound_to 7965
  154.4257  140.1113  156.5751 H   0  0  0  0  0  0  0  0  0  0  0  0  # atno 8008 bound_to 7997
  155.6171  140.3495  155.4621 H   0  0  0  0  0  0  0  0  0  0  0  0  # atno 8009 bound_to 7997
  156.0054  140.1208  157.0496 H   0  0  0  0  0  0  0  0  0  0  0  0  # atno 8010 bound_to 7997
  139.4842  144.5460  151.7483 H   0  0  0  0  0  0  0  0  0  0  0  0  # atno 10167 bound_to 10162
  156.7109  130.9233  151.3089 H   0  0  0  0  0  0  0  0  0  0  0  0  # atno 10718 bound_to 10713
  153.1302  135.4686  154.9337 H   0  0  0  0  0  0  0  0  0  0  0  0  # atno 10763 bound_to 10752
  154.7657  135.3144  154.8293 H   0  0  0  0  0  0  0  0  0  0  0  0  # atno 10764 bound_to 10752
  153.8837  135.6891  153.4819 H   0  0  0  0  0  0  0  0  0  0  0  0  # atno 10765 bound_to 10752
  140.6530  133.9388  155.8391 H   0  0  0  0  0  0  0  0  0  0  0  0  # atno 11005 bound_to 11000
  146.1715  139.4867  142.9924 LP  0  0  0  0  0  0  0  0  0  0  0  0  # atno 17320 bound_to 7965
  145.6553  141.0253  143.1738 LP  0  0  0  0  0  0  0  0  0  0  0  0  # atno 17321 bound_to 7965
  140.5006  144.1174  150.5970 LP  0  0  0  0  0  0  0  0  0  0  0  0  # atno 17342 bound_to 10162
  140.4066  143.2677  151.9884 LP  0  0  0  0  0  0  0  0  0  0  0  0  # atno 17343 bound_to 10162
  157.6936  130.9259  150.0583 LP  0  0  0  0  0  0  0  0  0  0  0  0  # atno 17370 bound_to 10713
  156.1662  130.3645  149.9229 LP  0  0  0  0  0  0  0  0  0  0  0  0  # atno 17371 bound_to 10713
  141.0523  134.0467  157.3768 LP  0  0  0  0  0  0  0  0  0  0  0  0  # atno 17394 bound_to 11000
  139.9039  135.0174  156.7398 LP  0  0  0  0  0  0  0  0  0  0  0  0  # atno 17395 bound_to 11000

$$$$
