AV-unprocessed.smi:784|AV-procd|sdf|3718|dock6
  -GOLD-   22720 1143D 1   1.00000     0.00000
 Structure written by MMmdl.
 38 39  0  0  0  0  0  0  0  0  1 V2000
  144.7166  143.6852  154.7807 C   0  0  0  0  0  0  0  0  0  0  0  0
  145.8543  142.7076  154.7611 C   0  0  0  0  0  0  0  0  0  0  0  0
  147.0989  142.8122  154.0815 C   0  0  0  0  0  0  0  0  0  0  0  0
  147.7460  141.6565  154.4149 C   0  0  0  0  0  0  0  0  0  0  0  0
  149.0862  141.1049  154.0661 C   0  0  0  0  0  0  0  0  0  0  0  0
  150.0102  140.7226  155.6142 S   0  0  0  0  0  0  0  0  0  0  0  0
  149.1499  139.8972  156.4755 O   0  0  0  0  0  0  0  0  0  0  0  0
  151.3617  140.2617  155.2610 O   0  0  0  0  0  0  0  0  0  0  0  0
  150.1591  142.2676  156.3676 N   0  0  0  0  0  0  0  0  0  0  0  0
  151.3226  142.6036  157.1919 C   0  0  0  0  0  0  0  0  0  0  0  0
  151.2982  141.7378  158.4675 C   0  0  0  0  0  0  0  0  0  0  0  0
  152.6316  141.7559  159.2334 C   0  0  0  0  0  0  0  0  0  0  0  0
  152.8002  142.9034  160.2449 C   0  0  0  0  0  0  0  0  0  0  0  0
  152.2711  144.2836  159.8159 C   0  0  0  0  0  0  0  0  0  0  0  0
  152.4703  144.6352  158.3326 C   0  0  0  0  0  0  0  0  0  0  0  0
  151.3265  144.1232  157.4405 C   0  0  0  0  0  0  0  0  0  0  0  0
  146.9659  140.9005  155.2291 O   0  0  0  0  0  0  0  0  0  0  0  0
  145.7618  141.5794  155.4450 N   0  0  0  0  0  0  0  0  0  0  0  0
  144.8077  144.4106  153.9723 H   0  0  0  0  0  0  0  0  0  0  0  0
  144.6925  144.2371  155.7204 H   0  0  0  0  0  0  0  0  0  0  0  0
  143.7571  143.1800  154.6646 H   0  0  0  0  0  0  0  0  0  0  0  0
  147.4618  143.6116  153.4530 H   0  0  0  0  0  0  0  0  0  0  0  0
  148.9875  140.1922  153.4788 H   0  0  0  0  0  0  0  0  0  0  0  0
  149.6618  141.8243  153.4844 H   0  0  0  0  0  0  0  0  0  0  0  0
  149.7443  143.0407  155.8477 H   0  0  0  0  0  0  0  0  0  0  0  0
  152.2198  142.3473  156.6271 H   0  0  0  0  0  0  0  0  0  0  0  0
  150.4702  142.0177  159.1200 H   0  0  0  0  0  0  0  0  0  0  0  0
  151.1072  140.7053  158.1704 H   0  0  0  0  0  0  0  0  0  0  0  0
  152.7398  140.8158  159.7755 H   0  0  0  0  0  0  0  0  0  0  0  0
  153.4585  141.7699  158.5224 H   0  0  0  0  0  0  0  0  0  0  0  0
  152.3116  142.6295  161.1806 H   0  0  0  0  0  0  0  0  0  0  0  0
  153.8606  142.9876  160.4850 H   0  0  0  0  0  0  0  0  0  0  0  0
  151.2128  144.3628  160.0675 H   0  0  0  0  0  0  0  0  0  0  0  0
  152.7664  145.0375  160.4287 H   0  0  0  0  0  0  0  0  0  0  0  0
  152.4920  145.7222  158.2470 H   0  0  0  0  0  0  0  0  0  0  0  0
  153.4391  144.2890  157.9709 H   0  0  0  0  0  0  0  0  0  0  0  0
  151.3955  144.6285  156.4764 H   0  0  0  0  0  0  0  0  0  0  0  0
  150.3707  144.4326  157.8653 H   0  0  0  0  0  0  0  0  0  0  0  0
  1  2  1  0  0  0  0
  1 19  1  0  0  0  0
  1 20  1  0  0  0  0
  1 21  1  0  0  0  0
  2 18  2  0  0  0  0
  2  3  1  0  0  0  0
  3  4  2  0  0  0  0
  3 22  1  0  0  0  0
  4  5  1  0  0  0  0
  4 17  1  0  0  0  0
  5  6  1  0  0  0  0
  5 23  1  0  0  0  0
  5 24  1  0  0  0  0
  6  7  2  0  0  0  0
  6  8  2  0  0  0  0
  6  9  1  0  0  0  0
  9 10  1  0  0  0  0
  9 25  1  0  0  0  0
 10 16  1  0  0  0  0
 10 11  1  0  0  0  0
 10 26  1  0  0  0  0
 11 12  1  0  0  0  0
 11 27  1  0  0  0  0
 11 28  1  0  0  0  0
 12 13  1  0  0  0  0
 12 29  1  0  0  0  0
 12 30  1  0  0  0  0
 13 14  1  0  0  0  0
 13 31  1  0  0  0  0
 13 32  1  0  0  0  0
 14 15  1  0  0  0  0
 14 33  1  0  0  0  0
 14 34  1  0  0  0  0
 15 16  1  0  0  0  0
 15 35  1  0  0  0  0
 15 36  1  0  0  0  0
 16 37  1  0  0  0  0
 16 38  1  0  0  0  0
 17 18  1  0  0  0  0
M  END
> <s_m_source_file>
AV-unprocessed.smi

> <i_m_source_file_index>
784

> <i_lp_mmshare_version>
43012

> <i_f3d_flags>
0

> <s_epik_input>
W0NIM11jMVtjSF1jKG9uMSlbQ0gyXVMoPU8pKD1PKVtOSF1bQ0hdMltDSDJdW0NIMl1bQ0gyXVtDSDJdW0NIMl1bQ0gyXTI=

> <s_epik_cmdline>
J2VwaWtfcHl0aG9uJywgJy1waCcsICc3LjAnLCAnLXRuJywgJzgnLCAnLW1hJywgJzIwMCcsICctbWV0YWxfYmluZGluZycsICctaW1hZScsICc8aW5maWxlLm1hZT4nLCAnLW9tYWUnLCAnPG91dGZpbGUubWFlPic=

> <r_lp_tautomer_probability>
1

> <r_epik_Ionization_Penalty>
4.92328e-05

> <r_epik_Ionization_Penalty_Charging>
0

> <r_epik_Ionization_Penalty_Neutral>
4.92328e-05

> <r_epik_State_Penalty>
-0

> <r_epik_Charging_Adjusted_Penalty>
0

> <i_epik_Tot_Q>
0

> <i_epik_Tot_abs_Q>
0

> <r_epik_Metal_State_Penalty>
0.0438012

> <b_epik_Metal_Only>
0

> <s_lp_Force_Field>
OPLS_2005

> <r_lp_Energy>
5.5121

> <b_lp_Chiralities_Consistent>
1

> <s_lp_Variant>
AV-unprocessed.smi:784-1

> <Gold.Version>
5.8.1

> <Gold.Id.Protein>
6NUR|6NUR_protein|mol2

> <Gold.PLP.Fitness>
47.0078

> <Gold.PLP.PLP>
-41.4066

> <Gold.PLP.part.hbond>
-2.0000

> <Gold.PLP.part.metal>
0.0000

> <Gold.PLP.part.buried>
-0.7221

> <Gold.PLP.part.nonpolar>
-37.7738

> <Gold.PLP.part.repulsive>
0.2930

> <Gold.PLP.ligand.clash>
0.0000

> <Gold.PLP.ligand.torsion>
0.7548

> <Gold.PLP.Chemscore.Hbond>
2.0000

> <Gold.PLP.Chemscore.CHOScore>
0.0000

> <Gold.PLP.Chemscore.Metal>
0.0000

> <Gold.Chemscore.Hbonds>
donor molecule, donor type, donor heavy atom, donor atom, acceptor molecule, acceptor atom, score
      L1  H     9    25       P1  8028  1.00
      P1  H  7989  7998       L1     8  1.00

> <Gold.PLP.Chemscore.Internal.Correction>
1.1107

> <Gold.Rescore>
     Score         DG    S(hbond)    S(metal)    S(lipo)     H(rot)  DE(clash)    DE(int)     intcor
     17.66     -19.74       1.87        0.00      98.53       1.37       0.01       2.08       ----

> <Gold.Chemscore.Fitness>
17.6591

> <Gold.Chemscore.DG>
-19.7432

> <Gold.Chemscore.ZeroCoef>
-5.4800

> <Gold.Chemscore.Hbond>
1.8720

> <Gold.Chemscore.Metal>
0.0000

> <Gold.Chemscore.Lipo>
98.5251

> <Gold.Chemscore.Internal_Hbond>
0.0000

> <Gold.Chemscore.DEClash>
0.0059

> <Gold.Chemscore.DEInternal>
2.0782

> <Gold.Chemscore.Rot>
1.3738

> <Gold.Chemscore.Internal.Correction>
   9.000000E+99

> <Gold.Chemscore.Hbonds>
donor molecule, donor type, donor heavy atom, donor atom, acceptor molecule, acceptor atom, score
      L1  H     9    25       P1  8028  0.98
      P1  H  7989  7998       L1     8  0.47

> <Gold.Chemscore.Hbond.Weighted>
-6.2526

> <Gold.Chemscore.Metal.Weighted>
-0.0000

> <Gold.Chemscore.Lipo.Weighted>
-11.5274

> <Gold.Chemscore.Internal_Hbond.Weighted>
0.0000

> <Gold.Chemscore.DEClash.Weighted>
0.0059

> <Gold.Chemscore.DEInternal.Weighted>
2.0782

> <Gold.Chemscore.Rot.Weighted>
3.5168

> <Gold.Chemscore.Internal.Correction.Weighted>
   9.000000E+99

> <Gold.Protein.RotatedTorsions>
[ 6907 6896 6895 6894 ] final   95.30 input  -60.11 | X-H torsion
[ 7974 7965 7964 7962 ] final   53.41 input  175.53 | X-H torsion
[ 8008 7997 7996 7995 ] final -135.10 input   59.86 | X-H torsion
[ 10167 10162 10161 10158 ] final  175.38 input  -65.29 | X-H torsion
[ 10718 10713 10712 10709 ] final  -25.20 input   66.30 | X-H torsion
[ 10763 10752 10751 10750 ] final   90.20 input  -60.55 | X-H torsion
[ 11005 11000 10999 10996 ] final   63.51 input  -57.11 | X-H torsion

> <Gold.Protein.ActiveResidues>
 VAL166  LYS551  ARG553  GLY616  TRP617  ASP618  TYR619  PRO620  LYS621  CYS622 
 ASP623  PHE694  ASN695  SER759  ASP760  ASP761  ALA762  ILE779  LEU786  VAL792 
 PHE793  MET794  SER795  GLU796  ALA797  LYS798  CYS799  TRP800  GLU811  SER814 

> <Gold.Protein.RotatedAtoms>
  152.5444  134.1062  159.8338 H   0  0  0  0  0  0  0  0  0  0  0  0  # atno 6907 bound_to 6896
  151.1133  133.5149  159.2612 H   0  0  0  0  0  0  0  0  0  0  0  0  # atno 6908 bound_to 6896
  151.1859  135.0391  159.8867 H   0  0  0  0  0  0  0  0  0  0  0  0  # atno 6909 bound_to 6896
  145.9714  139.4153  143.0187 H   0  0  0  0  0  0  0  0  0  0  0  0  # atno 7974 bound_to 7965
  155.3731  140.0489  157.3045 H   0  0  0  0  0  0  0  0  0  0  0  0  # atno 8008 bound_to 7997
  154.5120  140.2195  155.9101 H   0  0  0  0  0  0  0  0  0  0  0  0  # atno 8009 bound_to 7997
  156.1593  140.3120  155.8785 H   0  0  0  0  0  0  0  0  0  0  0  0  # atno 8010 bound_to 7997
  139.5175  144.3038  152.0354 H   0  0  0  0  0  0  0  0  0  0  0  0  # atno 10167 bound_to 10162
  156.4676  130.4517  149.6889 H   0  0  0  0  0  0  0  0  0  0  0  0  # atno 10718 bound_to 10713
  153.1951  135.4442  155.0197 H   0  0  0  0  0  0  0  0  0  0  0  0  # atno 10763 bound_to 10752
  154.8114  135.3296  154.7298 H   0  0  0  0  0  0  0  0  0  0  0  0  # atno 10764 bound_to 10752
  153.7749  135.6982  153.4955 H   0  0  0  0  0  0  0  0  0  0  0  0  # atno 10765 bound_to 10752
  140.0020  134.6428  155.9916 H   0  0  0  0  0  0  0  0  0  0  0  0  # atno 11005 bound_to 11000
  145.7900  140.9819  143.1054 LP  0  0  0  0  0  0  0  0  0  0  0  0  # atno 17320 bound_to 7965
  144.6838  139.9670  143.7481 LP  0  0  0  0  0  0  0  0  0  0  0  0  # atno 17321 bound_to 7965
  140.2485  144.4194  150.6231 LP  0  0  0  0  0  0  0  0  0  0  0  0  # atno 17342 bound_to 10162
  140.6241  143.2179  151.6632 LP  0  0  0  0  0  0  0  0  0  0  0  0  # atno 17343 bound_to 10162
  156.3652  130.7502  151.2479 LP  0  0  0  0  0  0  0  0  0  0  0  0  # atno 17370 bound_to 10713
  157.7493  131.0339  150.4292 LP  0  0  0  0  0  0  0  0  0  0  0  0  # atno 17371 bound_to 10713
  141.1648  133.6537  156.4443 LP  0  0  0  0  0  0  0  0  0  0  0  0  # atno 17394 bound_to 11000
  140.4711  134.6752  157.5129 LP  0  0  0  0  0  0  0  0  0  0  0  0  # atno 17395 bound_to 11000

$$$$
