AV-unprocessed.smi:3274|AV-procd|sdf|12522|dock9
  -GOLD-   2272018433D 1   1.00000     0.00000
 Structure written by MMmdl.
 43 44  0  0  0  0  0  0  0  0  2 V2000
  147.9885  139.7839  153.6414 C   0  0  0  0  0  0  0  0  0  0  0  0
  149.2634  139.9911  154.4422 C   0  0  0  0  0  0  0  0  0  0  0  0
  149.4740  141.1389  155.1165 C   0  0  0  0  0  0  0  0  0  0  0  0
  150.7313  141.4639  155.9036 C   0  0  0  0  0  0  0  0  0  0  0  0
  151.6912  140.2693  156.0279 C   0  0  0  0  0  0  0  0  0  0  0  0
  151.7172  139.4332  154.7371 C   0  0  1  0  0  0  0  0  0  0  0  0
  152.8412  138.3828  154.7515 C   0  0  0  0  0  0  0  0  0  0  0  0
  150.3061  138.8646  154.4129 C   0  0  1  0  0  0  0  0  0  0  0  0
  149.9053  137.6778  155.3270 C   0  0  0  0  0  0  0  0  0  0  0  0
  148.8081  136.8647  154.7606 N   0  3  0  0  0  0  0  0  0  0  0  0
  148.6589  135.5106  155.3376 C   0  0  2  0  0  0  0  0  0  0  0  0
  148.3223  135.6303  156.8335 C   0  0  0  0  0  0  0  0  0  0  0  0
  149.9271  134.6613  155.0871 C   0  0  0  0  0  0  0  0  0  0  0  0
  149.6291  133.2969  154.6913 N   0  0  0  0  0  0  0  0  0  0  0  0
  149.9652  132.1346  155.2537 C   0  0  0  0  0  0  0  0  0  0  0  0
  149.5241  131.0738  154.5925 N   0  0  0  0  0  0  0  0  0  0  0  0
  148.8890  131.6973  153.5558 C   0  0  0  0  0  0  0  0  0  0  0  0
  148.9274  133.0300  153.5647 N   0  0  0  0  0  0  0  0  0  0  0  0
  148.2190  139.4226  152.6390 H   0  0  0  0  0  0  0  0  0  0  0  0
  147.4365  140.7186  153.5367 H   0  0  0  0  0  0  0  0  0  0  0  0
  147.3241  139.0709  154.1270 H   0  0  0  0  0  0  0  0  0  0  0  0
  148.7254  141.9175  155.0924 H   0  0  0  0  0  0  0  0  0  0  0  0
  151.2330  142.2854  155.3912 H   0  0  0  0  0  0  0  0  0  0  0  0
  150.4575  141.8307  156.8933 H   0  0  0  0  0  0  0  0  0  0  0  0
  152.6906  140.6341  156.2678 H   0  0  0  0  0  0  0  0  0  0  0  0
  151.3904  139.6421  156.8675 H   0  0  0  0  0  0  0  0  0  0  0  0
  151.9697  140.1184  153.9255 H   0  0  0  0  0  0  0  0  0  0  0  0
  152.7776  137.7263  155.6193 H   0  0  0  0  0  0  0  0  0  0  0  0
  153.8183  138.8653  154.7883 H   0  0  0  0  0  0  0  0  0  0  0  0
  152.8161  137.7648  153.8536 H   0  0  0  0  0  0  0  0  0  0  0  0
  150.3510  138.4954  153.3871 H   0  0  0  0  0  0  0  0  0  0  0  0
  150.7470  137.0033  155.4771 H   0  0  0  0  0  0  0  0  0  0  0  0
  149.6208  138.0520  156.3097 H   0  0  0  0  0  0  0  0  0  0  0  0
  147.9358  137.3620  154.8694 H   0  0  0  0  0  0  0  0  0  0  0  0
  147.8071  135.0325  154.8509 H   0  0  0  0  0  0  0  0  0  0  0  0
  148.1176  134.6563  157.2788 H   0  0  0  0  0  0  0  0  0  0  0  0
  147.4349  136.2453  156.9872 H   0  0  0  0  0  0  0  0  0  0  0  0
  149.1427  136.0850  157.3898 H   0  0  0  0  0  0  0  0  0  0  0  0
  150.5476  135.1012  154.3065 H   0  0  0  0  0  0  0  0  0  0  0  0
  150.5400  134.6294  155.9893 H   0  0  0  0  0  0  0  0  0  0  0  0
  150.5423  132.0613  156.1639 H   0  0  0  0  0  0  0  0  0  0  0  0
  148.3854  131.1534  152.7701 H   0  0  0  0  0  0  0  0  0  0  0  0
  148.9947  136.7610  153.7733 H   0  0  0  0  0  0  0  0  0  0  0  0
  1  2  1  0  0  0  0
  1 19  1  0  0  0  0
  1 20  1  0  0  0  0
  1 21  1  0  0  0  0
  2  8  1  0  0  0  0
  2  3  2  0  0  0  0
  3  4  1  0  0  0  0
  3 22  1  0  0  0  0
  4  5  1  0  0  0  0
  4 23  1  0  0  0  0
  4 24  1  0  0  0  0
  5  6  1  0  0  0  0
  5 25  1  0  0  0  0
  5 26  1  0  0  0  0
  6  7  1  0  0  0  0
  6  8  1  0  0  0  0
  6 27  1  0  0  0  0
  7 28  1  0  0  0  0
  7 29  1  0  0  0  0
  7 30  1  0  0  0  0
  8  9  1  0  0  0  0
  8 31  1  0  0  0  0
  9 10  1  0  0  0  0
  9 32  1  0  0  0  0
  9 33  1  0  0  0  0
 10 11  1  0  0  0  0
 10 34  1  0  0  0  0
 10 43  1  0  0  0  0
 11 12  1  0  0  0  0
 11 13  1  0  0  0  0
 11 35  1  0  0  0  0
 12 36  1  0  0  0  0
 12 37  1  0  0  0  0
 12 38  1  0  0  0  0
 13 14  1  0  0  0  0
 13 39  1  0  0  0  0
 13 40  1  0  0  0  0
 14 18  1  0  0  0  0
 14 15  1  0  0  0  0
 15 16  2  0  0  0  0
 15 41  1  0  0  0  0
 16 17  1  0  0  0  0
 17 18  2  0  0  0  0
 17 42  1  0  0  0  0
M  CHG  1  10   1
M  END
> <s_m_source_file>
AV-unprocessed.smi

> <i_m_source_file_index>
3274

> <i_lp_mmshare_version>
43012

> <i_f3d_flags>
0

> <s_epik_input>
W0NIM11DMT1bQ0hdW0NIMl1bQ0gyXVtDQEBIXShbQ0gzXSlbQ0BIXTFbQ0gyXVtOSF1bQ0BIXShbQ0gzXSlbQ0gyXW4yW2NIXW5bY0hdbjI=

> <s_epik_cmdline>
J2VwaWtfcHl0aG9uJywgJy1waCcsICc3LjAnLCAnLXRuJywgJzgnLCAnLW1hJywgJzIwMCcsICctbWV0YWxfYmluZGluZycsICctaW1hZScsICc8aW5maWxlLm1hZT4nLCAnLW9tYWUnLCAnPG91dGZpbGUubWFlPic=

> <r_lp_tautomer_probability>
1

> <r_epik_Ionization_Penalty>
0.0017527

> <r_epik_Ionization_Penalty_Charging>
0.00175191

> <r_epik_Ionization_Penalty_Neutral>
7.94565e-07

> <r_epik_State_Penalty>
0.00118605

> <r_epik_Charging_Adjusted_Penalty>
0.00293796

> <i_epik_Tot_Q>
1

> <i_epik_Tot_abs_Q>
1

> <r_epik_Metal_State_Penalty>
-0

> <b_epik_Metal_Only>
0

> <s_lp_Force_Field>
OPLS_2005

> <r_lp_Energy>
17.2811

> <b_lp_Chiralities_Consistent>
1

> <s_lp_Variant>
AV-unprocessed.smi:3274-1

> <Gold.Version>
5.8.1

> <Gold.Id.Protein>
6NUR|6NUR_protein|mol2

> <Gold.PLP.Fitness>
40.9320

> <Gold.PLP.PLP>
-33.4908

> <Gold.PLP.part.hbond>
-1.0000

> <Gold.PLP.part.metal>
0.0000

> <Gold.PLP.part.buried>
-0.6621

> <Gold.PLP.part.nonpolar>
-31.6059

> <Gold.PLP.part.repulsive>
0.2151

> <Gold.PLP.ligand.clash>
0.0000

> <Gold.PLP.ligand.torsion>
0.7965

> <Gold.PLP.Chemscore.Hbond>
2.0000

> <Gold.PLP.Chemscore.CHOScore>
1.0000

> <Gold.PLP.Chemscore.Metal>
0.0000

> <Gold.Chemscore.Hbonds>
donor molecule, donor type, donor heavy atom, donor atom, acceptor molecule, acceptor atom, score
      L1  H    10    43       P1  7948  2.00
      L1  C    17    42       P1 10747  0.92

> <Gold.PLP.Chemscore.Internal.Correction>
0.0341

> <Gold.Rescore>
     Score         DG    S(hbond)    S(metal)    S(lipo)     H(rot)  DE(clash)    DE(int)     intcor
     10.00     -10.88       1.00        0.00      69.24       2.36       0.08       0.79       ----

> <Gold.Chemscore.Fitness>
10.0036

> <Gold.Chemscore.DG>
-10.8754

> <Gold.Chemscore.ZeroCoef>
-5.4800

> <Gold.Chemscore.Hbond>
1.0000

> <Gold.Chemscore.Metal>
0.0000

> <Gold.Chemscore.Lipo>
69.2379

> <Gold.Chemscore.Internal_Hbond>
0.0000

> <Gold.Chemscore.DEClash>
0.0816

> <Gold.Chemscore.DEInternal>
0.7902

> <Gold.Chemscore.Rot>
2.3615

> <Gold.Chemscore.Internal.Correction>
   9.000000E+99

> <Gold.Chemscore.Hbonds>
donor molecule, donor type, donor heavy atom, donor atom, acceptor molecule, acceptor atom, score
      L1  H    10    43       P1  7948  0.98

> <Gold.Chemscore.Hbond.Weighted>
-3.3400

> <Gold.Chemscore.Metal.Weighted>
-0.0000

> <Gold.Chemscore.Lipo.Weighted>
-8.1008

> <Gold.Chemscore.Internal_Hbond.Weighted>
0.0000

> <Gold.Chemscore.DEClash.Weighted>
0.0816

> <Gold.Chemscore.DEInternal.Weighted>
0.7902

> <Gold.Chemscore.Rot.Weighted>
6.0454

> <Gold.Chemscore.Internal.Correction.Weighted>
   9.000000E+99

> <Gold.Protein.RotatedTorsions>
[ 6907 6896 6895 6894 ] final  147.54 input  -60.11 | X-H torsion
[ 7974 7965 7964 7962 ] final -145.94 input  175.53 | X-H torsion
[ 8008 7997 7996 7995 ] final   38.47 input   59.86 | X-H torsion
[ 10167 10162 10161 10158 ] final -133.62 input  -65.29 | X-H torsion
[ 10718 10713 10712 10709 ] final   72.00 input   66.30 | X-H torsion
[ 10763 10752 10751 10750 ] final   30.93 input  -60.55 | X-H torsion
[ 11005 11000 10999 10996 ] final  -50.40 input  -57.11 | X-H torsion

> <Gold.Protein.ActiveResidues>
 VAL166  LYS551  ARG553  GLY616  TRP617  ASP618  TYR619  PRO620  LYS621  CYS622 
 ASP623  PHE694  ASN695  SER759  ASP760  ASP761  ALA762  ILE779  LEU786  VAL792 
 PHE793  MET794  SER795  GLU796  ALA797  LYS798  CYS799  TRP800  GLU811  SER814 

> <Gold.Protein.RotatedAtoms>
  152.1534  133.4536  159.4824 H   0  0  0  0  0  0  0  0  0  0  0  0  # atno 6907 bound_to 6896
  150.6898  134.2161  159.4387 H   0  0  0  0  0  0  0  0  0  0  0  0  # atno 6908 bound_to 6896
  152.0059  134.9902  160.0617 H   0  0  0  0  0  0  0  0  0  0  0  0  # atno 6909 bound_to 6896
  144.8193  140.5520  143.5589 H   0  0  0  0  0  0  0  0  0  0  0  0  # atno 7974 bound_to 7965
  155.2207  140.3330  155.4316 H   0  0  0  0  0  0  0  0  0  0  0  0  # atno 8008 bound_to 7997
  156.2334  140.1861  156.7230 H   0  0  0  0  0  0  0  0  0  0  0  0  # atno 8009 bound_to 7997
  154.6017  140.0622  156.9363 H   0  0  0  0  0  0  0  0  0  0  0  0  # atno 8010 bound_to 7997
  139.8964  143.6660  152.2603 H   0  0  0  0  0  0  0  0  0  0  0  0  # atno 10167 bound_to 10162
  157.6479  130.9557  150.0868 H   0  0  0  0  0  0  0  0  0  0  0  0  # atno 10718 bound_to 10713
  153.0344  135.6451  154.1121 H   0  0  0  0  0  0  0  0  0  0  0  0  # atno 10763 bound_to 10752
  154.0838  135.2871  155.3286 H   0  0  0  0  0  0  0  0  0  0  0  0  # atno 10764 bound_to 10752
  154.6511  135.5425  153.7967 H   0  0  0  0  0  0  0  0  0  0  0  0  # atno 10765 bound_to 10752
  141.0813  133.6652  156.3725 H   0  0  0  0  0  0  0  0  0  0  0  0  # atno 11005 bound_to 11000
  145.5142  139.1478  143.3588 LP  0  0  0  0  0  0  0  0  0  0  0  0  # atno 17320 bound_to 7965
  146.2498  140.5282  142.8898 LP  0  0  0  0  0  0  0  0  0  0  0  0  # atno 17321 bound_to 7965
  139.7064  144.7627  151.1186 LP  0  0  0  0  0  0  0  0  0  0  0  0  # atno 17342 bound_to 10162
  140.7716  143.5389  150.9336 LP  0  0  0  0  0  0  0  0  0  0  0  0  # atno 17343 bound_to 10162
  156.1828  130.3651  149.9012 LP  0  0  0  0  0  0  0  0  0  0  0  0  # atno 17370 bound_to 10713
  156.6960  130.8914  151.3594 LP  0  0  0  0  0  0  0  0  0  0  0  0  # atno 17371 bound_to 10713
  140.5461  134.6073  157.5394 LP  0  0  0  0  0  0  0  0  0  0  0  0  # atno 17394 bound_to 11000
  139.9628  134.7424  156.0202 LP  0  0  0  0  0  0  0  0  0  0  0  0  # atno 17395 bound_to 11000

$$$$
