AV-unprocessed.smi:876|AV-procd|sdf|4023|dock7
  -GOLD-   22720 1513D 1   1.00000     0.00000
 Structure written by MMmdl.
 40 41  0  0  0  0  0  0  0  0  1 V2000
  150.7642  142.0230  156.2279 C   0  0  0  0  0  0  0  0  0  0  0  0
  150.6537  140.6989  155.6281 N   0  0  0  0  0  0  0  0  0  0  0  0
  151.7835  139.7770  155.6869 C   0  0  0  0  0  0  0  0  0  0  0  0
  149.4670  140.3168  154.9617 C   0  0  0  0  0  0  0  0  0  0  0  0
  148.5348  141.2789  154.4999 C   0  0  0  0  0  0  0  0  0  0  0  0
  147.3665  140.8495  153.8414 C   0  0  0  0  0  0  0  0  0  0  0  0
  147.1553  139.4646  153.6504 C   0  0  0  0  0  0  0  0  0  0  0  0
  146.0118  138.9016  153.0204 N   0  0  0  0  0  0  0  0  0  0  0  0
  145.7253  137.6078  152.7955 C   0  0  0  0  0  0  0  0  0  0  0  0
  146.4168  136.6514  153.1446 O   0  0  0  0  0  0  0  0  0  0  0  0
  144.5599  137.4765  152.1463 N   0  0  0  0  0  0  0  0  0  0  0  0
  143.9633  136.2040  151.7553 C   0  0  2  0  0  0  0  0  0  0  0  0
  143.9085  135.2629  152.9274 C   0  0  0  0  0  0  0  0  0  0  0  0
  144.4902  134.0928  152.6739 C   0  0  0  0  0  0  0  0  0  0  0  0
  145.0606  134.0130  151.2808 C   0  0  2  0  0  0  0  0  0  0  0  0
  146.5422  133.5988  151.2606 C   0  0  0  0  0  0  0  0  0  0  0  0
  146.6795  132.2275  151.5706 O   0  0  0  0  0  0  0  0  0  0  0  0
  144.8146  135.4337  150.7116 C   0  0  0  0  0  0  0  0  0  0  0  0
  148.1313  138.5831  154.1543 C   0  0  0  0  0  0  0  0  0  0  0  0
  149.2520  138.9900  154.7854 N   0  0  0  0  0  0  0  0  0  0  0  0
  142.9455  136.3573  151.3926 H   0  0  0  0  0  0  0  0  0  0  0  0
  144.4688  133.2891  150.7187 H   0  0  0  0  0  0  0  0  0  0  0  0
  150.0169  142.1513  157.0118 H   0  0  0  0  0  0  0  0  0  0  0  0
  150.6193  142.7988  155.4755 H   0  0  0  0  0  0  0  0  0  0  0  0
  151.7458  142.1756  156.6768 H   0  0  0  0  0  0  0  0  0  0  0  0
  152.1415  139.5456  154.6831 H   0  0  0  0  0  0  0  0  0  0  0  0
  151.4933  138.8457  156.1749 H   0  0  0  0  0  0  0  0  0  0  0  0
  152.6153  140.2018  156.2490 H   0  0  0  0  0  0  0  0  0  0  0  0
  148.6879  142.3379  154.6422 H   0  0  0  0  0  0  0  0  0  0  0  0
  146.6558  141.5913  153.5128 H   0  0  0  0  0  0  0  0  0  0  0  0
  145.3050  139.5657  152.7403 H   0  0  0  0  0  0  0  0  0  0  0  0
  144.0504  138.3133  151.9027 H   0  0  0  0  0  0  0  0  0  0  0  0
  143.4265  135.5277  153.8571 H   0  0  0  0  0  0  0  0  0  0  0  0
  144.5512  133.2674  153.3680 H   0  0  0  0  0  0  0  0  0  0  0  0
  146.9697  133.7734  150.2729 H   0  0  0  0  0  0  0  0  0  0  0  0
  147.1209  134.1882  151.9726 H   0  0  0  0  0  0  0  0  0  0  0  0
  147.2774  131.8377  150.9512 H   0  0  0  0  0  0  0  0  0  0  0  0
  144.3048  135.3885  149.7485 H   0  0  0  0  0  0  0  0  0  0  0  0
  145.7643  135.9420  150.5364 H   0  0  0  0  0  0  0  0  0  0  0  0
  148.0136  137.5147  154.0465 H   0  0  0  0  0  0  0  0  0  0  0  0
  1  2  1  0  0  0  0
  1 23  1  0  0  0  0
  1 24  1  0  0  0  0
  1 25  1  0  0  0  0
  2  3  1  0  0  0  0
  2  4  1  0  0  0  0
  3 26  1  0  0  0  0
  3 27  1  0  0  0  0
  3 28  1  0  0  0  0
  4 20  1  0  0  0  0
  4  5  2  0  0  0  0
  5  6  1  0  0  0  0
  5 29  1  0  0  0  0
  6  7  2  0  0  0  0
  6 30  1  0  0  0  0
  7  8  1  0  0  0  0
  7 19  1  0  0  0  0
  8  9  1  0  0  0  0
  8 31  1  0  0  0  0
  9 10  2  0  0  0  0
  9 11  1  0  0  0  0
 11 12  1  0  0  0  0
 11 32  1  0  0  0  0
 12 21  1  0  0  0  0
 12 18  1  0  0  0  0
 12 13  1  0  0  0  0
 13 14  2  0  0  0  0
 13 33  1  0  0  0  0
 14 15  1  0  0  0  0
 14 34  1  0  0  0  0
 15 22  1  0  0  0  0
 15 16  1  0  0  0  0
 15 18  1  0  0  0  0
 16 17  1  0  0  0  0
 16 35  1  0  0  0  0
 16 36  1  0  0  0  0
 17 37  1  0  0  0  0
 18 38  1  0  0  0  0
 18 39  1  0  0  0  0
 19 20  2  0  0  0  0
 19 40  1  0  0  0  0
M  END
> <s_m_source_file>
AV-unprocessed.smi

> <i_m_source_file_index>
876

> <i_lp_mmshare_version>
43012

> <i_f3d_flags>
0

> <s_epik_input>
W0NIM11OKFtDSDNdKWMxW2NIXVtjSF1jKFtjSF1uMSlbTkhdQyg9TylbTkhdW0NAQEhdMltDSF09W0NIXVtDQEBIXShbQ0gyXTIpW0NIMl1bT0hd

> <s_epik_cmdline>
J2VwaWtfcHl0aG9uJywgJy1waCcsICc3LjAnLCAnLXRuJywgJzgnLCAnLW1hJywgJzIwMCcsICctbWV0YWxfYmluZGluZycsICctaW1hZScsICc8aW5maWxlLm1hZT4nLCAnLW9tYWUnLCAnPG91dGZpbGUubWFlPic=

> <r_lp_tautomer_probability>
1

> <r_epik_Ionization_Penalty>
0.617998

> <r_epik_Ionization_Penalty_Charging>
0

> <r_epik_Ionization_Penalty_Neutral>
0.617998

> <r_epik_State_Penalty>
0.632637

> <r_epik_Charging_Adjusted_Penalty>
0.632637

> <i_epik_Tot_Q>
0

> <i_epik_Tot_abs_Q>
0

> <r_epik_Metal_State_Penalty>
0.305596

> <b_epik_Metal_Only>
0

> <s_lp_Force_Field>
OPLS_2005

> <r_lp_Energy>
21.6673

> <b_lp_Chiralities_Consistent>
1

> <s_lp_Variant>
AV-unprocessed.smi:876-5

> <Gold.Version>
5.8.1

> <Gold.Id.Protein>
6NUR|6NUR_protein|mol2

> <Gold.PLP.Fitness>
44.2104

> <Gold.PLP.PLP>
-35.2122

> <Gold.PLP.part.hbond>
-3.7960

> <Gold.PLP.part.metal>
0.0000

> <Gold.PLP.part.buried>
-4.9542

> <Gold.PLP.part.nonpolar>
-29.0549

> <Gold.PLP.part.repulsive>
2.2030

> <Gold.PLP.ligand.clash>
0.0000

> <Gold.PLP.ligand.torsion>
0.2972

> <Gold.PLP.Chemscore.Hbond>
2.5429

> <Gold.PLP.Chemscore.CHOScore>
0.6495

> <Gold.PLP.Chemscore.Metal>
0.0000

> <Gold.Chemscore.Hbonds>
donor molecule, donor type, donor heavy atom, donor atom, acceptor molecule, acceptor atom, score
      L1  H     8    31       P1 10175  1.00
      L1  H    11    32       P1 10175  0.47
      L1  H    17    37       P1 10747  0.89
      L1  C    19    40       P1  7948  0.47

> <Gold.PLP.Chemscore.Internal.Correction>
0.0154

> <Gold.Rescore>
     Score         DG    S(hbond)    S(metal)    S(lipo)     H(rot)  DE(clash)    DE(int)     intcor
     13.67     -17.70       2.70        0.00      66.56       1.80       1.18       2.84       ----

> <Gold.Chemscore.Fitness>
13.6706

> <Gold.Chemscore.DG>
-17.6963

> <Gold.Chemscore.ZeroCoef>
-5.4800

> <Gold.Chemscore.Hbond>
2.7039

> <Gold.Chemscore.Metal>
0.0000

> <Gold.Chemscore.Lipo>
66.5638

> <Gold.Chemscore.Internal_Hbond>
0.0000

> <Gold.Chemscore.DEClash>
1.1818

> <Gold.Chemscore.DEInternal>
2.8439

> <Gold.Chemscore.Rot>
1.7980

> <Gold.Chemscore.Internal.Correction>
   9.000000E+99

> <Gold.Chemscore.Hbonds>
donor molecule, donor type, donor heavy atom, donor atom, acceptor molecule, acceptor atom, score
      L1  H     8    31       P1 10175  1.00
      L1  H    11    32       P1 10175  0.47
      L1  H    17    37       P1 10747  0.85

> <Gold.Chemscore.Hbond.Weighted>
-9.0312

> <Gold.Chemscore.Metal.Weighted>
-0.0000

> <Gold.Chemscore.Lipo.Weighted>
-7.7880

> <Gold.Chemscore.Internal_Hbond.Weighted>
0.0000

> <Gold.Chemscore.DEClash.Weighted>
1.1818

> <Gold.Chemscore.DEInternal.Weighted>
2.8439

> <Gold.Chemscore.Rot.Weighted>
4.6029

> <Gold.Chemscore.Internal.Correction.Weighted>
   9.000000E+99

> <Gold.Protein.RotatedTorsions>
[ 6907 6896 6895 6894 ] final   75.77 input  -60.11 | X-H torsion
[ 7974 7965 7964 7962 ] final  -23.85 input  175.53 | X-H torsion
[ 8008 7997 7996 7995 ] final  -50.36 input   59.86 | X-H torsion
[ 10167 10162 10161 10158 ] final -123.31 input  -65.29 | X-H torsion
[ 10718 10713 10712 10709 ] final   57.91 input   66.30 | X-H torsion
[ 10763 10752 10751 10750 ] final  173.54 input  -60.55 | X-H torsion
[ 11005 11000 10999 10996 ] final   77.08 input  -57.11 | X-H torsion

> <Gold.Protein.ActiveResidues>
 VAL166  LYS551  ARG553  GLY616  TRP617  ASP618  TYR619  PRO620  LYS621  CYS622 
 ASP623  PHE694  ASN695  SER759  ASP760  ASP761  ALA762  ILE779  LEU786  VAL792 
 PHE793  MET794  SER795  GLU796  ALA797  LYS798  CYS799  TRP800  GLU811  SER814 

> <Gold.Protein.RotatedAtoms>
  152.5042  134.4070  159.9435 H   0  0  0  0  0  0  0  0  0  0  0  0  # atno 6907 bound_to 6896
  151.4036  133.3743  159.2743 H   0  0  0  0  0  0  0  0  0  0  0  0  # atno 6908 bound_to 6896
  150.9343  134.8778  159.7631 H   0  0  0  0  0  0  0  0  0  0  0  0  # atno 6909 bound_to 6896
  146.1591  140.4672  142.8579 H   0  0  0  0  0  0  0  0  0  0  0  0  # atno 7974 bound_to 7965
  154.4060  140.1274  156.4653 H   0  0  0  0  0  0  0  0  0  0  0  0  # atno 8008 bound_to 7997
  155.7233  140.3492  155.5006 H   0  0  0  0  0  0  0  0  0  0  0  0  # atno 8009 bound_to 7997
  155.9194  140.1050  157.1208 H   0  0  0  0  0  0  0  0  0  0  0  0  # atno 8010 bound_to 7997
  140.0049  143.5502  152.2288 H   0  0  0  0  0  0  0  0  0  0  0  0  # atno 10167 bound_to 10162
  157.5554  130.8796  149.9027 H   0  0  0  0  0  0  0  0  0  0  0  0  # atno 10718 bound_to 10713
  154.4414  135.2762  155.1845 H   0  0  0  0  0  0  0  0  0  0  0  0  # atno 10763 bound_to 10752
  154.3709  135.6109  153.5743 H   0  0  0  0  0  0  0  0  0  0  0  0  # atno 10764 bound_to 10752
  152.9841  135.5857  154.4743 H   0  0  0  0  0  0  0  0  0  0  0  0  # atno 10765 bound_to 10752
  139.9270  134.7653  156.1476 H   0  0  0  0  0  0  0  0  0  0  0  0  # atno 11005 bound_to 11000
  144.8002  140.6199  143.6483 LP  0  0  0  0  0  0  0  0  0  0  0  0  # atno 17320 bound_to 7965
  145.4634  139.1510  143.3854 LP  0  0  0  0  0  0  0  0  0  0  0  0  # atno 17321 bound_to 7965
  139.6245  144.7635  151.2667 LP  0  0  0  0  0  0  0  0  0  0  0  0  # atno 17342 bound_to 10162
  140.7404  143.6588  150.8183 LP  0  0  0  0  0  0  0  0  0  0  0  0  # atno 17343 bound_to 10162
  156.0613  130.3699  150.0975 LP  0  0  0  0  0  0  0  0  0  0  0  0  # atno 17370 bound_to 10713
  156.9144  130.9662  151.3558 LP  0  0  0  0  0  0  0  0  0  0  0  0  # atno 17371 bound_to 10713
  141.0834  133.6744  156.2385 LP  0  0  0  0  0  0  0  0  0  0  0  0  # atno 17394 bound_to 11000
  140.6308  134.5266  157.5559 LP  0  0  0  0  0  0  0  0  0  0  0  0  # atno 17395 bound_to 11000

$$$$
