AV-unprocessed.smi:3061|AV-procd|sdf|11680|dock4
  -GOLD-   2272017 83D 1   1.00000     0.00000
 Structure written by MMmdl.
 35 36  0  0  0  0  0  0  0  0  1 V2000
  148.1231  141.1347  157.0362 C   0  0  0  0  0  0  0  0  0  0  0  0
  149.3897  140.3018  156.7884 C   0  0  1  0  0  0  0  0  0  0  0  0
  149.5680  139.9705  155.2943 C   0  0  0  0  0  0  0  0  0  0  0  0
  150.7386  139.1466  155.0507 N   0  0  0  0  0  0  0  0  0  0  0  0
  150.8466  137.8325  154.8498 C   0  0  0  0  0  0  0  0  0  0  0  0
  152.0936  137.4188  154.6724 N   0  0  0  0  0  0  0  0  0  0  0  0
  152.7482  138.6129  154.7840 C   0  0  0  0  0  0  0  0  0  0  0  0
  151.9823  139.6805  155.0096 N   0  0  0  0  0  0  0  0  0  0  0  0
  150.5606  141.0217  157.2846 N   0  0  0  0  0  0  0  0  0  0  0  0
  151.3701  140.6092  158.2715 C   0  0  0  0  0  0  0  0  0  0  0  0
  151.1894  139.5689  158.9054 O   0  0  0  0  0  0  0  0  0  0  0  0
  152.5722  141.5118  158.5895 C   0  0  2  0  0  0  0  0  0  0  0  0
  153.0842  141.2840  160.0267 C   0  0  0  0  0  0  0  0  0  0  0  0
  152.7725  142.5891  160.7398 C   0  0  0  0  0  0  0  0  0  0  0  0
  152.9576  142.7530  161.9447 O   0  0  0  0  0  0  0  0  0  0  0  0
  152.2780  143.4927  159.8894 N   0  0  0  0  0  0  0  0  0  0  0  0
  151.8621  144.8461  160.2312 C   0  0  0  0  0  0  0  0  0  0  0  0
  152.2163  143.0131  158.5196 C   0  0  0  0  0  0  0  0  0  0  0  0
  147.2341  140.6072  156.6898 H   0  0  0  0  0  0  0  0  0  0  0  0
  148.1680  142.0909  156.5140 H   0  0  0  0  0  0  0  0  0  0  0  0
  147.9878  141.3406  158.0986 H   0  0  0  0  0  0  0  0  0  0  0  0
  149.2850  139.3593  157.3295 H   0  0  0  0  0  0  0  0  0  0  0  0
  148.6966  139.4287  154.9245 H   0  0  0  0  0  0  0  0  0  0  0  0
  149.6421  140.8833  154.7005 H   0  0  0  0  0  0  0  0  0  0  0  0
  149.9971  137.1652  154.8379 H   0  0  0  0  0  0  0  0  0  0  0  0
  153.8212  138.6981  154.6957 H   0  0  0  0  0  0  0  0  0  0  0  0
  150.7892  141.8882  156.8191 H   0  0  0  0  0  0  0  0  0  0  0  0
  153.3734  141.2985  157.8794 H   0  0  0  0  0  0  0  0  0  0  0  0
  152.6046  140.4470  160.5371 H   0  0  0  0  0  0  0  0  0  0  0  0
  154.1609  141.1119  160.0381 H   0  0  0  0  0  0  0  0  0  0  0  0
  151.0197  144.8222  160.9237 H   0  0  0  0  0  0  0  0  0  0  0  0
  151.5547  145.3986  159.3427 H   0  0  0  0  0  0  0  0  0  0  0  0
  152.6806  145.3921  160.7021 H   0  0  0  0  0  0  0  0  0  0  0  0
  152.9430  143.5557  157.9137 H   0  0  0  0  0  0  0  0  0  0  0  0
  151.2286  143.2000  158.0944 H   0  0  0  0  0  0  0  0  0  0  0  0
  1  2  1  0  0  0  0
  1 19  1  0  0  0  0
  1 20  1  0  0  0  0
  1 21  1  0  0  0  0
  2  3  1  0  0  0  0
  2  9  1  0  0  0  0
  2 22  1  0  0  0  0
  3  4  1  0  0  0  0
  3 23  1  0  0  0  0
  3 24  1  0  0  0  0
  4  8  1  0  0  0  0
  4  5  1  0  0  0  0
  5  6  2  0  0  0  0
  5 25  1  0  0  0  0
  6  7  1  0  0  0  0
  7  8  2  0  0  0  0
  7 26  1  0  0  0  0
  9 10  1  0  0  0  0
  9 27  1  0  0  0  0
 10 11  2  0  0  0  0
 10 12  1  0  0  0  0
 12 18  1  0  0  0  0
 12 13  1  0  0  0  0
 12 28  1  0  0  0  0
 13 14  1  0  0  0  0
 13 29  1  0  0  0  0
 13 30  1  0  0  0  0
 14 15  2  0  0  0  0
 14 16  1  0  0  0  0
 16 17  1  0  0  0  0
 16 18  1  0  0  0  0
 17 31  1  0  0  0  0
 17 32  1  0  0  0  0
 17 33  1  0  0  0  0
 18 34  1  0  0  0  0
 18 35  1  0  0  0  0
M  END
> <s_m_source_file>
AV-unprocessed.smi

> <i_m_source_file_index>
3061

> <i_lp_mmshare_version>
43012

> <i_f3d_flags>
0

> <s_epik_input>
bjFbY0hdbltjSF1uMVtDSDJdW0NAQEhdKFtDSDNdKVtOSF1DKD1PKVtDQEBIXTJbQ0gyXUMoPU8pTihbQ0gzXSlbQ0gyXTI=

> <s_epik_cmdline>
J2VwaWtfcHl0aG9uJywgJy1waCcsICc3LjAnLCAnLXRuJywgJzgnLCAnLW1hJywgJzIwMCcsICctbWV0YWxfYmluZGluZycsICctaW1hZScsICc8aW5maWxlLm1hZT4nLCAnLW9tYWUnLCAnPG91dGZpbGUubWFlPic=

> <r_lp_tautomer_probability>
1

> <r_epik_Ionization_Penalty>
4.97611e-05

> <r_epik_Ionization_Penalty_Charging>
0

> <r_epik_Ionization_Penalty_Neutral>
4.97611e-05

> <r_epik_State_Penalty>
-0

> <r_epik_Charging_Adjusted_Penalty>
0

> <i_epik_Tot_Q>
0

> <i_epik_Tot_abs_Q>
0

> <r_epik_Metal_State_Penalty>
-0

> <b_epik_Metal_Only>
0

> <s_lp_Force_Field>
OPLS_2005

> <r_lp_Energy>
12.6192

> <b_lp_Chiralities_Consistent>
1

> <s_lp_Variant>
AV-unprocessed.smi:3061-2

> <Gold.Version>
5.8.1

> <Gold.Id.Protein>
6NUR|6NUR_protein|mol2

> <Gold.PLP.Fitness>
41.4609

> <Gold.PLP.PLP>
-37.9780

> <Gold.PLP.part.hbond>
-2.0000

> <Gold.PLP.part.metal>
0.0000

> <Gold.PLP.part.buried>
-8.0906

> <Gold.PLP.part.nonpolar>
-29.1122

> <Gold.PLP.part.repulsive>
0.2528

> <Gold.PLP.ligand.clash>
0.0000

> <Gold.PLP.ligand.torsion>
0.9003

> <Gold.PLP.Chemscore.Hbond>
1.7529

> <Gold.PLP.Chemscore.CHOScore>
0.0000

> <Gold.PLP.Chemscore.Metal>
0.0000

> <Gold.Chemscore.Hbonds>
donor molecule, donor type, donor heavy atom, donor atom, acceptor molecule, acceptor atom, score
      P1  H  7989  7998       L1     8  0.78
      P1  H 10752 10764       L1     6  0.78

> <Gold.PLP.Chemscore.Internal.Correction>
0.0249

> <Gold.Rescore>
     Score         DG    S(hbond)    S(metal)    S(lipo)     H(rot)  DE(clash)    DE(int)     intcor
     10.20     -11.00       1.85        0.00      47.35       2.42       0.06       0.74       ----

> <Gold.Chemscore.Fitness>
10.1984

> <Gold.Chemscore.DG>
-10.9995

> <Gold.Chemscore.ZeroCoef>
-5.4800

> <Gold.Chemscore.Hbond>
1.8484

> <Gold.Chemscore.Metal>
0.0000

> <Gold.Chemscore.Lipo>
47.3536

> <Gold.Chemscore.Internal_Hbond>
0.0000

> <Gold.Chemscore.DEClash>
0.0638

> <Gold.Chemscore.DEInternal>
0.7373

> <Gold.Chemscore.Rot>
2.4197

> <Gold.Chemscore.Internal.Correction>
   9.000000E+99

> <Gold.Chemscore.Hbonds>
donor molecule, donor type, donor heavy atom, donor atom, acceptor molecule, acceptor atom, score
      P1  H  7989  7998       L1     8  0.12
      P1  H 10752 10764       L1     6  0.75

> <Gold.Chemscore.Hbond.Weighted>
-6.1736

> <Gold.Chemscore.Metal.Weighted>
-0.0000

> <Gold.Chemscore.Lipo.Weighted>
-5.5404

> <Gold.Chemscore.Internal_Hbond.Weighted>
0.0000

> <Gold.Chemscore.DEClash.Weighted>
0.0638

> <Gold.Chemscore.DEInternal.Weighted>
0.7373

> <Gold.Chemscore.Rot.Weighted>
6.1945

> <Gold.Chemscore.Internal.Correction.Weighted>
   9.000000E+99

> <Gold.Protein.RotatedTorsions>
[ 6907 6896 6895 6894 ] final  -17.83 input  -60.11 | X-H torsion
[ 7974 7965 7964 7962 ] final   28.33 input  175.53 | X-H torsion
[ 8008 7997 7996 7995 ] final  120.84 input   59.86 | X-H torsion
[ 10167 10162 10161 10158 ] final -169.51 input  -65.29 | X-H torsion
[ 10718 10713 10712 10709 ] final  -48.55 input   66.30 | X-H torsion
[ 10763 10752 10751 10750 ] final  -82.24 input  -60.55 | X-H torsion
[ 11005 11000 10999 10996 ] final   55.86 input  -57.11 | X-H torsion

> <Gold.Protein.ActiveResidues>
 VAL166  LYS551  ARG553  GLY616  TRP617  ASP618  TYR619  PRO620  LYS621  CYS622 
 ASP623  PHE694  ASN695  SER759  ASP760  ASP761  ALA762  ILE779  LEU786  VAL792 
 PHE793  MET794  SER795  GLU796  ALA797  LYS798  CYS799  TRP800  GLU811  SER814 

> <Gold.Protein.RotatedAtoms>
  151.2874  135.0732  159.9191 H   0  0  0  0  0  0  0  0  0  0  0  0  # atno 6907 bound_to 6896
  152.5323  133.9967  159.7886 H   0  0  0  0  0  0  0  0  0  0  0  0  # atno 6908 bound_to 6896
  151.0231  133.5807  159.2699 H   0  0  0  0  0  0  0  0  0  0  0  0  # atno 6909 bound_to 6896
  146.1735  139.7070  142.8951 H   0  0  0  0  0  0  0  0  0  0  0  0  # atno 7974 bound_to 7965
  156.2660  140.2822  156.1213 H   0  0  0  0  0  0  0  0  0  0  0  0  # atno 8008 bound_to 7997
  155.1152  140.0391  157.2752 H   0  0  0  0  0  0  0  0  0  0  0  0  # atno 8009 bound_to 7997
  154.6712  140.2588  155.7011 H   0  0  0  0  0  0  0  0  0  0  0  0  # atno 8010 bound_to 7997
  139.5918  144.1197  152.1643 H   0  0  0  0  0  0  0  0  0  0  0  0  # atno 10167 bound_to 10162
  156.1977  130.4155  149.9283 H   0  0  0  0  0  0  0  0  0  0  0  0  # atno 10718 bound_to 10713
  154.5733  135.5598  153.7116 H   0  0  0  0  0  0  0  0  0  0  0  0  # atno 10763 bound_to 10752
  153.0056  135.6302  154.2083 H   0  0  0  0  0  0  0  0  0  0  0  0  # atno 10764 bound_to 10752
  154.2023  135.2877  155.2966 H   0  0  0  0  0  0  0  0  0  0  0  0  # atno 10765 bound_to 10752
  140.0574  134.5650  155.9191 H   0  0  0  0  0  0  0  0  0  0  0  0  # atno 11005 bound_to 11000
  145.4277  141.0412  143.2928 LP  0  0  0  0  0  0  0  0  0  0  0  0  # atno 17320 bound_to 7965
  144.8199  139.5810  143.6991 LP  0  0  0  0  0  0  0  0  0  0  0  0  # atno 17321 bound_to 7965
  140.0773  144.5730  150.7148 LP  0  0  0  0  0  0  0  0  0  0  0  0  # atno 17342 bound_to 10162
  140.7179  143.2561  151.4374 LP  0  0  0  0  0  0  0  0  0  0  0  0  # atno 17343 bound_to 10162
  156.7003  130.8930  151.3598 LP  0  0  0  0  0  0  0  0  0  0  0  0  # atno 17370 bound_to 10713
  157.6967  130.9290  150.0666 LP  0  0  0  0  0  0  0  0  0  0  0  0  # atno 17371 bound_to 10713
  141.1958  133.6589  156.5661 LP  0  0  0  0  0  0  0  0  0  0  0  0  # atno 17394 bound_to 11000
  140.3823  134.7513  157.4669 LP  0  0  0  0  0  0  0  0  0  0  0  0  # atno 17395 bound_to 11000

$$$$
