AV-unprocessed.smi:2751|AV-procd|sdf|10599|dock1
  -GOLD-   2272015 53D 1   1.00000     0.00000
 Structure written by MMmdl.
 34 35  0  0  0  0  0  0  0  0  1 V2000
  150.9392  140.5110  155.2228 O   0  0  0  0  0  0  0  0  0  0  0  0
  150.1343  141.4391  155.3516 C   0  0  0  0  0  0  0  0  0  0  0  0
  150.2574  142.3409  156.3372 N   0  0  0  0  0  0  0  0  0  0  0  0
  151.3120  142.3557  157.3452 C   0  0  0  0  0  0  0  0  0  0  0  0
  150.9058  143.1782  158.5803 C   0  0  0  0  0  0  0  0  0  0  0  0
  152.0236  143.2682  159.6313 C   0  0  2  0  0  0  0  0  0  0  0  0
  152.6935  141.9023  159.8788 C   0  0  0  0  0  0  0  0  0  0  0  0
  153.7496  142.0122  160.9845 C   0  0  0  0  0  0  0  0  0  0  0  0
  153.1258  142.6410  162.2346 C   0  0  0  0  0  0  0  0  0  0  0  0
  152.4284  143.9627  161.8762 C   0  0  0  0  0  0  0  0  0  0  0  0
  151.4610  143.7390  160.8550 O   0  0  0  0  0  0  0  0  0  0  0  0
  149.0272  141.7379  154.5704 N   0  0  0  0  0  0  0  0  0  0  0  0
  148.3302  140.7762  154.0489 C   0  0  0  0  0  0  0  0  0  0  0  0
  147.2019  140.8859  153.2517 N   0  0  0  0  0  0  0  0  0  0  0  0
  146.7914  139.6247  152.9185 C   0  0  0  0  0  0  0  0  0  0  0  0
  147.6255  138.7557  153.4822 C   0  0  0  0  0  0  0  0  0  0  0  0
  148.5804  139.4296  154.1817 O   0  0  0  0  0  0  0  0  0  0  0  0
  149.5687  143.0776  156.3894 H   0  0  0  0  0  0  0  0  0  0  0  0
  151.5713  141.3351  157.6315 H   0  0  0  0  0  0  0  0  0  0  0  0
  152.2046  142.7842  156.8886 H   0  0  0  0  0  0  0  0  0  0  0  0
  150.6089  144.1821  158.2735 H   0  0  0  0  0  0  0  0  0  0  0  0
  150.0256  142.7252  159.0383 H   0  0  0  0  0  0  0  0  0  0  0  0
  152.7749  143.9799  159.2837 H   0  0  0  0  0  0  0  0  0  0  0  0
  151.9394  141.1684  160.1664 H   0  0  0  0  0  0  0  0  0  0  0  0
  153.1540  141.5344  158.9614 H   0  0  0  0  0  0  0  0  0  0  0  0
  154.1621  141.0301  161.2169 H   0  0  0  0  0  0  0  0  0  0  0  0
  154.5804  142.6285  160.6383 H   0  0  0  0  0  0  0  0  0  0  0  0
  152.3992  141.9525  162.6680 H   0  0  0  0  0  0  0  0  0  0  0  0
  153.8898  142.8099  162.9941 H   0  0  0  0  0  0  0  0  0  0  0  0
  151.9257  144.3706  162.7533 H   0  0  0  0  0  0  0  0  0  0  0  0
  153.1529  144.7099  161.5486 H   0  0  0  0  0  0  0  0  0  0  0  0
  146.7313  141.7251  152.9451 H   0  0  0  0  0  0  0  0  0  0  0  0
  145.9211  139.4801  152.2955 H   0  0  0  0  0  0  0  0  0  0  0  0
  147.6730  137.6767  153.4807 H   0  0  0  0  0  0  0  0  0  0  0  0
  1  2  2  0  0  0  0
  2 12  1  0  0  0  0
  2  3  1  0  0  0  0
  3  4  1  0  0  0  0
  3 18  1  0  0  0  0
  4  5  1  0  0  0  0
  4 19  1  0  0  0  0
  4 20  1  0  0  0  0
  5  6  1  0  0  0  0
  5 21  1  0  0  0  0
  5 22  1  0  0  0  0
  6 11  1  0  0  0  0
  6  7  1  0  0  0  0
  6 23  1  0  0  0  0
  7  8  1  0  0  0  0
  7 24  1  0  0  0  0
  7 25  1  0  0  0  0
  8  9  1  0  0  0  0
  8 26  1  0  0  0  0
  8 27  1  0  0  0  0
  9 10  1  0  0  0  0
  9 28  1  0  0  0  0
  9 29  1  0  0  0  0
 10 11  1  0  0  0  0
 10 30  1  0  0  0  0
 10 31  1  0  0  0  0
 12 13  2  0  0  0  0
 13 17  1  0  0  0  0
 13 14  1  0  0  0  0
 14 32  1  0  0  0  0
 14 15  1  0  0  0  0
 15 33  1  0  0  0  0
 15 16  2  0  0  0  0
 16 34  1  0  0  0  0
 16 17  1  0  0  0  0
M  END
> <s_m_source_file>
AV-unprocessed.smi

> <i_m_source_file_index>
2751

> <i_lp_mmshare_version>
43012

> <i_f3d_flags>
0

> <s_epik_input>
bzFbY0hdW2NIXW5jMVtOSF1DKD1PKVtOSF1bQ0gyXVtDSDJdW0NAQEhdMltDSDJdW0NIMl1bQ0gyXVtDSDJdTzI=

> <s_epik_cmdline>
J2VwaWtfcHl0aG9uJywgJy1waCcsICc3LjAnLCAnLXRuJywgJzgnLCAnLW1hJywgJzIwMCcsICctbWV0YWxfYmluZGluZycsICctaW1hZScsICc8aW5maWxlLm1hZT4nLCAnLW9tYWUnLCAnPG91dGZpbGUubWFlPic=

> <r_lp_tautomer_probability>
0.107061

> <r_epik_Ionization_Penalty>
1.421

> <r_epik_Ionization_Penalty_Charging>
1.42064

> <r_epik_Ionization_Penalty_Neutral>
0.0003614

> <r_epik_State_Penalty>
2.61489

> <r_epik_Charging_Adjusted_Penalty>
4.03553

> <i_epik_Tot_Q>
0

> <i_epik_Tot_abs_Q>
0

> <r_epik_Metal_State_Penalty>
3.57288

> <b_epik_Metal_Only>
0

> <s_lp_Force_Field>
OPLS_2005

> <r_lp_Energy>
32.3985

> <b_lp_Chiralities_Consistent>
1

> <s_lp_Variant>
AV-unprocessed.smi:2751-5

> <Gold.Version>
5.8.1

> <Gold.Id.Protein>
6NUR|6NUR_protein|mol2

> <Gold.PLP.Fitness>
48.0450

> <Gold.PLP.PLP>
-37.3825

> <Gold.PLP.part.hbond>
-3.2762

> <Gold.PLP.part.metal>
0.0000

> <Gold.PLP.part.buried>
-4.0848

> <Gold.PLP.part.nonpolar>
-29.8445

> <Gold.PLP.part.repulsive>
0.6478

> <Gold.PLP.ligand.clash>
0.0000

> <Gold.PLP.ligand.torsion>
0.4910

> <Gold.PLP.Chemscore.Hbond>
1.9520

> <Gold.PLP.Chemscore.CHOScore>
1.9268

> <Gold.PLP.Chemscore.Metal>
0.0000

> <Gold.Chemscore.Hbonds>
donor molecule, donor type, donor heavy atom, donor atom, acceptor molecule, acceptor atom, score
      L1  H     3    18       P1  8028  0.96
      P1  H  7989  7998       L1     1  0.98
      L1  C    15    33       P1 10175  1.00
      L1  C    16    34       P1  7948  0.92

> <Gold.PLP.Chemscore.Internal.Correction>
0.0081

> <Gold.Rescore>
     Score         DG    S(hbond)    S(metal)    S(lipo)     H(rot)  DE(clash)    DE(int)     intcor
     14.60     -16.62       1.52        0.00      87.45       1.63       0.14       1.88       ----

> <Gold.Chemscore.Fitness>
14.6048

> <Gold.Chemscore.DG>
-16.6190

> <Gold.Chemscore.ZeroCoef>
-5.4800

> <Gold.Chemscore.Hbond>
1.5231

> <Gold.Chemscore.Metal>
0.0000

> <Gold.Chemscore.Lipo>
87.4507

> <Gold.Chemscore.Internal_Hbond>
0.0000

> <Gold.Chemscore.DEClash>
0.1360

> <Gold.Chemscore.DEInternal>
1.8782

> <Gold.Chemscore.Rot>
1.6328

> <Gold.Chemscore.Internal.Correction>
   9.000000E+99

> <Gold.Chemscore.Hbonds>
donor molecule, donor type, donor heavy atom, donor atom, acceptor molecule, acceptor atom, score
      L1  H     3    18       P1  8028  0.92
      P1  H  7989  7998       L1     1  0.28

> <Gold.Chemscore.Hbond.Weighted>
-5.0872

> <Gold.Chemscore.Metal.Weighted>
-0.0000

> <Gold.Chemscore.Lipo.Weighted>
-10.2317

> <Gold.Chemscore.Internal_Hbond.Weighted>
0.0000

> <Gold.Chemscore.DEClash.Weighted>
0.1360

> <Gold.Chemscore.DEInternal.Weighted>
1.8782

> <Gold.Chemscore.Rot.Weighted>
4.1799

> <Gold.Chemscore.Internal.Correction.Weighted>
   9.000000E+99

> <Gold.Protein.RotatedTorsions>
[ 6907 6896 6895 6894 ] final   97.10 input  -60.11 | X-H torsion
[ 7974 7965 7964 7962 ] final   20.97 input  175.53 | X-H torsion
[ 8008 7997 7996 7995 ] final   -3.08 input   59.86 | X-H torsion
[ 10167 10162 10161 10158 ] final -122.71 input  -65.29 | X-H torsion
[ 10718 10713 10712 10709 ] final -129.47 input   66.30 | X-H torsion
[ 10763 10752 10751 10750 ] final  110.63 input  -60.55 | X-H torsion
[ 11005 11000 10999 10996 ] final   44.49 input  -57.11 | X-H torsion

> <Gold.Protein.ActiveResidues>
 VAL166  LYS551  ARG553  GLY616  TRP617  ASP618  TYR619  PRO620  LYS621  CYS622 
 ASP623  PHE694  ASN695  SER759  ASP760  ASP761  ALA762  ILE779  LEU786  VAL792 
 PHE793  MET794  SER795  GLU796  ALA797  LYS798  CYS799  TRP800  GLU811  SER814 

> <Gold.Protein.RotatedAtoms>
  152.5427  134.0784  159.8224 H   0  0  0  0  0  0  0  0  0  0  0  0  # atno 6907 bound_to 6896
  151.0889  133.5324  159.2623 H   0  0  0  0  0  0  0  0  0  0  0  0  # atno 6908 bound_to 6896
  151.2122  135.0494  159.8970 H   0  0  0  0  0  0  0  0  0  0  0  0  # atno 6909 bound_to 6896
  146.2090  139.8093  142.8703 H   0  0  0  0  0  0  0  0  0  0  0  0  # atno 7974 bound_to 7965
  154.6288  140.2518  155.7459 H   0  0  0  0  0  0  0  0  0  0  0  0  # atno 8008 bound_to 7997
  156.2468  140.2911  156.0550 H   0  0  0  0  0  0  0  0  0  0  0  0  # atno 8009 bound_to 7997
  155.1778  140.0388  157.2866 H   0  0  0  0  0  0  0  0  0  0  0  0  # atno 8010 bound_to 7997
  140.0113  143.5439  152.2262 H   0  0  0  0  0  0  0  0  0  0  0  0  # atno 10167 bound_to 10162
  156.2049  130.6881  151.0583 H   0  0  0  0  0  0  0  0  0  0  0  0  # atno 10718 bound_to 10713
  153.4517  135.3742  155.2287 H   0  0  0  0  0  0  0  0  0  0  0  0  # atno 10763 bound_to 10752
  154.8756  135.3887  154.4031 H   0  0  0  0  0  0  0  0  0  0  0  0  # atno 10764 bound_to 10752
  153.4591  135.7086  153.6125 H   0  0  0  0  0  0  0  0  0  0  0  0  # atno 10765 bound_to 10752
  140.1547  134.4417  155.8358 H   0  0  0  0  0  0  0  0  0  0  0  0  # atno 11005 bound_to 11000
  145.3212  141.0244  143.3499 LP  0  0  0  0  0  0  0  0  0  0  0  0  # atno 17320 bound_to 7965
  144.8865  139.4832  143.6698 LP  0  0  0  0  0  0  0  0  0  0  0  0  # atno 17321 bound_to 7965
  139.6203  144.7628  151.2755 LP  0  0  0  0  0  0  0  0  0  0  0  0  # atno 17342 bound_to 10162
  140.7380  143.6661  150.8122 LP  0  0  0  0  0  0  0  0  0  0  0  0  # atno 17343 bound_to 10162
  157.7007  131.0777  150.6830 LP  0  0  0  0  0  0  0  0  0  0  0  0  # atno 17370 bound_to 10713
  156.6888  130.4589  149.5606 LP  0  0  0  0  0  0  0  0  0  0  0  0  # atno 17371 bound_to 10713
  141.2203  133.6887  156.7485 LP  0  0  0  0  0  0  0  0  0  0  0  0  # atno 17394 bound_to 11000
  140.2562  134.8502  157.3715 LP  0  0  0  0  0  0  0  0  0  0  0  0  # atno 17395 bound_to 11000

$$$$
