AV-unprocessed.smi:2478|AV-procd|sdf|9766|dock4
  -GOLD-   2272013413D 1   1.00000     0.00000
 Structure written by MMmdl.
 42 43  0  0  0  0  0  0  0  0  1 V2000
  145.3187  140.5690  155.3035 C   0  0  0  0  0  0  0  0  0  0  0  0
  146.6885  140.4432  154.6167 C   0  0  1  0  0  0  0  0  0  0  0  0
  147.5996  141.6263  155.0030 C   0  0  0  0  0  0  0  0  0  0  0  0
  148.9840  141.5213  154.3452 C   0  0  0  0  0  0  0  0  0  0  0  0
  149.6579  140.1859  154.6888 C   0  0  0  0  0  0  0  0  0  0  0  0
  148.7641  139.0033  154.2901 C   0  0  0  0  0  0  0  0  0  0  0  0
  147.3718  139.0973  154.9487 C   0  0  2  0  0  0  0  0  0  0  0  0
  146.5546  138.0479  154.4467 O   0  0  0  0  0  0  0  0  0  0  0  0
  146.2912  138.1323  153.0533 C   0  0  0  0  0  0  0  0  0  0  0  0
  145.4254  136.9430  152.6477 C   0  0  0  0  0  0  0  0  0  0  0  0
  144.2365  136.9188  152.9654 O   0  0  0  0  0  0  0  0  0  0  0  0
  146.0614  135.9744  151.9636 N   0  0  0  0  0  0  0  0  0  0  0  0
  145.5384  134.7531  151.4590 C   0  0  0  0  0  0  0  0  0  0  0  0
  144.5787  134.6979  150.5018 N   0  0  0  0  0  0  0  0  0  0  0  0
  144.1393  133.4970  150.0744 C   0  0  0  0  0  0  0  0  0  0  0  0
  144.6314  132.2785  150.5723 C   0  0  0  0  0  0  0  0  0  0  0  0
  145.6254  132.3211  151.5652 C   0  0  0  0  0  0  0  0  0  0  0  0
  146.0862  133.5764  152.0291 C   0  0  0  0  0  0  0  0  0  0  0  0
  147.0688  133.6895  152.9891 O   0  0  0  0  0  0  0  0  0  0  0  0
  148.1557  132.8756  152.9222 C   0  0  0  0  0  0  0  0  0  0  0  0
  149.1880  133.4061  153.6225 F   0  0  0  0  0  0  0  0  0  0  0  0
  147.8610  131.6731  153.4722 F   0  0  0  0  0  0  0  0  0  0  0  0
  145.4143  140.5198  156.3886 H   0  0  0  0  0  0  0  0  0  0  0  0
  144.6433  139.7713  154.9932 H   0  0  0  0  0  0  0  0  0  0  0  0
  144.8405  141.5167  155.0548 H   0  0  0  0  0  0  0  0  0  0  0  0
  146.5246  140.4847  153.5387 H   0  0  0  0  0  0  0  0  0  0  0  0
  147.1310  142.5676  154.7138 H   0  0  0  0  0  0  0  0  0  0  0  0
  147.7171  141.6618  156.0870 H   0  0  0  0  0  0  0  0  0  0  0  0
  148.8834  141.6133  153.2629 H   0  0  0  0  0  0  0  0  0  0  0  0
  149.6139  142.3502  154.6691 H   0  0  0  0  0  0  0  0  0  0  0  0
  150.6200  140.1129  154.1810 H   0  0  0  0  0  0  0  0  0  0  0  0
  149.8671  140.1436  155.7584 H   0  0  0  0  0  0  0  0  0  0  0  0
  148.6534  138.9837  153.2048 H   0  0  0  0  0  0  0  0  0  0  0  0
  149.2562  138.0705  154.5647 H   0  0  0  0  0  0  0  0  0  0  0  0
  147.4703  139.0185  156.0335 H   0  0  0  0  0  0  0  0  0  0  0  0
  145.7628  139.0526  152.8034 H   0  0  0  0  0  0  0  0  0  0  0  0
  147.2273  138.1228  152.4927 H   0  0  0  0  0  0  0  0  0  0  0  0
  147.0416  136.1323  151.7802 H   0  0  0  0  0  0  0  0  0  0  0  0
  143.3756  133.5087  149.3109 H   0  0  0  0  0  0  0  0  0  0  0  0
  144.2583  131.3360  150.1998 H   0  0  0  0  0  0  0  0  0  0  0  0
  146.0260  131.3975  151.9557 H   0  0  0  0  0  0  0  0  0  0  0  0
  148.4684  132.7033  151.8919 H   0  0  0  0  0  0  0  0  0  0  0  0
  1  2  1  0  0  0  0
  1 23  1  0  0  0  0
  1 24  1  0  0  0  0
  1 25  1  0  0  0  0
  2  7  1  0  0  0  0
  2  3  1  0  0  0  0
  2 26  1  0  0  0  0
  3  4  1  0  0  0  0
  3 27  1  0  0  0  0
  3 28  1  0  0  0  0
  4  5  1  0  0  0  0
  4 29  1  0  0  0  0
  4 30  1  0  0  0  0
  5  6  1  0  0  0  0
  5 31  1  0  0  0  0
  5 32  1  0  0  0  0
  6  7  1  0  0  0  0
  6 33  1  0  0  0  0
  6 34  1  0  0  0  0
  7  8  1  0  0  0  0
  7 35  1  0  0  0  0
  8  9  1  0  0  0  0
  9 10  1  0  0  0  0
  9 36  1  0  0  0  0
  9 37  1  0  0  0  0
 10 11  2  0  0  0  0
 10 12  1  0  0  0  0
 12 13  1  0  0  0  0
 12 38  1  0  0  0  0
 13 18  1  0  0  0  0
 13 14  2  0  0  0  0
 14 15  1  0  0  0  0
 15 16  2  0  0  0  0
 15 39  1  0  0  0  0
 16 17  1  0  0  0  0
 16 40  1  0  0  0  0
 17 18  2  0  0  0  0
 17 41  1  0  0  0  0
 18 19  1  0  0  0  0
 19 20  1  0  0  0  0
 20 21  1  0  0  0  0
 20 22  1  0  0  0  0
 20 42  1  0  0  0  0
M  END
> <s_m_source_file>
AV-unprocessed.smi

> <i_m_source_file_index>
2478

> <i_lp_mmshare_version>
43012

> <i_f3d_flags>
0

> <s_epik_input>
W0NIM11bQ0BASF0xW0NIMl1bQ0gyXVtDSDJdW0NIMl1bQ0BIXTFPW0NIMl1DKD1PKVtOSF1jMm5bY0hdW2NIXVtjSF1jMk9bQ0hdKEYpRg==

> <s_epik_cmdline>
J2VwaWtfcHl0aG9uJywgJy1waCcsICc3LjAnLCAnLXRuJywgJzgnLCAnLW1hJywgJzIwMCcsICctbWV0YWxfYmluZGluZycsICctaW1hZScsICc8aW5maWxlLm1hZT4nLCAnLW9tYWUnLCAnPG91dGZpbGUubWFlPic=

> <r_lp_tautomer_probability>
1

> <r_epik_Ionization_Penalty>
6.06012e-05

> <r_epik_Ionization_Penalty_Charging>
0

> <r_epik_Ionization_Penalty_Neutral>
6.06012e-05

> <r_epik_State_Penalty>
-0

> <r_epik_Charging_Adjusted_Penalty>
0

> <i_epik_Tot_Q>
0

> <i_epik_Tot_abs_Q>
0

> <r_epik_Metal_State_Penalty>
-0

> <b_epik_Metal_Only>
0

> <s_lp_Force_Field>
OPLS_2005

> <r_lp_Energy>
13.1013

> <b_lp_Chiralities_Consistent>
1

> <s_lp_Variant>
AV-unprocessed.smi:2478-4

> <Gold.Version>
5.8.1

> <Gold.Id.Protein>
6NUR|6NUR_protein|mol2

> <Gold.PLP.Fitness>
38.5035

> <Gold.PLP.PLP>
-34.9595

> <Gold.PLP.part.hbond>
-1.0000

> <Gold.PLP.part.metal>
0.0000

> <Gold.PLP.part.buried>
-4.4610

> <Gold.PLP.part.nonpolar>
-30.8172

> <Gold.PLP.part.repulsive>
0.6377

> <Gold.PLP.ligand.clash>
0.0000

> <Gold.PLP.ligand.torsion>
1.2184

> <Gold.PLP.Chemscore.Hbond>
1.0000

> <Gold.PLP.Chemscore.CHOScore>
0.9679

> <Gold.PLP.Chemscore.Metal>
0.0000

> <Gold.Chemscore.Hbonds>
donor molecule, donor type, donor heavy atom, donor atom, acceptor molecule, acceptor atom, score
      L1  H    12    38       P1  7948  1.00
      L1  C    15    39       P1 10186  0.90

> <Gold.PLP.Chemscore.Internal.Correction>
0.0772

> <Gold.Rescore>
     Score         DG    S(hbond)    S(metal)    S(lipo)     H(rot)  DE(clash)    DE(int)     intcor
     11.90     -13.12       1.00        0.00      77.17       1.85       0.04       1.18       ----

> <Gold.Chemscore.Fitness>
11.8995

> <Gold.Chemscore.DG>
-13.1169

> <Gold.Chemscore.ZeroCoef>
-5.4800

> <Gold.Chemscore.Hbond>
0.9997

> <Gold.Chemscore.Metal>
0.0000

> <Gold.Chemscore.Lipo>
77.1712

> <Gold.Chemscore.Internal_Hbond>
0.0000

> <Gold.Chemscore.DEClash>
0.0358

> <Gold.Chemscore.DEInternal>
1.1816

> <Gold.Chemscore.Rot>
1.8481

> <Gold.Chemscore.Internal.Correction>
   9.000000E+99

> <Gold.Chemscore.Hbonds>
donor molecule, donor type, donor heavy atom, donor atom, acceptor molecule, acceptor atom, score
      L1  H    12    38       P1  7948  1.00

> <Gold.Chemscore.Hbond.Weighted>
-3.3390

> <Gold.Chemscore.Metal.Weighted>
-0.0000

> <Gold.Chemscore.Lipo.Weighted>
-9.0290

> <Gold.Chemscore.Internal_Hbond.Weighted>
0.0000

> <Gold.Chemscore.DEClash.Weighted>
0.0358

> <Gold.Chemscore.DEInternal.Weighted>
1.1816

> <Gold.Chemscore.Rot.Weighted>
4.7311

> <Gold.Chemscore.Internal.Correction.Weighted>
   9.000000E+99

> <Gold.Protein.RotatedTorsions>
[ 6907 6896 6895 6894 ] final  -55.94 input  -60.11 | X-H torsion
[ 7974 7965 7964 7962 ] final  -51.44 input  175.53 | X-H torsion
[ 8008 7997 7996 7995 ] final   37.82 input   59.86 | X-H torsion
[ 10167 10162 10161 10158 ] final -133.26 input  -65.29 | X-H torsion
[ 10718 10713 10712 10709 ] final -122.87 input   66.30 | X-H torsion
[ 10763 10752 10751 10750 ] final -104.74 input  -60.55 | X-H torsion
[ 11005 11000 10999 10996 ] final -131.02 input  -57.11 | X-H torsion

> <Gold.Protein.ActiveResidues>
 VAL166  LYS551  ARG553  GLY616  TRP617  ASP618  TYR619  PRO620  LYS621  CYS622 
 ASP623  PHE694  ASN695  SER759  ASP760  ASP761  ALA762  ILE779  LEU786  VAL792 
 PHE793  MET794  SER795  GLU796  ALA797  LYS798  CYS799  TRP800  GLU811  SER814 

> <Gold.Protein.RotatedAtoms>
  150.8209  134.7416  159.6771 H   0  0  0  0  0  0  0  0  0  0  0  0  # atno 6907 bound_to 6896
  152.4325  134.5748  159.9941 H   0  0  0  0  0  0  0  0  0  0  0  0  # atno 6908 bound_to 6896
  151.5932  133.3327  159.3068 H   0  0  0  0  0  0  0  0  0  0  0  0  # atno 6909 bound_to 6896
  145.9189  140.7851  142.9657 H   0  0  0  0  0  0  0  0  0  0  0  0  # atno 7974 bound_to 7965
  155.2100  140.3322  155.4330 H   0  0  0  0  0  0  0  0  0  0  0  0  # atno 8008 bound_to 7997
  156.2374  140.1879  156.7130 H   0  0  0  0  0  0  0  0  0  0  0  0  # atno 8009 bound_to 7997
  154.6084  140.0612  156.9447 H   0  0  0  0  0  0  0  0  0  0  0  0  # atno 8010 bound_to 7997
  139.9001  143.6617  152.2596 H   0  0  0  0  0  0  0  0  0  0  0  0  # atno 10167 bound_to 10162
  156.1454  130.6496  150.9835 H   0  0  0  0  0  0  0  0  0  0  0  0  # atno 10718 bound_to 10713
  154.7899  135.4775  154.0029 H   0  0  0  0  0  0  0  0  0  0  0  0  # atno 10763 bound_to 10752
  153.1615  135.6809  153.8743 H   0  0  0  0  0  0  0  0  0  0  0  0  # atno 10764 bound_to 10752
  153.8355  135.3186  155.3400 H   0  0  0  0  0  0  0  0  0  0  0  0  # atno 10765 bound_to 10752
  140.9295  134.1338  157.4247 H   0  0  0  0  0  0  0  0  0  0  0  0  # atno 11005 bound_to 11000
  144.6751  140.1944  143.7393 LP  0  0  0  0  0  0  0  0  0  0  0  0  # atno 17320 bound_to 7965
  145.8575  139.2206  143.1736 LP  0  0  0  0  0  0  0  0  0  0  0  0  # atno 17321 bound_to 7965
  139.7032  144.7632  151.1237 LP  0  0  0  0  0  0  0  0  0  0  0  0  # atno 17342 bound_to 10162
  140.7708  143.5429  150.9292 LP  0  0  0  0  0  0  0  0  0  0  0  0  # atno 17343 bound_to 10162
  157.6612  131.0880  150.7834 LP  0  0  0  0  0  0  0  0  0  0  0  0  # atno 17370 bound_to 10713
  156.7906  130.4888  149.5385 LP  0  0  0  0  0  0  0  0  0  0  0  0  # atno 17371 bound_to 10713
  139.8793  135.0000  156.5985 LP  0  0  0  0  0  0  0  0  0  0  0  0  # atno 17394 bound_to 11000
  140.7881  133.8604  155.8623 LP  0  0  0  0  0  0  0  0  0  0  0  0  # atno 17395 bound_to 11000

$$$$
