AV-unprocessed.smi:160|AV-procd|sdf|1347|dock9
  -GOLD-   2262019 53D 1   1.00000     0.00000
 Structure written by MMmdl.
 29 30  0  0  0  0  0  0  0  0  1 V2000
  151.7293  140.3928  158.0285 N   0  0  0  0  0  0  0  0  0  0  0  0
  152.2016  139.3887  157.2834 C   0  0  0  0  0  0  0  0  0  0  0  0
  153.2247  138.7729  157.5785 O   0  0  0  0  0  0  0  0  0  0  0  0
  151.4067  139.0487  156.0534 C   0  0  0  0  0  0  0  0  0  0  0  0
  151.3462  137.7766  155.5550 N   0  0  0  0  0  0  0  0  0  0  0  0
  150.5499  137.9992  154.5175 C   0  0  0  0  0  0  0  0  0  0  0  0
  150.1828  139.2781  154.3720 N   0  0  0  0  0  0  0  0  0  0  0  0
  149.2566  139.9241  153.3901 C   0  0  2  0  0  0  0  0  0  0  0  0
  149.1771  141.2861  153.6966 O   0  0  0  0  0  0  0  0  0  0  0  0
  147.9449  141.5972  154.3438 C   0  0  2  0  0  0  0  0  0  0  0  0
  148.0845  141.4395  155.8758 C   0  0  0  0  0  0  0  0  0  0  0  0
  149.1037  142.2906  156.3545 O   0  0  0  0  0  0  0  0  0  0  0  0
  146.9874  140.6062  153.6666 C   0  0  2  0  0  0  0  0  0  0  0  0
  145.8208  140.3556  154.4253 O   0  0  0  0  0  0  0  0  0  0  0  0
  147.8307  139.3485  153.4972 C   0  0  1  0  0  0  0  0  0  0  0  0
  147.4475  138.6722  152.3170 O   0  0  0  0  0  0  0  0  0  0  0  0
  150.7153  139.9826  155.4010 N   0  0  0  0  0  0  0  0  0  0  0  0
  149.7377  139.7736  152.4226 H   0  0  0  0  0  0  0  0  0  0  0  0
  147.6475  142.6206  154.1112 H   0  0  0  0  0  0  0  0  0  0  0  0
  146.7038  141.0063  152.6914 H   0  0  0  0  0  0  0  0  0  0  0  0
  147.7430  138.6972  154.3687 H   0  0  0  0  0  0  0  0  0  0  0  0
  152.2173  140.6707  158.8672 H   0  0  0  0  0  0  0  0  0  0  0  0
  150.8845  140.8676  157.7446 H   0  0  0  0  0  0  0  0  0  0  0  0
  150.2297  137.2139  153.8482 H   0  0  0  0  0  0  0  0  0  0  0  0
  147.1662  141.7460  156.3763 H   0  0  0  0  0  0  0  0  0  0  0  0
  148.2752  140.4109  156.1777 H   0  0  0  0  0  0  0  0  0  0  0  0
  148.7970  143.1831  156.3054 H   0  0  0  0  0  0  0  0  0  0  0  0
  145.0723  140.6303  153.9177 H   0  0  0  0  0  0  0  0  0  0  0  0
  148.0726  137.9824  152.1522 H   0  0  0  0  0  0  0  0  0  0  0  0
  1  2  1  0  0  0  0
  1 22  1  0  0  0  0
  1 23  1  0  0  0  0
  2  3  2  0  0  0  0
  2  4  1  0  0  0  0
  4 17  2  0  0  0  0
  4  5  1  0  0  0  0
  5  6  2  0  0  0  0
  6  7  1  0  0  0  0
  6 24  1  0  0  0  0
  7  8  1  0  0  0  0
  7 17  1  0  0  0  0
  8 18  1  0  0  0  0
  8 15  1  0  0  0  0
  8  9  1  0  0  0  0
  9 10  1  0  0  0  0
 10 19  1  0  0  0  0
 10 11  1  0  0  0  0
 10 13  1  0  0  0  0
 11 12  1  0  0  0  0
 11 25  1  0  0  0  0
 11 26  1  0  0  0  0
 12 27  1  0  0  0  0
 13 20  1  0  0  0  0
 13 14  1  0  0  0  0
 13 15  1  0  0  0  0
 14 28  1  0  0  0  0
 15 21  1  0  0  0  0
 15 16  1  0  0  0  0
 16 29  1  0  0  0  0
M  END
> <s_m_source_file>
AV-unprocessed.smi

> <i_m_source_file_index>
160

> <i_lp_mmshare_version>
43012

> <i_f3d_flags>
0

> <s_epik_input>
W05IMl1DKD1PKWMxbltjSF1uKG4xKVtDQEBIXTJPW0NASF0oW0NIMl1bT0hdKVtDQEBIXShbT0hdKVtDQEhdMltPSF0=

> <s_epik_cmdline>
J2VwaWtfcHl0aG9uJywgJy1waCcsICc3LjAnLCAnLXRuJywgJzgnLCAnLW1hJywgJzIwMCcsICctbWV0YWxfYmluZGluZycsICctaW1hZScsICc8aW5maWxlLm1hZT4nLCAnLW9tYWUnLCAnPG91dGZpbGUubWFlPic=

> <r_lp_tautomer_probability>
1

> <r_epik_Ionization_Penalty>
1.06932e-05

> <r_epik_Ionization_Penalty_Charging>
0

> <r_epik_Ionization_Penalty_Neutral>
1.06932e-05

> <r_epik_State_Penalty>
-0

> <r_epik_Charging_Adjusted_Penalty>
0

> <i_epik_Tot_Q>
0

> <i_epik_Tot_abs_Q>
0

> <r_epik_Metal_State_Penalty>
0.0142097

> <b_epik_Metal_Only>
0

> <s_epik_Chemistry_Notes>
This compound contains an acetal/aminal-like group ( X-CH(R)-Y where X, Y are N, S, or O) that may be acid/base labile, releasing an aldehyde.

> <s_lp_Force_Field>
OPLS_2005

> <r_lp_Energy>
36.3531

> <b_lp_Chiralities_Consistent>
1

> <s_lp_Variant>
AV-unprocessed.smi:160-5

> <Gold.Version>
5.8.1

> <Gold.Id.Protein>
6NUR|6NUR_protein|mol2

> <Gold.PLP.Fitness>
39.2367

> <Gold.PLP.PLP>
-22.0274

> <Gold.PLP.part.hbond>
-7.5239

> <Gold.PLP.part.metal>
0.0000

> <Gold.PLP.part.buried>
2.8875

> <Gold.PLP.part.nonpolar>
-19.8753

> <Gold.PLP.part.repulsive>
2.2175

> <Gold.PLP.ligand.clash>
0.0000

> <Gold.PLP.ligand.torsion>
0.4377

> <Gold.PLP.Chemscore.Hbond>
4.8960

> <Gold.PLP.Chemscore.CHOScore>
1.1134

> <Gold.PLP.Chemscore.Metal>
0.0000

> <Gold.Chemscore.Hbonds>
donor molecule, donor type, donor heavy atom, donor atom, acceptor molecule, acceptor atom, score
      L1  H    12    27       P1  8028  1.00
      L1  H    14    28       P1 10175  1.00
      L1  H    16    29       P1  7948  1.00
      P1  H  7997  8010       L1     3  0.95
      P1  H  8011  8017       L1     9  0.88
      L1  C     6    24       P1  7948  1.00
      L1  C     6    24       P1  7949  0.09

> <Gold.PLP.Chemscore.Internal.Correction>
0.0565

> <Gold.Rescore>
     Score         DG    S(hbond)    S(metal)    S(lipo)     H(rot)  DE(clash)    DE(int)     intcor
      7.43     -12.90       4.49        0.00      23.98       4.06       3.42       2.04       ----

> <Gold.Chemscore.Fitness>
7.4318

> <Gold.Chemscore.DG>
-12.8960

> <Gold.Chemscore.ZeroCoef>
-5.4800

> <Gold.Chemscore.Hbond>
4.4923

> <Gold.Chemscore.Metal>
0.0000

> <Gold.Chemscore.Lipo>
23.9785

> <Gold.Chemscore.Internal_Hbond>
0.0000

> <Gold.Chemscore.DEClash>
3.4216

> <Gold.Chemscore.DEInternal>
2.0426

> <Gold.Chemscore.Rot>
4.0600

> <Gold.Chemscore.Internal.Correction>
   9.000000E+99

> <Gold.Chemscore.Hbonds>
donor molecule, donor type, donor heavy atom, donor atom, acceptor molecule, acceptor atom, score
      L1  H    12    27       P1  8028  0.94
      L1  H    14    28       P1 10175  0.94
      L1  H    16    29       P1  7948  0.99
      P1  H  7997  8010       L1     3  0.21
      P1  H  8011  8017       L1     9  0.74

> <Gold.Chemscore.Hbond.Weighted>
-15.0041

> <Gold.Chemscore.Metal.Weighted>
-0.0000

> <Gold.Chemscore.Lipo.Weighted>
-2.8055

> <Gold.Chemscore.Internal_Hbond.Weighted>
0.0000

> <Gold.Chemscore.DEClash.Weighted>
3.4216

> <Gold.Chemscore.DEInternal.Weighted>
2.0426

> <Gold.Chemscore.Rot.Weighted>
10.3936

> <Gold.Chemscore.Internal.Correction.Weighted>
   9.000000E+99

> <Gold.Protein.RotatedTorsions>
[ 6907 6896 6895 6894 ] final   30.22 input  -60.11 | X-H torsion
[ 7974 7965 7964 7962 ] final  104.17 input  175.53 | X-H torsion
[ 8008 7997 7996 7995 ] final   42.58 input   59.86 | X-H torsion
[ 10167 10162 10161 10158 ] final  -98.78 input  -65.29 | X-H torsion
[ 10718 10713 10712 10709 ] final   23.88 input   66.30 | X-H torsion
[ 10763 10752 10751 10750 ] final  116.72 input  -60.55 | X-H torsion
[ 11005 11000 10999 10996 ] final -176.71 input  -57.11 | X-H torsion

> <Gold.Protein.ActiveResidues>
 VAL166  LYS551  ARG553  GLY616  TRP617  ASP618  TYR619  PRO620  LYS621  CYS622 
 ASP623  PHE694  ASN695  SER759  ASP760  ASP761  ALA762  ILE779  LEU786  VAL792 
 PHE793  MET794  SER795  GLU796  ALA797  LYS798  CYS799  TRP800  GLU811  SER814 

> <Gold.Protein.RotatedAtoms>
  152.0428  134.9701  160.0573 H   0  0  0  0  0  0  0  0  0  0  0  0  # atno 6907 bound_to 6896
  152.1133  133.4308  159.4649 H   0  0  0  0  0  0  0  0  0  0  0  0  # atno 6908 bound_to 6896
  150.6844  134.2541  159.4566 H   0  0  0  0  0  0  0  0  0  0  0  0  # atno 6909 bound_to 6896
  145.3363  139.2473  143.3633 H   0  0  0  0  0  0  0  0  0  0  0  0  # atno 7974 bound_to 7965
  155.2885  140.3377  155.4254 H   0  0  0  0  0  0  0  0  0  0  0  0  # atno 8008 bound_to 7997
  156.2057  140.1750  156.7845 H   0  0  0  0  0  0  0  0  0  0  0  0  # atno 8009 bound_to 7997
  154.5617  140.0686  156.8814 H   0  0  0  0  0  0  0  0  0  0  0  0  # atno 8010 bound_to 7997
  140.2694  143.3354  152.0549 H   0  0  0  0  0  0  0  0  0  0  0  0  # atno 10167 bound_to 10162
  157.1721  130.6764  149.6081 H   0  0  0  0  0  0  0  0  0  0  0  0  # atno 10718 bound_to 10713
  153.5414  135.3558  155.2720 H   0  0  0  0  0  0  0  0  0  0  0  0  # atno 10763 bound_to 10752
  154.8717  135.4092  154.3039 H   0  0  0  0  0  0  0  0  0  0  0  0  # atno 10764 bound_to 10752
  153.3747  135.7066  153.6679 H   0  0  0  0  0  0  0  0  0  0  0  0  # atno 10765 bound_to 10752
  140.4490  134.6361  157.4792 H   0  0  0  0  0  0  0  0  0  0  0  0  # atno 11005 bound_to 11000
  146.3025  140.3951  142.8699 LP  0  0  0  0  0  0  0  0  0  0  0  0  # atno 17320 bound_to 7965
  144.8825  140.7418  143.5978 LP  0  0  0  0  0  0  0  0  0  0  0  0  # atno 17321 bound_to 7965
  139.4993  144.6666  151.6341 LP  0  0  0  0  0  0  0  0  0  0  0  0  # atno 17342 bound_to 10162
  140.5902  143.9793  150.6320 LP  0  0  0  0  0  0  0  0  0  0  0  0  # atno 17343 bound_to 10162
  155.9737  130.4675  150.6328 LP  0  0  0  0  0  0  0  0  0  0  0  0  # atno 17370 bound_to 10713
  157.4033  131.0813  151.1288 LP  0  0  0  0  0  0  0  0  0  0  0  0  # atno 17371 bound_to 10713
  140.0019  134.6823  155.9516 LP  0  0  0  0  0  0  0  0  0  0  0  0  # atno 17394 bound_to 11000
  141.1672  133.6537  156.4523 LP  0  0  0  0  0  0  0  0  0  0  0  0  # atno 17395 bound_to 11000

$$$$
