AV-unprocessed.smi:3059|AV-procd|sdf|11677|dock5
  -GOLD-   2272017 83D 1   1.00000     0.00000
 Structure written by MMmdl.
 42 43  0  0  0  0  0  0  0  0  1 V2000
  144.2866  131.6709  150.6359 C   0  0  0  0  0  0  0  0  0  0  0  0
  144.8242  133.0814  150.9006 C   0  0  0  0  0  0  0  0  0  0  0  0
  145.8583  133.1224  151.9766 C   0  0  0  0  0  0  0  0  0  0  0  0
  145.6627  133.0036  153.3302 C   0  0  0  0  0  0  0  0  0  0  0  0
  146.8380  133.0857  154.0789 N   0  0  0  0  0  0  0  0  0  0  0  0
  147.9202  133.2535  153.3158 C   0  0  0  0  0  0  0  0  0  0  0  0
  149.3014  133.4144  153.8648 C   0  0  0  0  0  0  0  0  0  0  0  0
  149.4030  134.4389  155.0115 C   0  0  0  0  0  0  0  0  0  0  0  0
  149.8211  135.7627  154.5609 N   0  0  0  0  0  0  0  0  0  0  0  0
  150.8869  136.4424  155.0170 C   0  0  0  0  0  0  0  0  0  0  0  0
  151.6394  135.9834  155.8775 O   0  0  0  0  0  0  0  0  0  0  0  0
  151.0666  137.6588  154.4414 N   0  0  0  0  0  0  0  0  0  0  0  0
  150.0041  138.4632  153.8152 C   0  0  0  0  0  0  0  0  0  0  0  0
  149.1652  139.2320  154.8563 C   0  0  0  0  0  0  0  0  0  0  0  0
  149.9402  139.7706  156.0792 C   0  0  0  0  0  0  0  0  0  0  0  0
  151.3334  140.3553  155.7764 C   0  0  0  0  0  0  0  0  0  0  0  0
  152.4495  139.2907  155.7077 C   0  0  0  0  0  0  0  0  0  0  0  0
  152.3621  138.3497  154.4926 C   0  0  0  0  0  0  0  0  0  0  0  0
  147.5486  133.3390  151.5987 S   0  0  0  0  0  0  0  0  0  0  0  0
  143.5302  131.6840  149.8512 H   0  0  0  0  0  0  0  0  0  0  0  0
  143.8295  131.2506  151.5324 H   0  0  0  0  0  0  0  0  0  0  0  0
  145.0832  130.9973  150.3187 H   0  0  0  0  0  0  0  0  0  0  0  0
  145.2453  133.4860  149.9797 H   0  0  0  0  0  0  0  0  0  0  0  0
  143.9955  133.7384  151.1669 H   0  0  0  0  0  0  0  0  0  0  0  0
  144.7241  132.8643  153.8458 H   0  0  0  0  0  0  0  0  0  0  0  0
  149.6504  132.4406  154.2114 H   0  0  0  0  0  0  0  0  0  0  0  0
  149.9673  133.7041  153.0515 H   0  0  0  0  0  0  0  0  0  0  0  0
  148.4575  134.5012  155.5519 H   0  0  0  0  0  0  0  0  0  0  0  0
  150.1459  134.0974  155.7328 H   0  0  0  0  0  0  0  0  0  0  0  0
  149.2516  136.2035  153.8534 H   0  0  0  0  0  0  0  0  0  0  0  0
  150.4409  139.1868  153.1265 H   0  0  0  0  0  0  0  0  0  0  0  0
  149.3582  137.8520  153.1832 H   0  0  0  0  0  0  0  0  0  0  0  0
  148.6708  140.0619  154.3505 H   0  0  0  0  0  0  0  0  0  0  0  0
  148.3610  138.5897  155.2165 H   0  0  0  0  0  0  0  0  0  0  0  0
  149.3270  140.5363  156.5551 H   0  0  0  0  0  0  0  0  0  0  0  0
  150.0451  138.9829  156.8249 H   0  0  0  0  0  0  0  0  0  0  0  0
  151.3095  140.9526  154.8644 H   0  0  0  0  0  0  0  0  0  0  0  0
  151.5888  141.0482  156.5786 H   0  0  0  0  0  0  0  0  0  0  0  0
  153.4147  139.7972  155.6804 H   0  0  0  0  0  0  0  0  0  0  0  0
  152.4506  138.7032  156.6267 H   0  0  0  0  0  0  0  0  0  0  0  0
  153.1848  137.6339  154.5269 H   0  0  0  0  0  0  0  0  0  0  0  0
  152.5318  138.9162  153.5765 H   0  0  0  0  0  0  0  0  0  0  0  0
  1  2  1  0  0  0  0
  1 20  1  0  0  0  0
  1 21  1  0  0  0  0
  1 22  1  0  0  0  0
  2  3  1  0  0  0  0
  2 23  1  0  0  0  0
  2 24  1  0  0  0  0
  3 19  1  0  0  0  0
  3  4  2  0  0  0  0
  4  5  1  0  0  0  0
  4 25  1  0  0  0  0
  5  6  2  0  0  0  0
  6  7  1  0  0  0  0
  6 19  1  0  0  0  0
  7  8  1  0  0  0  0
  7 26  1  0  0  0  0
  7 27  1  0  0  0  0
  8  9  1  0  0  0  0
  8 28  1  0  0  0  0
  8 29  1  0  0  0  0
  9 10  1  0  0  0  0
  9 30  1  0  0  0  0
 10 11  2  0  0  0  0
 10 12  1  0  0  0  0
 12 18  1  0  0  0  0
 12 13  1  0  0  0  0
 13 14  1  0  0  0  0
 13 31  1  0  0  0  0
 13 32  1  0  0  0  0
 14 15  1  0  0  0  0
 14 33  1  0  0  0  0
 14 34  1  0  0  0  0
 15 16  1  0  0  0  0
 15 35  1  0  0  0  0
 15 36  1  0  0  0  0
 16 17  1  0  0  0  0
 16 37  1  0  0  0  0
 16 38  1  0  0  0  0
 17 18  1  0  0  0  0
 17 39  1  0  0  0  0
 17 40  1  0  0  0  0
 18 41  1  0  0  0  0
 18 42  1  0  0  0  0
M  END
> <s_m_source_file>
AV-unprocessed.smi

> <i_m_source_file_index>
3059

> <i_lp_mmshare_version>
43012

> <i_f3d_flags>
0

> <s_epik_input>
W0NIM11bQ0gyXWMxW2NIXW5jKHMxKVtDSDJdW0NIMl1bTkhdQyg9TylOMltDSDJdW0NIMl1bQ0gyXVtDSDJdW0NIMl1bQ0gyXTI=

> <s_epik_cmdline>
J2VwaWtfcHl0aG9uJywgJy1waCcsICc3LjAnLCAnLXRuJywgJzgnLCAnLW1hJywgJzIwMCcsICctbWV0YWxfYmluZGluZycsICctaW1hZScsICc8aW5maWxlLm1hZT4nLCAnLW9tYWUnLCAnPG91dGZpbGUubWFlPic=

> <r_epik_Ionization_Penalty>
0.000969859

> <r_epik_Ionization_Penalty_Charging>
0

> <r_epik_Ionization_Penalty_Neutral>
0.000969859

> <r_epik_State_Penalty>
0.000588571

> <r_epik_Charging_Adjusted_Penalty>
0.000588571

> <i_epik_Tot_Q>
0

> <i_epik_Tot_abs_Q>
0

> <r_epik_Metal_State_Penalty>
-0

> <b_epik_Metal_Only>
0

> <s_lp_Force_Field>
OPLS_2005

> <r_lp_Energy>
18.9175

> <b_lp_Chiralities_Consistent>
1

> <s_lp_Variant>
AV-unprocessed.smi:3059-1

> <Gold.Version>
5.8.1

> <Gold.Id.Protein>
6NUR|6NUR_protein|mol2

> <Gold.PLP.Fitness>
41.7465

> <Gold.PLP.PLP>
-34.8430

> <Gold.PLP.part.hbond>
-2.0000

> <Gold.PLP.part.metal>
0.0000

> <Gold.PLP.part.buried>
0.0651

> <Gold.PLP.part.nonpolar>
-32.7060

> <Gold.PLP.part.repulsive>
0.1457

> <Gold.PLP.ligand.clash>
0.0000

> <Gold.PLP.ligand.torsion>
0.7362

> <Gold.PLP.Chemscore.Hbond>
1.7840

> <Gold.PLP.Chemscore.CHOScore>
1.0000

> <Gold.PLP.Chemscore.Metal>
0.0000

> <Gold.Chemscore.Hbonds>
donor molecule, donor type, donor heavy atom, donor atom, acceptor molecule, acceptor atom, score
      L1  H     9    30       P1  7948  0.80
      P1  H 10752 10763       L1    11  1.00
      L1  C     4    25       P1 10957  1.00

> <Gold.PLP.Chemscore.Internal.Correction>
0.0240

> <Gold.Rescore>
     Score         DG    S(hbond)    S(metal)    S(lipo)     H(rot)  DE(clash)    DE(int)     intcor
     16.22     -17.11       1.48        0.00      86.80       1.35       0.21       0.68       ----

> <Gold.Chemscore.Fitness>
16.2182

> <Gold.Chemscore.DG>
-17.1069

> <Gold.Chemscore.ZeroCoef>
-5.4800

> <Gold.Chemscore.Hbond>
1.4787

> <Gold.Chemscore.Metal>
0.0000

> <Gold.Chemscore.Lipo>
86.8026

> <Gold.Chemscore.Internal_Hbond>
0.0000

> <Gold.Chemscore.DEClash>
0.2120

> <Gold.Chemscore.DEInternal>
0.6766

> <Gold.Chemscore.Rot>
1.3546

> <Gold.Chemscore.Internal.Correction>
   9.000000E+99

> <Gold.Chemscore.Hbonds>
donor molecule, donor type, donor heavy atom, donor atom, acceptor molecule, acceptor atom, score
      L1  H     9    30       P1  7948  0.70
      P1  H 10752 10763       L1    11  0.30

> <Gold.Chemscore.Hbond.Weighted>
-4.9388

> <Gold.Chemscore.Metal.Weighted>
-0.0000

> <Gold.Chemscore.Lipo.Weighted>
-10.1559

> <Gold.Chemscore.Internal_Hbond.Weighted>
0.0000

> <Gold.Chemscore.DEClash.Weighted>
0.2120

> <Gold.Chemscore.DEInternal.Weighted>
0.6766

> <Gold.Chemscore.Rot.Weighted>
3.4678

> <Gold.Chemscore.Internal.Correction.Weighted>
   9.000000E+99

> <Gold.Protein.RotatedTorsions>
[ 6907 6896 6895 6894 ] final   -4.04 input  -60.11 | X-H torsion
[ 7974 7965 7964 7962 ] final   97.57 input  175.53 | X-H torsion
[ 8008 7997 7996 7995 ] final -137.63 input   59.86 | X-H torsion
[ 10167 10162 10161 10158 ] final  -32.72 input  -65.29 | X-H torsion
[ 10718 10713 10712 10709 ] final -113.63 input   66.30 | X-H torsion
[ 10763 10752 10751 10750 ] final   77.30 input  -60.55 | X-H torsion
[ 11005 11000 10999 10996 ] final -156.87 input  -57.11 | X-H torsion

> <Gold.Protein.ActiveResidues>
 VAL166  LYS551  ARG553  GLY616  TRP617  ASP618  TYR619  PRO620  LYS621  CYS622 
 ASP623  PHE694  ASN695  SER759  ASP760  ASP761  ALA762  ILE779  LEU786  VAL792 
 PHE793  MET794  SER795  GLU796  ALA797  LYS798  CYS799  TRP800  GLU811  SER814 

> <Gold.Protein.RotatedAtoms>
  151.5041  135.1063  159.9836 H   0  0  0  0  0  0  0  0  0  0  0  0  # atno 6907 bound_to 6896
  152.4689  133.7982  159.6949 H   0  0  0  0  0  0  0  0  0  0  0  0  # atno 6908 bound_to 6896
  150.8688  133.7472  159.2994 H   0  0  0  0  0  0  0  0  0  0  0  0  # atno 6909 bound_to 6896
  145.4237  139.2318  143.3182 H   0  0  0  0  0  0  0  0  0  0  0  0  # atno 7974 bound_to 7965
  155.4150  140.0514  157.3029 H   0  0  0  0  0  0  0  0  0  0  0  0  # atno 8008 bound_to 7997
  154.4929  140.2127  155.9469 H   0  0  0  0  0  0  0  0  0  0  0  0  # atno 8009 bound_to 7997
  156.1366  140.3162  155.8435 H   0  0  0  0  0  0  0  0  0  0  0  0  # atno 8010 bound_to 7997
  140.7216  143.3674  151.1844 H   0  0  0  0  0  0  0  0  0  0  0  0  # atno 10167 bound_to 10162
  156.0778  130.5983  150.8667 H   0  0  0  0  0  0  0  0  0  0  0  0  # atno 10718 bound_to 10713
  153.0788  135.4919  154.8460 H   0  0  0  0  0  0  0  0  0  0  0  0  # atno 10763 bound_to 10752
  154.7123  135.3022  154.9179 H   0  0  0  0  0  0  0  0  0  0  0  0  # atno 10764 bound_to 10752
  153.9869  135.6783  153.4805 H   0  0  0  0  0  0  0  0  0  0  0  0  # atno 10765 bound_to 10752
  140.6708  134.4249  157.5231 H   0  0  0  0  0  0  0  0  0  0  0  0  # atno 11005 bound_to 11000
  146.2643  140.4964  142.8840 LP  0  0  0  0  0  0  0  0  0  0  0  0  # atno 17320 bound_to 7965
  144.8228  140.6579  143.6341 LP  0  0  0  0  0  0  0  0  0  0  0  0  # atno 17321 bound_to 7965
  139.7238  143.9181  152.2995 LP  0  0  0  0  0  0  0  0  0  0  0  0  # atno 17342 bound_to 10162
  139.8947  144.6946  150.8732 LP  0  0  0  0  0  0  0  0  0  0  0  0  # atno 17343 bound_to 10162
  157.5882  131.0945  150.9162 LP  0  0  0  0  0  0  0  0  0  0  0  0  # atno 17370 bound_to 10713
  156.9343  130.5361  149.5279 LP  0  0  0  0  0  0  0  0  0  0  0  0  # atno 17371 bound_to 10713
  139.8982  134.8619  156.2011 LP  0  0  0  0  0  0  0  0  0  0  0  0  # atno 17394 bound_to 11000
  141.0393  133.6946  156.1569 LP  0  0  0  0  0  0  0  0  0  0  0  0  # atno 17395 bound_to 11000

$$$$
