AV-unprocessed.smi:2524|AV-procd|sdf|9924|dock2
  -GOLD-   2272013563D 1   1.00000     0.00000
 Structure written by MMmdl.
 35 36  0  0  0  0  0  0  0  0  2 V2000
  154.1343  136.2538  164.1524 C   0  0  0  0  0  0  0  0  0  0  0  0
  153.6942  137.0124  163.1375 C   0  0  0  0  0  0  0  0  0  0  0  0
  154.1918  136.9083  161.7112 C   0  0  0  0  0  0  0  0  0  0  0  0
  153.5074  137.9269  160.7914 C   0  0  0  0  0  0  0  0  0  0  0  0
  154.2874  137.9372  159.1147 S   0  0  0  0  0  0  0  0  0  0  0  0
  155.4267  137.0064  159.1827 O   0  0  0  0  0  0  0  0  0  0  0  0
  153.2044  137.5793  158.1862 O   0  0  0  0  0  0  0  0  0  0  0  0
  154.7151  139.4956  158.9420 N   0  5  0  0  0  0  0  0  0  0  0  0
  153.9624  140.5626  159.5922 C   0  0  0  0  0  0  0  0  0  0  0  0
  152.6164  140.8534  158.8948 C   0  0  0  0  0  0  0  0  0  0  0  0
  152.2292  142.3046  159.0662 C   0  0  0  0  0  0  0  0  0  0  0  0
  151.5771  143.0178  158.0332 C   0  0  0  0  0  0  0  0  0  0  0  0
  151.2507  144.3730  158.2369 C   0  0  0  0  0  0  0  0  0  0  0  0
  151.5349  145.0414  159.3742 N   0  0  0  0  0  0  0  0  0  0  0  0
  152.1649  144.3660  160.3582 C   0  0  0  0  0  0  0  0  0  0  0  0
  152.5336  143.0103  160.2537 C   0  0  0  0  0  0  0  0  0  0  0  0
  152.2223  140.1698  157.5935 C   0  0  0  0  0  0  0  0  0  0  0  0
  151.4928  139.8271  158.8708 C   0  0  0  0  0  0  0  0  0  0  0  0
  154.8951  135.5021  164.0020 H   0  0  0  0  0  0  0  0  0  0  0  0
  153.7375  136.3767  165.1492 H   0  0  0  0  0  0  0  0  0  0  0  0
  152.9319  137.7544  163.3255 H   0  0  0  0  0  0  0  0  0  0  0  0
  155.2726  137.0536  161.6881 H   0  0  0  0  0  0  0  0  0  0  0  0
  154.0025  135.8958  161.3538 H   0  0  0  0  0  0  0  0  0  0  0  0
  152.4508  137.6882  160.6694 H   0  0  0  0  0  0  0  0  0  0  0  0
  153.5776  138.9286  161.2152 H   0  0  0  0  0  0  0  0  0  0  0  0
  153.7454  140.3191  160.6328 H   0  0  0  0  0  0  0  0  0  0  0  0
  154.5393  141.4877  159.6187 H   0  0  0  0  0  0  0  0  0  0  0  0
  151.3275  142.5314  157.1016 H   0  0  0  0  0  0  0  0  0  0  0  0
  150.7488  144.9358  157.4637 H   0  0  0  0  0  0  0  0  0  0  0  0
  152.3838  144.9237  161.2569 H   0  0  0  0  0  0  0  0  0  0  0  0
  153.0379  142.5181  161.0724 H   0  0  0  0  0  0  0  0  0  0  0  0
  151.6772  140.7561  156.8563 H   0  0  0  0  0  0  0  0  0  0  0  0
  152.8543  139.3881  157.1745 H   0  0  0  0  0  0  0  0  0  0  0  0
  151.6589  138.8262  159.2671 H   0  0  0  0  0  0  0  0  0  0  0  0
  150.4713  140.1898  158.9673 H   0  0  0  0  0  0  0  0  0  0  0  0
  1  2  2  0  0  0  0
  1 19  1  0  0  0  0
  1 20  1  0  0  0  0
  2  3  1  0  0  0  0
  2 21  1  0  0  0  0
  3  4  1  0  0  0  0
  3 22  1  0  0  0  0
  3 23  1  0  0  0  0
  4  5  1  0  0  0  0
  4 24  1  0  0  0  0
  4 25  1  0  0  0  0
  5  6  2  0  0  0  0
  5  7  2  0  0  0  0
  5  8  1  0  0  0  0
  8  9  1  0  0  0  0
  9 10  1  0  0  0  0
  9 26  1  0  0  0  0
  9 27  1  0  0  0  0
 10 18  1  0  0  0  0
 10 11  1  0  0  0  0
 10 17  1  0  0  0  0
 11 16  1  0  0  0  0
 11 12  2  0  0  0  0
 12 13  1  0  0  0  0
 12 28  1  0  0  0  0
 13 14  2  0  0  0  0
 13 29  1  0  0  0  0
 14 15  1  0  0  0  0
 15 16  2  0  0  0  0
 15 30  1  0  0  0  0
 16 31  1  0  0  0  0
 17 18  1  0  0  0  0
 17 32  1  0  0  0  0
 17 33  1  0  0  0  0
 18 34  1  0  0  0  0
 18 35  1  0  0  0  0
M  CHG  1   8  -1
M  END
> <s_m_source_file>
AV-unprocessed.smi

> <i_m_source_file_index>
2524

> <i_lp_mmshare_version>
43012

> <i_f3d_flags>
0

> <s_epik_input>
W0NIMl09W0NIXVtDSDJdW0NIMl1TKD1PKSg9TylbTkhdW0NIMl1DMShbQ0gyXVtDSDJdMSljMltjSF1bY0hdbltjSF1bY0hdMg==

> <s_epik_cmdline>
J2VwaWtfcHl0aG9uJywgJy1waCcsICc3LjAnLCAnLXRuJywgJzgnLCAnLW1hJywgJzIwMCcsICctbWV0YWxfYmluZGluZycsICctaW1hZScsICc8aW5maWxlLm1hZT4nLCAnLW9tYWUnLCAnPG91dGZpbGUubWFlPic=

> <r_epik_Ionization_Penalty>
6.82782

> <r_epik_Ionization_Penalty_Charging>
6.77146

> <r_epik_Ionization_Penalty_Neutral>
0.0563627

> <r_epik_State_Penalty>
6.80009

> <r_epik_Charging_Adjusted_Penalty>
13.5715

> <i_epik_Tot_Q>
-1

> <i_epik_Tot_abs_Q>
1

> <r_epik_Metal_State_Penalty>
2.75227

> <b_epik_Metal_Only>
1

> <s_lp_Force_Field>
OPLS_2005

> <r_lp_Energy>
12.2049

> <b_lp_Chiralities_Consistent>
1

> <s_lp_Variant>
AV-unprocessed.smi:2524-3

> <Gold.Version>
5.8.1

> <Gold.Id.Protein>
6NUR|6NUR_protein|mol2

> <Gold.PLP.Fitness>
46.2055

> <Gold.PLP.PLP>
-38.1876

> <Gold.PLP.part.hbond>
-1.0000

> <Gold.PLP.part.metal>
0.0000

> <Gold.PLP.part.buried>
-4.9252

> <Gold.PLP.part.nonpolar>
-32.6218

> <Gold.PLP.part.repulsive>
0.1022

> <Gold.PLP.ligand.clash>
0.0000

> <Gold.PLP.ligand.torsion>
1.7172

> <Gold.PLP.Chemscore.Hbond>
2.0000

> <Gold.PLP.Chemscore.CHOScore>
0.9990

> <Gold.PLP.Chemscore.Metal>
0.0000

> <Gold.Chemscore.Hbonds>
donor molecule, donor type, donor heavy atom, donor atom, acceptor molecule, acceptor atom, score
      P1  H  7997  8010       L1     8  2.00
      L1  C    13    29       P1  8028  0.94

> <Gold.PLP.Chemscore.Internal.Correction>
2.4553

> <Gold.Rescore>
     Score         DG    S(hbond)    S(metal)    S(lipo)     H(rot)  DE(clash)    DE(int)     intcor
     16.15     -17.98       0.87        0.00     116.92       1.59       0.05       1.78       ----

> <Gold.Chemscore.Fitness>
16.1520

> <Gold.Chemscore.DG>
-17.9841

> <Gold.Chemscore.ZeroCoef>
-5.4800

> <Gold.Chemscore.Hbond>
0.8672

> <Gold.Chemscore.Metal>
0.0000

> <Gold.Chemscore.Lipo>
116.9244

> <Gold.Chemscore.Internal_Hbond>
0.0000

> <Gold.Chemscore.DEClash>
0.0504

> <Gold.Chemscore.DEInternal>
1.7817

> <Gold.Chemscore.Rot>
1.5908

> <Gold.Chemscore.Internal.Correction>
   9.000000E+99

> <Gold.Chemscore.Hbonds>
donor molecule, donor type, donor heavy atom, donor atom, acceptor molecule, acceptor atom, score
      P1  H  7997  8010       L1     8  0.66

> <Gold.Chemscore.Hbond.Weighted>
-2.8963

> <Gold.Chemscore.Metal.Weighted>
-0.0000

> <Gold.Chemscore.Lipo.Weighted>
-13.6802

> <Gold.Chemscore.Internal_Hbond.Weighted>
0.0000

> <Gold.Chemscore.DEClash.Weighted>
0.0504

> <Gold.Chemscore.DEInternal.Weighted>
1.7817

> <Gold.Chemscore.Rot.Weighted>
4.0724

> <Gold.Chemscore.Internal.Correction.Weighted>
   9.000000E+99

> <Gold.Protein.RotatedTorsions>
[ 6907 6896 6895 6894 ] final  -65.49 input  -60.11 | X-H torsion
[ 7974 7965 7964 7962 ] final   -7.85 input  175.53 | X-H torsion
[ 8008 7997 7996 7995 ] final   -3.24 input   59.86 | X-H torsion
[ 10167 10162 10161 10158 ] final   39.69 input  -65.29 | X-H torsion
[ 10718 10713 10712 10709 ] final -129.53 input   66.30 | X-H torsion
[ 10763 10752 10751 10750 ] final   34.82 input  -60.55 | X-H torsion
[ 11005 11000 10999 10996 ] final   22.20 input  -57.11 | X-H torsion

> <Gold.Protein.ActiveResidues>
 VAL166  LYS551  ARG553  GLY616  TRP617  ASP618  TYR619  PRO620  LYS621  CYS622 
 ASP623  PHE694  ASN695  SER759  ASP760  ASP761  ALA762  ILE779  LEU786  VAL792 
 PHE793  MET794  SER795  GLU796  ALA797  LYS798  CYS799  TRP800  GLU811  SER814 

> <Gold.Protein.RotatedAtoms>
  150.7521  134.6153  159.6107 H   0  0  0  0  0  0  0  0  0  0  0  0  # atno 6907 bound_to 6896
  152.3475  134.7048  160.0255 H   0  0  0  0  0  0  0  0  0  0  0  0  # atno 6908 bound_to 6896
  151.7480  133.3289  159.3420 H   0  0  0  0  0  0  0  0  0  0  0  0  # atno 6909 bound_to 6896
  146.2296  140.2381  142.8342 H   0  0  0  0  0  0  0  0  0  0  0  0  # atno 7974 bound_to 7965
  154.6270  140.2514  155.7479 H   0  0  0  0  0  0  0  0  0  0  0  0  # atno 8008 bound_to 7997
  156.2459  140.2915  156.0524 H   0  0  0  0  0  0  0  0  0  0  0  0  # atno 8009 bound_to 7997
  155.1805  140.0389  157.2871 H   0  0  0  0  0  0  0  0  0  0  0  0  # atno 8010 bound_to 7997
  140.3815  144.1973  150.6130 H   0  0  0  0  0  0  0  0  0  0  0  0  # atno 10167 bound_to 10162
  156.2056  130.6885  151.0590 H   0  0  0  0  0  0  0  0  0  0  0  0  # atno 10718 bound_to 10713
  153.0147  135.6350  154.1729 H   0  0  0  0  0  0  0  0  0  0  0  0  # atno 10763 bound_to 10752
  154.1469  135.2831  155.3147 H   0  0  0  0  0  0  0  0  0  0  0  0  # atno 10764 bound_to 10752
  154.6083  135.5565  153.7507 H   0  0  0  0  0  0  0  0  0  0  0  0  # atno 10765 bound_to 10752
  140.3831  134.1899  155.7663 H   0  0  0  0  0  0  0  0  0  0  0  0  # atno 11005 bound_to 11000
  144.9506  140.8174  143.5574 LP  0  0  0  0  0  0  0  0  0  0  0  0  # atno 17320 bound_to 7965
  145.2341  139.2101  143.5027 LP  0  0  0  0  0  0  0  0  0  0  0  0  # atno 17321 bound_to 7965
  140.4932  143.2340  151.8787 LP  0  0  0  0  0  0  0  0  0  0  0  0  # atno 17342 bound_to 10162
  139.4795  144.5142  151.8891 LP  0  0  0  0  0  0  0  0  0  0  0  0  # atno 17343 bound_to 10162
  157.7010  131.0776  150.6819 LP  0  0  0  0  0  0  0  0  0  0  0  0  # atno 17370 bound_to 10713
  156.6878  130.4586  149.5609 LP  0  0  0  0  0  0  0  0  0  0  0  0  # atno 17371 bound_to 10713
  141.1916  133.8190  157.0871 LP  0  0  0  0  0  0  0  0  0  0  0  0  # atno 17394 bound_to 11000
  140.0463  134.9829  157.1055 LP  0  0  0  0  0  0  0  0  0  0  0  0  # atno 17395 bound_to 11000

$$$$
