AV-unprocessed.smi:3232|AV-procd|sdf|12343|dock4
  -GOLD-   2272018203D 1   1.00000     0.00000
 Structure written by MMmdl.
 40 41  0  0  0  0  0  0  0  0  2 V2000
  144.2689  132.5257  148.5154 C   0  0  0  0  0  0  0  0  0  0  0  0
  143.5389  132.2251  149.8312 C   0  0  0  0  0  0  0  0  0  0  0  0
  144.3498  132.5893  151.0182 N   0  3  2  0  0  0  0  0  0  0  0  0
  144.5896  134.0388  151.1836 C   0  0  0  0  0  0  0  0  0  0  0  0
  145.8528  134.1369  152.0293 C   0  0  0  0  0  0  0  0  0  0  0  0
  146.6906  132.9703  151.5204 C   0  0  0  0  0  0  0  0  0  0  0  0
  145.6636  131.9015  151.0940 C   0  0  1  0  0  0  0  0  0  0  0  0
  145.5828  130.7000  152.0594 C   0  0  0  0  0  0  0  0  0  0  0  0
  146.8926  130.1081  152.3033 N   0  0  0  0  0  0  0  0  0  0  0  0
  147.1115  128.9879  153.0103 C   0  0  0  0  0  0  0  0  0  0  0  0
  146.2156  128.3898  153.6075 O   0  0  0  0  0  0  0  0  0  0  0  0
  148.5570  128.4631  153.0180 C   0  0  1  0  0  0  0  0  0  0  0  0
  149.1833  128.4364  154.4272 C   0  0  0  0  0  0  0  0  0  0  0  0
  148.6194  127.1567  152.3724 N   0  0  0  0  0  0  0  0  0  0  0  0
  148.2417  126.7849  151.1472 C   0  0  0  0  0  0  0  0  0  0  0  0
  148.3911  125.4898  150.9073 N   0  0  0  0  0  0  0  0  0  0  0  0
  148.8989  125.0915  152.1112 C   0  0  0  0  0  0  0  0  0  0  0  0
  149.0443  126.0476  153.0284 N   0  0  0  0  0  0  0  0  0  0  0  0
  143.6299  132.3003  147.6613 H   0  0  0  0  0  0  0  0  0  0  0  0
  145.1750  131.9288  148.4112 H   0  0  0  0  0  0  0  0  0  0  0  0
  144.5482  133.5778  148.4509 H   0  0  0  0  0  0  0  0  0  0  0  0
  142.6113  132.7988  149.8527 H   0  0  0  0  0  0  0  0  0  0  0  0
  143.2570  131.1721  149.8790 H   0  0  0  0  0  0  0  0  0  0  0  0
  144.7652  134.5006  150.2105 H   0  0  0  0  0  0  0  0  0  0  0  0
  143.7392  134.5392  151.6478 H   0  0  0  0  0  0  0  0  0  0  0  0
  146.3578  135.0983  151.9305 H   0  0  0  0  0  0  0  0  0  0  0  0
  145.6094  133.9884  153.0821 H   0  0  0  0  0  0  0  0  0  0  0  0
  147.2630  133.2900  150.6484 H   0  0  0  0  0  0  0  0  0  0  0  0
  147.4079  132.6233  152.2649 H   0  0  0  0  0  0  0  0  0  0  0  0
  145.9426  131.5455  150.1003 H   0  0  0  0  0  0  0  0  0  0  0  0
  145.1706  131.0169  153.0178 H   0  0  0  0  0  0  0  0  0  0  0  0
  144.9054  129.9388  151.6682 H   0  0  0  0  0  0  0  0  0  0  0  0
  147.6831  130.5460  151.8524 H   0  0  0  0  0  0  0  0  0  0  0  0
  149.1488  129.1508  152.4118 H   0  0  0  0  0  0  0  0  0  0  0  0
  149.1923  129.4316  154.8730 H   0  0  0  0  0  0  0  0  0  0  0  0
  150.2164  128.0898  154.3860 H   0  0  0  0  0  0  0  0  0  0  0  0
  148.6406  127.7748  155.1040 H   0  0  0  0  0  0  0  0  0  0  0  0
  147.8385  127.4737  150.4191 H   0  0  0  0  0  0  0  0  0  0  0  0
  149.1597  124.0648  152.3218 H   0  0  0  0  0  0  0  0  0  0  0  0
  143.8375  132.2911  151.8360 H   0  0  0  0  0  0  0  0  0  0  0  0
  1  2  1  0  0  0  0
  1 19  1  0  0  0  0
  1 20  1  0  0  0  0
  1 21  1  0  0  0  0
  2  3  1  0  0  0  0
  2 22  1  0  0  0  0
  2 23  1  0  0  0  0
  3  7  1  0  0  0  0
  3  4  1  0  0  0  0
  3 40  1  0  0  0  0
  4  5  1  0  0  0  0
  4 24  1  0  0  0  0
  4 25  1  0  0  0  0
  5  6  1  0  0  0  0
  5 26  1  0  0  0  0
  5 27  1  0  0  0  0
  6  7  1  0  0  0  0
  6 28  1  0  0  0  0
  6 29  1  0  0  0  0
  7  8  1  0  0  0  0
  7 30  1  0  0  0  0
  8  9  1  0  0  0  0
  8 31  1  0  0  0  0
  8 32  1  0  0  0  0
  9 10  1  0  0  0  0
  9 33  1  0  0  0  0
 10 11  2  0  0  0  0
 10 12  1  0  0  0  0
 12 13  1  0  0  0  0
 12 14  1  0  0  0  0
 12 34  1  0  0  0  0
 13 35  1  0  0  0  0
 13 36  1  0  0  0  0
 13 37  1  0  0  0  0
 14 18  1  0  0  0  0
 14 15  1  0  0  0  0
 15 16  2  0  0  0  0
 15 38  1  0  0  0  0
 16 17  1  0  0  0  0
 17 18  2  0  0  0  0
 17 39  1  0  0  0  0
M  CHG  1   3   1
M  END
> <s_m_source_file>
AV-unprocessed.smi

> <i_m_source_file_index>
3232

> <i_lp_mmshare_version>
43012

> <i_f3d_flags>
0

> <s_epik_input>
W0NIM11bQ0gyXU4xW0NIMl1bQ0gyXVtDSDJdW0NASF0xW0NIMl1bTkhdQyg9TylbQ0BIXShbQ0gzXSluMltjSF1uW2NIXW4y

> <s_epik_cmdline>
J2VwaWtfcHl0aG9uJywgJy1waCcsICc3LjAnLCAnLXRuJywgJzgnLCAnLW1hJywgJzIwMCcsICctbWV0YWxfYmluZGluZycsICctaW1hZScsICc8aW5maWxlLm1hZT4nLCAnLW9tYWUnLCAnPG91dGZpbGUubWFlPic=

> <r_lp_tautomer_probability>
1

> <r_epik_Ionization_Penalty>
0.00177695

> <r_epik_Ionization_Penalty_Charging>
0.00176881

> <r_epik_Ionization_Penalty_Neutral>
8.13528e-06

> <r_epik_State_Penalty>
0.00119827

> <r_epik_Charging_Adjusted_Penalty>
0.00296709

> <i_epik_Tot_Q>
1

> <i_epik_Tot_abs_Q>
1

> <r_epik_Metal_State_Penalty>
-0

> <b_epik_Metal_Only>
0

> <s_lp_Force_Field>
OPLS_2005

> <r_lp_Energy>
32.1761

> <b_lp_Chiralities_Consistent>
1

> <s_lp_Variant>
AV-unprocessed.smi:3232-5

> <Gold.Version>
5.8.1

> <Gold.Id.Protein>
6NUR|6NUR_protein|mol2

> <Gold.PLP.Fitness>
38.1553

> <Gold.PLP.PLP>
-35.2362

> <Gold.PLP.part.hbond>
-1.0000

> <Gold.PLP.part.metal>
0.0000

> <Gold.PLP.part.buried>
-5.2547

> <Gold.PLP.part.nonpolar>
-29.0965

> <Gold.PLP.part.repulsive>
0.2792

> <Gold.PLP.ligand.clash>
0.0000

> <Gold.PLP.ligand.torsion>
0.1111

> <Gold.PLP.Chemscore.Hbond>
1.0000

> <Gold.PLP.Chemscore.CHOScore>
0.0000

> <Gold.PLP.Chemscore.Metal>
0.0000

> <Gold.Chemscore.Hbonds>
donor molecule, donor type, donor heavy atom, donor atom, acceptor molecule, acceptor atom, score
      L1  H     9    33       P1 10747  0.94

> <Gold.PLP.Chemscore.Internal.Correction>
0.1413

> <Gold.Rescore>
     Score         DG    S(hbond)    S(metal)    S(lipo)     H(rot)  DE(clash)    DE(int)     intcor
     10.44     -10.77       1.00        0.00      71.10       2.49       0.07       0.26       ----

> <Gold.Chemscore.Fitness>
10.4410

> <Gold.Chemscore.DG>
-10.7674

> <Gold.Chemscore.ZeroCoef>
-5.4800

> <Gold.Chemscore.Hbond>
0.9995

> <Gold.Chemscore.Metal>
0.0000

> <Gold.Chemscore.Lipo>
71.1004

> <Gold.Chemscore.Internal_Hbond>
0.0000

> <Gold.Chemscore.DEClash>
0.0689

> <Gold.Chemscore.DEInternal>
0.2575

> <Gold.Chemscore.Rot>
2.4882

> <Gold.Chemscore.Internal.Correction>
   9.000000E+99

> <Gold.Chemscore.Hbonds>
donor molecule, donor type, donor heavy atom, donor atom, acceptor molecule, acceptor atom, score
      L1  H     9    33       P1 10747  0.88

> <Gold.Chemscore.Hbond.Weighted>
-3.3384

> <Gold.Chemscore.Metal.Weighted>
-0.0000

> <Gold.Chemscore.Lipo.Weighted>
-8.3187

> <Gold.Chemscore.Internal_Hbond.Weighted>
0.0000

> <Gold.Chemscore.DEClash.Weighted>
0.0689

> <Gold.Chemscore.DEInternal.Weighted>
0.2575

> <Gold.Chemscore.Rot.Weighted>
6.3697

> <Gold.Chemscore.Internal.Correction.Weighted>
   9.000000E+99

> <Gold.Protein.RotatedTorsions>
[ 6907 6896 6895 6894 ] final   86.66 input  -60.11 | X-H torsion
[ 7974 7965 7964 7962 ] final  155.59 input  175.53 | X-H torsion
[ 8008 7997 7996 7995 ] final  164.79 input   59.86 | X-H torsion
[ 10167 10162 10161 10158 ] final  -59.53 input  -65.29 | X-H torsion
[ 10718 10713 10712 10709 ] final  -35.12 input   66.30 | X-H torsion
[ 10763 10752 10751 10750 ] final   35.82 input  -60.55 | X-H torsion
[ 11005 11000 10999 10996 ] final   10.83 input  -57.11 | X-H torsion

> <Gold.Protein.ActiveResidues>
 VAL166  LYS551  ARG553  GLY616  TRP617  ASP618  TYR619  PRO620  LYS621  CYS622 
 ASP623  PHE694  ASN695  SER759  ASP760  ASP761  ALA762  ILE779  LEU786  VAL792 
 PHE793  MET794  SER795  GLU796  ALA797  LYS798  CYS799  TRP800  GLU811  SER814 

> <Gold.Protein.RotatedAtoms>
  152.5398  134.2397  159.8856 H   0  0  0  0  0  0  0  0  0  0  0  0  # atno 6907 bound_to 6896
  151.2365  133.4416  159.2613 H   0  0  0  0  0  0  0  0  0  0  0  0  # atno 6908 bound_to 6896
  151.0667  134.9785  159.8344 H   0  0  0  0  0  0  0  0  0  0  0  0  # atno 6909 bound_to 6896
  144.8015  139.7088  143.6180 H   0  0  0  0  0  0  0  0  0  0  0  0  # atno 7974 bound_to 7965
  156.1852  140.1687  156.8199 H   0  0  0  0  0  0  0  0  0  0  0  0  # atno 8008 bound_to 7997
  154.5405  140.0737  156.8535 H   0  0  0  0  0  0  0  0  0  0  0  0  # atno 8009 bound_to 7997
  155.3223  140.3374  155.4243 H   0  0  0  0  0  0  0  0  0  0  0  0  # atno 8010 bound_to 7997
  140.6129  143.2393  151.5667 H   0  0  0  0  0  0  0  0  0  0  0  0  # atno 10167 bound_to 10162
  156.3424  130.4295  149.7775 H   0  0  0  0  0  0  0  0  0  0  0  0  # atno 10718 bound_to 10713
  153.0103  135.6323  154.1888 H   0  0  0  0  0  0  0  0  0  0  0  0  # atno 10763 bound_to 10752
  154.1630  135.2822  155.3105 H   0  0  0  0  0  0  0  0  0  0  0  0  # atno 10764 bound_to 10752
  154.5967  135.5600  153.7393 H   0  0  0  0  0  0  0  0  0  0  0  0  # atno 10765 bound_to 10752
  140.5101  134.0661  155.7816 H   0  0  0  0  0  0  0  0  0  0  0  0  # atno 11005 bound_to 11000
  146.2298  139.5791  142.9563 LP  0  0  0  0  0  0  0  0  0  0  0  0  # atno 17320 bound_to 7965
  145.5541  141.0410  143.2262 LP  0  0  0  0  0  0  0  0  0  0  0  0  # atno 17321 bound_to 7965
  139.5375  144.2739  152.1282 LP  0  0  0  0  0  0  0  0  0  0  0  0  # atno 17342 bound_to 10162
  140.1942  144.4722  150.6463 LP  0  0  0  0  0  0  0  0  0  0  0  0  # atno 17343 bound_to 10162
  156.5007  130.8127  151.3131 LP  0  0  0  0  0  0  0  0  0  0  0  0  # atno 17370 bound_to 10713
  157.7449  130.9945  150.2712 LP  0  0  0  0  0  0  0  0  0  0  0  0  # atno 17371 bound_to 10713
  141.1390  133.9171  157.2369 LP  0  0  0  0  0  0  0  0  0  0  0  0  # atno 17394 bound_to 11000
  139.9664  135.0141  156.9397 LP  0  0  0  0  0  0  0  0  0  0  0  0  # atno 17395 bound_to 11000

$$$$
