AV-unprocessed.smi:1707|AV-procd|sdf|6887|dock10
  -GOLD-   22720 8 93D 1   1.00000     0.00000
 Structure written by MMmdl.
 41 42  0  0  0  0  0  0  0  0  1 V2000
  150.4135  140.5377  158.9731 O   0  0  0  0  0  0  0  0  0  0  0  0
  151.2369  140.5028  158.0592 C   0  0  0  0  0  0  0  0  0  0  0  0
  152.5614  140.4764  158.2663 N   0  0  0  0  0  0  0  0  0  0  0  0
  153.2036  140.4863  159.5755 C   0  0  0  0  0  0  0  0  0  0  0  0
  153.9742  141.7964  159.8152 C   0  0  0  0  0  0  0  0  0  0  0  0
  153.0681  143.0156  159.8459 C   0  0  0  0  0  0  0  0  0  0  0  0
  152.6380  143.6140  158.7180 C   0  0  0  0  0  0  0  0  0  0  0  0
  151.7417  144.8398  158.6910 C   0  0  0  0  0  0  0  0  0  0  0  0
  151.6549  145.5328  160.0610 C   0  0  0  0  0  0  0  0  0  0  0  0
  151.4896  144.5079  161.1898 C   0  0  0  0  0  0  0  0  0  0  0  0
  152.6708  143.5216  161.2283 C   0  0  0  0  0  0  0  0  0  0  0  0
  150.9585  140.5002  156.7424 N   0  0  0  0  0  0  0  0  0  0  0  0
  149.7151  140.5114  156.0864 C   0  0  0  0  0  0  0  0  0  0  0  0
  148.5547  140.9827  156.6145 C   0  0  0  0  0  0  0  0  0  0  0  0
  147.3023  140.9516  155.8776 C   0  0  0  0  0  0  0  0  0  0  0  0
  146.0288  141.5525  156.4520 C   0  0  0  0  0  0  0  0  0  0  0  0
  145.5359  142.5011  155.6544 F   0  0  0  0  0  0  0  0  0  0  0  0
  145.1036  140.6042  156.5912 F   0  0  0  0  0  0  0  0  0  0  0  0
  146.2548  142.0899  157.6510 F   0  0  0  0  0  0  0  0  0  0  0  0
  147.3497  140.4391  154.6342 C   0  0  0  0  0  0  0  0  0  0  0  0
  148.5335  139.9360  154.0908 N   0  0  0  0  0  0  0  0  0  0  0  0
  149.7239  139.9350  154.7314 C   0  0  0  0  0  0  0  0  0  0  0  0
  150.7236  139.4733  154.1819 O   0  0  0  0  0  0  0  0  0  0  0  0
  148.4844  139.5543  153.1571 H   0  0  0  0  0  0  0  0  0  0  0  0
  153.1700  140.4503  157.4612 H   0  0  0  0  0  0  0  0  0  0  0  0
  152.4560  140.3230  160.3531 H   0  0  0  0  0  0  0  0  0  0  0  0
  153.8897  139.6402  159.6213 H   0  0  0  0  0  0  0  0  0  0  0  0
  154.5209  141.7279  160.7569 H   0  0  0  0  0  0  0  0  0  0  0  0
  154.7236  141.9451  159.0367 H   0  0  0  0  0  0  0  0  0  0  0  0
  152.9235  143.2152  157.7554 H   0  0  0  0  0  0  0  0  0  0  0  0
  152.1126  145.5408  157.9432 H   0  0  0  0  0  0  0  0  0  0  0  0
  150.7500  144.5240  158.3657 H   0  0  0  0  0  0  0  0  0  0  0  0
  152.5627  146.1122  160.2351 H   0  0  0  0  0  0  0  0  0  0  0  0
  150.8284  146.2437  160.0678 H   0  0  0  0  0  0  0  0  0  0  0  0
  151.3966  145.0135  162.1513 H   0  0  0  0  0  0  0  0  0  0  0  0
  150.5604  143.9572  161.0394 H   0  0  0  0  0  0  0  0  0  0  0  0
  152.4172  142.6757  161.8678 H   0  0  0  0  0  0  0  0  0  0  0  0
  153.5381  144.0073  161.6758 H   0  0  0  0  0  0  0  0  0  0  0  0
  151.7545  140.5169  156.1211 H   0  0  0  0  0  0  0  0  0  0  0  0
  148.5165  141.3841  157.6132 H   0  0  0  0  0  0  0  0  0  0  0  0
  146.5025  140.3799  153.9668 H   0  0  0  0  0  0  0  0  0  0  0  0
  1  2  2  0  0  0  0
  2  3  1  0  0  0  0
  2 12  1  0  0  0  0
  3  4  1  0  0  0  0
  3 25  1  0  0  0  0
  4  5  1  0  0  0  0
  4 26  1  0  0  0  0
  4 27  1  0  0  0  0
  5  6  1  0  0  0  0
  5 28  1  0  0  0  0
  5 29  1  0  0  0  0
  6 11  1  0  0  0  0
  6  7  2  0  0  0  0
  7  8  1  0  0  0  0
  7 30  1  0  0  0  0
  8  9  1  0  0  0  0
  8 31  1  0  0  0  0
  8 32  1  0  0  0  0
  9 10  1  0  0  0  0
  9 33  1  0  0  0  0
  9 34  1  0  0  0  0
 10 11  1  0  0  0  0
 10 35  1  0  0  0  0
 10 36  1  0  0  0  0
 11 37  1  0  0  0  0
 11 38  1  0  0  0  0
 12 13  1  0  0  0  0
 12 39  1  0  0  0  0
 13 22  1  0  0  0  0
 13 14  2  0  0  0  0
 14 15  1  0  0  0  0
 14 40  1  0  0  0  0
 15 16  1  0  0  0  0
 15 20  2  0  0  0  0
 16 17  1  0  0  0  0
 16 18  1  0  0  0  0
 16 19  1  0  0  0  0
 20 21  1  0  0  0  0
 20 41  1  0  0  0  0
 21 24  1  0  0  0  0
 21 22  1  0  0  0  0
 22 23  2  0  0  0  0
M  END
> <s_m_source_file>
AV-unprocessed.smi

> <i_m_source_file_index>
1707

> <i_lp_mmshare_version>
43012

> <i_f3d_flags>
0

> <s_epik_input>
Tz1jMVtuSF1bY0hdYyhDKEYpKEYpRilbY0hdYzFbTkhdQyg9TylbTkhdW0NIMl1bQ0gyXUMyPVtDSF1bQ0gyXVtDSDJdW0NIMl1bQ0gyXTI=

> <s_epik_cmdline>
J2VwaWtfcHl0aG9uJywgJy1waCcsICc3LjAnLCAnLXRuJywgJzgnLCAnLW1hJywgJzIwMCcsICctbWV0YWxfYmluZGluZycsICctaW1hZScsICc8aW5maWxlLm1hZT4nLCAnLW9tYWUnLCAnPG91dGZpbGUubWFlPic=

> <r_lp_tautomer_probability>
1

> <r_epik_Ionization_Penalty>
0.00382222

> <r_epik_Ionization_Penalty_Charging>
0.0038016

> <r_epik_Ionization_Penalty_Neutral>
2.06242e-05

> <r_epik_State_Penalty>
-0

> <r_epik_Charging_Adjusted_Penalty>
0.0038016

> <i_epik_Tot_Q>
0

> <i_epik_Tot_abs_Q>
0

> <r_epik_Metal_State_Penalty>
0.371215

> <b_epik_Metal_Only>
0

> <s_lp_Force_Field>
OPLS_2005

> <r_lp_Energy>
19.0753

> <b_lp_Chiralities_Consistent>
1

> <s_lp_Variant>
AV-unprocessed.smi:1707-1

> <Gold.Version>
5.8.1

> <Gold.Id.Protein>
6NUR|6NUR_protein|mol2

> <Gold.PLP.Fitness>
50.8709

> <Gold.PLP.PLP>
-47.2840

> <Gold.PLP.part.hbond>
-2.2927

> <Gold.PLP.part.metal>
0.0000

> <Gold.PLP.part.buried>
-3.4822

> <Gold.PLP.part.nonpolar>
-42.2060

> <Gold.PLP.part.repulsive>
0.6578

> <Gold.PLP.ligand.clash>
0.0000

> <Gold.PLP.ligand.torsion>
0.5135

> <Gold.PLP.Chemscore.Hbond>
1.5200

> <Gold.PLP.Chemscore.CHOScore>
0.0000

> <Gold.PLP.Chemscore.Metal>
0.0000

> <Gold.Chemscore.Hbonds>
donor molecule, donor type, donor heavy atom, donor atom, acceptor molecule, acceptor atom, score
      L1  H    21    24       P1  7957  0.15
      P1  H  7989  7998       L1    23  1.00

> <Gold.PLP.Chemscore.Internal.Correction>
0.0538

> <Gold.Rescore>
     Score         DG    S(hbond)    S(metal)    S(lipo)     H(rot)  DE(clash)    DE(int)     intcor
     15.20     -16.63       0.54        0.00     114.16       1.57       0.29       1.14       ----

> <Gold.Chemscore.Fitness>
15.1977

> <Gold.Chemscore.DG>
-16.6300

> <Gold.Chemscore.ZeroCoef>
-5.4800

> <Gold.Chemscore.Hbond>
0.5440

> <Gold.Chemscore.Metal>
0.0000

> <Gold.Chemscore.Lipo>
114.1595

> <Gold.Chemscore.Internal_Hbond>
0.0000

> <Gold.Chemscore.DEClash>
0.2940

> <Gold.Chemscore.DEInternal>
1.1383

> <Gold.Chemscore.Rot>
1.5717

> <Gold.Chemscore.Internal.Correction>
   9.000000E+99

> <Gold.Chemscore.Hbonds>
donor molecule, donor type, donor heavy atom, donor atom, acceptor molecule, acceptor atom, score
      L1  H    21    24       P1  7957  0.16
      P1  H  7989  7998       L1    23  0.60

> <Gold.Chemscore.Hbond.Weighted>
-1.8170

> <Gold.Chemscore.Metal.Weighted>
-0.0000

> <Gold.Chemscore.Lipo.Weighted>
-13.3567

> <Gold.Chemscore.Internal_Hbond.Weighted>
0.0000

> <Gold.Chemscore.DEClash.Weighted>
0.2940

> <Gold.Chemscore.DEInternal.Weighted>
1.1383

> <Gold.Chemscore.Rot.Weighted>
4.0237

> <Gold.Chemscore.Internal.Correction.Weighted>
   9.000000E+99

> <Gold.Protein.RotatedTorsions>
[ 6907 6896 6895 6894 ] final -148.23 input  -60.11 | X-H torsion
[ 7974 7965 7964 7962 ] final   20.66 input  175.53 | X-H torsion
[ 8008 7997 7996 7995 ] final -166.81 input   59.86 | X-H torsion
[ 10167 10162 10161 10158 ] final -124.79 input  -65.29 | X-H torsion
[ 10718 10713 10712 10709 ] final  123.66 input   66.30 | X-H torsion
[ 10763 10752 10751 10750 ] final -120.95 input  -60.55 | X-H torsion
[ 11005 11000 10999 10996 ] final -167.31 input  -57.11 | X-H torsion

> <Gold.Protein.ActiveResidues>
 VAL166  LYS551  ARG553  GLY616  TRP617  ASP618  TYR619  PRO620  LYS621  CYS622 
 ASP623  PHE694  ASN695  SER759  ASP760  ASP761  ALA762  ILE779  LEU786  VAL792 
 PHE793  MET794  SER795  GLU796  ALA797  LYS798  CYS799  TRP800  GLU811  SER814 

> <Gold.Protein.RotatedAtoms>
  151.1669  133.4809  159.2593 H   0  0  0  0  0  0  0  0  0  0  0  0  # atno 6907 bound_to 6896
  151.1396  135.0172  159.8629 H   0  0  0  0  0  0  0  0  0  0  0  0  # atno 6908 bound_to 6896
  152.5462  134.1564  159.8593 H   0  0  0  0  0  0  0  0  0  0  0  0  # atno 6909 bound_to 6896
  146.2102  139.8138  142.8694 H   0  0  0  0  0  0  0  0  0  0  0  0  # atno 7974 bound_to 7965
  155.8691  140.0990  157.1562 H   0  0  0  0  0  0  0  0  0  0  0  0  # atno 8008 bound_to 7997
  154.3995  140.1350  156.4118 H   0  0  0  0  0  0  0  0  0  0  0  0  # atno 8009 bound_to 7997
  155.7771  140.3459  155.5280 H   0  0  0  0  0  0  0  0  0  0  0  0  # atno 8010 bound_to 7997
  139.9890  143.5661  152.2349 H   0  0  0  0  0  0  0  0  0  0  0  0  # atno 10167 bound_to 10162
  157.5647  131.1087  150.8476 H   0  0  0  0  0  0  0  0  0  0  0  0  # atno 10718 bound_to 10713
  154.8657  135.4185  154.2542 H   0  0  0  0  0  0  0  0  0  0  0  0  # atno 10763 bound_to 10752
  153.3482  135.6997  153.6816 H   0  0  0  0  0  0  0  0  0  0  0  0  # atno 10764 bound_to 10752
  153.5766  135.3581  155.2831 H   0  0  0  0  0  0  0  0  0  0  0  0  # atno 10765 bound_to 10752
  140.5547  134.5393  157.5130 H   0  0  0  0  0  0  0  0  0  0  0  0  # atno 11005 bound_to 11000
  145.3168  141.0234  143.3523 LP  0  0  0  0  0  0  0  0  0  0  0  0  # atno 17320 bound_to 7965
  144.8896  139.4793  143.6684 LP  0  0  0  0  0  0  0  0  0  0  0  0  # atno 17321 bound_to 7965
  139.6354  144.7649  151.2449 LP  0  0  0  0  0  0  0  0  0  0  0  0  # atno 17342 bound_to 10162
  140.7462  143.6407  150.8337 LP  0  0  0  0  0  0  0  0  0  0  0  0  # atno 17343 bound_to 10162
  156.8964  130.5231  149.5284 LP  0  0  0  0  0  0  0  0  0  0  0  0  # atno 17370 bound_to 10713
  156.0696  130.5732  150.9357 LP  0  0  0  0  0  0  0  0  0  0  0  0  # atno 17371 bound_to 10713
  139.9437  134.7740  156.0614 LP  0  0  0  0  0  0  0  0  0  0  0  0  # atno 17394 bound_to 11000
  141.1150  133.6630  156.3072 LP  0  0  0  0  0  0  0  0  0  0  0  0  # atno 17395 bound_to 11000

$$$$
