AV-unprocessed.smi:1156|AV-procd|sdf|4905|dock2
  -GOLD-   22720 3483D 1   1.00000     0.00000
 Structure written by MMmdl.
 31 32  0  0  0  0  0  0  0  0  1 V2000
  154.7495  140.2402  161.3556 C   0  0  0  0  0  0  0  0  0  0  0  0
  153.9830  141.2604  160.6574 N   0  0  0  0  0  0  0  0  0  0  0  0
  153.4224  141.0881  159.4506 C   0  0  0  0  0  0  0  0  0  0  0  0
  153.4966  140.0364  158.8143 O   0  0  0  0  0  0  0  0  0  0  0  0
  152.6463  142.2701  158.9288 C   0  0  0  0  0  0  0  0  0  0  0  0
  152.9545  143.5659  159.4054 C   0  0  0  0  0  0  0  0  0  0  0  0
  152.2679  144.6792  158.8900 C   0  0  0  0  0  0  0  0  0  0  0  0
  151.2943  144.4595  157.9014 C   0  0  0  0  0  0  0  0  0  0  0  0
  150.9871  143.2347  157.4304 N   0  0  0  0  0  0  0  0  0  0  0  0
  151.6408  142.1524  157.9224 C   0  0  0  0  0  0  0  0  0  0  0  0
  151.2447  140.8975  157.4169 N   0  0  0  0  0  0  0  0  0  0  0  0
  150.0321  140.3694  158.0300 C   0  0  0  0  0  0  0  0  0  0  0  0
  149.8392  138.8975  157.6261 C   0  0  0  0  0  0  0  0  0  0  0  0
  149.8319  138.7854  156.2054 O   0  0  0  0  0  0  0  0  0  0  0  0
  151.0548  139.2326  155.6261 C   0  0  0  0  0  0  0  0  0  0  0  0
  151.2747  140.7156  155.9693 C   0  0  0  0  0  0  0  0  0  0  0  0
  155.1115  140.6323  162.3061 H   0  0  0  0  0  0  0  0  0  0  0  0
  155.6117  139.9285  160.7645 H   0  0  0  0  0  0  0  0  0  0  0  0
  154.1322  139.3644  161.5603 H   0  0  0  0  0  0  0  0  0  0  0  0
  153.8633  142.1490  161.1221 H   0  0  0  0  0  0  0  0  0  0  0  0
  153.7191  143.7159  160.1540 H   0  0  0  0  0  0  0  0  0  0  0  0
  152.4883  145.6772  159.2387 H   0  0  0  0  0  0  0  0  0  0  0  0
  150.7471  145.2883  157.4771 H   0  0  0  0  0  0  0  0  0  0  0  0
  150.0791  140.4523  159.1160 H   0  0  0  0  0  0  0  0  0  0  0  0
  149.1783  140.9632  157.7013 H   0  0  0  0  0  0  0  0  0  0  0  0
  150.6299  138.2741  158.0466 H   0  0  0  0  0  0  0  0  0  0  0  0
  148.8945  138.5208  158.0176 H   0  0  0  0  0  0  0  0  0  0  0  0
  151.8849  138.6226  155.9865 H   0  0  0  0  0  0  0  0  0  0  0  0
  151.0070  139.1000  154.5451 H   0  0  0  0  0  0  0  0  0  0  0  0
  150.4945  141.3202  155.5043 H   0  0  0  0  0  0  0  0  0  0  0  0
  152.2322  141.0545  155.5718 H   0  0  0  0  0  0  0  0  0  0  0  0
  1  2  1  0  0  0  0
  1 17  1  0  0  0  0
  1 18  1  0  0  0  0
  1 19  1  0  0  0  0
  2  3  1  0  0  0  0
  2 20  1  0  0  0  0
  3  4  2  0  0  0  0
  3  5  1  0  0  0  0
  5 10  1  0  0  0  0
  5  6  2  0  0  0  0
  6  7  1  0  0  0  0
  6 21  1  0  0  0  0
  7  8  2  0  0  0  0
  7 22  1  0  0  0  0
  8  9  1  0  0  0  0
  8 23  1  0  0  0  0
  9 10  2  0  0  0  0
 10 11  1  0  0  0  0
 11 16  1  0  0  0  0
 11 12  1  0  0  0  0
 12 13  1  0  0  0  0
 12 24  1  0  0  0  0
 12 25  1  0  0  0  0
 13 14  1  0  0  0  0
 13 26  1  0  0  0  0
 13 27  1  0  0  0  0
 14 15  1  0  0  0  0
 15 16  1  0  0  0  0
 15 28  1  0  0  0  0
 15 29  1  0  0  0  0
 16 30  1  0  0  0  0
 16 31  1  0  0  0  0
M  END
> <s_m_source_file>
AV-unprocessed.smi

> <i_m_source_file_index>
1156

> <i_lp_mmshare_version>
43012

> <i_f3d_flags>
0

> <s_epik_input>
W0NIM11bTkhdQyg9TyljMVtjSF1bY0hdW2NIXW5jMU4yW0NIMl1bQ0gyXU9bQ0gyXVtDSDJdMg==

> <s_epik_cmdline>
J2VwaWtfcHl0aG9uJywgJy1waCcsICc3LjAnLCAnLXRuJywgJzgnLCAnLW1hJywgJzIwMCcsICctbWV0YWxfYmluZGluZycsICctaW1hZScsICc8aW5maWxlLm1hZT4nLCAnLW9tYWUnLCAnPG91dGZpbGUubWFlPic=

> <r_lp_tautomer_probability>
1

> <r_epik_Ionization_Penalty>
1.43053e-05

> <r_epik_Ionization_Penalty_Charging>
0

> <r_epik_Ionization_Penalty_Neutral>
1.43053e-05

> <r_epik_State_Penalty>
-0

> <r_epik_Charging_Adjusted_Penalty>
0

> <i_epik_Tot_Q>
0

> <i_epik_Tot_abs_Q>
0

> <r_epik_Metal_State_Penalty>
-0

> <b_epik_Metal_Only>
0

> <s_lp_Force_Field>
OPLS_2005

> <r_lp_Energy>
24.2931

> <b_lp_Chiralities_Consistent>
1

> <s_lp_Variant>
AV-unprocessed.smi:1156-1

> <Gold.Version>
5.8.1

> <Gold.Id.Protein>
6NUR|6NUR_protein|mol2

> <Gold.PLP.Fitness>
36.1184

> <Gold.PLP.PLP>
-31.6667

> <Gold.PLP.part.hbond>
-1.0000

> <Gold.PLP.part.metal>
0.0000

> <Gold.PLP.part.buried>
-3.7799

> <Gold.PLP.part.nonpolar>
-26.3672

> <Gold.PLP.part.repulsive>
0.1588

> <Gold.PLP.ligand.clash>
0.0000

> <Gold.PLP.ligand.torsion>
0.5466

> <Gold.PLP.Chemscore.Hbond>
0.9920

> <Gold.PLP.Chemscore.CHOScore>
0.7792

> <Gold.PLP.Chemscore.Metal>
0.0000

> <Gold.Chemscore.Hbonds>
donor molecule, donor type, donor heavy atom, donor atom, acceptor molecule, acceptor atom, score
      P1  H  7997  8009       L1     4  0.93
      L1  C     8    23       P1  8028  0.51
      L1  C     8    23       P1  8029  0.01

> <Gold.PLP.Chemscore.Internal.Correction>
0.2312

> <Gold.Rescore>
     Score         DG    S(hbond)    S(metal)    S(lipo)     H(rot)  DE(clash)    DE(int)     intcor
     12.59     -14.88       0.99        0.00      74.09       1.00       0.00       2.29       ----

> <Gold.Chemscore.Fitness>
12.5900

> <Gold.Chemscore.DG>
-14.8841

> <Gold.Chemscore.ZeroCoef>
-5.4800

> <Gold.Chemscore.Hbond>
0.9866

> <Gold.Chemscore.Metal>
0.0000

> <Gold.Chemscore.Lipo>
74.0937

> <Gold.Chemscore.Internal_Hbond>
0.0000

> <Gold.Chemscore.DEClash>
0.0000

> <Gold.Chemscore.DEInternal>
2.2941

> <Gold.Chemscore.Rot>
1.0000

> <Gold.Chemscore.Internal.Correction>
   9.000000E+99

> <Gold.Chemscore.Hbonds>
donor molecule, donor type, donor heavy atom, donor atom, acceptor molecule, acceptor atom, score
      P1  H  7997  8009       L1     4  0.79

> <Gold.Chemscore.Hbond.Weighted>
-3.2951

> <Gold.Chemscore.Metal.Weighted>
-0.0000

> <Gold.Chemscore.Lipo.Weighted>
-8.6690

> <Gold.Chemscore.Internal_Hbond.Weighted>
0.0000

> <Gold.Chemscore.DEClash.Weighted>
0.0000

> <Gold.Chemscore.DEInternal.Weighted>
2.2941

> <Gold.Chemscore.Rot.Weighted>
2.5600

> <Gold.Chemscore.Internal.Correction.Weighted>
   9.000000E+99

> <Gold.Protein.RotatedTorsions>
[ 6907 6896 6895 6894 ] final  138.74 input  -60.11 | X-H torsion
[ 7974 7965 7964 7962 ] final -112.72 input  175.53 | X-H torsion
[ 8008 7997 7996 7995 ] final  140.44 input   59.86 | X-H torsion
[ 10167 10162 10161 10158 ] final  151.69 input  -65.29 | X-H torsion
[ 10718 10713 10712 10709 ] final    5.05 input   66.30 | X-H torsion
[ 10763 10752 10751 10750 ] final -158.52 input  -60.55 | X-H torsion
[ 11005 11000 10999 10996 ] final  -32.93 input  -57.11 | X-H torsion

> <Gold.Protein.ActiveResidues>
 VAL166  LYS551  ARG553  GLY616  TRP617  ASP618  TYR619  PRO620  LYS621  CYS622 
 ASP623  PHE694  ASN695  SER759  ASP760  ASP761  ALA762  ILE779  LEU786  VAL792 
 PHE793  MET794  SER795  GLU796  ALA797  LYS798  CYS799  TRP800  GLU811  SER814 

> <Gold.Protein.RotatedAtoms>
  152.2631  133.5315  159.5393 H   0  0  0  0  0  0  0  0  0  0  0  0  # atno 6907 bound_to 6896
  150.7132  134.0802  159.3904 H   0  0  0  0  0  0  0  0  0  0  0  0  # atno 6908 bound_to 6896
  151.8719  135.0486  160.0531 H   0  0  0  0  0  0  0  0  0  0  0  0  # atno 6909 bound_to 6896
  145.1406  140.8776  143.3704 H   0  0  0  0  0  0  0  0  0  0  0  0  # atno 7974 bound_to 7965
  156.2979  140.2341  156.4402 H   0  0  0  0  0  0  0  0  0  0  0  0  # atno 8008 bound_to 7997
  154.8192  140.0439  157.1419 H   0  0  0  0  0  0  0  0  0  0  0  0  # atno 8009 bound_to 7997
  154.9334  140.3019  155.5160 H   0  0  0  0  0  0  0  0  0  0  0  0  # atno 8010 bound_to 7997
  139.4838  144.5420  151.7548 H   0  0  0  0  0  0  0  0  0  0  0  0  # atno 10167 bound_to 10162
  156.9017  130.5724  149.5648 H   0  0  0  0  0  0  0  0  0  0  0  0  # atno 10718 bound_to 10713
  154.7550  135.3102  154.8487 H   0  0  0  0  0  0  0  0  0  0  0  0  # atno 10763 bound_to 10752
  153.9264  135.6790  153.4750 H   0  0  0  0  0  0  0  0  0  0  0  0  # atno 10764 bound_to 10752
  153.1147  135.4850  154.9024 H   0  0  0  0  0  0  0  0  0  0  0  0  # atno 10765 bound_to 10752
  140.9593  133.7174  156.1343 H   0  0  0  0  0  0  0  0  0  0  0  0  # atno 11005 bound_to 11000
  145.0536  139.3162  143.5916 LP  0  0  0  0  0  0  0  0  0  0  0  0  # atno 17320 bound_to 7965
  146.3505  139.9953  142.8681 LP  0  0  0  0  0  0  0  0  0  0  0  0  # atno 17321 bound_to 7965
  140.4961  144.1238  150.5960 LP  0  0  0  0  0  0  0  0  0  0  0  0  # atno 17342 bound_to 10162
  140.4116  143.2654  151.9826 LP  0  0  0  0  0  0  0  0  0  0  0  0  # atno 17343 bound_to 10162
  156.0579  130.5637  150.9130 LP  0  0  0  0  0  0  0  0  0  0  0  0  # atno 17370 bound_to 10713
  157.6022  131.0940  150.8940 LP  0  0  0  0  0  0  0  0  0  0  0  0  # atno 17371 bound_to 10713
  140.7491  134.4065  157.5544 LP  0  0  0  0  0  0  0  0  0  0  0  0  # atno 17394 bound_to 11000
  139.8872  134.8888  156.2539 LP  0  0  0  0  0  0  0  0  0  0  0  0  # atno 17395 bound_to 11000

$$$$
