AV-unprocessed.smi:1299|AV-procd|sdf|5418|dock8
  -GOLD-   22720 4573D 1   1.00000     0.00000
 Structure written by MMmdl.
 39 40  0  0  0  0  0  0  0  0  1 V2000
  147.9323  133.4784  159.0729 C   0  0  0  0  0  0  0  0  0  0  0  0
  147.7392  134.2043  160.3932 C   0  0  0  0  0  0  0  0  0  0  0  0
  147.6642  133.6233  161.5951 C   0  0  0  0  0  0  0  0  0  0  0  0
  147.4787  134.7766  162.8933 S   0  0  0  0  0  0  0  0  0  0  0  0
  147.5115  136.1300  161.7069 C   0  0  0  0  0  0  0  0  0  0  0  0
  147.4173  137.3104  162.0392 O   0  0  0  0  0  0  0  0  0  0  0  0
  147.6524  135.6035  160.4230 N   0  0  0  0  0  0  0  0  0  0  0  0
  147.7006  136.4471  159.2212 C   0  0  0  0  0  0  0  0  0  0  0  0
  149.1187  136.9126  158.8634 C   0  0  0  0  0  0  0  0  0  0  0  0
  150.0355  136.1029  158.7158 O   0  0  0  0  0  0  0  0  0  0  0  0
  149.2797  138.2361  158.7139 N   0  0  0  0  0  0  0  0  0  0  0  0
  150.5367  138.8943  158.3755 C   0  0  0  0  0  0  0  0  0  0  0  0
  150.4277  140.4271  158.5067 C   0  0  0  0  0  0  0  0  0  0  0  0
  151.7018  141.0940  159.0517 C   0  0  0  0  0  0  0  0  0  0  0  0
  152.6054  140.4007  159.5209 O   0  0  0  0  0  0  0  0  0  0  0  0
  151.7875  142.4396  158.9979 N   0  0  0  0  0  0  0  0  0  0  0  0
  152.9128  143.2439  159.4738 C   0  0  0  0  0  0  0  0  0  0  0  0
  152.4360  144.6956  159.4189 C   0  0  0  0  0  0  0  0  0  0  0  0
  151.3525  144.6930  158.3496 C   0  0  0  0  0  0  0  0  0  0  0  0
  150.7414  143.2945  158.4398 C   0  0  0  0  0  0  0  0  0  0  0  0
  148.3211  132.4748  159.2471 H   0  0  0  0  0  0  0  0  0  0  0  0
  148.6424  133.9942  158.4267 H   0  0  0  0  0  0  0  0  0  0  0  0
  146.9808  133.3866  158.5491 H   0  0  0  0  0  0  0  0  0  0  0  0
  147.7190  132.5640  161.7986 H   0  0  0  0  0  0  0  0  0  0  0  0
  147.2608  135.9341  158.3661 H   0  0  0  0  0  0  0  0  0  0  0  0
  147.0780  137.3299  159.3769 H   0  0  0  0  0  0  0  0  0  0  0  0
  148.4756  138.8314  158.8500 H   0  0  0  0  0  0  0  0  0  0  0  0
  151.3037  138.5127  159.0506 H   0  0  0  0  0  0  0  0  0  0  0  0
  150.8408  138.6118  157.3657 H   0  0  0  0  0  0  0  0  0  0  0  0
  150.2036  140.8597  157.5311 H   0  0  0  0  0  0  0  0  0  0  0  0
  149.5939  140.6748  159.1647 H   0  0  0  0  0  0  0  0  0  0  0  0
  153.2204  142.9746  160.4850 H   0  0  0  0  0  0  0  0  0  0  0  0
  153.7632  143.0970  158.8064 H   0  0  0  0  0  0  0  0  0  0  0  0
  151.9986  144.9721  160.3792 H   0  0  0  0  0  0  0  0  0  0  0  0
  153.2416  145.3981  159.2045 H   0  0  0  0  0  0  0  0  0  0  0  0
  150.6173  145.4859  158.4895 H   0  0  0  0  0  0  0  0  0  0  0  0
  151.8089  144.8299  157.3685 H   0  0  0  0  0  0  0  0  0  0  0  0
  150.4033  142.9465  157.4624 H   0  0  0  0  0  0  0  0  0  0  0  0
  149.8845  143.2934  159.1154 H   0  0  0  0  0  0  0  0  0  0  0  0
  1  2  1  0  0  0  0
  1 21  1  0  0  0  0
  1 22  1  0  0  0  0
  1 23  1  0  0  0  0
  2  7  1  0  0  0  0
  2  3  2  0  0  0  0
  3  4  1  0  0  0  0
  3 24  1  0  0  0  0
  4  5  1  0  0  0  0
  5  6  2  0  0  0  0
  5  7  1  0  0  0  0
  7  8  1  0  0  0  0
  8  9  1  0  0  0  0
  8 25  1  0  0  0  0
  8 26  1  0  0  0  0
  9 10  2  0  0  0  0
  9 11  1  0  0  0  0
 11 12  1  0  0  0  0
 11 27  1  0  0  0  0
 12 13  1  0  0  0  0
 12 28  1  0  0  0  0
 12 29  1  0  0  0  0
 13 14  1  0  0  0  0
 13 30  1  0  0  0  0
 13 31  1  0  0  0  0
 14 15  2  0  0  0  0
 14 16  1  0  0  0  0
 16 20  1  0  0  0  0
 16 17  1  0  0  0  0
 17 18  1  0  0  0  0
 17 32  1  0  0  0  0
 17 33  1  0  0  0  0
 18 19  1  0  0  0  0
 18 34  1  0  0  0  0
 18 35  1  0  0  0  0
 19 20  1  0  0  0  0
 19 36  1  0  0  0  0
 19 37  1  0  0  0  0
 20 38  1  0  0  0  0
 20 39  1  0  0  0  0
M  END
> <s_m_source_file>
AV-unprocessed.smi

> <i_m_source_file_index>
1299

> <i_lp_mmshare_version>
43012

> <i_f3d_flags>
0

> <s_epik_input>
W0NIM11jMVtjSF1zYyg9TyluMVtDSDJdQyg9TylbTkhdW0NIMl1bQ0gyXUMoPU8pTjJbQ0gyXVtDSDJdW0NIMl1bQ0gyXTI=

> <s_epik_cmdline>
J2VwaWtfcHl0aG9uJywgJy1waCcsICc3LjAnLCAnLXRuJywgJzgnLCAnLW1hJywgJzIwMCcsICctbWV0YWxfYmluZGluZycsICctaW1hZScsICc8aW5maWxlLm1hZT4nLCAnLW9tYWUnLCAnPG91dGZpbGUubWFlPic=

> <r_lp_tautomer_probability>
1

> <r_epik_Ionization_Penalty>
1.42672e-06

> <r_epik_Ionization_Penalty_Charging>
1.08064e-06

> <r_epik_Ionization_Penalty_Neutral>
3.46085e-07

> <r_epik_State_Penalty>
-0

> <r_epik_Charging_Adjusted_Penalty>
1.08064e-06

> <i_epik_Tot_Q>
0

> <i_epik_Tot_abs_Q>
0

> <r_epik_Metal_State_Penalty>
-0

> <b_epik_Metal_Only>
0

> <s_lp_Force_Field>
OPLS_2005

> <r_lp_Energy>
30.8751

> <b_lp_Chiralities_Consistent>
1

> <s_lp_Variant>
AV-unprocessed.smi:1299-1

> <Gold.Version>
5.8.1

> <Gold.Id.Protein>
6NUR|6NUR_protein|mol2

> <Gold.PLP.Fitness>
47.9908

> <Gold.PLP.PLP>
-41.7830

> <Gold.PLP.part.hbond>
-3.0000

> <Gold.PLP.part.metal>
0.0000

> <Gold.PLP.part.buried>
-5.1169

> <Gold.PLP.part.nonpolar>
-33.6604

> <Gold.PLP.part.repulsive>
0.1792

> <Gold.PLP.ligand.clash>
0.0000

> <Gold.PLP.ligand.torsion>
0.8115

> <Gold.PLP.Chemscore.Hbond>
2.6000

> <Gold.PLP.Chemscore.CHOScore>
0.0000

> <Gold.PLP.Chemscore.Metal>
0.0000

> <Gold.Chemscore.Hbonds>
donor molecule, donor type, donor heavy atom, donor atom, acceptor molecule, acceptor atom, score
      P1  H  6896  6907       L1    10  1.00
      P1  H  6931  6943       L1     6  0.85
      P1  H  6934  6947       L1     6  0.64

> <Gold.PLP.Chemscore.Internal.Correction>
0.0308

> <Gold.Rescore>
     Score         DG    S(hbond)    S(metal)    S(lipo)     H(rot)  DE(clash)    DE(int)     intcor
     17.98     -18.45       2.65        0.00      79.28       2.02       0.01       0.46       ----

> <Gold.Chemscore.Fitness>
17.9846

> <Gold.Chemscore.DG>
-18.4546

> <Gold.Chemscore.ZeroCoef>
-5.4800

> <Gold.Chemscore.Hbond>
2.6528

> <Gold.Chemscore.Metal>
0.0000

> <Gold.Chemscore.Lipo>
79.2803

> <Gold.Chemscore.Internal_Hbond>
0.0000

> <Gold.Chemscore.DEClash>
0.0073

> <Gold.Chemscore.DEInternal>
0.4627

> <Gold.Chemscore.Rot>
2.0162

> <Gold.Chemscore.Internal.Correction>
   9.000000E+99

> <Gold.Chemscore.Hbonds>
donor molecule, donor type, donor heavy atom, donor atom, acceptor molecule, acceptor atom, score
      P1  H  6896  6907       L1    10  0.99
      P1  H  6931  6943       L1     6  0.73
      P1  H  6934  6947       L1     6  0.60

> <Gold.Chemscore.Hbond.Weighted>
-8.8602

> <Gold.Chemscore.Metal.Weighted>
-0.0000

> <Gold.Chemscore.Lipo.Weighted>
-9.2758

> <Gold.Chemscore.Internal_Hbond.Weighted>
0.0000

> <Gold.Chemscore.DEClash.Weighted>
0.0073

> <Gold.Chemscore.DEInternal.Weighted>
0.4627

> <Gold.Chemscore.Rot.Weighted>
5.1614

> <Gold.Chemscore.Internal.Correction.Weighted>
   9.000000E+99

> <Gold.Protein.RotatedTorsions>
[ 6907 6896 6895 6894 ] final  -51.76 input  -60.11 | X-H torsion
[ 7974 7965 7964 7962 ] final   15.24 input  175.53 | X-H torsion
[ 8008 7997 7996 7995 ] final  -53.89 input   59.86 | X-H torsion
[ 10167 10162 10161 10158 ] final  153.11 input  -65.29 | X-H torsion
[ 10718 10713 10712 10709 ] final  -20.03 input   66.30 | X-H torsion
[ 10763 10752 10751 10750 ] final  -94.62 input  -60.55 | X-H torsion
[ 11005 11000 10999 10996 ] final  -52.76 input  -57.11 | X-H torsion

> <Gold.Protein.ActiveResidues>
 VAL166  LYS551  ARG553  GLY616  TRP617  ASP618  TYR619  PRO620  LYS621  CYS622 
 ASP623  PHE694  ASN695  SER759  ASP760  ASP761  ALA762  ILE779  LEU786  VAL792 
 PHE793  MET794  SER795  GLU796  ALA797  LYS798  CYS799  TRP800  GLU811  SER814 

> <Gold.Protein.RotatedAtoms>
  150.8581  134.7925  159.7060 H   0  0  0  0  0  0  0  0  0  0  0  0  # atno 6907 bound_to 6896
  152.4626  134.5146  159.9774 H   0  0  0  0  0  0  0  0  0  0  0  0  # atno 6908 bound_to 6896
  151.5254  133.3420  159.2944 H   0  0  0  0  0  0  0  0  0  0  0  0  # atno 6909 bound_to 6896
  146.2283  139.8923  142.8553 H   0  0  0  0  0  0  0  0  0  0  0  0  # atno 7974 bound_to 7965
  154.4146  140.1189  156.5227 H   0  0  0  0  0  0  0  0  0  0  0  0  # atno 8008 bound_to 7997
  155.6686  140.3496  155.4790 H   0  0  0  0  0  0  0  0  0  0  0  0  # atno 8009 bound_to 7997
  155.9652  140.1130  157.0851 H   0  0  0  0  0  0  0  0  0  0  0  0  # atno 8010 bound_to 7997
  139.4829  144.5301  151.7737 H   0  0  0  0  0  0  0  0  0  0  0  0  # atno 10167 bound_to 10162
  156.5375  130.4670  149.6515 H   0  0  0  0  0  0  0  0  0  0  0  0  # atno 10718 bound_to 10713
  154.7072  135.5151  153.8613 H   0  0  0  0  0  0  0  0  0  0  0  0  # atno 10763 bound_to 10752
  153.0751  135.6614  154.0172 H   0  0  0  0  0  0  0  0  0  0  0  0  # atno 10764 bound_to 10752
  154.0021  135.3010  155.3381 H   0  0  0  0  0  0  0  0  0  0  0  0  # atno 10765 bound_to 10752
  141.0941  133.6627  156.4071 H   0  0  0  0  0  0  0  0  0  0  0  0  # atno 11005 bound_to 11000
  145.2406  141.0007  143.3938 LP  0  0  0  0  0  0  0  0  0  0  0  0  # atno 17320 bound_to 7965
  144.9455  139.4140  143.6428 LP  0  0  0  0  0  0  0  0  0  0  0  0  # atno 17321 bound_to 7965
  140.4826  144.1427  150.5935 LP  0  0  0  0  0  0  0  0  0  0  0  0  # atno 17342 bound_to 10162
  140.4261  143.2589  151.9655 LP  0  0  0  0  0  0  0  0  0  0  0  0  # atno 17343 bound_to 10162
  156.3002  130.7172  151.2042 LP  0  0  0  0  0  0  0  0  0  0  0  0  # atno 17370 bound_to 10713
  157.7411  131.0508  150.5120 LP  0  0  0  0  0  0  0  0  0  0  0  0  # atno 17371 bound_to 10713
  140.5183  134.6329  157.5309 LP  0  0  0  0  0  0  0  0  0  0  0  0  # atno 17394 bound_to 11000
  139.9773  134.7194  155.9925 LP  0  0  0  0  0  0  0  0  0  0  0  0  # atno 17395 bound_to 11000

$$$$
