AV-unprocessed.smi:766|AV-procd|sdf|3652|dock5
  -GOLD-   22720 1 53D 1   1.00000     0.00000
 Structure written by MMmdl.
 47 49  0  0  0  0  0  0  0  0  2 V2000
  153.5969  142.1106  161.5968 C   0  0  0  0  0  0  0  0  0  0  0  0
  152.9051  141.9389  160.2559 C   0  0  0  0  0  0  0  0  0  0  0  0
  153.2012  140.8017  159.4708 C   0  0  0  0  0  0  0  0  0  0  0  0
  152.5792  140.6043  158.2186 C   0  0  0  0  0  0  0  0  0  0  0  0
  152.7156  139.5790  157.2985 N   0  0  0  0  0  0  0  0  0  0  0  0
  151.8769  139.9642  156.3412 C   0  0  0  0  0  0  0  0  0  0  0  0
  151.2133  141.1213  156.5315 N   0  0  0  0  0  0  0  0  0  0  0  0
  150.2528  141.7419  155.6370 C   0  0  0  0  0  0  0  0  0  0  0  0
  148.9826  140.8895  155.4535 C   0  0  1  0  0  0  0  0  0  0  0  0
  148.1083  141.1071  156.5448 O   0  0  0  0  0  0  0  0  0  0  0  0
  148.2446  141.2286  154.1483 C   0  0  0  0  0  0  0  0  0  0  0  0
  147.6821  142.5929  154.1914 N   0  3  0  0  0  0  0  0  0  0  0  0
  146.2204  142.6397  154.3976 C   0  0  0  0  0  0  0  0  0  0  0  0
  145.5818  143.8367  153.6743 C   0  0  0  0  0  0  0  0  0  0  0  0
  144.6355  144.5503  154.5135 N   0  0  0  0  0  0  0  0  0  0  0  0
  143.8283  145.6168  154.1776 C   0  0  0  0  0  0  0  0  0  0  0  0
  143.1107  145.9497  155.2905 C   0  0  0  0  0  0  0  0  0  0  0  0
  143.5527  145.0170  156.2698 C   0  0  0  0  0  0  0  0  0  0  0  0
  144.4665  144.1816  155.8020 N   0  0  0  0  0  0  0  0  0  0  0  0
  151.6465  141.5843  157.7691 C   0  0  0  0  0  0  0  0  0  0  0  0
  151.3440  142.7202  158.5404 C   0  0  0  0  0  0  0  0  0  0  0  0
  151.9728  142.9008  159.7903 C   0  0  0  0  0  0  0  0  0  0  0  0
  151.6364  144.1282  160.6185 C   0  0  0  0  0  0  0  0  0  0  0  0
  154.2910  141.2934  161.7946 H   0  0  0  0  0  0  0  0  0  0  0  0
  152.8650  142.1298  162.4046 H   0  0  0  0  0  0  0  0  0  0  0  0
  154.1625  143.0423  161.6188 H   0  0  0  0  0  0  0  0  0  0  0  0
  153.9106  140.0682  159.8252 H   0  0  0  0  0  0  0  0  0  0  0  0
  151.7386  139.3724  155.4482 H   0  0  0  0  0  0  0  0  0  0  0  0
  150.0012  142.7308  156.0236 H   0  0  0  0  0  0  0  0  0  0  0  0
  150.7419  141.9000  154.6750 H   0  0  0  0  0  0  0  0  0  0  0  0
  149.2615  139.8346  155.4442 H   0  0  0  0  0  0  0  0  0  0  0  0
  148.4579  140.6714  157.3074 H   0  0  0  0  0  0  0  0  0  0  0  0
  148.9133  141.1290  153.2918 H   0  0  0  0  0  0  0  0  0  0  0  0
  147.4244  140.5252  153.9972 H   0  0  0  0  0  0  0  0  0  0  0  0
  148.1305  143.1055  154.9373 H   0  0  0  0  0  0  0  0  0  0  0  0
  145.7679  141.7090  154.0525 H   0  0  0  0  0  0  0  0  0  0  0  0
  146.0224  142.7127  155.4676 H   0  0  0  0  0  0  0  0  0  0  0  0
  146.3598  144.5387  153.3718 H   0  0  0  0  0  0  0  0  0  0  0  0
  145.0795  143.5172  152.7597 H   0  0  0  0  0  0  0  0  0  0  0  0
  143.8307  146.0457  153.1864 H   0  0  0  0  0  0  0  0  0  0  0  0
  142.3798  146.7388  155.3894 H   0  0  0  0  0  0  0  0  0  0  0  0
  143.2394  144.9239  157.2992 H   0  0  0  0  0  0  0  0  0  0  0  0
  150.6328  143.4455  158.1741 H   0  0  0  0  0  0  0  0  0  0  0  0
  150.8745  144.7390  160.1334 H   0  0  0  0  0  0  0  0  0  0  0  0
  152.5226  144.7470  160.7610 H   0  0  0  0  0  0  0  0  0  0  0  0
  151.2555  143.8368  161.5976 H   0  0  0  0  0  0  0  0  0  0  0  0
  147.8956  143.0528  153.3169 H   0  0  0  0  0  0  0  0  0  0  0  0
  1  2  1  0  0  0  0
  1 24  1  0  0  0  0
  1 25  1  0  0  0  0
  1 26  1  0  0  0  0
  2 22  1  0  0  0  0
  2  3  2  0  0  0  0
  3  4  1  0  0  0  0
  3 27  1  0  0  0  0
  4 20  2  0  0  0  0
  4  5  1  0  0  0  0
  5  6  2  0  0  0  0
  6  7  1  0  0  0  0
  6 28  1  0  0  0  0
  7  8  1  0  0  0  0
  7 20  1  0  0  0  0
  8  9  1  0  0  0  0
  8 29  1  0  0  0  0
  8 30  1  0  0  0  0
  9 10  1  0  0  0  0
  9 11  1  0  0  0  0
  9 31  1  0  0  0  0
 10 32  1  0  0  0  0
 11 12  1  0  0  0  0
 11 33  1  0  0  0  0
 11 34  1  0  0  0  0
 12 13  1  0  0  0  0
 12 35  1  0  0  0  0
 12 47  1  0  0  0  0
 13 14  1  0  0  0  0
 13 36  1  0  0  0  0
 13 37  1  0  0  0  0
 14 15  1  0  0  0  0
 14 38  1  0  0  0  0
 14 39  1  0  0  0  0
 15 19  1  0  0  0  0
 15 16  1  0  0  0  0
 16 17  2  0  0  0  0
 16 40  1  0  0  0  0
 17 18  1  0  0  0  0
 17 41  1  0  0  0  0
 18 19  2  0  0  0  0
 18 42  1  0  0  0  0
 20 21  1  0  0  0  0
 21 22  2  0  0  0  0
 21 43  1  0  0  0  0
 22 23  1  0  0  0  0
 23 44  1  0  0  0  0
 23 45  1  0  0  0  0
 23 46  1  0  0  0  0
M  CHG  1  12   1
M  END
> <s_m_source_file>
AV-unprocessed.smi

> <i_m_source_file_index>
766

> <i_lp_mmshare_version>
43012

> <i_f3d_flags>
0

> <s_epik_input>
W0NIM11jKFtjSF0xKWMoW0NIM10pW2NIXWMoYzEyKW4oW2NIXW4yKVtDSDJdW0NASF0oW09IXSlbQ0gyXVtOSF1bQ0gyXVtDSDJdbjNbY0hdW2NIXVtjSF1uMw==

> <s_epik_cmdline>
J2VwaWtfcHl0aG9uJywgJy1waCcsICc3LjAnLCAnLXRuJywgJzgnLCAnLW1hJywgJzIwMCcsICctbWV0YWxfYmluZGluZycsICctaW1hZScsICc8aW5maWxlLm1hZT4nLCAnLW9tYWUnLCAnPG91dGZpbGUubWFlPic=

> <r_lp_tautomer_probability>
1

> <r_epik_Ionization_Penalty>
0.127222

> <r_epik_Ionization_Penalty_Charging>
0.043815

> <r_epik_Ionization_Penalty_Neutral>
0.0834074

> <r_epik_State_Penalty>
0.115563

> <r_epik_Charging_Adjusted_Penalty>
0.159378

> <i_epik_Tot_Q>
1

> <i_epik_Tot_abs_Q>
1

> <r_epik_Metal_State_Penalty>
0.102594

> <b_epik_Metal_Only>
0

> <s_lp_Force_Field>
OPLS_2005

> <r_lp_Energy>
11.1584

> <b_lp_Chiralities_Consistent>
1

> <s_lp_Variant>
AV-unprocessed.smi:766-2

> <Gold.Version>
5.8.1

> <Gold.Id.Protein>
6NUR|6NUR_protein|mol2

> <Gold.PLP.Fitness>
58.8255

> <Gold.PLP.PLP>
-51.9116

> <Gold.PLP.part.hbond>
-2.0000

> <Gold.PLP.part.metal>
0.0000

> <Gold.PLP.part.buried>
-7.1288

> <Gold.PLP.part.nonpolar>
-42.7980

> <Gold.PLP.part.repulsive>
0.3313

> <Gold.PLP.ligand.clash>
0.0000

> <Gold.PLP.ligand.torsion>
1.1392

> <Gold.PLP.Chemscore.Hbond>
3.0000

> <Gold.PLP.Chemscore.CHOScore>
0.0000

> <Gold.PLP.Chemscore.Metal>
0.0000

> <Gold.Chemscore.Hbonds>
donor molecule, donor type, donor heavy atom, donor atom, acceptor molecule, acceptor atom, score
      L1  H    12    35       P1  8028  1.98
      P1  H  7997  8010       L1     5  0.80

> <Gold.PLP.Chemscore.Internal.Correction>
0.1924

> <Gold.Rescore>
     Score         DG    S(hbond)    S(metal)    S(lipo)     H(rot)  DE(clash)    DE(int)     intcor
     16.90     -18.18       1.39        0.00     133.01       2.93       0.10       1.19       ----

> <Gold.Chemscore.Fitness>
16.8955

> <Gold.Chemscore.DG>
-18.1785

> <Gold.Chemscore.ZeroCoef>
-5.4800

> <Gold.Chemscore.Hbond>
1.3911

> <Gold.Chemscore.Metal>
0.0000

> <Gold.Chemscore.Lipo>
133.0080

> <Gold.Chemscore.Internal_Hbond>
0.0000

> <Gold.Chemscore.DEClash>
0.0954

> <Gold.Chemscore.DEInternal>
1.1876

> <Gold.Chemscore.Rot>
2.9335

> <Gold.Chemscore.Internal.Correction>
   9.000000E+99

> <Gold.Chemscore.Hbonds>
donor molecule, donor type, donor heavy atom, donor atom, acceptor molecule, acceptor atom, score
      L1  H    12    35       P1  8028  0.90
      P1  H  7997  8010       L1     5  0.06

> <Gold.Chemscore.Hbond.Weighted>
-4.6463

> <Gold.Chemscore.Metal.Weighted>
-0.0000

> <Gold.Chemscore.Lipo.Weighted>
-15.5619

> <Gold.Chemscore.Internal_Hbond.Weighted>
0.0000

> <Gold.Chemscore.DEClash.Weighted>
0.0954

> <Gold.Chemscore.DEInternal.Weighted>
1.1876

> <Gold.Chemscore.Rot.Weighted>
7.5097

> <Gold.Chemscore.Internal.Correction.Weighted>
   9.000000E+99

> <Gold.Protein.RotatedTorsions>
[ 6907 6896 6895 6894 ] final  130.23 input  -60.11 | X-H torsion
[ 7974 7965 7964 7962 ] final -156.16 input  175.53 | X-H torsion
[ 8008 7997 7996 7995 ] final   56.91 input   59.86 | X-H torsion
[ 10167 10162 10161 10158 ] final  -14.94 input  -65.29 | X-H torsion
[ 10718 10713 10712 10709 ] final -126.87 input   66.30 | X-H torsion
[ 10763 10752 10751 10750 ] final -129.85 input  -60.55 | X-H torsion
[ 11005 11000 10999 10996 ] final -106.43 input  -57.11 | X-H torsion

> <Gold.Protein.ActiveResidues>
 VAL166  LYS551  ARG553  GLY616  TRP617  ASP618  TYR619  PRO620  LYS621  CYS622 
 ASP623  PHE694  ASN695  SER759  ASP760  ASP761  ALA762  ILE779  LEU786  VAL792 
 PHE793  MET794  SER795  GLU796  ALA797  LYS798  CYS799  TRP800  GLU811  SER814 

> <Gold.Protein.RotatedAtoms>
  152.3546  133.6221  159.5969 H   0  0  0  0  0  0  0  0  0  0  0  0  # atno 6907 bound_to 6896
  150.7560  133.9520  159.3497 H   0  0  0  0  0  0  0  0  0  0  0  0  # atno 6908 bound_to 6896
  151.7367  135.0864  160.0360 H   0  0  0  0  0  0  0  0  0  0  0  0  # atno 6909 bound_to 6896
  144.7606  140.4148  143.5979 H   0  0  0  0  0  0  0  0  0  0  0  0  # atno 7974 bound_to 7965
  155.5251  140.3480  155.4415 H   0  0  0  0  0  0  0  0  0  0  0  0  # atno 8008 bound_to 7997
  156.0757  140.1374  156.9801 H   0  0  0  0  0  0  0  0  0  0  0  0  # atno 8009 bound_to 7997
  154.4552  140.0956  156.6712 H   0  0  0  0  0  0  0  0  0  0  0  0  # atno 8010 bound_to 7997
  140.7210  143.5270  150.9565 H   0  0  0  0  0  0  0  0  0  0  0  0  # atno 10167 bound_to 10162
  156.1805  130.6728  151.0298 H   0  0  0  0  0  0  0  0  0  0  0  0  # atno 10718 bound_to 10713
  154.8757  135.3882  154.3987 H   0  0  0  0  0  0  0  0  0  0  0  0  # atno 10763 bound_to 10752
  153.4714  135.7030  153.5996 H   0  0  0  0  0  0  0  0  0  0  0  0  # atno 10764 bound_to 10752
  153.4452  135.3846  155.2219 H   0  0  0  0  0  0  0  0  0  0  0  0  # atno 10765 bound_to 10752
  141.1005  133.8893  157.1854 H   0  0  0  0  0  0  0  0  0  0  0  0  # atno 11005 bound_to 11000
  145.6633  139.1585  143.2796 LP  0  0  0  0  0  0  0  0  0  0  0  0  # atno 17320 bound_to 7965
  146.1664  140.6711  142.9253 LP  0  0  0  0  0  0  0  0  0  0  0  0  # atno 17321 bound_to 7965
  139.8989  143.6861  152.3134 LP  0  0  0  0  0  0  0  0  0  0  0  0  # atno 17342 bound_to 10162
  139.7203  144.7604  151.0966 LP  0  0  0  0  0  0  0  0  0  0  0  0  # atno 17343 bound_to 10162
  157.6865  131.0823  150.7229 LP  0  0  0  0  0  0  0  0  0  0  0  0  # atno 17370 bound_to 10713
  156.7286  130.4703  149.5505 LP  0  0  0  0  0  0  0  0  0  0  0  0  # atno 17371 bound_to 10713
  139.9855  135.0083  156.9852 LP  0  0  0  0  0  0  0  0  0  0  0  0  # atno 17394 bound_to 11000
  140.5034  134.1075  155.7255 LP  0  0  0  0  0  0  0  0  0  0  0  0  # atno 17395 bound_to 11000

$$$$
