AV-unprocessed.smi:2648|AV-procd|sdf|10288|dock4
  -GOLD-   2272014303D 1   1.00000     0.00000
 Structure written by MMmdl.
 32 33  0  0  0  0  0  0  0  0  3 V2000
  145.8638  137.3249  154.9028 O   0  0  0  0  0  0  0  0  0  0  0  0
  146.7784  137.1960  154.0896 C   0  0  0  0  0  0  0  0  0  0  0  0
  148.0156  137.6739  154.2847 N   0  0  0  0  0  0  0  0  0  0  0  0
  148.4504  138.4015  155.4705 C   0  0  0  0  0  0  0  0  0  0  0  0
  149.1920  139.6969  155.0949 C   0  0  0  0  0  0  0  0  0  0  0  0
  150.2967  139.9617  156.0207 N   0  0  0  0  0  0  0  0  0  0  0  0
  150.1407  140.4124  157.2692 C   0  0  0  0  0  0  0  0  0  0  0  0
  149.0897  140.6876  157.8485 O   0  0  0  0  0  0  0  0  0  0  0  0
  151.5149  140.5257  157.8867 C   0  0  0  0  0  0  0  0  0  0  0  0
  152.3733  140.0716  156.8159 N   0  5  0  0  0  0  0  0  0  0  0  0
  151.5995  139.7517  155.7521 C   0  0  0  0  0  0  0  0  0  0  0  0
  151.9847  139.3188  154.6663 O   0  0  0  0  0  0  0  0  0  0  0  0
  146.6846  136.5498  152.9144 N   0  0  0  0  0  0  0  0  0  0  0  0
  145.5468  135.9184  152.3425 C   0  0  0  0  0  0  0  0  0  0  0  0
  145.5591  135.6833  150.9495 C   0  0  0  0  0  0  0  0  0  0  0  0
  144.4454  135.0736  150.3367 C   0  0  0  0  0  0  0  0  0  0  0  0
  143.3730  134.7290  151.0815 N   0  3  0  0  0  0  0  0  0  0  0  0
  143.3084  134.9470  152.4126 C   0  0  0  0  0  0  0  0  0  0  0  0
  144.3921  135.5529  153.0807 C   0  0  0  0  0  0  0  0  0  0  0  0
  148.7098  137.5205  153.5681 H   0  0  0  0  0  0  0  0  0  0  0  0
  147.5663  138.6369  156.0639 H   0  0  0  0  0  0  0  0  0  0  0  0
  149.0807  137.7639  156.0933 H   0  0  0  0  0  0  0  0  0  0  0  0
  149.5735  139.6331  154.0746 H   0  0  0  0  0  0  0  0  0  0  0  0
  148.4967  140.5381  155.0957 H   0  0  0  0  0  0  0  0  0  0  0  0
  151.7046  141.5579  158.1827 H   0  0  0  0  0  0  0  0  0  0  0  0
  151.5736  139.9019  158.7794 H   0  0  0  0  0  0  0  0  0  0  0  0
  147.5449  136.4492  152.3958 H   0  0  0  0  0  0  0  0  0  0  0  0
  146.4161  135.9607  150.3527 H   0  0  0  0  0  0  0  0  0  0  0  0
  144.3804  134.8550  149.2807 H   0  0  0  0  0  0  0  0  0  0  0  0
  142.3952  134.6380  152.9004 H   0  0  0  0  0  0  0  0  0  0  0  0
  144.3108  135.7357  154.1414 H   0  0  0  0  0  0  0  0  0  0  0  0
  142.5763  134.2904  150.6185 H   0  0  0  0  0  0  0  0  0  0  0  0
  1  2  2  0  0  0  0
  2  3  1  0  0  0  0
  2 13  1  0  0  0  0
  3  4  1  0  0  0  0
  3 20  1  0  0  0  0
  4  5  1  0  0  0  0
  4 21  1  0  0  0  0
  4 22  1  0  0  0  0
  5  6  1  0  0  0  0
  5 23  1  0  0  0  0
  5 24  1  0  0  0  0
  6 11  1  0  0  0  0
  6  7  1  0  0  0  0
  7  8  2  0  0  0  0
  7  9  1  0  0  0  0
  9 10  1  0  0  0  0
  9 25  1  0  0  0  0
  9 26  1  0  0  0  0
 10 11  1  0  0  0  0
 11 12  2  0  0  0  0
 13 14  1  0  0  0  0
 13 27  1  0  0  0  0
 14 19  1  0  0  0  0
 14 15  2  0  0  0  0
 15 16  1  0  0  0  0
 15 28  1  0  0  0  0
 16 17  2  0  0  0  0
 16 29  1  0  0  0  0
 17 18  1  0  0  0  0
 17 32  1  0  0  0  0
 18 19  2  0  0  0  0
 18 30  1  0  0  0  0
 19 31  1  0  0  0  0
M  CHG  1  10  -1
M  CHG  1  17   1
M  END
> <s_m_source_file>
AV-unprocessed.smi

> <i_m_source_file_index>
2648

> <i_lp_mmshare_version>
43012

> <i_f3d_flags>
0

> <s_epik_input>
W2NIXTFbY0hdbltjSF1bY0hdYzFbTkhdQyg9TylbTkhdW0NIMl1bQ0gyXU4yQyg9TylbQ0gyXVtOSF1DMj1P

> <s_epik_cmdline>
J2VwaWtfcHl0aG9uJywgJy1waCcsICc3LjAnLCAnLXRuJywgJzgnLCAnLW1hJywgJzIwMCcsICctbWV0YWxfYmluZGluZycsICctaW1hZScsICc8aW5maWxlLm1hZT4nLCAnLW9tYWUnLCAnPG91dGZpbGUubWFlPic=

> <r_lp_tautomer_probability>
1

> <r_epik_Ionization_Penalty>
6.85559

> <r_epik_Ionization_Penalty_Charging>
6.85558

> <r_epik_Ionization_Penalty_Neutral>
1.85947e-05

> <r_epik_State_Penalty>
6.90892

> <r_epik_Charging_Adjusted_Penalty>
13.7645

> <i_epik_Tot_Q>
0

> <i_epik_Tot_abs_Q>
2

> <r_epik_Metal_State_Penalty>
2.96744

> <b_epik_Metal_Only>
1

> <s_lp_Force_Field>
OPLS_2005

> <r_lp_Energy>
20.2927

> <b_lp_Chiralities_Consistent>
1

> <s_lp_Variant>
AV-unprocessed.smi:2648-4

> <Gold.Version>
5.8.1

> <Gold.Id.Protein>
6NUR|6NUR_protein|mol2

> <Gold.PLP.Fitness>
42.1125

> <Gold.PLP.PLP>
-23.9710

> <Gold.PLP.part.hbond>
-4.9394

> <Gold.PLP.part.metal>
0.0000

> <Gold.PLP.part.buried>
-3.1206

> <Gold.PLP.part.nonpolar>
-16.8462

> <Gold.PLP.part.repulsive>
0.1626

> <Gold.PLP.ligand.clash>
0.0000

> <Gold.PLP.ligand.torsion>
0.5842

> <Gold.PLP.Chemscore.Hbond>
6.4324

> <Gold.PLP.Chemscore.CHOScore>
0.0000

> <Gold.PLP.Chemscore.Metal>
0.0000

> <Gold.Chemscore.Hbonds>
donor molecule, donor type, donor heavy atom, donor atom, acceptor molecule, acceptor atom, score
      L1  H     3    20       P1  7948  0.56
      L1  H    13    27       P1  7948  0.96
      L1  H    17    32       P1 10186  1.98
      P1  H  7989  7998       L1    12  0.93
      P1  H  7997  8010       L1    10  2.00

> <Gold.PLP.Chemscore.Internal.Correction>
0.0129

> <Gold.Rescore>
     Score         DG    S(hbond)    S(metal)    S(lipo)     H(rot)  DE(clash)    DE(int)     intcor
     16.69     -18.57       4.13        0.00      36.25       1.93       0.20       1.68       ----

> <Gold.Chemscore.Fitness>
16.6928

> <Gold.Chemscore.DG>
-18.5693

> <Gold.Chemscore.ZeroCoef>
-5.4800

> <Gold.Chemscore.Hbond>
4.1271

> <Gold.Chemscore.Metal>
0.0000

> <Gold.Chemscore.Lipo>
36.2511

> <Gold.Chemscore.Internal_Hbond>
0.0000

> <Gold.Chemscore.DEClash>
0.1974

> <Gold.Chemscore.DEInternal>
1.6790

> <Gold.Chemscore.Rot>
1.9284

> <Gold.Chemscore.Internal.Correction>
   9.000000E+99

> <Gold.Chemscore.Hbonds>
donor molecule, donor type, donor heavy atom, donor atom, acceptor molecule, acceptor atom, score
      L1  H     3    20       P1  7948  0.55
      L1  H    13    27       P1  7948  0.91
      L1  H    17    32       P1 10186  0.47
      P1  H  7989  7998       L1    12  0.31
      P1  H  7997  8010       L1    10  0.89

> <Gold.Chemscore.Hbond.Weighted>
-13.7845

> <Gold.Chemscore.Metal.Weighted>
-0.0000

> <Gold.Chemscore.Lipo.Weighted>
-4.2414

> <Gold.Chemscore.Internal_Hbond.Weighted>
0.0000

> <Gold.Chemscore.DEClash.Weighted>
0.1974

> <Gold.Chemscore.DEInternal.Weighted>
1.6790

> <Gold.Chemscore.Rot.Weighted>
4.9366

> <Gold.Chemscore.Internal.Correction.Weighted>
   9.000000E+99

> <Gold.Protein.RotatedTorsions>
[ 6907 6896 6895 6894 ] final   38.16 input  -60.11 | X-H torsion
[ 7974 7965 7964 7962 ] final  138.13 input  175.53 | X-H torsion
[ 8008 7997 7996 7995 ] final   69.85 input   59.86 | X-H torsion
[ 10167 10162 10161 10158 ] final    7.88 input  -65.29 | X-H torsion
[ 10718 10713 10712 10709 ] final -104.20 input   66.30 | X-H torsion
[ 10763 10752 10751 10750 ] final  -75.86 input  -60.55 | X-H torsion
[ 11005 11000 10999 10996 ] final  -37.81 input  -57.11 | X-H torsion

> <Gold.Protein.ActiveResidues>
 VAL166  LYS551  ARG553  GLY616  TRP617  ASP618  TYR619  PRO620  LYS621  CYS622 
 ASP623  PHE694  ASN695  SER759  ASP760  ASP761  ALA762  ILE779  LEU786  VAL792 
 PHE793  MET794  SER795  GLU796  ALA797  LYS798  CYS799  TRP800  GLU811  SER814 

> <Gold.Protein.RotatedAtoms>
  152.1528  134.8975  160.0546 H   0  0  0  0  0  0  0  0  0  0  0  0  # atno 6907 bound_to 6896
  152.0000  133.3817  159.4186 H   0  0  0  0  0  0  0  0  0  0  0  0  # atno 6908 bound_to 6896
  150.6877  134.3766  159.5059 H   0  0  0  0  0  0  0  0  0  0  0  0  # atno 6909 bound_to 6896
  144.9401  139.4941  143.5576 H   0  0  0  0  0  0  0  0  0  0  0  0  # atno 7974 bound_to 7965
  155.7299  140.3492  155.5055 H   0  0  0  0  0  0  0  0  0  0  0  0  # atno 8008 bound_to 7997
  155.9192  140.1064  157.1242 H   0  0  0  0  0  0  0  0  0  0  0  0  # atno 8009 bound_to 7997
  154.4067  140.1253  156.4644 H   0  0  0  0  0  0  0  0  0  0  0  0  # atno 8010 bound_to 7997
  140.6346  143.7915  150.7342 H   0  0  0  0  0  0  0  0  0  0  0  0  # atno 10167 bound_to 10162
  156.0295  130.5503  150.7362 H   0  0  0  0  0  0  0  0  0  0  0  0  # atno 10718 bound_to 10713
  154.4921  135.5817  153.6467 H   0  0  0  0  0  0  0  0  0  0  0  0  # atno 10763 bound_to 10752
  152.9864  135.6115  154.3111 H   0  0  0  0  0  0  0  0  0  0  0  0  # atno 10764 bound_to 10752
  154.3012  135.2846  155.2589 H   0  0  0  0  0  0  0  0  0  0  0  0  # atno 10765 bound_to 10752
  140.9980  133.6970  156.1970 H   0  0  0  0  0  0  0  0  0  0  0  0  # atno 11005 bound_to 11000
  146.3282  139.8414  142.8890 LP  0  0  0  0  0  0  0  0  0  0  0  0  # atno 17320 bound_to 7965
  145.3004  141.0192  143.3612 LP  0  0  0  0  0  0  0  0  0  0  0  0  # atno 17321 bound_to 7965
  140.1533  143.4338  152.2116 LP  0  0  0  0  0  0  0  0  0  0  0  0  # atno 17342 bound_to 10162
  139.5558  144.7371  151.4300 LP  0  0  0  0  0  0  0  0  0  0  0  0  # atno 17343 bound_to 10162
  157.4942  131.0913  151.0391 LP  0  0  0  0  0  0  0  0  0  0  0  0  # atno 17370 bound_to 10713
  157.0790  130.5895  149.5416 LP  0  0  0  0  0  0  0  0  0  0  0  0  # atno 17371 bound_to 10713
  140.6935  134.4640  157.5588 LP  0  0  0  0  0  0  0  0  0  0  0  0  # atno 17394 bound_to 11000
  139.9024  134.8525  156.1841 LP  0  0  0  0  0  0  0  0  0  0  0  0  # atno 17395 bound_to 11000

$$$$
