AV-unprocessed.smi:2725|AV-procd|sdf|10515|dock10
  -GOLD-   2272014553D 1   1.00000     0.00000
 Structure written by MMmdl.
 44 45  0  0  0  0  0  0  0  0  1 V2000
  152.4865  139.9421  155.2289 O   0  0  0  0  0  0  0  0  0  0  0  0
  151.6835  139.8678  156.1595 C   0  0  0  0  0  0  0  0  0  0  0  0
  151.9406  140.6011  157.4794 C   0  0  0  0  0  0  0  0  0  0  0  0
  151.3226  142.0120  157.5267 C   0  0  0  0  0  0  0  0  0  0  0  0
  152.0747  142.9675  158.4700 C   0  0  0  0  0  0  0  0  0  0  0  0
  152.1107  142.5171  159.9341 C   0  0  0  0  0  0  0  0  0  0  0  0
  152.4046  143.7874  160.7407 C   0  0  0  0  0  0  0  0  0  0  0  0
  152.0153  144.9705  159.8408 C   0  0  0  0  0  0  0  0  0  0  0  0
  151.4476  144.3608  158.5553 C   0  0  0  0  0  0  0  0  0  0  0  0
  150.5488  139.1548  156.0958 N   0  0  0  0  0  0  0  0  0  0  0  0
  150.1018  138.3740  154.9422 C   0  0  2  0  0  0  0  0  0  0  0  0
  151.1874  137.3411  154.5786 C   0  0  0  0  0  0  0  0  0  0  0  0
  150.6109  136.0660  154.3887 O   0  0  0  0  0  0  0  0  0  0  0  0
  149.7589  139.2992  153.7477 C   0  0  0  0  0  0  0  0  0  0  0  0
  148.5864  140.2398  153.9870 C   0  0  0  0  0  0  0  0  0  0  0  0
  147.3171  139.7335  154.3420 C   0  0  0  0  0  0  0  0  0  0  0  0
  146.2668  140.6451  154.5616 C   0  0  0  0  0  0  0  0  0  0  0  0
  146.5227  142.0222  154.4152 C   0  0  0  0  0  0  0  0  0  0  0  0
  147.8230  142.4273  154.0537 C   0  0  0  0  0  0  0  0  0  0  0  0
  148.8374  141.5611  153.8428 N   0  0  0  0  0  0  0  0  0  0  0  0
  151.5443  139.9893  158.2903 H   0  0  0  0  0  0  0  0  0  0  0  0
  153.0179  140.6722  157.6373 H   0  0  0  0  0  0  0  0  0  0  0  0
  151.3254  142.4375  156.5221 H   0  0  0  0  0  0  0  0  0  0  0  0
  150.2759  141.9511  157.8295 H   0  0  0  0  0  0  0  0  0  0  0  0
  153.1011  143.0821  158.1178 H   0  0  0  0  0  0  0  0  0  0  0  0
  151.1359  142.1223  160.2248 H   0  0  0  0  0  0  0  0  0  0  0  0
  152.8486  141.7348  160.1133 H   0  0  0  0  0  0  0  0  0  0  0  0
  151.8522  143.7934  161.6808 H   0  0  0  0  0  0  0  0  0  0  0  0
  153.4657  143.8427  160.9860 H   0  0  0  0  0  0  0  0  0  0  0  0
  151.2956  145.6332  160.3224 H   0  0  0  0  0  0  0  0  0  0  0  0
  152.9015  145.5635  159.6115 H   0  0  0  0  0  0  0  0  0  0  0  0
  151.6607  144.9705  157.6767 H   0  0  0  0  0  0  0  0  0  0  0  0
  150.3634  144.2760  158.6429 H   0  0  0  0  0  0  0  0  0  0  0  0
  149.9458  139.1531  156.9058 H   0  0  0  0  0  0  0  0  0  0  0  0
  149.1910  137.8291  155.1989 H   0  0  0  0  0  0  0  0  0  0  0  0
  151.6705  137.6134  153.6399 H   0  0  0  0  0  0  0  0  0  0  0  0
  151.9711  137.2915  155.3357 H   0  0  0  0  0  0  0  0  0  0  0  0
  150.0145  136.1117  153.6570 H   0  0  0  0  0  0  0  0  0  0  0  0
  150.6345  139.8844  153.4634 H   0  0  0  0  0  0  0  0  0  0  0  0
  149.5285  138.6862  152.8753 H   0  0  0  0  0  0  0  0  0  0  0  0
  147.1528  138.6712  154.4497 H   0  0  0  0  0  0  0  0  0  0  0  0
  145.2833  140.2944  154.8376 H   0  0  0  0  0  0  0  0  0  0  0  0
  145.7414  142.7505  154.5750 H   0  0  0  0  0  0  0  0  0  0  0  0
  148.0551  143.4749  153.9314 H   0  0  0  0  0  0  0  0  0  0  0  0
  1  2  2  0  0  0  0
  2  3  1  0  0  0  0
  2 10  1  0  0  0  0
  3  4  1  0  0  0  0
  3 21  1  0  0  0  0
  3 22  1  0  0  0  0
  4  5  1  0  0  0  0
  4 23  1  0  0  0  0
  4 24  1  0  0  0  0
  5  9  1  0  0  0  0
  5  6  1  0  0  0  0
  5 25  1  0  0  0  0
  6  7  1  0  0  0  0
  6 26  1  0  0  0  0
  6 27  1  0  0  0  0
  7  8  1  0  0  0  0
  7 28  1  0  0  0  0
  7 29  1  0  0  0  0
  8  9  1  0  0  0  0
  8 30  1  0  0  0  0
  8 31  1  0  0  0  0
  9 32  1  0  0  0  0
  9 33  1  0  0  0  0
 10 11  1  0  0  0  0
 10 34  1  0  0  0  0
 11 12  1  0  0  0  0
 11 14  1  0  0  0  0
 11 35  1  0  0  0  0
 12 13  1  0  0  0  0
 12 36  1  0  0  0  0
 12 37  1  0  0  0  0
 13 38  1  0  0  0  0
 14 15  1  0  0  0  0
 14 39  1  0  0  0  0
 14 40  1  0  0  0  0
 15 20  1  0  0  0  0
 15 16  2  0  0  0  0
 16 17  1  0  0  0  0
 16 41  1  0  0  0  0
 17 18  2  0  0  0  0
 17 42  1  0  0  0  0
 18 19  1  0  0  0  0
 18 43  1  0  0  0  0
 19 20  2  0  0  0  0
 19 44  1  0  0  0  0
M  END
> <s_m_source_file>
AV-unprocessed.smi

> <i_m_source_file_index>
2725

> <i_lp_mmshare_version>
43012

> <i_f3d_flags>
0

> <s_epik_input>
W0NIMl0xW0NIMl1bQ0gyXVtDSDJdW0NIXTFbQ0gyXVtDSDJdQyg9TylbTkhdW0NASF0oW0NIMl1bT0hdKVtDSDJdYzJbY0hdW2NIXVtjSF1bY0hdbjI=

> <s_epik_cmdline>
J2VwaWtfcHl0aG9uJywgJy1waCcsICc3LjAnLCAnLXRuJywgJzgnLCAnLW1hJywgJzIwMCcsICctbWV0YWxfYmluZGluZycsICctaW1hZScsICc8aW5maWxlLm1hZT4nLCAnLW9tYWUnLCAnPG91dGZpbGUubWFlPic=

> <r_epik_Ionization_Penalty>
0.0257016

> <r_epik_Ionization_Penalty_Charging>
0

> <r_epik_Ionization_Penalty_Neutral>
0.0257016

> <r_epik_State_Penalty>
0.0209381

> <r_epik_Charging_Adjusted_Penalty>
0.0209381

> <i_epik_Tot_Q>
0

> <i_epik_Tot_abs_Q>
0

> <r_epik_Metal_State_Penalty>
0.0200649

> <b_epik_Metal_Only>
0

> <s_lp_Force_Field>
OPLS_2005

> <r_lp_Energy>
24.7076

> <b_lp_Chiralities_Consistent>
1

> <s_lp_Variant>
AV-unprocessed.smi:2725-1

> <Gold.Version>
5.8.1

> <Gold.Id.Protein>
6NUR|6NUR_protein|mol2

> <Gold.PLP.Fitness>
50.3220

> <Gold.PLP.PLP>
-42.1616

> <Gold.PLP.part.hbond>
-4.7271

> <Gold.PLP.part.metal>
0.0000

> <Gold.PLP.part.buried>
0.4998

> <Gold.PLP.part.nonpolar>
-37.7244

> <Gold.PLP.part.repulsive>
0.2259

> <Gold.PLP.ligand.clash>
0.0000

> <Gold.PLP.ligand.torsion>
1.2339

> <Gold.PLP.Chemscore.Hbond>
2.6186

> <Gold.PLP.Chemscore.CHOScore>
0.8793

> <Gold.PLP.Chemscore.Metal>
0.0000

> <Gold.Chemscore.Hbonds>
donor molecule, donor type, donor heavy atom, donor atom, acceptor molecule, acceptor atom, score
      L1  H    13    38       P1  7948  0.68
      P1  H  7989  7998       L1     1  0.47
      P1  H  7997  8008       L1     1  0.89
      P1  H  8011  8017       L1    20  0.69
      L1  C    19    44       P1  8028  0.86

> <Gold.PLP.Chemscore.Internal.Correction>
0.1347

> <Gold.Rescore>
     Score         DG    S(hbond)    S(metal)    S(lipo)     H(rot)  DE(clash)    DE(int)     intcor
     14.18     -19.25       1.82        0.00     119.16       2.44       2.64       2.42       ----

> <Gold.Chemscore.Fitness>
14.1838

> <Gold.Chemscore.DG>
-19.2502

> <Gold.Chemscore.ZeroCoef>
-5.4800

> <Gold.Chemscore.Hbond>
1.8199

> <Gold.Chemscore.Metal>
0.0000

> <Gold.Chemscore.Lipo>
119.1641

> <Gold.Chemscore.Internal_Hbond>
0.0000

> <Gold.Chemscore.DEClash>
2.6437

> <Gold.Chemscore.DEInternal>
2.4226

> <Gold.Chemscore.Rot>
2.4416

> <Gold.Chemscore.Internal.Correction>
   9.000000E+99

> <Gold.Chemscore.Hbonds>
donor molecule, donor type, donor heavy atom, donor atom, acceptor molecule, acceptor atom, score
      L1  H    13    38       P1  7948  0.07
      P1  H  7989  7998       L1     1  0.42
      P1  H  7997  8008       L1     1  0.64
      P1  H  8011  8017       L1    20  0.20

> <Gold.Chemscore.Hbond.Weighted>
-6.0785

> <Gold.Chemscore.Metal.Weighted>
-0.0000

> <Gold.Chemscore.Lipo.Weighted>
-13.9422

> <Gold.Chemscore.Internal_Hbond.Weighted>
0.0000

> <Gold.Chemscore.DEClash.Weighted>
2.6437

> <Gold.Chemscore.DEInternal.Weighted>
2.4226

> <Gold.Chemscore.Rot.Weighted>
6.2505

> <Gold.Chemscore.Internal.Correction.Weighted>
   9.000000E+99

> <Gold.Protein.RotatedTorsions>
[ 6907 6896 6895 6894 ] final  154.64 input  -60.11 | X-H torsion
[ 7974 7965 7964 7962 ] final   26.81 input  175.53 | X-H torsion
[ 8008 7997 7996 7995 ] final  -21.59 input   59.86 | X-H torsion
[ 10167 10162 10161 10158 ] final  -92.64 input  -65.29 | X-H torsion
[ 10718 10713 10712 10709 ] final  175.94 input   66.30 | X-H torsion
[ 10763 10752 10751 10750 ] final   58.98 input  -60.55 | X-H torsion
[ 11005 11000 10999 10996 ] final  173.99 input  -57.11 | X-H torsion

> <Gold.Protein.ActiveResidues>
 VAL166  LYS551  ARG553  GLY616  TRP617  ASP618  TYR619  PRO620  LYS621  CYS622 
 ASP623  PHE694  ASN695  SER759  ASP760  ASP761  ALA762  ILE779  LEU786  VAL792 
 PHE793  MET794  SER795  GLU796  ALA797  LYS798  CYS799  TRP800  GLU811  SER814 

> <Gold.Protein.RotatedAtoms>
  152.0556  133.4038  159.4395 H   0  0  0  0  0  0  0  0  0  0  0  0  # atno 6907 bound_to 6896
  150.6868  134.3258  159.4815 H   0  0  0  0  0  0  0  0  0  0  0  0  # atno 6908 bound_to 6896
  152.1073  134.9299  160.0618 H   0  0  0  0  0  0  0  0  0  0  0  0  # atno 6909 bound_to 6896
  146.1818  139.7278  142.8895 H   0  0  0  0  0  0  0  0  0  0  0  0  # atno 7974 bound_to 7965
  154.4696  140.2030  156.0029 H   0  0  0  0  0  0  0  0  0  0  0  0  # atno 8008 bound_to 7997
  156.0987  140.3247  155.7883 H   0  0  0  0  0  0  0  0  0  0  0  0  # atno 8009 bound_to 7997
  155.4834  140.0540  157.2955 H   0  0  0  0  0  0  0  0  0  0  0  0  # atno 8010 bound_to 7997
  140.3328  143.2985  151.9923 H   0  0  0  0  0  0  0  0  0  0  0  0  # atno 10167 bound_to 10162
  156.9274  130.9960  151.2993 H   0  0  0  0  0  0  0  0  0  0  0  0  # atno 10718 bound_to 10713
  152.9883  135.5587  154.5640 H   0  0  0  0  0  0  0  0  0  0  0  0  # atno 10763 bound_to 10752
  154.5054  135.2799  155.1389 H   0  0  0  0  0  0  0  0  0  0  0  0  # atno 10764 bound_to 10752
  154.2802  135.6346  153.5397 H   0  0  0  0  0  0  0  0  0  0  0  0  # atno 10765 bound_to 10752
  140.3465  134.7232  157.4238 H   0  0  0  0  0  0  0  0  0  0  0  0  # atno 11005 bound_to 11000
  145.4054  141.0390  143.3047 LP  0  0  0  0  0  0  0  0  0  0  0  0  # atno 17320 bound_to 7965
  144.8328  139.5600  143.6936 LP  0  0  0  0  0  0  0  0  0  0  0  0  # atno 17321 bound_to 7965
  139.4853  144.6221  151.7235 LP  0  0  0  0  0  0  0  0  0  0  0  0  # atno 17342 bound_to 10162
  140.5382  144.0622  150.6078 LP  0  0  0  0  0  0  0  0  0  0  0  0  # atno 17343 bound_to 10162
  157.5869  130.8416  149.8602 LP  0  0  0  0  0  0  0  0  0  0  0  0  # atno 17370 bound_to 10713
  156.0463  130.3727  150.1310 LP  0  0  0  0  0  0  0  0  0  0  0  0  # atno 17371 bound_to 10713
  140.0738  134.5825  155.8613 LP  0  0  0  0  0  0  0  0  0  0  0  0  # atno 17394 bound_to 11000
  141.2024  133.6625  156.6005 LP  0  0  0  0  0  0  0  0  0  0  0  0  # atno 17395 bound_to 11000

$$$$
