AV-unprocessed.smi:2603|AV-procd|sdf|10185|dock10
  -GOLD-   2272014203D 1   1.00000     0.00000
 Structure written by MMmdl.
 35 36  0  0  0  0  0  0  0  0  1 V2000
  144.2299  133.7867  150.4977 C   0  0  0  0  0  0  0  0  0  0  0  0
  144.1584  132.3970  149.8605 C   0  0  0  0  0  0  0  0  0  0  0  0
  144.3365  131.4180  150.8689 O   0  0  0  0  0  0  0  0  0  0  0  0
  145.7021  131.1030  151.0691 C   0  0  2  0  0  0  0  0  0  0  0  0
  145.9335  129.9332  151.9838 C   0  0  0  0  0  0  0  0  0  0  0  0
  146.1446  131.3483  152.4926 C   0  0  1  0  0  0  0  0  0  0  0  0
  147.4869  131.7849  152.6963 N   0  0  0  0  0  0  0  0  0  0  0  0
  147.9943  132.2372  153.8525 C   0  0  0  0  0  0  0  0  0  0  0  0
  147.3444  132.3340  154.8934 O   0  0  0  0  0  0  0  0  0  0  0  0
  149.4695  132.6366  153.8341 C   0  0  0  0  0  0  0  0  0  0  0  0
  150.0494  132.4948  155.2178 C   0  0  0  0  0  0  0  0  0  0  0  0
  150.8175  131.4178  155.7480 C   0  0  0  0  0  0  0  0  0  0  0  0
  151.2420  130.1458  155.0717 C   0  0  0  0  0  0  0  0  0  0  0  0
  151.1574  131.6273  157.0086 N   0  0  0  0  0  0  0  0  0  0  0  0
  150.6153  132.8698  157.3507 O   0  0  0  0  0  0  0  0  0  0  0  0
  149.9602  133.3645  156.2696 C   0  0  0  0  0  0  0  0  0  0  0  0
  149.2987  134.6908  156.4332 C   0  0  0  0  0  0  0  0  0  0  0  0
  144.1022  134.5665  149.7470 H   0  0  0  0  0  0  0  0  0  0  0  0
  145.1924  133.9452  150.9848 H   0  0  0  0  0  0  0  0  0  0  0  0
  143.4487  133.9131  151.2477 H   0  0  0  0  0  0  0  0  0  0  0  0
  143.1935  132.2605  149.3697 H   0  0  0  0  0  0  0  0  0  0  0  0
  144.9337  132.2956  149.0995 H   0  0  0  0  0  0  0  0  0  0  0  0
  146.3795  131.3212  150.2446 H   0  0  0  0  0  0  0  0  0  0  0  0
  145.0603  129.3940  152.3462 H   0  0  0  0  0  0  0  0  0  0  0  0
  146.8152  129.3216  151.8024 H   0  0  0  0  0  0  0  0  0  0  0  0
  145.3862  131.7289  153.1757 H   0  0  0  0  0  0  0  0  0  0  0  0
  148.1028  131.7429  151.8975 H   0  0  0  0  0  0  0  0  0  0  0  0
  150.0059  132.0213  153.1105 H   0  0  0  0  0  0  0  0  0  0  0  0
  149.5508  133.6623  153.4726 H   0  0  0  0  0  0  0  0  0  0  0  0
  150.4740  129.3785  155.1710 H   0  0  0  0  0  0  0  0  0  0  0  0
  152.1640  129.7521  155.5008 H   0  0  0  0  0  0  0  0  0  0  0  0
  151.4174  130.3042  154.0078 H   0  0  0  0  0  0  0  0  0  0  0  0
  148.2147  134.5874  156.3869 H   0  0  0  0  0  0  0  0  0  0  0  0
  149.6067  135.3760  155.6433 H   0  0  0  0  0  0  0  0  0  0  0  0
  149.5546  135.1437  157.3916 H   0  0  0  0  0  0  0  0  0  0  0  0
  1  2  1  0  0  0  0
  1 18  1  0  0  0  0
  1 19  1  0  0  0  0
  1 20  1  0  0  0  0
  2  3  1  0  0  0  0
  2 21  1  0  0  0  0
  2 22  1  0  0  0  0
  3  4  1  0  0  0  0
  4  6  1  0  0  0  0
  4  5  1  0  0  0  0
  4 23  1  0  0  0  0
  5  6  1  0  0  0  0
  5 24  1  0  0  0  0
  5 25  1  0  0  0  0
  6  7  1  0  0  0  0
  6 26  1  0  0  0  0
  7  8  1  0  0  0  0
  7 27  1  0  0  0  0
  8  9  2  0  0  0  0
  8 10  1  0  0  0  0
 10 11  1  0  0  0  0
 10 28  1  0  0  0  0
 10 29  1  0  0  0  0
 11 16  2  0  0  0  0
 11 12  1  0  0  0  0
 12 13  1  0  0  0  0
 12 14  2  0  0  0  0
 13 30  1  0  0  0  0
 13 31  1  0  0  0  0
 13 32  1  0  0  0  0
 14 15  1  0  0  0  0
 15 16  1  0  0  0  0
 16 17  1  0  0  0  0
 17 33  1  0  0  0  0
 17 34  1  0  0  0  0
 17 35  1  0  0  0  0
M  END
> <s_m_source_file>
AV-unprocessed.smi

> <i_m_source_file_index>
2603

> <i_lp_mmshare_version>
43012

> <i_f3d_flags>
0

> <s_epik_input>
W0NIM11bQ0gyXU9bQ0BASF0xW0NIMl1bQ0BIXTFbTkhdQyg9TylbQ0gyXWMyYyhbQ0gzXSlub2MyW0NIM10=

> <s_epik_cmdline>
J2VwaWtfcHl0aG9uJywgJy1waCcsICc3LjAnLCAnLXRuJywgJzgnLCAnLW1hJywgJzIwMCcsICctbWV0YWxfYmluZGluZycsICctaW1hZScsICc8aW5maWxlLm1hZT4nLCAnLW9tYWUnLCAnPG91dGZpbGUubWFlPic=

> <r_lp_tautomer_probability>
1

> <r_epik_Ionization_Penalty>
2.37325e-08

> <r_epik_Ionization_Penalty_Charging>
0

> <r_epik_Ionization_Penalty_Neutral>
2.37325e-08

> <r_epik_State_Penalty>
-0

> <r_epik_Charging_Adjusted_Penalty>
0

> <i_epik_Tot_Q>
0

> <i_epik_Tot_abs_Q>
0

> <r_epik_Metal_State_Penalty>
-0

> <b_epik_Metal_Only>
0

> <s_lp_Force_Field>
OPLS_2005

> <r_lp_Energy>
10.4269

> <b_lp_Chiralities_Consistent>
1

> <s_lp_Variant>
AV-unprocessed.smi:2603-1

> <Gold.Version>
5.8.1

> <Gold.Id.Protein>
6NUR|6NUR_protein|mol2

> <Gold.PLP.Fitness>
33.4155

> <Gold.PLP.PLP>
-29.3040

> <Gold.PLP.part.hbond>
-2.0000

> <Gold.PLP.part.metal>
0.0000

> <Gold.PLP.part.buried>
-5.3377

> <Gold.PLP.part.nonpolar>
-22.3907

> <Gold.PLP.part.repulsive>
0.1579

> <Gold.PLP.ligand.clash>
0.0000

> <Gold.PLP.ligand.torsion>
1.2786

> <Gold.PLP.Chemscore.Hbond>
2.0000

> <Gold.PLP.Chemscore.CHOScore>
0.0000

> <Gold.PLP.Chemscore.Metal>
0.0000

> <Gold.Chemscore.Hbonds>
donor molecule, donor type, donor heavy atom, donor atom, acceptor molecule, acceptor atom, score
      L1  H     7    27       P1 10747  0.98
      P1  H  6896  6909       L1    15  1.00

> <Gold.PLP.Chemscore.Internal.Correction>
0.6687

> <Gold.Rescore>
     Score         DG    S(hbond)    S(metal)    S(lipo)     H(rot)  DE(clash)    DE(int)     intcor
     15.03     -16.50       1.93        0.00      76.02       1.69       0.05       1.42       ----

> <Gold.Chemscore.Fitness>
15.0272

> <Gold.Chemscore.DG>
-16.5019

> <Gold.Chemscore.ZeroCoef>
-5.4800

> <Gold.Chemscore.Hbond>
1.9349

> <Gold.Chemscore.Metal>
0.0000

> <Gold.Chemscore.Lipo>
76.0163

> <Gold.Chemscore.Internal_Hbond>
0.0000

> <Gold.Chemscore.DEClash>
0.0515

> <Gold.Chemscore.DEInternal>
1.4232

> <Gold.Chemscore.Rot>
1.6933

> <Gold.Chemscore.Internal.Correction>
   9.000000E+99

> <Gold.Chemscore.Hbonds>
donor molecule, donor type, donor heavy atom, donor atom, acceptor molecule, acceptor atom, score
      L1  H     7    27       P1 10747  0.91
      P1  H  6896  6909       L1    15  0.73

> <Gold.Chemscore.Hbond.Weighted>
-6.4627

> <Gold.Chemscore.Metal.Weighted>
-0.0000

> <Gold.Chemscore.Lipo.Weighted>
-8.8939

> <Gold.Chemscore.Internal_Hbond.Weighted>
0.0000

> <Gold.Chemscore.DEClash.Weighted>
0.0515

> <Gold.Chemscore.DEInternal.Weighted>
1.4232

> <Gold.Chemscore.Rot.Weighted>
4.3348

> <Gold.Chemscore.Internal.Correction.Weighted>
   9.000000E+99

> <Gold.Protein.RotatedTorsions>
[ 6907 6896 6895 6894 ] final  -32.05 input  -60.11 | X-H torsion
[ 7974 7965 7964 7962 ] final -175.99 input  175.53 | X-H torsion
[ 8008 7997 7996 7995 ] final  -93.94 input   59.86 | X-H torsion
[ 10167 10162 10161 10158 ] final -157.37 input  -65.29 | X-H torsion
[ 10718 10713 10712 10709 ] final -110.60 input   66.30 | X-H torsion
[ 10763 10752 10751 10750 ] final -120.98 input  -60.55 | X-H torsion
[ 11005 11000 10999 10996 ] final -104.13 input  -57.11 | X-H torsion

> <Gold.Protein.ActiveResidues>
 VAL166  LYS551  ARG553  GLY616  TRP617  ASP618  TYR619  PRO620  LYS621  CYS622 
 ASP623  PHE694  ASN695  SER759  ASP760  ASP761  ALA762  ILE779  LEU786  VAL792 
 PHE793  MET794  SER795  GLU796  ALA797  LYS798  CYS799  TRP800  GLU811  SER814 

> <Gold.Protein.RotatedAtoms>
  151.0839  134.9875  159.8369 H   0  0  0  0  0  0  0  0  0  0  0  0  # atno 6907 bound_to 6896
  152.5422  134.2147  159.8774 H   0  0  0  0  0  0  0  0  0  0  0  0  # atno 6908 bound_to 6896
  151.2179  133.4475  159.2633 H   0  0  0  0  0  0  0  0  0  0  0  0  # atno 6909 bound_to 6896
  144.7127  140.1237  143.6403 H   0  0  0  0  0  0  0  0  0  0  0  0  # atno 7974 bound_to 7965
  154.7420  140.0494  157.0819 H   0  0  0  0  0  0  0  0  0  0  0  0  # atno 8008 bound_to 7997
  155.0166  140.3142  155.4790 H   0  0  0  0  0  0  0  0  0  0  0  0  # atno 8009 bound_to 7997
  156.2866  140.2174  156.5282 H   0  0  0  0  0  0  0  0  0  0  0  0  # atno 8010 bound_to 7997
  139.6776  143.9637  152.2319 H   0  0  0  0  0  0  0  0  0  0  0  0  # atno 10167 bound_to 10162
  156.0600  130.5824  150.8260 H   0  0  0  0  0  0  0  0  0  0  0  0  # atno 10718 bound_to 10713
  154.8657  135.4184  154.2546 H   0  0  0  0  0  0  0  0  0  0  0  0  # atno 10763 bound_to 10752
  153.3486  135.6997  153.6813 H   0  0  0  0  0  0  0  0  0  0  0  0  # atno 10764 bound_to 10752
  153.5762  135.3581  155.2830 H   0  0  0  0  0  0  0  0  0  0  0  0  # atno 10765 bound_to 10752
  141.1114  133.8698  157.1573 H   0  0  0  0  0  0  0  0  0  0  0  0  # atno 11005 bound_to 11000
  145.9348  139.2630  143.1304 LP  0  0  0  0  0  0  0  0  0  0  0  0  # atno 17320 bound_to 7965
  145.9485  140.8926  143.0271 LP  0  0  0  0  0  0  0  0  0  0  0  0  # atno 17321 bound_to 7965
  139.9418  144.6677  150.8259 LP  0  0  0  0  0  0  0  0  0  0  0  0  # atno 17342 bound_to 10162
  140.7641  143.3239  151.2559 LP  0  0  0  0  0  0  0  0  0  0  0  0  # atno 17343 bound_to 10162
  157.5601  131.0945  150.9571 LP  0  0  0  0  0  0  0  0  0  0  0  0  # atno 17370 bound_to 10713
  156.9811  130.5527  149.5296 LP  0  0  0  0  0  0  0  0  0  0  0  0  # atno 17371 bound_to 10713
  140.0010  135.0027  157.0190 LP  0  0  0  0  0  0  0  0  0  0  0  0  # atno 17394 bound_to 11000
  140.4764  134.1334  155.7210 LP  0  0  0  0  0  0  0  0  0  0  0  0  # atno 17395 bound_to 11000

$$$$
