AV-unprocessed.smi:99|AV-procd|sdf|880|dock5
  -GOLD-   2262017353D 1   1.00000     0.00000
 Structure written by MMmdl.
 53 56  0  0  0  0  0  0  0  0  1 V2000
  151.7648  137.3938  153.8764 O   0  0  0  0  0  0  0  0  0  0  0  0
  150.7274  137.7133  154.4596 C   0  0  0  0  0  0  0  0  0  0  0  0
  149.9652  136.8488  155.1565 O   0  0  0  0  0  0  0  0  0  0  0  0
  150.4462  135.5514  155.4683 C   0  0  0  0  0  0  0  0  0  0  0  0
  149.2921  134.5498  155.3368 C   0  0  1  0  0  0  0  0  0  0  0  0
  149.5500  133.6505  154.2624 O   0  0  0  0  0  0  0  0  0  0  0  0
  148.8845  132.4367  154.4789 C   0  0  2  0  0  0  0  0  0  0  0  0
  147.8208  132.2485  153.4151 N   0  0  0  0  0  0  0  0  0  0  0  0
  147.4576  133.2661  152.5411 C   0  0  0  0  0  0  0  0  0  0  0  0
  146.5078  133.1151  151.5877 C   0  0  0  0  0  0  0  0  0  0  0  0
  145.8050  131.8451  151.4358 C   0  0  0  0  0  0  0  0  0  0  0  0
  144.9340  131.6127  150.6005 O   0  0  0  0  0  0  0  0  0  0  0  0
  146.1944  130.8545  152.3417 N   0  0  0  0  0  0  0  0  0  0  0  0
  147.1685  130.9995  153.3306 C   0  0  0  0  0  0  0  0  0  0  0  0
  147.4233  130.0649  154.0892 O   0  0  0  0  0  0  0  0  0  0  0  0
  148.3067  132.4725  155.9133 C   0  0  2  0  0  0  0  0  0  0  0  0
  146.9180  132.7696  155.9382 O   0  0  0  0  0  0  0  0  0  0  0  0
  149.1305  133.5972  156.5205 C   0  0  2  0  0  0  0  0  0  0  0  0
  148.5010  134.1647  157.6667 O   0  0  0  0  0  0  0  0  0  0  0  0
  148.4142  133.4835  158.8303 C   0  0  0  0  0  0  0  0  0  0  0  0
  148.5539  132.2626  158.9236 O   0  0  0  0  0  0  0  0  0  0  0  0
  148.1735  134.3723  160.0024 C   0  0  0  0  0  0  0  0  0  0  0  0
  148.3393  135.7695  159.8576 C   0  0  0  0  0  0  0  0  0  0  0  0
  148.0924  136.6366  160.9395 C   0  0  0  0  0  0  0  0  0  0  0  0
  147.6813  136.1164  162.1804 C   0  0  0  0  0  0  0  0  0  0  0  0
  147.5173  134.7280  162.3385 C   0  0  0  0  0  0  0  0  0  0  0  0
  147.7608  133.8595  161.2568 C   0  0  0  0  0  0  0  0  0  0  0  0
  150.1954  139.1063  154.4950 C   0  0  0  0  0  0  0  0  0  0  0  0
  150.9322  140.1137  155.1603 C   0  0  0  0  0  0  0  0  0  0  0  0
  150.4408  141.4317  155.2331 C   0  0  0  0  0  0  0  0  0  0  0  0
  149.2072  141.7588  154.6402 C   0  0  0  0  0  0  0  0  0  0  0  0
  148.4676  140.7671  153.9701 C   0  0  0  0  0  0  0  0  0  0  0  0
  148.9584  139.4493  153.8948 C   0  0  0  0  0  0  0  0  0  0  0  0
  145.7291  129.9605  152.2769 H   0  0  0  0  0  0  0  0  0  0  0  0
  151.2488  135.2977  154.7751 H   0  0  0  0  0  0  0  0  0  0  0  0
  150.8580  135.5131  156.4779 H   0  0  0  0  0  0  0  0  0  0  0  0
  148.3553  135.0724  155.1357 H   0  0  0  0  0  0  0  0  0  0  0  0
  149.6153  131.6399  154.3269 H   0  0  0  0  0  0  0  0  0  0  0  0
  147.9367  134.2310  152.6093 H   0  0  0  0  0  0  0  0  0  0  0  0
  146.2649  133.9401  150.9337 H   0  0  0  0  0  0  0  0  0  0  0  0
  148.4781  131.5180  156.4119 H   0  0  0  0  0  0  0  0  0  0  0  0
  146.5478  132.3952  156.7231 H   0  0  0  0  0  0  0  0  0  0  0  0
  150.1093  133.1853  156.7711 H   0  0  0  0  0  0  0  0  0  0  0  0
  148.6467  136.1925  158.9121 H   0  0  0  0  0  0  0  0  0  0  0  0
  148.2154  137.7023  160.8152 H   0  0  0  0  0  0  0  0  0  0  0  0
  147.4909  136.7816  163.0098 H   0  0  0  0  0  0  0  0  0  0  0  0
  147.2021  134.3274  163.2907 H   0  0  0  0  0  0  0  0  0  0  0  0
  147.6220  132.7993  161.4104 H   0  0  0  0  0  0  0  0  0  0  0  0
  151.8784  139.8845  155.6296 H   0  0  0  0  0  0  0  0  0  0  0  0
  151.0104  142.1916  155.7477 H   0  0  0  0  0  0  0  0  0  0  0  0
  148.8285  142.7684  154.7000 H   0  0  0  0  0  0  0  0  0  0  0  0
  147.5186  141.0148  153.5177 H   0  0  0  0  0  0  0  0  0  0  0  0
  148.3608  138.7116  153.3792 H   0  0  0  0  0  0  0  0  0  0  0  0
  1  2  2  0  0  0  0
  2  3  1  0  0  0  0
  2 28  1  0  0  0  0
  3  4  1  0  0  0  0
  4  5  1  0  0  0  0
  4 35  1  0  0  0  0
  4 36  1  0  0  0  0
  5 18  1  0  0  0  0
  5  6  1  0  0  0  0
  5 37  1  0  0  0  0
  6  7  1  0  0  0  0
  7  8  1  0  0  0  0
  7 16  1  0  0  0  0
  7 38  1  0  0  0  0
  8 14  1  0  0  0  0
  8  9  1  0  0  0  0
  9 10  2  0  0  0  0
  9 39  1  0  0  0  0
 10 11  1  0  0  0  0
 10 40  1  0  0  0  0
 11 12  2  0  0  0  0
 11 13  1  0  0  0  0
 13 34  1  0  0  0  0
 13 14  1  0  0  0  0
 14 15  2  0  0  0  0
 16 17  1  0  0  0  0
 16 18  1  0  0  0  0
 16 41  1  0  0  0  0
 17 42  1  0  0  0  0
 18 19  1  0  0  0  0
 18 43  1  0  0  0  0
 19 20  1  0  0  0  0
 20 21  2  0  0  0  0
 20 22  1  0  0  0  0
 22 27  1  0  0  0  0
 22 23  2  0  0  0  0
 23 24  1  0  0  0  0
 23 44  1  0  0  0  0
 24 25  2  0  0  0  0
 24 45  1  0  0  0  0
 25 26  1  0  0  0  0
 25 46  1  0  0  0  0
 26 27  2  0  0  0  0
 26 47  1  0  0  0  0
 27 48  1  0  0  0  0
 28 33  1  0  0  0  0
 28 29  2  0  0  0  0
 29 30  1  0  0  0  0
 29 49  1  0  0  0  0
 30 31  2  0  0  0  0
 30 50  1  0  0  0  0
 31 32  1  0  0  0  0
 31 51  1  0  0  0  0
 32 33  2  0  0  0  0
 32 52  1  0  0  0  0
 33 53  1  0  0  0  0
M  END
> <s_m_source_file>
AV-unprocessed.smi

> <i_m_source_file_index>
99

> <i_lp_mmshare_version>
43012

> <i_f3d_flags>
0

> <s_epik_input>
W2NIXTFbY0hdW2NIXVtjSF1bY0hdYzFDKD1PKU9bQ0gyXVtDQEBIXTJPW0NAQEhdKG4zW2NIXVtjSF1jKD1PKVtuSF1jMz1PKVtDQEBIXShbT0hdKVtDQEhdMk9DKD1PKWM0W2NIXVtjSF1bY0hdW2NIXVtjSF00

> <s_epik_cmdline>
J2VwaWtfcHl0aG9uJywgJy1waCcsICc3LjAnLCAnLXRuJywgJzgnLCAnLW1hJywgJzIwMCcsICctbWV0YWxfYmluZGluZycsICctaW1hZScsICc8aW5maWxlLm1hZT4nLCAnLW9tYWUnLCAnPG91dGZpbGUubWFlPic=

> <r_lp_tautomer_probability>
1

> <r_epik_Ionization_Penalty>
0.00454555

> <r_epik_Ionization_Penalty_Charging>
0.0045191

> <r_epik_Ionization_Penalty_Neutral>
2.64449e-05

> <r_epik_State_Penalty>
-0

> <r_epik_Charging_Adjusted_Penalty>
0.0045191

> <i_epik_Tot_Q>
0

> <i_epik_Tot_abs_Q>
0

> <r_epik_Metal_State_Penalty>
1.27877

> <b_epik_Metal_Only>
0

> <s_epik_Chemistry_Notes>
This compound has an ester and may undergo hydrolysis at high or low pH. This compound contains an acetal/aminal-like group ( X-CH(R)-Y where X, Y are N, S, or O) that may be acid/base labile, releasing an aldehyde.

> <s_lp_Force_Field>
OPLS_2005

> <r_lp_Energy>
44.2289

> <b_lp_Chiralities_Consistent>
1

> <s_lp_Variant>
AV-unprocessed.smi:99-16

> <Gold.Version>
5.8.1

> <Gold.Id.Protein>
6NUR|6NUR_protein|mol2

> <Gold.PLP.Fitness>
55.7256

> <Gold.PLP.PLP>
-55.9484

> <Gold.PLP.part.hbond>
-1.0991

> <Gold.PLP.part.metal>
0.0000

> <Gold.PLP.part.buried>
-7.0085

> <Gold.PLP.part.nonpolar>
-48.8081

> <Gold.PLP.part.repulsive>
0.5359

> <Gold.PLP.ligand.clash>
0.0000

> <Gold.PLP.ligand.torsion>
2.9489

> <Gold.PLP.Chemscore.Hbond>
0.7360

> <Gold.PLP.Chemscore.CHOScore>
0.9911

> <Gold.PLP.Chemscore.Metal>
0.0000

> <Gold.Chemscore.Hbonds>
donor molecule, donor type, donor heavy atom, donor atom, acceptor molecule, acceptor atom, score
      P1  H 10752 10764       L1     1  0.28
      L1  C     9    39       P1  7948  1.00

> <Gold.PLP.Chemscore.Internal.Correction>
0.4935

> <Gold.Rescore>
     Score         DG    S(hbond)    S(metal)    S(lipo)     H(rot)  DE(clash)    DE(int)     intcor
     10.12     -13.21       0.89        0.00     110.37       3.19       0.00       3.08       ----

> <Gold.Chemscore.Fitness>
10.1234

> <Gold.Chemscore.DG>
-13.2060

> <Gold.Chemscore.ZeroCoef>
-5.4800

> <Gold.Chemscore.Hbond>
0.8921

> <Gold.Chemscore.Metal>
0.0000

> <Gold.Chemscore.Lipo>
110.3715

> <Gold.Chemscore.Internal_Hbond>
0.0000

> <Gold.Chemscore.DEClash>
0.0029

> <Gold.Chemscore.DEInternal>
3.0797

> <Gold.Chemscore.Rot>
3.1903

> <Gold.Chemscore.Internal.Correction>
   9.000000E+99

> <Gold.Chemscore.Hbonds>
donor molecule, donor type, donor heavy atom, donor atom, acceptor molecule, acceptor atom, score
      P1  H 10752 10764       L1     1  0.29

> <Gold.Chemscore.Hbond.Weighted>
-2.9796

> <Gold.Chemscore.Metal.Weighted>
-0.0000

> <Gold.Chemscore.Lipo.Weighted>
-12.9135

> <Gold.Chemscore.Internal_Hbond.Weighted>
0.0000

> <Gold.Chemscore.DEClash.Weighted>
0.0029

> <Gold.Chemscore.DEInternal.Weighted>
3.0797

> <Gold.Chemscore.Rot.Weighted>
8.1671

> <Gold.Chemscore.Internal.Correction.Weighted>
   9.000000E+99

> <Gold.Protein.RotatedTorsions>
[ 6907 6896 6895 6894 ] final  121.11 input  -60.11 | X-H torsion
[ 7974 7965 7964 7962 ] final   26.66 input  175.53 | X-H torsion
[ 8008 7997 7996 7995 ] final  140.46 input   59.86 | X-H torsion
[ 10167 10162 10161 10158 ] final  -88.14 input  -65.29 | X-H torsion
[ 10718 10713 10712 10709 ] final -173.14 input   66.30 | X-H torsion
[ 10763 10752 10751 10750 ] final  -58.01 input  -60.55 | X-H torsion
[ 11005 11000 10999 10996 ] final  155.49 input  -57.11 | X-H torsion

> <Gold.Protein.ActiveResidues>
 VAL166  LYS551  ARG553  GLY616  TRP617  ASP618  TYR619  PRO620  LYS621  CYS622 
 ASP623  PHE694  ASN695  SER759  ASP760  ASP761  ALA762  ILE779  LEU786  VAL792 
 PHE793  MET794  SER795  GLU796  ALA797  LYS798  CYS799  TRP800  GLU811  SER814 

> <Gold.Protein.RotatedAtoms>
  152.4347  133.7339  159.6602 H   0  0  0  0  0  0  0  0  0  0  0  0  # atno 6907 bound_to 6896
  150.8229  133.8210  159.3137 H   0  0  0  0  0  0  0  0  0  0  0  0  # atno 6908 bound_to 6896
  151.5887  135.1057  160.0085 H   0  0  0  0  0  0  0  0  0  0  0  0  # atno 6909 bound_to 6896
  146.1826  139.7298  142.8889 H   0  0  0  0  0  0  0  0  0  0  0  0  # atno 7974 bound_to 7965
  156.2979  140.2341  156.4405 H   0  0  0  0  0  0  0  0  0  0  0  0  # atno 8008 bound_to 7997
  154.8190  140.0439  157.1417 H   0  0  0  0  0  0  0  0  0  0  0  0  # atno 8009 bound_to 7997
  154.9337  140.3020  155.5158 H   0  0  0  0  0  0  0  0  0  0  0  0  # atno 8010 bound_to 7997
  140.3776  143.2764  151.9423 H   0  0  0  0  0  0  0  0  0  0  0  0  # atno 10167 bound_to 10162
  156.7660  130.9431  151.3119 H   0  0  0  0  0  0  0  0  0  0  0  0  # atno 10718 bound_to 10713
  154.2314  135.6360  153.5176 H   0  0  0  0  0  0  0  0  0  0  0  0  # atno 10763 bound_to 10752
  152.9948  135.5520  154.6009 H   0  0  0  0  0  0  0  0  0  0  0  0  # atno 10764 bound_to 10752
  154.5493  135.2900  155.0998 H   0  0  0  0  0  0  0  0  0  0  0  0  # atno 10765 bound_to 10752
  140.1587  134.8625  157.2546 H   0  0  0  0  0  0  0  0  0  0  0  0  # atno 11005 bound_to 11000
  145.4033  141.0388  143.3058 LP  0  0  0  0  0  0  0  0  0  0  0  0  # atno 17320 bound_to 7965
  144.8341  139.5580  143.6930 LP  0  0  0  0  0  0  0  0  0  0  0  0  # atno 17321 bound_to 7965
  139.4798  144.5848  151.7871 LP  0  0  0  0  0  0  0  0  0  0  0  0  # atno 17342 bound_to 10162
  140.4970  144.1226  150.5962 LP  0  0  0  0  0  0  0  0  0  0  0  0  # atno 17343 bound_to 10162
  157.6713  130.9053  150.0047 LP  0  0  0  0  0  0  0  0  0  0  0  0  # atno 17370 bound_to 10713
  156.1308  130.3643  149.9734 LP  0  0  0  0  0  0  0  0  0  0  0  0  # atno 17371 bound_to 10713
  140.2516  134.3676  155.7440 LP  0  0  0  0  0  0  0  0  0  0  0  0  # atno 17394 bound_to 11000
  141.2207  133.7320  156.8945 LP  0  0  0  0  0  0  0  0  0  0  0  0  # atno 17395 bound_to 11000

$$$$
