AV-unprocessed.smi:111|AV-procd|sdf|1082|dock9
  -GOLD-   2262018173D 1   1.00000     0.00000
 Structure written by MMmdl.
 46 48  0  0  0  0  0  0  0  0  1 V2000
  152.3883  140.6162  156.4322 O   0  0  0  0  0  0  0  0  0  0  0  0
  151.2765  140.4901  155.9163 C   0  0  0  0  0  0  0  0  0  0  0  0
  151.0652  139.8993  154.6006 C   0  0  0  0  0  0  0  0  0  0  0  0
  152.1128  139.4086  153.9168 F   0  0  0  0  0  0  0  0  0  0  0  0
  149.8297  139.8207  154.0615 C   0  0  0  0  0  0  0  0  0  0  0  0
  148.6936  140.3071  154.6888 N   0  0  0  0  0  0  0  0  0  0  0  0
  147.3136  140.1230  154.0900 C   0  0  1  0  0  0  0  0  0  0  0  0
  147.1926  140.5878  152.6279 C   0  0  0  0  0  0  0  0  0  0  0  0
  147.1650  139.2741  151.8711 C   0  0  0  0  0  0  0  0  0  0  0  0
  146.4873  138.3535  152.8787 C   0  0  0  0  0  0  0  0  0  0  0  0
  147.0165  138.7590  154.1344 O   0  0  0  0  0  0  0  0  0  0  0  0
  148.7966  140.8220  156.0018 C   0  0  0  0  0  0  0  0  0  0  0  0
  147.7929  141.1911  156.6163 O   0  0  0  0  0  0  0  0  0  0  0  0
  150.0928  140.9125  156.5678 N   0  0  0  0  0  0  0  0  0  0  0  0
  150.2367  141.4890  157.8988 C   0  0  0  0  0  0  0  0  0  0  0  0
  151.0463  142.8112  157.9783 C   0  0  1  0  0  0  0  0  0  0  0  0
  150.1457  143.8995  157.9260 O   0  0  0  0  0  0  0  0  0  0  0  0
  151.9974  142.9609  159.1850 C   0  0  0  0  0  0  0  0  0  0  0  0
  153.0416  141.8372  159.2858 C   0  0  0  0  0  0  0  0  0  0  0  0
  153.6149  141.7187  160.6851 C   0  0  0  0  0  0  0  0  0  0  0  0
  154.7086  140.8621  160.9314 C   0  0  0  0  0  0  0  0  0  0  0  0
  155.2459  140.7557  162.2291 C   0  0  0  0  0  0  0  0  0  0  0  0
  154.6923  141.5059  163.2846 C   0  0  0  0  0  0  0  0  0  0  0  0
  153.6013  142.3632  163.0421 C   0  0  0  0  0  0  0  0  0  0  0  0
  153.0636  142.4702  161.7445 C   0  0  0  0  0  0  0  0  0  0  0  0
  149.7468  139.3469  153.0965 H   0  0  0  0  0  0  0  0  0  0  0  0
  146.6287  140.6907  154.7217 H   0  0  0  0  0  0  0  0  0  0  0  0
  146.2354  141.0980  152.5138 H   0  0  0  0  0  0  0  0  0  0  0  0
  147.9778  141.2800  152.3243 H   0  0  0  0  0  0  0  0  0  0  0  0
  146.6273  139.3379  150.9246 H   0  0  0  0  0  0  0  0  0  0  0  0
  148.1764  138.9237  151.6651 H   0  0  0  0  0  0  0  0  0  0  0  0
  145.4078  138.5116  152.8775 H   0  0  0  0  0  0  0  0  0  0  0  0
  146.6797  137.2983  152.6838 H   0  0  0  0  0  0  0  0  0  0  0  0
  149.2339  141.6471  158.2967 H   0  0  0  0  0  0  0  0  0  0  0  0
  150.6453  140.7118  158.5487 H   0  0  0  0  0  0  0  0  0  0  0  0
  151.6411  142.8795  157.0667 H   0  0  0  0  0  0  0  0  0  0  0  0
  149.6566  143.8457  157.1186 H   0  0  0  0  0  0  0  0  0  0  0  0
  152.5050  143.9257  159.1475 H   0  0  0  0  0  0  0  0  0  0  0  0
  151.4076  142.9557  160.1018 H   0  0  0  0  0  0  0  0  0  0  0  0
  152.5944  140.8840  159.0005 H   0  0  0  0  0  0  0  0  0  0  0  0
  153.8590  142.0146  158.5858 H   0  0  0  0  0  0  0  0  0  0  0  0
  155.1393  140.2868  160.1247 H   0  0  0  0  0  0  0  0  0  0  0  0
  156.0832  140.0993  162.4145 H   0  0  0  0  0  0  0  0  0  0  0  0
  155.1047  141.4244  164.2797 H   0  0  0  0  0  0  0  0  0  0  0  0
  153.1774  142.9395  163.8512 H   0  0  0  0  0  0  0  0  0  0  0  0
  152.2288  143.1318  161.5651 H   0  0  0  0  0  0  0  0  0  0  0  0
  1  2  2  0  0  0  0
  2 14  1  0  0  0  0
  2  3  1  0  0  0  0
  3  4  1  0  0  0  0
  3  5  2  0  0  0  0
  5  6  1  0  0  0  0
  5 26  1  0  0  0  0
  6  7  1  0  0  0  0
  6 12  1  0  0  0  0
  7 11  1  0  0  0  0
  7  8  1  0  0  0  0
  7 27  1  0  0  0  0
  8  9  1  0  0  0  0
  8 28  1  0  0  0  0
  8 29  1  0  0  0  0
  9 10  1  0  0  0  0
  9 30  1  0  0  0  0
  9 31  1  0  0  0  0
 10 11  1  0  0  0  0
 10 32  1  0  0  0  0
 10 33  1  0  0  0  0
 12 13  2  0  0  0  0
 12 14  1  0  0  0  0
 14 15  1  0  0  0  0
 15 16  1  0  0  0  0
 15 34  1  0  0  0  0
 15 35  1  0  0  0  0
 16 17  1  0  0  0  0
 16 18  1  0  0  0  0
 16 36  1  0  0  0  0
 17 37  1  0  0  0  0
 18 19  1  0  0  0  0
 18 38  1  0  0  0  0
 18 39  1  0  0  0  0
 19 20  1  0  0  0  0
 19 40  1  0  0  0  0
 19 41  1  0  0  0  0
 20 25  1  0  0  0  0
 20 21  2  0  0  0  0
 21 22  1  0  0  0  0
 21 42  1  0  0  0  0
 22 23  2  0  0  0  0
 22 43  1  0  0  0  0
 23 24  1  0  0  0  0
 23 44  1  0  0  0  0
 24 25  2  0  0  0  0
 24 45  1  0  0  0  0
 25 46  1  0  0  0  0
M  END
> <s_m_source_file>
AV-unprocessed.smi

> <i_m_source_file_index>
111

> <i_lp_mmshare_version>
43012

> <i_f3d_flags>
0

> <s_epik_input>
TzFbQ0gyXVtDSDJdW0NIMl1bQ0BIXTFuKFtjSF1jKEYpYzI9TyljKD1PKW4yW0NIMl1bQ0BIXShbT0hdKVtDSDJdW0NIMl1jM1tjSF1bY0hdW2NIXVtjSF1bY0hdMw==

> <s_epik_cmdline>
J2VwaWtfcHl0aG9uJywgJy1waCcsICc3LjAnLCAnLXRuJywgJzgnLCAnLW1hJywgJzIwMCcsICctbWV0YWxfYmluZGluZycsICctaW1hZScsICc8aW5maWxlLm1hZT4nLCAnLW9tYWUnLCAnPG91dGZpbGUubWFlPic=

> <r_lp_tautomer_probability>
1

> <r_epik_Ionization_Penalty>
1.88248e-07

> <r_epik_Ionization_Penalty_Charging>
4.03974e-08

> <r_epik_Ionization_Penalty_Neutral>
1.47851e-07

> <r_epik_State_Penalty>
-0

> <r_epik_Charging_Adjusted_Penalty>
4.03974e-08

> <i_epik_Tot_Q>
0

> <i_epik_Tot_abs_Q>
0

> <r_epik_Metal_State_Penalty>
-0

> <b_epik_Metal_Only>
0

> <s_epik_Chemistry_Notes>
This compound contains an acetal/aminal-like group ( X-CH(R)-Y where X, Y are N, S, or O) that may be acid/base labile, releasing an aldehyde.

> <s_lp_Force_Field>
OPLS_2005

> <r_lp_Energy>
37.7752

> <b_lp_Chiralities_Consistent>
1

> <s_lp_Variant>
AV-unprocessed.smi:111-4

> <Gold.Version>
5.8.1

> <Gold.Id.Protein>
6NUR|6NUR_protein|mol2

> <Gold.PLP.Fitness>
54.9105

> <Gold.PLP.PLP>
-50.0343

> <Gold.PLP.part.hbond>
-2.4195

> <Gold.PLP.part.metal>
0.0000

> <Gold.PLP.part.buried>
4.9710

> <Gold.PLP.part.nonpolar>
-51.1542

> <Gold.PLP.part.repulsive>
0.2281

> <Gold.PLP.ligand.clash>
0.0000

> <Gold.PLP.ligand.torsion>
0.9573

> <Gold.PLP.Chemscore.Hbond>
1.5465

> <Gold.PLP.Chemscore.CHOScore>
0.6691

> <Gold.PLP.Chemscore.Metal>
0.0000

> <Gold.Chemscore.Hbonds>
donor molecule, donor type, donor heavy atom, donor atom, acceptor molecule, acceptor atom, score
      L1  H    17    37       P1  8028  0.94
      P1  H  7997  8008       L1     1  0.83
      L1  C     5    26       P1  7957  1.00

> <Gold.PLP.Chemscore.Internal.Correction>
0.1441

> <Gold.Rescore>
     Score         DG    S(hbond)    S(metal)    S(lipo)     H(rot)  DE(clash)    DE(int)     intcor
     16.23     -18.82       1.28        0.00     136.15       2.67       0.59       2.01       ----

> <Gold.Chemscore.Fitness>
16.2294

> <Gold.Chemscore.DG>
-18.8233

> <Gold.Chemscore.ZeroCoef>
-5.4800

> <Gold.Chemscore.Hbond>
1.2754

> <Gold.Chemscore.Metal>
0.0000

> <Gold.Chemscore.Lipo>
136.1507

> <Gold.Chemscore.Internal_Hbond>
0.0000

> <Gold.Chemscore.DEClash>
0.5856

> <Gold.Chemscore.DEInternal>
2.0083

> <Gold.Chemscore.Rot>
2.6743

> <Gold.Chemscore.Internal.Correction>
   9.000000E+99

> <Gold.Chemscore.Hbonds>
donor molecule, donor type, donor heavy atom, donor atom, acceptor molecule, acceptor atom, score
      L1  H    17    37       P1  8028  0.75
      P1  H  7997  8008       L1     1  0.79

> <Gold.Chemscore.Hbond.Weighted>
-4.2599

> <Gold.Chemscore.Metal.Weighted>
-0.0000

> <Gold.Chemscore.Lipo.Weighted>
-15.9296

> <Gold.Chemscore.Internal_Hbond.Weighted>
0.0000

> <Gold.Chemscore.DEClash.Weighted>
0.5856

> <Gold.Chemscore.DEInternal.Weighted>
2.0083

> <Gold.Chemscore.Rot.Weighted>
6.8463

> <Gold.Chemscore.Internal.Correction.Weighted>
   9.000000E+99

> <Gold.Protein.RotatedTorsions>
[ 6907 6896 6895 6894 ] final   93.65 input  -60.11 | X-H torsion
[ 7974 7965 7964 7962 ] final   -2.24 input  175.53 | X-H torsion
[ 8008 7997 7996 7995 ] final  -53.26 input   59.86 | X-H torsion
[ 10167 10162 10161 10158 ] final -126.57 input  -65.29 | X-H torsion
[ 10718 10713 10712 10709 ] final  159.94 input   66.30 | X-H torsion
[ 10763 10752 10751 10750 ] final   83.09 input  -60.55 | X-H torsion
[ 11005 11000 10999 10996 ] final   83.79 input  -57.11 | X-H torsion

> <Gold.Protein.ActiveResidues>
 VAL166  LYS551  ARG553  GLY616  TRP617  ASP618  TYR619  PRO620  LYS621  CYS622 
 ASP623  PHE694  ASN695  SER759  ASP760  ASP761  ALA762  ILE779  LEU786  VAL792 
 PHE793  MET794  SER795  GLU796  ALA797  LYS798  CYS799  TRP800  GLU811  SER814 

> <Gold.Protein.RotatedAtoms>
  152.5452  134.1315  159.8440 H   0  0  0  0  0  0  0  0  0  0  0  0  # atno 6907 bound_to 6896
  151.1360  133.4997  159.2605 H   0  0  0  0  0  0  0  0  0  0  0  0  # atno 6908 bound_to 6896
  151.1624  135.0289  159.8770 H   0  0  0  0  0  0  0  0  0  0  0  0  # atno 6909 bound_to 6896
  146.2407  140.1541  142.8333 H   0  0  0  0  0  0  0  0  0  0  0  0  # atno 7974 bound_to 7965
  154.4128  140.1204  156.5126 H   0  0  0  0  0  0  0  0  0  0  0  0  # atno 8008 bound_to 7997
  155.6784  140.3496  155.4826 H   0  0  0  0  0  0  0  0  0  0  0  0  # atno 8009 bound_to 7997
  155.9573  140.1116  157.0916 H   0  0  0  0  0  0  0  0  0  0  0  0  # atno 8010 bound_to 7997
  139.9700  143.5855  152.2416 H   0  0  0  0  0  0  0  0  0  0  0  0  # atno 10167 bound_to 10162
  157.1573  131.0578  151.2250 H   0  0  0  0  0  0  0  0  0  0  0  0  # atno 10718 bound_to 10713
  153.1260  135.4704  154.9273 H   0  0  0  0  0  0  0  0  0  0  0  0  # atno 10763 bound_to 10752
  154.7620  135.3134  154.8361 H   0  0  0  0  0  0  0  0  0  0  0  0  # atno 10764 bound_to 10752
  153.8915  135.6884  153.4814 H   0  0  0  0  0  0  0  0  0  0  0  0  # atno 10765 bound_to 10752
  139.9020  134.8170  156.2357 H   0  0  0  0  0  0  0  0  0  0  0  0  # atno 11005 bound_to 11000
  145.0143  140.8741  143.5205 LP  0  0  0  0  0  0  0  0  0  0  0  0  # atno 17320 bound_to 7965
  145.1579  139.2475  143.5406 LP  0  0  0  0  0  0  0  0  0  0  0  0  # atno 17321 bound_to 7965
  139.6488  144.7659  151.2190 LP  0  0  0  0  0  0  0  0  0  0  0  0  # atno 17342 bound_to 10162
  140.7525  143.6195  150.8527 LP  0  0  0  0  0  0  0  0  0  0  0  0  # atno 17343 bound_to 10162
  157.4165  130.7414  149.6880 LP  0  0  0  0  0  0  0  0  0  0  0  0  # atno 17370 bound_to 10713
  155.9760  130.4081  150.3811 LP  0  0  0  0  0  0  0  0  0  0  0  0  # atno 17371 bound_to 10713
  141.0317  133.6985  156.1441 LP  0  0  0  0  0  0  0  0  0  0  0  0  # atno 17394 bound_to 11000
  140.7087  134.4485  157.5583 LP  0  0  0  0  0  0  0  0  0  0  0  0  # atno 17395 bound_to 11000

$$$$
