AV-unprocessed.smi:1883|AV-procd|sdf|7644|dock1
  -GOLD-   22720 9373D 1   1.00000     0.00000
 Structure written by MMmdl.
 36 38  0  0  0  0  0  0  0  0  2 V2000
  151.9198  137.9581  154.7629 C   0  0  0  0  0  0  0  0  0  0  0  0
  150.7324  138.8187  154.4867 C   0  0  0  0  0  0  0  0  0  0  0  0
  149.6752  138.4916  153.6914 N   0  3  0  0  0  0  0  0  0  0  0  0
  148.7536  139.5398  153.6753 C   0  0  0  0  0  0  0  0  0  0  0  0
  147.5337  139.6720  153.0192 C   0  0  0  0  0  0  0  0  0  0  0  0
  146.8363  140.8819  153.2178 C   0  0  0  0  0  0  0  0  0  0  0  0
  147.3557  141.9029  154.0403 C   0  0  0  0  0  0  0  0  0  0  0  0
  148.5939  141.7575  154.6999 C   0  0  0  0  0  0  0  0  0  0  0  0
  149.2754  140.5573  154.4995 C   0  0  0  0  0  0  0  0  0  0  0  0
  150.4929  140.0667  154.9831 N   0  0  0  0  0  0  0  0  0  0  0  0
  151.2870  140.8990  155.8996 C   0  0  0  0  0  0  0  0  0  0  0  0
  150.9252  140.6669  157.3810 C   0  0  2  0  0  0  0  0  0  0  0  0
  149.5229  140.7823  157.5098 O   0  0  0  0  0  0  0  0  0  0  0  0
  151.6755  141.6109  158.3139 C   0  0  0  0  0  0  0  0  0  0  0  0
  151.5570  143.0105  158.1596 C   0  0  0  0  0  0  0  0  0  0  0  0
  152.2642  143.8834  159.0083 C   0  0  0  0  0  0  0  0  0  0  0  0
  152.1457  145.2229  158.8517 F   0  0  0  0  0  0  0  0  0  0  0  0
  153.0974  143.3636  160.0165 C   0  0  0  0  0  0  0  0  0  0  0  0
  153.2251  141.9705  160.1735 C   0  0  0  0  0  0  0  0  0  0  0  0
  152.5184  141.0954  159.3256 C   0  0  0  0  0  0  0  0  0  0  0  0
  152.6644  139.7574  159.4822 F   0  0  0  0  0  0  0  0  0  0  0  0
  151.8811  137.0487  154.1630 H   0  0  0  0  0  0  0  0  0  0  0  0
  151.9444  137.6759  155.8152 H   0  0  0  0  0  0  0  0  0  0  0  0
  152.8389  138.4927  154.5223 H   0  0  0  0  0  0  0  0  0  0  0  0
  147.1332  138.8920  152.3883 H   0  0  0  0  0  0  0  0  0  0  0  0
  145.8842  141.0303  152.7294 H   0  0  0  0  0  0  0  0  0  0  0  0
  146.7932  142.8164  154.1686 H   0  0  0  0  0  0  0  0  0  0  0  0
  148.9830  142.5447  155.3287 H   0  0  0  0  0  0  0  0  0  0  0  0
  152.3420  140.6851  155.7240 H   0  0  0  0  0  0  0  0  0  0  0  0
  151.1353  141.9426  155.6207 H   0  0  0  0  0  0  0  0  0  0  0  0
  151.1637  139.6390  157.6544 H   0  0  0  0  0  0  0  0  0  0  0  0
  149.1409  139.9222  157.4218 H   0  0  0  0  0  0  0  0  0  0  0  0
  150.9276  143.4217  157.3839 H   0  0  0  0  0  0  0  0  0  0  0  0
  153.6404  144.0329  160.6674 H   0  0  0  0  0  0  0  0  0  0  0  0
  153.8685  141.5726  160.9442 H   0  0  0  0  0  0  0  0  0  0  0  0
  149.5919  137.6126  153.1969 H   0  0  0  0  0  0  0  0  0  0  0  0
  1  2  1  0  0  0  0
  1 22  1  0  0  0  0
  1 23  1  0  0  0  0
  1 24  1  0  0  0  0
  2 10  1  0  0  0  0
  2  3  2  0  0  0  0
  3  4  1  0  0  0  0
  3 36  1  0  0  0  0
  4  9  2  0  0  0  0
  4  5  1  0  0  0  0
  5  6  2  0  0  0  0
  5 25  1  0  0  0  0
  6  7  1  0  0  0  0
  6 26  1  0  0  0  0
  7  8  2  0  0  0  0
  7 27  1  0  0  0  0
  8  9  1  0  0  0  0
  8 28  1  0  0  0  0
  9 10  1  0  0  0  0
 10 11  1  0  0  0  0
 11 12  1  0  0  0  0
 11 29  1  0  0  0  0
 11 30  1  0  0  0  0
 12 13  1  0  0  0  0
 12 14  1  0  0  0  0
 12 31  1  0  0  0  0
 13 32  1  0  0  0  0
 14 20  1  0  0  0  0
 14 15  2  0  0  0  0
 15 16  1  0  0  0  0
 15 33  1  0  0  0  0
 16 17  1  0  0  0  0
 16 18  2  0  0  0  0
 18 19  1  0  0  0  0
 18 34  1  0  0  0  0
 19 20  2  0  0  0  0
 19 35  1  0  0  0  0
 20 21  1  0  0  0  0
M  CHG  1   3   1
M  END
> <s_m_source_file>
AV-unprocessed.smi

> <i_m_source_file_index>
1883

> <i_lp_mmshare_version>
43012

> <i_f3d_flags>
0

> <s_epik_input>
W2NIXTFbY0hdW2NIXVtjSF1jKGMxMiluKGMobjIpW0NIM10pW0NIMl1bQ0BIXShbT0hdKWMzW2NIXWMoRilbY0hdW2NIXWMzRg==

> <s_epik_cmdline>
J2VwaWtfcHl0aG9uJywgJy1waCcsICc3LjAnLCAnLXRuJywgJzgnLCAnLW1hJywgJzIwMCcsICctbWV0YWxfYmluZGluZycsICctaW1hZScsICc8aW5maWxlLm1hZT4nLCAnLW9tYWUnLCAnPG91dGZpbGUubWFlPic=

> <r_epik_Ionization_Penalty>
0.963871

> <r_epik_Ionization_Penalty_Charging>
0.963868

> <r_epik_Ionization_Penalty_Neutral>
3.53208e-06

> <r_epik_State_Penalty>
1.00924

> <r_epik_Charging_Adjusted_Penalty>
1.9731

> <i_epik_Tot_Q>
1

> <i_epik_Tot_abs_Q>
1

> <r_epik_Metal_State_Penalty>
4.98304

> <b_epik_Metal_Only>
0

> <s_lp_Force_Field>
OPLS_2005

> <r_lp_Energy>
15.3962

> <b_lp_Chiralities_Consistent>
1

> <s_lp_Variant>
AV-unprocessed.smi:1883-3

> <Gold.Version>
5.8.1

> <Gold.Id.Protein>
6NUR|6NUR_protein|mol2

> <Gold.PLP.Fitness>
57.0227

> <Gold.PLP.PLP>
-51.8289

> <Gold.PLP.part.hbond>
-2.0000

> <Gold.PLP.part.metal>
0.0000

> <Gold.PLP.part.buried>
2.7907

> <Gold.PLP.part.nonpolar>
-52.1224

> <Gold.PLP.part.repulsive>
0.0693

> <Gold.PLP.ligand.clash>
0.0000

> <Gold.PLP.ligand.torsion>
0.4170

> <Gold.PLP.Chemscore.Hbond>
2.0000

> <Gold.PLP.Chemscore.CHOScore>
0.0000

> <Gold.PLP.Chemscore.Metal>
0.0000

> <Gold.Chemscore.Hbonds>
donor molecule, donor type, donor heavy atom, donor atom, acceptor molecule, acceptor atom, score
      L1  H     3    36       P1  7948  2.00

> <Gold.PLP.Chemscore.Internal.Correction>
0.0277

> <Gold.Rescore>
     Score         DG    S(hbond)    S(metal)    S(lipo)     H(rot)  DE(clash)    DE(int)     intcor
     16.81     -18.14       0.93        0.00     124.11       1.94       0.29       1.04       ----

> <Gold.Chemscore.Fitness>
16.8058

> <Gold.Chemscore.DG>
-18.1373

> <Gold.Chemscore.ZeroCoef>
-5.4800

> <Gold.Chemscore.Hbond>
0.9272

> <Gold.Chemscore.Metal>
0.0000

> <Gold.Chemscore.Lipo>
124.1053

> <Gold.Chemscore.Internal_Hbond>
0.0000

> <Gold.Chemscore.DEClash>
0.2907

> <Gold.Chemscore.DEInternal>
1.0408

> <Gold.Chemscore.Rot>
1.9375

> <Gold.Chemscore.Internal.Correction>
   9.000000E+99

> <Gold.Chemscore.Hbonds>
donor molecule, donor type, donor heavy atom, donor atom, acceptor molecule, acceptor atom, score
      L1  H     3    36       P1  7948  0.80

> <Gold.Chemscore.Hbond.Weighted>
-3.0969

> <Gold.Chemscore.Metal.Weighted>
-0.0000

> <Gold.Chemscore.Lipo.Weighted>
-14.5203

> <Gold.Chemscore.Internal_Hbond.Weighted>
0.0000

> <Gold.Chemscore.DEClash.Weighted>
0.2907

> <Gold.Chemscore.DEInternal.Weighted>
1.0408

> <Gold.Chemscore.Rot.Weighted>
4.9599

> <Gold.Chemscore.Internal.Correction.Weighted>
   9.000000E+99

> <Gold.Protein.RotatedTorsions>
[ 6907 6896 6895 6894 ] final   77.12 input  -60.11 | X-H torsion
[ 7974 7965 7964 7962 ] final  -48.31 input  175.53 | X-H torsion
[ 8008 7997 7996 7995 ] final  -38.43 input   59.86 | X-H torsion
[ 10167 10162 10161 10158 ] final  -39.05 input  -65.29 | X-H torsion
[ 10718 10713 10712 10709 ] final  159.59 input   66.30 | X-H torsion
[ 10763 10752 10751 10750 ] final -124.31 input  -60.55 | X-H torsion
[ 11005 11000 10999 10996 ] final  -81.34 input  -57.11 | X-H torsion

> <Gold.Protein.ActiveResidues>
 VAL166  LYS551  ARG553  GLY616  TRP617  ASP618  TYR619  PRO620  LYS621  CYS622 
 ASP623  PHE694  ASN695  SER759  ASP760  ASP761  ALA762  ILE779  LEU786  VAL792 
 PHE793  MET794  SER795  GLU796  ALA797  LYS798  CYS799  TRP800  GLU811  SER814 

> <Gold.Protein.RotatedAtoms>
  152.5103  134.3865  159.9369 H   0  0  0  0  0  0  0  0  0  0  0  0  # atno 6907 bound_to 6896
  151.3824  133.3810  159.2719 H   0  0  0  0  0  0  0  0  0  0  0  0  # atno 6908 bound_to 6896
  150.9494  134.8916  159.7721 H   0  0  0  0  0  0  0  0  0  0  0  0  # atno 6909 bound_to 6896
  145.9525  140.7559  142.9498 H   0  0  0  0  0  0  0  0  0  0  0  0  # atno 7974 bound_to 7965
  154.4037  140.1578  156.2699 H   0  0  0  0  0  0  0  0  0  0  0  0  # atno 8008 bound_to 7997
  155.8963  140.3436  155.5971 H   0  0  0  0  0  0  0  0  0  0  0  0  # atno 8009 bound_to 7997
  155.7500  140.0804  157.2196 H   0  0  0  0  0  0  0  0  0  0  0  0  # atno 8010 bound_to 7997
  140.7075  143.3239  151.2727 H   0  0  0  0  0  0  0  0  0  0  0  0  # atno 10167 bound_to 10162
  157.1620  131.0589  151.2227 H   0  0  0  0  0  0  0  0  0  0  0  0  # atno 10718 bound_to 10713
  154.8721  135.4068  154.3084 H   0  0  0  0  0  0  0  0  0  0  0  0  # atno 10763 bound_to 10752
  153.3932  135.7015  153.6485 H   0  0  0  0  0  0  0  0  0  0  0  0  # atno 10764 bound_to 10752
  153.5259  135.3677  155.2624 H   0  0  0  0  0  0  0  0  0  0  0  0  # atno 10765 bound_to 10752
  141.1666  133.7192  156.8408 H   0  0  0  0  0  0  0  0  0  0  0  0  # atno 11005 bound_to 11000
  144.6798  140.2457  143.7338 LP  0  0  0  0  0  0  0  0  0  0  0  0  # atno 17320 bound_to 7965
  145.8152  139.2020  143.1970 LP  0  0  0  0  0  0  0  0  0  0  0  0  # atno 17321 bound_to 7965
  139.6701  144.0036  152.2747 LP  0  0  0  0  0  0  0  0  0  0  0  0  # atno 17342 bound_to 10162
  139.9631  144.6544  150.8060 LP  0  0  0  0  0  0  0  0  0  0  0  0  # atno 17343 bound_to 10162
  157.4123  130.7392  149.6849 LP  0  0  0  0  0  0  0  0  0  0  0  0  # atno 17370 bound_to 10713
  155.9752  130.4092  150.3866 LP  0  0  0  0  0  0  0  0  0  0  0  0  # atno 17371 bound_to 10713
  140.1985  134.8914  157.3142 LP  0  0  0  0  0  0  0  0  0  0  0  0  # atno 17394 bound_to 11000
  140.2213  134.4020  155.7564 LP  0  0  0  0  0  0  0  0  0  0  0  0  # atno 17395 bound_to 11000

$$$$
