AV-unprocessed.smi:1840|AV-procd|sdf|7492|dock9
  -GOLD-   22720 9193D 1   1.00000     0.00000
 Structure written by MMmdl.
 43 44  0  0  0  0  0  0  0  0  1 V2000
  144.3944  143.2004  159.1815 C   0  0  0  0  0  0  0  0  0  0  0  0
  145.0491  144.5756  158.9957 C   0  0  2  0  0  0  0  0  0  0  0  0
  144.3036  145.4190  157.9383 C   0  0  0  0  0  0  0  0  0  0  0  0
  144.7470  146.8032  157.9128 N   0  0  0  0  0  0  0  0  0  0  0  0
  144.8893  147.6375  156.8242 C   0  0  0  0  0  0  0  0  0  0  0  0
  145.2999  148.8521  157.2944 C   0  0  0  0  0  0  0  0  0  0  0  0
  145.3846  148.6594  158.7017 C   0  0  0  0  0  0  0  0  0  0  0  0
  145.0585  147.4309  159.0687 N   0  0  0  0  0  0  0  0  0  0  0  0
  146.4488  144.3939  158.6135 N   0  0  0  0  0  0  0  0  0  0  0  0
  147.3381  143.6347  159.2701 C   0  0  0  0  0  0  0  0  0  0  0  0
  147.0564  142.8958  160.2139 O   0  0  0  0  0  0  0  0  0  0  0  0
  148.5815  143.8201  158.8080 N   0  0  0  0  0  0  0  0  0  0  0  0
  149.7949  143.2460  159.3901 C   0  0  2  0  0  0  0  0  0  0  0  0
  150.6918  144.3467  160.0023 C   0  0  0  0  0  0  0  0  0  0  0  0
  151.3101  145.2540  158.9255 C   0  0  0  0  0  0  0  0  0  0  0  0
  152.0876  144.4292  157.8887 C   0  0  0  0  0  0  0  0  0  0  0  0
  151.2047  143.3366  157.2633 C   0  0  0  0  0  0  0  0  0  0  0  0
  150.5798  142.4225  158.3390 C   0  0  2  0  0  0  0  0  0  0  0  0
  149.7368  141.3006  157.7084 C   0  0  0  0  0  0  0  0  0  0  0  0
  143.3550  143.3014  159.4944 H   0  0  0  0  0  0  0  0  0  0  0  0
  144.9119  142.6190  159.9454 H   0  0  0  0  0  0  0  0  0  0  0  0
  144.4087  142.6240  158.2559 H   0  0  0  0  0  0  0  0  0  0  0  0
  144.9900  145.0927  159.9552 H   0  0  0  0  0  0  0  0  0  0  0  0
  144.4291  144.9852  156.9445 H   0  0  0  0  0  0  0  0  0  0  0  0
  143.2328  145.4153  158.1447 H   0  0  0  0  0  0  0  0  0  0  0  0
  144.6787  147.3037  155.8187 H   0  0  0  0  0  0  0  0  0  0  0  0
  145.5043  149.7439  156.7208 H   0  0  0  0  0  0  0  0  0  0  0  0
  145.6706  149.3710  159.4624 H   0  0  0  0  0  0  0  0  0  0  0  0
  146.7859  144.9621  157.8502 H   0  0  0  0  0  0  0  0  0  0  0  0
  148.7091  144.4519  158.0311 H   0  0  0  0  0  0  0  0  0  0  0  0
  149.4917  142.5679  160.1902 H   0  0  0  0  0  0  0  0  0  0  0  0
  150.1317  144.9501  160.7178 H   0  0  0  0  0  0  0  0  0  0  0  0
  151.4931  143.8763  160.5735 H   0  0  0  0  0  0  0  0  0  0  0  0
  150.5254  145.8261  158.4287 H   0  0  0  0  0  0  0  0  0  0  0  0
  151.9724  145.9838  159.3918 H   0  0  0  0  0  0  0  0  0  0  0  0
  152.4766  145.0847  157.1089 H   0  0  0  0  0  0  0  0  0  0  0  0
  152.9538  143.9686  158.3654 H   0  0  0  0  0  0  0  0  0  0  0  0
  150.4191  143.8016  156.6665 H   0  0  0  0  0  0  0  0  0  0  0  0
  151.8017  142.7413  156.5717 H   0  0  0  0  0  0  0  0  0  0  0  0
  151.4031  141.9360  158.8648 H   0  0  0  0  0  0  0  0  0  0  0  0
  148.9147  141.6977  157.1123 H   0  0  0  0  0  0  0  0  0  0  0  0
  149.3106  140.6529  158.4751 H   0  0  0  0  0  0  0  0  0  0  0  0
  150.3453  140.6766  157.0532 H   0  0  0  0  0  0  0  0  0  0  0  0
  1  2  1  0  0  0  0
  1 20  1  0  0  0  0
  1 21  1  0  0  0  0
  1 22  1  0  0  0  0
  2  3  1  0  0  0  0
  2  9  1  0  0  0  0
  2 23  1  0  0  0  0
  3  4  1  0  0  0  0
  3 24  1  0  0  0  0
  3 25  1  0  0  0  0
  4  8  1  0  0  0  0
  4  5  1  0  0  0  0
  5  6  2  0  0  0  0
  5 26  1  0  0  0  0
  6  7  1  0  0  0  0
  6 27  1  0  0  0  0
  7  8  2  0  0  0  0
  7 28  1  0  0  0  0
  9 10  1  0  0  0  0
  9 29  1  0  0  0  0
 10 11  2  0  0  0  0
 10 12  1  0  0  0  0
 12 13  1  0  0  0  0
 12 30  1  0  0  0  0
 13 18  1  0  0  0  0
 13 14  1  0  0  0  0
 13 31  1  0  0  0  0
 14 15  1  0  0  0  0
 14 32  1  0  0  0  0
 14 33  1  0  0  0  0
 15 16  1  0  0  0  0
 15 34  1  0  0  0  0
 15 35  1  0  0  0  0
 16 17  1  0  0  0  0
 16 36  1  0  0  0  0
 16 37  1  0  0  0  0
 17 18  1  0  0  0  0
 17 38  1  0  0  0  0
 17 39  1  0  0  0  0
 18 19  1  0  0  0  0
 18 40  1  0  0  0  0
 19 41  1  0  0  0  0
 19 42  1  0  0  0  0
 19 43  1  0  0  0  0
M  END
> <s_m_source_file>
AV-unprocessed.smi

> <i_m_source_file_index>
1840

> <i_lp_mmshare_version>
43012

> <i_f3d_flags>
0

> <s_epik_input>
bjFbY0hdW2NIXVtjSF1uMVtDSDJdW0NAQEhdKFtDSDNdKVtOSF1DKD1PKVtOSF1bQ0BASF0yW0NIMl1bQ0gyXVtDSDJdW0NIMl1bQ0BIXTJbQ0gzXQ==

> <s_epik_cmdline>
J2VwaWtfcHl0aG9uJywgJy1waCcsICc3LjAnLCAnLXRuJywgJzgnLCAnLW1hJywgJzIwMCcsICctbWV0YWxfYmluZGluZycsICctaW1hZScsICc8aW5maWxlLm1hZT4nLCAnLW9tYWUnLCAnPG91dGZpbGUubWFlPic=

> <r_lp_tautomer_probability>
1

> <r_epik_Ionization_Penalty>
7.38659e-05

> <r_epik_Ionization_Penalty_Charging>
0

> <r_epik_Ionization_Penalty_Neutral>
7.38659e-05

> <r_epik_State_Penalty>
-0

> <r_epik_Charging_Adjusted_Penalty>
0

> <i_epik_Tot_Q>
0

> <i_epik_Tot_abs_Q>
0

> <r_epik_Metal_State_Penalty>
-0

> <b_epik_Metal_Only>
0

> <s_lp_Force_Field>
OPLS_2005

> <r_lp_Energy>
6.60397

> <b_lp_Chiralities_Consistent>
1

> <s_lp_Variant>
AV-unprocessed.smi:1840-5

> <Gold.Version>
5.8.1

> <Gold.Id.Protein>
6NUR|6NUR_protein|mol2

> <Gold.PLP.Fitness>
43.1399

> <Gold.PLP.PLP>
-33.4545

> <Gold.PLP.part.hbond>
-3.9345

> <Gold.PLP.part.metal>
0.0000

> <Gold.PLP.part.buried>
-2.0697

> <Gold.PLP.part.nonpolar>
-29.4021

> <Gold.PLP.part.repulsive>
0.2781

> <Gold.PLP.ligand.clash>
0.0000

> <Gold.PLP.ligand.torsion>
0.4481

> <Gold.PLP.Chemscore.Hbond>
3.5219

> <Gold.PLP.Chemscore.CHOScore>
0.0000

> <Gold.PLP.Chemscore.Metal>
0.0000

> <Gold.Chemscore.Hbonds>
donor molecule, donor type, donor heavy atom, donor atom, acceptor molecule, acceptor atom, score
      L1  H     9    29       P1  8029  1.00
      L1  H    12    30       P1  8029  0.68
      P1  H  6933  6944       L1    11  0.91
      P1  H  6934  6946       L1    11  0.70

> <Gold.PLP.Chemscore.Internal.Correction>
0.0159

> <Gold.Rescore>
     Score         DG    S(hbond)    S(metal)    S(lipo)     H(rot)  DE(clash)    DE(int)     intcor
     20.72     -23.25       3.20        0.00      94.69       1.56       0.76       1.77       ----

> <Gold.Chemscore.Fitness>
20.7236

> <Gold.Chemscore.DG>
-23.2511

> <Gold.Chemscore.ZeroCoef>
-5.4800

> <Gold.Chemscore.Hbond>
3.1976

> <Gold.Chemscore.Metal>
0.0000

> <Gold.Chemscore.Lipo>
94.6894

> <Gold.Chemscore.Internal_Hbond>
0.0000

> <Gold.Chemscore.DEClash>
0.7598

> <Gold.Chemscore.DEInternal>
1.7676

> <Gold.Chemscore.Rot>
1.5576

> <Gold.Chemscore.Internal.Correction>
   9.000000E+99

> <Gold.Chemscore.Hbonds>
donor molecule, donor type, donor heavy atom, donor atom, acceptor molecule, acceptor atom, score
      L1  H     9    29       P1  8029  0.59
      L1  H    12    30       P1  8029  0.12
      P1  H  6933  6944       L1    11  0.86
      P1  H  6934  6946       L1    11  0.68

> <Gold.Chemscore.Hbond.Weighted>
-10.6799

> <Gold.Chemscore.Metal.Weighted>
-0.0000

> <Gold.Chemscore.Lipo.Weighted>
-11.0787

> <Gold.Chemscore.Internal_Hbond.Weighted>
0.0000

> <Gold.Chemscore.DEClash.Weighted>
0.7598

> <Gold.Chemscore.DEInternal.Weighted>
1.7676

> <Gold.Chemscore.Rot.Weighted>
3.9875

> <Gold.Chemscore.Internal.Correction.Weighted>
   9.000000E+99

> <Gold.Protein.RotatedTorsions>
[ 6907 6896 6895 6894 ] final  134.09 input  -60.11 | X-H torsion
[ 7974 7965 7964 7962 ] final   13.22 input  175.53 | X-H torsion
[ 8008 7997 7996 7995 ] final -179.25 input   59.86 | X-H torsion
[ 10167 10162 10161 10158 ] final -148.28 input  -65.29 | X-H torsion
[ 10718 10713 10712 10709 ] final -171.40 input   66.30 | X-H torsion
[ 10763 10752 10751 10750 ] final   70.87 input  -60.55 | X-H torsion
[ 11005 11000 10999 10996 ] final  171.62 input  -57.11 | X-H torsion

> <Gold.Protein.ActiveResidues>
 VAL166  LYS551  ARG553  GLY616  TRP617  ASP618  TYR619  PRO620  LYS621  CYS622 
 ASP623  PHE694  ASN695  SER759  ASP760  ASP761  ALA762  ILE779  LEU786  VAL792 
 PHE793  MET794  SER795  GLU796  ALA797  LYS798  CYS799  TRP800  GLU811  SER814 

> <Gold.Protein.RotatedAtoms>
  152.3150  133.5792  159.5705 H   0  0  0  0  0  0  0  0  0  0  0  0  # atno 6907 bound_to 6896
  150.7342  134.0096  159.3674 H   0  0  0  0  0  0  0  0  0  0  0  0  # atno 6908 bound_to 6896
  151.7986  135.0716  160.0448 H   0  0  0  0  0  0  0  0  0  0  0  0  # atno 6909 bound_to 6896
  146.2334  139.9220  142.8508 H   0  0  0  0  0  0  0  0  0  0  0  0  # atno 7974 bound_to 7965
  156.0283  140.1276  157.0285 H   0  0  0  0  0  0  0  0  0  0  0  0  # atno 8008 bound_to 7997
  154.4339  140.1054  156.6133 H   0  0  0  0  0  0  0  0  0  0  0  0  # atno 8009 bound_to 7997
  155.5844  140.3468  155.4551 H   0  0  0  0  0  0  0  0  0  0  0  0  # atno 8010 bound_to 7997
  139.7545  143.8468  152.2594 H   0  0  0  0  0  0  0  0  0  0  0  0  # atno 10167 bound_to 10162
  156.7403  130.9339  151.3110 H   0  0  0  0  0  0  0  0  0  0  0  0  # atno 10718 bound_to 10713
  153.0366  135.5158  154.7507 H   0  0  0  0  0  0  0  0  0  0  0  0  # atno 10763 bound_to 10752
  154.6478  135.2921  155.0027 H   0  0  0  0  0  0  0  0  0  0  0  0  # atno 10764 bound_to 10752
  154.0922  135.6648  153.4907 H   0  0  0  0  0  0  0  0  0  0  0  0  # atno 10765 bound_to 10752
  140.3210  134.7437  157.4064 H   0  0  0  0  0  0  0  0  0  0  0  0  # atno 11005 bound_to 11000
  145.2127  140.9902  143.4091 LP  0  0  0  0  0  0  0  0  0  0  0  0  # atno 17320 bound_to 7965
  144.9677  139.3913  143.6324 LP  0  0  0  0  0  0  0  0  0  0  0  0  # atno 17321 bound_to 7965
  139.8456  144.7189  150.9277 LP  0  0  0  0  0  0  0  0  0  0  0  0  # atno 17342 bound_to 10162
  140.7801  143.3944  151.1254 LP  0  0  0  0  0  0  0  0  0  0  0  0  # atno 17343 bound_to 10162
  157.6821  130.9150  150.0294 LP  0  0  0  0  0  0  0  0  0  0  0  0  # atno 17370 bound_to 10713
  156.1469  130.3642  149.9496 LP  0  0  0  0  0  0  0  0  0  0  0  0  # atno 17371 bound_to 10713
  140.0942  134.5560  155.8414 LP  0  0  0  0  0  0  0  0  0  0  0  0  # atno 17394 bound_to 11000
  141.2086  133.6676  156.6386 LP  0  0  0  0  0  0  0  0  0  0  0  0  # atno 17395 bound_to 11000

$$$$
