AV-unprocessed.smi:1085|AV-procd|sdf|4723|dock5
  -GOLD-   22720 3253D 1   1.00000     0.00000
 Structure written by MMmdl.
 33 34  0  0  0  0  0  0  0  0  1 V2000
  151.9984  139.4769  154.7005 O   0  0  0  0  0  0  0  0  0  0  0  0
  151.6869  139.2957  155.8769 C   0  0  0  0  0  0  0  0  0  0  0  0
  152.1206  138.0165  156.5921 C   0  0  0  0  0  0  0  0  0  0  0  0
  152.8754  138.3256  157.7917 N   0  0  0  0  0  0  0  0  0  0  0  0
  152.5245  138.3022  159.0795 C   0  0  0  0  0  0  0  0  0  0  0  0
  153.5239  138.6709  159.8656 N   0  0  0  0  0  0  0  0  0  0  0  0
  154.5479  138.9324  158.9705 N   0  0  0  0  0  0  0  0  0  0  0  0
  154.1689  138.7297  157.7385 N   0  0  0  0  0  0  0  0  0  0  0  0
  150.9762  140.1708  156.6057 N   0  0  0  0  0  0  0  0  0  0  0  0
  150.4919  141.4766  156.1596 C   0  0  1  0  0  0  0  0  0  0  0  0
  148.9919  141.6328  156.4737 C   0  0  0  0  0  0  0  0  0  0  0  0
  148.7277  141.7713  157.9821 C   0  0  0  0  0  0  0  0  0  0  0  0
  149.5468  142.9214  158.5885 C   0  0  0  0  0  0  0  0  0  0  0  0
  151.0577  142.7472  158.3250 C   0  0  2  0  0  0  0  0  0  0  0  0
  151.8892  143.8870  158.9489 C   0  0  0  0  0  0  0  0  0  0  0  0
  151.7221  145.0231  158.2710 F   0  0  0  0  0  0  0  0  0  0  0  0
  151.5195  144.0819  160.2147 F   0  0  0  0  0  0  0  0  0  0  0  0
  153.1828  143.5648  158.9394 F   0  0  0  0  0  0  0  0  0  0  0  0
  151.3199  142.6044  156.8078 C   0  0  0  0  0  0  0  0  0  0  0  0
  151.2475  137.4233  156.8676 H   0  0  0  0  0  0  0  0  0  0  0  0
  152.7309  137.4032  155.9272 H   0  0  0  0  0  0  0  0  0  0  0  0
  151.5443  138.0229  159.4365 H   0  0  0  0  0  0  0  0  0  0  0  0
  150.7668  139.9201  157.5611 H   0  0  0  0  0  0  0  0  0  0  0  0
  150.6125  141.5585  155.0783 H   0  0  0  0  0  0  0  0  0  0  0  0
  148.6120  142.5201  155.9651 H   0  0  0  0  0  0  0  0  0  0  0  0
  148.4309  140.7892  156.0699 H   0  0  0  0  0  0  0  0  0  0  0  0
  147.6649  141.9412  158.1567 H   0  0  0  0  0  0  0  0  0  0  0  0
  148.9755  140.8379  158.4891 H   0  0  0  0  0  0  0  0  0  0  0  0
  149.2051  143.8689  158.1702 H   0  0  0  0  0  0  0  0  0  0  0  0
  149.3559  142.9726  159.6606 H   0  0  0  0  0  0  0  0  0  0  0  0
  151.3721  141.8211  158.8087 H   0  0  0  0  0  0  0  0  0  0  0  0
  152.3808  142.4312  156.6231 H   0  0  0  0  0  0  0  0  0  0  0  0
  151.0792  143.5459  156.3126 H   0  0  0  0  0  0  0  0  0  0  0  0
  1  2  2  0  0  0  0
  2  3  1  0  0  0  0
  2  9  1  0  0  0  0
  3  4  1  0  0  0  0
  3 20  1  0  0  0  0
  3 21  1  0  0  0  0
  4  8  1  0  0  0  0
  4  5  1  0  0  0  0
  5  6  2  0  0  0  0
  5 22  1  0  0  0  0
  6  7  1  0  0  0  0
  7  8  2  0  0  0  0
  9 10  1  0  0  0  0
  9 23  1  0  0  0  0
 10 19  1  0  0  0  0
 10 11  1  0  0  0  0
 10 24  1  0  0  0  0
 11 12  1  0  0  0  0
 11 25  1  0  0  0  0
 11 26  1  0  0  0  0
 12 13  1  0  0  0  0
 12 27  1  0  0  0  0
 12 28  1  0  0  0  0
 13 14  1  0  0  0  0
 13 29  1  0  0  0  0
 13 30  1  0  0  0  0
 14 15  1  0  0  0  0
 14 19  1  0  0  0  0
 14 31  1  0  0  0  0
 15 16  1  0  0  0  0
 15 17  1  0  0  0  0
 15 18  1  0  0  0  0
 19 32  1  0  0  0  0
 19 33  1  0  0  0  0
M  END
> <s_m_source_file>
AV-unprocessed.smi

> <i_m_source_file_index>
1085

> <i_lp_mmshare_version>
43012

> <i_f3d_flags>
0

> <s_epik_input>
bjFubltjSF1uMVtDSDJdQyg9TylbTkhdW0NAQEhdMltDSDJdW0NIMl1bQ0gyXVtDQEBIXShDKEYpKEYpRilbQ0gyXTI=

> <s_epik_cmdline>
J2VwaWtfcHl0aG9uJywgJy1waCcsICc3LjAnLCAnLXRuJywgJzgnLCAnLW1hJywgJzIwMCcsICctbWV0YWxfYmluZGluZycsICctaW1hZScsICc8aW5maWxlLm1hZT4nLCAnLW9tYWUnLCAnPG91dGZpbGUubWFlPic=

> <r_lp_tautomer_probability>
1

> <r_epik_Ionization_Penalty>
8.41315e-07

> <r_epik_Ionization_Penalty_Charging>
0

> <r_epik_Ionization_Penalty_Neutral>
8.41315e-07

> <r_epik_State_Penalty>
-0

> <r_epik_Charging_Adjusted_Penalty>
0

> <i_epik_Tot_Q>
0

> <i_epik_Tot_abs_Q>
0

> <r_epik_Metal_State_Penalty>
-0

> <b_epik_Metal_Only>
0

> <s_lp_Force_Field>
OPLS_2005

> <r_lp_Energy>
12.3827

> <b_lp_Chiralities_Consistent>
1

> <s_lp_Variant>
AV-unprocessed.smi:1085-4

> <Gold.Version>
5.8.1

> <Gold.Id.Protein>
6NUR|6NUR_protein|mol2

> <Gold.PLP.Fitness>
37.7161

> <Gold.PLP.PLP>
-32.9048

> <Gold.PLP.part.hbond>
-2.7221

> <Gold.PLP.part.metal>
0.0000

> <Gold.PLP.part.buried>
-5.4732

> <Gold.PLP.part.nonpolar>
-24.4782

> <Gold.PLP.part.repulsive>
0.1382

> <Gold.PLP.ligand.clash>
0.0000

> <Gold.PLP.ligand.torsion>
0.5227

> <Gold.PLP.Chemscore.Hbond>
1.9440

> <Gold.PLP.Chemscore.CHOScore>
0.0000

> <Gold.PLP.Chemscore.Metal>
0.0000

> <Gold.Chemscore.Hbonds>
donor molecule, donor type, donor heavy atom, donor atom, acceptor molecule, acceptor atom, score
      P1  H  7989  7998       L1     1  0.91
      P1  H  7997  8009       L1     8  0.98

> <Gold.PLP.Chemscore.Internal.Correction>
0.0247

> <Gold.Rescore>
     Score         DG    S(hbond)    S(metal)    S(lipo)     H(rot)  DE(clash)    DE(int)     intcor
     11.97     -12.67       1.91        0.00      51.85       2.05       0.02       0.68       ----

> <Gold.Chemscore.Fitness>
11.9702

> <Gold.Chemscore.DG>
-12.6742

> <Gold.Chemscore.ZeroCoef>
-5.4800

> <Gold.Chemscore.Hbond>
1.9055

> <Gold.Chemscore.Metal>
0.0000

> <Gold.Chemscore.Lipo>
51.8501

> <Gold.Chemscore.Internal_Hbond>
0.0000

> <Gold.Chemscore.DEClash>
0.0248

> <Gold.Chemscore.DEInternal>
0.6791

> <Gold.Chemscore.Rot>
2.0456

> <Gold.Chemscore.Internal.Correction>
   9.000000E+99

> <Gold.Chemscore.Hbonds>
donor molecule, donor type, donor heavy atom, donor atom, acceptor molecule, acceptor atom, score
      P1  H  7989  7998       L1     1  0.90
      P1  H  7997  8009       L1     8  0.26

> <Gold.Chemscore.Hbond.Weighted>
-6.3645

> <Gold.Chemscore.Metal.Weighted>
-0.0000

> <Gold.Chemscore.Lipo.Weighted>
-6.0665

> <Gold.Chemscore.Internal_Hbond.Weighted>
0.0000

> <Gold.Chemscore.DEClash.Weighted>
0.0248

> <Gold.Chemscore.DEInternal.Weighted>
0.6791

> <Gold.Chemscore.Rot.Weighted>
5.2368

> <Gold.Chemscore.Internal.Correction.Weighted>
   9.000000E+99

> <Gold.Protein.RotatedTorsions>
[ 6907 6896 6895 6894 ] final   74.52 input  -60.11 | X-H torsion
[ 7974 7965 7964 7962 ] final   16.27 input  175.53 | X-H torsion
[ 8008 7997 7996 7995 ] final  151.00 input   59.86 | X-H torsion
[ 10167 10162 10161 10158 ] final   46.15 input  -65.29 | X-H torsion
[ 10718 10713 10712 10709 ] final    1.98 input   66.30 | X-H torsion
[ 10763 10752 10751 10750 ] final   90.02 input  -60.55 | X-H torsion
[ 11005 11000 10999 10996 ] final  -28.07 input  -57.11 | X-H torsion

> <Gold.Protein.ActiveResidues>
 VAL166  LYS551  ARG553  GLY616  TRP617  ASP618  TYR619  PRO620  LYS621  CYS622 
 ASP623  PHE694  ASN695  SER759  ASP760  ASP761  ALA762  ILE779  LEU786  VAL792 
 PHE793  MET794  SER795  GLU796  ALA797  LYS798  CYS799  TRP800  GLU811  SER814 

> <Gold.Protein.RotatedAtoms>
  152.4980  134.4258  159.9495 H   0  0  0  0  0  0  0  0  0  0  0  0  # atno 6907 bound_to 6896
  151.4234  133.3685  159.2767 H   0  0  0  0  0  0  0  0  0  0  0  0  # atno 6908 bound_to 6896
  150.9206  134.8646  159.7546 H   0  0  0  0  0  0  0  0  0  0  0  0  # atno 6909 bound_to 6896
  146.2254  139.8772  142.8577 H   0  0  0  0  0  0  0  0  0  0  0  0  # atno 7974 bound_to 7965
  156.2692  140.2059  156.6106 H   0  0  0  0  0  0  0  0  0  0  0  0  # atno 8008 bound_to 7997
  154.6834  140.0537  157.0313 H   0  0  0  0  0  0  0  0  0  0  0  0  # atno 8009 bound_to 7997
  155.0968  140.3202  155.4561 H   0  0  0  0  0  0  0  0  0  0  0  0  # atno 8010 bound_to 7997
  140.3169  144.2753  150.6189 H   0  0  0  0  0  0  0  0  0  0  0  0  # atno 10167 bound_to 10162
  156.8562  130.5571  149.5666 H   0  0  0  0  0  0  0  0  0  0  0  0  # atno 10718 bound_to 10713
  153.1931  135.4449  155.0175 H   0  0  0  0  0  0  0  0  0  0  0  0  # atno 10763 bound_to 10752
  154.8103  135.3291  154.7326 H   0  0  0  0  0  0  0  0  0  0  0  0  # atno 10764 bound_to 10752
  153.7778  135.6980  153.4949 H   0  0  0  0  0  0  0  0  0  0  0  0  # atno 10765 bound_to 10752
  140.9176  133.7420  156.0756 H   0  0  0  0  0  0  0  0  0  0  0  0  # atno 11005 bound_to 11000
  145.2549  141.0057  143.3860 LP  0  0  0  0  0  0  0  0  0  0  0  0  # atno 17320 bound_to 7965
  144.9345  139.4260  143.6479 LP  0  0  0  0  0  0  0  0  0  0  0  0  # atno 17321 bound_to 7965
  140.5519  143.2205  151.7913 LP  0  0  0  0  0  0  0  0  0  0  0  0  # atno 17342 bound_to 10162
  139.4882  144.4465  151.9703 LP  0  0  0  0  0  0  0  0  0  0  0  0  # atno 17343 bound_to 10162
  156.0801  130.5813  150.9547 LP  0  0  0  0  0  0  0  0  0  0  0  0  # atno 17370 bound_to 10713
  157.6275  131.0924  150.8505 LP  0  0  0  0  0  0  0  0  0  0  0  0  # atno 17371 bound_to 10713
  140.8030  134.3487  157.5434 LP  0  0  0  0  0  0  0  0  0  0  0  0  # atno 17394 bound_to 11000
  139.8769  134.9209  156.3262 LP  0  0  0  0  0  0  0  0  0  0  0  0  # atno 17395 bound_to 11000

$$$$
