AV-unprocessed.smi:3303|AV-procd|sdf|12683|dock10
  -GOLD-   2272019 23D 1   1.00000     0.00000
 Structure written by MMmdl.
 44 45  0  0  0  0  0  0  0  0  2 V2000
  153.2212  138.2774  155.3718 C   0  0  0  0  0  0  0  0  0  0  0  0
  151.6888  138.3987  155.4436 C   0  0  2  0  0  0  0  0  0  0  0  0
  151.0394  137.4484  154.4114 C   0  0  0  0  0  0  0  0  0  0  0  0
  149.5571  137.5445  154.3978 N   0  3  1  0  0  0  0  0  0  0  0  0
  148.9250  136.8909  155.5719 C   0  0  0  0  0  0  0  0  0  0  0  0
  149.1048  138.9368  154.1161 C   0  0  1  0  0  0  0  0  0  0  0  0
  147.5777  139.0530  153.9690 C   0  0  0  0  0  0  0  0  0  0  0  0
  149.6738  139.9276  155.1501 C   0  0  0  0  0  0  0  0  0  0  0  0
  151.2113  139.8535  155.2189 C   0  0  1  0  0  0  0  0  0  0  0  0
  151.6430  140.6869  156.3347 N   0  0  0  0  0  0  0  0  0  0  0  0
  151.1968  140.1427  157.6078 C   0  0  0  0  0  0  0  0  0  0  0  0
  152.1421  140.6056  158.7247 C   0  0  0  0  0  0  0  0  0  0  0  0
  152.2044  142.1174  158.8337 C   0  0  0  0  0  0  0  0  0  0  0  0
  152.7026  142.7360  160.0002 C   0  0  0  0  0  0  0  0  0  0  0  0
  152.7384  144.1430  160.0505 C   0  0  0  0  0  0  0  0  0  0  0  0
  152.2752  144.8735  158.9394 C   0  0  0  0  0  0  0  0  0  0  0  0
  151.7956  144.1614  157.8220 C   0  0  0  0  0  0  0  0  0  0  0  0
  151.7578  142.8125  157.7632 N   0  0  0  0  0  0  0  0  0  0  0  0
  153.5997  138.6057  154.4032 H   0  0  0  0  0  0  0  0  0  0  0  0
  153.5402  137.2454  155.5207 H   0  0  0  0  0  0  0  0  0  0  0  0
  153.7082  138.8791  156.1395 H   0  0  0  0  0  0  0  0  0  0  0  0
  151.3808  138.0802  156.4406 H   0  0  0  0  0  0  0  0  0  0  0  0
  151.4053  137.6893  153.4121 H   0  0  0  0  0  0  0  0  0  0  0  0
  151.3381  136.4166  154.6007 H   0  0  0  0  0  0  0  0  0  0  0  0
  149.1057  137.4410  156.4953 H   0  0  0  0  0  0  0  0  0  0  0  0
  149.3182  135.8824  155.7028 H   0  0  0  0  0  0  0  0  0  0  0  0
  147.8480  136.7927  155.4389 H   0  0  0  0  0  0  0  0  0  0  0  0
  149.5263  139.2012  153.1448 H   0  0  0  0  0  0  0  0  0  0  0  0
  147.3004  140.0444  153.6099 H   0  0  0  0  0  0  0  0  0  0  0  0
  147.0620  138.9001  154.9172 H   0  0  0  0  0  0  0  0  0  0  0  0
  147.1931  138.3262  153.2527 H   0  0  0  0  0  0  0  0  0  0  0  0
  149.3709  140.9425  154.8880 H   0  0  0  0  0  0  0  0  0  0  0  0
  149.2403  139.7286  156.1313 H   0  0  0  0  0  0  0  0  0  0  0  0
  151.6218  140.2177  154.2752 H   0  0  0  0  0  0  0  0  0  0  0  0
  152.6496  140.7712  156.3348 H   0  0  0  0  0  0  0  0  0  0  0  0
  150.1802  140.4803  157.8144 H   0  0  0  0  0  0  0  0  0  0  0  0
  151.1794  139.0533  157.5557 H   0  0  0  0  0  0  0  0  0  0  0  0
  151.8227  140.1911  159.6820 H   0  0  0  0  0  0  0  0  0  0  0  0
  153.1490  140.2249  158.5462 H   0  0  0  0  0  0  0  0  0  0  0  0
  153.0500  142.1487  160.8376 H   0  0  0  0  0  0  0  0  0  0  0  0
  153.1144  144.6524  160.9253 H   0  0  0  0  0  0  0  0  0  0  0  0
  152.2875  145.9535  158.9435 H   0  0  0  0  0  0  0  0  0  0  0  0
  151.4329  144.6890  156.9524 H   0  0  0  0  0  0  0  0  0  0  0  0
  149.2599  136.9942  153.6046 H   0  0  0  0  0  0  0  0  0  0  0  0
  1  2  1  0  0  0  0
  1 19  1  0  0  0  0
  1 20  1  0  0  0  0
  1 21  1  0  0  0  0
  2  9  1  0  0  0  0
  2  3  1  0  0  0  0
  2 22  1  0  0  0  0
  3  4  1  0  0  0  0
  3 23  1  0  0  0  0
  3 24  1  0  0  0  0
  4  5  1  0  0  0  0
  4  6  1  0  0  0  0
  4 44  1  0  0  0  0
  5 25  1  0  0  0  0
  5 26  1  0  0  0  0
  5 27  1  0  0  0  0
  6  7  1  0  0  0  0
  6  8  1  0  0  0  0
  6 28  1  0  0  0  0
  7 29  1  0  0  0  0
  7 30  1  0  0  0  0
  7 31  1  0  0  0  0
  8  9  1  0  0  0  0
  8 32  1  0  0  0  0
  8 33  1  0  0  0  0
  9 10  1  0  0  0  0
  9 34  1  0  0  0  0
 10 11  1  0  0  0  0
 10 35  1  0  0  0  0
 11 12  1  0  0  0  0
 11 36  1  0  0  0  0
 11 37  1  0  0  0  0
 12 13  1  0  0  0  0
 12 38  1  0  0  0  0
 12 39  1  0  0  0  0
 13 18  1  0  0  0  0
 13 14  2  0  0  0  0
 14 15  1  0  0  0  0
 14 40  1  0  0  0  0
 15 16  2  0  0  0  0
 15 41  1  0  0  0  0
 16 17  1  0  0  0  0
 16 42  1  0  0  0  0
 17 18  2  0  0  0  0
 17 43  1  0  0  0  0
M  CHG  1   4   1
M  END
> <s_m_source_file>
AV-unprocessed.smi

> <i_m_source_file_index>
3303

> <i_lp_mmshare_version>
43012

> <i_f3d_flags>
0

> <s_epik_input>
W0NIM11bQ0BASF0xW0NIMl1OKFtDSDNdKVtDQEBIXShbQ0gzXSlbQ0gyXVtDQEhdMVtOSF1bQ0gyXVtDSDJdYzJbY0hdW2NIXVtjSF1bY0hdbjI=

> <s_epik_cmdline>
J2VwaWtfcHl0aG9uJywgJy1waCcsICc3LjAnLCAnLXRuJywgJzgnLCAnLW1hJywgJzIwMCcsICctbWV0YWxfYmluZGluZycsICctaW1hZScsICc8aW5maWxlLm1hZT4nLCAnLW9tYWUnLCAnPG91dGZpbGUubWFlPic=

> <r_epik_Ionization_Penalty>
2.31085

> <r_epik_Ionization_Penalty_Charging>
0.000313057

> <r_epik_Ionization_Penalty_Neutral>
2.31054

> <r_epik_State_Penalty>
2.4087

> <r_epik_Charging_Adjusted_Penalty>
2.40902

> <i_epik_Tot_Q>
1

> <i_epik_Tot_abs_Q>
1

> <r_epik_Metal_State_Penalty>
2.30979

> <b_epik_Metal_Only>
0

> <s_lp_Force_Field>
OPLS_2005

> <r_lp_Energy>
25.8109

> <b_lp_Chiralities_Consistent>
1

> <s_lp_Variant>
AV-unprocessed.smi:3303-27

> <Gold.Version>
5.8.1

> <Gold.Id.Protein>
6NUR|6NUR_protein|mol2

> <Gold.PLP.Fitness>
47.1396

> <Gold.PLP.PLP>
-38.9426

> <Gold.PLP.part.hbond>
-1.0000

> <Gold.PLP.part.metal>
0.0000

> <Gold.PLP.part.buried>
-1.2987

> <Gold.PLP.part.nonpolar>
-35.8980

> <Gold.PLP.part.repulsive>
0.0739

> <Gold.PLP.ligand.clash>
0.0000

> <Gold.PLP.ligand.torsion>
0.4048

> <Gold.PLP.Chemscore.Hbond>
2.0000

> <Gold.PLP.Chemscore.CHOScore>
0.9984

> <Gold.PLP.Chemscore.Metal>
0.0000

> <Gold.Chemscore.Hbonds>
donor molecule, donor type, donor heavy atom, donor atom, acceptor molecule, acceptor atom, score
      L1  H     4    44       P1  7948  2.00
      L1  C    17    43       P1  8028  0.29

> <Gold.PLP.Chemscore.Internal.Correction>
0.0114

> <Gold.Rescore>
     Score         DG    S(hbond)    S(metal)    S(lipo)     H(rot)  DE(clash)    DE(int)     intcor
     16.79     -19.49       0.99        0.00     120.46       1.33       0.38       2.32       ----

> <Gold.Chemscore.Fitness>
16.7881

> <Gold.Chemscore.DG>
-19.4899

> <Gold.Chemscore.ZeroCoef>
-5.4800

> <Gold.Chemscore.Hbond>
0.9923

> <Gold.Chemscore.Metal>
0.0000

> <Gold.Chemscore.Lipo>
120.4569

> <Gold.Chemscore.Internal_Hbond>
0.0000

> <Gold.Chemscore.DEClash>
0.3809

> <Gold.Chemscore.DEInternal>
2.3209

> <Gold.Chemscore.Rot>
1.3272

> <Gold.Chemscore.Internal.Correction>
   9.000000E+99

> <Gold.Chemscore.Hbonds>
donor molecule, donor type, donor heavy atom, donor atom, acceptor molecule, acceptor atom, score
      L1  H     4    44       P1  7948  0.98

> <Gold.Chemscore.Hbond.Weighted>
-3.3141

> <Gold.Chemscore.Metal.Weighted>
-0.0000

> <Gold.Chemscore.Lipo.Weighted>
-14.0935

> <Gold.Chemscore.Internal_Hbond.Weighted>
0.0000

> <Gold.Chemscore.DEClash.Weighted>
0.3809

> <Gold.Chemscore.DEInternal.Weighted>
2.3209

> <Gold.Chemscore.Rot.Weighted>
3.3976

> <Gold.Chemscore.Internal.Correction.Weighted>
   9.000000E+99

> <Gold.Protein.RotatedTorsions>
[ 6907 6896 6895 6894 ] final  -24.67 input  -60.11 | X-H torsion
[ 7974 7965 7964 7962 ] final  176.28 input  175.53 | X-H torsion
[ 8008 7997 7996 7995 ] final   80.44 input   59.86 | X-H torsion
[ 10167 10162 10161 10158 ] final -153.20 input  -65.29 | X-H torsion
[ 10718 10713 10712 10709 ] final -102.49 input   66.30 | X-H torsion
[ 10763 10752 10751 10750 ] final  112.01 input  -60.55 | X-H torsion
[ 11005 11000 10999 10996 ] final  114.61 input  -57.11 | X-H torsion

> <Gold.Protein.ActiveResidues>
 VAL166  LYS551  ARG553  GLY616  TRP617  ASP618  TYR619  PRO620  LYS621  CYS622 
 ASP623  PHE694  ASN695  SER759  ASP760  ASP761  ALA762  ILE779  LEU786  VAL792 
 PHE793  MET794  SER795  GLU796  ALA797  LYS798  CYS799  TRP800  GLU811  SER814 

> <Gold.Protein.RotatedAtoms>
  151.1861  135.0382  159.8812 H   0  0  0  0  0  0  0  0  0  0  0  0  # atno 6907 bound_to 6896
  152.5442  134.1008  159.8327 H   0  0  0  0  0  0  0  0  0  0  0  0  # atno 6908 bound_to 6896
  151.1131  133.5111  159.2637 H   0  0  0  0  0  0  0  0  0  0  0  0  # atno 6909 bound_to 6896
  144.7187  140.0072  143.6440 H   0  0  0  0  0  0  0  0  0  0  0  0  # atno 7974 bound_to 7965
  155.8834  140.3443  155.5904 H   0  0  0  0  0  0  0  0  0  0  0  0  # atno 8008 bound_to 7997
  155.7693  140.0843  157.2135 H   0  0  0  0  0  0  0  0  0  0  0  0  # atno 8009 bound_to 7997
  154.4026  140.1521  156.2911 H   0  0  0  0  0  0  0  0  0  0  0  0  # atno 8010 bound_to 7997
  139.7116  143.9099  152.2470 H   0  0  0  0  0  0  0  0  0  0  0  0  # atno 10167 bound_to 10162
  156.0230  130.5422  150.7116 H   0  0  0  0  0  0  0  0  0  0  0  0  # atno 10718 bound_to 10713
  153.4717  135.3699  155.2394 H   0  0  0  0  0  0  0  0  0  0  0  0  # atno 10763 bound_to 10752
  154.8757  135.3933  154.3804 H   0  0  0  0  0  0  0  0  0  0  0  0  # atno 10764 bound_to 10752
  153.4394  135.7084  153.6244 H   0  0  0  0  0  0  0  0  0  0  0  0  # atno 10765 bound_to 10752
  139.8985  134.9571  156.6919 H   0  0  0  0  0  0  0  0  0  0  0  0  # atno 11005 bound_to 11000
  146.0287  139.3316  143.0768 LP  0  0  0  0  0  0  0  0  0  0  0  0  # atno 17320 bound_to 7965
  145.8479  140.9545  143.0765 LP  0  0  0  0  0  0  0  0  0  0  0  0  # atno 17321 bound_to 7965
  139.8970  144.6933  150.8707 LP  0  0  0  0  0  0  0  0  0  0  0  0  # atno 17342 bound_to 10162
  140.7734  143.3543  151.1953 LP  0  0  0  0  0  0  0  0  0  0  0  0  # atno 17343 bound_to 10162
  157.4753  131.0897  151.0597 LP  0  0  0  0  0  0  0  0  0  0  0  0  # atno 17370 bound_to 10713
  157.1046  130.5996  149.5468 LP  0  0  0  0  0  0  0  0  0  0  0  0  # atno 17371 bound_to 10713
  140.7218  133.9134  155.8152 LP  0  0  0  0  0  0  0  0  0  0  0  0  # atno 17394 bound_to 11000
  141.0221  134.0874  157.4109 LP  0  0  0  0  0  0  0  0  0  0  0  0  # atno 17395 bound_to 11000

$$$$
