AV-unprocessed.smi:2169|AV-procd|sdf|8822|dock2
  -GOLD-   2272012 13D 1   1.00000     0.00000
 Structure written by MMmdl.
 44 45  0  0  0  0  0  0  0  0  1 V2000
  150.8035  138.0269  154.5476 C   0  0  0  0  0  0  0  0  0  0  0  0
  151.1939  139.2732  155.8433 S   0  0  0  0  0  0  0  0  0  0  0  0
  151.2192  138.5890  157.1452 O   0  0  0  0  0  0  0  0  0  0  0  0
  152.3675  140.0418  155.4010 O   0  0  0  0  0  0  0  0  0  0  0  0
  149.8219  140.3439  155.8313 N   0  0  0  0  0  0  0  0  0  0  0  0
  149.5334  141.1605  154.6352 C   0  0  0  0  0  0  0  0  0  0  0  0
  148.3945  140.5565  153.7944 C   0  0  0  0  0  0  0  0  0  0  0  0
  147.1361  140.3163  154.6455 C   0  0  0  0  0  0  0  0  0  0  0  0
  146.0868  139.6734  153.8596 N   0  0  0  0  0  0  0  0  0  0  0  0
  146.0279  138.3653  153.5734 C   0  0  0  0  0  0  0  0  0  0  0  0
  146.8514  137.5358  153.9601 O   0  0  0  0  0  0  0  0  0  0  0  0
  144.9667  138.0707  152.8096 N   0  0  0  0  0  0  0  0  0  0  0  0
  144.6346  136.7388  152.3182 C   0  0  0  0  0  0  0  0  0  0  0  0
  145.4813  136.3606  151.0917 C   0  0  0  0  0  0  0  0  0  0  0  0
  145.3419  134.8951  150.7297 C   0  0  0  0  0  0  0  0  0  0  0  0
  144.1797  134.4122  150.0936 C   0  0  0  0  0  0  0  0  0  0  0  0
  144.0986  133.0421  149.7782 C   0  0  0  0  0  0  0  0  0  0  0  0
  145.1861  132.2113  150.1147 C   0  0  0  0  0  0  0  0  0  0  0  0
  146.3031  132.6624  150.7250 N   0  0  0  0  0  0  0  0  0  0  0  0
  146.3732  133.9778  151.0229 C   0  0  0  0  0  0  0  0  0  0  0  0
  147.4985  139.4328  155.8481 C   0  0  0  0  0  0  0  0  0  0  0  0
  148.6447  140.0459  156.6715 C   0  0  0  0  0  0  0  0  0  0  0  0
  151.6178  137.3050  154.4927 H   0  0  0  0  0  0  0  0  0  0  0  0
  150.7006  138.5165  153.5808 H   0  0  0  0  0  0  0  0  0  0  0  0
  149.8840  137.5026  154.8010 H   0  0  0  0  0  0  0  0  0  0  0  0
  149.2515  142.1618  154.9631 H   0  0  0  0  0  0  0  0  0  0  0  0
  150.4314  141.2778  154.0291 H   0  0  0  0  0  0  0  0  0  0  0  0
  148.1648  141.2275  152.9662 H   0  0  0  0  0  0  0  0  0  0  0  0
  148.7216  139.6200  153.3434 H   0  0  0  0  0  0  0  0  0  0  0  0
  146.7677  141.2736  155.0197 H   0  0  0  0  0  0  0  0  0  0  0  0
  145.3604  140.2723  153.4956 H   0  0  0  0  0  0  0  0  0  0  0  0
  144.3470  138.8218  152.5434 H   0  0  0  0  0  0  0  0  0  0  0  0
  144.7623  136.0043  153.1152 H   0  0  0  0  0  0  0  0  0  0  0  0
  143.5765  136.7317  152.0548 H   0  0  0  0  0  0  0  0  0  0  0  0
  145.1914  136.9693  150.2341 H   0  0  0  0  0  0  0  0  0  0  0  0
  146.5348  136.5746  151.2776 H   0  0  0  0  0  0  0  0  0  0  0  0
  143.3639  135.0775  149.8515 H   0  0  0  0  0  0  0  0  0  0  0  0
  143.2246  132.6373  149.2898 H   0  0  0  0  0  0  0  0  0  0  0  0
  145.1574  131.1558  149.8877 H   0  0  0  0  0  0  0  0  0  0  0  0
  147.2784  134.3073  151.5117 H   0  0  0  0  0  0  0  0  0  0  0  0
  146.6252  139.2997  156.4878 H   0  0  0  0  0  0  0  0  0  0  0  0
  147.7790  138.4368  155.5067 H   0  0  0  0  0  0  0  0  0  0  0  0
  148.9198  139.3821  157.4907 H   0  0  0  0  0  0  0  0  0  0  0  0
  148.3065  140.9756  157.1303 H   0  0  0  0  0  0  0  0  0  0  0  0
  1  2  1  0  0  0  0
  1 23  1  0  0  0  0
  1 24  1  0  0  0  0
  1 25  1  0  0  0  0
  2  3  2  0  0  0  0
  2  4  2  0  0  0  0
  2  5  1  0  0  0  0
  5 22  1  0  0  0  0
  5  6  1  0  0  0  0
  6  7  1  0  0  0  0
  6 26  1  0  0  0  0
  6 27  1  0  0  0  0
  7  8  1  0  0  0  0
  7 28  1  0  0  0  0
  7 29  1  0  0  0  0
  8  9  1  0  0  0  0
  8 21  1  0  0  0  0
  8 30  1  0  0  0  0
  9 10  1  0  0  0  0
  9 31  1  0  0  0  0
 10 11  2  0  0  0  0
 10 12  1  0  0  0  0
 12 13  1  0  0  0  0
 12 32  1  0  0  0  0
 13 14  1  0  0  0  0
 13 33  1  0  0  0  0
 13 34  1  0  0  0  0
 14 15  1  0  0  0  0
 14 35  1  0  0  0  0
 14 36  1  0  0  0  0
 15 20  1  0  0  0  0
 15 16  2  0  0  0  0
 16 17  1  0  0  0  0
 16 37  1  0  0  0  0
 17 18  2  0  0  0  0
 17 38  1  0  0  0  0
 18 19  1  0  0  0  0
 18 39  1  0  0  0  0
 19 20  2  0  0  0  0
 20 40  1  0  0  0  0
 21 22  1  0  0  0  0
 21 41  1  0  0  0  0
 21 42  1  0  0  0  0
 22 43  1  0  0  0  0
 22 44  1  0  0  0  0
M  END
> <s_m_source_file>
AV-unprocessed.smi

> <i_m_source_file_index>
2169

> <i_lp_mmshare_version>
43012

> <i_f3d_flags>
0

> <s_epik_input>
W0NIM11TKD1PKSg9TylOMVtDSDJdW0NIMl1bQ0hdKFtDSDJdW0NIMl0xKVtOSF1DKD1PKVtOSF1bQ0gyXVtDSDJdYzJbY0hdW2NIXVtjSF1uW2NIXTI=

> <s_epik_cmdline>
J2VwaWtfcHl0aG9uJywgJy1waCcsICc3LjAnLCAnLXRuJywgJzgnLCAnLW1hJywgJzIwMCcsICctbWV0YWxfYmluZGluZycsICctaW1hZScsICc8aW5maWxlLm1hZT4nLCAnLW9tYWUnLCAnPG91dGZpbGUubWFlPic=

> <r_epik_Ionization_Penalty>
0.0144137

> <r_epik_Ionization_Penalty_Charging>
0

> <r_epik_Ionization_Penalty_Neutral>
0.0144137

> <r_epik_State_Penalty>
0.0112268

> <r_epik_Charging_Adjusted_Penalty>
0.0112268

> <i_epik_Tot_Q>
0

> <i_epik_Tot_abs_Q>
0

> <r_epik_Metal_State_Penalty>
0.0109605

> <b_epik_Metal_Only>
0

> <s_lp_Force_Field>
OPLS_2005

> <r_lp_Energy>
-3.92684

> <b_lp_Chiralities_Consistent>
1

> <s_lp_Variant>
AV-unprocessed.smi:2169-1

> <Gold.Version>
5.8.1

> <Gold.Id.Protein>
6NUR|6NUR_protein|mol2

> <Gold.PLP.Fitness>
45.9519

> <Gold.PLP.PLP>
-33.9701

> <Gold.PLP.part.hbond>
-3.9987

> <Gold.PLP.part.metal>
0.0000

> <Gold.PLP.part.buried>
0.9710

> <Gold.PLP.part.nonpolar>
-30.0758

> <Gold.PLP.part.repulsive>
0.3670

> <Gold.PLP.ligand.clash>
0.0000

> <Gold.PLP.ligand.torsion>
1.6577

> <Gold.PLP.Chemscore.Hbond>
3.4160

> <Gold.PLP.Chemscore.CHOScore>
0.9669

> <Gold.PLP.Chemscore.Metal>
0.0000

> <Gold.Chemscore.Hbonds>
donor molecule, donor type, donor heavy atom, donor atom, acceptor molecule, acceptor atom, score
      L1  H     9    31       P1 10175  0.99
      L1  H    12    32       P1 10175  1.00
      P1  H  7989  7998       L1     4  0.42
      P1  H  7997  8010       L1     4  0.76
      L1  C    20    40       P1  7948  1.00

> <Gold.PLP.Chemscore.Internal.Correction>
2.1485

> <Gold.Rescore>
     Score         DG    S(hbond)    S(metal)    S(lipo)     H(rot)  DE(clash)    DE(int)     intcor
     16.54     -19.79       2.77        0.00      79.32       1.64       0.27       2.98       ----

> <Gold.Chemscore.Fitness>
16.5395

> <Gold.Chemscore.DG>
-19.7917

> <Gold.Chemscore.ZeroCoef>
-5.4800

> <Gold.Chemscore.Hbond>
2.7652

> <Gold.Chemscore.Metal>
0.0000

> <Gold.Chemscore.Lipo>
79.3222

> <Gold.Chemscore.Internal_Hbond>
0.0000

> <Gold.Chemscore.DEClash>
0.2718

> <Gold.Chemscore.DEInternal>
2.9803

> <Gold.Chemscore.Rot>
1.6425

> <Gold.Chemscore.Internal.Correction>
   9.000000E+99

> <Gold.Chemscore.Hbonds>
donor molecule, donor type, donor heavy atom, donor atom, acceptor molecule, acceptor atom, score
      L1  H     9    31       P1 10175  0.92
      L1  H    12    32       P1 10175  1.00
      P1  H  7989  7998       L1     4  0.14
      P1  H  7997  8010       L1     4  0.75

> <Gold.Chemscore.Hbond.Weighted>
-9.2357

> <Gold.Chemscore.Metal.Weighted>
-0.0000

> <Gold.Chemscore.Lipo.Weighted>
-9.2807

> <Gold.Chemscore.Internal_Hbond.Weighted>
0.0000

> <Gold.Chemscore.DEClash.Weighted>
0.2718

> <Gold.Chemscore.DEInternal.Weighted>
2.9803

> <Gold.Chemscore.Rot.Weighted>
4.2047

> <Gold.Chemscore.Internal.Correction.Weighted>
   9.000000E+99

> <Gold.Protein.RotatedTorsions>
[ 6907 6896 6895 6894 ] final  -55.07 input  -60.11 | X-H torsion
[ 7974 7965 7964 7962 ] final -160.21 input  175.53 | X-H torsion
[ 8008 7997 7996 7995 ] final   99.93 input   59.86 | X-H torsion
[ 10167 10162 10161 10158 ] final  137.42 input  -65.29 | X-H torsion
[ 10718 10713 10712 10709 ] final   34.12 input   66.30 | X-H torsion
[ 10763 10752 10751 10750 ] final -120.26 input  -60.55 | X-H torsion
[ 11005 11000 10999 10996 ] final  -51.31 input  -57.11 | X-H torsion

> <Gold.Protein.ActiveResidues>
 VAL166  LYS551  ARG553  GLY616  TRP617  ASP618  TYR619  PRO620  LYS621  CYS622 
 ASP623  PHE694  ASN695  SER759  ASP760  ASP761  ALA762  ILE779  LEU786  VAL792 
 PHE793  MET794  SER795  GLU796  ALA797  LYS798  CYS799  TRP800  GLU811  SER814 

> <Gold.Protein.RotatedAtoms>
  150.8283  134.7525  159.6831 H   0  0  0  0  0  0  0  0  0  0  0  0  # atno 6907 bound_to 6896
  152.4391  134.5624  159.9907 H   0  0  0  0  0  0  0  0  0  0  0  0  # atno 6908 bound_to 6896
  151.5790  133.3342  159.3040 H   0  0  0  0  0  0  0  0  0  0  0  0  # atno 6909 bound_to 6896
  144.7436  140.3574  143.6103 H   0  0  0  0  0  0  0  0  0  0  0  0  # atno 7974 bound_to 7965
  156.1153  140.3221  155.8131 H   0  0  0  0  0  0  0  0  0  0  0  0  # atno 8008 bound_to 7997
  155.4601  140.0539  157.3009 H   0  0  0  0  0  0  0  0  0  0  0  0  # atno 8009 bound_to 7997
  154.4788  140.2044  155.9826 H   0  0  0  0  0  0  0  0  0  0  0  0  # atno 8010 bound_to 7997
  139.5145  144.6411  151.5567 H   0  0  0  0  0  0  0  0  0  0  0  0  # atno 10167 bound_to 10162
  157.3064  130.7377  149.6698 H   0  0  0  0  0  0  0  0  0  0  0  0  # atno 10718 bound_to 10713
  154.8639  135.4209  154.2431 H   0  0  0  0  0  0  0  0  0  0  0  0  # atno 10763 bound_to 10752
  153.3393  135.6992  153.6887 H   0  0  0  0  0  0  0  0  0  0  0  0  # atno 10764 bound_to 10752
  153.5872  135.3562  155.2870 H   0  0  0  0  0  0  0  0  0  0  0  0  # atno 10765 bound_to 10752
  141.0864  133.6641  156.3859 H   0  0  0  0  0  0  0  0  0  0  0  0  # atno 11005 bound_to 11000
  145.7212  139.1710  143.2483 LP  0  0  0  0  0  0  0  0  0  0  0  0  # atno 17320 bound_to 7965
  146.1275  140.7229  142.9428 LP  0  0  0  0  0  0  0  0  0  0  0  0  # atno 17321 bound_to 7965
  140.6178  143.9316  150.6502 LP  0  0  0  0  0  0  0  0  0  0  0  0  # atno 17342 bound_to 10162
  140.2580  143.3545  152.1348 LP  0  0  0  0  0  0  0  0  0  0  0  0  # atno 17343 bound_to 10162
  155.9675  130.4264  150.4699 LP  0  0  0  0  0  0  0  0  0  0  0  0  # atno 17370 bound_to 10713
  157.2689  131.0583  151.2272 LP  0  0  0  0  0  0  0  0  0  0  0  0  # atno 17371 bound_to 10713
  140.5353  134.6173  157.5363 LP  0  0  0  0  0  0  0  0  0  0  0  0  # atno 17394 bound_to 11000
  139.9683  134.7335  156.0093 LP  0  0  0  0  0  0  0  0  0  0  0  0  # atno 17395 bound_to 11000

$$$$
