AV-unprocessed.smi:21|AV-procd|sdf|138|dock5
  -GOLD-   2262015333D 1   1.00000     0.00000
 Structure written by MMmdl.
 62 65  0  0  0  0  0  0  0  0  2 V2000
  145.9748  130.2507  152.7940 C   0  0  0  0  0  0  0  0  0  0  0  0
  147.1798  130.9946  152.8856 O   0  0  0  0  0  0  0  0  0  0  0  0
  146.9885  132.4032  152.8545 C   0  0  2  0  0  0  0  0  0  0  0  0
  148.3497  133.0860  152.8789 C   0  0  0  0  0  0  0  0  0  0  0  0
  148.7484  133.0805  154.3611 C   0  0  1  0  0  0  0  0  0  0  0  0
  149.7674  134.1836  154.7419 C   0  0  0  0  0  0  0  0  0  0  0  0
  149.9797  134.2779  156.1875 N   0  0  0  0  0  0  0  0  0  0  0  0
  150.4069  133.0843  156.9062 C   0  0  0  0  0  0  0  0  0  0  0  0
  150.1518  135.5016  156.7580 C   0  0  0  0  0  0  0  0  0  0  0  0
  149.6608  135.6958  158.0103 N   0  0  0  0  0  0  0  0  0  0  0  0
  149.7993  136.8747  158.6225 C   0  0  0  0  0  0  0  0  0  0  0  0
  150.3809  137.9850  158.1690 N   0  0  0  0  0  0  0  0  0  0  0  0
  150.8701  137.8064  156.9093 C   0  0  0  0  0  0  0  0  0  0  0  0
  150.8029  136.6104  156.1366 C   0  0  0  0  0  0  0  0  0  0  0  0
  151.3984  136.8264  154.8976 N   0  0  0  0  0  0  0  0  0  0  0  0
  151.8053  138.0650  154.9419 C   0  0  0  0  0  0  0  0  0  0  0  0
  151.5313  138.7269  156.1153 N   0  0  0  0  0  0  0  0  0  0  0  0
  151.8677  140.1041  156.4292 C   0  0  0  0  0  0  0  0  0  0  0  0
  150.6661  140.9437  156.9377 C   0  0  2  0  0  0  0  0  0  0  0  0
  149.5137  141.0108  155.9027 C   0  0  0  0  0  0  0  0  0  0  0  0
  149.9941  140.9666  154.5747 O   0  0  0  0  0  0  0  0  0  0  0  0
  151.1314  142.3673  157.3406 C   0  0  2  0  0  0  0  0  0  0  0  0
  152.2977  142.4131  158.3148 C   0  0  0  0  0  0  0  0  0  0  0  0
  152.1979  143.8297  158.8641 C   0  0  0  0  0  0  0  0  0  0  0  0
  150.8040  144.0899  158.9532 O   0  0  0  0  0  0  0  0  0  0  0  0
  150.0881  143.1918  158.1098 C   0  0  0  0  0  0  0  0  0  0  0  0
  147.4642  133.0885  155.1214 N   0  3  1  0  0  0  0  0  0  0  0  0
  147.2296  134.2019  156.0710 C   0  0  0  0  0  0  0  0  0  0  0  0
  146.3549  132.9028  154.1566 C   0  0  0  0  0  0  0  0  0  0  0  0
  146.4198  132.6977  151.9705 H   0  0  0  0  0  0  0  0  0  0  0  0
  149.1970  132.1105  154.5803 H   0  0  0  0  0  0  0  0  0  0  0  0
  146.2017  129.1853  152.8285 H   0  0  0  0  0  0  0  0  0  0  0  0
  145.4595  130.4512  151.8539 H   0  0  0  0  0  0  0  0  0  0  0  0
  145.2960  130.4730  153.6173 H   0  0  0  0  0  0  0  0  0  0  0  0
  149.0822  132.5919  152.2394 H   0  0  0  0  0  0  0  0  0  0  0  0
  148.2424  134.1130  152.5268 H   0  0  0  0  0  0  0  0  0  0  0  0
  150.7082  134.0351  154.2118 H   0  0  0  0  0  0  0  0  0  0  0  0
  149.3946  135.1546  154.4153 H   0  0  0  0  0  0  0  0  0  0  0  0
  150.1152  133.1354  157.9557 H   0  0  0  0  0  0  0  0  0  0  0  0
  151.4888  132.9633  156.8470 H   0  0  0  0  0  0  0  0  0  0  0  0
  149.9453  132.1938  156.4790 H   0  0  0  0  0  0  0  0  0  0  0  0
  149.3854  136.9368  159.6182 H   0  0  0  0  0  0  0  0  0  0  0  0
  152.3216  138.5332  154.1164 H   0  0  0  0  0  0  0  0  0  0  0  0
  152.6607  140.0766  157.1762 H   0  0  0  0  0  0  0  0  0  0  0  0
  152.2999  140.5681  155.5418 H   0  0  0  0  0  0  0  0  0  0  0  0
  150.2799  140.4656  157.8395 H   0  0  0  0  0  0  0  0  0  0  0  0
  148.8343  140.1664  156.0091 H   0  0  0  0  0  0  0  0  0  0  0  0
  148.9157  141.9111  156.0466 H   0  0  0  0  0  0  0  0  0  0  0  0
  149.2694  141.1209  153.9879 H   0  0  0  0  0  0  0  0  0  0  0  0
  151.4165  142.9205  156.4441 H   0  0  0  0  0  0  0  0  0  0  0  0
  152.1557  141.6889  159.1182 H   0  0  0  0  0  0  0  0  0  0  0  0
  153.2626  142.2206  157.8446 H   0  0  0  0  0  0  0  0  0  0  0  0
  152.6903  143.9434  159.8301 H   0  0  0  0  0  0  0  0  0  0  0  0
  152.6442  144.5407  158.1675 H   0  0  0  0  0  0  0  0  0  0  0  0
  149.4238  143.7415  157.4426 H   0  0  0  0  0  0  0  0  0  0  0  0
  149.4727  142.5515  158.7429 H   0  0  0  0  0  0  0  0  0  0  0  0
  147.2268  135.1671  155.5630 H   0  0  0  0  0  0  0  0  0  0  0  0
  147.9854  134.2177  156.8559 H   0  0  0  0  0  0  0  0  0  0  0  0
  146.2623  134.0769  156.5590 H   0  0  0  0  0  0  0  0  0  0  0  0
  145.8784  133.8656  153.9629 H   0  0  0  0  0  0  0  0  0  0  0  0
  145.5893  132.2377  154.5553 H   0  0  0  0  0  0  0  0  0  0  0  0
  147.4872  132.2480  155.6816 H   0  0  0  0  0  0  0  0  0  0  0  0
  1  2  1  0  0  0  0
  1 32  1  0  0  0  0
  1 33  1  0  0  0  0
  1 34  1  0  0  0  0
  2  3  1  0  0  0  0
  3 30  1  0  0  0  0
  3 29  1  0  0  0  0
  3  4  1  0  0  0  0
  4  5  1  0  0  0  0
  4 35  1  0  0  0  0
  4 36  1  0  0  0  0
  5 31  1  0  0  0  0
  5  6  1  0  0  0  0
  5 27  1  0  0  0  0
  6  7  1  0  0  0  0
  6 37  1  0  0  0  0
  6 38  1  0  0  0  0
  7  8  1  0  0  0  0
  7  9  1  0  0  0  0
  8 39  1  0  0  0  0
  8 40  1  0  0  0  0
  8 41  1  0  0  0  0
  9 14  1  0  0  0  0
  9 10  2  0  0  0  0
 10 11  1  0  0  0  0
 11 12  2  0  0  0  0
 11 42  1  0  0  0  0
 12 13  1  0  0  0  0
 13 17  1  0  0  0  0
 13 14  2  0  0  0  0
 14 15  1  0  0  0  0
 15 16  2  0  0  0  0
 16 17  1  0  0  0  0
 16 43  1  0  0  0  0
 17 18  1  0  0  0  0
 18 19  1  0  0  0  0
 18 44  1  0  0  0  0
 18 45  1  0  0  0  0
 19 20  1  0  0  0  0
 19 22  1  0  0  0  0
 19 46  1  0  0  0  0
 20 21  1  0  0  0  0
 20 47  1  0  0  0  0
 20 48  1  0  0  0  0
 21 49  1  0  0  0  0
 22 26  1  0  0  0  0
 22 23  1  0  0  0  0
 22 50  1  0  0  0  0
 23 24  1  0  0  0  0
 23 51  1  0  0  0  0
 23 52  1  0  0  0  0
 24 25  1  0  0  0  0
 24 53  1  0  0  0  0
 24 54  1  0  0  0  0
 25 26  1  0  0  0  0
 26 55  1  0  0  0  0
 26 56  1  0  0  0  0
 27 28  1  0  0  0  0
 27 29  1  0  0  0  0
 27 62  1  0  0  0  0
 28 57  1  0  0  0  0
 28 58  1  0  0  0  0
 28 59  1  0  0  0  0
 29 60  1  0  0  0  0
 29 61  1  0  0  0  0
M  CHG  1  27   1
M  END
> <s_m_source_file>
AV-unprocessed.smi

> <i_m_source_file_index>
21

> <i_lp_mmshare_version>
43012

> <i_f3d_flags>
0

> <s_epik_input>
W0NIM11PW0NASF0xW0NIMl1bQ0BIXShOKFtDSDNdKVtDSDJdMSlbQ0gyXU4oW0NIM10pYyhuW2NIXW4yKWMoYzIzKW5bY0hdbjNbQ0gyXVtDQEhdKFtDSDJdW09IXSlbQ0BASF00W0NIMl1bQ0gyXU9bQ0gyXTQ=

> <s_epik_cmdline>
J2VwaWtfcHl0aG9uJywgJy1waCcsICc3LjAnLCAnLXRuJywgJzgnLCAnLW1hJywgJzIwMCcsICctbWV0YWxfYmluZGluZycsICctaW1hZScsICc8aW5maWxlLm1hZT4nLCAnLW9tYWUnLCAnPG91dGZpbGUubWFlPic=

> <r_lp_tautomer_probability>
1

> <r_epik_Ionization_Penalty>
0.0157465

> <r_epik_Ionization_Penalty_Charging>
0.015354

> <r_epik_Ionization_Penalty_Neutral>
0.000392529

> <r_epik_State_Penalty>
0.0120612

> <r_epik_Charging_Adjusted_Penalty>
0.0274152

> <i_epik_Tot_Q>
1

> <i_epik_Tot_abs_Q>
1

> <r_epik_Metal_State_Penalty>
0.0121253

> <b_epik_Metal_Only>
0

> <s_lp_Force_Field>
OPLS_2005

> <r_lp_Energy>
61.8504

> <b_lp_Chiralities_Consistent>
1

> <s_lp_Variant>
AV-unprocessed.smi:21-18

> <Gold.Version>
5.8.1

> <Gold.Id.Protein>
6NUR|6NUR_protein|mol2

> <Gold.PLP.Fitness>
46.5031

> <Gold.PLP.PLP>
-41.4376

> <Gold.PLP.part.hbond>
-3.0000

> <Gold.PLP.part.metal>
0.0000

> <Gold.PLP.part.buried>
-6.8390

> <Gold.PLP.part.nonpolar>
-33.7683

> <Gold.PLP.part.repulsive>
1.0818

> <Gold.PLP.ligand.clash>
0.0000

> <Gold.PLP.ligand.torsion>
1.4687

> <Gold.PLP.Chemscore.Hbond>
2.4967

> <Gold.PLP.Chemscore.CHOScore>
0.0000

> <Gold.PLP.Chemscore.Metal>
0.0000

> <Gold.Chemscore.Hbonds>
donor molecule, donor type, donor heavy atom, donor atom, acceptor molecule, acceptor atom, score
      P1  H  6896  6908       L1    10  0.56
      P1  H  7989  7998       L1    21  0.64
      P1  H 10752 10764       L1    15  1.00

> <Gold.PLP.Chemscore.Internal.Correction>
0.5128

> <Gold.Rescore>
     Score         DG    S(hbond)    S(metal)    S(lipo)     H(rot)  DE(clash)    DE(int)     intcor
     10.89     -13.78       1.55        0.00      94.12       3.08       0.05       2.84       ----

> <Gold.Chemscore.Fitness>
10.8912

> <Gold.Chemscore.DG>
-13.7810

> <Gold.Chemscore.ZeroCoef>
-5.4800

> <Gold.Chemscore.Hbond>
1.5460

> <Gold.Chemscore.Metal>
0.0000

> <Gold.Chemscore.Lipo>
94.1157

> <Gold.Chemscore.Internal_Hbond>
0.0000

> <Gold.Chemscore.DEClash>
0.0456

> <Gold.Chemscore.DEInternal>
2.8442

> <Gold.Chemscore.Rot>
3.0758

> <Gold.Chemscore.Internal.Correction>
   9.000000E+99

> <Gold.Chemscore.Hbonds>
donor molecule, donor type, donor heavy atom, donor atom, acceptor molecule, acceptor atom, score
      P1  H  6896  6908       L1    10  0.12
      P1  H  7989  7998       L1    21  0.38
      P1  H 10752 10764       L1    15  0.56

> <Gold.Chemscore.Hbond.Weighted>
-5.1636

> <Gold.Chemscore.Metal.Weighted>
-0.0000

> <Gold.Chemscore.Lipo.Weighted>
-11.0115

> <Gold.Chemscore.Internal_Hbond.Weighted>
0.0000

> <Gold.Chemscore.DEClash.Weighted>
0.0456

> <Gold.Chemscore.DEInternal.Weighted>
2.8442

> <Gold.Chemscore.Rot.Weighted>
7.8741

> <Gold.Chemscore.Internal.Correction.Weighted>
   9.000000E+99

> <Gold.Protein.RotatedTorsions>
[ 6907 6896 6895 6894 ] final  153.91 input  -60.11 | X-H torsion
[ 7974 7965 7964 7962 ] final   58.16 input  175.53 | X-H torsion
[ 8008 7997 7996 7995 ] final   65.21 input   59.86 | X-H torsion
[ 10167 10162 10161 10158 ] final -115.53 input  -65.29 | X-H torsion
[ 10718 10713 10712 10709 ] final   77.70 input   66.30 | X-H torsion
[ 10763 10752 10751 10750 ] final  -54.76 input  -60.55 | X-H torsion
[ 11005 11000 10999 10996 ] final   99.63 input  -57.11 | X-H torsion

> <Gold.Protein.ActiveResidues>
 VAL166  LYS551  ARG553  GLY616  TRP617  ASP618  TYR619  PRO620  LYS621  CYS622 
 ASP623  PHE694  ASN695  SER759  ASP760  ASP761  ALA762  ILE779  LEU786  VAL792 
 PHE793  MET794  SER795  GLU796  ALA797  LYS798  CYS799  TRP800  GLU811  SER814 

> <Gold.Protein.RotatedAtoms>
  152.0659  133.4084  159.4437 H   0  0  0  0  0  0  0  0  0  0  0  0  # atno 6907 bound_to 6896
  150.6865  134.3147  159.4770 H   0  0  0  0  0  0  0  0  0  0  0  0  # atno 6908 bound_to 6896
  152.0973  134.9365  160.0621 H   0  0  0  0  0  0  0  0  0  0  0  0  # atno 6909 bound_to 6896
  145.9212  139.3731  143.0477 H   0  0  0  0  0  0  0  0  0  0  0  0  # atno 7974 bound_to 7965
  155.6582  140.3497  155.4773 H   0  0  0  0  0  0  0  0  0  0  0  0  # atno 8008 bound_to 7997
  155.9790  140.1171  157.0766 H   0  0  0  0  0  0  0  0  0  0  0  0  # atno 8009 bound_to 7997
  154.4186  140.1142  156.5396 H   0  0  0  0  0  0  0  0  0  0  0  0  # atno 8010 bound_to 7997
  140.0891  143.4716  152.1880 H   0  0  0  0  0  0  0  0  0  0  0  0  # atno 10167 bound_to 10162
  157.6719  130.9834  150.1679 H   0  0  0  0  0  0  0  0  0  0  0  0  # atno 10718 bound_to 10713
  154.1799  135.6445  153.5031 H   0  0  0  0  0  0  0  0  0  0  0  0  # atno 10763 bound_to 10752
  153.0062  135.5403  154.6525 H   0  0  0  0  0  0  0  0  0  0  0  0  # atno 10764 bound_to 10752
  154.5886  135.2932  155.0631 H   0  0  0  0  0  0  0  0  0  0  0  0  # atno 10765 bound_to 10752
  139.8770  134.9104  156.4635 H   0  0  0  0  0  0  0  0  0  0  0  0  # atno 11005 bound_to 11000
  145.8548  140.9509  143.0731 LP  0  0  0  0  0  0  0  0  0  0  0  0  # atno 17320 bound_to 7965
  144.6753  140.0453  143.7480 LP  0  0  0  0  0  0  0  0  0  0  0  0  # atno 17321 bound_to 7965
  139.5735  144.7475  151.3827 LP  0  0  0  0  0  0  0  0  0  0  0  0  # atno 17342 bound_to 10162
  140.7038  143.7566  150.7447 LP  0  0  0  0  0  0  0  0  0  0  0  0  # atno 17343 bound_to 10162
  156.2440  130.3694  149.8306 LP  0  0  0  0  0  0  0  0  0  0  0  0  # atno 17370 bound_to 10713
  156.6097  130.8581  151.3451 LP  0  0  0  0  0  0  0  0  0  0  0  0  # atno 17371 bound_to 10713
  140.8847  133.7892  155.9505 LP  0  0  0  0  0  0  0  0  0  0  0  0  # atno 17394 bound_to 11000
  140.8817  134.2603  157.5141 LP  0  0  0  0  0  0  0  0  0  0  0  0  # atno 17395 bound_to 11000

$$$$
