AV-unprocessed.smi:2808|AV-procd|sdf|10824|dock10
  -GOLD-   2272015263D 1   1.00000     0.00000
 Structure written by MMmdl.
 43 44  0  0  0  0  0  0  0  0  1 V2000
  154.3896  141.0344  162.2001 C   0  0  0  0  0  0  0  0  0  0  0  0
  153.4024  141.9041  161.4439 C   0  0  0  0  0  0  0  0  0  0  0  0
  152.7643  143.0223  162.1070 C   0  0  0  0  0  0  0  0  0  0  0  0
  151.8940  143.7810  161.4242 C   0  0  0  0  0  0  0  0  0  0  0  0
  151.5801  143.5241  160.0780 N   0  0  0  0  0  0  0  0  0  0  0  0
  150.6056  144.4193  159.4318 C   0  0  0  0  0  0  0  0  0  0  0  0
  149.2555  144.4634  160.1608 C   0  0  0  0  0  0  0  0  0  0  0  0
  149.2050  144.4081  161.3897 O   0  0  0  0  0  0  0  0  0  0  0  0
  148.1690  144.5783  159.3791 N   0  0  0  0  0  0  0  0  0  0  0  0
  146.7684  144.6362  159.8101 C   0  0  0  0  0  0  0  0  0  0  0  0
  146.4536  143.4933  160.6902 C   0  0  0  0  0  0  0  0  0  0  0  0
  146.2073  142.5981  161.3808 N   0  0  0  0  0  0  0  0  0  0  0  0
  146.5976  145.9226  160.6552 C   0  0  0  0  0  0  0  0  0  0  0  0
  146.3813  147.2270  159.8672 C   0  0  0  0  0  0  0  0  0  0  0  0
  144.8941  147.5013  159.5788 C   0  0  0  0  0  0  0  0  0  0  0  0
  144.2621  146.5943  158.5110 C   0  0  0  0  0  0  0  0  0  0  0  0
  144.4105  145.0847  158.7712 C   0  0  0  0  0  0  0  0  0  0  0  0
  145.8524  144.5946  158.5581 C   0  0  0  0  0  0  0  0  0  0  0  0
  152.1409  142.4845  159.3896 C   0  0  0  0  0  0  0  0  0  0  0  0
  151.8585  142.2628  158.2103 O   0  0  0  0  0  0  0  0  0  0  0  0
  153.0941  141.6588  160.1478 C   0  0  0  0  0  0  0  0  0  0  0  0
  153.6792  140.5731  159.4287 C   0  0  0  0  0  0  0  0  0  0  0  0
  154.1701  139.7061  158.8395 N   0  0  0  0  0  0  0  0  0  0  0  0
  154.5212  141.3851  163.2240 H   0  0  0  0  0  0  0  0  0  0  0  0
  155.3636  141.0489  161.7103 H   0  0  0  0  0  0  0  0  0  0  0  0
  154.0376  140.0030  162.2385 H   0  0  0  0  0  0  0  0  0  0  0  0
  152.9800  143.2448  163.1418 H   0  0  0  0  0  0  0  0  0  0  0  0
  151.3803  144.6229  161.8654 H   0  0  0  0  0  0  0  0  0  0  0  0
  150.9935  145.4373  159.3778 H   0  0  0  0  0  0  0  0  0  0  0  0
  150.4537  144.1160  158.3940 H   0  0  0  0  0  0  0  0  0  0  0  0
  148.3242  144.6218  158.3825 H   0  0  0  0  0  0  0  0  0  0  0  0
  145.7684  145.7966  161.3531 H   0  0  0  0  0  0  0  0  0  0  0  0
  147.4727  146.0401  161.2965 H   0  0  0  0  0  0  0  0  0  0  0  0
  146.7554  148.0521  160.4741 H   0  0  0  0  0  0  0  0  0  0  0  0
  146.9725  147.2407  158.9510 H   0  0  0  0  0  0  0  0  0  0  0  0
  144.3220  147.4268  160.5044 H   0  0  0  0  0  0  0  0  0  0  0  0
  144.7875  148.5364  159.2526 H   0  0  0  0  0  0  0  0  0  0  0  0
  143.2006  146.8347  158.4446 H   0  0  0  0  0  0  0  0  0  0  0  0
  144.6784  146.8387  157.5330 H   0  0  0  0  0  0  0  0  0  0  0  0
  144.0421  144.8137  159.7611 H   0  0  0  0  0  0  0  0  0  0  0  0
  143.7675  144.5631  158.0613 H   0  0  0  0  0  0  0  0  0  0  0  0
  146.3024  145.1549  157.7369 H   0  0  0  0  0  0  0  0  0  0  0  0
  145.8079  143.5651  158.2003 H   0  0  0  0  0  0  0  0  0  0  0  0
  1  2  1  0  0  0  0
  1 24  1  0  0  0  0
  1 25  1  0  0  0  0
  1 26  1  0  0  0  0
  2 21  2  0  0  0  0
  2  3  1  0  0  0  0
  3  4  2  0  0  0  0
  3 27  1  0  0  0  0
  4  5  1  0  0  0  0
  4 28  1  0  0  0  0
  5  6  1  0  0  0  0
  5 19  1  0  0  0  0
  6  7  1  0  0  0  0
  6 29  1  0  0  0  0
  6 30  1  0  0  0  0
  7  8  2  0  0  0  0
  7  9  1  0  0  0  0
  9 10  1  0  0  0  0
  9 31  1  0  0  0  0
 10 18  1  0  0  0  0
 10 11  1  0  0  0  0
 10 13  1  0  0  0  0
 11 12  3  0  0  0  0
 13 14  1  0  0  0  0
 13 32  1  0  0  0  0
 13 33  1  0  0  0  0
 14 15  1  0  0  0  0
 14 34  1  0  0  0  0
 14 35  1  0  0  0  0
 15 16  1  0  0  0  0
 15 36  1  0  0  0  0
 15 37  1  0  0  0  0
 16 17  1  0  0  0  0
 16 38  1  0  0  0  0
 16 39  1  0  0  0  0
 17 18  1  0  0  0  0
 17 40  1  0  0  0  0
 17 41  1  0  0  0  0
 18 42  1  0  0  0  0
 18 43  1  0  0  0  0
 19 20  2  0  0  0  0
 19 21  1  0  0  0  0
 21 22  1  0  0  0  0
 22 23  3  0  0  0  0
M  END
> <s_m_source_file>
AV-unprocessed.smi

> <i_m_source_file_index>
2808

> <i_lp_mmshare_version>
43012

> <i_f3d_flags>
0

> <s_epik_input>
W0NIM11jMVtjSF1bY0hdbihjKD1PKWMxQyNOKVtDSDJdQyg9TylbTkhdQzIoQyNOKVtDSDJdW0NIMl1bQ0gyXVtDSDJdW0NIMl1bQ0gyXTI=

> <s_epik_cmdline>
J2VwaWtfcHl0aG9uJywgJy1waCcsICc3LjAnLCAnLXRuJywgJzgnLCAnLW1hJywgJzIwMCcsICctbWV0YWxfYmluZGluZycsICctaW1hZScsICc8aW5maWxlLm1hZT4nLCAnLW9tYWUnLCAnPG91dGZpbGUubWFlPic=

> <r_lp_tautomer_probability>
1

> <r_epik_Ionization_Penalty>
4.51384e-07

> <r_epik_Ionization_Penalty_Charging>
2.41788e-10

> <r_epik_Ionization_Penalty_Neutral>
4.51142e-07

> <r_epik_State_Penalty>
-0

> <r_epik_Charging_Adjusted_Penalty>
2.41788e-10

> <i_epik_Tot_Q>
0

> <i_epik_Tot_abs_Q>
0

> <r_epik_Metal_State_Penalty>
-0

> <b_epik_Metal_Only>
0

> <s_lp_Force_Field>
OPLS_2005

> <r_lp_Energy>
25.2429

> <b_lp_Chiralities_Consistent>
1

> <s_lp_Variant>
AV-unprocessed.smi:2808-1

> <Gold.Version>
5.8.1

> <Gold.Id.Protein>
6NUR|6NUR_protein|mol2

> <Gold.PLP.Fitness>
52.2611

> <Gold.PLP.PLP>
-45.3969

> <Gold.PLP.part.hbond>
-4.9810

> <Gold.PLP.part.metal>
0.0000

> <Gold.PLP.part.buried>
-0.8877

> <Gold.PLP.part.nonpolar>
-40.1220

> <Gold.PLP.part.repulsive>
0.3895

> <Gold.PLP.ligand.clash>
0.0000

> <Gold.PLP.ligand.torsion>
0.3975

> <Gold.PLP.Chemscore.Hbond>
2.5499

> <Gold.PLP.Chemscore.CHOScore>
0.0000

> <Gold.PLP.Chemscore.Metal>
0.0000

> <Gold.Chemscore.Hbonds>
donor molecule, donor type, donor heavy atom, donor atom, acceptor molecule, acceptor atom, score
      L1  H     9    31       P1  8029  0.56
      P1  H  6933  6944       L1     8  0.28
      P1  H  6934  6946       L1    12  0.80
      P1  H  7997  8010       L1    23  0.98

> <Gold.PLP.Chemscore.Internal.Correction>
0.0095

> <Gold.Rescore>
     Score         DG    S(hbond)    S(metal)    S(lipo)     H(rot)  DE(clash)    DE(int)     intcor
     14.13     -18.28       1.74        0.00      93.20       1.52       1.21       2.94       ----

> <Gold.Chemscore.Fitness>
14.1344

> <Gold.Chemscore.DG>
-18.2827

> <Gold.Chemscore.ZeroCoef>
-5.4800

> <Gold.Chemscore.Hbond>
1.7359

> <Gold.Chemscore.Metal>
0.0000

> <Gold.Chemscore.Lipo>
93.1995

> <Gold.Chemscore.Internal_Hbond>
0.0000

> <Gold.Chemscore.DEClash>
1.2060

> <Gold.Chemscore.DEInternal>
2.9422

> <Gold.Chemscore.Rot>
1.5232

> <Gold.Chemscore.Internal.Correction>
   9.000000E+99

> <Gold.Chemscore.Hbonds>
donor molecule, donor type, donor heavy atom, donor atom, acceptor molecule, acceptor atom, score
      L1  H     9    31       P1  8029  0.46
      P1  H  6933  6944       L1     8  0.04
      P1  H  6934  6946       L1    12  0.71
      P1  H  7997  8010       L1    23  0.91

> <Gold.Chemscore.Hbond.Weighted>
-5.7979

> <Gold.Chemscore.Metal.Weighted>
-0.0000

> <Gold.Chemscore.Lipo.Weighted>
-10.9043

> <Gold.Chemscore.Internal_Hbond.Weighted>
0.0000

> <Gold.Chemscore.DEClash.Weighted>
1.2060

> <Gold.Chemscore.DEInternal.Weighted>
2.9422

> <Gold.Chemscore.Rot.Weighted>
3.8995

> <Gold.Chemscore.Internal.Correction.Weighted>
   9.000000E+99

> <Gold.Protein.RotatedTorsions>
[ 6907 6896 6895 6894 ] final   57.16 input  -60.11 | X-H torsion
[ 7974 7965 7964 7962 ] final  106.45 input  175.53 | X-H torsion
[ 8008 7997 7996 7995 ] final   -5.82 input   59.86 | X-H torsion
[ 10167 10162 10161 10158 ] final  141.27 input  -65.29 | X-H torsion
[ 10718 10713 10712 10709 ] final -125.09 input   66.30 | X-H torsion
[ 10763 10752 10751 10750 ] final  -31.54 input  -60.55 | X-H torsion
[ 11005 11000 10999 10996 ] final -108.23 input  -57.11 | X-H torsion

> <Gold.Protein.ActiveResidues>
 VAL166  LYS551  ARG553  GLY616  TRP617  ASP618  TYR619  PRO620  LYS621  CYS622 
 ASP623  PHE694  ASN695  SER759  ASP760  ASP761  ALA762  ILE779  LEU786  VAL792 
 PHE793  MET794  SER795  GLU796  ALA797  LYS798  CYS799  TRP800  GLU811  SER814 

> <Gold.Protein.RotatedAtoms>
  152.3705  134.6740  160.0177 H   0  0  0  0  0  0  0  0  0  0  0  0  # atno 6907 bound_to 6896
  151.7035  133.3306  159.3280 H   0  0  0  0  0  0  0  0  0  0  0  0  # atno 6908 bound_to 6896
  150.7670  134.6530  159.6343 H   0  0  0  0  0  0  0  0  0  0  0  0  # atno 6909 bound_to 6896
  145.3064  139.2553  143.3786 H   0  0  0  0  0  0  0  0  0  0  0  0  # atno 7974 bound_to 7965
  154.6000  140.2448  155.7805 H   0  0  0  0  0  0  0  0  0  0  0  0  # atno 8008 bound_to 7997
  156.2304  140.2968  156.0127 H   0  0  0  0  0  0  0  0  0  0  0  0  # atno 8009 bound_to 7997
  155.2228  140.0401  157.2941 H   0  0  0  0  0  0  0  0  0  0  0  0  # atno 8010 bound_to 7997
  139.5025  144.6182  151.6114 H   0  0  0  0  0  0  0  0  0  0  0  0  # atno 10167 bound_to 10162
  156.1645  130.6625  151.0095 H   0  0  0  0  0  0  0  0  0  0  0  0  # atno 10718 bound_to 10713
  153.7990  135.6891  153.4859 H   0  0  0  0  0  0  0  0  0  0  0  0  # atno 10763 bound_to 10752
  153.1701  135.4546  154.9888 H   0  0  0  0  0  0  0  0  0  0  0  0  # atno 10764 bound_to 10752
  154.8014  135.3339  154.7480 H   0  0  0  0  0  0  0  0  0  0  0  0  # atno 10765 bound_to 10752
  141.0913  133.9050  157.2069 H   0  0  0  0  0  0  0  0  0  0  0  0  # atno 11005 bound_to 11000
  146.3133  140.3590  142.8663 LP  0  0  0  0  0  0  0  0  0  0  0  0  # atno 17320 bound_to 7965
  144.9051  140.7690  143.5842 LP  0  0  0  0  0  0  0  0  0  0  0  0  # atno 17321 bound_to 7965
  140.5876  143.9836  150.6305 LP  0  0  0  0  0  0  0  0  0  0  0  0  # atno 17342 bound_to 10162
  140.3006  143.3263  152.0975 LP  0  0  0  0  0  0  0  0  0  0  0  0  # atno 17343 bound_to 10162
  157.6757  131.0851  150.7499 LP  0  0  0  0  0  0  0  0  0  0  0  0  # atno 17370 bound_to 10713
  156.7561  130.4784  149.5446 LP  0  0  0  0  0  0  0  0  0  0  0  0  # atno 17371 bound_to 10713
  139.9739  135.0120  156.9582 LP  0  0  0  0  0  0  0  0  0  0  0  0  # atno 17394 bound_to 11000
  140.5246  134.0874  155.7300 LP  0  0  0  0  0  0  0  0  0  0  0  0  # atno 17395 bound_to 11000

$$$$
