AV-unprocessed.smi:2182|AV-procd|sdf|8864|dock3
  -GOLD-   2272012 63D 1   1.00000     0.00000
 Structure written by MMmdl.
 41 43  0  0  0  0  0  0  0  0  1 V2000
  146.5190  142.0818  154.2074 N   0  0  0  0  0  0  0  0  0  0  0  0
  147.5421  141.6567  154.5424 C   0  0  0  0  0  0  0  0  0  0  0  0
  148.7943  141.1385  154.9848 C   0  0  0  0  0  0  0  0  0  0  0  0
  149.5123  141.7441  155.9531 C   0  0  0  0  0  0  0  0  0  0  0  0
  150.7195  141.2516  156.3988 N   0  0  0  0  0  0  0  0  0  0  0  0
  151.5394  141.9933  157.3145 C   0  0  0  0  0  0  0  0  0  0  0  0
  151.0656  142.2413  158.7332 C   0  0  0  0  0  0  0  0  0  0  0  0
  151.0992  143.3771  157.7403 C   0  0  0  0  0  0  0  0  0  0  0  0
  151.2917  140.1152  155.7869 C   0  0  0  0  0  0  0  0  0  0  0  0
  152.4154  139.7168  156.1044 O   0  0  0  0  0  0  0  0  0  0  0  0
  150.5407  139.4527  154.7858 N   0  0  0  0  0  0  0  0  0  0  0  0
  151.1212  138.2516  154.1454 C   0  0  0  0  0  0  0  0  0  0  0  0
  151.0015  136.9807  155.0010 C   0  0  0  0  0  0  0  0  0  0  0  0
  151.5689  136.8912  156.0908 O   0  0  0  0  0  0  0  0  0  0  0  0
  150.2492  135.9978  154.4844 N   0  0  0  0  0  0  0  0  0  0  0  0
  149.9877  134.7160  155.1302 C   0  0  0  0  0  0  0  0  0  0  0  0
  149.7359  133.5937  154.1080 C   0  0  1  0  0  0  0  0  0  0  0  0
  149.8308  132.1777  154.6758 C   0  0  0  0  0  0  0  0  0  0  0  0
  148.9953  131.4007  153.6844 C   0  0  0  0  0  0  0  0  0  0  0  0
  147.8702  132.3865  153.3786 C   0  0  0  0  0  0  0  0  0  0  0  0
  148.4141  133.6883  153.5857 O   0  0  0  0  0  0  0  0  0  0  0  0
  149.2778  139.9199  154.3398 C   0  0  0  0  0  0  0  0  0  0  0  0
  148.6569  139.3266  153.4563 O   0  0  0  0  0  0  0  0  0  0  0  0
  149.1254  142.6478  156.4021 H   0  0  0  0  0  0  0  0  0  0  0  0
  152.6124  141.8550  157.1921 H   0  0  0  0  0  0  0  0  0  0  0  0
  150.0867  141.8636  159.0226 H   0  0  0  0  0  0  0  0  0  0  0  0
  151.8175  142.2365  159.5197 H   0  0  0  0  0  0  0  0  0  0  0  0
  151.8721  144.1325  157.8665 H   0  0  0  0  0  0  0  0  0  0  0  0
  150.1433  143.7466  157.3741 H   0  0  0  0  0  0  0  0  0  0  0  0
  150.6509  138.0654  153.1783 H   0  0  0  0  0  0  0  0  0  0  0  0
  152.1735  138.4047  153.9014 H   0  0  0  0  0  0  0  0  0  0  0  0
  149.8199  136.1504  153.5834 H   0  0  0  0  0  0  0  0  0  0  0  0
  150.8498  134.4674  155.7498 H   0  0  0  0  0  0  0  0  0  0  0  0
  149.1378  134.8062  155.8087 H   0  0  0  0  0  0  0  0  0  0  0  0
  150.4252  133.6875  153.2673 H   0  0  0  0  0  0  0  0  0  0  0  0
  150.8568  131.8153  154.7478 H   0  0  0  0  0  0  0  0  0  0  0  0
  149.3776  132.1275  155.6670 H   0  0  0  0  0  0  0  0  0  0  0  0
  149.5762  131.2015  152.7826 H   0  0  0  0  0  0  0  0  0  0  0  0
  148.6346  130.4494  154.0767 H   0  0  0  0  0  0  0  0  0  0  0  0
  147.4868  132.2732  152.3644 H   0  0  0  0  0  0  0  0  0  0  0  0
  147.0401  132.2457  154.0716 H   0  0  0  0  0  0  0  0  0  0  0  0
  1  2  3  0  0  0  0
  2  3  1  0  0  0  0
  3 22  1  0  0  0  0
  3  4  2  0  0  0  0
  4  5  1  0  0  0  0
  4 24  1  0  0  0  0
  5  6  1  0  0  0  0
  5  9  1  0  0  0  0
  6  8  1  0  0  0  0
  6  7  1  0  0  0  0
  6 25  1  0  0  0  0
  7  8  1  0  0  0  0
  7 26  1  0  0  0  0
  7 27  1  0  0  0  0
  8 28  1  0  0  0  0
  8 29  1  0  0  0  0
  9 10  2  0  0  0  0
  9 11  1  0  0  0  0
 11 12  1  0  0  0  0
 11 22  1  0  0  0  0
 12 13  1  0  0  0  0
 12 30  1  0  0  0  0
 12 31  1  0  0  0  0
 13 14  2  0  0  0  0
 13 15  1  0  0  0  0
 15 16  1  0  0  0  0
 15 32  1  0  0  0  0
 16 17  1  0  0  0  0
 16 33  1  0  0  0  0
 16 34  1  0  0  0  0
 17 21  1  0  0  0  0
 17 18  1  0  0  0  0
 17 35  1  0  0  0  0
 18 19  1  0  0  0  0
 18 36  1  0  0  0  0
 18 37  1  0  0  0  0
 19 20  1  0  0  0  0
 19 38  1  0  0  0  0
 19 39  1  0  0  0  0
 20 21  1  0  0  0  0
 20 40  1  0  0  0  0
 20 41  1  0  0  0  0
 22 23  2  0  0  0  0
M  END
> <s_m_source_file>
AV-unprocessed.smi

> <i_m_source_file_index>
2182

> <i_lp_mmshare_version>
43012

> <i_f3d_flags>
0

> <s_epik_input>
TiNDYzFbY0hdbihbQ0hdMltDSDJdW0NIMl0yKWMoPU8pbihjMT1PKVtDSDJdQyg9TylbTkhdW0NIMl1bQ0BASF0zW0NIMl1bQ0gyXVtDSDJdTzM=

> <s_epik_cmdline>
J2VwaWtfcHl0aG9uJywgJy1waCcsICc3LjAnLCAnLXRuJywgJzgnLCAnLW1hJywgJzIwMCcsICctbWV0YWxfYmluZGluZycsICctaW1hZScsICc8aW5maWxlLm1hZT4nLCAnLW9tYWUnLCAnPG91dGZpbGUubWFlPic=

> <r_lp_tautomer_probability>
1

> <r_epik_Ionization_Penalty>
2.69429e-08

> <r_epik_Ionization_Penalty_Charging>
8.38654e-11

> <r_epik_Ionization_Penalty_Neutral>
2.6859e-08

> <r_epik_State_Penalty>
-0

> <r_epik_Charging_Adjusted_Penalty>
8.38654e-11

> <i_epik_Tot_Q>
0

> <i_epik_Tot_abs_Q>
0

> <r_epik_Metal_State_Penalty>
-0

> <b_epik_Metal_Only>
0

> <s_lp_Force_Field>
OPLS_2005

> <r_lp_Energy>
43.7942

> <b_lp_Chiralities_Consistent>
1

> <s_lp_Variant>
AV-unprocessed.smi:2182-2

> <Gold.Version>
5.8.1

> <Gold.Id.Protein>
6NUR|6NUR_protein|mol2

> <Gold.PLP.Fitness>
49.0271

> <Gold.PLP.PLP>
-41.1774

> <Gold.PLP.part.hbond>
-3.2492

> <Gold.PLP.part.metal>
0.0000

> <Gold.PLP.part.buried>
-5.9281

> <Gold.PLP.part.nonpolar>
-35.7963

> <Gold.PLP.part.repulsive>
4.1748

> <Gold.PLP.ligand.clash>
0.0000

> <Gold.PLP.ligand.torsion>
0.6987

> <Gold.PLP.Chemscore.Hbond>
2.0000

> <Gold.PLP.Chemscore.CHOScore>
1.0000

> <Gold.PLP.Chemscore.Metal>
0.0000

> <Gold.Chemscore.Hbonds>
donor molecule, donor type, donor heavy atom, donor atom, acceptor molecule, acceptor atom, score
      L1  H    15    32       P1  7948  0.90
      P1  H  7997  8008       L1    10  1.00
      L1  C     4    24       P1  8028  1.00

> <Gold.PLP.Chemscore.Internal.Correction>
0.2471

> <Gold.Rescore>
     Score         DG    S(hbond)    S(metal)    S(lipo)     H(rot)  DE(clash)    DE(int)     intcor
     12.10     -14.17       1.75        0.00      69.72       2.08       0.17       1.90       ----

> <Gold.Chemscore.Fitness>
12.1046

> <Gold.Chemscore.DG>
-14.1724

> <Gold.Chemscore.ZeroCoef>
-5.4800

> <Gold.Chemscore.Hbond>
1.7529

> <Gold.Chemscore.Metal>
0.0000

> <Gold.Chemscore.Lipo>
69.7152

> <Gold.Chemscore.Internal_Hbond>
0.0000

> <Gold.Chemscore.DEClash>
0.1710

> <Gold.Chemscore.DEInternal>
1.8968

> <Gold.Chemscore.Rot>
2.0778

> <Gold.Chemscore.Internal.Correction>
   9.000000E+99

> <Gold.Chemscore.Hbonds>
donor molecule, donor type, donor heavy atom, donor atom, acceptor molecule, acceptor atom, score
      L1  H    15    32       P1  7948  0.18
      P1  H  7997  8008       L1    10  0.98

> <Gold.Chemscore.Hbond.Weighted>
-5.8548

> <Gold.Chemscore.Metal.Weighted>
-0.0000

> <Gold.Chemscore.Lipo.Weighted>
-8.1567

> <Gold.Chemscore.Internal_Hbond.Weighted>
0.0000

> <Gold.Chemscore.DEClash.Weighted>
0.1710

> <Gold.Chemscore.DEInternal.Weighted>
1.8968

> <Gold.Chemscore.Rot.Weighted>
5.3191

> <Gold.Chemscore.Internal.Correction.Weighted>
   9.000000E+99

> <Gold.Protein.RotatedTorsions>
[ 6907 6896 6895 6894 ] final  -35.91 input  -60.11 | X-H torsion
[ 7974 7965 7964 7962 ] final   65.12 input  175.53 | X-H torsion
[ 8008 7997 7996 7995 ] final  -45.46 input   59.86 | X-H torsion
[ 10167 10162 10161 10158 ] final -166.62 input  -65.29 | X-H torsion
[ 10718 10713 10712 10709 ] final -153.95 input   66.30 | X-H torsion
[ 10763 10752 10751 10750 ] final   31.11 input  -60.55 | X-H torsion
[ 11005 11000 10999 10996 ] final -177.60 input  -57.11 | X-H torsion

> <Gold.Protein.ActiveResidues>
 VAL166  LYS551  ARG553  GLY616  TRP617  ASP618  TYR619  PRO620  LYS621  CYS622 
 ASP623  PHE694  ASN695  SER759  ASP760  ASP761  ALA762  ILE779  LEU786  VAL792 
 PHE793  MET794  SER795  GLU796  ALA797  LYS798  CYS799  TRP800  GLU811  SER814 

> <Gold.Protein.RotatedAtoms>
  151.0338  134.9558  159.8124 H   0  0  0  0  0  0  0  0  0  0  0  0  # atno 6907 bound_to 6896
  152.5351  134.2746  159.8994 H   0  0  0  0  0  0  0  0  0  0  0  0  # atno 6908 bound_to 6896
  151.2756  133.4192  159.2658 H   0  0  0  0  0  0  0  0  0  0  0  0  # atno 6909 bound_to 6896
  145.8422  139.3202  143.0924 H   0  0  0  0  0  0  0  0  0  0  0  0  # atno 7974 bound_to 7965
  154.4001  140.1396  156.3850 H   0  0  0  0  0  0  0  0  0  0  0  0  # atno 8008 bound_to 7997
  155.7968  140.3477  155.5359 H   0  0  0  0  0  0  0  0  0  0  0  0  # atno 8009 bound_to 7997
  155.8524  140.0943  157.1657 H   0  0  0  0  0  0  0  0  0  0  0  0  # atno 8010 bound_to 7997
  139.6103  144.0829  152.1835 H   0  0  0  0  0  0  0  0  0  0  0  0  # atno 10167 bound_to 10162
  156.4926  130.8354  151.2577 H   0  0  0  0  0  0  0  0  0  0  0  0  # atno 10718 bound_to 10713
  153.0334  135.6447  154.1148 H   0  0  0  0  0  0  0  0  0  0  0  0  # atno 10763 bound_to 10752
  154.0867  135.2869  155.3281 H   0  0  0  0  0  0  0  0  0  0  0  0  # atno 10764 bound_to 10752
  154.6493  135.5432  153.7946 H   0  0  0  0  0  0  0  0  0  0  0  0  # atno 10765 bound_to 10752
  140.4391  134.6448  157.4749 H   0  0  0  0  0  0  0  0  0  0  0  0  # atno 11005 bound_to 11000
  145.9452  140.8950  143.0287 LP  0  0  0  0  0  0  0  0  0  0  0  0  # atno 17320 bound_to 7965
  144.6733  140.1604  143.7423 LP  0  0  0  0  0  0  0  0  0  0  0  0  # atno 17321 bound_to 7965
  140.0446  144.5980  150.7384 LP  0  0  0  0  0  0  0  0  0  0  0  0  # atno 17342 bound_to 10162
  140.7314  143.2694  151.3938 LP  0  0  0  0  0  0  0  0  0  0  0  0  # atno 17343 bound_to 10162
  157.7472  131.0008  150.2940 LP  0  0  0  0  0  0  0  0  0  0  0  0  # atno 17370 bound_to 10713
  156.3411  130.3815  149.7408 LP  0  0  0  0  0  0  0  0  0  0  0  0  # atno 17371 bound_to 10713
  140.0082  134.6731  155.9422 LP  0  0  0  0  0  0  0  0  0  0  0  0  # atno 17394 bound_to 11000
  141.1713  133.6537  156.4663 LP  0  0  0  0  0  0  0  0  0  0  0  0  # atno 17395 bound_to 11000

$$$$
