AV-unprocessed.smi:2178|AV-procd|sdf|8854|dock10
  -GOLD-   2272012 53D 1   1.00000     0.00000
 Structure written by MMmdl.
 47 49  0  0  0  0  0  0  0  0  2 V2000
  153.9628  140.6766  160.4012 C   0  0  0  0  0  0  0  0  0  0  0  0
  153.4069  142.0886  160.4251 C   0  0  0  0  0  0  0  0  0  0  0  0
  153.5886  142.8821  161.5766 C   0  0  0  0  0  0  0  0  0  0  0  0
  153.0641  144.1866  161.6298 C   0  0  0  0  0  0  0  0  0  0  0  0
  152.3501  144.7028  160.5329 C   0  0  0  0  0  0  0  0  0  0  0  0
  152.1648  143.9201  159.3746 C   0  0  0  0  0  0  0  0  0  0  0  0
  151.3865  144.4861  158.2017 C   0  0  0  0  0  0  0  0  0  0  0  0
  152.7062  142.6147  159.3128 C   0  0  0  0  0  0  0  0  0  0  0  0
  152.5231  141.8582  158.1838 O   0  0  0  0  0  0  0  0  0  0  0  0
  151.4553  140.9277  158.2869 C   0  0  0  0  0  0  0  0  0  0  0  0
  150.4673  141.1740  157.1368 C   0  0  2  0  0  0  0  0  0  0  0  0
  149.4617  140.1811  157.1863 O   0  0  0  0  0  0  0  0  0  0  0  0
  151.1615  141.1253  155.7611 C   0  0  0  0  0  0  0  0  0  0  0  0
  150.4239  140.3140  154.7787 N   0  0  0  0  0  0  0  0  0  0  0  0
  150.7296  139.0949  154.2480 C   0  0  0  0  0  0  0  0  0  0  0  0
  151.9296  138.2605  154.5532 C   0  0  0  0  0  0  0  0  0  0  0  0
  152.1398  137.2513  153.5906 O   0  0  0  0  0  0  0  0  0  0  0  0
  149.7267  138.7662  153.3861 N   0  3  0  0  0  0  0  0  0  0  0  0
  148.7728  139.7839  153.3608 C   0  0  0  0  0  0  0  0  0  0  0  0
  147.5880  139.9023  152.6409 C   0  0  0  0  0  0  0  0  0  0  0  0
  146.8386  141.0795  152.8447 C   0  0  0  0  0  0  0  0  0  0  0  0
  147.2741  142.0814  153.7361 C   0  0  0  0  0  0  0  0  0  0  0  0
  148.4763  141.9492  154.4618 C   0  0  0  0  0  0  0  0  0  0  0  0
  149.2127  140.7826  154.2542 C   0  0  0  0  0  0  0  0  0  0  0  0
  154.0330  140.2698  161.4103 H   0  0  0  0  0  0  0  0  0  0  0  0
  154.9603  140.6708  159.9621 H   0  0  0  0  0  0  0  0  0  0  0  0
  153.3244  140.0112  159.8191 H   0  0  0  0  0  0  0  0  0  0  0  0
  154.1283  142.4904  162.4265 H   0  0  0  0  0  0  0  0  0  0  0  0
  153.2040  144.7892  162.5150 H   0  0  0  0  0  0  0  0  0  0  0  0
  151.9439  145.7024  160.5855 H   0  0  0  0  0  0  0  0  0  0  0  0
  150.6545  143.7626  157.8417 H   0  0  0  0  0  0  0  0  0  0  0  0
  152.0618  144.7297  157.3816 H   0  0  0  0  0  0  0  0  0  0  0  0
  150.8508  145.3935  158.4823 H   0  0  0  0  0  0  0  0  0  0  0  0
  151.8709  139.9224  158.2027 H   0  0  0  0  0  0  0  0  0  0  0  0
  150.9558  140.9827  159.2554 H   0  0  0  0  0  0  0  0  0  0  0  0
  150.0010  142.1518  157.2634 H   0  0  0  0  0  0  0  0  0  0  0  0
  149.8679  139.3366  157.0659 H   0  0  0  0  0  0  0  0  0  0  0  0
  151.2366  142.1321  155.3483 H   0  0  0  0  0  0  0  0  0  0  0  0
  152.1849  140.7585  155.8432 H   0  0  0  0  0  0  0  0  0  0  0  0
  152.8134  138.8973  154.5990 H   0  0  0  0  0  0  0  0  0  0  0  0
  151.8150  137.8006  155.5347 H   0  0  0  0  0  0  0  0  0  0  0  0
  151.3887  137.2207  153.0176 H   0  0  0  0  0  0  0  0  0  0  0  0
  147.2530  139.1359  151.9573 H   0  0  0  0  0  0  0  0  0  0  0  0
  145.9120  141.2169  152.3064 H   0  0  0  0  0  0  0  0  0  0  0  0
  146.6741  142.9705  153.8657 H   0  0  0  0  0  0  0  0  0  0  0  0
  148.7999  142.7258  155.1382 H   0  0  0  0  0  0  0  0  0  0  0  0
  149.6992  137.9049  152.8559 H   0  0  0  0  0  0  0  0  0  0  0  0
  1  2  1  0  0  0  0
  1 25  1  0  0  0  0
  1 26  1  0  0  0  0
  1 27  1  0  0  0  0
  2  8  1  0  0  0  0
  2  3  2  0  0  0  0
  3  4  1  0  0  0  0
  3 28  1  0  0  0  0
  4  5  2  0  0  0  0
  4 29  1  0  0  0  0
  5  6  1  0  0  0  0
  5 30  1  0  0  0  0
  6  7  1  0  0  0  0
  6  8  2  0  0  0  0
  7 31  1  0  0  0  0
  7 32  1  0  0  0  0
  7 33  1  0  0  0  0
  8  9  1  0  0  0  0
  9 10  1  0  0  0  0
 10 11  1  0  0  0  0
 10 34  1  0  0  0  0
 10 35  1  0  0  0  0
 11 12  1  0  0  0  0
 11 13  1  0  0  0  0
 11 36  1  0  0  0  0
 12 37  1  0  0  0  0
 13 14  1  0  0  0  0
 13 38  1  0  0  0  0
 13 39  1  0  0  0  0
 14 24  1  0  0  0  0
 14 15  1  0  0  0  0
 15 16  1  0  0  0  0
 15 18  2  0  0  0  0
 16 17  1  0  0  0  0
 16 40  1  0  0  0  0
 16 41  1  0  0  0  0
 17 42  1  0  0  0  0
 18 19  1  0  0  0  0
 18 47  1  0  0  0  0
 19 24  2  0  0  0  0
 19 20  1  0  0  0  0
 20 21  2  0  0  0  0
 20 43  1  0  0  0  0
 21 22  1  0  0  0  0
 21 44  1  0  0  0  0
 22 23  2  0  0  0  0
 22 45  1  0  0  0  0
 23 24  1  0  0  0  0
 23 46  1  0  0  0  0
M  CHG  1  18   1
M  END
> <s_m_source_file>
AV-unprocessed.smi

> <i_m_source_file_index>
2178

> <i_lp_mmshare_version>
43012

> <i_f3d_flags>
0

> <s_epik_input>
W0NIM11jMVtjSF1bY0hdW2NIXWMoW0NIM10pYzFPW0NIMl1bQ0BIXShbT0hdKVtDSDJdbihjKG4yKVtDSDJdW09IXSljKGMyMylbY0hdW2NIXVtjSF1bY0hdMw==

> <s_epik_cmdline>
J2VwaWtfcHl0aG9uJywgJy1waCcsICc3LjAnLCAnLXRuJywgJzgnLCAnLW1hJywgJzIwMCcsICctbWV0YWxfYmluZGluZycsICctaW1hZScsICc8aW5maWxlLm1hZT4nLCAnLW9tYWUnLCAnPG91dGZpbGUubWFlPic=

> <r_lp_tautomer_probability>
1

> <r_epik_Ionization_Penalty>
1.43125

> <r_epik_Ionization_Penalty_Charging>
1.43039

> <r_epik_Ionization_Penalty_Neutral>
0.000858184

> <r_epik_State_Penalty>
1.51493

> <r_epik_Charging_Adjusted_Penalty>
2.94531

> <i_epik_Tot_Q>
1

> <i_epik_Tot_abs_Q>
1

> <r_epik_Metal_State_Penalty>
5.5599

> <b_epik_Metal_Only>
0

> <s_lp_Force_Field>
OPLS_2005

> <r_lp_Energy>
23.8242

> <b_lp_Chiralities_Consistent>
1

> <s_lp_Variant>
AV-unprocessed.smi:2178-3

> <Gold.Version>
5.8.1

> <Gold.Id.Protein>
6NUR|6NUR_protein|mol2

> <Gold.PLP.Fitness>
65.7234

> <Gold.PLP.PLP>
-58.1215

> <Gold.PLP.part.hbond>
-4.0000

> <Gold.PLP.part.metal>
0.0000

> <Gold.PLP.part.buried>
2.5476

> <Gold.PLP.part.nonpolar>
-56.0937

> <Gold.PLP.part.repulsive>
0.0861

> <Gold.PLP.ligand.clash>
0.0000

> <Gold.PLP.ligand.torsion>
1.6724

> <Gold.PLP.Chemscore.Hbond>
3.6160

> <Gold.PLP.Chemscore.CHOScore>
0.0000

> <Gold.PLP.Chemscore.Metal>
0.0000

> <Gold.Chemscore.Hbonds>
donor molecule, donor type, donor heavy atom, donor atom, acceptor molecule, acceptor atom, score
      L1  H    17    42       P1  7949  0.51
      L1  H    18    47       P1  7948  1.95
      P1  H 10752 10763       L1    17  1.00

> <Gold.PLP.Chemscore.Internal.Correction>
0.0986

> <Gold.Rescore>
     Score         DG    S(hbond)    S(metal)    S(lipo)     H(rot)  DE(clash)    DE(int)     intcor
     18.01     -23.20       2.26        0.00     153.49       3.05       3.25       1.93       ----

> <Gold.Chemscore.Fitness>
18.0121

> <Gold.Chemscore.DG>
-23.1961

> <Gold.Chemscore.ZeroCoef>
-5.4800

> <Gold.Chemscore.Hbond>
2.2632

> <Gold.Chemscore.Metal>
0.0000

> <Gold.Chemscore.Lipo>
153.4935

> <Gold.Chemscore.Internal_Hbond>
0.0000

> <Gold.Chemscore.DEClash>
3.2493

> <Gold.Chemscore.DEInternal>
1.9347

> <Gold.Chemscore.Rot>
3.0476

> <Gold.Chemscore.Internal.Correction>
   9.000000E+99

> <Gold.Chemscore.Hbonds>
donor molecule, donor type, donor heavy atom, donor atom, acceptor molecule, acceptor atom, score
      L1  H    17    42       P1  7949  0.40
      L1  H    18    47       P1  7948  0.56
      P1  H 10752 10763       L1    17  0.94

> <Gold.Chemscore.Hbond.Weighted>
-7.5592

> <Gold.Chemscore.Metal.Weighted>
-0.0000

> <Gold.Chemscore.Lipo.Weighted>
-17.9587

> <Gold.Chemscore.Internal_Hbond.Weighted>
0.0000

> <Gold.Chemscore.DEClash.Weighted>
3.2493

> <Gold.Chemscore.DEInternal.Weighted>
1.9347

> <Gold.Chemscore.Rot.Weighted>
7.8018

> <Gold.Chemscore.Internal.Correction.Weighted>
   9.000000E+99

> <Gold.Protein.RotatedTorsions>
[ 6907 6896 6895 6894 ] final   43.80 input  -60.11 | X-H torsion
[ 7974 7965 7964 7962 ] final  144.45 input  175.53 | X-H torsion
[ 8008 7997 7996 7995 ] final  -79.48 input   59.86 | X-H torsion
[ 10167 10162 10161 10158 ] final -113.36 input  -65.29 | X-H torsion
[ 10718 10713 10712 10709 ] final  141.45 input   66.30 | X-H torsion
[ 10763 10752 10751 10750 ] final   15.47 input  -60.55 | X-H torsion
[ 11005 11000 10999 10996 ] final   63.33 input  -57.11 | X-H torsion

> <Gold.Protein.ActiveResidues>
 VAL166  LYS551  ARG553  GLY616  TRP617  ASP618  TYR619  PRO620  LYS621  CYS622 
 ASP623  PHE694  ASN695  SER759  ASP760  ASP761  ALA762  ILE779  LEU786  VAL792 
 PHE793  MET794  SER795  GLU796  ALA797  LYS798  CYS799  TRP800  GLU811  SER814 

> <Gold.Protein.RotatedAtoms>
  152.2248  134.8379  160.0481 H   0  0  0  0  0  0  0  0  0  0  0  0  # atno 6907 bound_to 6896
  151.9149  133.3565  159.3885 H   0  0  0  0  0  0  0  0  0  0  0  0  # atno 6908 bound_to 6896
  150.7009  134.4619  159.5429 H   0  0  0  0  0  0  0  0  0  0  0  0  # atno 6909 bound_to 6896
  144.8834  139.5664  143.5832 H   0  0  0  0  0  0  0  0  0  0  0  0  # atno 7974 bound_to 7965
  154.5789  140.0678  156.9075 H   0  0  0  0  0  0  0  0  0  0  0  0  # atno 8008 bound_to 7997
  155.2498  140.3351  155.4265 H   0  0  0  0  0  0  0  0  0  0  0  0  # atno 8009 bound_to 7997
  156.2175  140.1784  156.7540 H   0  0  0  0  0  0  0  0  0  0  0  0  # atno 8010 bound_to 7997
  140.1127  143.4513  152.1742 H   0  0  0  0  0  0  0  0  0  0  0  0  # atno 10167 bound_to 10162
  157.3919  131.1006  151.0638 H   0  0  0  0  0  0  0  0  0  0  0  0  # atno 10718 bound_to 10713
  153.1522  135.6780  153.8865 H   0  0  0  0  0  0  0  0  0  0  0  0  # atno 10763 bound_to 10752
  153.8287  135.3120  155.3418 H   0  0  0  0  0  0  0  0  0  0  0  0  # atno 10764 bound_to 10752
  154.7871  135.4856  154.0056 H   0  0  0  0  0  0  0  0  0  0  0  0  # atno 10765 bound_to 10752
  140.0032  134.6410  155.9897 H   0  0  0  0  0  0  0  0  0  0  0  0  # atno 11005 bound_to 11000
  146.3009  139.7424  142.9092 LP  0  0  0  0  0  0  0  0  0  0  0  0  # atno 17320 bound_to 7965
  145.3912  141.0372  143.3123 LP  0  0  0  0  0  0  0  0  0  0  0  0  # atno 17321 bound_to 7965
  139.5611  144.7406  151.4154 LP  0  0  0  0  0  0  0  0  0  0  0  0  # atno 17342 bound_to 10162
  140.6917  143.7846  150.7265 LP  0  0  0  0  0  0  0  0  0  0  0  0  # atno 17343 bound_to 10162
  157.1669  130.6250  149.5628 LP  0  0  0  0  0  0  0  0  0  0  0  0  # atno 17370 bound_to 10713
  155.9800  130.4798  150.6750 LP  0  0  0  0  0  0  0  0  0  0  0  0  # atno 17371 bound_to 10713
  141.1657  133.6537  156.4473 LP  0  0  0  0  0  0  0  0  0  0  0  0  # atno 17394 bound_to 11000
  140.4689  134.6771  157.5120 LP  0  0  0  0  0  0  0  0  0  0  0  0  # atno 17395 bound_to 11000

$$$$
