AV-unprocessed.smi:2324|AV-procd|sdf|9292|dock2
  -GOLD-   2272012513D 1   1.00000     0.00000
 Structure written by MMmdl.
 37 39  0  0  0  0  0  0  0  0  1 V2000
  150.9424  141.0647  156.6954 O   0  0  0  0  0  0  0  0  0  0  0  0
  150.2205  142.0247  156.4308 C   0  0  0  0  0  0  0  0  0  0  0  0
  149.1758  141.8951  155.5852 N   0  0  0  0  0  0  0  0  0  0  0  0
  148.6762  140.7713  154.8644 C   0  0  0  0  0  0  0  0  0  0  0  0
  147.6081  141.0603  153.9881 C   0  0  0  0  0  0  0  0  0  0  0  0
  147.0548  140.0098  153.2363 C   0  0  0  0  0  0  0  0  0  0  0  0
  147.6114  138.7316  153.4102 C   0  0  0  0  0  0  0  0  0  0  0  0
  148.6356  138.4976  154.2588 N   0  0  0  0  0  0  0  0  0  0  0  0
  149.1554  139.5031  154.9708 N   0  0  0  0  0  0  0  0  0  0  0  0
  150.4208  143.2474  156.9499 N   0  0  0  0  0  0  0  0  0  0  0  0
  151.4909  143.6146  157.8717 C   0  0  1  0  0  0  0  0  0  0  0  0
  151.2599  145.0225  158.4462 C   0  0  0  0  0  0  0  0  0  0  0  0
  152.2926  145.3379  159.5393 C   0  0  0  0  0  0  0  0  0  0  0  0
  152.2454  144.3423  160.5560 O   0  0  0  0  0  0  0  0  0  0  0  0
  152.5822  143.0417  160.0829 C   0  0  1  0  0  0  0  0  0  0  0  0
  152.6082  142.1015  161.2716 C   0  0  0  0  0  0  0  0  0  0  0  0
  153.1312  142.5642  162.6114 C   0  0  0  0  0  0  0  0  0  0  0  0
  153.9163  141.5612  161.8009 C   0  0  0  0  0  0  0  0  0  0  0  0
  151.5558  142.6002  159.0230 C   0  0  0  0  0  0  0  0  0  0  0  0
  148.6537  142.7466  155.4388 H   0  0  0  0  0  0  0  0  0  0  0  0
  147.2179  142.0633  153.8926 H   0  0  0  0  0  0  0  0  0  0  0  0
  146.2359  140.1774  152.5525 H   0  0  0  0  0  0  0  0  0  0  0  0
  147.2316  137.8833  152.8606 H   0  0  0  0  0  0  0  0  0  0  0  0
  149.7809  143.9817  156.6812 H   0  0  0  0  0  0  0  0  0  0  0  0
  152.4461  143.5955  157.3433 H   0  0  0  0  0  0  0  0  0  0  0  0
  151.3153  145.7719  157.6558 H   0  0  0  0  0  0  0  0  0  0  0  0
  150.2575  145.0898  158.8712 H   0  0  0  0  0  0  0  0  0  0  0  0
  153.2978  145.3972  159.1193 H   0  0  0  0  0  0  0  0  0  0  0  0
  152.0783  146.3080  159.9877 H   0  0  0  0  0  0  0  0  0  0  0  0
  153.5799  143.0688  159.6405 H   0  0  0  0  0  0  0  0  0  0  0  0
  151.7646  141.4144  161.3045 H   0  0  0  0  0  0  0  0  0  0  0  0
  153.5276  143.5754  162.6796 H   0  0  0  0  0  0  0  0  0  0  0  0
  152.6200  142.2031  163.5016 H   0  0  0  0  0  0  0  0  0  0  0  0
  153.9287  140.5306  162.1497 H   0  0  0  0  0  0  0  0  0  0  0  0
  154.8352  141.9055  161.3304 H   0  0  0  0  0  0  0  0  0  0  0  0
  150.5728  142.5050  159.4873 H   0  0  0  0  0  0  0  0  0  0  0  0
  151.8154  141.6131  158.6381 H   0  0  0  0  0  0  0  0  0  0  0  0
  1  2  2  0  0  0  0
  2  3  1  0  0  0  0
  2 10  1  0  0  0  0
  3  4  1  0  0  0  0
  3 20  1  0  0  0  0
  4  9  1  0  0  0  0
  4  5  2  0  0  0  0
  5  6  1  0  0  0  0
  5 21  1  0  0  0  0
  6  7  2  0  0  0  0
  6 22  1  0  0  0  0
  7  8  1  0  0  0  0
  7 23  1  0  0  0  0
  8  9  2  0  0  0  0
 10 11  1  0  0  0  0
 10 24  1  0  0  0  0
 11 19  1  0  0  0  0
 11 12  1  0  0  0  0
 11 25  1  0  0  0  0
 12 13  1  0  0  0  0
 12 26  1  0  0  0  0
 12 27  1  0  0  0  0
 13 14  1  0  0  0  0
 13 28  1  0  0  0  0
 13 29  1  0  0  0  0
 14 15  1  0  0  0  0
 15 16  1  0  0  0  0
 15 19  1  0  0  0  0
 15 30  1  0  0  0  0
 16 18  1  0  0  0  0
 16 17  1  0  0  0  0
 16 31  1  0  0  0  0
 17 18  1  0  0  0  0
 17 32  1  0  0  0  0
 17 33  1  0  0  0  0
 18 34  1  0  0  0  0
 18 35  1  0  0  0  0
 19 36  1  0  0  0  0
 19 37  1  0  0  0  0
M  END
> <s_m_source_file>
AV-unprocessed.smi

> <i_m_source_file_index>
2324

> <i_lp_mmshare_version>
43012

> <i_f3d_flags>
0

> <s_epik_input>
bjFuW2NIXVtjSF1bY0hdYzFbTkhdQyg9TylbTkhdW0NAQEhdMltDSDJdW0NIMl1PW0NASF0oW0NIMl0yKVtDSF0zW0NIMl1bQ0gyXTM=

> <s_epik_cmdline>
J2VwaWtfcHl0aG9uJywgJy1waCcsICc3LjAnLCAnLXRuJywgJzgnLCAnLW1hJywgJzIwMCcsICctbWV0YWxfYmluZGluZycsICctaW1hZScsICc8aW5maWxlLm1hZT4nLCAnLW9tYWUnLCAnPG91dGZpbGUubWFlPic=

> <r_lp_tautomer_probability>
1

> <r_epik_Ionization_Penalty>
0.00521499

> <r_epik_Ionization_Penalty_Charging>
0

> <r_epik_Ionization_Penalty_Neutral>
0.00521499

> <r_epik_State_Penalty>
-0

> <r_epik_Charging_Adjusted_Penalty>
0

> <i_epik_Tot_Q>
0

> <i_epik_Tot_abs_Q>
0

> <r_epik_Metal_State_Penalty>
-0

> <b_epik_Metal_Only>
0

> <s_lp_Force_Field>
OPLS_2005

> <r_lp_Energy>
26.0147

> <b_lp_Chiralities_Consistent>
1

> <s_lp_Variant>
AV-unprocessed.smi:2324-2

> <Gold.Version>
5.8.1

> <Gold.Id.Protein>
6NUR|6NUR_protein|mol2

> <Gold.PLP.Fitness>
46.9662

> <Gold.PLP.PLP>
-40.2170

> <Gold.PLP.part.hbond>
-1.7693

> <Gold.PLP.part.metal>
0.0000

> <Gold.PLP.part.buried>
-3.4800

> <Gold.PLP.part.nonpolar>
-35.8009

> <Gold.PLP.part.repulsive>
0.5761

> <Gold.PLP.ligand.clash>
0.0000

> <Gold.PLP.ligand.torsion>
1.0266

> <Gold.PLP.Chemscore.Hbond>
1.7750

> <Gold.PLP.Chemscore.CHOScore>
0.8021

> <Gold.PLP.Chemscore.Metal>
0.0000

> <Gold.Chemscore.Hbonds>
donor molecule, donor type, donor heavy atom, donor atom, acceptor molecule, acceptor atom, score
      L1  H     3    20       P1  8028  0.80
      L1  H    10    24       P1  8028  1.00
      L1  C     7    23       P1  7948  0.67

> <Gold.PLP.Chemscore.Internal.Correction>
1.0712

> <Gold.Rescore>
     Score         DG    S(hbond)    S(metal)    S(lipo)     H(rot)  DE(clash)    DE(int)     intcor
     17.82     -21.61       1.84        0.00     112.81       1.25       0.26       3.54       ----

> <Gold.Chemscore.Fitness>
17.8157

> <Gold.Chemscore.DG>
-21.6141

> <Gold.Chemscore.ZeroCoef>
-5.4800

> <Gold.Chemscore.Hbond>
1.8350

> <Gold.Chemscore.Metal>
0.0000

> <Gold.Chemscore.Lipo>
112.8110

> <Gold.Chemscore.Internal_Hbond>
0.0000

> <Gold.Chemscore.DEClash>
0.2564

> <Gold.Chemscore.DEInternal>
3.5420

> <Gold.Chemscore.Rot>
1.2476

> <Gold.Chemscore.Internal.Correction>
   9.000000E+99

> <Gold.Chemscore.Hbonds>
donor molecule, donor type, donor heavy atom, donor atom, acceptor molecule, acceptor atom, score
      L1  H     3    20       P1  8028  0.77
      L1  H    10    24       P1  8028  0.90

> <Gold.Chemscore.Hbond.Weighted>
-6.1290

> <Gold.Chemscore.Metal.Weighted>
-0.0000

> <Gold.Chemscore.Lipo.Weighted>
-13.1989

> <Gold.Chemscore.Internal_Hbond.Weighted>
0.0000

> <Gold.Chemscore.DEClash.Weighted>
0.2564

> <Gold.Chemscore.DEInternal.Weighted>
3.5420

> <Gold.Chemscore.Rot.Weighted>
3.1938

> <Gold.Chemscore.Internal.Correction.Weighted>
   9.000000E+99

> <Gold.Protein.RotatedTorsions>
[ 6907 6896 6895 6894 ] final   34.93 input  -60.11 | X-H torsion
[ 7974 7965 7964 7962 ] final  -64.04 input  175.53 | X-H torsion
[ 8008 7997 7996 7995 ] final -127.32 input   59.86 | X-H torsion
[ 10167 10162 10161 10158 ] final -149.86 input  -65.29 | X-H torsion
[ 10718 10713 10712 10709 ] final  143.88 input   66.30 | X-H torsion
[ 10763 10752 10751 10750 ] final  -61.17 input  -60.55 | X-H torsion
[ 11005 11000 10999 10996 ] final  -59.63 input  -57.11 | X-H torsion

> <Gold.Protein.ActiveResidues>
 VAL166  LYS551  ARG553  GLY616  TRP617  ASP618  TYR619  PRO620  LYS621  CYS622 
 ASP623  PHE694  ASN695  SER759  ASP760  ASP761  ALA762  ILE779  LEU786  VAL792 
 PHE793  MET794  SER795  GLU796  ALA797  LYS798  CYS799  TRP800  GLU811  SER814 

> <Gold.Protein.RotatedAtoms>
  152.1091  134.9287  160.0566 H   0  0  0  0  0  0  0  0  0  0  0  0  # atno 6907 bound_to 6896
  152.0471  133.3998  159.4369 H   0  0  0  0  0  0  0  0  0  0  0  0  # atno 6908 bound_to 6896
  150.6842  134.3270  159.4854 H   0  0  0  0  0  0  0  0  0  0  0  0  # atno 6909 bound_to 6896
  145.7716  140.8809  143.0377 H   0  0  0  0  0  0  0  0  0  0  0  0  # atno 7974 bound_to 7965
  155.2442  140.0430  157.2979 H   0  0  0  0  0  0  0  0  0  0  0  0  # atno 8008 bound_to 7997
  154.5809  140.2400  155.8025 H   0  0  0  0  0  0  0  0  0  0  0  0  # atno 8009 bound_to 7997
  156.2192  140.2975  155.9920 H   0  0  0  0  0  0  0  0  0  0  0  0  # atno 8010 bound_to 7997
  139.7405  143.8669  152.2561 H   0  0  0  0  0  0  0  0  0  0  0  0  # atno 10167 bound_to 10162
  157.3637  131.0969  151.0891 H   0  0  0  0  0  0  0  0  0  0  0  0  # atno 10718 bound_to 10713
  154.2804  135.6273  153.5345 H   0  0  0  0  0  0  0  0  0  0  0  0  # atno 10763 bound_to 10752
  152.9866  135.5631  154.5501 H   0  0  0  0  0  0  0  0  0  0  0  0  # atno 10764 bound_to 10752
  154.5091  135.2876  155.1333 H   0  0  0  0  0  0  0  0  0  0  0  0  # atno 10765 bound_to 10752
  141.1256  133.6617  156.5100 H   0  0  0  0  0  0  0  0  0  0  0  0  # atno 11005 bound_to 11000
  144.6811  139.9864  143.7484 LP  0  0  0  0  0  0  0  0  0  0  0  0  # atno 17320 bound_to 7965
  146.0164  139.3213  143.0839 LP  0  0  0  0  0  0  0  0  0  0  0  0  # atno 17321 bound_to 7965
  139.8618  144.7113  150.9090 LP  0  0  0  0  0  0  0  0  0  0  0  0  # atno 17342 bound_to 10162
  140.7785  143.3811  151.1475 LP  0  0  0  0  0  0  0  0  0  0  0  0  # atno 17343 bound_to 10162
  157.2021  130.6399  149.5742 LP  0  0  0  0  0  0  0  0  0  0  0  0  # atno 17370 bound_to 10713
  155.9742  130.4687  150.6370 LP  0  0  0  0  0  0  0  0  0  0  0  0  # atno 17371 bound_to 10713
  140.4376  134.7045  157.4975 LP  0  0  0  0  0  0  0  0  0  0  0  0  # atno 17394 bound_to 11000
  140.0251  134.6489  155.9184 LP  0  0  0  0  0  0  0  0  0  0  0  0  # atno 17395 bound_to 11000

$$$$
