AV-unprocessed.smi:2137|AV-procd|sdf|8707|dock5
  -GOLD-   2272011473D 1   1.00000     0.00000
 Structure written by MMmdl.
 50 51  0  0  0  0  0  0  0  0  2 V2000
  146.5203  131.6060  152.0431 C   0  0  0  0  0  0  0  0  0  0  0  0
  145.8686  132.4157  150.9084 C   0  0  1  0  0  0  0  0  0  0  0  0
  144.4362  131.9502  150.5882 C   0  0  0  0  0  0  0  0  0  0  0  0
  143.4479  132.4022  151.6725 C   0  0  0  0  0  0  0  0  0  0  0  0
  143.5464  133.9170  151.9127 C   0  0  0  0  0  0  0  0  0  0  0  0
  144.9353  134.3145  152.2587 N   0  3  2  0  0  0  0  0  0  0  0  0
  145.0325  135.7436  152.6498 C   0  0  0  0  0  0  0  0  0  0  0  0
  143.8394  136.1963  153.5081 C   0  0  0  0  0  0  0  0  0  0  0  0
  144.2810  136.9624  154.7664 C   0  0  0  0  0  0  0  0  0  0  0  0
  145.1717  138.0679  154.4339 N   0  0  0  0  0  0  0  0  0  0  0  0
  146.4253  138.2093  154.8903 C   0  0  0  0  0  0  0  0  0  0  0  0
  146.9703  137.3880  155.6292 O   0  0  0  0  0  0  0  0  0  0  0  0
  147.1756  139.4656  154.4275 C   0  0  0  0  0  0  0  0  0  0  0  0
  148.5666  139.5073  154.8973 N   0  0  0  0  0  0  0  0  0  0  0  0
  149.4543  138.5238  154.4998 C   0  0  0  0  0  0  0  0  0  0  0  0
  150.7447  138.4801  154.8971 C   0  0  0  0  0  0  0  0  0  0  0  0
  151.2873  139.4978  155.7886 C   0  0  0  0  0  0  0  0  0  0  0  0
  152.4496  139.4867  156.1962 O   0  0  0  0  0  0  0  0  0  0  0  0
  150.3646  140.5018  156.1660 N   0  0  0  0  0  0  0  0  0  0  0  0
  150.8316  141.5342  157.0682 C   0  0  0  0  0  0  0  0  0  0  0  0
  149.0100  140.5319  155.7621 C   0  0  0  0  0  0  0  0  0  0  0  0
  148.2287  141.4054  156.1471 O   0  0  0  0  0  0  0  0  0  0  0  0
  145.8951  133.9329  151.1866 C   0  0  0  0  0  0  0  0  0  0  0  0
  146.0010  131.7413  152.9917 H   0  0  0  0  0  0  0  0  0  0  0  0
  147.5576  131.9079  152.1911 H   0  0  0  0  0  0  0  0  0  0  0  0
  146.5203  130.5401  151.8136 H   0  0  0  0  0  0  0  0  0  0  0  0
  146.4732  132.2364  150.0184 H   0  0  0  0  0  0  0  0  0  0  0  0
  144.1285  132.3707  149.6299 H   0  0  0  0  0  0  0  0  0  0  0  0
  144.4013  130.8664  150.4703 H   0  0  0  0  0  0  0  0  0  0  0  0
  142.4313  132.1386  151.3792 H   0  0  0  0  0  0  0  0  0  0  0  0
  143.6445  131.8681  152.6026 H   0  0  0  0  0  0  0  0  0  0  0  0
  143.2206  134.4629  151.0256 H   0  0  0  0  0  0  0  0  0  0  0  0
  142.8684  134.1920  152.7219 H   0  0  0  0  0  0  0  0  0  0  0  0
  145.9760  135.9246  153.1669 H   0  0  0  0  0  0  0  0  0  0  0  0
  145.0512  136.3625  151.7515 H   0  0  0  0  0  0  0  0  0  0  0  0
  143.1826  136.8301  152.9108 H   0  0  0  0  0  0  0  0  0  0  0  0
  143.2448  135.3340  153.8076 H   0  0  0  0  0  0  0  0  0  0  0  0
  143.4130  137.3349  155.3131 H   0  0  0  0  0  0  0  0  0  0  0  0
  144.8114  136.2930  155.4441 H   0  0  0  0  0  0  0  0  0  0  0  0
  144.8051  138.7848  153.8241 H   0  0  0  0  0  0  0  0  0  0  0  0
  147.1467  139.4955  153.3377 H   0  0  0  0  0  0  0  0  0  0  0  0
  146.6462  140.3601  154.7615 H   0  0  0  0  0  0  0  0  0  0  0  0
  149.0991  137.7437  153.8421 H   0  0  0  0  0  0  0  0  0  0  0  0
  151.3833  137.6792  154.5538 H   0  0  0  0  0  0  0  0  0  0  0  0
  150.2466  142.4441  156.9284 H   0  0  0  0  0  0  0  0  0  0  0  0
  151.8726  141.7666  156.8387 H   0  0  0  0  0  0  0  0  0  0  0  0
  150.7231  141.1424  158.0804 H   0  0  0  0  0  0  0  0  0  0  0  0
  146.9089  134.2306  151.4516 H   0  0  0  0  0  0  0  0  0  0  0  0
  145.6435  134.4781  150.2755 H   0  0  0  0  0  0  0  0  0  0  0  0
  145.1830  133.7786  153.0783 H   0  0  0  0  0  0  0  0  0  0  0  0
  1  2  1  0  0  0  0
  1 24  1  0  0  0  0
  1 25  1  0  0  0  0
  1 26  1  0  0  0  0
  2 23  1  0  0  0  0
  2  3  1  0  0  0  0
  2 27  1  0  0  0  0
  3  4  1  0  0  0  0
  3 28  1  0  0  0  0
  3 29  1  0  0  0  0
  4  5  1  0  0  0  0
  4 30  1  0  0  0  0
  4 31  1  0  0  0  0
  5  6  1  0  0  0  0
  5 32  1  0  0  0  0
  5 33  1  0  0  0  0
  6  7  1  0  0  0  0
  6 23  1  0  0  0  0
  6 50  1  0  0  0  0
  7  8  1  0  0  0  0
  7 34  1  0  0  0  0
  7 35  1  0  0  0  0
  8  9  1  0  0  0  0
  8 36  1  0  0  0  0
  8 37  1  0  0  0  0
  9 10  1  0  0  0  0
  9 38  1  0  0  0  0
  9 39  1  0  0  0  0
 10 11  1  0  0  0  0
 10 40  1  0  0  0  0
 11 12  2  0  0  0  0
 11 13  1  0  0  0  0
 13 14  1  0  0  0  0
 13 41  1  0  0  0  0
 13 42  1  0  0  0  0
 14 21  1  0  0  0  0
 14 15  1  0  0  0  0
 15 16  2  0  0  0  0
 15 43  1  0  0  0  0
 16 17  1  0  0  0  0
 16 44  1  0  0  0  0
 17 18  2  0  0  0  0
 17 19  1  0  0  0  0
 19 20  1  0  0  0  0
 19 21  1  0  0  0  0
 20 45  1  0  0  0  0
 20 46  1  0  0  0  0
 20 47  1  0  0  0  0
 21 22  2  0  0  0  0
 23 48  1  0  0  0  0
 23 49  1  0  0  0  0
M  CHG  1   6   1
M  END
> <s_m_source_file>
AV-unprocessed.smi

> <i_m_source_file_index>
2137

> <i_lp_mmshare_version>
43012

> <i_f3d_flags>
0

> <s_epik_input>
W0NIM11bQ0BASF0xW0NIMl1bQ0gyXVtDSDJdTihbQ0gyXTEpW0NIMl1bQ0gyXVtDSDJdW05IXUMoPU8pW0NIMl1uMltjSF1bY0hdYyg9TyluKFtDSDNdKWMyPU8=

> <s_epik_cmdline>
J2VwaWtfcHl0aG9uJywgJy1waCcsICc3LjAnLCAnLXRuJywgJzgnLCAnLW1hJywgJzIwMCcsICctbWV0YWxfYmluZGluZycsICctaW1hZScsICc8aW5maWxlLm1hZT4nLCAnLW9tYWUnLCAnPG91dGZpbGUubWFlPic=

> <r_lp_tautomer_probability>
1

> <r_epik_Ionization_Penalty>
0.000384839

> <r_epik_Ionization_Penalty_Charging>
0.000384812

> <r_epik_Ionization_Penalty_Neutral>
2.6907e-08

> <r_epik_State_Penalty>
0.000235226

> <r_epik_Charging_Adjusted_Penalty>
0.000620038

> <i_epik_Tot_Q>
1

> <i_epik_Tot_abs_Q>
1

> <r_epik_Metal_State_Penalty>
-0

> <b_epik_Metal_Only>
0

> <s_lp_Force_Field>
OPLS_2005

> <r_lp_Energy>
27.4749

> <b_lp_Chiralities_Consistent>
1

> <s_lp_Variant>
AV-unprocessed.smi:2137-2

> <Gold.Version>
5.8.1

> <Gold.Id.Protein>
6NUR|6NUR_protein|mol2

> <Gold.PLP.Fitness>
49.1068

> <Gold.PLP.PLP>
-41.6944

> <Gold.PLP.part.hbond>
-2.0000

> <Gold.PLP.part.metal>
0.0000

> <Gold.PLP.part.buried>
-5.0625

> <Gold.PLP.part.nonpolar>
-36.2489

> <Gold.PLP.part.repulsive>
1.3253

> <Gold.PLP.ligand.clash>
0.0000

> <Gold.PLP.ligand.torsion>
0.5099

> <Gold.PLP.Chemscore.Hbond>
1.7840

> <Gold.PLP.Chemscore.CHOScore>
1.0000

> <Gold.PLP.Chemscore.Metal>
0.0000

> <Gold.Chemscore.Hbonds>
donor molecule, donor type, donor heavy atom, donor atom, acceptor molecule, acceptor atom, score
      P1  H  7997  8008       L1    18  1.00
      L1  C    15    43       P1  7948  1.00

> <Gold.PLP.Chemscore.Internal.Correction>
0.0802

> <Gold.Rescore>
     Score         DG    S(hbond)    S(metal)    S(lipo)     H(rot)  DE(clash)    DE(int)     intcor
     14.96     -15.70       1.91        0.00      82.61       2.27       0.06       0.68       ----

> <Gold.Chemscore.Fitness>
14.9618

> <Gold.Chemscore.DG>
-15.7022

> <Gold.Chemscore.ZeroCoef>
-5.4800

> <Gold.Chemscore.Hbond>
1.9103

> <Gold.Chemscore.Metal>
0.0000

> <Gold.Chemscore.Lipo>
82.6086

> <Gold.Chemscore.Internal_Hbond>
0.0000

> <Gold.Chemscore.DEClash>
0.0627

> <Gold.Chemscore.DEInternal>
0.6777

> <Gold.Chemscore.Rot>
2.2748

> <Gold.Chemscore.Internal.Correction>
   9.000000E+99

> <Gold.Chemscore.Hbonds>
donor molecule, donor type, donor heavy atom, donor atom, acceptor molecule, acceptor atom, score
      L1  H    10    40       P1 10175  0.07
      P1  H  7997  8008       L1    18  0.97

> <Gold.Chemscore.Hbond.Weighted>
-6.3803

> <Gold.Chemscore.Metal.Weighted>
-0.0000

> <Gold.Chemscore.Lipo.Weighted>
-9.6652

> <Gold.Chemscore.Internal_Hbond.Weighted>
0.0000

> <Gold.Chemscore.DEClash.Weighted>
0.0627

> <Gold.Chemscore.DEInternal.Weighted>
0.6777

> <Gold.Chemscore.Rot.Weighted>
5.8234

> <Gold.Chemscore.Internal.Correction.Weighted>
   9.000000E+99

> <Gold.Protein.RotatedTorsions>
[ 6907 6896 6895 6894 ] final  -54.23 input  -60.11 | X-H torsion
[ 7974 7965 7964 7962 ] final  -46.00 input  175.53 | X-H torsion
[ 8008 7997 7996 7995 ] final  -43.39 input   59.86 | X-H torsion
[ 10167 10162 10161 10158 ] final   40.12 input  -65.29 | X-H torsion
[ 10718 10713 10712 10709 ] final  -49.84 input   66.30 | X-H torsion
[ 10763 10752 10751 10750 ] final  127.16 input  -60.55 | X-H torsion
[ 11005 11000 10999 10996 ] final   69.78 input  -57.11 | X-H torsion

> <Gold.Protein.ActiveResidues>
 VAL166  LYS551  ARG553  GLY616  TRP617  ASP618  TYR619  PRO620  LYS621  CYS622 
 ASP623  PHE694  ASN695  SER759  ASP760  ASP761  ALA762  ILE779  LEU786  VAL792 
 PHE793  MET794  SER795  GLU796  ALA797  LYS798  CYS799  TRP800  GLU811  SER814 

> <Gold.Protein.RotatedAtoms>
  150.8356  134.7628  159.6889 H   0  0  0  0  0  0  0  0  0  0  0  0  # atno 6907 bound_to 6896
  152.4453  134.5504  159.9875 H   0  0  0  0  0  0  0  0  0  0  0  0  # atno 6908 bound_to 6896
  151.5655  133.3359  159.3015 H   0  0  0  0  0  0  0  0  0  0  0  0  # atno 6909 bound_to 6896
  145.9763  140.7330  142.9385 H   0  0  0  0  0  0  0  0  0  0  0  0  # atno 7974 bound_to 7965
  154.3997  140.1449  156.3511 H   0  0  0  0  0  0  0  0  0  0  0  0  # atno 8008 bound_to 7997
  155.8268  140.3467  155.5527 H   0  0  0  0  0  0  0  0  0  0  0  0  # atno 8009 bound_to 7997
  155.8230  140.0901  157.1828 H   0  0  0  0  0  0  0  0  0  0  0  0  # atno 8010 bound_to 7997
  140.3773  144.2026  150.6131 H   0  0  0  0  0  0  0  0  0  0  0  0  # atno 10167 bound_to 10162
  156.1856  130.4151  149.9445 H   0  0  0  0  0  0  0  0  0  0  0  0  # atno 10718 bound_to 10713
  153.7050  135.3277  155.3233 H   0  0  0  0  0  0  0  0  0  0  0  0  # atno 10763 bound_to 10752
  154.8402  135.4463  154.1372 H   0  0  0  0  0  0  0  0  0  0  0  0  # atno 10764 bound_to 10752
  153.2450  135.6975  153.7820 H   0  0  0  0  0  0  0  0  0  0  0  0  # atno 10765 bound_to 10752
  139.9634  134.7022  156.0597 H   0  0  0  0  0  0  0  0  0  0  0  0  # atno 11005 bound_to 11000
  144.6849  140.2833  143.7289 LP  0  0  0  0  0  0  0  0  0  0  0  0  # atno 17320 bound_to 7965
  145.7834  139.1899  143.2145 LP  0  0  0  0  0  0  0  0  0  0  0  0  # atno 17321 bound_to 7965
  140.4973  143.2328  151.8730 LP  0  0  0  0  0  0  0  0  0  0  0  0  # atno 17342 bound_to 10162
  139.4798  144.5099  151.8947 LP  0  0  0  0  0  0  0  0  0  0  0  0  # atno 17343 bound_to 10162
  156.7201  130.9003  151.3617 LP  0  0  0  0  0  0  0  0  0  0  0  0  # atno 17370 bound_to 10713
  157.6896  130.9220  150.0478 LP  0  0  0  0  0  0  0  0  0  0  0  0  # atno 17371 bound_to 10713
  141.1313  133.6586  156.3471 LP  0  0  0  0  0  0  0  0  0  0  0  0  # atno 17394 bound_to 11000
  140.5449  134.6084  157.5391 LP  0  0  0  0  0  0  0  0  0  0  0  0  # atno 17395 bound_to 11000

$$$$
