AV-unprocessed.smi:1294|AV-procd|sdf|5400|dock1
  -GOLD-   22720 4563D 1   1.00000     0.00000
 Structure written by MMmdl.
 45 46  0  0  0  0  0  0  0  0  1 V2000
  154.4821  140.3652  160.1387 C   0  0  0  0  0  0  0  0  0  0  0  0
  153.7540  141.5296  160.7470 C   0  0  0  0  0  0  0  0  0  0  0  0
  153.9249  141.8048  162.0296 N   0  0  0  0  0  0  0  0  0  0  0  0
  153.1529  142.8867  162.2551 N   0  0  0  0  0  0  0  0  0  0  0  0
  153.1098  143.4653  163.5839 C   0  0  0  0  0  0  0  0  0  0  0  0
  152.4921  143.2950  161.1128 C   0  0  0  0  0  0  0  0  0  0  0  0
  151.5773  144.4767  161.1002 C   0  0  0  0  0  0  0  0  0  0  0  0
  152.8549  142.4349  160.1109 C   0  0  0  0  0  0  0  0  0  0  0  0
  152.4203  142.4318  158.6668 C   0  0  0  0  0  0  0  0  0  0  0  0
  151.3840  141.3304  158.4338 C   0  0  0  0  0  0  0  0  0  0  0  0
  151.5475  140.2147  158.9282 O   0  0  0  0  0  0  0  0  0  0  0  0
  150.3257  141.6577  157.6757 N   0  0  0  0  0  0  0  0  0  0  0  0
  149.2300  140.7646  157.3114 C   0  0  0  0  0  0  0  0  0  0  0  0
  148.2787  141.4076  156.2893 C   0  0  0  0  0  0  0  0  0  0  0  0
  147.2014  140.1914  155.4773 S   0  0  0  0  0  0  0  0  0  0  0  0
  146.0043  141.2949  154.6741 C   0  0  0  0  0  0  0  0  0  0  0  0
  146.6589  142.2103  153.6407 C   0  0  0  0  0  0  0  0  0  0  0  0
  145.6614  143.3568  153.4593 C   0  0  0  0  0  0  0  0  0  0  0  0
  144.8893  143.4620  154.7836 C   0  0  0  0  0  0  0  0  0  0  0  0
  145.3357  142.2723  155.6445 C   0  0  0  0  0  0  0  0  0  0  0  0
  154.9806  140.6578  159.2144 H   0  0  0  0  0  0  0  0  0  0  0  0
  153.7915  139.5559  159.9017 H   0  0  0  0  0  0  0  0  0  0  0  0
  155.2428  139.9669  160.8112 H   0  0  0  0  0  0  0  0  0  0  0  0
  152.0739  143.5614  163.9101 H   0  0  0  0  0  0  0  0  0  0  0  0
  153.5719  144.4525  163.5670 H   0  0  0  0  0  0  0  0  0  0  0  0
  153.6456  142.8364  164.2960 H   0  0  0  0  0  0  0  0  0  0  0  0
  151.2811  144.7368  160.0842 H   0  0  0  0  0  0  0  0  0  0  0  0
  152.0629  145.3495  161.5370 H   0  0  0  0  0  0  0  0  0  0  0  0
  150.6722  144.2703  161.6714 H   0  0  0  0  0  0  0  0  0  0  0  0
  151.9743  143.3855  158.3835 H   0  0  0  0  0  0  0  0  0  0  0  0
  153.2732  142.2909  158.0012 H   0  0  0  0  0  0  0  0  0  0  0  0
  150.2790  142.6005  157.3173 H   0  0  0  0  0  0  0  0  0  0  0  0
  149.6763  139.8732  156.8705 H   0  0  0  0  0  0  0  0  0  0  0  0
  148.6786  140.4234  158.1892 H   0  0  0  0  0  0  0  0  0  0  0  0
  147.6656  142.1726  156.7673 H   0  0  0  0  0  0  0  0  0  0  0  0
  148.8645  141.9084  155.5188 H   0  0  0  0  0  0  0  0  0  0  0  0
  145.2413  140.6921  154.1795 H   0  0  0  0  0  0  0  0  0  0  0  0
  147.5974  142.6050  154.0334 H   0  0  0  0  0  0  0  0  0  0  0  0
  146.8807  141.6967  152.7046 H   0  0  0  0  0  0  0  0  0  0  0  0
  146.1599  144.2899  153.1958 H   0  0  0  0  0  0  0  0  0  0  0  0
  144.9689  143.1169  152.6513 H   0  0  0  0  0  0  0  0  0  0  0  0
  145.0926  144.4053  155.2919 H   0  0  0  0  0  0  0  0  0  0  0  0
  143.8159  143.4191  154.5948 H   0  0  0  0  0  0  0  0  0  0  0  0
  144.5038  141.8199  156.1850 H   0  0  0  0  0  0  0  0  0  0  0  0
  146.0605  142.6155  156.3842 H   0  0  0  0  0  0  0  0  0  0  0  0
  1  2  1  0  0  0  0
  1 21  1  0  0  0  0
  1 22  1  0  0  0  0
  1 23  1  0  0  0  0
  2  8  1  0  0  0  0
  2  3  2  0  0  0  0
  3  4  1  0  0  0  0
  4  5  1  0  0  0  0
  4  6  1  0  0  0  0
  5 24  1  0  0  0  0
  5 25  1  0  0  0  0
  5 26  1  0  0  0  0
  6  7  1  0  0  0  0
  6  8  2  0  0  0  0
  7 27  1  0  0  0  0
  7 28  1  0  0  0  0
  7 29  1  0  0  0  0
  8  9  1  0  0  0  0
  9 10  1  0  0  0  0
  9 30  1  0  0  0  0
  9 31  1  0  0  0  0
 10 11  2  0  0  0  0
 10 12  1  0  0  0  0
 12 13  1  0  0  0  0
 12 32  1  0  0  0  0
 13 14  1  0  0  0  0
 13 33  1  0  0  0  0
 13 34  1  0  0  0  0
 14 15  1  0  0  0  0
 14 35  1  0  0  0  0
 14 36  1  0  0  0  0
 15 16  1  0  0  0  0
 16 20  1  0  0  0  0
 16 17  1  0  0  0  0
 16 37  1  0  0  0  0
 17 18  1  0  0  0  0
 17 38  1  0  0  0  0
 17 39  1  0  0  0  0
 18 19  1  0  0  0  0
 18 40  1  0  0  0  0
 18 41  1  0  0  0  0
 19 20  1  0  0  0  0
 19 42  1  0  0  0  0
 19 43  1  0  0  0  0
 20 44  1  0  0  0  0
 20 45  1  0  0  0  0
M  END
> <s_m_source_file>
AV-unprocessed.smi

> <i_m_source_file_index>
1294

> <i_lp_mmshare_version>
43012

> <i_f3d_flags>
0

> <s_epik_input>
W0NIM11jMW5uKFtDSDNdKWMoW0NIM10pYzFbQ0gyXUMoPU8pW05IXVtDSDJdW0NIMl1TW0NIXTJbQ0gyXVtDSDJdW0NIMl1bQ0gyXTI=

> <s_epik_cmdline>
J2VwaWtfcHl0aG9uJywgJy1waCcsICc3LjAnLCAnLXRuJywgJzgnLCAnLW1hJywgJzIwMCcsICctbWV0YWxfYmluZGluZycsICctaW1hZScsICc8aW5maWxlLm1hZT4nLCAnLW9tYWUnLCAnPG91dGZpbGUubWFlPic=

> <r_lp_tautomer_probability>
1

> <r_epik_Ionization_Penalty>
0.00302432

> <r_epik_Ionization_Penalty_Charging>
0

> <r_epik_Ionization_Penalty_Neutral>
0.00302432

> <r_epik_State_Penalty>
0.0021246

> <r_epik_Charging_Adjusted_Penalty>
0.0021246

> <i_epik_Tot_Q>
0

> <i_epik_Tot_abs_Q>
0

> <r_epik_Metal_State_Penalty>
-0

> <b_epik_Metal_Only>
0

> <s_lp_Force_Field>
OPLS_2005

> <r_lp_Energy>
15.1488

> <b_lp_Chiralities_Consistent>
1

> <s_lp_Variant>
AV-unprocessed.smi:1294-1

> <Gold.Version>
5.8.1

> <Gold.Id.Protein>
6NUR|6NUR_protein|mol2

> <Gold.PLP.Fitness>
44.5025

> <Gold.PLP.PLP>
-45.4236

> <Gold.PLP.part.hbond>
-0.7445

> <Gold.PLP.part.metal>
0.0000

> <Gold.PLP.part.buried>
-7.5604

> <Gold.PLP.part.nonpolar>
-36.0273

> <Gold.PLP.part.repulsive>
0.0557

> <Gold.PLP.ligand.clash>
0.0000

> <Gold.PLP.ligand.torsion>
0.5826

> <Gold.PLP.Chemscore.Hbond>
0.0000

> <Gold.PLP.Chemscore.CHOScore>
0.0000

> <Gold.PLP.Chemscore.Metal>
0.0000

> <Gold.PLP.Chemscore.Internal.Correction>
0.2440

> <Gold.Rescore>
     Score         DG    S(hbond)    S(metal)    S(lipo)     H(rot)  DE(clash)    DE(int)     intcor
     13.82     -14.67       0.00        0.00     113.07       1.58       0.37       0.48       ----

> <Gold.Chemscore.Fitness>
13.8249

> <Gold.Chemscore.DG>
-14.6708

> <Gold.Chemscore.ZeroCoef>
-5.4800

> <Gold.Chemscore.Hbond>
0.0000

> <Gold.Chemscore.Metal>
0.0000

> <Gold.Chemscore.Lipo>
113.0725

> <Gold.Chemscore.Internal_Hbond>
0.0000

> <Gold.Chemscore.DEClash>
0.3688

> <Gold.Chemscore.DEInternal>
0.4771

> <Gold.Chemscore.Rot>
1.5776

> <Gold.Chemscore.Internal.Correction>
   9.000000E+99

> <Gold.Chemscore.Hbond.Weighted>
-0.0000

> <Gold.Chemscore.Metal.Weighted>
-0.0000

> <Gold.Chemscore.Lipo.Weighted>
-13.2295

> <Gold.Chemscore.Internal_Hbond.Weighted>
0.0000

> <Gold.Chemscore.DEClash.Weighted>
0.3688

> <Gold.Chemscore.DEInternal.Weighted>
0.4771

> <Gold.Chemscore.Rot.Weighted>
4.0387

> <Gold.Chemscore.Internal.Correction.Weighted>
   9.000000E+99

> <Gold.Protein.RotatedTorsions>
[ 6907 6896 6895 6894 ] final   70.29 input  -60.11 | X-H torsion
[ 7974 7965 7964 7962 ] final   55.53 input  175.53 | X-H torsion
[ 8008 7997 7996 7995 ] final   89.14 input   59.86 | X-H torsion
[ 10167 10162 10161 10158 ] final   78.47 input  -65.29 | X-H torsion
[ 10718 10713 10712 10709 ] final   98.69 input   66.30 | X-H torsion
[ 10763 10752 10751 10750 ] final   40.42 input  -60.55 | X-H torsion
[ 11005 11000 10999 10996 ] final  -75.34 input  -57.11 | X-H torsion

> <Gold.Protein.ActiveResidues>
 VAL166  LYS551  ARG553  GLY616  TRP617  ASP618  TYR619  PRO620  LYS621  CYS622 
 ASP623  PHE694  ASN695  SER759  ASP760  ASP761  ALA762  ILE779  LEU786  VAL792 
 PHE793  MET794  SER795  GLU796  ALA797  LYS798  CYS799  TRP800  GLU811  SER814 

> <Gold.Protein.RotatedAtoms>
  152.4740  134.4890  159.9689 H   0  0  0  0  0  0  0  0  0  0  0  0  # atno 6907 bound_to 6896
  151.4911  133.3519  159.2861 H   0  0  0  0  0  0  0  0  0  0  0  0  # atno 6908 bound_to 6896
  150.8767  134.8178  159.7256 H   0  0  0  0  0  0  0  0  0  0  0  0  # atno 6909 bound_to 6896
  145.9494  139.3958  143.0315 H   0  0  0  0  0  0  0  0  0  0  0  0  # atno 7974 bound_to 7965
  155.9963  140.3364  155.6802 H   0  0  0  0  0  0  0  0  0  0  0  0  # atno 8008 bound_to 7997
  155.6352  140.0689  157.2654 H   0  0  0  0  0  0  0  0  0  0  0  0  # atno 8009 bound_to 7997
  154.4235  140.1752  156.1502 H   0  0  0  0  0  0  0  0  0  0  0  0  # atno 8010 bound_to 7997
  139.9706  144.5897  150.7989 H   0  0  0  0  0  0  0  0  0  0  0  0  # atno 10167 bound_to 10162
  157.6891  131.0647  150.4834 H   0  0  0  0  0  0  0  0  0  0  0  0  # atno 10718 bound_to 10713
  152.9937  135.6192  154.2624 H   0  0  0  0  0  0  0  0  0  0  0  0  # atno 10763 bound_to 10752
  154.2359  135.2790  155.2874 H   0  0  0  0  0  0  0  0  0  0  0  0  # atno 10764 bound_to 10752
  154.5410  135.5761  153.6897 H   0  0  0  0  0  0  0  0  0  0  0  0  # atno 10765 bound_to 10752
  141.1644  133.6943  156.7501 H   0  0  0  0  0  0  0  0  0  0  0  0  # atno 11005 bound_to 11000
  145.8192  140.9688  143.0908 LP  0  0  0  0  0  0  0  0  0  0  0  0  # atno 17320 bound_to 7965
  144.6793  140.0019  143.7484 LP  0  0  0  0  0  0  0  0  0  0  0  0  # atno 17321 bound_to 7965
  140.7523  143.2988  151.3134 LP  0  0  0  0  0  0  0  0  0  0  0  0  # atno 17342 bound_to 10162
  139.6484  144.0407  152.2608 LP  0  0  0  0  0  0  0  0  0  0  0  0  # atno 17343 bound_to 10162
  156.5164  130.4151  149.6273 LP  0  0  0  0  0  0  0  0  0  0  0  0  # atno 17370 bound_to 10713
  156.3193  130.7272  151.2181 LP  0  0  0  0  0  0  0  0  0  0  0  0  # atno 17371 bound_to 10713
  140.2610  134.8466  157.3759 LP  0  0  0  0  0  0  0  0  0  0  0  0  # atno 17394 bound_to 11000
  140.1611  134.4727  155.7894 LP  0  0  0  0  0  0  0  0  0  0  0  0  # atno 17395 bound_to 11000

$$$$
