AV-unprocessed.smi:1443|AV-procd|sdf|5880|dock3
  -GOLD-   22720 5553D 1   1.00000     0.00000
 Structure written by MMmdl.
 27 28  0  0  0  0  0  0  0  0  1 V2000
  148.1950  138.9088  150.2860 C   0  0  0  0  0  0  0  0  0  0  0  0
  147.7399  140.4389  151.1477 S   0  0  0  0  0  0  0  0  0  0  0  0
  148.8752  140.5945  152.4885 C   0  0  0  0  0  0  0  0  0  0  0  0
  149.7928  139.6393  152.7253 N   0  0  0  0  0  0  0  0  0  0  0  0
  150.7097  140.0956  154.0709 S   0  0  0  0  0  0  0  0  0  0  0  0
  149.7935  141.5648  154.2355 C   0  0  0  0  0  0  0  0  0  0  0  0
  150.0499  142.5170  155.2648 N   0  0  0  0  0  0  0  0  0  0  0  0
  150.9174  142.4938  156.2999 C   0  0  0  0  0  0  0  0  0  0  0  0
  151.6632  141.5328  156.4806 O   0  0  0  0  0  0  0  0  0  0  0  0
  150.9080  143.5710  157.1009 N   0  0  0  0  0  0  0  0  0  0  0  0
  151.7197  143.7670  158.2560 C   0  0  1  0  0  0  0  0  0  0  0  0
  152.6202  144.9831  158.2586 C   0  0  0  0  0  0  0  0  0  0  0  0
  151.4040  144.9531  159.1447 C   0  0  2  0  0  0  0  0  0  0  0  0
  151.5653  144.8658  160.6467 C   0  0  0  0  0  0  0  0  0  0  0  0
  148.8486  141.6656  153.3007 N   0  0  0  0  0  0  0  0  0  0  0  0
  147.5327  138.7444  149.4361 H   0  0  0  0  0  0  0  0  0  0  0  0
  148.1138  138.0543  150.9582 H   0  0  0  0  0  0  0  0  0  0  0  0
  149.2201  138.9672  149.9195 H   0  0  0  0  0  0  0  0  0  0  0  0
  149.4987  143.3606  155.1999 H   0  0  0  0  0  0  0  0  0  0  0  0
  150.2620  144.3132  156.8726 H   0  0  0  0  0  0  0  0  0  0  0  0
  152.1127  142.8792  158.7498 H   0  0  0  0  0  0  0  0  0  0  0  0
  153.5956  144.8810  158.7304 H   0  0  0  0  0  0  0  0  0  0  0  0
  152.5909  145.6421  157.3926 H   0  0  0  0  0  0  0  0  0  0  0  0
  150.5722  145.5822  158.8315 H   0  0  0  0  0  0  0  0  0  0  0  0
  152.4043  144.2212  160.9103 H   0  0  0  0  0  0  0  0  0  0  0  0
  150.6597  144.4577  161.0959 H   0  0  0  0  0  0  0  0  0  0  0  0
  151.7436  145.8577  161.0622 H   0  0  0  0  0  0  0  0  0  0  0  0
  1  2  1  0  0  0  0
  1 16  1  0  0  0  0
  1 17  1  0  0  0  0
  1 18  1  0  0  0  0
  2  3  1  0  0  0  0
  3 15  1  0  0  0  0
  3  4  2  0  0  0  0
  4  5  1  0  0  0  0
  5  6  1  0  0  0  0
  6  7  1  0  0  0  0
  6 15  2  0  0  0  0
  7  8  1  0  0  0  0
  7 19  1  0  0  0  0
  8  9  2  0  0  0  0
  8 10  1  0  0  0  0
 10 11  1  0  0  0  0
 10 20  1  0  0  0  0
 11 13  1  0  0  0  0
 11 12  1  0  0  0  0
 11 21  1  0  0  0  0
 12 13  1  0  0  0  0
 12 22  1  0  0  0  0
 12 23  1  0  0  0  0
 13 14  1  0  0  0  0
 13 24  1  0  0  0  0
 14 25  1  0  0  0  0
 14 26  1  0  0  0  0
 14 27  1  0  0  0  0
M  END
> <s_m_source_file>
AV-unprocessed.smi

> <i_m_source_file_index>
1443

> <i_lp_mmshare_version>
43012

> <i_f3d_flags>
0

> <s_epik_input>
W0NIM11TYzFuc2MobjEpW05IXUMoPU8pW05IXVtDQEBIXTJbQ0gyXVtDQEhdMltDSDNd

> <s_epik_cmdline>
J2VwaWtfcHl0aG9uJywgJy1waCcsICc3LjAnLCAnLXRuJywgJzgnLCAnLW1hJywgJzIwMCcsICctbWV0YWxfYmluZGluZycsICctaW1hZScsICc8aW5maWxlLm1hZT4nLCAnLW9tYWUnLCAnPG91dGZpbGUubWFlPic=

> <r_lp_tautomer_probability>
1

> <r_epik_Ionization_Penalty>
2.74658e-05

> <r_epik_Ionization_Penalty_Charging>
0

> <r_epik_Ionization_Penalty_Neutral>
2.74658e-05

> <r_epik_State_Penalty>
-0

> <r_epik_Charging_Adjusted_Penalty>
0

> <i_epik_Tot_Q>
0

> <i_epik_Tot_abs_Q>
0

> <r_epik_Metal_State_Penalty>
-0

> <b_epik_Metal_Only>
0

> <s_lp_Force_Field>
OPLS_2005

> <r_lp_Energy>
20.7485

> <b_lp_Chiralities_Consistent>
1

> <s_lp_Variant>
AV-unprocessed.smi:1443-4

> <Gold.Version>
5.8.1

> <Gold.Id.Protein>
6NUR|6NUR_protein|mol2

> <Gold.PLP.Fitness>
37.5782

> <Gold.PLP.PLP>
-32.1106

> <Gold.PLP.part.hbond>
-1.9319

> <Gold.PLP.part.metal>
0.0000

> <Gold.PLP.part.buried>
1.7739

> <Gold.PLP.part.nonpolar>
-33.6862

> <Gold.PLP.part.repulsive>
1.3144

> <Gold.PLP.ligand.clash>
0.0000

> <Gold.PLP.ligand.torsion>
0.0545

> <Gold.PLP.Chemscore.Hbond>
1.8480

> <Gold.PLP.Chemscore.CHOScore>
0.0000

> <Gold.PLP.Chemscore.Metal>
0.0000

> <Gold.Chemscore.Hbonds>
donor molecule, donor type, donor heavy atom, donor atom, acceptor molecule, acceptor atom, score
      L1  H     7    19       P1  8028  1.00
      L1  H    10    20       P1  8028  0.85
      P1  H  8011  8017       L1    15  0.24

> <Gold.PLP.Chemscore.Internal.Correction>
0.0326

> <Gold.Rescore>
     Score         DG    S(hbond)    S(metal)    S(lipo)     H(rot)  DE(clash)    DE(int)     intcor
     14.52     -17.28       1.92        0.00      73.85       1.27       1.28       1.48       ----

> <Gold.Chemscore.Fitness>
14.5230

> <Gold.Chemscore.DG>
-17.2840

> <Gold.Chemscore.ZeroCoef>
-5.4800

> <Gold.Chemscore.Hbond>
1.9206

> <Gold.Chemscore.Metal>
0.0000

> <Gold.Chemscore.Lipo>
73.8465

> <Gold.Chemscore.Internal_Hbond>
0.0000

> <Gold.Chemscore.DEClash>
1.2765

> <Gold.Chemscore.DEInternal>
1.4845

> <Gold.Chemscore.Rot>
1.2699

> <Gold.Chemscore.Internal.Correction>
   9.000000E+99

> <Gold.Chemscore.Hbonds>
donor molecule, donor type, donor heavy atom, donor atom, acceptor molecule, acceptor atom, score
      L1  H     7    19       P1  8028  0.94
      L1  H    10    20       P1  8028  0.77

> <Gold.Chemscore.Hbond.Weighted>
-6.4149

> <Gold.Chemscore.Metal.Weighted>
-0.0000

> <Gold.Chemscore.Lipo.Weighted>
-8.6400

> <Gold.Chemscore.Internal_Hbond.Weighted>
0.0000

> <Gold.Chemscore.DEClash.Weighted>
1.2765

> <Gold.Chemscore.DEInternal.Weighted>
1.4845

> <Gold.Chemscore.Rot.Weighted>
3.2509

> <Gold.Chemscore.Internal.Correction.Weighted>
   9.000000E+99

> <Gold.Protein.RotatedTorsions>
[ 6907 6896 6895 6894 ] final  -36.92 input  -60.11 | X-H torsion
[ 7974 7965 7964 7962 ] final   63.53 input  175.53 | X-H torsion
[ 8008 7997 7996 7995 ] final -128.93 input   59.86 | X-H torsion
[ 10167 10162 10161 10158 ] final   64.70 input  -65.29 | X-H torsion
[ 10718 10713 10712 10709 ] final   38.33 input   66.30 | X-H torsion
[ 10763 10752 10751 10750 ] final   26.70 input  -60.55 | X-H torsion
[ 11005 11000 10999 10996 ] final -142.42 input  -57.11 | X-H torsion

> <Gold.Protein.ActiveResidues>
 VAL166  LYS551  ARG553  GLY616  TRP617  ASP618  TYR619  PRO620  LYS621  CYS622 
 ASP623  PHE694  ASN695  SER759  ASP760  ASP761  ALA762  ILE779  LEU786  VAL792 
 PHE793  MET794  SER795  GLU796  ALA797  LYS798  CYS799  TRP800  GLU811  SER814 

> <Gold.Protein.RotatedAtoms>
  151.0211  134.9470  159.8059 H   0  0  0  0  0  0  0  0  0  0  0  0  # atno 6907 bound_to 6896
  152.5325  134.2902  159.9050 H   0  0  0  0  0  0  0  0  0  0  0  0  # atno 6908 bound_to 6896
  151.2910  133.4123  159.2667 H   0  0  0  0  0  0  0  0  0  0  0  0  # atno 6909 bound_to 6896
  145.8607  139.3313  143.0820 H   0  0  0  0  0  0  0  0  0  0  0  0  # atno 7974 bound_to 7965
  155.2707  140.0440  157.3006 H   0  0  0  0  0  0  0  0  0  0  0  0  # atno 8008 bound_to 7997
  154.5655  140.2358  155.8239 H   0  0  0  0  0  0  0  0  0  0  0  0  # atno 8009 bound_to 7997
  156.2081  140.3006  155.9680 H   0  0  0  0  0  0  0  0  0  0  0  0  # atno 8010 bound_to 7997
  140.1193  144.4746  150.6930 H   0  0  0  0  0  0  0  0  0  0  0  0  # atno 10167 bound_to 10162
  157.3575  130.7632  149.7023 H   0  0  0  0  0  0  0  0  0  0  0  0  # atno 10718 bound_to 10713
  153.0605  135.6554  154.0474 H   0  0  0  0  0  0  0  0  0  0  0  0  # atno 10763 bound_to 10752
  154.0143  135.2925  155.3390 H   0  0  0  0  0  0  0  0  0  0  0  0  # atno 10764 bound_to 10752
  154.6941  135.5271  153.8501 H   0  0  0  0  0  0  0  0  0  0  0  0  # atno 10765 bound_to 10752
  140.8227  134.2612  157.4893 H   0  0  0  0  0  0  0  0  0  0  0  0  # atno 11005 bound_to 11000
  145.9251  140.9088  143.0385 LP  0  0  0  0  0  0  0  0  0  0  0  0  # atno 17320 bound_to 7965
  144.6726  140.1342  143.7441 LP  0  0  0  0  0  0  0  0  0  0  0  0  # atno 17321 bound_to 7965
  140.6881  143.2361  151.5205 LP  0  0  0  0  0  0  0  0  0  0  0  0  # atno 17342 bound_to 10162
  139.5577  144.2234  152.1640 LP  0  0  0  0  0  0  0  0  0  0  0  0  # atno 17343 bound_to 10162
  155.9732  130.4123  150.4025 LP  0  0  0  0  0  0  0  0  0  0  0  0  # atno 17370 bound_to 10713
  157.2097  131.0457  151.2606 LP  0  0  0  0  0  0  0  0  0  0  0  0  # atno 17371 bound_to 10713
  139.8708  134.9544  156.4174 LP  0  0  0  0  0  0  0  0  0  0  0  0  # atno 17394 bound_to 11000
  140.9082  133.7730  155.9760 LP  0  0  0  0  0  0  0  0  0  0  0  0  # atno 17395 bound_to 11000

$$$$
