AV-unprocessed.smi:1804|AV-procd|sdf|7295|dock3
  -GOLD-   22720 8553D 1   1.00000     0.00000
 Structure written by MMmdl.
 44 45  0  0  0  0  0  0  0  0  2 V2000
  150.9999  138.1128  157.8369 C   0  0  0  0  0  0  0  0  0  0  0  0
  150.0484  138.4552  156.7462 N   0  3  0  0  0  0  0  0  0  0  0  0
  148.9523  137.4513  156.7057 C   0  0  0  0  0  0  0  0  0  0  0  0
  150.6788  138.7972  155.4189 C   0  0  0  0  0  0  0  0  0  0  0  0
  151.4600  137.5552  154.8728 C   0  0  0  0  0  0  0  0  0  0  0  0
  150.5995  136.4871  154.3608 N   0  0  0  0  0  0  0  0  0  0  0  0
  150.5636  135.2250  154.8137 C   0  0  0  0  0  0  0  0  0  0  0  0
  151.2715  134.8140  155.7333 O   0  0  0  0  0  0  0  0  0  0  0  0
  149.6694  134.4887  154.1312 N   0  0  0  0  0  0  0  0  0  0  0  0
  149.3555  133.1132  154.2932 C   0  0  0  0  0  0  0  0  0  0  0  0
  149.9050  132.3302  155.2346 N   0  0  0  0  0  0  0  0  0  0  0  0
  149.4250  131.0284  155.1723 N   0  0  0  0  0  0  0  0  0  0  0  0
  148.5340  130.8811  154.1879 C   0  0  0  0  0  0  0  0  0  0  0  0
  148.1952  132.3180  153.2392 S   0  0  0  0  0  0  0  0  0  0  0  0
  149.6088  139.1842  154.3447 C   0  0  0  0  0  0  0  0  0  0  0  0
  148.5913  140.2864  154.6946 C   0  0  0  0  0  0  0  0  0  0  0  0
  149.1997  141.6594  155.0053 C   0  0  0  0  0  0  0  0  0  0  0  0
  149.8469  141.7049  156.3930 C   0  0  0  0  0  0  0  0  0  0  0  0
  151.2952  141.1976  156.4526 C   0  0  0  0  0  0  0  0  0  0  0  0
  151.6782  139.9891  155.5667 C   0  0  0  0  0  0  0  0  0  0  0  0
  151.4244  137.1180  157.7002 H   0  0  0  0  0  0  0  0  0  0  0  0
  150.4792  138.1125  158.7949 H   0  0  0  0  0  0  0  0  0  0  0  0
  151.8231  138.8181  157.9282 H   0  0  0  0  0  0  0  0  0  0  0  0
  149.3196  136.4656  156.4203 H   0  0  0  0  0  0  0  0  0  0  0  0
  148.1461  137.7235  156.0279 H   0  0  0  0  0  0  0  0  0  0  0  0
  148.5006  137.3549  157.6933 H   0  0  0  0  0  0  0  0  0  0  0  0
  152.1714  137.8457  154.0995 H   0  0  0  0  0  0  0  0  0  0  0  0
  152.0588  137.1051  155.6637 H   0  0  0  0  0  0  0  0  0  0  0  0
  149.9807  136.7320  153.6014 H   0  0  0  0  0  0  0  0  0  0  0  0
  149.1551  134.9653  153.4053 H   0  0  0  0  0  0  0  0  0  0  0  0
  148.0730  129.9193  154.0186 H   0  0  0  0  0  0  0  0  0  0  0  0
  150.1109  139.4973  153.4287 H   0  0  0  0  0  0  0  0  0  0  0  0
  149.0505  138.2954  154.0492 H   0  0  0  0  0  0  0  0  0  0  0  0
  147.9245  140.4011  153.8392 H   0  0  0  0  0  0  0  0  0  0  0  0
  147.9472  139.9755  155.5164 H   0  0  0  0  0  0  0  0  0  0  0  0
  149.9016  141.9688  154.2298 H   0  0  0  0  0  0  0  0  0  0  0  0
  148.3914  142.3917  154.9874 H   0  0  0  0  0  0  0  0  0  0  0  0
  149.8385  142.7348  156.7518 H   0  0  0  0  0  0  0  0  0  0  0  0
  149.2305  141.1535  157.1035 H   0  0  0  0  0  0  0  0  0  0  0  0
  151.9580  142.0202  156.1813 H   0  0  0  0  0  0  0  0  0  0  0  0
  151.5331  140.9839  157.4942 H   0  0  0  0  0  0  0  0  0  0  0  0
  152.6327  139.6178  155.9416 H   0  0  0  0  0  0  0  0  0  0  0  0
  151.9171  140.3721  154.5739 H   0  0  0  0  0  0  0  0  0  0  0  0
  149.6079  139.3151  157.0410 H   0  0  0  0  0  0  0  0  0  0  0  0
  1  2  1  0  0  0  0
  1 21  1  0  0  0  0
  1 22  1  0  0  0  0
  1 23  1  0  0  0  0
  2  3  1  0  0  0  0
  2  4  1  0  0  0  0
  2 44  1  0  0  0  0
  3 24  1  0  0  0  0
  3 25  1  0  0  0  0
  3 26  1  0  0  0  0
  4 20  1  0  0  0  0
  4  5  1  0  0  0  0
  4 15  1  0  0  0  0
  5  6  1  0  0  0  0
  5 27  1  0  0  0  0
  5 28  1  0  0  0  0
  6  7  1  0  0  0  0
  6 29  1  0  0  0  0
  7  8  2  0  0  0  0
  7  9  1  0  0  0  0
  9 10  1  0  0  0  0
  9 30  1  0  0  0  0
 10 14  1  0  0  0  0
 10 11  2  0  0  0  0
 11 12  1  0  0  0  0
 12 13  2  0  0  0  0
 13 14  1  0  0  0  0
 13 31  1  0  0  0  0
 15 16  1  0  0  0  0
 15 32  1  0  0  0  0
 15 33  1  0  0  0  0
 16 17  1  0  0  0  0
 16 34  1  0  0  0  0
 16 35  1  0  0  0  0
 17 18  1  0  0  0  0
 17 36  1  0  0  0  0
 17 37  1  0  0  0  0
 18 19  1  0  0  0  0
 18 38  1  0  0  0  0
 18 39  1  0  0  0  0
 19 20  1  0  0  0  0
 19 40  1  0  0  0  0
 19 41  1  0  0  0  0
 20 42  1  0  0  0  0
 20 43  1  0  0  0  0
M  CHG  1   2   1
M  END
> <s_m_source_file>
AV-unprocessed.smi

> <i_m_source_file_index>
1804

> <i_lp_mmshare_version>
43012

> <i_f3d_flags>
0

> <s_epik_input>
W0NIMl0xW0NIMl1bQ0gyXVtDSDJdW0NIMl1bQ0gyXUMxKE4oW0NIM10pW0NIM10pW0NIMl1bTkhdQyg9TylbTkhdYzJubltjSF1zMg==

> <s_epik_cmdline>
J2VwaWtfcHl0aG9uJywgJy1waCcsICc3LjAnLCAnLXRuJywgJzgnLCAnLW1hJywgJzIwMCcsICctbWV0YWxfYmluZGluZycsICctaW1hZScsICc8aW5maWxlLm1hZT4nLCAnLW9tYWUnLCAnPG91dGZpbGUubWFlPic=

> <r_lp_tautomer_probability>
1

> <r_epik_Ionization_Penalty>
0.00320238

> <r_epik_Ionization_Penalty_Charging>
0.00244219

> <r_epik_Ionization_Penalty_Neutral>
0.000760187

> <r_epik_State_Penalty>
-0

> <r_epik_Charging_Adjusted_Penalty>
0.00244219

> <i_epik_Tot_Q>
1

> <i_epik_Tot_abs_Q>
1

> <r_epik_Metal_State_Penalty>
0.262153

> <b_epik_Metal_Only>
0

> <s_lp_Force_Field>
OPLS_2005

> <r_lp_Energy>
34.4391

> <b_lp_Chiralities_Consistent>
1

> <s_lp_Variant>
AV-unprocessed.smi:1804-1

> <Gold.Version>
5.8.1

> <Gold.Id.Protein>
6NUR|6NUR_protein|mol2

> <Gold.PLP.Fitness>
38.4652

> <Gold.PLP.PLP>
-30.9983

> <Gold.PLP.part.hbond>
-4.0000

> <Gold.PLP.part.metal>
0.0000

> <Gold.PLP.part.buried>
-0.3392

> <Gold.PLP.part.nonpolar>
-26.8277

> <Gold.PLP.part.repulsive>
0.1681

> <Gold.PLP.ligand.clash>
0.0000

> <Gold.PLP.ligand.torsion>
0.1904

> <Gold.PLP.Chemscore.Hbond>
2.5853

> <Gold.PLP.Chemscore.CHOScore>
0.0000

> <Gold.PLP.Chemscore.Metal>
0.0000

> <Gold.Chemscore.Hbonds>
donor molecule, donor type, donor heavy atom, donor atom, acceptor molecule, acceptor atom, score
      L1  H     6    29       P1  7948  0.97
      L1  H     9    30       P1  7948  0.85
      P1  H 10752 10764       L1     8  0.68

> <Gold.PLP.Chemscore.Internal.Correction>
0.0918

> <Gold.Rescore>
     Score         DG    S(hbond)    S(metal)    S(lipo)     H(rot)  DE(clash)    DE(int)     intcor
     10.05     -12.65       1.19        0.00      63.49       1.65       0.01       2.59       ----

> <Gold.Chemscore.Fitness>
10.0493

> <Gold.Chemscore.DG>
-12.6506

> <Gold.Chemscore.ZeroCoef>
-5.4800

> <Gold.Chemscore.Hbond>
1.1864

> <Gold.Chemscore.Metal>
0.0000

> <Gold.Chemscore.Lipo>
63.4938

> <Gold.Chemscore.Internal_Hbond>
0.0000

> <Gold.Chemscore.DEClash>
0.0108

> <Gold.Chemscore.DEInternal>
2.5905

> <Gold.Chemscore.Rot>
1.6487

> <Gold.Chemscore.Internal.Correction>
   9.000000E+99

> <Gold.Chemscore.Hbonds>
donor molecule, donor type, donor heavy atom, donor atom, acceptor molecule, acceptor atom, score
      L1  H     6    29       P1  7948  0.22
      L1  H     9    30       P1  7948  0.14
      P1  H 10752 10764       L1     8  0.15

> <Gold.Chemscore.Hbond.Weighted>
-3.9626

> <Gold.Chemscore.Metal.Weighted>
-0.0000

> <Gold.Chemscore.Lipo.Weighted>
-7.4288

> <Gold.Chemscore.Internal_Hbond.Weighted>
0.0000

> <Gold.Chemscore.DEClash.Weighted>
0.0108

> <Gold.Chemscore.DEInternal.Weighted>
2.5905

> <Gold.Chemscore.Rot.Weighted>
4.2207

> <Gold.Chemscore.Internal.Correction.Weighted>
   9.000000E+99

> <Gold.Protein.RotatedTorsions>
[ 6907 6896 6895 6894 ] final  -50.37 input  -60.11 | X-H torsion
[ 7974 7965 7964 7962 ] final -162.88 input  175.53 | X-H torsion
[ 8008 7997 7996 7995 ] final  -15.80 input   59.86 | X-H torsion
[ 10167 10162 10161 10158 ] final   74.87 input  -65.29 | X-H torsion
[ 10718 10713 10712 10709 ] final  -73.16 input   66.30 | X-H torsion
[ 10763 10752 10751 10750 ] final  -29.80 input  -60.55 | X-H torsion
[ 11005 11000 10999 10996 ] final  167.15 input  -57.11 | X-H torsion

> <Gold.Protein.ActiveResidues>
 VAL166  LYS551  ARG553  GLY616  TRP617  ASP618  TYR619  PRO620  LYS621  CYS622 
 ASP623  PHE694  ASN695  SER759  ASP760  ASP761  ALA762  ILE779  LEU786  VAL792 
 PHE793  MET794  SER795  GLU796  ALA797  LYS798  CYS799  TRP800  GLU811  SER814 

> <Gold.Protein.RotatedAtoms>
  150.8713  134.8088  159.7156 H   0  0  0  0  0  0  0  0  0  0  0  0  # atno 6907 bound_to 6896
  152.4717  134.4941  159.9714 H   0  0  0  0  0  0  0  0  0  0  0  0  # atno 6908 bound_to 6896
  151.5030  133.3462  159.2907 H   0  0  0  0  0  0  0  0  0  0  0  0  # atno 6909 bound_to 6896
  144.7343  140.3188  143.6174 H   0  0  0  0  0  0  0  0  0  0  0  0  # atno 7974 bound_to 7965
  154.5102  140.2186  155.9171 H   0  0  0  0  0  0  0  0  0  0  0  0  # atno 8008 bound_to 7997
  156.1543  140.3155  155.8666 H   0  0  0  0  0  0  0  0  0  0  0  0  # atno 8009 bound_to 7997
  155.3878  140.0476  157.3032 H   0  0  0  0  0  0  0  0  0  0  0  0  # atno 8010 bound_to 7997
  140.0091  144.5628  150.7674 H   0  0  0  0  0  0  0  0  0  0  0  0  # atno 10167 bound_to 10162
  156.0291  130.4388  150.2701 H   0  0  0  0  0  0  0  0  0  0  0  0  # atno 10718 bound_to 10713
  153.7705  135.6912  153.4907 H   0  0  0  0  0  0  0  0  0  0  0  0  # atno 10763 bound_to 10752
  153.1878  135.4482  155.0109 H   0  0  0  0  0  0  0  0  0  0  0  0  # atno 10764 bound_to 10752
  154.8119  135.3381  154.7215 H   0  0  0  0  0  0  0  0  0  0  0  0  # atno 10765 bound_to 10752
  140.2738  134.7805  157.3699 H   0  0  0  0  0  0  0  0  0  0  0  0  # atno 11005 bound_to 11000
  145.7590  139.1818  143.2278 LP  0  0  0  0  0  0  0  0  0  0  0  0  # atno 17320 bound_to 7965
  146.1001  140.7553  142.9553 LP  0  0  0  0  0  0  0  0  0  0  0  0  # atno 17321 bound_to 7965
  140.7389  143.2784  151.3673 LP  0  0  0  0  0  0  0  0  0  0  0  0  # atno 17342 bound_to 10162
  139.6218  144.0892  152.2398 LP  0  0  0  0  0  0  0  0  0  0  0  0  # atno 17343 bound_to 10162
  157.0804  131.0142  151.3158 LP  0  0  0  0  0  0  0  0  0  0  0  0  # atno 17370 bound_to 10713
  157.4932  130.7834  149.7528 LP  0  0  0  0  0  0  0  0  0  0  0  0  # atno 17371 bound_to 10713
  140.1347  134.5049  155.8077 LP  0  0  0  0  0  0  0  0  0  0  0  0  # atno 17394 bound_to 11000
  141.2173  133.6803  156.7103 LP  0  0  0  0  0  0  0  0  0  0  0  0  # atno 17395 bound_to 11000

$$$$
