AV-unprocessed.smi:899|AV-procd|sdf|4088|dock3
  -GOLD-   22720 1573D 1   1.00000     0.00000
 Structure written by MMmdl.
 32 33  0  0  0  0  0  0  0  0  2 V2000
  143.5291  133.4853  147.4337 N   0  0  0  0  0  0  0  0  0  0  0  0
  143.4680  133.0416  148.5007 C   0  0  0  0  0  0  0  0  0  0  0  0
  143.3909  132.4780  149.8571 C   0  0  0  0  0  0  0  0  0  0  0  0
  144.6617  132.7171  150.6460 C   0  0  0  0  0  0  0  0  0  0  0  0
  145.3584  131.6299  151.2085 C   0  0  0  0  0  0  0  0  0  0  0  0
  146.5408  131.8514  151.9399 C   0  0  0  0  0  0  0  0  0  0  0  0
  147.0458  133.1556  152.1197 C   0  0  0  0  0  0  0  0  0  0  0  0
  148.2115  133.2801  152.8449 O   0  0  0  0  0  0  0  0  0  0  0  0
  148.5533  132.2418  153.7528 C   0  0  0  0  0  0  0  0  0  0  0  0
  149.8677  132.6159  154.4531 C   0  0  0  0  0  0  0  0  0  0  0  0
  149.6758  133.7257  155.3958 N   0  0  0  0  0  0  0  0  0  0  0  0
  149.2658  134.9627  154.8703 C   0  0  0  0  0  0  0  0  0  0  0  0
  149.0685  136.0418  155.6525 C   0  0  0  0  0  0  0  0  0  0  0  0
  148.5647  137.5507  154.9783 Cl  0  0  0  0  0  0  0  0  0  0  0  0
  149.2968  135.8985  157.0890 C   0  0  0  0  0  0  0  0  0  0  0  0
  149.1224  136.8630  157.8325 O   0  0  0  0  0  0  0  0  0  0  0  0
  149.7021  134.6781  157.5480 N   0  5  0  0  0  0  0  0  0  0  0  0
  149.9000  133.5934  156.7369 C   0  0  0  0  0  0  0  0  0  0  0  0
  150.2747  132.5047  157.1733 O   0  0  0  0  0  0  0  0  0  0  0  0
  146.3381  134.2457  151.5526 C   0  0  0  0  0  0  0  0  0  0  0  0
  145.1545  134.0252  150.8215 C   0  0  0  0  0  0  0  0  0  0  0  0
  142.5451  132.9331  150.3730 H   0  0  0  0  0  0  0  0  0  0  0  0
  143.1893  131.4094  149.7749 H   0  0  0  0  0  0  0  0  0  0  0  0
  144.9872  130.6236  151.0806 H   0  0  0  0  0  0  0  0  0  0  0  0
  147.0678  131.0107  152.3670 H   0  0  0  0  0  0  0  0  0  0  0  0
  147.7617  132.1127  154.4929 H   0  0  0  0  0  0  0  0  0  0  0  0
  148.6756  131.2999  153.2157 H   0  0  0  0  0  0  0  0  0  0  0  0
  150.2620  131.7438  154.9763 H   0  0  0  0  0  0  0  0  0  0  0  0
  150.6273  132.8707  153.7120 H   0  0  0  0  0  0  0  0  0  0  0  0
  149.1264  134.9811  153.7992 H   0  0  0  0  0  0  0  0  0  0  0  0
  146.6833  135.2625  151.6636 H   0  0  0  0  0  0  0  0  0  0  0  0
  144.6264  134.8652  150.3945 H   0  0  0  0  0  0  0  0  0  0  0  0
  1  2  3  0  0  0  0
  2  3  1  0  0  0  0
  3  4  1  0  0  0  0
  3 22  1  0  0  0  0
  3 23  1  0  0  0  0
  4 21  1  0  0  0  0
  4  5  2  0  0  0  0
  5  6  1  0  0  0  0
  5 24  1  0  0  0  0
  6  7  2  0  0  0  0
  6 25  1  0  0  0  0
  7  8  1  0  0  0  0
  7 20  1  0  0  0  0
  8  9  1  0  0  0  0
  9 10  1  0  0  0  0
  9 26  1  0  0  0  0
  9 27  1  0  0  0  0
 10 11  1  0  0  0  0
 10 28  1  0  0  0  0
 10 29  1  0  0  0  0
 11 18  1  0  0  0  0
 11 12  1  0  0  0  0
 12 13  2  0  0  0  0
 12 30  1  0  0  0  0
 13 14  1  0  0  0  0
 13 15  1  0  0  0  0
 15 16  2  0  0  0  0
 15 17  1  0  0  0  0
 17 18  1  0  0  0  0
 18 19  2  0  0  0  0
 20 21  2  0  0  0  0
 20 31  1  0  0  0  0
 21 32  1  0  0  0  0
M  CHG  1  17  -1
M  END
> <s_m_source_file>
AV-unprocessed.smi

> <i_m_source_file_index>
899

> <i_lp_mmshare_version>
43012

> <i_f3d_flags>
0

> <s_epik_input>
TiNDW0NIMl1jMVtjSF1bY0hdYyhbY0hdW2NIXTEpT1tDSDJdW0NIMl1uMltjSF1jKENsKWMoPU8pW25IXWMyPU8=

> <s_epik_cmdline>
J2VwaWtfcHl0aG9uJywgJy1waCcsICc3LjAnLCAnLXRuJywgJzgnLCAnLW1hJywgJzIwMCcsICctbWV0YWxfYmluZGluZycsICctaW1hZScsICc8aW5maWxlLm1hZT4nLCAnLW9tYWUnLCAnPG91dGZpbGUubWFlPic=

> <r_lp_tautomer_probability>
1

> <r_epik_Ionization_Penalty>
1.54028

> <r_epik_Ionization_Penalty_Charging>
7.31917e-09

> <r_epik_Ionization_Penalty_Neutral>
1.54028

> <r_epik_State_Penalty>
1.63364

> <r_epik_Charging_Adjusted_Penalty>
1.63364

> <i_epik_Tot_Q>
-1

> <i_epik_Tot_abs_Q>
1

> <r_epik_Metal_State_Penalty>
0.00867927

> <b_epik_Metal_Only>
0

> <s_lp_Force_Field>
OPLS_2005

> <r_lp_Energy>
21.9466

> <b_lp_Chiralities_Consistent>
1

> <s_lp_Variant>
AV-unprocessed.smi:899-2

> <Gold.Version>
5.8.1

> <Gold.Id.Protein>
6NUR|6NUR_protein|mol2

> <Gold.PLP.Fitness>
40.4770

> <Gold.PLP.PLP>
-28.1915

> <Gold.PLP.part.hbond>
-2.4936

> <Gold.PLP.part.metal>
0.0000

> <Gold.PLP.part.buried>
-2.1420

> <Gold.PLP.part.nonpolar>
-29.5255

> <Gold.PLP.part.repulsive>
6.0397

> <Gold.PLP.ligand.clash>
0.4851

> <Gold.PLP.ligand.torsion>
0.3775

> <Gold.PLP.Chemscore.Hbond>
3.5037

> <Gold.PLP.Chemscore.CHOScore>
1.0000

> <Gold.PLP.Chemscore.Metal>
0.0000

> <Gold.Chemscore.Hbonds>
donor molecule, donor type, donor heavy atom, donor atom, acceptor molecule, acceptor atom, score
      P1  H  6896  6909       L1    17  1.50
      P1  H  7918  7932       L1     1  0.68
      P1  H 10192 10197       L1     1  0.41
      L1  C    12    30       P1  7948  1.00

> <Gold.PLP.Chemscore.Internal.Correction>
0.0144

> <Gold.Rescore>
     Score         DG    S(hbond)    S(metal)    S(lipo)     H(rot)  DE(clash)    DE(int)     intcor
      9.24     -15.24       2.13        0.00      71.70       2.25       4.36       1.65       ----

> <Gold.Chemscore.Fitness>
9.2352

> <Gold.Chemscore.DG>
-15.2412

> <Gold.Chemscore.ZeroCoef>
-5.4800

> <Gold.Chemscore.Hbond>
2.1348

> <Gold.Chemscore.Metal>
0.0000

> <Gold.Chemscore.Lipo>
71.6967

> <Gold.Chemscore.Internal_Hbond>
0.0000

> <Gold.Chemscore.DEClash>
4.3595

> <Gold.Chemscore.DEInternal>
1.6466

> <Gold.Chemscore.Rot>
2.2491

> <Gold.Chemscore.Internal.Correction>
   9.000000E+99

> <Gold.Chemscore.Hbonds>
donor molecule, donor type, donor heavy atom, donor atom, acceptor molecule, acceptor atom, score
      P1  H  6896  6909       L1    17  0.25
      P1  H  7918  7932       L1     1  0.65
      P1  H 10192 10197       L1     1  0.34

> <Gold.Chemscore.Hbond.Weighted>
-7.1303

> <Gold.Chemscore.Metal.Weighted>
-0.0000

> <Gold.Chemscore.Lipo.Weighted>
-8.3885

> <Gold.Chemscore.Internal_Hbond.Weighted>
0.0000

> <Gold.Chemscore.DEClash.Weighted>
4.3595

> <Gold.Chemscore.DEInternal.Weighted>
1.6466

> <Gold.Chemscore.Rot.Weighted>
5.7576

> <Gold.Chemscore.Internal.Correction.Weighted>
   9.000000E+99

> <Gold.Protein.RotatedTorsions>
[ 6907 6896 6895 6894 ] final   16.90 input  -60.11 | X-H torsion
[ 7974 7965 7964 7962 ] final -174.23 input  175.53 | X-H torsion
[ 8008 7997 7996 7995 ] final   10.74 input   59.86 | X-H torsion
[ 10167 10162 10161 10158 ] final -150.15 input  -65.29 | X-H torsion
[ 10718 10713 10712 10709 ] final  131.45 input   66.30 | X-H torsion
[ 10763 10752 10751 10750 ] final -172.06 input  -60.55 | X-H torsion
[ 11005 11000 10999 10996 ] final   53.96 input  -57.11 | X-H torsion

> <Gold.Protein.ActiveResidues>
 VAL166  LYS551  ARG553  GLY616  TRP617  ASP618  TYR619  PRO620  LYS621  CYS622 
 ASP623  PHE694  ASN695  SER759  ASP760  ASP761  ALA762  ILE779  LEU786  VAL792 
 PHE793  MET794  SER795  GLU796  ALA797  LYS798  CYS799  TRP800  GLU811  SER814 

> <Gold.Protein.RotatedAtoms>
  151.8412  135.0589  160.0447 H   0  0  0  0  0  0  0  0  0  0  0  0  # atno 6907 bound_to 6896
  152.2808  133.5464  159.5505 H   0  0  0  0  0  0  0  0  0  0  0  0  # atno 6908 bound_to 6896
  150.7188  134.0483  159.3832 H   0  0  0  0  0  0  0  0  0  0  0  0  # atno 6909 bound_to 6896
  144.7133  140.1502  143.6385 H   0  0  0  0  0  0  0  0  0  0  0  0  # atno 7974 bound_to 7965
  154.7975  140.2846  155.5946 H   0  0  0  0  0  0  0  0  0  0  0  0  # atno 8008 bound_to 7997
  156.2973  140.2593  156.2765 H   0  0  0  0  0  0  0  0  0  0  0  0  # atno 8009 bound_to 7997
  154.9597  140.0378  157.2173 H   0  0  0  0  0  0  0  0  0  0  0  0  # atno 8010 bound_to 7997
  139.7379  143.8707  152.2554 H   0  0  0  0  0  0  0  0  0  0  0  0  # atno 10167 bound_to 10162
  157.4966  131.1092  150.9484 H   0  0  0  0  0  0  0  0  0  0  0  0  # atno 10718 bound_to 10713
  154.6235  135.2878  155.0299 H   0  0  0  0  0  0  0  0  0  0  0  0  # atno 10763 bound_to 10752
  154.1485  135.6507  153.4962 H   0  0  0  0  0  0  0  0  0  0  0  0  # atno 10764 bound_to 10752
  153.0246  135.5350  154.7034 H   0  0  0  0  0  0  0  0  0  0  0  0  # atno 10765 bound_to 10752
  140.0725  134.5450  155.9032 H   0  0  0  0  0  0  0  0  0  0  0  0  # atno 11005 bound_to 11000
  145.9123  139.2494  143.1430 LP  0  0  0  0  0  0  0  0  0  0  0  0  # atno 17320 bound_to 7965
  145.9704  140.8765  143.0165 LP  0  0  0  0  0  0  0  0  0  0  0  0  # atno 17321 bound_to 7965
  139.8649  144.7098  150.9056 LP  0  0  0  0  0  0  0  0  0  0  0  0  # atno 17342 bound_to 10162
  140.7781  143.3786  151.1517 LP  0  0  0  0  0  0  0  0  0  0  0  0  # atno 17343 bound_to 10162
  157.0168  130.5658  149.5327 LP  0  0  0  0  0  0  0  0  0  0  0  0  # atno 17370 bound_to 10713
  156.0204  130.5299  150.8259 LP  0  0  0  0  0  0  0  0  0  0  0  0  # atno 17371 bound_to 10713
  141.2017  133.6620  156.5965 LP  0  0  0  0  0  0  0  0  0  0  0  0  # atno 17394 bound_to 11000
  140.3607  134.7690  157.4531 LP  0  0  0  0  0  0  0  0  0  0  0  0  # atno 17395 bound_to 11000

$$$$
