AV-unprocessed.smi:1971|AV-procd|sdf|7967|dock1
  -GOLD-   2272010143D 1   1.00000     0.00000
 Structure written by MMmdl.
 43 44  0  0  0  0  0  0  0  0  1 V2000
  152.7843  143.8186  158.7916 C   0  0  0  0  0  0  0  0  0  0  0  0
  152.1471  142.4674  159.1453 C   0  0  0  0  0  0  0  0  0  0  0  0
  151.7944  141.6324  157.9983 N   0  0  0  0  0  0  0  0  0  0  0  0
  151.0779  140.4341  158.4284 C   0  0  0  0  0  0  0  0  0  0  0  0
  150.7054  139.5321  157.2380 C   0  0  0  0  0  0  0  0  0  0  0  0
  149.8576  140.2296  156.2623 N   0  0  0  0  0  0  0  0  0  0  0  0
  149.4711  139.3686  155.1239 C   0  0  1  0  0  0  0  0  0  0  0  0
  150.6737  138.6816  154.4382 C   0  0  0  0  0  0  0  0  0  0  0  0
  148.4389  138.2730  155.4891 C   0  0  0  0  0  0  0  0  0  0  0  0
  148.0221  137.5154  154.3146 N   0  0  0  0  0  0  0  0  0  0  0  0
  146.8462  136.8873  154.1935 C   0  0  0  0  0  0  0  0  0  0  0  0
  145.9749  136.9068  155.0635 O   0  0  0  0  0  0  0  0  0  0  0  0
  146.7591  136.2426  153.0171 N   0  0  0  0  0  0  0  0  0  0  0  0
  145.6826  135.4620  152.5207 C   0  0  0  0  0  0  0  0  0  0  0  0
  144.9495  134.6264  153.2657 N   0  0  0  0  0  0  0  0  0  0  0  0
  143.9562  133.9905  152.5165 C   0  0  0  0  0  0  0  0  0  0  0  0
  143.9483  134.3555  151.1932 C   0  0  0  0  0  0  0  0  0  0  0  0
  145.1928  135.5223  150.8340 S   0  0  0  0  0  0  0  0  0  0  0  0
  150.5798  141.4373  155.8386 C   0  0  0  0  0  0  0  0  0  0  0  0
  150.9537  142.3377  157.0305 C   0  0  0  0  0  0  0  0  0  0  0  0
  153.1066  144.3372  159.6946 H   0  0  0  0  0  0  0  0  0  0  0  0
  152.0866  144.4762  158.2736 H   0  0  0  0  0  0  0  0  0  0  0  0
  153.6604  143.6861  158.1564 H   0  0  0  0  0  0  0  0  0  0  0  0
  152.8583  141.9247  159.7694 H   0  0  0  0  0  0  0  0  0  0  0  0
  151.2672  142.6324  159.7690 H   0  0  0  0  0  0  0  0  0  0  0  0
  151.6958  139.8667  159.1251 H   0  0  0  0  0  0  0  0  0  0  0  0
  150.1734  140.7131  158.9714 H   0  0  0  0  0  0  0  0  0  0  0  0
  151.6118  139.1653  156.7535 H   0  0  0  0  0  0  0  0  0  0  0  0
  150.1888  138.6623  157.6402 H   0  0  0  0  0  0  0  0  0  0  0  0
  148.9995  139.9990  154.3685 H   0  0  0  0  0  0  0  0  0  0  0  0
  150.3434  137.9743  153.6770 H   0  0  0  0  0  0  0  0  0  0  0  0
  151.2833  138.1313  155.1556 H   0  0  0  0  0  0  0  0  0  0  0  0
  151.3177  139.3960  153.9264 H   0  0  0  0  0  0  0  0  0  0  0  0
  148.8387  137.5907  156.2395 H   0  0  0  0  0  0  0  0  0  0  0  0
  147.5612  138.7266  155.9524 H   0  0  0  0  0  0  0  0  0  0  0  0
  148.6867  137.4486  153.5574 H   0  0  0  0  0  0  0  0  0  0  0  0
  147.5616  136.3102  152.4087 H   0  0  0  0  0  0  0  0  0  0  0  0
  143.2961  133.2906  153.0069 H   0  0  0  0  0  0  0  0  0  0  0  0
  143.2878  134.0110  150.4115 H   0  0  0  0  0  0  0  0  0  0  0  0
  151.4800  141.1616  155.2870 H   0  0  0  0  0  0  0  0  0  0  0  0
  149.9673  142.0321  155.1632 H   0  0  0  0  0  0  0  0  0  0  0  0
  150.0454  142.6993  157.5149 H   0  0  0  0  0  0  0  0  0  0  0  0
  151.4748  143.2152  156.6490 H   0  0  0  0  0  0  0  0  0  0  0  0
  1  2  1  0  0  0  0
  1 21  1  0  0  0  0
  1 22  1  0  0  0  0
  1 23  1  0  0  0  0
  2  3  1  0  0  0  0
  2 24  1  0  0  0  0
  2 25  1  0  0  0  0
  3 20  1  0  0  0  0
  3  4  1  0  0  0  0
  4  5  1  0  0  0  0
  4 26  1  0  0  0  0
  4 27  1  0  0  0  0
  5  6  1  0  0  0  0
  5 28  1  0  0  0  0
  5 29  1  0  0  0  0
  6  7  1  0  0  0  0
  6 19  1  0  0  0  0
  7  8  1  0  0  0  0
  7  9  1  0  0  0  0
  7 30  1  0  0  0  0
  8 31  1  0  0  0  0
  8 32  1  0  0  0  0
  8 33  1  0  0  0  0
  9 10  1  0  0  0  0
  9 34  1  0  0  0  0
  9 35  1  0  0  0  0
 10 11  1  0  0  0  0
 10 36  1  0  0  0  0
 11 12  2  0  0  0  0
 11 13  1  0  0  0  0
 13 14  1  0  0  0  0
 13 37  1  0  0  0  0
 14 18  1  0  0  0  0
 14 15  2  0  0  0  0
 15 16  1  0  0  0  0
 16 17  2  0  0  0  0
 16 38  1  0  0  0  0
 17 18  1  0  0  0  0
 17 39  1  0  0  0  0
 19 20  1  0  0  0  0
 19 40  1  0  0  0  0
 19 41  1  0  0  0  0
 20 42  1  0  0  0  0
 20 43  1  0  0  0  0
M  END
> <s_m_source_file>
AV-unprocessed.smi

> <i_m_source_file_index>
1971

> <i_lp_mmshare_version>
43012

> <i_f3d_flags>
0

> <s_epik_input>
W0NIM11bQ0gyXU4xW0NIMl1bQ0gyXU4oW0NIMl1bQ0gyXTEpW0NASF0oW0NIM10pW0NIMl1bTkhdQyg9TylbTkhdYzJuW2NIXVtjSF1zMg==

> <s_epik_cmdline>
J2VwaWtfcHl0aG9uJywgJy1waCcsICc3LjAnLCAnLXRuJywgJzgnLCAnLW1hJywgJzIwMCcsICctbWV0YWxfYmluZGluZycsICctaW1hZScsICc8aW5maWxlLm1hZT4nLCAnLW9tYWUnLCAnPG91dGZpbGUubWFlPic=

> <r_lp_tautomer_probability>
0.999

> <r_epik_Ionization_Penalty>
2.43994

> <r_epik_Ionization_Penalty_Charging>
0

> <r_epik_Ionization_Penalty_Neutral>
2.43994

> <r_epik_State_Penalty>
1.7682

> <r_epik_Charging_Adjusted_Penalty>
1.7682

> <i_epik_Tot_Q>
0

> <i_epik_Tot_abs_Q>
0

> <r_epik_Metal_State_Penalty>
1.80147

> <b_epik_Metal_Only>
0

> <s_lp_Force_Field>
OPLS_2005

> <r_lp_Energy>
42.8393

> <b_lp_Chiralities_Consistent>
1

> <s_lp_Variant>
AV-unprocessed.smi:1971-6

> <Gold.Version>
5.8.1

> <Gold.Id.Protein>
6NUR|6NUR_protein|mol2

> <Gold.PLP.Fitness>
39.7013

> <Gold.PLP.PLP>
-29.9387

> <Gold.PLP.part.hbond>
-1.9630

> <Gold.PLP.part.metal>
0.0000

> <Gold.PLP.part.buried>
-4.4526

> <Gold.PLP.part.nonpolar>
-25.2022

> <Gold.PLP.part.repulsive>
0.1320

> <Gold.PLP.ligand.clash>
0.0000

> <Gold.PLP.ligand.torsion>
0.6263

> <Gold.PLP.Chemscore.Hbond>
1.6370

> <Gold.PLP.Chemscore.CHOScore>
2.0000

> <Gold.PLP.Chemscore.Metal>
0.0000

> <Gold.Chemscore.Hbonds>
donor molecule, donor type, donor heavy atom, donor atom, acceptor molecule, acceptor atom, score
      L1  H    10    36       P1  7948  0.64
      L1  H    13    37       P1  7948  0.89
      L1  C    16    38       P1 10957  1.00
      L1  C    17    39       P1 10186  1.00

> <Gold.PLP.Chemscore.Internal.Correction>
0.1041

> <Gold.Rescore>
     Score         DG    S(hbond)    S(metal)    S(lipo)     H(rot)  DE(clash)    DE(int)     intcor
     15.62     -16.34       1.86        0.00      77.91       1.75       0.03       0.69       ----

> <Gold.Chemscore.Fitness>
15.6154

> <Gold.Chemscore.DG>
-16.3386

> <Gold.Chemscore.ZeroCoef>
-5.4800

> <Gold.Chemscore.Hbond>
1.8610

> <Gold.Chemscore.Metal>
0.0000

> <Gold.Chemscore.Lipo>
77.9150

> <Gold.Chemscore.Internal_Hbond>
0.0000

> <Gold.Chemscore.DEClash>
0.0341

> <Gold.Chemscore.DEInternal>
0.6891

> <Gold.Chemscore.Rot>
1.7473

> <Gold.Chemscore.Internal.Correction>
   9.000000E+99

> <Gold.Chemscore.Hbonds>
donor molecule, donor type, donor heavy atom, donor atom, acceptor molecule, acceptor atom, score
      L1  H    10    36       P1  7948  0.62
      L1  H    13    37       P1  7948  0.87

> <Gold.Chemscore.Hbond.Weighted>
-6.2156

> <Gold.Chemscore.Metal.Weighted>
-0.0000

> <Gold.Chemscore.Lipo.Weighted>
-9.1160

> <Gold.Chemscore.Internal_Hbond.Weighted>
0.0000

> <Gold.Chemscore.DEClash.Weighted>
0.0341

> <Gold.Chemscore.DEInternal.Weighted>
0.6891

> <Gold.Chemscore.Rot.Weighted>
4.4731

> <Gold.Chemscore.Internal.Correction.Weighted>
   9.000000E+99

> <Gold.Protein.RotatedTorsions>
[ 6907 6896 6895 6894 ] final  -98.96 input  -60.11 | X-H torsion
[ 7974 7965 7964 7962 ] final  -63.57 input  175.53 | X-H torsion
[ 8008 7997 7996 7995 ] final   31.49 input   59.86 | X-H torsion
[ 10167 10162 10161 10158 ] final   73.11 input  -65.29 | X-H torsion
[ 10718 10713 10712 10709 ] final -173.55 input   66.30 | X-H torsion
[ 10763 10752 10751 10750 ] final    5.78 input  -60.55 | X-H torsion
[ 11005 11000 10999 10996 ] final  -72.86 input  -57.11 | X-H torsion

> <Gold.Protein.ActiveResidues>
 VAL166  LYS551  ARG553  GLY616  TRP617  ASP618  TYR619  PRO620  LYS621  CYS622 
 ASP623  PHE694  ASN695  SER759  ASP760  ASP761  ALA762  ILE779  LEU786  VAL792 
 PHE793  MET794  SER795  GLU796  ALA797  LYS798  CYS799  TRP800  GLU811  SER814 

> <Gold.Protein.RotatedAtoms>
  150.7064  134.1114  159.4001 H   0  0  0  0  0  0  0  0  0  0  0  0  # atno 6907 bound_to 6896
  151.9100  135.0340  160.0523 H   0  0  0  0  0  0  0  0  0  0  0  0  # atno 6908 bound_to 6896
  152.2343  133.5048  159.5270 H   0  0  0  0  0  0  0  0  0  0  0  0  # atno 6909 bound_to 6896
  145.7774  140.8780  143.0348 H   0  0  0  0  0  0  0  0  0  0  0  0  # atno 7974 bound_to 7965
  155.1072  140.3235  155.4531 H   0  0  0  0  0  0  0  0  0  0  0  0  # atno 8008 bound_to 7997
  156.2700  140.2050  156.6145 H   0  0  0  0  0  0  0  0  0  0  0  0  # atno 8009 bound_to 7997
  154.6783  140.0529  157.0226 H   0  0  0  0  0  0  0  0  0  0  0  0  # atno 8010 bound_to 7997
  140.0280  144.5488  150.7529 H   0  0  0  0  0  0  0  0  0  0  0  0  # atno 10167 bound_to 10162
  156.7720  130.9452  151.3120 H   0  0  0  0  0  0  0  0  0  0  0  0  # atno 10718 bound_to 10713
  153.2554  135.6918  153.7634 H   0  0  0  0  0  0  0  0  0  0  0  0  # atno 10763 bound_to 10752
  153.6713  135.3344  155.3155 H   0  0  0  0  0  0  0  0  0  0  0  0  # atno 10764 bound_to 10752
  154.8410  135.4500  154.1526 H   0  0  0  0  0  0  0  0  0  0  0  0  # atno 10765 bound_to 10752
  141.1614  133.6860  156.7123 H   0  0  0  0  0  0  0  0  0  0  0  0  # atno 11005 bound_to 11000
  144.6802  139.9941  143.7484 LP  0  0  0  0  0  0  0  0  0  0  0  0  # atno 17320 bound_to 7965
  146.0109  139.3169  143.0871 LP  0  0  0  0  0  0  0  0  0  0  0  0  # atno 17321 bound_to 7965
  140.7314  143.2694  151.3938 LP  0  0  0  0  0  0  0  0  0  0  0  0  # atno 17342 bound_to 10162
  139.6095  144.1128  152.2284 LP  0  0  0  0  0  0  0  0  0  0  0  0  # atno 17343 bound_to 10162
  157.6686  130.9031  149.9989 LP  0  0  0  0  0  0  0  0  0  0  0  0  # atno 17370 bound_to 10713
  156.1272  130.3644  149.9790 LP  0  0  0  0  0  0  0  0  0  0  0  0  # atno 17371 bound_to 10713
  140.2878  134.8265  157.3990 LP  0  0  0  0  0  0  0  0  0  0  0  0  # atno 17394 bound_to 11000
  140.1374  134.5016  155.8057 LP  0  0  0  0  0  0  0  0  0  0  0  0  # atno 17395 bound_to 11000

$$$$
