AV-unprocessed.smi:1128|AV-procd|sdf|4843|dock3
  -GOLD-   22720 3413D 1   1.00000     0.00000
 Structure written by MMmdl.
 38 39  0  0  0  0  0  0  0  0  1 V2000
  145.5229  138.5023  153.7173 O   0  0  0  0  0  0  0  0  0  0  0  0
  146.4295  137.9651  153.0818 C   0  0  0  0  0  0  0  0  0  0  0  0
  146.2315  136.9273  152.2569 N   0  0  0  0  0  0  0  0  0  0  0  0
  144.9401  136.3023  151.9888 C   0  0  0  0  0  0  0  0  0  0  0  0
  145.0329  134.7642  151.9060 C   0  0  1  0  0  0  0  0  0  0  0  0
  143.6514  134.1010  151.6913 C   0  0  0  0  0  0  0  0  0  0  0  0
  143.7572  132.6330  151.3184 C   0  0  0  0  0  0  0  0  0  0  0  0
  144.8994  132.0505  150.9176 C   0  0  0  0  0  0  0  0  0  0  0  0
  146.2131  132.7973  150.7839 C   0  0  0  0  0  0  0  0  0  0  0  0
  146.0201  134.3250  150.8081 C   0  0  0  0  0  0  0  0  0  0  0  0
  147.7309  138.3064  153.1151 N   0  0  0  0  0  0  0  0  0  0  0  0
  148.3739  139.3284  153.8349 C   0  0  0  0  0  0  0  0  0  0  0  0
  149.4493  139.1567  154.6480 C   0  0  0  0  0  0  0  0  0  0  0  0
  150.0618  140.2648  155.3617 C   0  0  0  0  0  0  0  0  0  0  0  0
  151.2281  140.0493  156.3137 C   0  0  0  0  0  0  0  0  0  0  0  0
  151.6196  141.1964  156.8699 F   0  0  0  0  0  0  0  0  0  0  0  0
  150.8981  139.2027  157.2890 F   0  0  0  0  0  0  0  0  0  0  0  0
  152.2631  139.5344  155.6516 F   0  0  0  0  0  0  0  0  0  0  0  0
  149.4923  141.4730  155.1977 C   0  0  0  0  0  0  0  0  0  0  0  0
  148.3892  141.6591  154.3621 N   0  0  0  0  0  0  0  0  0  0  0  0
  147.7844  140.6679  153.6699 C   0  0  0  0  0  0  0  0  0  0  0  0
  146.8084  140.9123  152.9612 O   0  0  0  0  0  0  0  0  0  0  0  0
  148.0257  142.5980  154.2840 H   0  0  0  0  0  0  0  0  0  0  0  0
  147.0315  136.5405  151.7779 H   0  0  0  0  0  0  0  0  0  0  0  0
  144.2552  136.5906  152.7868 H   0  0  0  0  0  0  0  0  0  0  0  0
  144.5214  136.7079  151.0661 H   0  0  0  0  0  0  0  0  0  0  0  0
  145.4314  134.4014  152.8550 H   0  0  0  0  0  0  0  0  0  0  0  0
  143.0500  134.1867  152.5970 H   0  0  0  0  0  0  0  0  0  0  0  0
  143.1032  134.6083  150.8968 H   0  0  0  0  0  0  0  0  0  0  0  0
  142.8503  132.0495  151.3781 H   0  0  0  0  0  0  0  0  0  0  0  0
  144.9113  130.9964  150.6823 H   0  0  0  0  0  0  0  0  0  0  0  0
  146.8631  132.4860  151.6020 H   0  0  0  0  0  0  0  0  0  0  0  0
  146.7038  132.4999  149.8569 H   0  0  0  0  0  0  0  0  0  0  0  0
  145.6476  134.6574  149.8382 H   0  0  0  0  0  0  0  0  0  0  0  0
  146.9870  134.8098  150.9475 H   0  0  0  0  0  0  0  0  0  0  0  0
  148.3538  137.7324  152.5655 H   0  0  0  0  0  0  0  0  0  0  0  0
  149.8861  138.1836  154.7990 H   0  0  0  0  0  0  0  0  0  0  0  0
  149.8266  142.3754  155.6881 H   0  0  0  0  0  0  0  0  0  0  0  0
  1  2  2  0  0  0  0
  2  3  1  0  0  0  0
  2 11  1  0  0  0  0
  3  4  1  0  0  0  0
  3 24  1  0  0  0  0
  4  5  1  0  0  0  0
  4 25  1  0  0  0  0
  4 26  1  0  0  0  0
  5 10  1  0  0  0  0
  5  6  1  0  0  0  0
  5 27  1  0  0  0  0
  6  7  1  0  0  0  0
  6 28  1  0  0  0  0
  6 29  1  0  0  0  0
  7  8  2  0  0  0  0
  7 30  1  0  0  0  0
  8  9  1  0  0  0  0
  8 31  1  0  0  0  0
  9 10  1  0  0  0  0
  9 32  1  0  0  0  0
  9 33  1  0  0  0  0
 10 34  1  0  0  0  0
 10 35  1  0  0  0  0
 11 12  1  0  0  0  0
 11 36  1  0  0  0  0
 12 21  1  0  0  0  0
 12 13  2  0  0  0  0
 13 14  1  0  0  0  0
 13 37  1  0  0  0  0
 14 15  1  0  0  0  0
 14 19  2  0  0  0  0
 15 16  1  0  0  0  0
 15 17  1  0  0  0  0
 15 18  1  0  0  0  0
 19 20  1  0  0  0  0
 19 38  1  0  0  0  0
 20 23  1  0  0  0  0
 20 21  1  0  0  0  0
 21 22  2  0  0  0  0
M  END
> <s_m_source_file>
AV-unprocessed.smi

> <i_m_source_file_index>
1128

> <i_lp_mmshare_version>
43012

> <i_f3d_flags>
0

> <s_epik_input>
Tz1jMVtuSF1bY0hdYyhDKEYpKEYpRilbY0hdYzFbTkhdQyg9TylbTkhdW0NIMl1bQ0BASF0yW0NIMl1bQ0hdPVtDSF1bQ0gyXVtDSDJdMg==

> <s_epik_cmdline>
J2VwaWtfcHl0aG9uJywgJy1waCcsICc3LjAnLCAnLXRuJywgJzgnLCAnLW1hJywgJzIwMCcsICctbWV0YWxfYmluZGluZycsICctaW1hZScsICc8aW5maWxlLm1hZT4nLCAnLW9tYWUnLCAnPG91dGZpbGUubWFlPic=

> <r_lp_tautomer_probability>
1

> <r_epik_Ionization_Penalty>
0.00381734

> <r_epik_Ionization_Penalty_Charging>
0.00379608

> <r_epik_Ionization_Penalty_Neutral>
2.12611e-05

> <r_epik_State_Penalty>
-0

> <r_epik_Charging_Adjusted_Penalty>
0.00379608

> <i_epik_Tot_Q>
0

> <i_epik_Tot_abs_Q>
0

> <r_epik_Metal_State_Penalty>
0.371155

> <b_epik_Metal_Only>
0

> <s_lp_Force_Field>
OPLS_2005

> <r_lp_Energy>
19.5554

> <b_lp_Chiralities_Consistent>
1

> <s_lp_Variant>
AV-unprocessed.smi:1128-2

> <Gold.Version>
5.8.1

> <Gold.Id.Protein>
6NUR|6NUR_protein|mol2

> <Gold.PLP.Fitness>
43.3414

> <Gold.PLP.PLP>
-36.8125

> <Gold.PLP.part.hbond>
-2.4151

> <Gold.PLP.part.metal>
0.0000

> <Gold.PLP.part.buried>
-4.2580

> <Gold.PLP.part.nonpolar>
-31.7480

> <Gold.PLP.part.repulsive>
1.5619

> <Gold.PLP.ligand.clash>
1.0862

> <Gold.PLP.ligand.torsion>
0.6295

> <Gold.PLP.Chemscore.Hbond>
1.9440

> <Gold.PLP.Chemscore.CHOScore>
1.0000

> <Gold.PLP.Chemscore.Metal>
0.0000

> <Gold.Chemscore.Hbonds>
donor molecule, donor type, donor heavy atom, donor atom, acceptor molecule, acceptor atom, score
      L1  H     3    24       P1  7948  0.94
      L1  H    11    36       P1  7948  1.00
      L1  C    19    38       P1  8028  1.00

> <Gold.PLP.Chemscore.Internal.Correction>
0.0421

> <Gold.Rescore>
     Score         DG    S(hbond)    S(metal)    S(lipo)     H(rot)  DE(clash)    DE(int)     intcor
     16.76     -17.54       2.23        0.00      68.00       1.30       0.04       0.73       ----

> <Gold.Chemscore.Fitness>
16.7641

> <Gold.Chemscore.DG>
-17.5354

> <Gold.Chemscore.ZeroCoef>
-5.4800

> <Gold.Chemscore.Hbond>
2.2268

> <Gold.Chemscore.Metal>
0.0000

> <Gold.Chemscore.Lipo>
67.9981

> <Gold.Chemscore.Internal_Hbond>
0.0000

> <Gold.Chemscore.DEClash>
0.0383

> <Gold.Chemscore.DEInternal>
0.7330

> <Gold.Chemscore.Rot>
1.3038

> <Gold.Chemscore.Internal.Correction>
   9.000000E+99

> <Gold.Chemscore.Hbonds>
donor molecule, donor type, donor heavy atom, donor atom, acceptor molecule, acceptor atom, score
      L1  H     3    24       P1  7948  0.91
      L1  H    11    36       P1  7948  0.99

> <Gold.Chemscore.Hbond.Weighted>
-7.4374

> <Gold.Chemscore.Metal.Weighted>
-0.0000

> <Gold.Chemscore.Lipo.Weighted>
-7.9558

> <Gold.Chemscore.Internal_Hbond.Weighted>
0.0000

> <Gold.Chemscore.DEClash.Weighted>
0.0383

> <Gold.Chemscore.DEInternal.Weighted>
0.7330

> <Gold.Chemscore.Rot.Weighted>
3.3377

> <Gold.Chemscore.Internal.Correction.Weighted>
   9.000000E+99

> <Gold.Protein.RotatedTorsions>
[ 6907 6896 6895 6894 ] final -145.32 input  -60.11 | X-H torsion
[ 7974 7965 7964 7962 ] final   36.58 input  175.53 | X-H torsion
[ 8008 7997 7996 7995 ] final  153.87 input   59.86 | X-H torsion
[ 10167 10162 10161 10158 ] final  170.99 input  -65.29 | X-H torsion
[ 10718 10713 10712 10709 ] final  -37.88 input   66.30 | X-H torsion
[ 10763 10752 10751 10750 ] final  -12.55 input  -60.55 | X-H torsion
[ 11005 11000 10999 10996 ] final  174.26 input  -57.11 | X-H torsion

> <Gold.Protein.ActiveResidues>
 VAL166  LYS551  ARG553  GLY616  TRP617  ASP618  TYR619  PRO620  LYS621  CYS622 
 ASP623  PHE694  ASN695  SER759  ASP760  ASP761  ALA762  ILE779  LEU786  VAL792 
 PHE793  MET794  SER795  GLU796  ALA797  LYS798  CYS799  TRP800  GLU811  SER814 

> <Gold.Protein.RotatedAtoms>
  151.1261  133.5069  159.2600 H   0  0  0  0  0  0  0  0  0  0  0  0  # atno 6907 bound_to 6896
  151.1808  135.0359  159.8801 H   0  0  0  0  0  0  0  0  0  0  0  0  # atno 6908 bound_to 6896
  152.5458  134.1113  159.8413 H   0  0  0  0  0  0  0  0  0  0  0  0  # atno 6909 bound_to 6896
  146.1201  139.6000  142.9295 H   0  0  0  0  0  0  0  0  0  0  0  0  # atno 7974 bound_to 7965
  156.2560  140.1982  156.6557 H   0  0  0  0  0  0  0  0  0  0  0  0  # atno 8008 bound_to 7997
  154.6502  140.0573  156.9972 H   0  0  0  0  0  0  0  0  0  0  0  0  # atno 8009 bound_to 7997
  155.1429  140.3244  155.4451 H   0  0  0  0  0  0  0  0  0  0  0  0  # atno 8010 bound_to 7997
  139.5034  144.3536  151.9897 H   0  0  0  0  0  0  0  0  0  0  0  0  # atno 10167 bound_to 10162
  156.3102  130.4251  149.8058 H   0  0  0  0  0  0  0  0  0  0  0  0  # atno 10718 bound_to 10713
  153.5001  135.7017  153.5836 H   0  0  0  0  0  0  0  0  0  0  0  0  # atno 10763 bound_to 10752
  153.3971  135.3881  155.1963 H   0  0  0  0  0  0  0  0  0  0  0  0  # atno 10764 bound_to 10752
  154.8711  135.3872  154.4471 H   0  0  0  0  0  0  0  0  0  0  0  0  # atno 10765 bound_to 10752
  140.3494  134.7208  157.4257 H   0  0  0  0  0  0  0  0  0  0  0  0  # atno 11005 bound_to 11000
  145.5484  141.0415  143.2292 LP  0  0  0  0  0  0  0  0  0  0  0  0  # atno 17320 bound_to 7965
  144.7589  139.7006  143.7242 LP  0  0  0  0  0  0  0  0  0  0  0  0  # atno 17321 bound_to 7965
  140.2972  144.3687  150.6071 LP  0  0  0  0  0  0  0  0  0  0  0  0  # atno 17342 bound_to 10162
  140.5901  143.2168  151.7269 LP  0  0  0  0  0  0  0  0  0  0  0  0  # atno 17343 bound_to 10162
  156.5404  130.8297  151.3267 LP  0  0  0  0  0  0  0  0  0  0  0  0  # atno 17370 bound_to 10713
  157.7389  130.9822  150.2280 LP  0  0  0  0  0  0  0  0  0  0  0  0  # atno 17371 bound_to 10713
  140.0715  134.5855  155.8636 LP  0  0  0  0  0  0  0  0  0  0  0  0  # atno 17394 bound_to 11000
  141.2016  133.6620  156.5961 LP  0  0  0  0  0  0  0  0  0  0  0  0  # atno 17395 bound_to 11000

$$$$
