AV-unprocessed.smi:2819|AV-procd|sdf|10851|dock6
  -GOLD-   2272015293D 1   1.00000     0.00000
 Structure written by MMmdl.
 51 52  0  0  0  0  0  0  0  0  3 V2000
  151.6769  140.1421  158.0300 C   0  0  0  0  0  0  0  0  0  0  0  0
  151.0430  141.1500  157.1859 N   0  0  0  0  0  0  0  0  0  0  0  0
  151.1041  142.5579  157.5582 C   0  0  0  0  0  0  0  0  0  0  0  0
  150.3224  140.7539  156.0375 C   0  0  0  0  0  0  0  0  0  0  0  0
  149.6532  141.6821  155.2118 C   0  0  0  0  0  0  0  0  0  0  0  0
  148.9679  141.1742  154.0943 C   0  0  0  0  0  0  0  0  0  0  0  0
  148.9601  139.8440  153.8388 N   0  3  0  0  0  0  0  0  0  0  0  0
  149.6125  139.0015  154.6547 C   0  0  0  0  0  0  0  0  0  0  0  0
  149.5546  137.6619  154.3342 N   0  0  0  0  0  0  0  0  0  0  0  0
  149.3481  136.5858  155.1181 C   0  0  0  0  0  0  0  0  0  0  0  0
  149.1908  136.6135  156.3392 O   0  0  0  0  0  0  0  0  0  0  0  0
  149.3322  135.4521  154.3998 N   0  0  0  0  0  0  0  0  0  0  0  0
  149.1619  134.1041  154.9432 C   0  0  0  0  0  0  0  0  0  0  0  0
  148.2314  133.1943  154.0841 C   0  0  0  0  0  0  0  0  0  0  0  0
  149.0601  132.1142  153.3443 C   0  0  0  0  0  0  0  0  0  0  0  0
  147.2552  132.4255  155.0096 C   0  0  0  0  0  0  0  0  0  0  0  0
  147.4496  134.0028  153.0792 N   0  3  0  0  0  0  0  0  0  0  0  0
  146.8068  133.2269  151.9804 C   0  0  0  0  0  0  0  0  0  0  0  0
  146.2013  134.1727  150.9297 C   0  0  0  0  0  0  0  0  0  0  0  0
  145.2606  135.0367  151.5503 O   0  0  0  0  0  0  0  0  0  0  0  0
  145.8723  135.8543  152.5372 C   0  0  0  0  0  0  0  0  0  0  0  0
  146.4668  134.9703  153.6465 C   0  0  0  0  0  0  0  0  0  0  0  0
  150.2823  139.4366  155.7336 N   0  0  0  0  0  0  0  0  0  0  0  0
  150.9286  139.4729  158.4556 H   0  0  0  0  0  0  0  0  0  0  0  0
  152.2238  140.6003  158.8542 H   0  0  0  0  0  0  0  0  0  0  0  0
  152.3848  139.5471  157.4519 H   0  0  0  0  0  0  0  0  0  0  0  0
  150.1009  142.9603  157.7014 H   0  0  0  0  0  0  0  0  0  0  0  0
  151.6069  143.1383  156.7843 H   0  0  0  0  0  0  0  0  0  0  0  0
  151.6535  142.6987  158.4892 H   0  0  0  0  0  0  0  0  0  0  0  0
  149.6540  142.7441  155.4075 H   0  0  0  0  0  0  0  0  0  0  0  0
  148.4235  141.7911  153.3944 H   0  0  0  0  0  0  0  0  0  0  0  0
  149.6830  137.4599  153.3539 H   0  0  0  0  0  0  0  0  0  0  0  0
  149.4658  135.5199  153.4011 H   0  0  0  0  0  0  0  0  0  0  0  0
  150.1617  133.6754  155.0018 H   0  0  0  0  0  0  0  0  0  0  0  0
  148.8072  134.1666  155.9722 H   0  0  0  0  0  0  0  0  0  0  0  0
  149.4717  131.3758  154.0329 H   0  0  0  0  0  0  0  0  0  0  0  0
  149.9112  132.5374  152.8110 H   0  0  0  0  0  0  0  0  0  0  0  0
  148.4492  131.5684  152.6242 H   0  0  0  0  0  0  0  0  0  0  0  0
  147.7740  131.6813  155.6146 H   0  0  0  0  0  0  0  0  0  0  0  0
  146.4961  131.8946  154.4337 H   0  0  0  0  0  0  0  0  0  0  0  0
  146.7443  133.0829  155.7127 H   0  0  0  0  0  0  0  0  0  0  0  0
  147.5215  132.5821  151.4731 H   0  0  0  0  0  0  0  0  0  0  0  0
  146.0203  132.5861  152.3793 H   0  0  0  0  0  0  0  0  0  0  0  0
  146.9790  134.7547  150.4325 H   0  0  0  0  0  0  0  0  0  0  0  0
  145.6923  133.5967  150.1565 H   0  0  0  0  0  0  0  0  0  0  0  0
  146.6410  136.4827  152.0841 H   0  0  0  0  0  0  0  0  0  0  0  0
  145.1199  136.5240  152.9542 H   0  0  0  0  0  0  0  0  0  0  0  0
  145.6604  134.4389  154.1517 H   0  0  0  0  0  0  0  0  0  0  0  0
  146.9282  135.6285  154.3800 H   0  0  0  0  0  0  0  0  0  0  0  0
  148.4551  139.4980  153.0224 H   0  0  0  0  0  0  0  0  0  0  0  0
  148.1447  134.5761  152.6224 H   0  0  0  0  0  0  0  0  0  0  0  0
  1  2  1  0  0  0  0
  1 24  1  0  0  0  0
  1 25  1  0  0  0  0
  1 26  1  0  0  0  0
  2  3  1  0  0  0  0
  2  4  1  0  0  0  0
  3 27  1  0  0  0  0
  3 28  1  0  0  0  0
  3 29  1  0  0  0  0
  4 23  1  0  0  0  0
  4  5  2  0  0  0  0
  5  6  1  0  0  0  0
  5 30  1  0  0  0  0
  6  7  2  0  0  0  0
  6 31  1  0  0  0  0
  7  8  1  0  0  0  0
  7 50  1  0  0  0  0
  8  9  1  0  0  0  0
  8 23  2  0  0  0  0
  9 10  1  0  0  0  0
  9 32  1  0  0  0  0
 10 11  2  0  0  0  0
 10 12  1  0  0  0  0
 12 13  1  0  0  0  0
 12 33  1  0  0  0  0
 13 14  1  0  0  0  0
 13 34  1  0  0  0  0
 13 35  1  0  0  0  0
 14 15  1  0  0  0  0
 14 16  1  0  0  0  0
 14 17  1  0  0  0  0
 15 36  1  0  0  0  0
 15 37  1  0  0  0  0
 15 38  1  0  0  0  0
 16 39  1  0  0  0  0
 16 40  1  0  0  0  0
 16 41  1  0  0  0  0
 17 22  1  0  0  0  0
 17 18  1  0  0  0  0
 17 51  1  0  0  0  0
 18 19  1  0  0  0  0
 18 42  1  0  0  0  0
 18 43  1  0  0  0  0
 19 20  1  0  0  0  0
 19 44  1  0  0  0  0
 19 45  1  0  0  0  0
 20 21  1  0  0  0  0
 21 22  1  0  0  0  0
 21 46  1  0  0  0  0
 21 47  1  0  0  0  0
 22 48  1  0  0  0  0
 22 49  1  0  0  0  0
M  CHG  1   7   1
M  CHG  1  17   1
M  END
> <s_m_source_file>
AV-unprocessed.smi

> <i_m_source_file_index>
2819

> <i_lp_mmshare_version>
43012

> <i_f3d_flags>
0

> <s_epik_input>
W0NIM11OKFtDSDNdKWMxW2NIXVtjSF1uYyhuMSlbTkhdQyg9TylbTkhdW0NIMl1DKFtDSDNdKShbQ0gzXSlOMltDSDJdW0NIMl1PW0NIMl1bQ0gyXTI=

> <s_epik_cmdline>
J2VwaWtfcHl0aG9uJywgJy1waCcsICc3LjAnLCAnLXRuJywgJzgnLCAnLW1hJywgJzIwMCcsICctbWV0YWxfYmluZGluZycsICctaW1hZScsICc8aW5maWxlLm1hZT4nLCAnLW9tYWUnLCAnPG91dGZpbGUubWFlPic=

> <r_lp_tautomer_probability>
0.999336

> <r_epik_Ionization_Penalty>
0.713728

> <r_epik_Ionization_Penalty_Charging>
0.713701

> <r_epik_Ionization_Penalty_Neutral>
2.70516e-05

> <r_epik_State_Penalty>
0.725459

> <r_epik_Charging_Adjusted_Penalty>
1.43916

> <i_epik_Tot_Q>
2

> <i_epik_Tot_abs_Q>
2

> <r_epik_Metal_State_Penalty>
1.06371

> <b_epik_Metal_Only>
0

> <s_lp_Force_Field>
OPLS_2005

> <r_lp_Energy>
33.0145

> <b_lp_Chiralities_Consistent>
1

> <s_lp_Variant>
AV-unprocessed.smi:2819-2

> <Gold.Version>
5.8.1

> <Gold.Id.Protein>
6NUR|6NUR_protein|mol2

> <Gold.PLP.Fitness>
42.5756

> <Gold.PLP.PLP>
-34.0073

> <Gold.PLP.part.hbond>
-4.0000

> <Gold.PLP.part.metal>
0.0000

> <Gold.PLP.part.buried>
-1.5740

> <Gold.PLP.part.nonpolar>
-27.4009

> <Gold.PLP.part.repulsive>
0.3606

> <Gold.PLP.ligand.clash>
0.0000

> <Gold.PLP.ligand.torsion>
1.6768

> <Gold.PLP.Chemscore.Hbond>
3.9341

> <Gold.PLP.Chemscore.CHOScore>
0.0000

> <Gold.PLP.Chemscore.Metal>
0.0000

> <Gold.Chemscore.Hbonds>
donor molecule, donor type, donor heavy atom, donor atom, acceptor molecule, acceptor atom, score
      L1  H     7    50       P1  7957  0.09
      L1  H     9    32       P1  7948  0.85
      L1  H    12    33       P1  7948  0.85
      L1  H    17    51       P1  7948  2.00

> <Gold.PLP.Chemscore.Internal.Correction>
0.1196

> <Gold.Rescore>
     Score         DG    S(hbond)    S(metal)    S(lipo)     H(rot)  DE(clash)    DE(int)     intcor
     14.38     -15.99       2.19        0.00      61.64       1.57       0.17       1.44       ----

> <Gold.Chemscore.Fitness>
14.3816

> <Gold.Chemscore.DG>
-15.9920

> <Gold.Chemscore.ZeroCoef>
-5.4800

> <Gold.Chemscore.Hbond>
2.1924

> <Gold.Chemscore.Metal>
0.0000

> <Gold.Chemscore.Lipo>
61.6406

> <Gold.Chemscore.Internal_Hbond>
0.0000

> <Gold.Chemscore.DEClash>
0.1706

> <Gold.Chemscore.DEInternal>
1.4399

> <Gold.Chemscore.Rot>
1.5713

> <Gold.Chemscore.Internal.Correction>
   9.000000E+99

> <Gold.Chemscore.Hbonds>
donor molecule, donor type, donor heavy atom, donor atom, acceptor molecule, acceptor atom, score
      L1  H     7    50       P1  7957  0.09
      L1  H     9    32       P1  7948  0.58
      L1  H    12    33       P1  7948  0.14
      L1  H    17    51       P1  7948  0.44

> <Gold.Chemscore.Hbond.Weighted>
-7.3226

> <Gold.Chemscore.Metal.Weighted>
-0.0000

> <Gold.Chemscore.Lipo.Weighted>
-7.2120

> <Gold.Chemscore.Internal_Hbond.Weighted>
0.0000

> <Gold.Chemscore.DEClash.Weighted>
0.1706

> <Gold.Chemscore.DEInternal.Weighted>
1.4399

> <Gold.Chemscore.Rot.Weighted>
4.0225

> <Gold.Chemscore.Internal.Correction.Weighted>
   9.000000E+99

> <Gold.Protein.RotatedTorsions>
[ 6907 6896 6895 6894 ] final  -50.75 input  -60.11 | X-H torsion
[ 7974 7965 7964 7962 ] final  -80.61 input  175.53 | X-H torsion
[ 8008 7997 7996 7995 ] final -167.70 input   59.86 | X-H torsion
[ 10167 10162 10161 10158 ] final  -60.62 input  -65.29 | X-H torsion
[ 10718 10713 10712 10709 ] final   12.24 input   66.30 | X-H torsion
[ 10763 10752 10751 10750 ] final   28.08 input  -60.55 | X-H torsion
[ 11005 11000 10999 10996 ] final  -68.39 input  -57.11 | X-H torsion

> <Gold.Protein.ActiveResidues>
 VAL166  LYS551  ARG553  GLY616  TRP617  ASP618  TYR619  PRO620  LYS621  CYS622 
 ASP623  PHE694  ASN695  SER759  ASP760  ASP761  ALA762  ILE779  LEU786  VAL792 
 PHE793  MET794  SER795  GLU796  ALA797  LYS798  CYS799  TRP800  GLU811  SER814 

> <Gold.Protein.RotatedAtoms>
  150.8677  134.8044  159.7130 H   0  0  0  0  0  0  0  0  0  0  0  0  # atno 6907 bound_to 6896
  152.4692  134.4997  159.9731 H   0  0  0  0  0  0  0  0  0  0  0  0  # atno 6908 bound_to 6896
  151.5091  133.3450  159.2917 H   0  0  0  0  0  0  0  0  0  0  0  0  # atno 6909 bound_to 6896
  145.5576  140.9487  143.1465 H   0  0  0  0  0  0  0  0  0  0  0  0  # atno 7974 bound_to 7965
  155.8813  140.1009  157.1483 H   0  0  0  0  0  0  0  0  0  0  0  0  # atno 8008 bound_to 7997
  154.4005  140.1328  156.4263 H   0  0  0  0  0  0  0  0  0  0  0  0  # atno 8009 bound_to 7997
  155.7640  140.3462  155.5215 H   0  0  0  0  0  0  0  0  0  0  0  0  # atno 8010 bound_to 7997
  140.6059  143.2373  151.5821 H   0  0  0  0  0  0  0  0  0  0  0  0  # atno 10167 bound_to 10162
  157.0072  130.6103  149.5703 H   0  0  0  0  0  0  0  0  0  0  0  0  # atno 10718 bound_to 10713
  153.0515  135.6522  154.0683 H   0  0  0  0  0  0  0  0  0  0  0  0  # atno 10763 bound_to 10752
  154.0370  135.2906  155.3362 H   0  0  0  0  0  0  0  0  0  0  0  0  # atno 10764 bound_to 10752
  154.6805  135.5321  153.8324 H   0  0  0  0  0  0  0  0  0  0  0  0  # atno 10765 bound_to 10752
  141.1531  133.6740  156.6439 H   0  0  0  0  0  0  0  0  0  0  0  0  # atno 11005 bound_to 11000
  144.7499  139.7222  143.7277 LP  0  0  0  0  0  0  0  0  0  0  0  0  # atno 17320 bound_to 7965
  146.1873  139.5096  142.9827 LP  0  0  0  0  0  0  0  0  0  0  0  0  # atno 17321 bound_to 7965
  139.5325  144.2875  152.1179 LP  0  0  0  0  0  0  0  0  0  0  0  0  # atno 17342 bound_to 10162
  140.2065  144.4606  150.6406 LP  0  0  0  0  0  0  0  0  0  0  0  0  # atno 17343 bound_to 10162
  156.0149  130.5243  150.8104 LP  0  0  0  0  0  0  0  0  0  0  0  0  # atno 17370 bound_to 10713
  157.5347  131.0938  150.9908 LP  0  0  0  0  0  0  0  0  0  0  0  0  # atno 17371 bound_to 10713
  140.3372  134.7879  157.4371 LP  0  0  0  0  0  0  0  0  0  0  0  0  # atno 17394 bound_to 11000
  140.0968  134.5527  155.8391 LP  0  0  0  0  0  0  0  0  0  0  0  0  # atno 17395 bound_to 11000

$$$$
