AV-unprocessed.smi:718|AV-procd|sdf|3491|dock2
  -GOLD-   22720 0483D 1   1.00000     0.00000
 Structure written by MMmdl.
 27 28  0  0  0  0  0  0  0  0  1 V2000
  152.9444  139.0866  156.0323 O   0  0  0  0  0  0  0  0  0  0  0  0
  152.0590  139.9184  156.2343 C   0  0  0  0  0  0  0  0  0  0  0  0
  151.9112  140.6035  157.3848 N   0  0  0  0  0  0  0  0  0  0  0  0
  152.7132  140.5492  158.5552 C   0  0  0  0  0  0  0  0  0  0  0  0
  152.4202  141.5321  159.5269 C   0  0  0  0  0  0  0  0  0  0  0  0
  153.1590  141.5661  160.7259 C   0  0  0  0  0  0  0  0  0  0  0  0
  152.8079  142.7640  161.9201 Cl  0  0  0  0  0  0  0  0  0  0  0  0
  154.1765  140.6106  160.9220 C   0  0  0  0  0  0  0  0  0  0  0  0
  155.1291  140.5819  162.3626 Cl  0  0  0  0  0  0  0  0  0  0  0  0
  154.4023  139.6667  159.9030 C   0  0  0  0  0  0  0  0  0  0  0  0
  153.6945  139.6343  158.7543 N   0  0  0  0  0  0  0  0  0  0  0  0
  151.0154  140.2074  155.1441 C   0  0  2  0  0  0  0  0  0  0  0  0
  150.2295  141.5152  155.3963 C   0  0  0  0  0  0  0  0  0  0  0  0
  149.2634  141.6900  154.3681 O   0  0  0  0  0  0  0  0  0  0  0  0
  148.3458  140.6063  154.3289 C   0  0  0  0  0  0  0  0  0  0  0  0
  149.1218  139.3061  154.0647 C   0  0  0  0  0  0  0  0  0  0  0  0
  150.0864  139.1263  155.0929 O   0  0  0  0  0  0  0  0  0  0  0  0
  151.1363  141.2499  157.4164 H   0  0  0  0  0  0  0  0  0  0  0  0
  151.6361  142.2561  159.3581 H   0  0  0  0  0  0  0  0  0  0  0  0
  155.1713  138.9160  160.0110 H   0  0  0  0  0  0  0  0  0  0  0  0
  151.5439  140.2728  154.1914 H   0  0  0  0  0  0  0  0  0  0  0  0
  149.7385  141.5007  156.3710 H   0  0  0  0  0  0  0  0  0  0  0  0
  150.8979  142.3768  155.3859 H   0  0  0  0  0  0  0  0  0  0  0  0
  147.7912  140.5459  155.2666 H   0  0  0  0  0  0  0  0  0  0  0  0
  147.6193  140.7829  153.5358 H   0  0  0  0  0  0  0  0  0  0  0  0
  148.4424  138.4535  154.0607 H   0  0  0  0  0  0  0  0  0  0  0  0
  149.6101  139.3340  153.0893 H   0  0  0  0  0  0  0  0  0  0  0  0
  1  2  2  0  0  0  0
  2  3  1  0  0  0  0
  2 12  1  0  0  0  0
  3  4  1  0  0  0  0
  3 18  1  0  0  0  0
  4 11  1  0  0  0  0
  4  5  2  0  0  0  0
  5  6  1  0  0  0  0
  5 19  1  0  0  0  0
  6  7  1  0  0  0  0
  6  8  2  0  0  0  0
  8  9  1  0  0  0  0
  8 10  1  0  0  0  0
 10 11  2  0  0  0  0
 10 20  1  0  0  0  0
 12 17  1  0  0  0  0
 12 13  1  0  0  0  0
 12 21  1  0  0  0  0
 13 14  1  0  0  0  0
 13 22  1  0  0  0  0
 13 23  1  0  0  0  0
 14 15  1  0  0  0  0
 15 16  1  0  0  0  0
 15 24  1  0  0  0  0
 15 25  1  0  0  0  0
 16 17  1  0  0  0  0
 16 26  1  0  0  0  0
 16 27  1  0  0  0  0
M  END
> <s_m_source_file>
AV-unprocessed.smi

> <i_m_source_file_index>
718

> <i_lp_mmshare_version>
43012

> <i_f3d_flags>
0

> <s_epik_input>
TzFbQ0gyXVtDSDJdT1tDSDJdW0NASF0xQyg9TylbTkhdYzJbY0hdYyhDbCljKENsKVtjSF1uMg==

> <s_epik_cmdline>
J2VwaWtfcHl0aG9uJywgJy1waCcsICc3LjAnLCAnLXRuJywgJzgnLCAnLW1hJywgJzIwMCcsICctbWV0YWxfYmluZGluZycsICctaW1hZScsICc8aW5maWxlLm1hZT4nLCAnLW9tYWUnLCAnPG91dGZpbGUubWFlPic=

> <r_lp_tautomer_probability>
1

> <r_epik_Ionization_Penalty>
4.81693e-06

> <r_epik_Ionization_Penalty_Charging>
0

> <r_epik_Ionization_Penalty_Neutral>
4.81693e-06

> <r_epik_State_Penalty>
-0

> <r_epik_Charging_Adjusted_Penalty>
0

> <i_epik_Tot_Q>
0

> <i_epik_Tot_abs_Q>
0

> <r_epik_Metal_State_Penalty>
-0

> <b_epik_Metal_Only>
0

> <s_lp_Force_Field>
OPLS_2005

> <r_lp_Energy>
11.6855

> <b_lp_Chiralities_Consistent>
1

> <s_lp_Variant>
AV-unprocessed.smi:718-1

> <Gold.Version>
5.8.1

> <Gold.Id.Protein>
6NUR|6NUR_protein|mol2

> <Gold.PLP.Fitness>
36.3865

> <Gold.PLP.PLP>
-32.1033

> <Gold.PLP.part.hbond>
-3.5502

> <Gold.PLP.part.metal>
0.0000

> <Gold.PLP.part.buried>
2.5918

> <Gold.PLP.part.nonpolar>
-29.5461

> <Gold.PLP.part.repulsive>
0.3597

> <Gold.PLP.ligand.clash>
0.0000

> <Gold.PLP.ligand.torsion>
0.4234

> <Gold.PLP.Chemscore.Hbond>
1.7094

> <Gold.PLP.Chemscore.CHOScore>
0.0000

> <Gold.PLP.Chemscore.Metal>
0.0000

> <Gold.Chemscore.Hbonds>
donor molecule, donor type, donor heavy atom, donor atom, acceptor molecule, acceptor atom, score
      P1  H  7997  8008       L1    11  0.94
      P1  H  7997  8009       L1     1  0.48
      P1  H  8011  8017       L1    14  0.27

> <Gold.PLP.Chemscore.Internal.Correction>
0.0018

> <Gold.Rescore>
     Score         DG    S(hbond)    S(metal)    S(lipo)     H(rot)  DE(clash)    DE(int)     intcor
     11.92     -15.38       0.87        0.00      81.77       1.00       1.75       1.71       ----

> <Gold.Chemscore.Fitness>
11.9214

> <Gold.Chemscore.DG>
-15.3785

> <Gold.Chemscore.ZeroCoef>
-5.4800

> <Gold.Chemscore.Hbond>
0.8656

> <Gold.Chemscore.Metal>
0.0000

> <Gold.Chemscore.Lipo>
81.7716

> <Gold.Chemscore.Internal_Hbond>
0.0000

> <Gold.Chemscore.DEClash>
1.7490

> <Gold.Chemscore.DEInternal>
1.7081

> <Gold.Chemscore.Rot>
1.0000

> <Gold.Chemscore.Internal.Correction>
   9.000000E+99

> <Gold.Chemscore.Hbonds>
donor molecule, donor type, donor heavy atom, donor atom, acceptor molecule, acceptor atom, score
      P1  H  7997  8008       L1    11  0.19
      P1  H  7997  8009       L1     1  0.21
      P1  H  8011  8017       L1    14  0.23

> <Gold.Chemscore.Hbond.Weighted>
-2.8912

> <Gold.Chemscore.Metal.Weighted>
-0.0000

> <Gold.Chemscore.Lipo.Weighted>
-9.5673

> <Gold.Chemscore.Internal_Hbond.Weighted>
0.0000

> <Gold.Chemscore.DEClash.Weighted>
1.7490

> <Gold.Chemscore.DEInternal.Weighted>
1.7081

> <Gold.Chemscore.Rot.Weighted>
2.5600

> <Gold.Chemscore.Internal.Correction.Weighted>
   9.000000E+99

> <Gold.Protein.RotatedTorsions>
[ 6907 6896 6895 6894 ] final  -19.71 input  -60.11 | X-H torsion
[ 7974 7965 7964 7962 ] final  -78.49 input  175.53 | X-H torsion
[ 8008 7997 7996 7995 ] final -119.52 input   59.86 | X-H torsion
[ 10167 10162 10161 10158 ] final  -17.14 input  -65.29 | X-H torsion
[ 10718 10713 10712 10709 ] final   78.11 input   66.30 | X-H torsion
[ 10763 10752 10751 10750 ] final   54.76 input  -60.55 | X-H torsion
[ 11005 11000 10999 10996 ] final -168.25 input  -57.11 | X-H torsion

> <Gold.Protein.ActiveResidues>
 VAL166  LYS551  ARG553  GLY616  TRP617  ASP618  TYR619  PRO620  LYS621  CYS622 
 ASP623  PHE694  ASN695  SER759  ASP760  ASP761  ALA762  ILE779  LEU786  VAL792 
 PHE793  MET794  SER795  GLU796  ALA797  LYS798  CYS799  TRP800  GLU811  SER814 

> <Gold.Protein.RotatedAtoms>
  151.2590  135.0647  159.9090 H   0  0  0  0  0  0  0  0  0  0  0  0  # atno 6907 bound_to 6896
  152.5369  134.0251  159.8010 H   0  0  0  0  0  0  0  0  0  0  0  0  # atno 6908 bound_to 6896
  151.0471  133.5606  159.2677 H   0  0  0  0  0  0  0  0  0  0  0  0  # atno 6909 bound_to 6896
  145.5858  140.9439  143.1319 H   0  0  0  0  0  0  0  0  0  0  0  0  # atno 7974 bound_to 7965
  155.1171  140.0398  157.2740 H   0  0  0  0  0  0  0  0  0  0  0  0  # atno 8008 bound_to 7997
  154.6642  140.2597  155.7051 H   0  0  0  0  0  0  0  0  0  0  0  0  # atno 8009 bound_to 7997
  156.2632  140.2811  156.1126 H   0  0  0  0  0  0  0  0  0  0  0  0  # atno 8010 bound_to 7997
  140.7243  143.5046  150.9827 H   0  0  0  0  0  0  0  0  0  0  0  0  # atno 10167 bound_to 10162
  157.6734  130.9853  150.1739 H   0  0  0  0  0  0  0  0  0  0  0  0  # atno 10718 bound_to 10713
  152.9808  135.5734  154.4956 H   0  0  0  0  0  0  0  0  0  0  0  0  # atno 10763 bound_to 10752
  154.4484  135.2778  155.1801 H   0  0  0  0  0  0  0  0  0  0  0  0  # atno 10764 bound_to 10752
  154.3439  135.6223  153.5663 H   0  0  0  0  0  0  0  0  0  0  0  0  # atno 10765 bound_to 10752
  140.5441  134.5493  157.5107 H   0  0  0  0  0  0  0  0  0  0  0  0  # atno 11005 bound_to 11000
  144.7373  139.7548  143.7324 LP  0  0  0  0  0  0  0  0  0  0  0  0  # atno 17320 bound_to 7965
  146.1683  139.4823  142.9944 LP  0  0  0  0  0  0  0  0  0  0  0  0  # atno 17321 bound_to 7965
  139.8756  143.7136  152.3162 LP  0  0  0  0  0  0  0  0  0  0  0  0  # atno 17342 bound_to 10162
  139.7401  144.7561  151.0666 LP  0  0  0  0  0  0  0  0  0  0  0  0  # atno 17343 bound_to 10162
  156.2486  130.3698  149.8257 LP  0  0  0  0  0  0  0  0  0  0  0  0  # atno 17370 bound_to 10713
  156.6036  130.8557  151.3438 LP  0  0  0  0  0  0  0  0  0  0  0  0  # atno 17371 bound_to 10713
  139.9489  134.7653  156.0496 LP  0  0  0  0  0  0  0  0  0  0  0  0  # atno 17394 bound_to 11000
  141.1210  133.6613  156.3215 LP  0  0  0  0  0  0  0  0  0  0  0  0  # atno 17395 bound_to 11000

$$$$
