AV-unprocessed.smi:2365|AV-procd|sdf|9421|dock4
  -GOLD-   2272013 53D 1   1.00000     0.00000
 Structure written by MMmdl.
 29 30  0  0  0  0  0  0  0  0  1 V2000
  148.5111  140.4115  154.4124 C   0  0  0  0  0  0  0  0  0  0  0  0
  149.7699  139.5422  154.3276 C   0  0  2  0  0  0  0  0  0  0  0  0
  149.6931  138.2522  155.1362 C   0  0  0  0  0  0  0  0  0  0  0  0
  151.1580  137.8918  155.2802 C   0  0  0  0  0  0  0  0  0  0  0  0
  151.8669  139.2586  155.2909 C   0  0  2  0  0  0  0  0  0  0  0  0
  152.4114  139.6686  156.6645 C   0  0  0  0  0  0  0  0  0  0  0  0
  153.2404  138.9575  157.2325 O   0  0  0  0  0  0  0  0  0  0  0  0
  151.9288  140.8221  157.1606 N   0  0  0  0  0  0  0  0  0  0  0  0
  152.2429  141.4549  158.3957 C   0  0  0  0  0  0  0  0  0  0  0  0
  152.7896  140.7657  159.5066 C   0  0  0  0  0  0  0  0  0  0  0  0
  153.0698  141.3576  160.6870 N   0  0  0  0  0  0  0  0  0  0  0  0
  152.8072  142.6745  160.8134 C   0  0  0  0  0  0  0  0  0  0  0  0
  152.2491  143.4550  159.7825 C   0  0  0  0  0  0  0  0  0  0  0  0
  151.9377  145.1346  160.0432 Cl  0  0  0  0  0  0  0  0  0  0  0  0
  151.9558  142.8314  158.5501 C   0  0  0  0  0  0  0  0  0  0  0  0
  151.2625  143.7419  157.2507 Cl  0  0  0  0  0  0  0  0  0  0  0  0
  150.8804  140.2139  154.9037 O   0  0  0  0  0  0  0  0  0  0  0  0
  147.6471  139.8907  153.9990 H   0  0  0  0  0  0  0  0  0  0  0  0
  148.6412  141.3383  153.8532 H   0  0  0  0  0  0  0  0  0  0  0  0
  148.2821  140.6753  155.4452 H   0  0  0  0  0  0  0  0  0  0  0  0
  150.0021  139.3143  153.2857 H   0  0  0  0  0  0  0  0  0  0  0  0
  149.2583  138.4423  156.1186 H   0  0  0  0  0  0  0  0  0  0  0  0
  149.1076  137.4738  154.6462 H   0  0  0  0  0  0  0  0  0  0  0  0
  151.3462  137.2827  156.1655 H   0  0  0  0  0  0  0  0  0  0  0  0
  151.4861  137.3155  154.4143 H   0  0  0  0  0  0  0  0  0  0  0  0
  152.6706  139.2587  154.5526 H   0  0  0  0  0  0  0  0  0  0  0  0
  151.3201  141.3449  156.5473 H   0  0  0  0  0  0  0  0  0  0  0  0
  152.9940  139.7066  159.4756 H   0  0  0  0  0  0  0  0  0  0  0  0
  153.0440  143.1180  161.7694 H   0  0  0  0  0  0  0  0  0  0  0  0
  1  2  1  0  0  0  0
  1 18  1  0  0  0  0
  1 19  1  0  0  0  0
  1 20  1  0  0  0  0
  2 17  1  0  0  0  0
  2  3  1  0  0  0  0
  2 21  1  0  0  0  0
  3  4  1  0  0  0  0
  3 22  1  0  0  0  0
  3 23  1  0  0  0  0
  4  5  1  0  0  0  0
  4 24  1  0  0  0  0
  4 25  1  0  0  0  0
  5  6  1  0  0  0  0
  5 17  1  0  0  0  0
  5 26  1  0  0  0  0
  6  7  2  0  0  0  0
  6  8  1  0  0  0  0
  8  9  1  0  0  0  0
  8 27  1  0  0  0  0
  9 15  1  0  0  0  0
  9 10  2  0  0  0  0
 10 11  1  0  0  0  0
 10 28  1  0  0  0  0
 11 12  2  0  0  0  0
 12 13  1  0  0  0  0
 12 29  1  0  0  0  0
 13 14  1  0  0  0  0
 13 15  2  0  0  0  0
 15 16  1  0  0  0  0
M  END
> <s_m_source_file>
AV-unprocessed.smi

> <i_m_source_file_index>
2365

> <i_lp_mmshare_version>
43012

> <i_f3d_flags>
0

> <s_epik_input>
W0NIM11bQ0BASF0xW0NIMl1bQ0gyXVtDQEhdKE8xKUMoPU8pW05IXWMyW2NIXW5bY0hdYyhDbCljMkNs

> <s_epik_cmdline>
J2VwaWtfcHl0aG9uJywgJy1waCcsICc3LjAnLCAnLXRuJywgJzgnLCAnLW1hJywgJzIwMCcsICctbWV0YWxfYmluZGluZycsICctaW1hZScsICc8aW5maWxlLm1hZT4nLCAnLW9tYWUnLCAnPG91dGZpbGUubWFlPic=

> <r_lp_tautomer_probability>
1

> <r_epik_Ionization_Penalty>
7.32461e-06

> <r_epik_Ionization_Penalty_Charging>
0

> <r_epik_Ionization_Penalty_Neutral>
7.32461e-06

> <r_epik_State_Penalty>
-0

> <r_epik_Charging_Adjusted_Penalty>
0

> <i_epik_Tot_Q>
0

> <i_epik_Tot_abs_Q>
0

> <r_epik_Metal_State_Penalty>
-0

> <b_epik_Metal_Only>
0

> <s_lp_Force_Field>
OPLS_2005

> <r_lp_Energy>
23.8837

> <b_lp_Chiralities_Consistent>
1

> <s_lp_Variant>
AV-unprocessed.smi:2365-3

> <Gold.Version>
5.8.1

> <Gold.Id.Protein>
6NUR|6NUR_protein|mol2

> <Gold.PLP.Fitness>
40.6557

> <Gold.PLP.PLP>
-35.1782

> <Gold.PLP.part.hbond>
-2.0000

> <Gold.PLP.part.metal>
0.0000

> <Gold.PLP.part.buried>
-1.1150

> <Gold.PLP.part.nonpolar>
-32.5852

> <Gold.PLP.part.repulsive>
0.1734

> <Gold.PLP.ligand.clash>
0.0000

> <Gold.PLP.ligand.torsion>
0.1043

> <Gold.PLP.Chemscore.Hbond>
1.8928

> <Gold.PLP.Chemscore.CHOScore>
0.0000

> <Gold.PLP.Chemscore.Metal>
0.0000

> <Gold.Chemscore.Hbonds>
donor molecule, donor type, donor heavy atom, donor atom, acceptor molecule, acceptor atom, score
      P1  H  7989  7998       L1    17  1.00
      P1  H  7997  8008       L1     7  0.89

> <Gold.PLP.Chemscore.Internal.Correction>
0.0078

> <Gold.Rescore>
     Score         DG    S(hbond)    S(metal)    S(lipo)     H(rot)  DE(clash)    DE(int)     intcor
     15.08     -16.45       0.41        0.00     104.06       1.00       0.07       1.30       ----

> <Gold.Chemscore.Fitness>
15.0842

> <Gold.Chemscore.DG>
-16.4501

> <Gold.Chemscore.ZeroCoef>
-5.4800

> <Gold.Chemscore.Hbond>
0.4059

> <Gold.Chemscore.Metal>
0.0000

> <Gold.Chemscore.Lipo>
104.0559

> <Gold.Chemscore.Internal_Hbond>
0.0000

> <Gold.Chemscore.DEClash>
0.0665

> <Gold.Chemscore.DEInternal>
1.2994

> <Gold.Chemscore.Rot>
1.0000

> <Gold.Chemscore.Internal.Correction>
   9.000000E+99

> <Gold.Chemscore.Hbonds>
donor molecule, donor type, donor heavy atom, donor atom, acceptor molecule, acceptor atom, score
      P1  H  7989  7998       L1    17  0.08
      P1  H  7997  8008       L1     7  0.17

> <Gold.Chemscore.Hbond.Weighted>
-1.3556

> <Gold.Chemscore.Metal.Weighted>
-0.0000

> <Gold.Chemscore.Lipo.Weighted>
-12.1745

> <Gold.Chemscore.Internal_Hbond.Weighted>
0.0000

> <Gold.Chemscore.DEClash.Weighted>
0.0665

> <Gold.Chemscore.DEInternal.Weighted>
1.2994

> <Gold.Chemscore.Rot.Weighted>
2.5600

> <Gold.Chemscore.Internal.Correction.Weighted>
   9.000000E+99

> <Gold.Protein.RotatedTorsions>
[ 6907 6896 6895 6894 ] final  -93.28 input  -60.11 | X-H torsion
[ 7974 7965 7964 7962 ] final  172.21 input  175.53 | X-H torsion
[ 8008 7997 7996 7995 ] final  -88.95 input   59.86 | X-H torsion
[ 10167 10162 10161 10158 ] final  -48.35 input  -65.29 | X-H torsion
[ 10718 10713 10712 10709 ] final  132.96 input   66.30 | X-H torsion
[ 10763 10752 10751 10750 ] final -123.56 input  -60.55 | X-H torsion
[ 11005 11000 10999 10996 ] final   82.00 input  -57.11 | X-H torsion

> <Gold.Protein.ActiveResidues>
 VAL166  LYS551  ARG553  GLY616  TRP617  ASP618  TYR619  PRO620  LYS621  CYS622 
 ASP623  PHE694  ASN695  SER759  ASP760  ASP761  ALA762  ILE779  LEU786  VAL792 
 PHE793  MET794  SER795  GLU796  ALA797  LYS798  CYS799  TRP800  GLU811  SER814 

> <Gold.Protein.RotatedAtoms>
  150.6920  134.1992  159.4315 H   0  0  0  0  0  0  0  0  0  0  0  0  # atno 6907 bound_to 6896
  151.9959  134.9952  160.0572 H   0  0  0  0  0  0  0  0  0  0  0  0  # atno 6908 bound_to 6896
  152.1624  133.4555  159.4904 H   0  0  0  0  0  0  0  0  0  0  0  0  # atno 6909 bound_to 6896
  144.7274  139.9465  143.6430 H   0  0  0  0  0  0  0  0  0  0  0  0  # atno 7974 bound_to 7965
  154.6809  140.0547  157.0264 H   0  0  0  0  0  0  0  0  0  0  0  0  # atno 8008 bound_to 7997
  155.0953  140.3223  155.4543 H   0  0  0  0  0  0  0  0  0  0  0  0  # atno 8009 bound_to 7997
  156.2693  140.2040  156.6080 H   0  0  0  0  0  0  0  0  0  0  0  0  # atno 8010 bound_to 7997
  140.6735  143.2744  151.4058 H   0  0  0  0  0  0  0  0  0  0  0  0  # atno 10167 bound_to 10162
  157.4819  131.1086  150.9670 H   0  0  0  0  0  0  0  0  0  0  0  0  # atno 10718 bound_to 10713
  154.8710  135.4094  154.2963 H   0  0  0  0  0  0  0  0  0  0  0  0  # atno 10763 bound_to 10752
  153.3830  135.7012  153.6556 H   0  0  0  0  0  0  0  0  0  0  0  0  # atno 10764 bound_to 10752
  153.5371  135.3655  155.2673 H   0  0  0  0  0  0  0  0  0  0  0  0  # atno 10765 bound_to 10752
  139.9078  134.8039  156.2116 H   0  0  0  0  0  0  0  0  0  0  0  0  # atno 11005 bound_to 11000
  146.0744  139.3732  143.0503 LP  0  0  0  0  0  0  0  0  0  0  0  0  # atno 17320 bound_to 7965
  145.7925  140.9808  143.1041 LP  0  0  0  0  0  0  0  0  0  0  0  0  # atno 17321 bound_to 7965
  139.6014  144.1287  152.2202 LP  0  0  0  0  0  0  0  0  0  0  0  0  # atno 17342 bound_to 10162
  140.0672  144.5809  150.7218 LP  0  0  0  0  0  0  0  0  0  0  0  0  # atno 17343 bound_to 10162
  157.0400  130.5745  149.5355 LP  0  0  0  0  0  0  0  0  0  0  0  0  # atno 17370 bound_to 10713
  156.0126  130.5219  150.8037 LP  0  0  0  0  0  0  0  0  0  0  0  0  # atno 17371 bound_to 10713
  141.0462  133.6912  156.1687 LP  0  0  0  0  0  0  0  0  0  0  0  0  # atno 17394 bound_to 11000
  140.6881  134.4695  157.5589 LP  0  0  0  0  0  0  0  0  0  0  0  0  # atno 17395 bound_to 11000

$$$$
