AV-unprocessed.smi:2247|AV-procd|sdf|9091|dock4
  -GOLD-   2272012293D 1   1.00000     0.00000
 Structure written by MMmdl.
 34 35  0  0  0  0  0  0  0  0  1 V2000
  153.1608  142.1233  160.5014 C   0  0  0  0  0  0  0  0  0  0  0  0
  152.6750  142.5881  159.1187 C   0  0  0  0  0  0  0  0  0  0  0  0
  151.8207  143.8634  159.1795 C   0  0  0  0  0  0  0  0  0  0  0  0
  151.9713  141.5233  158.3912 N   0  0  0  0  0  0  0  0  0  0  0  0
  150.6561  141.7321  157.8058 C   0  0  0  0  0  0  0  0  0  0  0  0
  150.1956  140.3348  157.3809 C   0  0  0  0  0  0  0  0  0  0  0  0
  151.4674  139.4772  157.2881 C   0  0  2  0  0  0  0  0  0  0  0  0
  151.2232  138.1539  157.8604 N   0  0  0  0  0  0  0  0  0  0  0  0
  151.3893  136.9842  157.2241 C   0  0  0  0  0  0  0  0  0  0  0  0
  151.7750  136.9325  156.0518 O   0  0  0  0  0  0  0  0  0  0  0  0
  151.0363  135.9314  158.0553 N   0  0  0  0  0  0  0  0  0  0  0  0
  150.5715  134.8362  157.5361 C   0  0  0  0  0  0  0  0  0  0  0  0
  150.3023  134.4482  156.2260 N   0  0  0  0  0  0  0  0  0  0  0  0
  149.8050  133.1753  156.2521 C   0  0  0  0  0  0  0  0  0  0  0  0
  149.7619  132.7761  157.5197 C   0  0  0  0  0  0  0  0  0  0  0  0
  150.2248  133.7707  158.3282 O   0  0  0  0  0  0  0  0  0  0  0  0
  152.4387  140.2908  158.1451 C   0  0  0  0  0  0  0  0  0  0  0  0
  153.5260  139.8475  158.5158 O   0  0  0  0  0  0  0  0  0  0  0  0
  153.7957  142.8805  160.9621 H   0  0  0  0  0  0  0  0  0  0  0  0
  153.7459  141.2061  160.4263 H   0  0  0  0  0  0  0  0  0  0  0  0
  152.3304  141.9397  161.1833 H   0  0  0  0  0  0  0  0  0  0  0  0
  153.5756  142.8448  158.5582 H   0  0  0  0  0  0  0  0  0  0  0  0
  152.3713  144.6801  159.6470 H   0  0  0  0  0  0  0  0  0  0  0  0
  150.9095  143.7060  159.7572 H   0  0  0  0  0  0  0  0  0  0  0  0
  151.5311  144.1907  158.1804 H   0  0  0  0  0  0  0  0  0  0  0  0
  149.9500  142.1821  158.5034 H   0  0  0  0  0  0  0  0  0  0  0  0
  150.7476  142.3892  156.9401 H   0  0  0  0  0  0  0  0  0  0  0  0
  149.5163  139.9397  158.1386 H   0  0  0  0  0  0  0  0  0  0  0  0
  149.6478  140.3560  156.4382 H   0  0  0  0  0  0  0  0  0  0  0  0
  151.8335  139.4291  156.2612 H   0  0  0  0  0  0  0  0  0  0  0  0
  150.9014  138.1257  158.8169 H   0  0  0  0  0  0  0  0  0  0  0  0
  150.4356  134.9788  155.3769 H   0  0  0  0  0  0  0  0  0  0  0  0
  149.5267  132.6778  155.3346 H   0  0  0  0  0  0  0  0  0  0  0  0
  149.4423  131.8571  157.9883 H   0  0  0  0  0  0  0  0  0  0  0  0
  1  2  1  0  0  0  0
  1 19  1  0  0  0  0
  1 20  1  0  0  0  0
  1 21  1  0  0  0  0
  2  3  1  0  0  0  0
  2  4  1  0  0  0  0
  2 22  1  0  0  0  0
  3 23  1  0  0  0  0
  3 24  1  0  0  0  0
  3 25  1  0  0  0  0
  4 17  1  0  0  0  0
  4  5  1  0  0  0  0
  5  6  1  0  0  0  0
  5 26  1  0  0  0  0
  5 27  1  0  0  0  0
  6  7  1  0  0  0  0
  6 28  1  0  0  0  0
  6 29  1  0  0  0  0
  7  8  1  0  0  0  0
  7 17  1  0  0  0  0
  7 30  1  0  0  0  0
  8 31  1  0  0  0  0
  8  9  1  0  0  0  0
  9 11  1  0  0  0  0
  9 10  2  0  0  0  0
 11 12  2  0  0  0  0
 12 16  1  0  0  0  0
 12 13  1  0  0  0  0
 13 32  1  0  0  0  0
 13 14  1  0  0  0  0
 14 33  1  0  0  0  0
 14 15  2  0  0  0  0
 15 34  1  0  0  0  0
 15 16  1  0  0  0  0
 17 18  2  0  0  0  0
M  END
> <s_m_source_file>
AV-unprocessed.smi

> <i_m_source_file_index>
2247

> <i_lp_mmshare_version>
43012

> <i_f3d_flags>
0

> <s_epik_input>
W0NIM11bQ0hdKFtDSDNdKU4xW0NIMl1bQ0gyXVtDQEhdKEMxPU8pW05IXUMoPU8pW05IXWMybltjSF1bY0hdbzI=

> <s_epik_cmdline>
J2VwaWtfcHl0aG9uJywgJy1waCcsICc3LjAnLCAnLXRuJywgJzgnLCAnLW1hJywgJzIwMCcsICctbWV0YWxfYmluZGluZycsICctaW1hZScsICc8aW5maWxlLm1hZT4nLCAnLW9tYWUnLCAnPG91dGZpbGUubWFlPic=

> <r_lp_tautomer_probability>
0.107061

> <r_epik_Ionization_Penalty>
0.180736

> <r_epik_Ionization_Penalty_Charging>
0.180388

> <r_epik_Ionization_Penalty_Neutral>
0.000348501

> <r_epik_State_Penalty>
2.44396

> <r_epik_Charging_Adjusted_Penalty>
2.62435

> <i_epik_Tot_Q>
0

> <i_epik_Tot_abs_Q>
0

> <r_epik_Metal_State_Penalty>
4.38331

> <b_epik_Metal_Only>
0

> <s_lp_Force_Field>
OPLS_2005

> <r_lp_Energy>
46.2393

> <b_lp_Chiralities_Consistent>
1

> <s_lp_Variant>
AV-unprocessed.smi:2247-6

> <Gold.Version>
5.8.1

> <Gold.Id.Protein>
6NUR|6NUR_protein|mol2

> <Gold.PLP.Fitness>
36.8397

> <Gold.PLP.PLP>
-28.5830

> <Gold.PLP.part.hbond>
-3.2446

> <Gold.PLP.part.metal>
0.0000

> <Gold.PLP.part.buried>
-3.2576

> <Gold.PLP.part.nonpolar>
-22.1956

> <Gold.PLP.part.repulsive>
0.1399

> <Gold.PLP.ligand.clash>
0.0000

> <Gold.PLP.ligand.torsion>
0.2523

> <Gold.PLP.Chemscore.Hbond>
2.8880

> <Gold.PLP.Chemscore.CHOScore>
0.0000

> <Gold.PLP.Chemscore.Metal>
0.0000

> <Gold.Chemscore.Hbonds>
donor molecule, donor type, donor heavy atom, donor atom, acceptor molecule, acceptor atom, score
      P1  H  6896  6907       L1    11  0.08
      P1  H  7997  8009       L1    18  1.00
      P1  H 10752 10765       L1    10  0.54

> <Gold.PLP.Chemscore.Internal.Correction>
0.0973

> <Gold.Rescore>
     Score         DG    S(hbond)    S(metal)    S(lipo)     H(rot)  DE(clash)    DE(int)     intcor
     16.31     -17.82       2.66        0.00      58.75       1.33       0.04       1.48       ----

> <Gold.Chemscore.Fitness>
16.3051

> <Gold.Chemscore.DG>
-17.8156

> <Gold.Chemscore.ZeroCoef>
-5.4800

> <Gold.Chemscore.Hbond>
2.6576

> <Gold.Chemscore.Metal>
0.0000

> <Gold.Chemscore.Lipo>
58.7493

> <Gold.Chemscore.Internal_Hbond>
0.0000

> <Gold.Chemscore.DEClash>
0.0351

> <Gold.Chemscore.DEInternal>
1.4754

> <Gold.Chemscore.Rot>
1.3338

> <Gold.Chemscore.Internal.Correction>
   9.000000E+99

> <Gold.Chemscore.Hbonds>
donor molecule, donor type, donor heavy atom, donor atom, acceptor molecule, acceptor atom, score
      P1  H  6896  6907       L1    11  0.02
      P1  H  6896  6909       L1    16  0.02
      P1  H  7997  8009       L1    18  0.74
      P1  H 10752 10765       L1    10  0.54

> <Gold.Chemscore.Hbond.Weighted>
-8.8764

> <Gold.Chemscore.Metal.Weighted>
-0.0000

> <Gold.Chemscore.Lipo.Weighted>
-6.8737

> <Gold.Chemscore.Internal_Hbond.Weighted>
0.0000

> <Gold.Chemscore.DEClash.Weighted>
0.0351

> <Gold.Chemscore.DEInternal.Weighted>
1.4754

> <Gold.Chemscore.Rot.Weighted>
3.4145

> <Gold.Chemscore.Internal.Correction.Weighted>
   9.000000E+99

> <Gold.Protein.RotatedTorsions>
[ 6907 6896 6895 6894 ] final    6.56 input  -60.11 | X-H torsion
[ 7974 7965 7964 7962 ] final  -83.46 input  175.53 | X-H torsion
[ 8008 7997 7996 7995 ] final  141.65 input   59.86 | X-H torsion
[ 10167 10162 10161 10158 ] final -142.36 input  -65.29 | X-H torsion
[ 10718 10713 10712 10709 ] final   38.04 input   66.30 | X-H torsion
[ 10763 10752 10751 10750 ] final -159.82 input  -60.55 | X-H torsion
[ 11005 11000 10999 10996 ] final   59.05 input  -57.11 | X-H torsion

> <Gold.Protein.ActiveResidues>
 VAL166  LYS551  ARG553  GLY616  TRP617  ASP618  TYR619  PRO620  LYS621  CYS622 
 ASP623  PHE694  ASN695  SER759  ASP760  ASP761  ALA762  ILE779  LEU786  VAL792 
 PHE793  MET794  SER795  GLU796  ALA797  LYS798  CYS799  TRP800  GLU811  SER814 

> <Gold.Protein.RotatedAtoms>
  151.6756  135.0969  160.0206 H   0  0  0  0  0  0  0  0  0  0  0  0  # atno 6907 bound_to 6896
  152.3865  133.6615  159.6212 H   0  0  0  0  0  0  0  0  0  0  0  0  # atno 6908 bound_to 6896
  150.7790  133.8942  159.3363 H   0  0  0  0  0  0  0  0  0  0  0  0  # atno 6909 bound_to 6896
  145.5196  140.9532  143.1662 H   0  0  0  0  0  0  0  0  0  0  0  0  # atno 7974 bound_to 7965
  156.2962  140.2309  156.4599 H   0  0  0  0  0  0  0  0  0  0  0  0  # atno 8008 bound_to 7997
  154.8027  140.0447  157.1305 H   0  0  0  0  0  0  0  0  0  0  0  0  # atno 8009 bound_to 7997
  154.9515  140.3042  155.5076 H   0  0  0  0  0  0  0  0  0  0  0  0  # atno 8010 bound_to 7997
  139.8096  143.7720  152.2663 H   0  0  0  0  0  0  0  0  0  0  0  0  # atno 10167 bound_to 10162
  157.3541  130.7614  149.7000 H   0  0  0  0  0  0  0  0  0  0  0  0  # atno 10718 bound_to 10713
  154.7443  135.3076  154.8673 H   0  0  0  0  0  0  0  0  0  0  0  0  # atno 10763 bound_to 10752
  153.9478  135.6767  153.4748 H   0  0  0  0  0  0  0  0  0  0  0  0  # atno 10764 bound_to 10752
  153.1040  135.4898  154.8844 H   0  0  0  0  0  0  0  0  0  0  0  0  # atno 10765 bound_to 10752
  140.0333  134.5981  155.9478 H   0  0  0  0  0  0  0  0  0  0  0  0  # atno 11005 bound_to 11000
  144.7683  139.6794  143.7205 LP  0  0  0  0  0  0  0  0  0  0  0  0  # atno 17320 bound_to 7965
  146.2114  139.5473  142.9678 LP  0  0  0  0  0  0  0  0  0  0  0  0  # atno 17321 bound_to 7965
  139.7865  144.7425  151.0014 LP  0  0  0  0  0  0  0  0  0  0  0  0  # atno 17342 bound_to 10162
  140.7818  143.4486  151.0446 LP  0  0  0  0  0  0  0  0  0  0  0  0  # atno 17343 bound_to 10162
  155.9726  130.4132  150.4071 LP  0  0  0  0  0  0  0  0  0  0  0  0  # atno 17370 bound_to 10713
  157.2138  131.0466  151.2584 LP  0  0  0  0  0  0  0  0  0  0  0  0  # atno 17371 bound_to 10713
  141.1843  133.6552  156.5151 LP  0  0  0  0  0  0  0  0  0  0  0  0  # atno 17394 bound_to 11000
  140.4190  134.7204  157.4879 LP  0  0  0  0  0  0  0  0  0  0  0  0  # atno 17395 bound_to 11000

$$$$
