AV-unprocessed.smi:3191|AV-procd|sdf|12198|dock7
  -GOLD-   2272018 33D 1   1.00000     0.00000
 Structure written by MMmdl.
 35 36  0  0  0  0  0  0  0  0  1 V2000
  151.3737  144.8400  160.1558 C   0  0  0  0  0  0  0  0  0  0  0  0
  151.8785  143.4983  159.9385 N   0  0  0  0  0  0  0  0  0  0  0  0
  152.5032  142.7207  160.8332 C   0  0  0  0  0  0  0  0  0  0  0  0
  152.8664  141.5318  160.3708 N   0  0  0  0  0  0  0  0  0  0  0  0
  152.4336  141.5452  159.0476 C   0  0  0  0  0  0  0  0  0  0  0  0
  151.8234  142.7477  158.7667 C   0  0  0  0  0  0  0  0  0  0  0  0
  151.1944  143.2299  157.4993 C   0  0  0  0  0  0  0  0  0  0  0  0
  151.2414  142.1843  156.3737 C   0  0  0  0  0  0  0  0  0  0  0  0
  150.1817  142.4024  155.3966 N   0  0  0  0  0  0  0  0  0  0  0  0
  149.9915  141.6640  154.2925 C   0  0  0  0  0  0  0  0  0  0  0  0
  150.7186  140.7162  153.9912 O   0  0  0  0  0  0  0  0  0  0  0  0
  148.8207  142.1048  153.4698 C   0  0  1  0  0  0  0  0  0  0  0  0
  147.7693  141.0735  153.1146 C   0  0  0  0  0  0  0  0  0  0  0  0
  147.4271  142.1775  154.0902 C   0  0  0  0  0  0  0  0  0  0  0  0
  147.1493  141.8262  155.5471 C   0  0  0  0  0  0  0  0  0  0  0  0
  146.5139  143.3097  153.6534 C   0  0  0  0  0  0  0  0  0  0  0  0
  149.0417  142.8560  152.7128 H   0  0  0  0  0  0  0  0  0  0  0  0
  151.5574  145.1508  161.1848 H   0  0  0  0  0  0  0  0  0  0  0  0
  150.3009  144.8681  159.9653 H   0  0  0  0  0  0  0  0  0  0  0  0
  151.8753  145.5355  159.4827 H   0  0  0  0  0  0  0  0  0  0  0  0
  152.6975  143.0326  161.8490 H   0  0  0  0  0  0  0  0  0  0  0  0
  152.5906  140.6930  158.4030 H   0  0  0  0  0  0  0  0  0  0  0  0
  150.1625  143.5228  157.6950 H   0  0  0  0  0  0  0  0  0  0  0  0
  151.7018  144.1374  157.1704 H   0  0  0  0  0  0  0  0  0  0  0  0
  152.2000  142.2390  155.8570 H   0  0  0  0  0  0  0  0  0  0  0  0
  151.1683  141.1746  156.7806 H   0  0  0  0  0  0  0  0  0  0  0  0
  149.5448  143.1654  155.5747 H   0  0  0  0  0  0  0  0  0  0  0  0
  147.3507  141.1261  152.1116 H   0  0  0  0  0  0  0  0  0  0  0  0
  147.8727  140.0641  153.5093 H   0  0  0  0  0  0  0  0  0  0  0  0
  146.0772  141.7186  155.7145 H   0  0  0  0  0  0  0  0  0  0  0  0
  147.5240  142.6125  156.2027 H   0  0  0  0  0  0  0  0  0  0  0  0
  147.6174  140.8846  155.8311 H   0  0  0  0  0  0  0  0  0  0  0  0
  145.4685  143.0123  153.7419 H   0  0  0  0  0  0  0  0  0  0  0  0
  146.7026  143.5814  152.6144 H   0  0  0  0  0  0  0  0  0  0  0  0
  146.6799  144.1912  154.2735 H   0  0  0  0  0  0  0  0  0  0  0  0
  1  2  1  0  0  0  0
  1 18  1  0  0  0  0
  1 19  1  0  0  0  0
  1 20  1  0  0  0  0
  2  6  1  0  0  0  0
  2  3  1  0  0  0  0
  3  4  2  0  0  0  0
  3 21  1  0  0  0  0
  4  5  1  0  0  0  0
  5  6  2  0  0  0  0
  5 22  1  0  0  0  0
  6  7  1  0  0  0  0
  7  8  1  0  0  0  0
  7 23  1  0  0  0  0
  7 24  1  0  0  0  0
  8  9  1  0  0  0  0
  8 25  1  0  0  0  0
  8 26  1  0  0  0  0
  9 10  1  0  0  0  0
  9 27  1  0  0  0  0
 10 11  2  0  0  0  0
 10 12  1  0  0  0  0
 12 17  1  0  0  0  0
 12 14  1  0  0  0  0
 12 13  1  0  0  0  0
 13 14  1  0  0  0  0
 13 28  1  0  0  0  0
 13 29  1  0  0  0  0
 14 15  1  0  0  0  0
 14 16  1  0  0  0  0
 15 30  1  0  0  0  0
 15 31  1  0  0  0  0
 15 32  1  0  0  0  0
 16 33  1  0  0  0  0
 16 34  1  0  0  0  0
 16 35  1  0  0  0  0
M  END
> <s_m_source_file>
AV-unprocessed.smi

> <i_m_source_file_index>
3191

> <i_lp_mmshare_version>
43012

> <i_f3d_flags>
0

> <s_epik_input>
W0NIM11uMVtjSF1uW2NIXWMxW0NIMl1bQ0gyXVtOSF1DKD1PKVtDQEBIXShbQ0gyXTIpQzIoW0NIM10pW0NIM10=

> <s_epik_cmdline>
J2VwaWtfcHl0aG9uJywgJy1waCcsICc3LjAnLCAnLXRuJywgJzgnLCAnLW1hJywgJzIwMCcsICctbWV0YWxfYmluZGluZycsICctaW1hZScsICc8aW5maWxlLm1hZT4nLCAnLW9tYWUnLCAnPG91dGZpbGUubWFlPic=

> <r_lp_tautomer_probability>
1

> <r_epik_Ionization_Penalty>
0.874249

> <r_epik_Ionization_Penalty_Charging>
0.874249

> <r_epik_Ionization_Penalty_Neutral>
1.97773e-08

> <r_epik_State_Penalty>
0.911868

> <r_epik_Charging_Adjusted_Penalty>
1.78612

> <i_epik_Tot_Q>
0

> <i_epik_Tot_abs_Q>
0

> <r_epik_Metal_State_Penalty>
0.361186

> <b_epik_Metal_Only>
0

> <s_lp_Force_Field>
OPLS_2005

> <r_lp_Energy>
11.7772

> <b_lp_Chiralities_Consistent>
1

> <s_lp_Variant>
AV-unprocessed.smi:3191-3

> <Gold.Version>
5.8.1

> <Gold.Id.Protein>
6NUR|6NUR_protein|mol2

> <Gold.PLP.Fitness>
47.4767

> <Gold.PLP.PLP>
-41.7543

> <Gold.PLP.part.hbond>
-2.0000

> <Gold.PLP.part.metal>
0.0000

> <Gold.PLP.part.buried>
-3.7836

> <Gold.PLP.part.nonpolar>
-35.3187

> <Gold.PLP.part.repulsive>
0.2663

> <Gold.PLP.ligand.clash>
0.0000

> <Gold.PLP.ligand.torsion>
0.1848

> <Gold.PLP.Chemscore.Hbond>
2.0000

> <Gold.PLP.Chemscore.CHOScore>
0.0000

> <Gold.PLP.Chemscore.Metal>
0.0000

> <Gold.Chemscore.Hbonds>
donor molecule, donor type, donor heavy atom, donor atom, acceptor molecule, acceptor atom, score
      L1  H     9    27       P1  8028  1.00

> <Gold.PLP.Chemscore.Internal.Correction>
0.0921

> <Gold.Rescore>
     Score         DG    S(hbond)    S(metal)    S(lipo)     H(rot)  DE(clash)    DE(int)     intcor
     13.26     -14.12       1.05        0.00      80.82       1.69       0.15       0.71       ----

> <Gold.Chemscore.Fitness>
13.2572

> <Gold.Chemscore.DG>
-14.1161

> <Gold.Chemscore.ZeroCoef>
-5.4800

> <Gold.Chemscore.Hbond>
1.0512

> <Gold.Chemscore.Metal>
0.0000

> <Gold.Chemscore.Lipo>
80.8224

> <Gold.Chemscore.Internal_Hbond>
0.0000

> <Gold.Chemscore.DEClash>
0.1471

> <Gold.Chemscore.DEInternal>
0.7118

> <Gold.Chemscore.Rot>
1.6919

> <Gold.Chemscore.Internal.Correction>
   9.000000E+99

> <Gold.Chemscore.Hbonds>
donor molecule, donor type, donor heavy atom, donor atom, acceptor molecule, acceptor atom, score
      L1  H     9    27       P1  8028  1.00
      P1  H  7989  7998       L1    11  0.01

> <Gold.Chemscore.Hbond.Weighted>
-3.5110

> <Gold.Chemscore.Metal.Weighted>
-0.0000

> <Gold.Chemscore.Lipo.Weighted>
-9.4562

> <Gold.Chemscore.Internal_Hbond.Weighted>
0.0000

> <Gold.Chemscore.DEClash.Weighted>
0.1471

> <Gold.Chemscore.DEInternal.Weighted>
0.7118

> <Gold.Chemscore.Rot.Weighted>
4.3312

> <Gold.Chemscore.Internal.Correction.Weighted>
   9.000000E+99

> <Gold.Protein.RotatedTorsions>
[ 6907 6896 6895 6894 ] final   53.67 input  -60.11 | X-H torsion
[ 7974 7965 7964 7962 ] final   88.04 input  175.53 | X-H torsion
[ 8008 7997 7996 7995 ] final  123.24 input   59.86 | X-H torsion
[ 10167 10162 10161 10158 ] final   66.64 input  -65.29 | X-H torsion
[ 10718 10713 10712 10709 ] final   21.77 input   66.30 | X-H torsion
[ 10763 10752 10751 10750 ] final   23.24 input  -60.55 | X-H torsion
[ 11005 11000 10999 10996 ] final  162.06 input  -57.11 | X-H torsion

> <Gold.Protein.ActiveResidues>
 VAL166  LYS551  ARG553  GLY616  TRP617  ASP618  TYR619  PRO620  LYS621  CYS622 
 ASP623  PHE694  ASN695  SER759  ASP760  ASP761  ALA762  ILE779  LEU786  VAL792 
 PHE793  MET794  SER795  GLU796  ALA797  LYS798  CYS799  TRP800  GLU811  SER814 

> <Gold.Protein.RotatedAtoms>
  152.3361  134.7196  160.0276 H   0  0  0  0  0  0  0  0  0  0  0  0  # atno 6907 bound_to 6896
  151.7597  133.3327  159.3422 H   0  0  0  0  0  0  0  0  0  0  0  0  # atno 6908 bound_to 6896
  150.7451  134.6049  159.6100 H   0  0  0  0  0  0  0  0  0  0  0  0  # atno 6909 bound_to 6896
  145.5509  139.2295  143.2513 H   0  0  0  0  0  0  0  0  0  0  0  0  # atno 7974 bound_to 7965
  156.2758  140.2767  156.1596 H   0  0  0  0  0  0  0  0  0  0  0  0  # atno 8008 bound_to 7997
  155.0768  140.0387  157.2644 H   0  0  0  0  0  0  0  0  0  0  0  0  # atno 8009 bound_to 7997
  154.6996  140.2646  155.6738 H   0  0  0  0  0  0  0  0  0  0  0  0  # atno 8010 bound_to 7997
  140.0983  144.4927  150.7054 H   0  0  0  0  0  0  0  0  0  0  0  0  # atno 10167 bound_to 10162
  157.1431  130.6641  149.5987 H   0  0  0  0  0  0  0  0  0  0  0  0  # atno 10718 bound_to 10713
  153.0854  135.6631  153.9960 H   0  0  0  0  0  0  0  0  0  0  0  0  # atno 10763 bound_to 10752
  153.9571  135.2978  155.3437 H   0  0  0  0  0  0  0  0  0  0  0  0  # atno 10764 bound_to 10752
  154.7261  135.5143  153.8960 H   0  0  0  0  0  0  0  0  0  0  0  0  # atno 10765 bound_to 10752
  140.2219  134.8189  157.3229 H   0  0  0  0  0  0  0  0  0  0  0  0  # atno 11005 bound_to 11000
  146.1917  140.6332  142.9142 LP  0  0  0  0  0  0  0  0  0  0  0  0  # atno 17320 bound_to 7965
  144.7530  140.5237  143.6789 LP  0  0  0  0  0  0  0  0  0  0  0  0  # atno 17321 bound_to 7965
  140.6992  143.2423  151.4914 LP  0  0  0  0  0  0  0  0  0  0  0  0  # atno 17342 bound_to 10162
  139.5686  144.1983  152.1802 LP  0  0  0  0  0  0  0  0  0  0  0  0  # atno 17343 bound_to 10162
  155.9785  130.4771  150.6657 LP  0  0  0  0  0  0  0  0  0  0  0  0  # atno 17370 bound_to 10713
  157.4289  131.0846  151.1058 LP  0  0  0  0  0  0  0  0  0  0  0  0  # atno 17371 bound_to 10713
  140.1840  134.4454  155.7755 LP  0  0  0  0  0  0  0  0  0  0  0  0  # atno 17394 bound_to 11000
  141.2222  133.6996  156.7916 LP  0  0  0  0  0  0  0  0  0  0  0  0  # atno 17395 bound_to 11000

$$$$
