AV-unprocessed.smi:2007|AV-procd|sdf|8139|dock6
  -GOLD-   2272010373D 1   1.00000     0.00000
 Structure written by MMmdl.
 36 37  0  0  0  0  0  0  0  0  3 V2000
  150.6065  139.1190  156.5713 C   0  0  0  0  0  0  0  0  0  0  0  0
  151.0798  139.0400  158.0289 C   0  0  2  0  0  0  0  0  0  0  0  0
  152.6134  139.2004  158.1371 C   0  0  0  0  0  0  0  0  0  0  0  0
  153.0134  140.5426  158.6297 N   0  3  0  0  0  0  0  0  0  0  0  0
  152.1307  141.6347  158.1610 C   0  0  0  0  0  0  0  0  0  0  0  0
  152.6855  142.9926  158.6249 C   0  0  0  0  0  0  0  0  0  0  0  0
  152.8175  142.9987  160.0420 O   0  0  0  0  0  0  0  0  0  0  0  0
  153.7190  141.9966  160.4991 C   0  0  0  0  0  0  0  0  0  0  0  0
  153.1882  140.6103  160.0997 C   0  0  0  0  0  0  0  0  0  0  0  0
  150.6522  137.7651  158.6087 N   0  0  0  0  0  0  0  0  0  0  0  0
  149.3932  137.3925  158.8852 C   0  0  0  0  0  0  0  0  0  0  0  0
  148.4504  138.1267  158.5814 O   0  0  0  0  0  0  0  0  0  0  0  0
  149.3072  136.2066  159.5262 N   0  5  0  0  0  0  0  0  0  0  0  0
  148.3838  136.0305  160.4851 C   0  0  0  0  0  0  0  0  0  0  0  0
  147.8042  137.0463  161.1359 N   0  0  0  0  0  0  0  0  0  0  0  0
  146.8750  136.6336  162.0928 C   0  0  0  0  0  0  0  0  0  0  0  0
  146.7496  135.2722  162.1764 C   0  0  0  0  0  0  0  0  0  0  0  0
  147.8001  134.4630  161.0487 S   0  0  0  0  0  0  0  0  0  0  0  0
  150.8878  140.0703  156.1191 H   0  0  0  0  0  0  0  0  0  0  0  0
  149.5213  139.0322  156.5064 H   0  0  0  0  0  0  0  0  0  0  0  0
  151.0408  138.3216  155.9674 H   0  0  0  0  0  0  0  0  0  0  0  0
  150.5991  139.8613  158.5617 H   0  0  0  0  0  0  0  0  0  0  0  0
  152.9819  138.4447  158.8327 H   0  0  0  0  0  0  0  0  0  0  0  0
  153.0970  138.9940  157.1812 H   0  0  0  0  0  0  0  0  0  0  0  0
  152.0677  141.6202  157.0722 H   0  0  0  0  0  0  0  0  0  0  0  0
  151.1212  141.4844  158.5467 H   0  0  0  0  0  0  0  0  0  0  0  0
  153.6503  143.1982  158.1578 H   0  0  0  0  0  0  0  0  0  0  0  0
  152.0104  143.7955  158.3288 H   0  0  0  0  0  0  0  0  0  0  0  0
  154.7145  142.1665  160.0852 H   0  0  0  0  0  0  0  0  0  0  0  0
  153.8075  142.0679  161.5832 H   0  0  0  0  0  0  0  0  0  0  0  0
  152.2353  140.4159  160.5942 H   0  0  0  0  0  0  0  0  0  0  0  0
  153.8840  139.8421  160.4358 H   0  0  0  0  0  0  0  0  0  0  0  0
  151.3845  137.1188  158.8656 H   0  0  0  0  0  0  0  0  0  0  0  0
  146.3489  137.3784  162.6712 H   0  0  0  0  0  0  0  0  0  0  0  0
  146.1086  134.6986  162.8287 H   0  0  0  0  0  0  0  0  0  0  0  0
  153.9200  140.7247  158.2205 H   0  0  0  0  0  0  0  0  0  0  0  0
  1  2  1  0  0  0  0
  1 19  1  0  0  0  0
  1 20  1  0  0  0  0
  1 21  1  0  0  0  0
  2  3  1  0  0  0  0
  2 10  1  0  0  0  0
  2 22  1  0  0  0  0
  3  4  1  0  0  0  0
  3 23  1  0  0  0  0
  3 24  1  0  0  0  0
  4  9  1  0  0  0  0
  4  5  1  0  0  0  0
  4 36  1  0  0  0  0
  5  6  1  0  0  0  0
  5 25  1  0  0  0  0
  5 26  1  0  0  0  0
  6  7  1  0  0  0  0
  6 27  1  0  0  0  0
  6 28  1  0  0  0  0
  7  8  1  0  0  0  0
  8  9  1  0  0  0  0
  8 29  1  0  0  0  0
  8 30  1  0  0  0  0
  9 31  1  0  0  0  0
  9 32  1  0  0  0  0
 10 11  1  0  0  0  0
 10 33  1  0  0  0  0
 11 12  2  0  0  0  0
 11 13  1  0  0  0  0
 13 14  1  0  0  0  0
 14 18  1  0  0  0  0
 14 15  2  0  0  0  0
 15 16  1  0  0  0  0
 16 17  2  0  0  0  0
 16 34  1  0  0  0  0
 17 18  1  0  0  0  0
 17 35  1  0  0  0  0
M  CHG  1   4   1
M  CHG  1  13  -1
M  END
> <s_m_source_file>
AV-unprocessed.smi

> <i_m_source_file_index>
2007

> <i_lp_mmshare_version>
43012

> <i_f3d_flags>
0

> <s_epik_input>
W0NIMl0xW0NIMl1PW0NIMl1bQ0gyXU4xW0NIMl1bQ0BASF0oW0NIM10pW05IXUMoPU8pW05IXWMybltjSF1bY0hdczI=

> <s_epik_cmdline>
J2VwaWtfcHl0aG9uJywgJy1waCcsICc3LjAnLCAnLXRuJywgJzgnLCAnLW1hJywgJzIwMCcsICctbWV0YWxfYmluZGluZycsICctaW1hZScsICc8aW5maWxlLm1hZT4nLCAnLW9tYWUnLCAnPG91dGZpbGUubWFlPic=

> <r_lp_tautomer_probability>
0.999

> <r_epik_Ionization_Penalty>
6.49226

> <r_epik_Ionization_Penalty_Charging>
5.74393

> <r_epik_Ionization_Penalty_Neutral>
0.748321

> <r_epik_State_Penalty>
5.94164

> <r_epik_Charging_Adjusted_Penalty>
11.6856

> <i_epik_Tot_Q>
0

> <i_epik_Tot_abs_Q>
2

> <r_epik_Metal_State_Penalty>
1.97606

> <b_epik_Metal_Only>
1

> <s_lp_Force_Field>
OPLS_2005

> <r_lp_Energy>
10.1627

> <b_lp_Chiralities_Consistent>
1

> <s_lp_Variant>
AV-unprocessed.smi:2007-7

> <Gold.Version>
5.8.1

> <Gold.Id.Protein>
6NUR|6NUR_protein|mol2

> <Gold.PLP.Fitness>
40.4770

> <Gold.PLP.PLP>
-31.9490

> <Gold.PLP.part.hbond>
-3.7775

> <Gold.PLP.part.metal>
0.0000

> <Gold.PLP.part.buried>
-5.2207

> <Gold.PLP.part.nonpolar>
-23.5991

> <Gold.PLP.part.repulsive>
0.2433

> <Gold.PLP.ligand.clash>
0.0000

> <Gold.PLP.ligand.torsion>
1.4495

> <Gold.PLP.Chemscore.Hbond>
3.7625

> <Gold.PLP.Chemscore.CHOScore>
0.0000

> <Gold.PLP.Chemscore.Metal>
0.0000

> <Gold.Chemscore.Hbonds>
donor molecule, donor type, donor heavy atom, donor atom, acceptor molecule, acceptor atom, score
      P1  H  6896  6909       L1    13  1.98
      P1  H  6931  6943       L1    15  1.00
      P1  H  6934  6947       L1    15  0.69

> <Gold.PLP.Chemscore.Internal.Correction>
0.1394

> <Gold.Rescore>
     Score         DG    S(hbond)    S(metal)    S(lipo)     H(rot)  DE(clash)    DE(int)     intcor
     14.28     -17.06       1.93        0.00      78.96       1.60       0.00       2.77       ----

> <Gold.Chemscore.Fitness>
14.2843

> <Gold.Chemscore.DG>
-17.0566

> <Gold.Chemscore.ZeroCoef>
-5.4800

> <Gold.Chemscore.Hbond>
1.9258

> <Gold.Chemscore.Metal>
0.0000

> <Gold.Chemscore.Lipo>
78.9580

> <Gold.Chemscore.Internal_Hbond>
0.0000

> <Gold.Chemscore.DEClash>
0.0000

> <Gold.Chemscore.DEInternal>
2.7723

> <Gold.Chemscore.Rot>
1.5991

> <Gold.Chemscore.Internal.Correction>
   9.000000E+99

> <Gold.Chemscore.Hbonds>
donor molecule, donor type, donor heavy atom, donor atom, acceptor molecule, acceptor atom, score
      P1  H  6896  6909       L1    13  0.72
      P1  H  6931  6943       L1    15  0.63
      P1  H  6934  6947       L1    15  0.15

> <Gold.Chemscore.Hbond.Weighted>
-6.4321

> <Gold.Chemscore.Metal.Weighted>
-0.0000

> <Gold.Chemscore.Lipo.Weighted>
-9.2381

> <Gold.Chemscore.Internal_Hbond.Weighted>
0.0000

> <Gold.Chemscore.DEClash.Weighted>
0.0000

> <Gold.Chemscore.DEInternal.Weighted>
2.7723

> <Gold.Chemscore.Rot.Weighted>
4.0936

> <Gold.Chemscore.Internal.Correction.Weighted>
   9.000000E+99

> <Gold.Protein.RotatedTorsions>
[ 6907 6896 6895 6894 ] final   70.90 input  -60.11 | X-H torsion
[ 7974 7965 7964 7962 ] final -168.43 input  175.53 | X-H torsion
[ 8008 7997 7996 7995 ] final -136.71 input   59.86 | X-H torsion
[ 10167 10162 10161 10158 ] final  140.45 input  -65.29 | X-H torsion
[ 10718 10713 10712 10709 ] final -125.45 input   66.30 | X-H torsion
[ 10763 10752 10751 10750 ] final -169.44 input  -60.55 | X-H torsion
[ 11005 11000 10999 10996 ] final -100.50 input  -57.11 | X-H torsion

> <Gold.Protein.ActiveResidues>
 VAL166  LYS551  ARG553  GLY616  TRP617  ASP618  TYR619  PRO620  LYS621  CYS622 
 ASP623  PHE694  ASN695  SER759  ASP760  ASP761  ALA762  ILE779  LEU786  VAL792 
 PHE793  MET794  SER795  GLU796  ALA797  LYS798  CYS799  TRP800  GLU811  SER814 

> <Gold.Protein.RotatedAtoms>
  152.4777  134.4800  159.9662 H   0  0  0  0  0  0  0  0  0  0  0  0  # atno 6907 bound_to 6896
  151.4813  133.3540  159.2846 H   0  0  0  0  0  0  0  0  0  0  0  0  # atno 6908 bound_to 6896
  150.8828  134.8247  159.7298 H   0  0  0  0  0  0  0  0  0  0  0  0  # atno 6909 bound_to 6896
  144.7203  140.2372  143.6296 H   0  0  0  0  0  0  0  0  0  0  0  0  # atno 7974 bound_to 7965
  155.3997  140.0505  157.3037 H   0  0  0  0  0  0  0  0  0  0  0  0  # atno 8008 bound_to 7997
  154.4996  140.2152  155.9334 H   0  0  0  0  0  0  0  0  0  0  0  0  # atno 8009 bound_to 7997
  156.1451  140.3147  155.8562 H   0  0  0  0  0  0  0  0  0  0  0  0  # atno 8010 bound_to 7997
  139.5048  144.6233  151.5997 H   0  0  0  0  0  0  0  0  0  0  0  0  # atno 10167 bound_to 10162
  156.1677  130.6646  151.0137 H   0  0  0  0  0  0  0  0  0  0  0  0  # atno 10718 bound_to 10713
  154.6522  135.2913  154.9972 H   0  0  0  0  0  0  0  0  0  0  0  0  # atno 10763 bound_to 10752
  154.1061  135.6569  153.4880 H   0  0  0  0  0  0  0  0  0  0  0  0  # atno 10764 bound_to 10752
  153.0383  135.5254  154.7435 H   0  0  0  0  0  0  0  0  0  0  0  0  # atno 10765 bound_to 10752
  141.1268  133.8404  157.1111 H   0  0  0  0  0  0  0  0  0  0  0  0  # atno 11005 bound_to 11000
  145.8355  139.2105  143.1858 LP  0  0  0  0  0  0  0  0  0  0  0  0  # atno 17320 bound_to 7965
  146.0393  140.8181  142.9836 LP  0  0  0  0  0  0  0  0  0  0  0  0  # atno 17321 bound_to 7965
  140.5942  143.9725  150.6344 LP  0  0  0  0  0  0  0  0  0  0  0  0  # atno 17342 bound_to 10162
  140.2915  143.3321  152.1057 LP  0  0  0  0  0  0  0  0  0  0  0  0  # atno 17343 bound_to 10162
  157.6780  131.0845  150.7445 LP  0  0  0  0  0  0  0  0  0  0  0  0  # atno 17370 bound_to 10713
  156.7505  130.4767  149.5458 LP  0  0  0  0  0  0  0  0  0  0  0  0  # atno 17371 bound_to 10713
  140.0274  134.9917  157.0714 LP  0  0  0  0  0  0  0  0  0  0  0  0  # atno 17394 bound_to 11000
  140.4340  134.1751  155.7169 LP  0  0  0  0  0  0  0  0  0  0  0  0  # atno 17395 bound_to 11000

$$$$
