AV-unprocessed.smi:1213|AV-procd|sdf|5089|dock3
  -GOLD-   22720 4143D 1   1.00000     0.00000
 Structure written by MMmdl.
 36 37  0  0  0  0  0  0  0  0  3 V2000
  142.7103  140.4250  155.0286 N   0  5  0  0  0  0  0  0  0  0  0  0
  143.0542  141.3768  155.9170 C   0  0  0  0  0  0  0  0  0  0  0  0
  142.7753  141.4295  157.1132 O   0  0  0  0  0  0  0  0  0  0  0  0
  143.9134  142.4810  155.2910 C   0  0  0  0  0  0  0  0  0  0  0  0
  145.1375  141.8990  154.6859 N   0  3  2  0  0  0  0  0  0  0  0  0
  145.9001  141.0655  155.6491 C   0  0  0  0  0  0  0  0  0  0  0  0
  147.0774  140.3547  154.9589 C   0  0  0  0  0  0  0  0  0  0  0  0
  148.0124  141.3487  154.2416 C   0  0  2  0  0  0  0  0  0  0  0  0
  148.7758  142.1606  155.1890 N   0  0  0  0  0  0  0  0  0  0  0  0
  149.7198  141.6972  156.0214 C   0  0  0  0  0  0  0  0  0  0  0  0
  150.0422  140.5108  156.0869 O   0  0  0  0  0  0  0  0  0  0  0  0
  150.2496  142.6896  156.7578 N   0  0  0  0  0  0  0  0  0  0  0  0
  151.2611  142.6013  157.7501 C   0  0  0  0  0  0  0  0  0  0  0  0
  151.8116  143.6562  158.3620 N   0  0  0  0  0  0  0  0  0  0  0  0
  152.7812  143.2750  159.2932 C   0  0  0  0  0  0  0  0  0  0  0  0
  152.9574  141.9163  159.3769 C   0  0  0  0  0  0  0  0  0  0  0  0
  151.9079  141.0562  158.2822 S   0  0  0  0  0  0  0  0  0  0  0  0
  147.1894  142.2480  153.3033 C   0  0  0  0  0  0  0  0  0  0  0  0
  146.0064  142.9132  154.0299 C   0  0  0  0  0  0  0  0  0  0  0  0
  142.8134  140.6194  154.0256 H   0  0  0  0  0  0  0  0  0  0  0  0
  143.3706  143.0746  154.5523 H   0  0  0  0  0  0  0  0  0  0  0  0
  144.1851  143.1625  156.0983 H   0  0  0  0  0  0  0  0  0  0  0  0
  146.2587  141.6891  156.4697 H   0  0  0  0  0  0  0  0  0  0  0  0
  145.2413  140.3151  156.0875 H   0  0  0  0  0  0  0  0  0  0  0  0
  147.6311  139.7575  155.6840 H   0  0  0  0  0  0  0  0  0  0  0  0
  146.6836  139.6471  154.2282 H   0  0  0  0  0  0  0  0  0  0  0  0
  148.7235  140.7870  153.6328 H   0  0  0  0  0  0  0  0  0  0  0  0
  148.5795  143.1509  155.2011 H   0  0  0  0  0  0  0  0  0  0  0  0
  149.8894  143.6171  156.5890 H   0  0  0  0  0  0  0  0  0  0  0  0
  153.2984  144.0387  159.8551 H   0  0  0  0  0  0  0  0  0  0  0  0
  153.6388  141.3718  160.0136 H   0  0  0  0  0  0  0  0  0  0  0  0
  147.8275  143.0082  152.8506 H   0  0  0  0  0  0  0  0  0  0  0  0
  146.8045  141.6467  152.4787 H   0  0  0  0  0  0  0  0  0  0  0  0
  145.4308  143.4928  153.3076 H   0  0  0  0  0  0  0  0  0  0  0  0
  146.3696  143.6202  154.7773 H   0  0  0  0  0  0  0  0  0  0  0  0
  144.8140  141.2745  153.9607 H   0  0  0  0  0  0  0  0  0  0  0  0
  1  2  1  0  0  0  0
  1 20  1  0  0  0  0
  2  3  2  0  0  0  0
  2  4  1  0  0  0  0
  4  5  1  0  0  0  0
  4 21  1  0  0  0  0
  4 22  1  0  0  0  0
  5 19  1  0  0  0  0
  5  6  1  0  0  0  0
  5 36  1  0  0  0  0
  6  7  1  0  0  0  0
  6 23  1  0  0  0  0
  6 24  1  0  0  0  0
  7  8  1  0  0  0  0
  7 25  1  0  0  0  0
  7 26  1  0  0  0  0
  8  9  1  0  0  0  0
  8 18  1  0  0  0  0
  8 27  1  0  0  0  0
  9 10  1  0  0  0  0
  9 28  1  0  0  0  0
 10 11  2  0  0  0  0
 10 12  1  0  0  0  0
 12 13  1  0  0  0  0
 12 29  1  0  0  0  0
 13 17  1  0  0  0  0
 13 14  2  0  0  0  0
 14 15  1  0  0  0  0
 15 16  2  0  0  0  0
 15 30  1  0  0  0  0
 16 17  1  0  0  0  0
 16 31  1  0  0  0  0
 18 19  1  0  0  0  0
 18 32  1  0  0  0  0
 18 33  1  0  0  0  0
 19 34  1  0  0  0  0
 19 35  1  0  0  0  0
M  CHG  1   1  -1
M  CHG  1   5   1
M  END
> <s_m_source_file>
AV-unprocessed.smi

> <i_m_source_file_index>
1213

> <i_lp_mmshare_version>
43012

> <i_f3d_flags>
0

> <s_epik_input>
W05IMl1DKD1PKVtDSDJdTjFbQ0gyXVtDSDJdW0NIXShbQ0gyXVtDSDJdMSlbTkhdQyg9TylbTkhdYzJuW2NIXVtjSF1zMg==

> <s_epik_cmdline>
J2VwaWtfcHl0aG9uJywgJy1waCcsICc3LjAnLCAnLXRuJywgJzgnLCAnLW1hJywgJzIwMCcsICctbWV0YWxfYmluZGluZycsICctaW1hZScsICc8aW5maWxlLm1hZT4nLCAnLW9tYWUnLCAnPG91dGZpbGUubWFlPic=

> <r_lp_tautomer_probability>
0.999

> <r_epik_Ionization_Penalty>
5.73166

> <r_epik_Ionization_Penalty_Charging>
5.73152

> <r_epik_Ionization_Penalty_Neutral>
0.000139308

> <r_epik_State_Penalty>
6.57436

> <r_epik_Charging_Adjusted_Penalty>
12.3059

> <i_epik_Tot_Q>
0

> <i_epik_Tot_abs_Q>
2

> <r_epik_Metal_State_Penalty>
2.57084

> <b_epik_Metal_Only>
1

> <s_lp_Force_Field>
OPLS_2005

> <r_lp_Energy>
6.02298

> <b_lp_Chiralities_Consistent>
1

> <s_lp_Variant>
AV-unprocessed.smi:1213-6

> <Gold.Version>
5.8.1

> <Gold.Id.Protein>
6NUR|6NUR_protein|mol2

> <Gold.PLP.Fitness>
44.0648

> <Gold.PLP.PLP>
-29.2107

> <Gold.PLP.part.hbond>
-4.0000

> <Gold.PLP.part.metal>
0.0000

> <Gold.PLP.part.buried>
-5.6882

> <Gold.PLP.part.nonpolar>
-19.9305

> <Gold.PLP.part.repulsive>
0.3234

> <Gold.PLP.ligand.clash>
0.0000

> <Gold.PLP.ligand.torsion>
0.0839

> <Gold.PLP.Chemscore.Hbond>
5.0000

> <Gold.PLP.Chemscore.CHOScore>
0.0000

> <Gold.PLP.Chemscore.Metal>
0.0000

> <Gold.Chemscore.Hbonds>
donor molecule, donor type, donor heavy atom, donor atom, acceptor molecule, acceptor atom, score
      L1  H     1    20       P1 10175  1.00
      L1  H     5    36       P1 10175  2.00
      L1  H     9    28       P1  8028  1.00
      L1  H    12    29       P1  8028  1.00

> <Gold.PLP.Chemscore.Internal.Correction>
0.0218

> <Gold.Rescore>
     Score         DG    S(hbond)    S(metal)    S(lipo)     H(rot)  DE(clash)    DE(int)     intcor
     17.28     -19.92       3.78        0.00      60.00       2.04       1.35       1.28       ----

> <Gold.Chemscore.Fitness>
17.2819

> <Gold.Chemscore.DG>
-19.9183

> <Gold.Chemscore.ZeroCoef>
-5.4800

> <Gold.Chemscore.Hbond>
3.7808

> <Gold.Chemscore.Metal>
0.0000

> <Gold.Chemscore.Lipo>
59.9998

> <Gold.Chemscore.Internal_Hbond>
0.0000

> <Gold.Chemscore.DEClash>
1.3544

> <Gold.Chemscore.DEInternal>
1.2820

> <Gold.Chemscore.Rot>
2.0350

> <Gold.Chemscore.Internal.Correction>
   9.000000E+99

> <Gold.Chemscore.Hbonds>
donor molecule, donor type, donor heavy atom, donor atom, acceptor molecule, acceptor atom, score
      L1  H     1    20       P1 10175  0.77
      L1  H     5    36       P1 10175  0.52
      L1  H     9    28       P1  8028  0.98
      L1  H    12    29       P1  8028  0.95

> <Gold.Chemscore.Hbond.Weighted>
-12.6279

> <Gold.Chemscore.Metal.Weighted>
-0.0000

> <Gold.Chemscore.Lipo.Weighted>
-7.0200

> <Gold.Chemscore.Internal_Hbond.Weighted>
0.0000

> <Gold.Chemscore.DEClash.Weighted>
1.3544

> <Gold.Chemscore.DEInternal.Weighted>
1.2820

> <Gold.Chemscore.Rot.Weighted>
5.2096

> <Gold.Chemscore.Internal.Correction.Weighted>
   9.000000E+99

> <Gold.Protein.RotatedTorsions>
[ 6907 6896 6895 6894 ] final  -75.25 input  -60.11 | X-H torsion
[ 7974 7965 7964 7962 ] final   70.32 input  175.53 | X-H torsion
[ 8008 7997 7996 7995 ] final  -30.00 input   59.86 | X-H torsion
[ 10167 10162 10161 10158 ] final   91.75 input  -65.29 | X-H torsion
[ 10718 10713 10712 10709 ] final -121.94 input   66.30 | X-H torsion
[ 10763 10752 10751 10750 ] final   67.75 input  -60.55 | X-H torsion
[ 11005 11000 10999 10996 ] final -118.66 input  -57.11 | X-H torsion

> <Gold.Protein.ActiveResidues>
 VAL166  LYS551  ARG553  GLY616  TRP617  ASP618  TYR619  PRO620  LYS621  CYS622 
 ASP623  PHE694  ASN695  SER759  ASP760  ASP761  ALA762  ILE779  LEU786  VAL792 
 PHE793  MET794  SER795  GLU796  ALA797  LYS798  CYS799  TRP800  GLU811  SER814 

> <Gold.Protein.RotatedAtoms>
  150.7065  134.4749  159.5442 H   0  0  0  0  0  0  0  0  0  0  0  0  # atno 6907 bound_to 6896
  152.2397  134.8237  160.0471 H   0  0  0  0  0  0  0  0  0  0  0  0  # atno 6908 bound_to 6896
  151.9023  133.3506  159.3872 H   0  0  0  0  0  0  0  0  0  0  0  0  # atno 6909 bound_to 6896
  145.7795  139.2881  143.1274 H   0  0  0  0  0  0  0  0  0  0  0  0  # atno 7974 bound_to 7965
  154.4267  140.1803  156.1338 H   0  0  0  0  0  0  0  0  0  0  0  0  # atno 8008 bound_to 7997
  156.0047  140.3356  155.6855 H   0  0  0  0  0  0  0  0  0  0  0  0  # atno 8009 bound_to 7997
  155.6195  140.0658  157.2673 H   0  0  0  0  0  0  0  0  0  0  0  0  # atno 8010 bound_to 7997
  139.8344  144.6671  150.9360 H   0  0  0  0  0  0  0  0  0  0  0  0  # atno 10167 bound_to 10162
  156.1378  130.6443  150.9723 H   0  0  0  0  0  0  0  0  0  0  0  0  # atno 10718 bound_to 10713
  153.0201  135.5272  154.7027 H   0  0  0  0  0  0  0  0  0  0  0  0  # atno 10763 bound_to 10752
  154.6132  135.2880  155.0412 H   0  0  0  0  0  0  0  0  0  0  0  0  # atno 10764 bound_to 10752
  154.1426  135.6575  153.4998 H   0  0  0  0  0  0  0  0  0  0  0  0  # atno 10765 bound_to 10752
  141.0270  134.0039  157.3200 H   0  0  0  0  0  0  0  0  0  0  0  0  # atno 11005 bound_to 11000
  146.0088  140.8454  142.9981 LP  0  0  0  0  0  0  0  0  0  0  0  0  # atno 17320 bound_to 7965
  144.6799  140.2459  143.7338 LP  0  0  0  0  0  0  0  0  0  0  0  0  # atno 17321 bound_to 7965
  140.7804  143.3970  151.1212 LP  0  0  0  0  0  0  0  0  0  0  0  0  # atno 17342 bound_to 10162
  139.7622  143.8619  152.3102 LP  0  0  0  0  0  0  0  0  0  0  0  0  # atno 17343 bound_to 10162
  157.6548  131.0891  150.7971 LP  0  0  0  0  0  0  0  0  0  0  0  0  # atno 17370 bound_to 10713
  156.8050  130.4933  149.5364 LP  0  0  0  0  0  0  0  0  0  0  0  0  # atno 17371 bound_to 10713
  139.9182  135.0198  156.7964 LP  0  0  0  0  0  0  0  0  0  0  0  0  # atno 17394 bound_to 11000
  140.6474  133.9763  155.7738 LP  0  0  0  0  0  0  0  0  0  0  0  0  # atno 17395 bound_to 11000

$$$$
