AV-unprocessed.smi:1859|AV-procd|sdf|7545|dock10
  -GOLD-   22720 9263D 1   1.00000     0.00000
 Structure written by MMmdl.
 46 48  0  0  0  0  0  0  0  0  2 V2000
  150.6091  134.9985  157.3565 O   0  0  0  0  0  0  0  0  0  0  0  0
  150.4335  134.8733  156.1440 C   0  0  0  0  0  0  0  0  0  0  0  0
  150.6862  135.8533  155.2620 N   0  0  0  0  0  0  0  0  0  0  0  0
  151.2068  137.1712  155.6070 C   0  0  0  0  0  0  0  0  0  0  0  0
  151.1054  138.1524  154.4265 C   0  0  0  0  0  0  0  0  0  0  0  0
  149.8336  138.9760  154.4739 C   0  0  0  0  0  0  0  0  0  0  0  0
  149.7486  140.1789  155.2082 C   0  0  0  0  0  0  0  0  0  0  0  0
  148.5390  140.9040  155.2053 C   0  0  0  0  0  0  0  0  0  0  0  0
  147.4415  140.4122  154.4686 C   0  0  0  0  0  0  0  0  0  0  0  0
  147.5825  139.2070  153.7506 C   0  0  0  0  0  0  0  0  0  0  0  0
  148.7583  138.5416  153.7773 N   0  3  0  0  0  0  0  0  0  0  0  0
  149.9051  133.5520  155.5709 C   0  0  2  0  0  0  0  0  0  0  0  0
  150.7040  132.3475  156.1224 C   0  0  0  0  0  0  0  0  0  0  0  0
  150.2823  131.0257  155.4513 C   0  0  0  0  0  0  0  0  0  0  0  0
  150.3044  131.1600  153.9185 C   0  0  0  0  0  0  0  0  0  0  0  0
  149.4310  132.2774  153.5315 N   0  0  0  0  0  0  0  0  0  0  0  0
  148.2398  132.1757  152.8900 C   0  0  0  0  0  0  0  0  0  0  0  0
  147.7549  131.0873  152.5772 O   0  0  0  0  0  0  0  0  0  0  0  0
  147.5346  133.4533  152.5491 C   0  0  0  0  0  0  0  0  0  0  0  0
  146.1476  133.6441  153.1258 C   0  0  0  0  0  0  0  0  0  0  0  0
  146.3119  133.3850  151.6513 C   0  0  0  0  0  0  0  0  0  0  0  0
  149.9548  133.5577  154.0254 C   0  0  0  0  0  0  0  0  0  0  0  0
  150.5171  135.6669  154.2839 H   0  0  0  0  0  0  0  0  0  0  0  0
  150.6715  137.5614  156.4744 H   0  0  0  0  0  0  0  0  0  0  0  0
  152.2476  137.0570  155.9104 H   0  0  0  0  0  0  0  0  0  0  0  0
  151.9653  138.8239  154.4227 H   0  0  0  0  0  0  0  0  0  0  0  0
  151.1346  137.6126  153.4791 H   0  0  0  0  0  0  0  0  0  0  0  0
  150.5996  140.5441  155.7650 H   0  0  0  0  0  0  0  0  0  0  0  0
  148.4546  141.8265  155.7612 H   0  0  0  0  0  0  0  0  0  0  0  0
  146.5060  140.9524  154.4538 H   0  0  0  0  0  0  0  0  0  0  0  0
  146.7966  138.7585  153.1607 H   0  0  0  0  0  0  0  0  0  0  0  0
  148.8626  133.4371  155.8742 H   0  0  0  0  0  0  0  0  0  0  0  0
  151.7707  132.5013  155.9511 H   0  0  0  0  0  0  0  0  0  0  0  0
  150.5750  132.2698  157.2026 H   0  0  0  0  0  0  0  0  0  0  0  0
  150.9442  130.2192  155.7679 H   0  0  0  0  0  0  0  0  0  0  0  0
  149.2789  130.7511  155.7790 H   0  0  0  0  0  0  0  0  0  0  0  0
  151.3207  131.3698  153.5820 H   0  0  0  0  0  0  0  0  0  0  0  0
  150.0432  130.2120  153.4506 H   0  0  0  0  0  0  0  0  0  0  0  0
  148.1585  134.3365  152.4245 H   0  0  0  0  0  0  0  0  0  0  0  0
  145.7282  132.8422  153.7311 H   0  0  0  0  0  0  0  0  0  0  0  0
  145.8801  134.6495  153.4436 H   0  0  0  0  0  0  0  0  0  0  0  0
  146.1552  134.2166  150.9676 H   0  0  0  0  0  0  0  0  0  0  0  0
  145.9775  132.4184  151.2793 H   0  0  0  0  0  0  0  0  0  0  0  0
  149.4051  134.4159  153.6355 H   0  0  0  0  0  0  0  0  0  0  0  0
  150.9801  133.6820  153.6719 H   0  0  0  0  0  0  0  0  0  0  0  0
  148.8376  137.6716  153.2501 H   0  0  0  0  0  0  0  0  0  0  0  0
  1  2  2  0  0  0  0
  2  3  1  0  0  0  0
  2 12  1  0  0  0  0
  3  4  1  0  0  0  0
  3 23  1  0  0  0  0
  4  5  1  0  0  0  0
  4 24  1  0  0  0  0
  4 25  1  0  0  0  0
  5  6  1  0  0  0  0
  5 26  1  0  0  0  0
  5 27  1  0  0  0  0
  6 11  1  0  0  0  0
  6  7  2  0  0  0  0
  7  8  1  0  0  0  0
  7 28  1  0  0  0  0
  8  9  2  0  0  0  0
  8 29  1  0  0  0  0
  9 10  1  0  0  0  0
  9 30  1  0  0  0  0
 10 11  2  0  0  0  0
 10 31  1  0  0  0  0
 11 46  1  0  0  0  0
 12 22  1  0  0  0  0
 12 13  1  0  0  0  0
 12 32  1  0  0  0  0
 13 14  1  0  0  0  0
 13 33  1  0  0  0  0
 13 34  1  0  0  0  0
 14 15  1  0  0  0  0
 14 35  1  0  0  0  0
 14 36  1  0  0  0  0
 15 16  1  0  0  0  0
 15 37  1  0  0  0  0
 15 38  1  0  0  0  0
 16 17  1  0  0  0  0
 16 22  1  0  0  0  0
 17 18  2  0  0  0  0
 17 19  1  0  0  0  0
 19 21  1  0  0  0  0
 19 20  1  0  0  0  0
 19 39  1  0  0  0  0
 20 21  1  0  0  0  0
 20 40  1  0  0  0  0
 20 41  1  0  0  0  0
 21 42  1  0  0  0  0
 21 43  1  0  0  0  0
 22 44  1  0  0  0  0
 22 45  1  0  0  0  0
M  CHG  1  11   1
M  END
> <s_m_source_file>
AV-unprocessed.smi

> <i_m_source_file_index>
1859

> <i_lp_mmshare_version>
43012

> <i_f3d_flags>
0

> <s_epik_input>
W0NIMl0xW0NIMl1bQ0hdMUMoPU8pTihbQ0gyXTIpW0NIMl1bQ0gyXVtDSDJdW0NASF0yQyg9TylbTkhdW0NIMl1bQ0gyXWMzW2NIXVtjSF1bY0hdW2NIXW4z

> <s_epik_cmdline>
J2VwaWtfcHl0aG9uJywgJy1waCcsICc3LjAnLCAnLXRuJywgJzgnLCAnLW1hJywgJzIwMCcsICctbWV0YWxfYmluZGluZycsICctaW1hZScsICc8aW5maWxlLm1hZT4nLCAnLW9tYWUnLCAnPG91dGZpbGUubWFlPic=

> <r_epik_Ionization_Penalty>
1.84754

> <r_epik_Ionization_Penalty_Charging>
1.84754

> <r_epik_Ionization_Penalty_Neutral>
7.35743e-08

> <r_epik_State_Penalty>
1.96477

> <r_epik_Charging_Adjusted_Penalty>
3.81231

> <i_epik_Tot_Q>
1

> <i_epik_Tot_abs_Q>
1

> <r_epik_Metal_State_Penalty>
1.99062

> <b_epik_Metal_Only>
0

> <s_lp_Force_Field>
OPLS_2005

> <r_lp_Energy>
35.3834

> <b_lp_Chiralities_Consistent>
1

> <s_lp_Variant>
AV-unprocessed.smi:1859-3

> <Gold.Version>
5.8.1

> <Gold.Id.Protein>
6NUR|6NUR_protein|mol2

> <Gold.PLP.Fitness>
43.5746

> <Gold.PLP.PLP>
-39.3716

> <Gold.PLP.part.hbond>
-3.0000

> <Gold.PLP.part.metal>
0.0000

> <Gold.PLP.part.buried>
-2.3256

> <Gold.PLP.part.nonpolar>
-34.6406

> <Gold.PLP.part.repulsive>
0.3055

> <Gold.PLP.ligand.clash>
1.5103

> <Gold.PLP.ligand.torsion>
0.8995

> <Gold.PLP.Chemscore.Hbond>
2.4641

> <Gold.PLP.Chemscore.CHOScore>
0.0000

> <Gold.PLP.Chemscore.Metal>
0.0000

> <Gold.Chemscore.Hbonds>
donor molecule, donor type, donor heavy atom, donor atom, acceptor molecule, acceptor atom, score
      L1  H    11    46       P1  7948  2.00
      P1  H  6896  6909       L1     1  0.30

> <Gold.PLP.Chemscore.Internal.Correction>
0.1200

> <Gold.Rescore>
     Score         DG    S(hbond)    S(metal)    S(lipo)     H(rot)  DE(clash)    DE(int)     intcor
     15.46     -16.40       1.74        0.00      80.84       1.70       0.02       0.92       ----

> <Gold.Chemscore.Fitness>
15.4590

> <Gold.Chemscore.DG>
-16.3980

> <Gold.Chemscore.ZeroCoef>
-5.4800

> <Gold.Chemscore.Hbond>
1.7384

> <Gold.Chemscore.Metal>
0.0000

> <Gold.Chemscore.Lipo>
80.8420

> <Gold.Chemscore.Internal_Hbond>
0.0000

> <Gold.Chemscore.DEClash>
0.0207

> <Gold.Chemscore.DEInternal>
0.9183

> <Gold.Chemscore.Rot>
1.6980

> <Gold.Chemscore.Internal.Correction>
   9.000000E+99

> <Gold.Chemscore.Hbonds>
donor molecule, donor type, donor heavy atom, donor atom, acceptor molecule, acceptor atom, score
      L1  H    11    46       P1  7948  0.97
      P1  H  6896  6909       L1     1  0.30

> <Gold.Chemscore.Hbond.Weighted>
-5.8064

> <Gold.Chemscore.Metal.Weighted>
-0.0000

> <Gold.Chemscore.Lipo.Weighted>
-9.4585

> <Gold.Chemscore.Internal_Hbond.Weighted>
0.0000

> <Gold.Chemscore.DEClash.Weighted>
0.0207

> <Gold.Chemscore.DEInternal.Weighted>
0.9183

> <Gold.Chemscore.Rot.Weighted>
4.3469

> <Gold.Chemscore.Internal.Correction.Weighted>
   9.000000E+99

> <Gold.Protein.RotatedTorsions>
[ 6907 6896 6895 6894 ] final   37.63 input  -60.11 | X-H torsion
[ 7974 7965 7964 7962 ] final   -3.40 input  175.53 | X-H torsion
[ 8008 7997 7996 7995 ] final  177.15 input   59.86 | X-H torsion
[ 10167 10162 10161 10158 ] final   -7.67 input  -65.29 | X-H torsion
[ 10718 10713 10712 10709 ] final  -66.28 input   66.30 | X-H torsion
[ 10763 10752 10751 10750 ] final   79.65 input  -60.55 | X-H torsion
[ 11005 11000 10999 10996 ] final   74.12 input  -57.11 | X-H torsion

> <Gold.Protein.ActiveResidues>
 VAL166  LYS551  ARG553  GLY616  TRP617  ASP618  TYR619  PRO620  LYS621  CYS622 
 ASP623  PHE694  ASN695  SER759  ASP760  ASP761  ALA762  ILE779  LEU786  VAL792 
 PHE793  MET794  SER795  GLU796  ALA797  LYS798  CYS799  TRP800  GLU811  SER814 

> <Gold.Protein.RotatedAtoms>
  152.1458  134.9027  160.0550 H   0  0  0  0  0  0  0  0  0  0  0  0  # atno 6907 bound_to 6896
  152.0078  133.3845  159.4216 H   0  0  0  0  0  0  0  0  0  0  0  0  # atno 6908 bound_to 6896
  150.6870  134.3685  159.5025 H   0  0  0  0  0  0  0  0  0  0  0  0  # atno 6909 bound_to 6896
  146.2390  140.1715  142.8332 H   0  0  0  0  0  0  0  0  0  0  0  0  # atno 7974 bound_to 7965
  156.0688  140.1365  156.9854 H   0  0  0  0  0  0  0  0  0  0  0  0  # atno 8008 bound_to 7997
  154.4520  140.0976  156.6698 H   0  0  0  0  0  0  0  0  0  0  0  0  # atno 8009 bound_to 7997
  155.5262  140.3457  155.4419 H   0  0  0  0  0  0  0  0  0  0  0  0  # atno 8010 bound_to 7997
  140.7036  143.6055  150.8756 H   0  0  0  0  0  0  0  0  0  0  0  0  # atno 10167 bound_to 10162
  156.0621  130.4260  150.1686 H   0  0  0  0  0  0  0  0  0  0  0  0  # atno 10718 bound_to 10713
  153.0969  135.4832  154.8796 H   0  0  0  0  0  0  0  0  0  0  0  0  # atno 10763 bound_to 10752
  154.7335  135.3065  154.8854 H   0  0  0  0  0  0  0  0  0  0  0  0  # atno 10764 bound_to 10752
  153.9482  135.6826  153.4797 H   0  0  0  0  0  0  0  0  0  0  0  0  # atno 10765 bound_to 10752
  139.9406  134.7405  156.1109 H   0  0  0  0  0  0  0  0  0  0  0  0  # atno 11005 bound_to 11000
  145.0008  140.8630  143.5283 LP  0  0  0  0  0  0  0  0  0  0  0  0  # atno 17320 bound_to 7965
  145.1734  139.2391  143.5330 LP  0  0  0  0  0  0  0  0  0  0  0  0  # atno 17321 bound_to 7965
  139.9778  143.5984  152.2953 LP  0  0  0  0  0  0  0  0  0  0  0  0  # atno 17342 bound_to 10162
  139.6595  144.7662  151.1991 LP  0  0  0  0  0  0  0  0  0  0  0  0  # atno 17343 bound_to 10162
  156.9752  130.9847  151.3450 LP  0  0  0  0  0  0  0  0  0  0  0  0  # atno 17370 bound_to 10713
  157.5637  130.8263  149.8300 LP  0  0  0  0  0  0  0  0  0  0  0  0  # atno 17371 bound_to 10713
  141.1039  133.6667  156.2819 LP  0  0  0  0  0  0  0  0  0  0  0  0  # atno 17394 bound_to 11000
  140.5961  134.5602  157.5509 LP  0  0  0  0  0  0  0  0  0  0  0  0  # atno 17395 bound_to 11000

$$$$
