AV-unprocessed.smi:3278|AV-procd|sdf|12546|dock10
  -GOLD-   2272018463D 1   1.00000     0.00000
 Structure written by MMmdl.
 38 39  0  0  0  0  0  0  0  0  1 V2000
  145.2431  142.4402  156.3278 C   0  0  0  0  0  0  0  0  0  0  0  0
  146.3635  141.9031  155.5862 N   0  0  0  0  0  0  0  0  0  0  0  0
  147.5473  141.3883  156.0684 C   0  0  0  0  0  0  0  0  0  0  0  0
  148.2994  141.0010  154.9934 C   0  0  0  0  0  0  0  0  0  0  0  0
  149.6767  140.3723  154.9641 C   0  0  1  0  0  0  0  0  0  0  0  0
  149.6302  138.9937  155.6445 C   0  0  0  0  0  0  0  0  0  0  0  0
  150.1275  140.1291  153.6440 O   0  0  0  0  0  0  0  0  0  0  0  0
  150.7331  141.2655  155.6524 C   0  0  0  0  0  0  0  0  0  0  0  0
  150.3825  141.5616  157.0447 N   0  0  0  0  0  0  0  0  0  0  0  0
  151.3925  142.2858  157.8219 C   0  0  1  0  0  0  0  0  0  0  0  0
  150.7596  143.3710  158.7245 C   0  0  0  0  0  0  0  0  0  0  0  0
  151.8038  144.1716  159.5204 C   0  0  0  0  0  0  0  0  0  0  0  0
  152.6358  143.2896  160.4596 C   0  0  0  0  0  0  0  0  0  0  0  0
  153.5794  142.0580  159.5254 S   0  0  0  0  0  0  0  0  0  0  0  0
  152.1956  141.2715  158.6570 C   0  0  0  0  0  0  0  0  0  0  0  0
  147.4680  141.3303  153.8829 C   0  0  0  0  0  0  0  0  0  0  0  0
  146.3132  141.8679  154.2395 N   0  0  0  0  0  0  0  0  0  0  0  0
  145.4951  142.5114  157.3862 H   0  0  0  0  0  0  0  0  0  0  0  0
  144.3777  141.7871  156.2116 H   0  0  0  0  0  0  0  0  0  0  0  0
  144.9946  143.4348  155.9560 H   0  0  0  0  0  0  0  0  0  0  0  0
  147.7557  141.3383  157.1270 H   0  0  0  0  0  0  0  0  0  0  0  0
  149.3230  139.0765  156.6876 H   0  0  0  0  0  0  0  0  0  0  0  0
  150.6061  138.5070  155.6300 H   0  0  0  0  0  0  0  0  0  0  0  0
  148.9227  138.3293  155.1467 H   0  0  0  0  0  0  0  0  0  0  0  0
  149.4296  140.3449  153.0447 H   0  0  0  0  0  0  0  0  0  0  0  0
  151.6993  140.7597  155.6297 H   0  0  0  0  0  0  0  0  0  0  0  0
  150.8530  142.1825  155.0764 H   0  0  0  0  0  0  0  0  0  0  0  0
  149.4990  142.0607  157.0728 H   0  0  0  0  0  0  0  0  0  0  0  0
  152.0822  142.7704  157.1295 H   0  0  0  0  0  0  0  0  0  0  0  0
  150.1915  144.0818  158.1263 H   0  0  0  0  0  0  0  0  0  0  0  0
  150.0479  142.9127  159.4127 H   0  0  0  0  0  0  0  0  0  0  0  0
  152.4637  144.7016  158.8328 H   0  0  0  0  0  0  0  0  0  0  0  0
  151.2962  144.9382  160.1063 H   0  0  0  0  0  0  0  0  0  0  0  0
  153.3318  143.9005  161.0348 H   0  0  0  0  0  0  0  0  0  0  0  0
  151.9904  142.7785  161.1744 H   0  0  0  0  0  0  0  0  0  0  0  0
  151.5531  140.7803  159.3891 H   0  0  0  0  0  0  0  0  0  0  0  0
  152.6021  140.4893  158.0153 H   0  0  0  0  0  0  0  0  0  0  0  0
  147.6708  141.1922  152.8310 H   0  0  0  0  0  0  0  0  0  0  0  0
  1  2  1  0  0  0  0
  1 18  1  0  0  0  0
  1 19  1  0  0  0  0
  1 20  1  0  0  0  0
  2 17  1  0  0  0  0
  2  3  1  0  0  0  0
  3  4  2  0  0  0  0
  3 21  1  0  0  0  0
  4  5  1  0  0  0  0
  4 16  1  0  0  0  0
  5  6  1  0  0  0  0
  5  7  1  0  0  0  0
  5  8  1  0  0  0  0
  6 22  1  0  0  0  0
  6 23  1  0  0  0  0
  6 24  1  0  0  0  0
  7 25  1  0  0  0  0
  8  9  1  0  0  0  0
  8 26  1  0  0  0  0
  8 27  1  0  0  0  0
  9 10  1  0  0  0  0
  9 28  1  0  0  0  0
 10 15  1  0  0  0  0
 10 11  1  0  0  0  0
 10 29  1  0  0  0  0
 11 12  1  0  0  0  0
 11 30  1  0  0  0  0
 11 31  1  0  0  0  0
 12 13  1  0  0  0  0
 12 32  1  0  0  0  0
 12 33  1  0  0  0  0
 13 14  1  0  0  0  0
 13 34  1  0  0  0  0
 13 35  1  0  0  0  0
 14 15  1  0  0  0  0
 15 36  1  0  0  0  0
 15 37  1  0  0  0  0
 16 17  2  0  0  0  0
 16 38  1  0  0  0  0
M  END
> <s_m_source_file>
AV-unprocessed.smi

> <i_m_source_file_index>
3278

> <i_lp_mmshare_version>
43012

> <i_f3d_flags>
0

> <s_epik_input>
W0NIM11uMVtjSF1jKFtjSF1uMSlbQ0BAXShbQ0gzXSkoW09IXSlbQ0gyXVtOSF1bQ0BASF0yW0NIMl1bQ0gyXVtDSDJdU1tDSDJdMg==

> <s_epik_cmdline>
J2VwaWtfcHl0aG9uJywgJy1waCcsICc3LjAnLCAnLXRuJywgJzgnLCAnLW1hJywgJzIwMCcsICctbWV0YWxfYmluZGluZycsICctaW1hZScsICc8aW5maWxlLm1hZT4nLCAnLW9tYWUnLCAnPG91dGZpbGUubWFlPic=

> <r_lp_tautomer_probability>
1

> <r_epik_Ionization_Penalty>
2.06123

> <r_epik_Ionization_Penalty_Charging>
0

> <r_epik_Ionization_Penalty_Neutral>
2.06123

> <r_epik_State_Penalty>
2.1944

> <r_epik_Charging_Adjusted_Penalty>
2.1944

> <i_epik_Tot_Q>
0

> <i_epik_Tot_abs_Q>
0

> <r_epik_Metal_State_Penalty>
2.19434

> <b_epik_Metal_Only>
0

> <s_lp_Force_Field>
OPLS_2005

> <r_lp_Energy>
12.2085

> <b_lp_Chiralities_Consistent>
1

> <s_lp_Variant>
AV-unprocessed.smi:3278-7

> <Gold.Version>
5.8.1

> <Gold.Id.Protein>
6NUR|6NUR_protein|mol2

> <Gold.PLP.Fitness>
43.7812

> <Gold.PLP.PLP>
-36.5068

> <Gold.PLP.part.hbond>
-2.0000

> <Gold.PLP.part.metal>
0.0000

> <Gold.PLP.part.buried>
-3.7704

> <Gold.PLP.part.nonpolar>
-30.3869

> <Gold.PLP.part.repulsive>
0.2021

> <Gold.PLP.ligand.clash>
0.0000

> <Gold.PLP.ligand.torsion>
0.5864

> <Gold.PLP.Chemscore.Hbond>
1.8080

> <Gold.PLP.Chemscore.CHOScore>
1.0000

> <Gold.PLP.Chemscore.Metal>
0.0000

> <Gold.Chemscore.Hbonds>
donor molecule, donor type, donor heavy atom, donor atom, acceptor molecule, acceptor atom, score
      L1  H     7    25       P1  7957  0.42
      P1  H  7989  7998       L1     7  0.74
      L1  C    16    38       P1  7957  0.36

> <Gold.PLP.Chemscore.Internal.Correction>
0.0231

> <Gold.Rescore>
     Score         DG    S(hbond)    S(metal)    S(lipo)     H(rot)  DE(clash)    DE(int)     intcor
     16.25     -16.59       1.32        0.00      99.65       1.93       0.03       0.31       ----

> <Gold.Chemscore.Fitness>
16.2535

> <Gold.Chemscore.DG>
-16.5928

> <Gold.Chemscore.ZeroCoef>
-5.4800

> <Gold.Chemscore.Hbond>
1.3180

> <Gold.Chemscore.Metal>
0.0000

> <Gold.Chemscore.Lipo>
99.6483

> <Gold.Chemscore.Internal_Hbond>
0.0000

> <Gold.Chemscore.DEClash>
0.0261

> <Gold.Chemscore.DEInternal>
0.3133

> <Gold.Chemscore.Rot>
1.9329

> <Gold.Chemscore.Internal.Correction>
   9.000000E+99

> <Gold.Chemscore.Hbonds>
donor molecule, donor type, donor heavy atom, donor atom, acceptor molecule, acceptor atom, score
      L1  H     7    25       P1  7957  0.42
      P1  H  7989  7998       L1     7  0.47

> <Gold.Chemscore.Hbond.Weighted>
-4.4022

> <Gold.Chemscore.Metal.Weighted>
-0.0000

> <Gold.Chemscore.Lipo.Weighted>
-11.6588

> <Gold.Chemscore.Internal_Hbond.Weighted>
0.0000

> <Gold.Chemscore.DEClash.Weighted>
0.0261

> <Gold.Chemscore.DEInternal.Weighted>
0.3133

> <Gold.Chemscore.Rot.Weighted>
4.9483

> <Gold.Chemscore.Internal.Correction.Weighted>
   9.000000E+99

> <Gold.Protein.RotatedTorsions>
[ 6907 6896 6895 6894 ] final -146.00 input  -60.11 | X-H torsion
[ 7974 7965 7964 7962 ] final   76.03 input  175.53 | X-H torsion
[ 8008 7997 7996 7995 ] final  -13.65 input   59.86 | X-H torsion
[ 10167 10162 10161 10158 ] final   24.30 input  -65.29 | X-H torsion
[ 10718 10713 10712 10709 ] final   43.59 input   66.30 | X-H torsion
[ 10763 10752 10751 10750 ] final  129.39 input  -60.55 | X-H torsion
[ 11005 11000 10999 10996 ] final -150.92 input  -57.11 | X-H torsion

> <Gold.Protein.ActiveResidues>
 VAL166  LYS551  ARG553  GLY616  TRP617  ASP618  TYR619  PRO620  LYS621  CYS622 
 ASP623  PHE694  ASN695  SER759  ASP760  ASP761  ALA762  ILE779  LEU786  VAL792 
 PHE793  MET794  SER795  GLU796  ALA797  LYS798  CYS799  TRP800  GLU811  SER814 

> <Gold.Protein.RotatedAtoms>
  151.1355  133.5007  159.2597 H   0  0  0  0  0  0  0  0  0  0  0  0  # atno 6907 bound_to 6896
  151.1711  135.0318  159.8762 H   0  0  0  0  0  0  0  0  0  0  0  0  # atno 6908 bound_to 6896
  152.5461  134.1218  159.8455 H   0  0  0  0  0  0  0  0  0  0  0  0  # atno 6909 bound_to 6896
  145.7081  139.2605  143.1667 H   0  0  0  0  0  0  0  0  0  0  0  0  # atno 7974 bound_to 7965
  154.5274  140.2244  155.8865 H   0  0  0  0  0  0  0  0  0  0  0  0  # atno 8008 bound_to 7997
  156.1728  140.3118  155.8969 H   0  0  0  0  0  0  0  0  0  0  0  0  # atno 8009 bound_to 7997
  155.3522  140.0456  157.3037 H   0  0  0  0  0  0  0  0  0  0  0  0  # atno 8010 bound_to 7997
  140.5199  144.0019  150.6412 H   0  0  0  0  0  0  0  0  0  0  0  0  # atno 10167 bound_to 10162
  157.4175  130.7950  149.7485 H   0  0  0  0  0  0  0  0  0  0  0  0  # atno 10718 bound_to 10713
  153.7410  135.3224  155.3304 H   0  0  0  0  0  0  0  0  0  0  0  0  # atno 10763 bound_to 10752
  154.8295  135.4544  154.1026 H   0  0  0  0  0  0  0  0  0  0  0  0  # atno 10764 bound_to 10752
  153.2201  135.6947  153.8092 H   0  0  0  0  0  0  0  0  0  0  0  0  # atno 10765 bound_to 10752
  140.7350  134.3578  157.5159 H   0  0  0  0  0  0  0  0  0  0  0  0  # atno 11005 bound_to 11000
  146.0738  140.7840  142.9675 LP  0  0  0  0  0  0  0  0  0  0  0  0  # atno 17320 bound_to 7965
  144.6949  140.3382  143.7204 LP  0  0  0  0  0  0  0  0  0  0  0  0  # atno 17321 bound_to 7965
  140.3365  143.3045  152.0633 LP  0  0  0  0  0  0  0  0  0  0  0  0  # atno 17342 bound_to 10162
  139.4920  144.6472  151.6752 LP  0  0  0  0  0  0  0  0  0  0  0  0  # atno 17343 bound_to 10162
  155.9870  130.3970  150.3186 LP  0  0  0  0  0  0  0  0  0  0  0  0  # atno 17370 bound_to 10713
  157.1331  131.0277  151.2961 LP  0  0  0  0  0  0  0  0  0  0  0  0  # atno 17371 bound_to 10713
  139.8818  134.9043  156.2875 LP  0  0  0  0  0  0  0  0  0  0  0  0  # atno 17394 bound_to 11000
  140.9887  133.7222  156.0781 LP  0  0  0  0  0  0  0  0  0  0  0  0  # atno 17395 bound_to 11000

$$$$
