AV-unprocessed.smi:3330|AV-procd|sdf|12812|dock3
  -GOLD-   2272019183D 1   1.00000     0.00000
 Structure written by MMmdl.
 38 39  0  0  0  0  0  0  0  0  3 V2000
  150.5133  133.5032  155.7719 C   0  0  0  0  0  0  0  0  0  0  0  0
  149.1949  133.7042  155.0028 C   0  0  1  0  0  0  0  0  0  0  0  0
  149.1345  135.0828  154.4676 N   0  3  0  0  0  0  0  0  0  0  0  0
  149.7859  136.1204  155.2935 C   0  0  0  0  0  0  0  0  0  0  0  0
  150.9955  136.7412  154.5693 C   0  0  0  0  0  0  0  0  0  0  0  0
  151.4870  137.9566  155.2342 N   0  0  0  0  0  0  0  0  0  0  0  0
  151.0538  139.1943  154.9717 C   0  0  0  0  0  0  0  0  0  0  0  0
  150.1868  139.5359  154.1675 O   0  0  0  0  0  0  0  0  0  0  0  0
  151.8013  140.1422  155.8790 C   0  0  0  0  0  0  0  0  0  0  0  0
  152.6325  139.2419  156.6449 N   0  5  0  0  0  0  0  0  0  0  0  0
  152.4068  137.9784  156.2175 C   0  0  0  0  0  0  0  0  0  0  0  0
  152.9338  136.9517  156.6434 O   0  0  0  0  0  0  0  0  0  0  0  0
  149.0123  132.6909  153.8410 C   0  0  1  0  0  0  0  0  0  0  0  0
  149.2522  131.2296  154.2637 C   0  0  0  0  0  0  0  0  0  0  0  0
  147.6921  132.8139  153.2303 N   0  0  0  0  0  0  0  0  0  0  0  0
  147.3818  133.0169  151.9014 C   0  0  0  0  0  0  0  0  0  0  0  0
  146.0212  133.0666  151.8025 C   0  0  0  0  0  0  0  0  0  0  0  0
  145.5768  132.8815  153.1407 C   0  0  0  0  0  0  0  0  0  0  0  0
  146.5776  132.7225  153.9910 N   0  0  0  0  0  0  0  0  0  0  0  0
  150.5542  132.5263  156.2527 H   0  0  0  0  0  0  0  0  0  0  0  0
  150.6296  134.2453  156.5619 H   0  0  0  0  0  0  0  0  0  0  0  0
  151.3757  133.5866  155.1101 H   0  0  0  0  0  0  0  0  0  0  0  0
  148.3674  133.5687  155.7011 H   0  0  0  0  0  0  0  0  0  0  0  0
  149.5104  135.1020  153.5307 H   0  0  0  0  0  0  0  0  0  0  0  0
  149.0609  136.9042  155.5160 H   0  0  0  0  0  0  0  0  0  0  0  0
  150.0977  135.6961  156.2477 H   0  0  0  0  0  0  0  0  0  0  0  0
  151.8023  136.0097  154.5046 H   0  0  0  0  0  0  0  0  0  0  0  0
  150.7223  136.9640  153.5366 H   0  0  0  0  0  0  0  0  0  0  0  0
  152.3734  140.8532  155.2824 H   0  0  0  0  0  0  0  0  0  0  0  0
  151.0964  140.7060  156.4904 H   0  0  0  0  0  0  0  0  0  0  0  0
  149.7410  132.9321  153.0654 H   0  0  0  0  0  0  0  0  0  0  0  0
  150.2829  131.0627  154.5746 H   0  0  0  0  0  0  0  0  0  0  0  0
  149.0560  130.5481  153.4353 H   0  0  0  0  0  0  0  0  0  0  0  0
  148.6021  130.9408  155.0904 H   0  0  0  0  0  0  0  0  0  0  0  0
  148.1459  133.1129  151.1442 H   0  0  0  0  0  0  0  0  0  0  0  0
  145.4313  133.2204  150.9111 H   0  0  0  0  0  0  0  0  0  0  0  0
  144.5645  132.8579  153.5166 H   0  0  0  0  0  0  0  0  0  0  0  0
  148.1568  135.3343  154.4228 H   0  0  0  0  0  0  0  0  0  0  0  0
  1  2  1  0  0  0  0
  1 20  1  0  0  0  0
  1 21  1  0  0  0  0
  1 22  1  0  0  0  0
  2  3  1  0  0  0  0
  2 13  1  0  0  0  0
  2 23  1  0  0  0  0
  3  4  1  0  0  0  0
  3 24  1  0  0  0  0
  3 38  1  0  0  0  0
  4  5  1  0  0  0  0
  4 25  1  0  0  0  0
  4 26  1  0  0  0  0
  5  6  1  0  0  0  0
  5 27  1  0  0  0  0
  5 28  1  0  0  0  0
  6 11  1  0  0  0  0
  6  7  1  0  0  0  0
  7  8  2  0  0  0  0
  7  9  1  0  0  0  0
  9 10  1  0  0  0  0
  9 29  1  0  0  0  0
  9 30  1  0  0  0  0
 10 11  1  0  0  0  0
 11 12  2  0  0  0  0
 13 14  1  0  0  0  0
 13 15  1  0  0  0  0
 13 31  1  0  0  0  0
 14 32  1  0  0  0  0
 14 33  1  0  0  0  0
 14 34  1  0  0  0  0
 15 19  1  0  0  0  0
 15 16  1  0  0  0  0
 16 17  2  0  0  0  0
 16 35  1  0  0  0  0
 17 18  1  0  0  0  0
 17 36  1  0  0  0  0
 18 19  2  0  0  0  0
 18 37  1  0  0  0  0
M  CHG  1   3   1
M  CHG  1  10  -1
M  END
> <s_m_source_file>
AV-unprocessed.smi

> <i_m_source_file_index>
3330

> <i_lp_mmshare_version>
43012

> <i_f3d_flags>
0

> <s_epik_input>
bjFbY0hdW2NIXVtjSF1uMVtDQEBIXShbQ0gzXSlbQ0BIXShbQ0gzXSlbTkhdW0NIMl1bQ0gyXU4yQyg9TylbQ0gyXVtOSF1DMj1P

> <s_epik_cmdline>
J2VwaWtfcHl0aG9uJywgJy1waCcsICc3LjAnLCAnLXRuJywgJzgnLCAnLW1hJywgJzIwMCcsICctbWV0YWxfYmluZGluZycsICctaW1hZScsICc8aW5maWxlLm1hZT4nLCAnLW9tYWUnLCAnPG91dGZpbGUubWFlPic=

> <r_lp_tautomer_probability>
1

> <r_epik_Ionization_Penalty>
5.18149

> <r_epik_Ionization_Penalty_Charging>
5.18148

> <r_epik_Ionization_Penalty_Neutral>
9.83265e-06

> <r_epik_State_Penalty>
5.18201

> <r_epik_Charging_Adjusted_Penalty>
10.3635

> <i_epik_Tot_Q>
0

> <i_epik_Tot_abs_Q>
2

> <r_epik_Metal_State_Penalty>
1.25422

> <b_epik_Metal_Only>
1

> <s_lp_Force_Field>
OPLS_2005

> <r_lp_Energy>
19.5827

> <b_lp_Chiralities_Consistent>
1

> <s_lp_Variant>
AV-unprocessed.smi:3330-12

> <Gold.Version>
5.8.1

> <Gold.Id.Protein>
6NUR|6NUR_protein|mol2

> <Gold.PLP.Fitness>
45.9172

> <Gold.PLP.PLP>
-31.9683

> <Gold.PLP.part.hbond>
-4.0000

> <Gold.PLP.part.metal>
0.0000

> <Gold.PLP.part.buried>
-1.3608

> <Gold.PLP.part.nonpolar>
-28.4781

> <Gold.PLP.part.repulsive>
0.6812

> <Gold.PLP.ligand.clash>
0.0000

> <Gold.PLP.ligand.torsion>
1.2629

> <Gold.PLP.Chemscore.Hbond>
3.7844

> <Gold.PLP.Chemscore.CHOScore>
1.6714

> <Gold.PLP.Chemscore.Metal>
0.0000

> <Gold.Chemscore.Hbonds>
donor molecule, donor type, donor heavy atom, donor atom, acceptor molecule, acceptor atom, score
      L1  H     3    24       P1  7948  0.75
      P1  H  7989  7998       L1     8  0.23
      P1  H  7997  8008       L1    10  2.00
      P1  H 10752 10763       L1    12  0.71
      L1  C    16    35       P1 10747  0.66
      L1  C    18    37       P1 10957  1.00

> <Gold.PLP.Chemscore.Internal.Correction>
0.1073

> <Gold.Rescore>
     Score         DG    S(hbond)    S(metal)    S(lipo)     H(rot)  DE(clash)    DE(int)     intcor
      9.62     -10.72       1.60        0.00      55.90       2.59       0.01       1.09       ----

> <Gold.Chemscore.Fitness>
9.6248

> <Gold.Chemscore.DG>
-10.7218

> <Gold.Chemscore.ZeroCoef>
-5.4800

> <Gold.Chemscore.Hbond>
1.5967

> <Gold.Chemscore.Metal>
0.0000

> <Gold.Chemscore.Lipo>
55.8951

> <Gold.Chemscore.Internal_Hbond>
0.0000

> <Gold.Chemscore.DEClash>
0.0069

> <Gold.Chemscore.DEInternal>
1.0900

> <Gold.Chemscore.Rot>
2.5903

> <Gold.Chemscore.Internal.Correction>
   9.000000E+99

> <Gold.Chemscore.Hbonds>
donor molecule, donor type, donor heavy atom, donor atom, acceptor molecule, acceptor atom, score
      L1  H     3    24       P1  7948  0.02
      P1  H  7997  8008       L1    10  0.25
      P1  H 10752 10763       L1    12  0.65

> <Gold.Chemscore.Hbond.Weighted>
-5.3331

> <Gold.Chemscore.Metal.Weighted>
-0.0000

> <Gold.Chemscore.Lipo.Weighted>
-6.5397

> <Gold.Chemscore.Internal_Hbond.Weighted>
0.0000

> <Gold.Chemscore.DEClash.Weighted>
0.0069

> <Gold.Chemscore.DEInternal.Weighted>
1.0900

> <Gold.Chemscore.Rot.Weighted>
6.6311

> <Gold.Chemscore.Internal.Correction.Weighted>
   9.000000E+99

> <Gold.Protein.RotatedTorsions>
[ 6907 6896 6895 6894 ] final  164.18 input  -60.11 | X-H torsion
[ 7974 7965 7964 7962 ] final  -72.30 input  175.53 | X-H torsion
[ 8008 7997 7996 7995 ] final  -48.66 input   59.86 | X-H torsion
[ 10167 10162 10161 10158 ] final  143.85 input  -65.29 | X-H torsion
[ 10718 10713 10712 10709 ] final  -29.40 input   66.30 | X-H torsion
[ 10763 10752 10751 10750 ] final  105.05 input  -60.55 | X-H torsion
[ 11005 11000 10999 10996 ] final  -19.66 input  -57.11 | X-H torsion

> <Gold.Protein.ActiveResidues>
 VAL166  LYS551  ARG553  GLY616  TRP617  ASP618  TYR619  PRO620  LYS621  CYS622 
 ASP623  PHE694  ASN695  SER759  ASP760  ASP761  ALA762  ILE779  LEU786  VAL792 
 PHE793  MET794  SER795  GLU796  ALA797  LYS798  CYS799  TRP800  GLU811  SER814 

> <Gold.Protein.RotatedAtoms>
  151.9138  133.3568  159.3872 H   0  0  0  0  0  0  0  0  0  0  0  0  # atno 6907 bound_to 6896
  150.7052  134.4705  159.5432 H   0  0  0  0  0  0  0  0  0  0  0  0  # atno 6908 bound_to 6896
  152.2316  134.8316  160.0523 H   0  0  0  0  0  0  0  0  0  0  0  0  # atno 6909 bound_to 6896
  145.6669  140.9234  143.0903 H   0  0  0  0  0  0  0  0  0  0  0  0  # atno 7974 bound_to 7965
  154.4032  140.1316  156.4375 H   0  0  0  0  0  0  0  0  0  0  0  0  # atno 8008 bound_to 7997
  155.7491  140.3488  155.5121 H   0  0  0  0  0  0  0  0  0  0  0  0  # atno 8009 bound_to 7997
  155.8967  140.1012  157.1370 H   0  0  0  0  0  0  0  0  0  0  0  0  # atno 8010 bound_to 7997
  139.4960  144.6013  151.6476 H   0  0  0  0  0  0  0  0  0  0  0  0  # atno 10167 bound_to 10162
  156.4130  130.4411  149.7238 H   0  0  0  0  0  0  0  0  0  0  0  0  # atno 10718 bound_to 10713
  153.3742  135.3923  155.1810 H   0  0  0  0  0  0  0  0  0  0  0  0  # atno 10763 bound_to 10752
  154.8698  135.3709  154.4940 H   0  0  0  0  0  0  0  0  0  0  0  0  # atno 10764 bound_to 10752
  153.5410  135.7084  153.5697 H   0  0  0  0  0  0  0  0  0  0  0  0  # atno 10765 bound_to 10752
  140.8389  133.7941  155.9839 H   0  0  0  0  0  0  0  0  0  0  0  0  # atno 11005 bound_to 11000
  144.7070  139.8522  143.7427 LP  0  0  0  0  0  0  0  0  0  0  0  0  # atno 17320 bound_to 7965
  146.1078  139.4079  143.0307 LP  0  0  0  0  0  0  0  0  0  0  0  0  # atno 17321 bound_to 7965
  140.5663  144.0184  150.6194 LP  0  0  0  0  0  0  0  0  0  0  0  0  # atno 17342 bound_to 10162
  140.3287  143.3091  152.0709 LP  0  0  0  0  0  0  0  0  0  0  0  0  # atno 17343 bound_to 10162
  156.4209  130.7768  151.2785 LP  0  0  0  0  0  0  0  0  0  0  0  0  # atno 17370 bound_to 10713
  157.7507  131.0183  150.3620 LP  0  0  0  0  0  0  0  0  0  0  0  0  # atno 17371 bound_to 10713
  140.8917  134.2487  157.5091 LP  0  0  0  0  0  0  0  0  0  0  0  0  # atno 17394 bound_to 11000
  139.8703  134.9664  156.4563 LP  0  0  0  0  0  0  0  0  0  0  0  0  # atno 17395 bound_to 11000

$$$$
