AV-unprocessed.smi:1188|AV-procd|sdf|4977|dock4
  -GOLD-   22720 3573D 1   1.00000     0.00000
 Structure written by MMmdl.
 48 49  0  0  0  0  0  0  0  0  1 V2000
  145.3469  135.1178  151.0861 C   0  0  0  0  0  0  0  0  0  0  0  0
  146.1410  134.3839  151.6535 C   0  0  0  0  0  0  0  0  0  0  0  0
  147.1100  133.5084  152.3290 C   0  0  0  0  0  0  0  0  0  0  0  0
  147.8590  134.2227  153.3519 N   0  0  0  0  0  0  0  0  0  0  0  0
  147.7928  133.9670  154.6699 C   0  0  0  0  0  0  0  0  0  0  0  0
  147.0648  133.0808  155.1191 O   0  0  0  0  0  0  0  0  0  0  0  0
  148.6519  134.8234  155.4928 C   0  0  0  0  0  0  0  0  0  0  0  0
  148.5427  134.7551  156.9371 C   0  0  0  0  0  0  0  0  0  0  0  0
  149.3257  135.5173  157.7252 C   0  0  0  0  0  0  0  0  0  0  0  0
  150.3116  136.4453  157.1644 C   0  0  0  0  0  0  0  0  0  0  0  0
  151.0350  137.1403  157.8786 O   0  0  0  0  0  0  0  0  0  0  0  0
  150.3752  136.4907  155.7990 N   0  0  0  0  0  0  0  0  0  0  0  0
  151.3246  137.3901  155.1217 C   0  0  0  0  0  0  0  0  0  0  0  0
  151.0711  138.8739  155.4238 C   0  0  0  0  0  0  0  0  0  0  0  0
  150.5197  139.6002  154.5958 O   0  0  0  0  0  0  0  0  0  0  0  0
  151.4659  139.3041  156.6315 N   0  0  0  0  0  0  0  0  0  0  0  0
  151.3211  140.6686  157.1247 C   0  0  0  0  0  0  0  0  0  0  0  0
  151.9247  140.8299  158.5315 C   0  0  0  0  0  0  0  0  0  0  0  0
  152.0408  142.2838  158.9588 C   0  0  0  0  0  0  0  0  0  0  0  0
  152.4582  142.6339  160.1911 C   0  0  0  0  0  0  0  0  0  0  0  0
  152.5778  144.0681  160.6766 C   0  0  0  0  0  0  0  0  0  0  0  0
  151.8543  145.0616  159.7519 C   0  0  0  0  0  0  0  0  0  0  0  0
  152.1281  144.7438  158.2766 C   0  0  0  0  0  0  0  0  0  0  0  0
  151.6570  143.3244  157.9123 C   0  0  0  0  0  0  0  0  0  0  0  0
  149.5585  135.6849  154.9804 C   0  0  0  0  0  0  0  0  0  0  0  0
  144.6540  135.7576  150.5871 H   0  0  0  0  0  0  0  0  0  0  0  0
  146.5671  132.6742  152.7752 H   0  0  0  0  0  0  0  0  0  0  0  0
  147.7873  133.1051  151.5749 H   0  0  0  0  0  0  0  0  0  0  0  0
  148.4746  134.9593  153.0393 H   0  0  0  0  0  0  0  0  0  0  0  0
  147.8313  134.0869  157.4009 H   0  0  0  0  0  0  0  0  0  0  0  0
  149.2253  135.4443  158.7982 H   0  0  0  0  0  0  0  0  0  0  0  0
  152.3498  137.1558  155.4115 H   0  0  0  0  0  0  0  0  0  0  0  0
  151.2911  137.2263  154.0427 H   0  0  0  0  0  0  0  0  0  0  0  0
  151.9036  138.6390  157.2524 H   0  0  0  0  0  0  0  0  0  0  0  0
  151.7787  141.3653  156.4206 H   0  0  0  0  0  0  0  0  0  0  0  0
  150.2568  140.9047  157.1497 H   0  0  0  0  0  0  0  0  0  0  0  0
  151.3104  140.2900  159.2539 H   0  0  0  0  0  0  0  0  0  0  0  0
  152.9161  140.3772  158.5744 H   0  0  0  0  0  0  0  0  0  0  0  0
  152.7412  141.8698  160.9005 H   0  0  0  0  0  0  0  0  0  0  0  0
  152.1750  144.1407  161.6872 H   0  0  0  0  0  0  0  0  0  0  0  0
  153.6381  144.3149  160.7387 H   0  0  0  0  0  0  0  0  0  0  0  0
  150.7800  145.0136  159.9349 H   0  0  0  0  0  0  0  0  0  0  0  0
  152.1619  146.0812  159.9856 H   0  0  0  0  0  0  0  0  0  0  0  0
  151.6374  145.4750  157.6333 H   0  0  0  0  0  0  0  0  0  0  0  0
  153.1980  144.8328  158.0841 H   0  0  0  0  0  0  0  0  0  0  0  0
  152.0726  143.0402  156.9447 H   0  0  0  0  0  0  0  0  0  0  0  0
  150.5720  143.3158  157.8049 H   0  0  0  0  0  0  0  0  0  0  0  0
  149.7360  135.8197  153.9230 H   0  0  0  0  0  0  0  0  0  0  0  0
  1  2  3  0  0  0  0
  1 26  1  0  0  0  0
  2  3  1  0  0  0  0
  3  4  1  0  0  0  0
  3 27  1  0  0  0  0
  3 28  1  0  0  0  0
  4  5  1  0  0  0  0
  4 29  1  0  0  0  0
  5  6  2  0  0  0  0
  5  7  1  0  0  0  0
  7 25  2  0  0  0  0
  7  8  1  0  0  0  0
  8  9  2  0  0  0  0
  8 30  1  0  0  0  0
  9 10  1  0  0  0  0
  9 31  1  0  0  0  0
 10 11  2  0  0  0  0
 10 12  1  0  0  0  0
 12 13  1  0  0  0  0
 12 25  1  0  0  0  0
 13 14  1  0  0  0  0
 13 32  1  0  0  0  0
 13 33  1  0  0  0  0
 14 15  2  0  0  0  0
 14 16  1  0  0  0  0
 16 17  1  0  0  0  0
 16 34  1  0  0  0  0
 17 18  1  0  0  0  0
 17 35  1  0  0  0  0
 17 36  1  0  0  0  0
 18 19  1  0  0  0  0
 18 37  1  0  0  0  0
 18 38  1  0  0  0  0
 19 24  1  0  0  0  0
 19 20  2  0  0  0  0
 20 21  1  0  0  0  0
 20 39  1  0  0  0  0
 21 22  1  0  0  0  0
 21 40  1  0  0  0  0
 21 41  1  0  0  0  0
 22 23  1  0  0  0  0
 22 42  1  0  0  0  0
 22 43  1  0  0  0  0
 23 24  1  0  0  0  0
 23 44  1  0  0  0  0
 23 45  1  0  0  0  0
 24 46  1  0  0  0  0
 24 47  1  0  0  0  0
 25 48  1  0  0  0  0
M  END
> <s_m_source_file>
AV-unprocessed.smi

> <i_m_source_file_index>
1188

> <i_lp_mmshare_version>
43012

> <i_f3d_flags>
0

> <s_epik_input>
W0NIXSNDW0NIMl1bTkhdQyg9TyljMVtjSF1bY0hdYyg9TyluKFtjSF0xKVtDSDJdQyg9TylbTkhdW0NIMl1bQ0gyXUMyPVtDSF1bQ0gyXVtDSDJdW0NIMl1bQ0gyXTI=

> <s_epik_cmdline>
J2VwaWtfcHl0aG9uJywgJy1waCcsICc3LjAnLCAnLXRuJywgJzgnLCAnLW1hJywgJzIwMCcsICctbWV0YWxfYmluZGluZycsICctaW1hZScsICc8aW5maWxlLm1hZT4nLCAnLW9tYWUnLCAnPG91dGZpbGUubWFlPic=

> <r_lp_tautomer_probability>
1

> <r_epik_Ionization_Penalty>
3.04448e-06

> <r_epik_Ionization_Penalty_Charging>
4.20752e-08

> <r_epik_Ionization_Penalty_Neutral>
3.00241e-06

> <r_epik_State_Penalty>
-0

> <r_epik_Charging_Adjusted_Penalty>
4.20752e-08

> <i_epik_Tot_Q>
0

> <i_epik_Tot_abs_Q>
0

> <r_epik_Metal_State_Penalty>
-0

> <b_epik_Metal_Only>
0

> <s_lp_Force_Field>
OPLS_2005

> <r_lp_Energy>
18.5418

> <b_lp_Chiralities_Consistent>
1

> <s_lp_Variant>
AV-unprocessed.smi:1188-1

> <Gold.Version>
5.8.1

> <Gold.Id.Protein>
6NUR|6NUR_protein|mol2

> <Gold.PLP.Fitness>
51.8572

> <Gold.PLP.PLP>
-43.3396

> <Gold.PLP.part.hbond>
-2.0000

> <Gold.PLP.part.metal>
0.0000

> <Gold.PLP.part.buried>
-5.5284

> <Gold.PLP.part.nonpolar>
-36.2676

> <Gold.PLP.part.repulsive>
0.2102

> <Gold.PLP.ligand.clash>
0.0000

> <Gold.PLP.ligand.torsion>
0.3146

> <Gold.PLP.Chemscore.Hbond>
2.0000

> <Gold.PLP.Chemscore.CHOScore>
0.9922

> <Gold.PLP.Chemscore.Metal>
0.0000

> <Gold.Chemscore.Hbonds>
donor molecule, donor type, donor heavy atom, donor atom, acceptor molecule, acceptor atom, score
      L1  H     4    29       P1  7948  1.00
      P1  H  7989  7998       L1    15  1.00
      L1  C    25    48       P1  7948  0.98

> <Gold.PLP.Chemscore.Internal.Correction>
0.1702

> <Gold.Rescore>
     Score         DG    S(hbond)    S(metal)    S(lipo)     H(rot)  DE(clash)    DE(int)     intcor
     19.68     -20.33       1.95        0.00     114.30       1.97       0.12       0.53       ----

> <Gold.Chemscore.Fitness>
19.6815

> <Gold.Chemscore.DG>
-20.3333

> <Gold.Chemscore.ZeroCoef>
-5.4800

> <Gold.Chemscore.Hbond>
1.9526

> <Gold.Chemscore.Metal>
0.0000

> <Gold.Chemscore.Lipo>
114.3023

> <Gold.Chemscore.Internal_Hbond>
0.0000

> <Gold.Chemscore.DEClash>
0.1186

> <Gold.Chemscore.DEInternal>
0.5332

> <Gold.Chemscore.Rot>
1.9694

> <Gold.Chemscore.Internal.Correction>
   9.000000E+99

> <Gold.Chemscore.Hbonds>
donor molecule, donor type, donor heavy atom, donor atom, acceptor molecule, acceptor atom, score
      L1  H     4    29       P1  7948  0.67
      P1  H  7989  7998       L1    15  0.93

> <Gold.Chemscore.Hbond.Weighted>
-6.5216

> <Gold.Chemscore.Metal.Weighted>
-0.0000

> <Gold.Chemscore.Lipo.Weighted>
-13.3734

> <Gold.Chemscore.Internal_Hbond.Weighted>
0.0000

> <Gold.Chemscore.DEClash.Weighted>
0.1186

> <Gold.Chemscore.DEInternal.Weighted>
0.5332

> <Gold.Chemscore.Rot.Weighted>
5.0416

> <Gold.Chemscore.Internal.Correction.Weighted>
   9.000000E+99

> <Gold.Protein.RotatedTorsions>
[ 6907 6896 6895 6894 ] final   40.76 input  -60.11 | X-H torsion
[ 7974 7965 7964 7962 ] final   75.71 input  175.53 | X-H torsion
[ 8008 7997 7996 7995 ] final   10.89 input   59.86 | X-H torsion
[ 10167 10162 10161 10158 ] final -131.04 input  -65.29 | X-H torsion
[ 10718 10713 10712 10709 ] final   -4.71 input   66.30 | X-H torsion
[ 10763 10752 10751 10750 ] final  125.93 input  -60.55 | X-H torsion
[ 11005 11000 10999 10996 ] final -130.96 input  -57.11 | X-H torsion

> <Gold.Protein.ActiveResidues>
 VAL166  LYS551  ARG553  GLY616  TRP617  ASP618  TYR619  PRO620  LYS621  CYS622 
 ASP623  PHE694  ASN695  SER759  ASP760  ASP761  ALA762  ILE779  LEU786  VAL792 
 PHE793  MET794  SER795  GLU796  ALA797  LYS798  CYS799  TRP800  GLU811  SER814 

> <Gold.Protein.RotatedAtoms>
  152.1866  134.8708  160.0521 H   0  0  0  0  0  0  0  0  0  0  0  0  # atno 6907 bound_to 6896
  151.9613  133.3691  159.4044 H   0  0  0  0  0  0  0  0  0  0  0  0  # atno 6908 bound_to 6896
  150.6927  134.4161  159.5228 H   0  0  0  0  0  0  0  0  0  0  0  0  # atno 6909 bound_to 6896
  145.7121  139.2618  143.1644 H   0  0  0  0  0  0  0  0  0  0  0  0  # atno 7974 bound_to 7965
  154.7995  140.2849  155.5932 H   0  0  0  0  0  0  0  0  0  0  0  0  # atno 8008 bound_to 7997
  156.2975  140.2589  156.2790 H   0  0  0  0  0  0  0  0  0  0  0  0  # atno 8009 bound_to 7997
  154.9575  140.0378  157.2163 H   0  0  0  0  0  0  0  0  0  0  0  0  # atno 8010 bound_to 7997
  139.9230  143.6360  152.2549 H   0  0  0  0  0  0  0  0  0  0  0  0  # atno 10167 bound_to 10162
  156.7573  130.5258  149.5792 H   0  0  0  0  0  0  0  0  0  0  0  0  # atno 10718 bound_to 10713
  153.6853  135.3308  155.3188 H   0  0  0  0  0  0  0  0  0  0  0  0  # atno 10763 bound_to 10752
  154.8455  135.4418  154.1564 H   0  0  0  0  0  0  0  0  0  0  0  0  # atno 10764 bound_to 10752
  153.2592  135.6989  153.7674 H   0  0  0  0  0  0  0  0  0  0  0  0  # atno 10765 bound_to 10752
  140.9300  134.1332  157.4242 H   0  0  0  0  0  0  0  0  0  0  0  0  # atno 11005 bound_to 11000
  146.0703  140.7876  142.9691 LP  0  0  0  0  0  0  0  0  0  0  0  0  # atno 17320 bound_to 7965
  144.6939  140.3331  143.7212 LP  0  0  0  0  0  0  0  0  0  0  0  0  # atno 17321 bound_to 7965
  139.6845  144.7653  151.1548 LP  0  0  0  0  0  0  0  0  0  0  0  0  # atno 17342 bound_to 10162
  140.7657  143.5676  150.9030 LP  0  0  0  0  0  0  0  0  0  0  0  0  # atno 17343 bound_to 10162
  156.1362  130.6213  151.0403 LP  0  0  0  0  0  0  0  0  0  0  0  0  # atno 17370 bound_to 10713
  157.6750  131.0852  150.7516 LP  0  0  0  0  0  0  0  0  0  0  0  0  # atno 17371 bound_to 10713
  139.8794  135.0002  156.5995 LP  0  0  0  0  0  0  0  0  0  0  0  0  # atno 17394 bound_to 11000
  140.7875  133.8609  155.8618 LP  0  0  0  0  0  0  0  0  0  0  0  0  # atno 17395 bound_to 11000

$$$$
