AV-unprocessed.smi:2106|AV-procd|sdf|8599|dock4
  -GOLD-   2272011333D 1   1.00000     0.00000
 Structure written by MMmdl.
 48 49  0  0  0  0  0  0  0  0  2 V2000
  144.6696  135.3396  150.3308 C   0  0  0  0  0  0  0  0  0  0  0  0
  145.4252  134.1823  150.9160 C   0  0  0  0  0  0  0  0  0  0  0  0
  145.0610  132.8073  150.9147 C   0  0  0  0  0  0  0  0  0  0  0  0
  146.0828  132.1852  151.5751 C   0  0  0  0  0  0  0  0  0  0  0  0
  146.2773  130.7392  151.8943 C   0  0  0  0  0  0  0  0  0  0  0  0
  146.9856  133.1702  151.9379 N   0  0  0  0  0  0  0  0  0  0  0  0
  148.2340  133.0526  152.6783 C   0  0  0  0  0  0  0  0  0  0  0  0
  148.1539  133.8028  154.0093 C   0  0  0  0  0  0  0  0  0  0  0  0
  147.4937  133.3423  154.9397 O   0  0  0  0  0  0  0  0  0  0  0  0
  148.8560  134.9428  154.0979 N   0  0  0  0  0  0  0  0  0  0  0  0
  149.0050  135.7430  155.3090 C   0  0  0  0  0  0  0  0  0  0  0  0
  148.4491  137.1720  155.1493 C   0  0  0  0  0  0  0  0  0  0  0  0
  149.1560  137.9235  154.0761 N   0  3  1  0  0  0  0  0  0  0  0  0
  148.5703  139.2506  153.7719 C   0  0  0  0  0  0  0  0  0  0  0  0
  148.9875  140.2996  154.8233 C   0  0  2  0  0  0  0  0  0  0  0  0
  148.4759  141.7008  154.4724 C   0  0  0  0  0  0  0  0  0  0  0  0
  150.4092  140.3500  154.8881 O   0  0  0  0  0  0  0  0  0  0  0  0
  150.9860  139.1137  155.2953 C   0  0  2  0  0  0  0  0  0  0  0  0
  152.5021  139.3044  155.4121 C   0  0  0  0  0  0  0  0  0  0  0  0
  150.6231  138.0248  154.2662 C   0  0  0  0  0  0  0  0  0  0  0  0
  146.5784  134.3923  151.5291 N   0  0  0  0  0  0  0  0  0  0  0  0
  144.4872  135.1870  149.2669 H   0  0  0  0  0  0  0  0  0  0  0  0
  145.2149  136.2774  150.4416 H   0  0  0  0  0  0  0  0  0  0  0  0
  143.7026  135.4590  150.8191 H   0  0  0  0  0  0  0  0  0  0  0  0
  144.1806  132.3471  150.4910 H   0  0  0  0  0  0  0  0  0  0  0  0
  145.4349  130.1467  151.5373 H   0  0  0  0  0  0  0  0  0  0  0  0
  146.3618  130.5820  152.9691 H   0  0  0  0  0  0  0  0  0  0  0  0
  147.1807  130.3547  151.4211 H   0  0  0  0  0  0  0  0  0  0  0  0
  148.4600  132.0001  152.8526 H   0  0  0  0  0  0  0  0  0  0  0  0
  149.0470  133.4551  152.0718 H   0  0  0  0  0  0  0  0  0  0  0  0
  149.3552  135.2550  153.2774 H   0  0  0  0  0  0  0  0  0  0  0  0
  148.4697  135.2322  156.1101 H   0  0  0  0  0  0  0  0  0  0  0  0
  150.0533  135.7745  155.6108 H   0  0  0  0  0  0  0  0  0  0  0  0
  147.3805  137.1122  154.9395 H   0  0  0  0  0  0  0  0  0  0  0  0
  148.5275  137.7007  156.1001 H   0  0  0  0  0  0  0  0  0  0  0  0
  148.9254  139.5599  152.7878 H   0  0  0  0  0  0  0  0  0  0  0  0
  147.4847  139.1762  153.6971 H   0  0  0  0  0  0  0  0  0  0  0  0
  148.5932  140.0259  155.8034 H   0  0  0  0  0  0  0  0  0  0  0  0
  147.3872  141.7197  154.4201 H   0  0  0  0  0  0  0  0  0  0  0  0
  148.8636  142.0340  153.5092 H   0  0  0  0  0  0  0  0  0  0  0  0
  148.7843  142.4275  155.2244 H   0  0  0  0  0  0  0  0  0  0  0  0
  150.5978  138.8456  156.2790 H   0  0  0  0  0  0  0  0  0  0  0  0
  152.9901  138.3812  155.7265 H   0  0  0  0  0  0  0  0  0  0  0  0
  152.7434  140.0743  156.1454 H   0  0  0  0  0  0  0  0  0  0  0  0
  152.9372  139.6045  154.4586 H   0  0  0  0  0  0  0  0  0  0  0  0
  151.0326  137.0622  154.5693 H   0  0  0  0  0  0  0  0  0  0  0  0
  151.0759  138.2637  153.3029 H   0  0  0  0  0  0  0  0  0  0  0  0
  149.0227  137.3659  153.2448 H   0  0  0  0  0  0  0  0  0  0  0  0
  1  2  1  0  0  0  0
  1 22  1  0  0  0  0
  1 23  1  0  0  0  0
  1 24  1  0  0  0  0
  2 21  2  0  0  0  0
  2  3  1  0  0  0  0
  3  4  2  0  0  0  0
  3 25  1  0  0  0  0
  4  5  1  0  0  0  0
  4  6  1  0  0  0  0
  5 26  1  0  0  0  0
  5 27  1  0  0  0  0
  5 28  1  0  0  0  0
  6  7  1  0  0  0  0
  6 21  1  0  0  0  0
  7  8  1  0  0  0  0
  7 29  1  0  0  0  0
  7 30  1  0  0  0  0
  8  9  2  0  0  0  0
  8 10  1  0  0  0  0
 10 11  1  0  0  0  0
 10 31  1  0  0  0  0
 11 12  1  0  0  0  0
 11 32  1  0  0  0  0
 11 33  1  0  0  0  0
 12 13  1  0  0  0  0
 12 34  1  0  0  0  0
 12 35  1  0  0  0  0
 13 20  1  0  0  0  0
 13 14  1  0  0  0  0
 13 48  1  0  0  0  0
 14 15  1  0  0  0  0
 14 36  1  0  0  0  0
 14 37  1  0  0  0  0
 15 16  1  0  0  0  0
 15 17  1  0  0  0  0
 15 38  1  0  0  0  0
 16 39  1  0  0  0  0
 16 40  1  0  0  0  0
 16 41  1  0  0  0  0
 17 18  1  0  0  0  0
 18 19  1  0  0  0  0
 18 20  1  0  0  0  0
 18 42  1  0  0  0  0
 19 43  1  0  0  0  0
 19 44  1  0  0  0  0
 19 45  1  0  0  0  0
 20 46  1  0  0  0  0
 20 47  1  0  0  0  0
M  CHG  1  13   1
M  END
> <s_m_source_file>
AV-unprocessed.smi

> <i_m_source_file_index>
2106

> <i_lp_mmshare_version>
43012

> <i_f3d_flags>
0

> <s_epik_input>
W0NIM11jMVtjSF1jKFtDSDNdKW4objEpW0NIMl1DKD1PKVtOSF1bQ0gyXVtDSDJdTjJbQ0gyXVtDQEBIXShbQ0gzXSlPW0NAQEhdKFtDSDNdKVtDSDJdMg==

> <s_epik_cmdline>
J2VwaWtfcHl0aG9uJywgJy1waCcsICc3LjAnLCAnLXRuJywgJzgnLCAnLW1hJywgJzIwMCcsICctbWV0YWxfYmluZGluZycsICctaW1hZScsICc8aW5maWxlLm1hZT4nLCAnLW9tYWUnLCAnPG91dGZpbGUubWFlPic=

> <r_lp_tautomer_probability>
1

> <r_epik_Ionization_Penalty>
0.748586

> <r_epik_Ionization_Penalty_Charging>
0.748396

> <r_epik_Ionization_Penalty_Neutral>
0.000189656

> <r_epik_State_Penalty>
0.775162

> <r_epik_Charging_Adjusted_Penalty>
1.52356

> <i_epik_Tot_Q>
1

> <i_epik_Tot_abs_Q>
1

> <r_epik_Metal_State_Penalty>
0.775295

> <b_epik_Metal_Only>
0

> <s_lp_Force_Field>
OPLS_2005

> <r_lp_Energy>
21.363

> <b_lp_Chiralities_Consistent>
1

> <s_lp_Variant>
AV-unprocessed.smi:2106-7

> <Gold.Version>
5.8.1

> <Gold.Id.Protein>
6NUR|6NUR_protein|mol2

> <Gold.PLP.Fitness>
49.4323

> <Gold.PLP.PLP>
-38.7710

> <Gold.PLP.part.hbond>
-3.0000

> <Gold.PLP.part.metal>
0.0000

> <Gold.PLP.part.buried>
-2.8311

> <Gold.PLP.part.nonpolar>
-33.7567

> <Gold.PLP.part.repulsive>
0.4628

> <Gold.PLP.ligand.clash>
0.0000

> <Gold.PLP.ligand.torsion>
0.1784

> <Gold.PLP.Chemscore.Hbond>
3.6528

> <Gold.PLP.Chemscore.CHOScore>
0.0000

> <Gold.PLP.Chemscore.Metal>
0.0000

> <Gold.Chemscore.Hbonds>
donor molecule, donor type, donor heavy atom, donor atom, acceptor molecule, acceptor atom, score
      L1  H    10    31       P1  7948  0.52
      L1  H    13    48       P1  7948  2.00
      P1  H  7989  7998       L1    17  1.00

> <Gold.PLP.Chemscore.Internal.Correction>
0.0596

> <Gold.Rescore>
     Score         DG    S(hbond)    S(metal)    S(lipo)     H(rot)  DE(clash)    DE(int)     intcor
     18.00     -18.19       2.21        0.00      83.45       1.73       0.08       0.10       ----

> <Gold.Chemscore.Fitness>
18.0008

> <Gold.Chemscore.DG>
-18.1864

> <Gold.Chemscore.ZeroCoef>
-5.4800

> <Gold.Chemscore.Hbond>
2.2084

> <Gold.Chemscore.Metal>
0.0000

> <Gold.Chemscore.Lipo>
83.4474

> <Gold.Chemscore.Internal_Hbond>
0.0000

> <Gold.Chemscore.DEClash>
0.0834

> <Gold.Chemscore.DEInternal>
0.1023

> <Gold.Chemscore.Rot>
1.7316

> <Gold.Chemscore.Internal.Correction>
   9.000000E+99

> <Gold.Chemscore.Hbonds>
donor molecule, donor type, donor heavy atom, donor atom, acceptor molecule, acceptor atom, score
      L1  H    10    31       P1  7948  0.05
      L1  H    13    48       P1  7948  1.00
      P1  H  7989  7998       L1    17  0.29

> <Gold.Chemscore.Hbond.Weighted>
-7.3761

> <Gold.Chemscore.Metal.Weighted>
-0.0000

> <Gold.Chemscore.Lipo.Weighted>
-9.7634

> <Gold.Chemscore.Internal_Hbond.Weighted>
0.0000

> <Gold.Chemscore.DEClash.Weighted>
0.0834

> <Gold.Chemscore.DEInternal.Weighted>
0.1023

> <Gold.Chemscore.Rot.Weighted>
4.4330

> <Gold.Chemscore.Internal.Correction.Weighted>
   9.000000E+99

> <Gold.Protein.RotatedTorsions>
[ 6907 6896 6895 6894 ] final   79.62 input  -60.11 | X-H torsion
[ 7974 7965 7964 7962 ] final  -94.96 input  175.53 | X-H torsion
[ 8008 7997 7996 7995 ] final   18.92 input   59.86 | X-H torsion
[ 10167 10162 10161 10158 ] final -179.69 input  -65.29 | X-H torsion
[ 10718 10713 10712 10709 ] final    3.41 input   66.30 | X-H torsion
[ 10763 10752 10751 10750 ] final -109.68 input  -60.55 | X-H torsion
[ 11005 11000 10999 10996 ] final   62.11 input  -57.11 | X-H torsion

> <Gold.Protein.ActiveResidues>
 VAL166  LYS551  ARG553  GLY616  TRP617  ASP618  TYR619  PRO620  LYS621  CYS622 
 ASP623  PHE694  ASN695  SER759  ASP760  ASP761  ALA762  ILE779  LEU786  VAL792 
 PHE793  MET794  SER795  GLU796  ALA797  LYS798  CYS799  TRP800  GLU811  SER814 

> <Gold.Protein.RotatedAtoms>
  152.5205  134.3483  159.9241 H   0  0  0  0  0  0  0  0  0  0  0  0  # atno 6907 bound_to 6896
  151.3434  133.3947  159.2681 H   0  0  0  0  0  0  0  0  0  0  0  0  # atno 6908 bound_to 6896
  150.9785  134.9163  159.7888 H   0  0  0  0  0  0  0  0  0  0  0  0  # atno 6909 bound_to 6896
  145.3664  140.9499  143.2472 H   0  0  0  0  0  0  0  0  0  0  0  0  # atno 7974 bound_to 7965
  154.9130  140.3017  155.5256 H   0  0  0  0  0  0  0  0  0  0  0  0  # atno 8008 bound_to 7997
  156.3014  140.2385  156.4108 H   0  0  0  0  0  0  0  0  0  0  0  0  # atno 8009 bound_to 7997
  154.8406  140.0414  157.1527 H   0  0  0  0  0  0  0  0  0  0  0  0  # atno 8010 bound_to 7997
  139.5375  144.2456  152.0825 H   0  0  0  0  0  0  0  0  0  0  0  0  # atno 10167 bound_to 10162
  156.8774  130.5641  149.5654 H   0  0  0  0  0  0  0  0  0  0  0  0  # atno 10718 bound_to 10713
  154.8206  135.4592  154.0769 H   0  0  0  0  0  0  0  0  0  0  0  0  # atno 10763 bound_to 10752
  153.2126  135.6884  153.8102 H   0  0  0  0  0  0  0  0  0  0  0  0  # atno 10764 bound_to 10752
  153.7548  135.3293  155.3304 H   0  0  0  0  0  0  0  0  0  0  0  0  # atno 10765 bound_to 10752
  140.0115  134.6289  155.9774 H   0  0  0  0  0  0  0  0  0  0  0  0  # atno 11005 bound_to 11000
  144.8609  139.5179  143.6813 LP  0  0  0  0  0  0  0  0  0  0  0  0  # atno 17320 bound_to 7965
  146.2905  139.7125  142.9164 LP  0  0  0  0  0  0  0  0  0  0  0  0  # atno 17321 bound_to 7965
  140.1929  144.4734  150.6470 LP  0  0  0  0  0  0  0  0  0  0  0  0  # atno 17342 bound_to 10162
  140.6589  143.2246  151.5903 LP  0  0  0  0  0  0  0  0  0  0  0  0  # atno 17343 bound_to 10162
  156.0695  130.5731  150.9355 LP  0  0  0  0  0  0  0  0  0  0  0  0  # atno 17370 bound_to 10713
  157.6160  131.0933  150.8709 LP  0  0  0  0  0  0  0  0  0  0  0  0  # atno 17371 bound_to 10713
  141.1714  133.6537  156.4665 LP  0  0  0  0  0  0  0  0  0  0  0  0  # atno 17394 bound_to 11000
  140.4546  134.6897  157.5056 LP  0  0  0  0  0  0  0  0  0  0  0  0  # atno 17395 bound_to 11000

$$$$
