AV-unprocessed.smi:1969|AV-procd|sdf|7959|dock3
  -GOLD-   2272010133D 1   1.00000     0.00000
 Structure written by MMmdl.
 44 45  0  0  0  0  0  0  0  0  1 V2000
  153.5150  142.2453  161.5349 C   0  0  0  0  0  0  0  0  0  0  0  0
  152.9594  142.4168  160.1174 C   0  0  1  0  0  0  0  0  0  0  0  0
  152.5689  141.0683  159.4860 C   0  0  0  0  0  0  0  0  0  0  0  0
  151.9501  141.2883  158.1865 N   0  0  0  0  0  0  0  0  0  0  0  0
  151.7104  140.1053  157.4735 C   0  0  0  0  0  0  0  0  0  0  0  0
  150.7655  139.1864  157.9733 C   0  0  0  0  0  0  0  0  0  0  0  0
  150.5281  138.0010  157.2524 C   0  0  0  0  0  0  0  0  0  0  0  0
  151.2315  137.7726  156.0528 C   0  0  0  0  0  0  0  0  0  0  0  0
  150.9861  136.5590  155.3564 N   0  0  0  0  0  0  0  0  0  0  0  0
  150.0726  135.6063  155.6229 C   0  0  0  0  0  0  0  0  0  0  0  0
  149.2758  135.6436  156.5595 O   0  0  0  0  0  0  0  0  0  0  0  0
  150.0536  134.4053  154.6757 C   0  0  0  0  0  0  0  0  0  0  0  0
  148.7120  134.0923  154.3317 O   0  0  0  0  0  0  0  0  0  0  0  0
  148.5996  132.8734  153.6149 C   0  0  0  0  0  0  0  0  0  0  0  0
  147.1466  132.6798  153.1651 C   0  0  0  0  0  0  0  0  0  0  0  0
  146.3281  133.0805  154.1371 F   0  0  0  0  0  0  0  0  0  0  0  0
  146.9025  133.4046  152.0735 F   0  0  0  0  0  0  0  0  0  0  0  0
  146.9113  131.3931  152.9100 F   0  0  0  0  0  0  0  0  0  0  0  0
  152.1692  138.7512  155.6418 C   0  0  0  0  0  0  0  0  0  0  0  0
  152.4025  139.8893  156.3299 N   0  0  0  0  0  0  0  0  0  0  0  0
  150.7878  142.1638  158.2683 C   0  0  0  0  0  0  0  0  0  0  0  0
  151.1581  143.5010  158.9398 C   0  0  2  0  0  0  0  0  0  0  0  0
  151.9762  144.4382  158.0335 C   0  0  0  0  0  0  0  0  0  0  0  0
  151.8081  143.2591  160.1911 O   0  0  0  0  0  0  0  0  0  0  0  0
  154.4051  141.6158  161.5334 H   0  0  0  0  0  0  0  0  0  0  0  0
  152.7791  141.7840  162.1944 H   0  0  0  0  0  0  0  0  0  0  0  0
  153.7904  143.2087  161.9646 H   0  0  0  0  0  0  0  0  0  0  0  0
  153.7264  142.8967  159.5093 H   0  0  0  0  0  0  0  0  0  0  0  0
  153.4512  140.4370  159.3713 H   0  0  0  0  0  0  0  0  0  0  0  0
  151.8739  140.5370  160.1383 H   0  0  0  0  0  0  0  0  0  0  0  0
  150.2319  139.3844  158.8916 H   0  0  0  0  0  0  0  0  0  0  0  0
  149.8100  137.2804  157.6162 H   0  0  0  0  0  0  0  0  0  0  0  0
  151.6278  136.3519  154.6046 H   0  0  0  0  0  0  0  0  0  0  0  0
  150.6293  134.6376  153.7781 H   0  0  0  0  0  0  0  0  0  0  0  0
  150.5295  133.5569  155.1696 H   0  0  0  0  0  0  0  0  0  0  0  0
  149.2601  132.8891  152.7463 H   0  0  0  0  0  0  0  0  0  0  0  0
  148.9080  132.0381  154.2457 H   0  0  0  0  0  0  0  0  0  0  0  0
  152.7717  138.6289  154.7555 H   0  0  0  0  0  0  0  0  0  0  0  0
  150.3781  142.3380  157.2725 H   0  0  0  0  0  0  0  0  0  0  0  0
  150.0087  141.6706  158.8512 H   0  0  0  0  0  0  0  0  0  0  0  0
  150.2296  144.0219  159.1748 H   0  0  0  0  0  0  0  0  0  0  0  0
  151.4061  144.7092  157.1448 H   0  0  0  0  0  0  0  0  0  0  0  0
  152.9048  143.9800  157.6942 H   0  0  0  0  0  0  0  0  0  0  0  0
  152.2290  145.3608  158.5561 H   0  0  0  0  0  0  0  0  0  0  0  0
  1  2  1  0  0  0  0
  1 25  1  0  0  0  0
  1 26  1  0  0  0  0
  1 27  1  0  0  0  0
  2 24  1  0  0  0  0
  2  3  1  0  0  0  0
  2 28  1  0  0  0  0
  3  4  1  0  0  0  0
  3 29  1  0  0  0  0
  3 30  1  0  0  0  0
  4  5  1  0  0  0  0
  4 21  1  0  0  0  0
  5 20  1  0  0  0  0
  5  6  2  0  0  0  0
  6  7  1  0  0  0  0
  6 31  1  0  0  0  0
  7  8  2  0  0  0  0
  7 32  1  0  0  0  0
  8  9  1  0  0  0  0
  8 19  1  0  0  0  0
  9 10  1  0  0  0  0
  9 33  1  0  0  0  0
 10 11  2  0  0  0  0
 10 12  1  0  0  0  0
 12 13  1  0  0  0  0
 12 34  1  0  0  0  0
 12 35  1  0  0  0  0
 13 14  1  0  0  0  0
 14 15  1  0  0  0  0
 14 36  1  0  0  0  0
 14 37  1  0  0  0  0
 15 16  1  0  0  0  0
 15 17  1  0  0  0  0
 15 18  1  0  0  0  0
 19 20  2  0  0  0  0
 19 38  1  0  0  0  0
 21 22  1  0  0  0  0
 21 39  1  0  0  0  0
 21 40  1  0  0  0  0
 22 23  1  0  0  0  0
 22 24  1  0  0  0  0
 22 41  1  0  0  0  0
 23 42  1  0  0  0  0
 23 43  1  0  0  0  0
 23 44  1  0  0  0  0
M  END
> <s_m_source_file>
AV-unprocessed.smi

> <i_m_source_file_index>
1969

> <i_lp_mmshare_version>
43012

> <i_f3d_flags>
0

> <s_epik_input>
W0NIM11bQ0BASF0xW0NIMl1OKFtDSDJdW0NASF0oTzEpW0NIM10pYzJbY0hdW2NIXWMoW2NIXW4yKVtOSF1DKD1PKVtDSDJdT1tDSDJdQyhGKShGKUY=

> <s_epik_cmdline>
J2VwaWtfcHl0aG9uJywgJy1waCcsICc3LjAnLCAnLXRuJywgJzgnLCAnLW1hJywgJzIwMCcsICctbWV0YWxfYmluZGluZycsICctaW1hZScsICc8aW5maWxlLm1hZT4nLCAnLW9tYWUnLCAnPG91dGZpbGUubWFlPic=

> <r_lp_tautomer_probability>
1

> <r_epik_Ionization_Penalty>
0.000531129

> <r_epik_Ionization_Penalty_Charging>
0

> <r_epik_Ionization_Penalty_Neutral>
0.000531129

> <r_epik_State_Penalty>
0.000331002

> <r_epik_Charging_Adjusted_Penalty>
0.000331002

> <i_epik_Tot_Q>
0

> <i_epik_Tot_abs_Q>
0

> <r_epik_Metal_State_Penalty>
-0

> <b_epik_Metal_Only>
0

> <s_lp_Force_Field>
OPLS_2005

> <r_lp_Energy>
27.2534

> <b_lp_Chiralities_Consistent>
1

> <s_lp_Variant>
AV-unprocessed.smi:1969-3

> <Gold.Version>
5.8.1

> <Gold.Id.Protein>
6NUR|6NUR_protein|mol2

> <Gold.PLP.Fitness>
44.3091

> <Gold.PLP.PLP>
-42.2632

> <Gold.PLP.part.hbond>
-1.0000

> <Gold.PLP.part.metal>
0.0000

> <Gold.PLP.part.buried>
-6.2314

> <Gold.PLP.part.nonpolar>
-35.0376

> <Gold.PLP.part.repulsive>
0.9349

> <Gold.PLP.ligand.clash>
0.0000

> <Gold.PLP.ligand.torsion>
0.5734

> <Gold.PLP.Chemscore.Hbond>
1.0000

> <Gold.PLP.Chemscore.CHOScore>
0.0000

> <Gold.PLP.Chemscore.Metal>
0.0000

> <Gold.Chemscore.Hbonds>
donor molecule, donor type, donor heavy atom, donor atom, acceptor molecule, acceptor atom, score
      P1  H  7997  8008       L1    20  1.00

> <Gold.PLP.Chemscore.Internal.Correction>
0.1927

> <Gold.Rescore>
     Score         DG    S(hbond)    S(metal)    S(lipo)     H(rot)  DE(clash)    DE(int)     intcor
     12.93     -14.92       0.91        0.00      97.39       1.94       0.02       1.97       ----

> <Gold.Chemscore.Fitness>
12.9344

> <Gold.Chemscore.DG>
-14.9243

> <Gold.Chemscore.ZeroCoef>
-5.4800

> <Gold.Chemscore.Hbond>
0.9059

> <Gold.Chemscore.Metal>
0.0000

> <Gold.Chemscore.Lipo>
97.3913

> <Gold.Chemscore.Internal_Hbond>
0.0000

> <Gold.Chemscore.DEClash>
0.0202

> <Gold.Chemscore.DEInternal>
1.9696

> <Gold.Chemscore.Rot>
1.9438

> <Gold.Chemscore.Internal.Correction>
   9.000000E+99

> <Gold.Chemscore.Hbonds>
donor molecule, donor type, donor heavy atom, donor atom, acceptor molecule, acceptor atom, score
      P1  H  7997  8008       L1    20  0.53

> <Gold.Chemscore.Hbond.Weighted>
-3.0256

> <Gold.Chemscore.Metal.Weighted>
-0.0000

> <Gold.Chemscore.Lipo.Weighted>
-11.3948

> <Gold.Chemscore.Internal_Hbond.Weighted>
0.0000

> <Gold.Chemscore.DEClash.Weighted>
0.0202

> <Gold.Chemscore.DEInternal.Weighted>
1.9696

> <Gold.Chemscore.Rot.Weighted>
4.9761

> <Gold.Chemscore.Internal.Correction.Weighted>
   9.000000E+99

> <Gold.Protein.RotatedTorsions>
[ 6907 6896 6895 6894 ] final  113.52 input  -60.11 | X-H torsion
[ 7974 7965 7964 7962 ] final  137.76 input  175.53 | X-H torsion
[ 8008 7997 7996 7995 ] final  -39.88 input   59.86 | X-H torsion
[ 10167 10162 10161 10158 ] final  -98.65 input  -65.29 | X-H torsion
[ 10718 10713 10712 10709 ] final  139.07 input   66.30 | X-H torsion
[ 10763 10752 10751 10750 ] final  175.05 input  -60.55 | X-H torsion
[ 11005 11000 10999 10996 ] final -123.51 input  -57.11 | X-H torsion

> <Gold.Protein.ActiveResidues>
 VAL166  LYS551  ARG553  GLY616  TRP617  ASP618  TYR619  PRO620  LYS621  CYS622 
 ASP623  PHE694  ASN695  SER759  ASP760  ASP761  ALA762  ILE779  LEU786  VAL792 
 PHE793  MET794  SER795  GLU796  ALA797  LYS798  CYS799  TRP800  GLU811  SER814 

> <Gold.Protein.RotatedAtoms>
  152.4856  133.8364  159.7129 H   0  0  0  0  0  0  0  0  0  0  0  0  # atno 6907 bound_to 6896
  150.8940  133.7197  159.2903 H   0  0  0  0  0  0  0  0  0  0  0  0  # atno 6908 bound_to 6896
  151.4660  135.1046  159.9790 H   0  0  0  0  0  0  0  0  0  0  0  0  # atno 6909 bound_to 6896
  144.9437  139.4900  143.5559 H   0  0  0  0  0  0  0  0  0  0  0  0  # atno 7974 bound_to 7965
  154.4018  140.1540  156.2936 H   0  0  0  0  0  0  0  0  0  0  0  0  # atno 8008 bound_to 7997
  155.8764  140.3446  155.5835 H   0  0  0  0  0  0  0  0  0  0  0  0  # atno 8009 bound_to 7997
  155.7717  140.0831  157.2095 H   0  0  0  0  0  0  0  0  0  0  0  0  # atno 8010 bound_to 7997
  140.2708  143.3345  152.0536 H   0  0  0  0  0  0  0  0  0  0  0  0  # atno 10167 bound_to 10162
  157.4184  131.1036  151.0380 H   0  0  0  0  0  0  0  0  0  0  0  0  # atno 10718 bound_to 10713
  154.4623  135.2768  155.1704 H   0  0  0  0  0  0  0  0  0  0  0  0  # atno 10763 bound_to 10752
  154.3486  135.6155  153.5635 H   0  0  0  0  0  0  0  0  0  0  0  0  # atno 10764 bound_to 10752
  152.9856  135.5806  154.4988 H   0  0  0  0  0  0  0  0  0  0  0  0  # atno 10765 bound_to 10752
  140.9913  134.0534  157.3650 H   0  0  0  0  0  0  0  0  0  0  0  0  # atno 11005 bound_to 11000
  146.3295  139.8474  142.8879 LP  0  0  0  0  0  0  0  0  0  0  0  0  # atno 17320 bound_to 7965
  145.2951  141.0178  143.3640 LP  0  0  0  0  0  0  0  0  0  0  0  0  # atno 17321 bound_to 7965
  139.4989  144.6658  151.6360 LP  0  0  0  0  0  0  0  0  0  0  0  0  # atno 17342 bound_to 10162
  140.5891  143.9811  150.6314 LP  0  0  0  0  0  0  0  0  0  0  0  0  # atno 17343 bound_to 10162
  157.1319  130.6106  149.5532 LP  0  0  0  0  0  0  0  0  0  0  0  0  # atno 17370 bound_to 10713
  155.9872  130.4911  150.7116 LP  0  0  0  0  0  0  0  0  0  0  0  0  # atno 17371 bound_to 10713
  139.8994  135.0158  156.7193 LP  0  0  0  0  0  0  0  0  0  0  0  0  # atno 17394 bound_to 11000
  140.7035  133.9286  155.8039 LP  0  0  0  0  0  0  0  0  0  0  0  0  # atno 17395 bound_to 11000

$$$$
