AV-unprocessed.smi:2902|AV-procd|sdf|11157|dock9
  -GOLD-   2272016 43D 1   1.00000     0.00000
 Structure written by MMmdl.
 47 48  0  0  0  0  0  0  0  0  1 V2000
  151.0297  138.3891  157.8032 C   0  0  0  0  0  0  0  0  0  0  0  0
  152.5301  138.5436  158.0817 C   0  0  0  0  0  0  0  0  0  0  0  0
  152.8398  139.7063  159.0433 C   0  0  2  0  0  0  0  0  0  0  0  0
  152.4844  140.9245  158.3872 O   0  0  0  0  0  0  0  0  0  0  0  0
  152.0079  141.9901  159.2074 C   0  0  0  0  0  0  0  0  0  0  0  0
  151.8979  143.3301  158.4738 C   0  0  0  0  0  0  0  0  0  0  0  0
  151.9935  144.3921  159.5754 C   0  0  0  0  0  0  0  0  0  0  0  0
  152.6846  143.7145  160.7694 C   0  0  0  0  0  0  0  0  0  0  0  0
  153.0137  142.2879  160.3176 C   0  0  0  0  0  0  0  0  0  0  0  0
  154.3251  139.7253  159.4397 C   0  0  0  0  0  0  0  0  0  0  0  0
  155.1934  139.9489  158.5961 O   0  0  0  0  0  0  0  0  0  0  0  0
  154.5936  139.5073  160.7364 N   0  0  0  0  0  0  0  0  0  0  0  0
  155.9219  139.5080  161.3445 C   0  0  1  0  0  0  0  0  0  0  0  0
  156.0440  140.7122  162.2989 C   0  0  0  0  0  0  0  0  0  0  0  0
  156.1839  138.1457  162.0356 C   0  0  1  0  0  0  0  0  0  0  0  0
  155.3261  137.9363  163.2974 C   0  0  0  0  0  0  0  0  0  0  0  0
  155.9964  137.0295  161.1192 N   0  0  0  0  0  0  0  0  0  0  0  0
  155.8382  135.7245  161.3542 C   0  0  0  0  0  0  0  0  0  0  0  0
  155.7003  134.9943  160.2566 N   0  0  0  0  0  0  0  0  0  0  0  0
  155.7932  135.9795  159.3148 C   0  0  0  0  0  0  0  0  0  0  0  0
  155.9739  137.2161  159.7782 N   0  0  0  0  0  0  0  0  0  0  0  0
  150.8440  137.5523  157.1298 H   0  0  0  0  0  0  0  0  0  0  0  0
  150.6196  139.2862  157.3388 H   0  0  0  0  0  0  0  0  0  0  0  0
  150.4752  138.2048  158.7237 H   0  0  0  0  0  0  0  0  0  0  0  0
  152.9042  137.6085  158.5012 H   0  0  0  0  0  0  0  0  0  0  0  0
  153.0573  138.6883  157.1378 H   0  0  0  0  0  0  0  0  0  0  0  0
  152.2319  139.5751  159.9401 H   0  0  0  0  0  0  0  0  0  0  0  0
  151.0519  141.7423  159.6710 H   0  0  0  0  0  0  0  0  0  0  0  0
  152.7391  143.4421  157.7881 H   0  0  0  0  0  0  0  0  0  0  0  0
  150.9806  143.4182  157.8910 H   0  0  0  0  0  0  0  0  0  0  0  0
  152.5419  145.2698  159.2322 H   0  0  0  0  0  0  0  0  0  0  0  0
  150.9963  144.7243  159.8667 H   0  0  0  0  0  0  0  0  0  0  0  0
  153.5805  144.2509  161.0836 H   0  0  0  0  0  0  0  0  0  0  0  0
  152.0040  143.6898  161.6214 H   0  0  0  0  0  0  0  0  0  0  0  0
  152.9661  141.5656  161.1331 H   0  0  0  0  0  0  0  0  0  0  0  0
  154.0260  142.2615  159.9114 H   0  0  0  0  0  0  0  0  0  0  0  0
  153.8134  139.3390  161.3549 H   0  0  0  0  0  0  0  0  0  0  0  0
  156.6683  139.6296  160.5570 H   0  0  0  0  0  0  0  0  0  0  0  0
  157.0489  140.8020  162.7110 H   0  0  0  0  0  0  0  0  0  0  0  0
  155.3482  140.6259  163.1342 H   0  0  0  0  0  0  0  0  0  0  0  0
  155.8274  141.6482  161.7827 H   0  0  0  0  0  0  0  0  0  0  0  0
  157.2294  138.1322  162.3506 H   0  0  0  0  0  0  0  0  0  0  0  0
  155.5318  138.6930  164.0545 H   0  0  0  0  0  0  0  0  0  0  0  0
  155.5282  136.9645  163.7492 H   0  0  0  0  0  0  0  0  0  0  0  0
  154.2615  137.9798  163.0655 H   0  0  0  0  0  0  0  0  0  0  0  0
  155.8222  135.3010  162.3479 H   0  0  0  0  0  0  0  0  0  0  0  0
  155.7275  135.7790  158.2555 H   0  0  0  0  0  0  0  0  0  0  0  0
  1  2  1  0  0  0  0
  1 22  1  0  0  0  0
  1 23  1  0  0  0  0
  1 24  1  0  0  0  0
  2  3  1  0  0  0  0
  2 25  1  0  0  0  0
  2 26  1  0  0  0  0
  3  4  1  0  0  0  0
  3 10  1  0  0  0  0
  3 27  1  0  0  0  0
  4  5  1  0  0  0  0
  5  9  1  0  0  0  0
  5  6  1  0  0  0  0
  5 28  1  0  0  0  0
  6  7  1  0  0  0  0
  6 29  1  0  0  0  0
  6 30  1  0  0  0  0
  7  8  1  0  0  0  0
  7 31  1  0  0  0  0
  7 32  1  0  0  0  0
  8  9  1  0  0  0  0
  8 33  1  0  0  0  0
  8 34  1  0  0  0  0
  9 35  1  0  0  0  0
  9 36  1  0  0  0  0
 10 11  2  0  0  0  0
 10 12  1  0  0  0  0
 12 13  1  0  0  0  0
 12 37  1  0  0  0  0
 13 14  1  0  0  0  0
 13 15  1  0  0  0  0
 13 38  1  0  0  0  0
 14 39  1  0  0  0  0
 14 40  1  0  0  0  0
 14 41  1  0  0  0  0
 15 16  1  0  0  0  0
 15 17  1  0  0  0  0
 15 42  1  0  0  0  0
 16 43  1  0  0  0  0
 16 44  1  0  0  0  0
 16 45  1  0  0  0  0
 17 21  1  0  0  0  0
 17 18  1  0  0  0  0
 18 19  2  0  0  0  0
 18 46  1  0  0  0  0
 19 20  1  0  0  0  0
 20 21  2  0  0  0  0
 20 47  1  0  0  0  0
M  END
> <s_m_source_file>
AV-unprocessed.smi

> <i_m_source_file_index>
2902

> <i_lp_mmshare_version>
43012

> <i_f3d_flags>
0

> <s_epik_input>
W0NIMl0xW0NIMl1bQ0gyXVtDSDJdW0NIXTFPW0NAQEhdKFtDSDJdW0NIM10pQyg9TylbTkhdW0NASF0oW0NIM10pW0NASF0oW0NIM10pbjJbY0hdbltjSF1uMg==

> <s_epik_cmdline>
J2VwaWtfcHl0aG9uJywgJy1waCcsICc3LjAnLCAnLXRuJywgJzgnLCAnLW1hJywgJzIwMCcsICctbWV0YWxfYmluZGluZycsICctaW1hZScsICc8aW5maWxlLm1hZT4nLCAnLW9tYWUnLCAnPG91dGZpbGUubWFlPic=

> <r_lp_tautomer_probability>
1

> <r_epik_Ionization_Penalty>
6.95617e-05

> <r_epik_Ionization_Penalty_Charging>
0

> <r_epik_Ionization_Penalty_Neutral>
6.95617e-05

> <r_epik_State_Penalty>
-0

> <r_epik_Charging_Adjusted_Penalty>
0

> <i_epik_Tot_Q>
0

> <i_epik_Tot_abs_Q>
0

> <r_epik_Metal_State_Penalty>
-0

> <b_epik_Metal_Only>
0

> <s_lp_Force_Field>
OPLS_2005

> <r_lp_Energy>
29.96

> <b_lp_Chiralities_Consistent>
1

> <s_lp_Variant>
AV-unprocessed.smi:2902-7

> <Gold.Version>
5.8.1

> <Gold.Id.Protein>
6NUR|6NUR_protein|mol2

> <Gold.PLP.Fitness>
39.4468

> <Gold.PLP.PLP>
-35.6023

> <Gold.PLP.part.hbond>
-2.0000

> <Gold.PLP.part.metal>
0.0000

> <Gold.PLP.part.buried>
-4.5335

> <Gold.PLP.part.nonpolar>
-29.3631

> <Gold.PLP.part.repulsive>
0.0214

> <Gold.PLP.ligand.clash>
0.0000

> <Gold.PLP.ligand.torsion>
1.1363

> <Gold.PLP.Chemscore.Hbond>
1.9913

> <Gold.PLP.Chemscore.CHOScore>
0.0000

> <Gold.PLP.Chemscore.Metal>
0.0000

> <Gold.Chemscore.Hbonds>
donor molecule, donor type, donor heavy atom, donor atom, acceptor molecule, acceptor atom, score
      P1  H  7997  8009       L1    11  0.35

> <Gold.PLP.Chemscore.Internal.Correction>
0.1433

> <Gold.Rescore>
     Score         DG    S(hbond)    S(metal)    S(lipo)     H(rot)  DE(clash)    DE(int)     intcor
     14.53     -15.70       1.76        0.00      96.03       2.69       0.07       1.10       ----

> <Gold.Chemscore.Fitness>
14.5300

> <Gold.Chemscore.DG>
-15.6973

> <Gold.Chemscore.ZeroCoef>
-5.4800

> <Gold.Chemscore.Hbond>
1.7594

> <Gold.Chemscore.Metal>
0.0000

> <Gold.Chemscore.Lipo>
96.0349

> <Gold.Chemscore.Internal_Hbond>
0.0000

> <Gold.Chemscore.DEClash>
0.0651

> <Gold.Chemscore.DEInternal>
1.1021

> <Gold.Chemscore.Rot>
2.6935

> <Gold.Chemscore.Internal.Correction>
   9.000000E+99

> <Gold.Chemscore.Hbonds>
donor molecule, donor type, donor heavy atom, donor atom, acceptor molecule, acceptor atom, score
      P1  H  7997  8009       L1    11  0.35

> <Gold.Chemscore.Hbond.Weighted>
-5.8765

> <Gold.Chemscore.Metal.Weighted>
-0.0000

> <Gold.Chemscore.Lipo.Weighted>
-11.2361

> <Gold.Chemscore.Internal_Hbond.Weighted>
0.0000

> <Gold.Chemscore.DEClash.Weighted>
0.0651

> <Gold.Chemscore.DEInternal.Weighted>
1.1021

> <Gold.Chemscore.Rot.Weighted>
6.8954

> <Gold.Chemscore.Internal.Correction.Weighted>
   9.000000E+99

> <Gold.Protein.RotatedTorsions>
[ 6907 6896 6895 6894 ] final  -38.01 input  -60.11 | X-H torsion
[ 7974 7965 7964 7962 ] final -156.06 input  175.53 | X-H torsion
[ 8008 7997 7996 7995 ] final  125.51 input   59.86 | X-H torsion
[ 10167 10162 10161 10158 ] final   51.45 input  -65.29 | X-H torsion
[ 10718 10713 10712 10709 ] final  176.99 input   66.30 | X-H torsion
[ 10763 10752 10751 10750 ] final   55.24 input  -60.55 | X-H torsion
[ 11005 11000 10999 10996 ] final   53.66 input  -57.11 | X-H torsion

> <Gold.Protein.ActiveResidues>
 VAL166  LYS551  ARG553  GLY616  TRP617  ASP618  TYR619  PRO620  LYS621  CYS622 
 ASP623  PHE694  ASN695  SER759  ASP760  ASP761  ALA762  ILE779  LEU786  VAL792 
 PHE793  MET794  SER795  GLU796  ALA797  LYS798  CYS799  TRP800  GLU811  SER814 

> <Gold.Protein.RotatedAtoms>
  151.0076  134.9371  159.7988 H   0  0  0  0  0  0  0  0  0  0  0  0  # atno 6907 bound_to 6896
  152.5294  134.3071  159.9110 H   0  0  0  0  0  0  0  0  0  0  0  0  # atno 6908 bound_to 6896
  151.3077  133.4053  159.2678 H   0  0  0  0  0  0  0  0  0  0  0  0  # atno 6909 bound_to 6896
  144.7611  140.4163  143.5976 H   0  0  0  0  0  0  0  0  0  0  0  0  # atno 7974 bound_to 7965
  156.2836  140.2714  156.1961 H   0  0  0  0  0  0  0  0  0  0  0  0  # atno 8008 bound_to 7997
  155.0409  140.0386  157.2527 H   0  0  0  0  0  0  0  0  0  0  0  0  # atno 8009 bound_to 7997
  154.7275  140.2700  155.6491 H   0  0  0  0  0  0  0  0  0  0  0  0  # atno 8010 bound_to 7997
  140.2618  144.3365  150.6316 H   0  0  0  0  0  0  0  0  0  0  0  0  # atno 10167 bound_to 10162
  156.9119  130.9912  151.3019 H   0  0  0  0  0  0  0  0  0  0  0  0  # atno 10718 bound_to 10713
  152.9814  135.5717  154.5035 H   0  0  0  0  0  0  0  0  0  0  0  0  # atno 10763 bound_to 10752
  154.4551  135.2779  155.1755 H   0  0  0  0  0  0  0  0  0  0  0  0  # atno 10764 bound_to 10752
  154.3367  135.6238  153.5630 H   0  0  0  0  0  0  0  0  0  0  0  0  # atno 10765 bound_to 10752
  140.0749  134.5419  155.9007 H   0  0  0  0  0  0  0  0  0  0  0  0  # atno 11005 bound_to 11000
  145.6617  139.1582  143.2804 LP  0  0  0  0  0  0  0  0  0  0  0  0  # atno 17320 bound_to 7965
  146.1674  140.6697  142.9249 LP  0  0  0  0  0  0  0  0  0  0  0  0  # atno 17321 bound_to 7965
  140.5960  143.2167  151.7163 LP  0  0  0  0  0  0  0  0  0  0  0  0  # atno 17342 bound_to 10162
  139.5014  144.3866  152.0322 LP  0  0  0  0  0  0  0  0  0  0  0  0  # atno 17343 bound_to 10162
  157.5962  130.8479  149.8732 LP  0  0  0  0  0  0  0  0  0  0  0  0  # atno 17370 bound_to 10713
  156.0532  130.3713  150.1153 LP  0  0  0  0  0  0  0  0  0  0  0  0  # atno 17371 bound_to 10713
  141.2026  133.6626  156.6013 LP  0  0  0  0  0  0  0  0  0  0  0  0  # atno 17394 bound_to 11000
  140.3573  134.7718  157.4509 LP  0  0  0  0  0  0  0  0  0  0  0  0  # atno 17395 bound_to 11000

$$$$
