AV-unprocessed.smi:1915|AV-procd|sdf|7762|dock9
  -GOLD-   22720 9503D 1   1.00000     0.00000
 Structure written by MMmdl.
 45 46  0  0  0  0  0  0  0  0  2 V2000
  150.1421  140.7992  158.0423 C   0  0  0  0  0  0  0  0  0  0  0  0
  151.6524  140.5233  158.1373 C   0  0  0  0  0  0  0  0  0  0  0  0
  152.2960  141.4077  159.2150 C   0  0  0  0  0  0  0  0  0  0  0  0
  152.3936  140.6828  156.7909 C   0  0  0  0  0  0  0  0  0  0  0  0
  151.8384  139.8371  155.7358 N   0  0  0  0  0  0  0  0  0  0  0  0
  152.6034  138.7217  155.2058 C   0  0  0  0  0  0  0  0  0  0  0  0
  151.6053  137.9171  154.3491 C   0  0  1  0  0  0  0  0  0  0  0  0
  151.1207  136.6526  155.0771 C   0  0  0  0  0  0  0  0  0  0  0  0
  151.6548  136.3002  156.1297 O   0  0  0  0  0  0  0  0  0  0  0  0
  150.1256  135.9652  154.4943 N   0  0  0  0  0  0  0  0  0  0  0  0
  149.5262  134.7385  155.0165 C   0  0  0  0  0  0  0  0  0  0  0  0
  149.5006  133.5849  153.9917 C   0  0  0  0  0  0  0  0  0  0  0  0
  148.1943  133.4659  153.2248 C   0  0  0  0  0  0  0  0  0  0  0  0
  147.3106  132.3821  153.4186 C   0  0  0  0  0  0  0  0  0  0  0  0
  146.1372  132.3014  152.6397 C   0  0  0  0  0  0  0  0  0  0  0  0
  145.8703  133.3063  151.6872 C   0  0  0  0  0  0  0  0  0  0  0  0
  146.7842  134.3690  151.5383 C   0  0  0  0  0  0  0  0  0  0  0  0
  147.8992  134.4091  152.3003 N   0  3  0  0  0  0  0  0  0  0  0  0
  150.4485  138.9005  154.0785 C   0  0  0  0  0  0  0  0  0  0  0  0
  150.6759  140.0094  155.0946 C   0  0  0  0  0  0  0  0  0  0  0  0
  149.8644  140.9124  155.2900 O   0  0  0  0  0  0  0  0  0  0  0  0
  149.9464  141.8018  157.6610 H   0  0  0  0  0  0  0  0  0  0  0  0
  149.6667  140.7158  159.0198 H   0  0  0  0  0  0  0  0  0  0  0  0
  149.6438  140.0869  157.3849 H   0  0  0  0  0  0  0  0  0  0  0  0
  151.7721  139.4894  158.4602 H   0  0  0  0  0  0  0  0  0  0  0  0
  152.2091  142.4652  158.9632 H   0  0  0  0  0  0  0  0  0  0  0  0
  153.3558  141.1793  159.3306 H   0  0  0  0  0  0  0  0  0  0  0  0
  151.8206  141.2562  160.1847 H   0  0  0  0  0  0  0  0  0  0  0  0
  152.3764  141.7282  156.4775 H   0  0  0  0  0  0  0  0  0  0  0  0
  153.4465  140.4268  156.9170 H   0  0  0  0  0  0  0  0  0  0  0  0
  153.4194  139.1048  154.5916 H   0  0  0  0  0  0  0  0  0  0  0  0
  153.0458  138.1339  156.0113 H   0  0  0  0  0  0  0  0  0  0  0  0
  152.0747  137.6267  153.4077 H   0  0  0  0  0  0  0  0  0  0  0  0
  149.7440  136.3262  153.6315 H   0  0  0  0  0  0  0  0  0  0  0  0
  150.0435  134.4218  155.9238 H   0  0  0  0  0  0  0  0  0  0  0  0
  148.5054  134.9715  155.3199 H   0  0  0  0  0  0  0  0  0  0  0  0
  150.3109  133.7203  153.2746 H   0  0  0  0  0  0  0  0  0  0  0  0
  149.7032  132.6401  154.4983 H   0  0  0  0  0  0  0  0  0  0  0  0
  147.5353  131.6137  154.1437 H   0  0  0  0  0  0  0  0  0  0  0  0
  145.4529  131.4755  152.7682 H   0  0  0  0  0  0  0  0  0  0  0  0
  144.9799  133.2601  151.0773 H   0  0  0  0  0  0  0  0  0  0  0  0
  146.6629  135.1767  150.8315 H   0  0  0  0  0  0  0  0  0  0  0  0
  150.5138  139.3150  153.0720 H   0  0  0  0  0  0  0  0  0  0  0  0
  149.4570  138.4607  154.1972 H   0  0  0  0  0  0  0  0  0  0  0  0
  148.5523  135.1813  152.1673 H   0  0  0  0  0  0  0  0  0  0  0  0
  1  2  1  0  0  0  0
  1 22  1  0  0  0  0
  1 23  1  0  0  0  0
  1 24  1  0  0  0  0
  2  3  1  0  0  0  0
  2  4  1  0  0  0  0
  2 25  1  0  0  0  0
  3 26  1  0  0  0  0
  3 27  1  0  0  0  0
  3 28  1  0  0  0  0
  4  5  1  0  0  0  0
  4 29  1  0  0  0  0
  4 30  1  0  0  0  0
  5 20  1  0  0  0  0
  5  6  1  0  0  0  0
  6  7  1  0  0  0  0
  6 31  1  0  0  0  0
  6 32  1  0  0  0  0
  7  8  1  0  0  0  0
  7 19  1  0  0  0  0
  7 33  1  0  0  0  0
  8  9  2  0  0  0  0
  8 10  1  0  0  0  0
 10 11  1  0  0  0  0
 10 34  1  0  0  0  0
 11 12  1  0  0  0  0
 11 35  1  0  0  0  0
 11 36  1  0  0  0  0
 12 13  1  0  0  0  0
 12 37  1  0  0  0  0
 12 38  1  0  0  0  0
 13 18  1  0  0  0  0
 13 14  2  0  0  0  0
 14 15  1  0  0  0  0
 14 39  1  0  0  0  0
 15 16  2  0  0  0  0
 15 40  1  0  0  0  0
 16 17  1  0  0  0  0
 16 41  1  0  0  0  0
 17 18  2  0  0  0  0
 17 42  1  0  0  0  0
 18 45  1  0  0  0  0
 19 20  1  0  0  0  0
 19 43  1  0  0  0  0
 19 44  1  0  0  0  0
 20 21  2  0  0  0  0
M  CHG  1  18   1
M  END
> <s_m_source_file>
AV-unprocessed.smi

> <i_m_source_file_index>
1915

> <i_lp_mmshare_version>
43012

> <i_f3d_flags>
0

> <s_epik_input>
W0NIM11bQ0hdKFtDSDNdKVtDSDJdTjFbQ0gyXVtDQEhdKFtDSDJdQzE9TylDKD1PKVtOSF1bQ0gyXVtDSDJdYzJbY0hdW2NIXVtjSF1bY0hdbjI=

> <s_epik_cmdline>
J2VwaWtfcHl0aG9uJywgJy1waCcsICc3LjAnLCAnLXRuJywgJzgnLCAnLW1hJywgJzIwMCcsICctbWV0YWxfYmluZGluZycsICctaW1hZScsICc8aW5maWxlLm1hZT4nLCAnLW9tYWUnLCAnPG91dGZpbGUubWFlPic=

> <r_epik_Ionization_Penalty>
1.88249

> <r_epik_Ionization_Penalty_Charging>
1.88249

> <r_epik_Ionization_Penalty_Neutral>
3.64574e-08

> <r_epik_State_Penalty>
2.00238

> <r_epik_Charging_Adjusted_Penalty>
3.88487

> <i_epik_Tot_Q>
1

> <i_epik_Tot_abs_Q>
1

> <r_epik_Metal_State_Penalty>
2.02676

> <b_epik_Metal_Only>
0

> <s_lp_Force_Field>
OPLS_2005

> <r_lp_Energy>
19.4357

> <b_lp_Chiralities_Consistent>
1

> <s_lp_Variant>
AV-unprocessed.smi:1915-3

> <Gold.Version>
5.8.1

> <Gold.Id.Protein>
6NUR|6NUR_protein|mol2

> <Gold.PLP.Fitness>
49.8184

> <Gold.PLP.PLP>
-38.8146

> <Gold.PLP.part.hbond>
-3.7040

> <Gold.PLP.part.metal>
0.0000

> <Gold.PLP.part.buried>
-2.7123

> <Gold.PLP.part.nonpolar>
-31.3638

> <Gold.PLP.part.repulsive>
0.1908

> <Gold.PLP.ligand.clash>
0.0000

> <Gold.PLP.ligand.torsion>
0.5706

> <Gold.PLP.Chemscore.Hbond>
4.0000

> <Gold.PLP.Chemscore.CHOScore>
0.0000

> <Gold.PLP.Chemscore.Metal>
0.0000

> <Gold.Chemscore.Hbonds>
donor molecule, donor type, donor heavy atom, donor atom, acceptor molecule, acceptor atom, score
      L1  H    10    34       P1  7948  1.00
      P1  H 10752 10764       L1     9  0.30

> <Gold.PLP.Chemscore.Internal.Correction>
0.1449

> <Gold.Rescore>
     Score         DG    S(hbond)    S(metal)    S(lipo)     H(rot)  DE(clash)    DE(int)     intcor
     17.48     -18.18       2.57        0.00      76.00       1.86       0.02       0.68       ----

> <Gold.Chemscore.Fitness>
17.4833

> <Gold.Chemscore.DG>
-18.1785

> <Gold.Chemscore.ZeroCoef>
-5.4800

> <Gold.Chemscore.Hbond>
2.5684

> <Gold.Chemscore.Metal>
0.0000

> <Gold.Chemscore.Lipo>
75.9951

> <Gold.Chemscore.Internal_Hbond>
0.0000

> <Gold.Chemscore.DEClash>
0.0170

> <Gold.Chemscore.DEInternal>
0.6782

> <Gold.Chemscore.Rot>
1.8638

> <Gold.Chemscore.Internal.Correction>
   9.000000E+99

> <Gold.Chemscore.Hbonds>
donor molecule, donor type, donor heavy atom, donor atom, acceptor molecule, acceptor atom, score
      L1  H    10    34       P1  7948  0.34
      L1  H    18    45       P1  7948  0.01

> <Gold.Chemscore.Hbond.Weighted>
-8.5784

> <Gold.Chemscore.Metal.Weighted>
-0.0000

> <Gold.Chemscore.Lipo.Weighted>
-8.8914

> <Gold.Chemscore.Internal_Hbond.Weighted>
0.0000

> <Gold.Chemscore.DEClash.Weighted>
0.0170

> <Gold.Chemscore.DEInternal.Weighted>
0.6782

> <Gold.Chemscore.Rot.Weighted>
4.7713

> <Gold.Chemscore.Internal.Correction.Weighted>
   9.000000E+99

> <Gold.Protein.RotatedTorsions>
[ 6907 6896 6895 6894 ] final -137.98 input  -60.11 | X-H torsion
[ 7974 7965 7964 7962 ] final  138.44 input  175.53 | X-H torsion
[ 8008 7997 7996 7995 ] final  -73.25 input   59.86 | X-H torsion
[ 10167 10162 10161 10158 ] final   59.70 input  -65.29 | X-H torsion
[ 10718 10713 10712 10709 ] final -162.33 input   66.30 | X-H torsion
[ 10763 10752 10751 10750 ] final  -36.42 input  -60.55 | X-H torsion
[ 11005 11000 10999 10996 ] final  -90.42 input  -57.11 | X-H torsion

> <Gold.Protein.ActiveResidues>
 VAL166  LYS551  ARG553  GLY616  TRP617  ASP618  TYR619  PRO620  LYS621  CYS622 
 ASP623  PHE694  ASN695  SER759  ASP760  ASP761  ALA762  ILE779  LEU786  VAL792 
 PHE793  MET794  SER795  GLU796  ALA797  LYS798  CYS799  TRP800  GLU811  SER814 

> <Gold.Protein.RotatedAtoms>
  151.0293  133.5805  159.2662 H   0  0  0  0  0  0  0  0  0  0  0  0  # atno 6907 bound_to 6896
  151.2893  135.0736  159.9208 H   0  0  0  0  0  0  0  0  0  0  0  0  # atno 6908 bound_to 6896
  152.5341  133.9994  159.7941 H   0  0  0  0  0  0  0  0  0  0  0  0  # atno 6909 bound_to 6896
  144.9372  139.4974  143.5589 H   0  0  0  0  0  0  0  0  0  0  0  0  # atno 7974 bound_to 7965
  154.5232  140.0782  156.8211 H   0  0  0  0  0  0  0  0  0  0  0  0  # atno 8008 bound_to 7997
  155.3531  140.3414  155.4221 H   0  0  0  0  0  0  0  0  0  0  0  0  # atno 8009 bound_to 7997
  156.1704  140.1618  156.8445 H   0  0  0  0  0  0  0  0  0  0  0  0  # atno 8010 bound_to 7997
  140.1736  144.4252  150.6649 H   0  0  0  0  0  0  0  0  0  0  0  0  # atno 10167 bound_to 10162
  156.6089  130.8842  151.2931 H   0  0  0  0  0  0  0  0  0  0  0  0  # atno 10718 bound_to 10713
  153.8794  135.6823  153.4768 H   0  0  0  0  0  0  0  0  0  0  0  0  # atno 10763 bound_to 10752
  153.1242  135.4726  154.9243 H   0  0  0  0  0  0  0  0  0  0  0  0  # atno 10764 bound_to 10752
  154.7676  135.3229  154.8206 H   0  0  0  0  0  0  0  0  0  0  0  0  # atno 10765 bound_to 10752
  141.1566  133.7691  156.9734 H   0  0  0  0  0  0  0  0  0  0  0  0  # atno 11005 bound_to 11000
  146.3271  139.8366  142.8898 LP  0  0  0  0  0  0  0  0  0  0  0  0  # atno 17320 bound_to 7965
  145.3048  141.0204  143.3588 LP  0  0  0  0  0  0  0  0  0  0  0  0  # atno 17321 bound_to 7965
  140.6566  143.2239  151.5955 LP  0  0  0  0  0  0  0  0  0  0  0  0  # atno 17342 bound_to 10162
  139.5327  144.2870  152.1183 LP  0  0  0  0  0  0  0  0  0  0  0  0  # atno 17343 bound_to 10162
  157.7260  130.9623  150.1636 LP  0  0  0  0  0  0  0  0  0  0  0  0  # atno 17370 bound_to 10713
  156.2407  130.3690  149.8341 LP  0  0  0  0  0  0  0  0  0  0  0  0  # atno 17371 bound_to 10713
  140.1114  134.9474  157.2070 LP  0  0  0  0  0  0  0  0  0  0  0  0  # atno 17394 bound_to 11000
  140.3189  134.2939  155.7250 LP  0  0  0  0  0  0  0  0  0  0  0  0  # atno 17395 bound_to 11000

$$$$
