AV-unprocessed.smi:1492|AV-procd|sdf|6042|dock10
  -GOLD-   22720 6153D 1   1.00000     0.00000
 Structure written by MMmdl.
 53 54  0  0  0  0  0  0  0  0  2 V2000
  151.2321  139.1873  155.4486 C   0  0  0  0  0  0  0  0  0  0  0  0
  151.8658  140.3736  156.2011 C   0  0  0  0  0  0  0  0  0  0  0  0
  151.0803  140.9673  157.4185 C   0  0  1  0  0  0  0  0  0  0  0  0
  149.5970  141.1495  157.0106 C   0  0  0  0  0  0  0  0  0  0  0  0
  151.1468  139.9671  158.6174 C   0  0  0  0  0  0  0  0  0  0  0  0
  150.2592  138.8193  158.4407 N   0  0  0  0  0  0  0  0  0  0  0  0
  150.2565  137.6930  159.1694 C   0  0  0  0  0  0  0  0  0  0  0  0
  151.1131  137.4249  160.0092 O   0  0  0  0  0  0  0  0  0  0  0  0
  149.0895  136.7287  158.9395 C   0  0  0  0  0  0  0  0  0  0  0  0
  148.8315  135.7126  160.0537 C   0  0  0  0  0  0  0  0  0  0  0  0
  148.8418  134.3700  159.8547 C   0  0  0  0  0  0  0  0  0  0  0  0
  149.1217  133.7034  158.5197 C   0  0  0  0  0  0  0  0  0  0  0  0
  148.5800  133.4914  160.8911 N   0  0  0  0  0  0  0  0  0  0  0  0
  148.2876  134.0250  162.1354 C   0  0  0  0  0  0  0  0  0  0  0  0
  147.9942  132.9816  163.1905 C   0  0  0  0  0  0  0  0  0  0  0  0
  148.2428  135.2905  162.4208 N   0  0  0  0  0  0  0  0  0  0  0  0
  148.5113  136.2235  161.4071 C   0  0  0  0  0  0  0  0  0  0  0  0
  148.4632  137.4300  161.6426 O   0  0  0  0  0  0  0  0  0  0  0  0
  151.6935  142.2906  157.8296 N   0  3  0  0  0  0  0  0  0  0  0  0
  150.7592  143.3216  158.3685 C   0  0  0  0  0  0  0  0  0  0  0  0
  151.4852  144.6580  158.6029 C   0  0  0  0  0  0  0  0  0  0  0  0
  152.5952  144.4693  159.4670 O   0  0  0  0  0  0  0  0  0  0  0  0
  153.5418  143.5715  158.9091 C   0  0  0  0  0  0  0  0  0  0  0  0
  152.8884  142.1947  158.7188 C   0  0  0  0  0  0  0  0  0  0  0  0
  148.6106  132.4990  160.7035 H   0  0  0  0  0  0  0  0  0  0  0  0
  151.8570  138.9086  154.5999 H   0  0  0  0  0  0  0  0  0  0  0  0
  150.2492  139.4327  155.0486 H   0  0  0  0  0  0  0  0  0  0  0  0
  151.1338  138.2964  156.0650 H   0  0  0  0  0  0  0  0  0  0  0  0
  152.8691  140.0853  156.5177 H   0  0  0  0  0  0  0  0  0  0  0  0
  151.9988  141.1405  155.4397 H   0  0  0  0  0  0  0  0  0  0  0  0
  149.1347  140.1981  156.7494 H   0  0  0  0  0  0  0  0  0  0  0  0
  149.4890  141.8072  156.1482 H   0  0  0  0  0  0  0  0  0  0  0  0
  148.9913  141.5593  157.8179 H   0  0  0  0  0  0  0  0  0  0  0  0
  152.1565  139.5716  158.7234 H   0  0  0  0  0  0  0  0  0  0  0  0
  150.9670  140.4601  159.5721 H   0  0  0  0  0  0  0  0  0  0  0  0
  149.5307  138.9199  157.7490 H   0  0  0  0  0  0  0  0  0  0  0  0
  148.1973  137.3301  158.7675 H   0  0  0  0  0  0  0  0  0  0  0  0
  149.2513  136.1951  158.0016 H   0  0  0  0  0  0  0  0  0  0  0  0
  148.4251  134.0612  157.7609 H   0  0  0  0  0  0  0  0  0  0  0  0
  149.0208  132.6191  158.5815 H   0  0  0  0  0  0  0  0  0  0  0  0
  150.1367  133.9257  158.1900 H   0  0  0  0  0  0  0  0  0  0  0  0
  147.7317  133.4498  164.1400 H   0  0  0  0  0  0  0  0  0  0  0  0
  148.8672  132.3486  163.3518 H   0  0  0  0  0  0  0  0  0  0  0  0
  147.1600  132.3516  162.8802 H   0  0  0  0  0  0  0  0  0  0  0  0
  149.9470  143.5342  157.6771 H   0  0  0  0  0  0  0  0  0  0  0  0
  150.3140  142.9738  159.3010 H   0  0  0  0  0  0  0  0  0  0  0  0
  151.8156  145.0910  157.6585 H   0  0  0  0  0  0  0  0  0  0  0  0
  150.8046  145.3780  159.0575 H   0  0  0  0  0  0  0  0  0  0  0  0
  153.9234  143.9569  157.9638 H   0  0  0  0  0  0  0  0  0  0  0  0
  154.3925  143.4925  159.5862 H   0  0  0  0  0  0  0  0  0  0  0  0
  152.6035  141.8047  159.6959 H   0  0  0  0  0  0  0  0  0  0  0  0
  153.6419  141.5234  158.3124 H   0  0  0  0  0  0  0  0  0  0  0  0
  152.0373  142.6843  156.9653 H   0  0  0  0  0  0  0  0  0  0  0  0
  1  2  1  0  0  0  0
  1 26  1  0  0  0  0
  1 27  1  0  0  0  0
  1 28  1  0  0  0  0
  2  3  1  0  0  0  0
  2 29  1  0  0  0  0
  2 30  1  0  0  0  0
  3  4  1  0  0  0  0
  3  5  1  0  0  0  0
  3 19  1  0  0  0  0
  4 31  1  0  0  0  0
  4 32  1  0  0  0  0
  4 33  1  0  0  0  0
  5  6  1  0  0  0  0
  5 34  1  0  0  0  0
  5 35  1  0  0  0  0
  6  7  1  0  0  0  0
  6 36  1  0  0  0  0
  7  8  2  0  0  0  0
  7  9  1  0  0  0  0
  9 37  1  0  0  0  0
  9 38  1  0  0  0  0
  9 10  1  0  0  0  0
 10 17  1  0  0  0  0
 10 11  2  0  0  0  0
 11 12  1  0  0  0  0
 11 13  1  0  0  0  0
 12 39  1  0  0  0  0
 12 40  1  0  0  0  0
 12 41  1  0  0  0  0
 13 25  1  0  0  0  0
 13 14  1  0  0  0  0
 14 15  1  0  0  0  0
 14 16  2  0  0  0  0
 15 42  1  0  0  0  0
 15 43  1  0  0  0  0
 15 44  1  0  0  0  0
 16 17  1  0  0  0  0
 17 18  2  0  0  0  0
 19 24  1  0  0  0  0
 19 20  1  0  0  0  0
 19 53  1  0  0  0  0
 20 21  1  0  0  0  0
 20 45  1  0  0  0  0
 20 46  1  0  0  0  0
 21 22  1  0  0  0  0
 21 47  1  0  0  0  0
 21 48  1  0  0  0  0
 22 23  1  0  0  0  0
 23 24  1  0  0  0  0
 23 49  1  0  0  0  0
 23 50  1  0  0  0  0
 24 51  1  0  0  0  0
 24 52  1  0  0  0  0
M  CHG  1  19   1
M  END
> <s_m_source_file>
AV-unprocessed.smi

> <i_m_source_file_index>
1492

> <i_lp_mmshare_version>
43012

> <i_f3d_flags>
0

> <s_epik_input>
W0NIMl0xW0NIMl1PW0NIMl1bQ0gyXU4xW0NAQF0oW0NIM10pKFtDSDJdW0NIM10pW0NIMl1bTkhdQyg9TylbQ0gyXWMyYyhbQ0gzXSluYyhbQ0gzXSlbbkhdYzI9Tw==

> <s_epik_cmdline>
J2VwaWtfcHl0aG9uJywgJy1waCcsICc3LjAnLCAnLXRuJywgJzgnLCAnLW1hJywgJzIwMCcsICctbWV0YWxfYmluZGluZycsICctaW1hZScsICc8aW5maWxlLm1hZT4nLCAnLW9tYWUnLCAnPG91dGZpbGUubWFlPic=

> <r_lp_tautomer_probability>
0.156392

> <r_epik_Ionization_Penalty>
0.523233

> <r_epik_Ionization_Penalty_Charging>
0.523147

> <r_epik_Ionization_Penalty_Neutral>
8.52784e-05

> <r_epik_State_Penalty>
1.66677

> <r_epik_Charging_Adjusted_Penalty>
2.18991

> <i_epik_Tot_Q>
1

> <i_epik_Tot_abs_Q>
1

> <r_epik_Metal_State_Penalty>
1.84524

> <b_epik_Metal_Only>
0

> <s_lp_Force_Field>
OPLS_2005

> <r_lp_Energy>
37.6543

> <b_lp_Chiralities_Consistent>
1

> <s_lp_Variant>
AV-unprocessed.smi:1492-7

> <Gold.Version>
5.8.1

> <Gold.Id.Protein>
6NUR|6NUR_protein|mol2

> <Gold.PLP.Fitness>
42.8108

> <Gold.PLP.PLP>
-38.1759

> <Gold.PLP.part.hbond>
-3.1374

> <Gold.PLP.part.metal>
0.0000

> <Gold.PLP.part.buried>
-7.3319

> <Gold.PLP.part.nonpolar>
-28.4875

> <Gold.PLP.part.repulsive>
0.2862

> <Gold.PLP.ligand.clash>
0.0000

> <Gold.PLP.ligand.torsion>
1.6497

> <Gold.PLP.Chemscore.Hbond>
2.5558

> <Gold.PLP.Chemscore.CHOScore>
0.0000

> <Gold.PLP.Chemscore.Metal>
0.0000

> <Gold.Chemscore.Hbonds>
donor molecule, donor type, donor heavy atom, donor atom, acceptor molecule, acceptor atom, score
      P1  H  6896  6907       L1     8  0.31
      P1  H  6934  6947       L1    18  0.26

> <Gold.PLP.Chemscore.Internal.Correction>
0.2671

> <Gold.Rescore>
     Score         DG    S(hbond)    S(metal)    S(lipo)     H(rot)  DE(clash)    DE(int)     intcor
     15.94     -18.86       2.72        0.00      84.66       2.19       0.03       2.89       ----

> <Gold.Chemscore.Fitness>
15.9372

> <Gold.Chemscore.DG>
-18.8557

> <Gold.Chemscore.ZeroCoef>
-5.4800

> <Gold.Chemscore.Hbond>
2.7197

> <Gold.Chemscore.Metal>
0.0000

> <Gold.Chemscore.Lipo>
84.6559

> <Gold.Chemscore.Internal_Hbond>
0.0000

> <Gold.Chemscore.DEClash>
0.0251

> <Gold.Chemscore.DEInternal>
2.8934

> <Gold.Chemscore.Rot>
2.1926

> <Gold.Chemscore.Internal.Correction>
   9.000000E+99

> <Gold.Chemscore.Hbonds>
donor molecule, donor type, donor heavy atom, donor atom, acceptor molecule, acceptor atom, score
      P1  H  6896  6907       L1     8  0.11
      P1  H  6931  6943       L1    18  0.01
      P1  H  6934  6947       L1    18  0.25

> <Gold.Chemscore.Hbond.Weighted>
-9.0839

> <Gold.Chemscore.Metal.Weighted>
-0.0000

> <Gold.Chemscore.Lipo.Weighted>
-9.9047

> <Gold.Chemscore.Internal_Hbond.Weighted>
0.0000

> <Gold.Chemscore.DEClash.Weighted>
0.0251

> <Gold.Chemscore.DEInternal.Weighted>
2.8934

> <Gold.Chemscore.Rot.Weighted>
5.6129

> <Gold.Chemscore.Internal.Correction.Weighted>
   9.000000E+99

> <Gold.Protein.RotatedTorsions>
[ 6907 6896 6895 6894 ] final  -22.27 input  -60.11 | X-H torsion
[ 7974 7965 7964 7962 ] final  -76.30 input  175.53 | X-H torsion
[ 8008 7997 7996 7995 ] final -134.96 input   59.86 | X-H torsion
[ 10167 10162 10161 10158 ] final   92.07 input  -65.29 | X-H torsion
[ 10718 10713 10712 10709 ] final -142.30 input   66.30 | X-H torsion
[ 10763 10752 10751 10750 ] final -123.69 input  -60.55 | X-H torsion
[ 11005 11000 10999 10996 ] final   47.81 input  -57.11 | X-H torsion

> <Gold.Protein.ActiveResidues>
 VAL166  LYS551  ARG553  GLY616  TRP617  ASP618  TYR619  PRO620  LYS621  CYS622 
 ASP623  PHE694  ASN695  SER759  ASP760  ASP761  ALA762  ILE779  LEU786  VAL792 
 PHE793  MET794  SER795  GLU796  ALA797  LYS798  CYS799  TRP800  GLU811  SER814 

> <Gold.Protein.RotatedAtoms>
  151.2211  135.0519  159.8949 H   0  0  0  0  0  0  0  0  0  0  0  0  # atno 6907 bound_to 6896
  152.5415  134.0639  159.8174 H   0  0  0  0  0  0  0  0  0  0  0  0  # atno 6908 bound_to 6896
  151.0806  133.5345  159.2652 H   0  0  0  0  0  0  0  0  0  0  0  0  # atno 6909 bound_to 6896
  145.6147  140.9378  143.1171 H   0  0  0  0  0  0  0  0  0  0  0  0  # atno 7974 bound_to 7965
  155.3708  140.0488  157.3045 H   0  0  0  0  0  0  0  0  0  0  0  0  # atno 8008 bound_to 7997
  154.5131  140.2198  155.9081 H   0  0  0  0  0  0  0  0  0  0  0  0  # atno 8009 bound_to 7997
  156.1605  140.3117  155.8805 H   0  0  0  0  0  0  0  0  0  0  0  0  # atno 8010 bound_to 7997
  139.8313  144.6686  150.9396 H   0  0  0  0  0  0  0  0  0  0  0  0  # atno 10167 bound_to 10162
  156.3443  130.7654  151.1796 H   0  0  0  0  0  0  0  0  0  0  0  0  # atno 10718 bound_to 10713
  154.8712  135.4089  154.2984 H   0  0  0  0  0  0  0  0  0  0  0  0  # atno 10763 bound_to 10752
  153.3848  135.7013  153.6544 H   0  0  0  0  0  0  0  0  0  0  0  0  # atno 10764 bound_to 10752
  153.5351  135.3659  155.2665 H   0  0  0  0  0  0  0  0  0  0  0  0  # atno 10765 bound_to 10752
  140.1246  134.4784  155.8569 H   0  0  0  0  0  0  0  0  0  0  0  0  # atno 11005 bound_to 11000
  144.7255  139.7888  143.7366 LP  0  0  0  0  0  0  0  0  0  0  0  0  # atno 17320 bound_to 7965
  146.1478  139.4552  143.0068 LP  0  0  0  0  0  0  0  0  0  0  0  0  # atno 17321 bound_to 7965
  140.7806  143.3998  151.1168 LP  0  0  0  0  0  0  0  0  0  0  0  0  # atno 17342 bound_to 10162
  139.7652  143.8576  152.3109 LP  0  0  0  0  0  0  0  0  0  0  0  0  # atno 17343 bound_to 10162
  157.7451  131.0445  150.4799 LP  0  0  0  0  0  0  0  0  0  0  0  0  # atno 17370 bound_to 10713
  156.4984  130.4111  149.6367 LP  0  0  0  0  0  0  0  0  0  0  0  0  # atno 17371 bound_to 10713
  141.2158  133.6773  156.6954 LP  0  0  0  0  0  0  0  0  0  0  0  0  # atno 17394 bound_to 11000
  140.2920  134.8233  157.4025 LP  0  0  0  0  0  0  0  0  0  0  0  0  # atno 17395 bound_to 11000

$$$$
