AV-unprocessed.smi:1982|AV-procd|sdf|8023|dock1
  -GOLD-   2272010213D 1   1.00000     0.00000
 Structure written by MMmdl.
 36 37  0  0  0  0  0  0  0  0  1 V2000
  151.2361  144.2790  160.6905 C   0  0  0  0  0  0  0  0  0  0  0  0
  152.5911  143.8586  160.0850 C   0  0  1  0  0  0  0  0  0  0  0  0
  153.3907  142.9604  161.0512 C   0  0  0  0  0  0  0  0  0  0  0  0
  152.8005  141.5450  161.1526 C   0  0  0  0  0  0  0  0  0  0  0  0
  152.6949  140.8873  159.7698 C   0  0  0  0  0  0  0  0  0  0  0  0
  151.8951  141.7581  158.7797 C   0  0  2  0  0  0  0  0  0  0  0  0
  151.8985  141.1298  157.4616 N   0  0  0  0  0  0  0  0  0  0  0  0
  150.8239  140.9404  156.6803 C   0  0  0  0  0  0  0  0  0  0  0  0
  149.6755  141.2231  157.0203 O   0  0  0  0  0  0  0  0  0  0  0  0
  151.0883  140.3482  155.2957 C   0  0  0  0  0  0  0  0  0  0  0  0
  151.7104  139.0409  155.4019 N   0  0  0  0  0  0  0  0  0  0  0  0
  151.3092  137.8415  154.9760 C   0  0  0  0  0  0  0  0  0  0  0  0
  152.1955  136.9000  155.2623 N   0  0  0  0  0  0  0  0  0  0  0  0
  153.2005  137.5995  155.9094 N   0  0  0  0  0  0  0  0  0  0  0  0
  152.9184  138.8704  155.9954 N   0  0  0  0  0  0  0  0  0  0  0  0
  152.4837  143.1897  158.6885 C   0  0  1  0  0  0  0  0  0  0  0  0
  151.7489  144.0778  157.6637 C   0  0  0  0  0  0  0  0  0  0  0  0
  150.5572  143.4351  160.8085 H   0  0  0  0  0  0  0  0  0  0  0  0
  150.7342  145.0227  160.0722 H   0  0  0  0  0  0  0  0  0  0  0  0
  151.3740  144.7276  161.6745 H   0  0  0  0  0  0  0  0  0  0  0  0
  153.1666  144.7772  159.9620 H   0  0  0  0  0  0  0  0  0  0  0  0
  154.4225  142.8899  160.7039 H   0  0  0  0  0  0  0  0  0  0  0  0
  153.4379  143.4162  162.0408 H   0  0  0  0  0  0  0  0  0  0  0  0
  153.4226  140.9320  161.8053 H   0  0  0  0  0  0  0  0  0  0  0  0
  151.8156  141.5821  161.6184 H   0  0  0  0  0  0  0  0  0  0  0  0
  153.6985  140.7135  159.3787 H   0  0  0  0  0  0  0  0  0  0  0  0
  152.2290  139.9060  159.8683 H   0  0  0  0  0  0  0  0  0  0  0  0
  150.8649  141.8329  159.1317 H   0  0  0  0  0  0  0  0  0  0  0  0
  152.7995  140.8600  157.0938 H   0  0  0  0  0  0  0  0  0  0  0  0
  150.1521  140.2637  154.7413 H   0  0  0  0  0  0  0  0  0  0  0  0
  151.7468  141.0039  154.7247 H   0  0  0  0  0  0  0  0  0  0  0  0
  150.3803  137.6616  154.4553 H   0  0  0  0  0  0  0  0  0  0  0  0
  153.5060  143.0890  158.3198 H   0  0  0  0  0  0  0  0  0  0  0  0
  150.6813  144.1370  157.8762 H   0  0  0  0  0  0  0  0  0  0  0  0
  151.8574  143.6933  156.6491 H   0  0  0  0  0  0  0  0  0  0  0  0
  152.1479  145.0923  157.6660 H   0  0  0  0  0  0  0  0  0  0  0  0
  1  2  1  0  0  0  0
  1 18  1  0  0  0  0
  1 19  1  0  0  0  0
  1 20  1  0  0  0  0
  2 16  1  0  0  0  0
  2  3  1  0  0  0  0
  2 21  1  0  0  0  0
  3  4  1  0  0  0  0
  3 22  1  0  0  0  0
  3 23  1  0  0  0  0
  4  5  1  0  0  0  0
  4 24  1  0  0  0  0
  4 25  1  0  0  0  0
  5  6  1  0  0  0  0
  5 26  1  0  0  0  0
  5 27  1  0  0  0  0
  6  7  1  0  0  0  0
  6 16  1  0  0  0  0
  6 28  1  0  0  0  0
  7  8  1  0  0  0  0
  7 29  1  0  0  0  0
  8  9  2  0  0  0  0
  8 10  1  0  0  0  0
 10 11  1  0  0  0  0
 10 30  1  0  0  0  0
 10 31  1  0  0  0  0
 11 15  1  0  0  0  0
 11 12  1  0  0  0  0
 12 13  2  0  0  0  0
 12 32  1  0  0  0  0
 13 14  1  0  0  0  0
 14 15  2  0  0  0  0
 16 17  1  0  0  0  0
 16 33  1  0  0  0  0
 17 34  1  0  0  0  0
 17 35  1  0  0  0  0
 17 36  1  0  0  0  0
M  END
> <s_m_source_file>
AV-unprocessed.smi

> <i_m_source_file_index>
1982

> <i_lp_mmshare_version>
43012

> <i_f3d_flags>
0

> <s_epik_input>
W0NIM11bQ0BASF0xW0NIMl1bQ0gyXVtDSDJdW0NASF0oW0NASF0xW0NIM10pW05IXUMoPU8pW0NIMl1uMltjSF1ubm4y

> <s_epik_cmdline>
J2VwaWtfcHl0aG9uJywgJy1waCcsICc3LjAnLCAnLXRuJywgJzgnLCAnLW1hJywgJzIwMCcsICctbWV0YWxfYmluZGluZycsICctaW1hZScsICc8aW5maWxlLm1hZT4nLCAnLW9tYWUnLCAnPG91dGZpbGUubWFlPic=

> <r_lp_tautomer_probability>
1

> <r_epik_Ionization_Penalty>
5.03816e-07

> <r_epik_Ionization_Penalty_Charging>
0

> <r_epik_Ionization_Penalty_Neutral>
5.03816e-07

> <r_epik_State_Penalty>
-0

> <r_epik_Charging_Adjusted_Penalty>
0

> <i_epik_Tot_Q>
0

> <i_epik_Tot_abs_Q>
0

> <r_epik_Metal_State_Penalty>
-0

> <b_epik_Metal_Only>
0

> <s_lp_Force_Field>
OPLS_2005

> <r_lp_Energy>
15.2513

> <b_lp_Chiralities_Consistent>
1

> <s_lp_Variant>
AV-unprocessed.smi:1982-4

> <Gold.Version>
5.8.1

> <Gold.Id.Protein>
6NUR|6NUR_protein|mol2

> <Gold.PLP.Fitness>
39.8556

> <Gold.PLP.PLP>
-34.4136

> <Gold.PLP.part.hbond>
-2.9931

> <Gold.PLP.part.metal>
0.0000

> <Gold.PLP.part.buried>
-2.4373

> <Gold.PLP.part.nonpolar>
-29.3245

> <Gold.PLP.part.repulsive>
0.2272

> <Gold.PLP.ligand.clash>
0.0000

> <Gold.PLP.ligand.torsion>
0.1578

> <Gold.PLP.Chemscore.Hbond>
1.9120

> <Gold.PLP.Chemscore.CHOScore>
0.0000

> <Gold.PLP.Chemscore.Metal>
0.0000

> <Gold.Chemscore.Hbonds>
donor molecule, donor type, donor heavy atom, donor atom, acceptor molecule, acceptor atom, score
      P1  H  7997  8010       L1    15  1.00
      P1  H 10752 10765       L1    13  0.93

> <Gold.PLP.Chemscore.Internal.Correction>
0.0217

> <Gold.Rescore>
     Score         DG    S(hbond)    S(metal)    S(lipo)     H(rot)  DE(clash)    DE(int)     intcor
     15.49     -17.34       1.73        0.00      93.59       1.91       0.43       1.42       ----

> <Gold.Chemscore.Fitness>
15.4894

> <Gold.Chemscore.DG>
-17.3385

> <Gold.Chemscore.ZeroCoef>
-5.4800

> <Gold.Chemscore.Hbond>
1.7327

> <Gold.Chemscore.Metal>
0.0000

> <Gold.Chemscore.Lipo>
93.5911

> <Gold.Chemscore.Internal_Hbond>
0.0000

> <Gold.Chemscore.DEClash>
0.4334

> <Gold.Chemscore.DEInternal>
1.4157

> <Gold.Chemscore.Rot>
1.9058

> <Gold.Chemscore.Internal.Correction>
   9.000000E+99

> <Gold.Chemscore.Hbonds>
donor molecule, donor type, donor heavy atom, donor atom, acceptor molecule, acceptor atom, score
      P1  H  7997  8010       L1    15  0.91
      P1  H 10752 10765       L1    13  0.27

> <Gold.Chemscore.Hbond.Weighted>
-5.7871

> <Gold.Chemscore.Metal.Weighted>
-0.0000

> <Gold.Chemscore.Lipo.Weighted>
-10.9502

> <Gold.Chemscore.Internal_Hbond.Weighted>
0.0000

> <Gold.Chemscore.DEClash.Weighted>
0.4334

> <Gold.Chemscore.DEInternal.Weighted>
1.4157

> <Gold.Chemscore.Rot.Weighted>
4.8788

> <Gold.Chemscore.Internal.Correction.Weighted>
   9.000000E+99

> <Gold.Protein.RotatedTorsions>
[ 6907 6896 6895 6894 ] final  158.69 input  -60.11 | X-H torsion
[ 7974 7965 7964 7962 ] final  168.98 input  175.53 | X-H torsion
[ 8008 7997 7996 7995 ] final   66.20 input   59.86 | X-H torsion
[ 10167 10162 10161 10158 ] final   52.69 input  -65.29 | X-H torsion
[ 10718 10713 10712 10709 ] final  -49.00 input   66.30 | X-H torsion
[ 10763 10752 10751 10750 ] final -169.35 input  -60.55 | X-H torsion
[ 11005 11000 10999 10996 ] final  136.41 input  -57.11 | X-H torsion

> <Gold.Protein.ActiveResidues>
 VAL166  LYS551  ARG553  GLY616  TRP617  ASP618  TYR619  PRO620  LYS621  CYS622 
 ASP623  PHE694  ASN695  SER759  ASP760  ASP761  ALA762  ILE779  LEU786  VAL792 
 PHE793  MET794  SER795  GLU796  ALA797  LYS798  CYS799  TRP800  GLU811  SER814 

> <Gold.Protein.RotatedAtoms>
  151.9966  133.3810  159.4165 H   0  0  0  0  0  0  0  0  0  0  0  0  # atno 6907 bound_to 6896
  150.6915  134.3879  159.5072 H   0  0  0  0  0  0  0  0  0  0  0  0  # atno 6908 bound_to 6896
  152.1620  134.8904  160.0591 H   0  0  0  0  0  0  0  0  0  0  0  0  # atno 6909 bound_to 6896
  144.7370  139.8988  143.6408 H   0  0  0  0  0  0  0  0  0  0  0  0  # atno 7974 bound_to 7965
  155.6737  140.3497  155.4828 H   0  0  0  0  0  0  0  0  0  0  0  0  # atno 8008 bound_to 7997
  155.9666  140.1147  157.0872 H   0  0  0  0  0  0  0  0  0  0  0  0  # atno 8009 bound_to 7997
  154.4156  140.1165  156.5237 H   0  0  0  0  0  0  0  0  0  0  0  0  # atno 8010 bound_to 7997
  140.2487  144.3503  150.6355 H   0  0  0  0  0  0  0  0  0  0  0  0  # atno 10167 bound_to 10162
  156.1934  130.4153  149.9339 H   0  0  0  0  0  0  0  0  0  0  0  0  # atno 10718 bound_to 10713
  154.6532  135.2914  154.9960 H   0  0  0  0  0  0  0  0  0  0  0  0  # atno 10763 bound_to 10752
  154.1046  135.6571  153.4878 H   0  0  0  0  0  0  0  0  0  0  0  0  # atno 10764 bound_to 10752
  153.0388  135.5250  154.7450 H   0  0  0  0  0  0  0  0  0  0  0  0  # atno 10765 bound_to 10752
  140.0044  134.9465  157.0142 H   0  0  0  0  0  0  0  0  0  0  0  0  # atno 11005 bound_to 11000
  146.1087  139.4090  143.0301 LP  0  0  0  0  0  0  0  0  0  0  0  0  # atno 17320 bound_to 7965
  145.7474  140.9985  143.1269 LP  0  0  0  0  0  0  0  0  0  0  0  0  # atno 17321 bound_to 7965
  140.6057  143.2167  151.6985 LP  0  0  0  0  0  0  0  0  0  0  0  0  # atno 17342 bound_to 10162
  139.5053  144.3722  152.0459 LP  0  0  0  0  0  0  0  0  0  0  0  0  # atno 17343 bound_to 10162
  156.7072  130.8956  151.3605 LP  0  0  0  0  0  0  0  0  0  0  0  0  # atno 17370 bound_to 10713
  157.6943  130.9265  150.0600 LP  0  0  0  0  0  0  0  0  0  0  0  0  # atno 17371 bound_to 10713
  140.4668  134.1427  155.7198 LP  0  0  0  0  0  0  0  0  0  0  0  0  # atno 17394 bound_to 11000
  141.1666  133.8691  157.1697 LP  0  0  0  0  0  0  0  0  0  0  0  0  # atno 17395 bound_to 11000

$$$$
