AV-unprocessed.smi:3193|AV-procd|sdf|12206|dock1
  -GOLD-   2272018 43D 1   1.00000     0.00000
 Structure written by MMmdl.
 41 42  0  0  0  0  0  0  0  0  3 V2000
  146.1838  134.0372  153.5386 C   0  0  0  0  0  0  0  0  0  0  0  0
  146.6290  134.2230  152.0733 C   0  0  1  0  0  0  0  0  0  0  0  0
  146.8194  132.8669  151.3612 C   0  0  0  0  0  0  0  0  0  0  0  0
  145.4810  132.1784  151.0448 C   0  0  0  0  0  0  0  0  0  0  0  0
  144.5608  133.1002  150.2316 C   0  0  0  0  0  0  0  0  0  0  0  0
  144.3538  134.4523  150.9335 C   0  0  0  0  0  0  0  0  0  0  0  0
  145.7013  135.1452  151.2373 C   0  0  1  0  0  0  0  0  0  0  0  0
  145.5176  136.5374  151.8747 C   0  0  0  0  0  0  0  0  0  0  0  0
  146.4411  137.5310  151.2903 N   0  3  0  0  0  0  0  0  0  0  0  0
  146.3427  138.8721  151.8998 C   0  0  0  0  0  0  0  0  0  0  0  0
  147.1693  138.9575  153.1910 C   0  0  0  0  0  0  0  0  0  0  0  0
  147.0255  140.2598  153.8467 N   0  0  0  0  0  0  0  0  0  0  0  0
  145.8872  140.7925  154.3964 C   0  0  0  0  0  0  0  0  0  0  0  0
  146.2310  142.0246  154.8902 C   0  0  0  0  0  0  0  0  0  0  0  0
  147.5629  142.1923  154.6207 N   0  3  0  0  0  0  0  0  0  0  0  0
  148.0448  141.1179  153.9867 C   0  0  0  0  0  0  0  0  0  0  0  0
  145.1880  133.6015  153.6156 H   0  0  0  0  0  0  0  0  0  0  0  0
  146.1740  134.9832  154.0792 H   0  0  0  0  0  0  0  0  0  0  0  0
  146.8699  133.3774  154.0703 H   0  0  0  0  0  0  0  0  0  0  0  0
  147.6107  134.6972  152.1118 H   0  0  0  0  0  0  0  0  0  0  0  0
  147.3646  133.0254  150.4295 H   0  0  0  0  0  0  0  0  0  0  0  0
  147.4442  132.2072  151.9641 H   0  0  0  0  0  0  0  0  0  0  0  0
  145.6616  131.2560  150.4918 H   0  0  0  0  0  0  0  0  0  0  0  0
  144.9842  131.8853  151.9700 H   0  0  0  0  0  0  0  0  0  0  0  0
  144.9934  133.2653  149.2441 H   0  0  0  0  0  0  0  0  0  0  0  0
  143.5987  132.6136  150.0683 H   0  0  0  0  0  0  0  0  0  0  0  0
  143.7363  135.0880  150.2986 H   0  0  0  0  0  0  0  0  0  0  0  0
  143.7885  134.3050  151.8542 H   0  0  0  0  0  0  0  0  0  0  0  0
  146.2059  135.3003  150.2818 H   0  0  0  0  0  0  0  0  0  0  0  0
  144.4907  136.8844  151.7523 H   0  0  0  0  0  0  0  0  0  0  0  0
  145.7114  136.4797  152.9468 H   0  0  0  0  0  0  0  0  0  0  0  0
  147.3859  137.1925  151.4059 H   0  0  0  0  0  0  0  0  0  0  0  0
  146.6889  139.6183  151.1831 H   0  0  0  0  0  0  0  0  0  0  0  0
  145.2954  139.0913  152.1131 H   0  0  0  0  0  0  0  0  0  0  0  0
  146.8550  138.1915  153.9015 H   0  0  0  0  0  0  0  0  0  0  0  0
  148.2287  138.7928  152.9879 H   0  0  0  0  0  0  0  0  0  0  0  0
  144.9408  140.2707  154.3972 H   0  0  0  0  0  0  0  0  0  0  0  0
  145.6433  142.7747  155.3998 H   0  0  0  0  0  0  0  0  0  0  0  0
  149.0576  140.9747  153.6540 H   0  0  0  0  0  0  0  0  0  0  0  0
  146.2445  137.6068  150.3023 H   0  0  0  0  0  0  0  0  0  0  0  0
  148.1066  143.0103  154.8668 H   0  0  0  0  0  0  0  0  0  0  0  0
  1  2  1  0  0  0  0
  1 17  1  0  0  0  0
  1 18  1  0  0  0  0
  1 19  1  0  0  0  0
  2  7  1  0  0  0  0
  2  3  1  0  0  0  0
  2 20  1  0  0  0  0
  3  4  1  0  0  0  0
  3 21  1  0  0  0  0
  3 22  1  0  0  0  0
  4  5  1  0  0  0  0
  4 23  1  0  0  0  0
  4 24  1  0  0  0  0
  5  6  1  0  0  0  0
  5 25  1  0  0  0  0
  5 26  1  0  0  0  0
  6  7  1  0  0  0  0
  6 27  1  0  0  0  0
  6 28  1  0  0  0  0
  7  8  1  0  0  0  0
  7 29  1  0  0  0  0
  8  9  1  0  0  0  0
  8 30  1  0  0  0  0
  8 31  1  0  0  0  0
  9 10  1  0  0  0  0
  9 32  1  0  0  0  0
  9 40  1  0  0  0  0
 10 11  1  0  0  0  0
 10 33  1  0  0  0  0
 10 34  1  0  0  0  0
 11 12  1  0  0  0  0
 11 35  1  0  0  0  0
 11 36  1  0  0  0  0
 12 16  1  0  0  0  0
 12 13  1  0  0  0  0
 13 14  2  0  0  0  0
 13 37  1  0  0  0  0
 14 15  1  0  0  0  0
 14 38  1  0  0  0  0
 15 16  2  0  0  0  0
 15 41  1  0  0  0  0
 16 39  1  0  0  0  0
M  CHG  1   9   1
M  CHG  1  15   1
M  END
> <s_m_source_file>
AV-unprocessed.smi

> <i_m_source_file_index>
3193

> <i_lp_mmshare_version>
43012

> <i_f3d_flags>
0

> <s_epik_input>
W0NIM11bQ0BASF0xW0NIMl1bQ0gyXVtDSDJdW0NIMl1bQ0BIXTFbQ0gyXVtOSF1bQ0gyXVtDSDJdbjJbY0hdW2NIXW5bY0hdMg==

> <s_epik_cmdline>
J2VwaWtfcHl0aG9uJywgJy1waCcsICc3LjAnLCAnLXRuJywgJzgnLCAnLW1hJywgJzIwMCcsICctbWV0YWxfYmluZGluZycsICctaW1hZScsICc8aW5maWxlLm1hZT4nLCAnLW9tYWUnLCAnPG91dGZpbGUubWFlPic=

> <r_lp_tautomer_probability>
1

> <r_epik_Ionization_Penalty>
1.50262

> <r_epik_Ionization_Penalty_Charging>
0.00193432

> <r_epik_Ionization_Penalty_Neutral>
1.50068

> <r_epik_State_Penalty>
1.11854

> <r_epik_Charging_Adjusted_Penalty>
1.12048

> <i_epik_Tot_Q>
2

> <i_epik_Tot_abs_Q>
2

> <r_epik_Metal_State_Penalty>
5.11322

> <b_epik_Metal_Only>
0

> <s_lp_Force_Field>
OPLS_2005

> <r_lp_Energy>
27.2728

> <b_lp_Chiralities_Consistent>
1

> <s_lp_Variant>
AV-unprocessed.smi:3193-6

> <Gold.Version>
5.8.1

> <Gold.Id.Protein>
6NUR|6NUR_protein|mol2

> <Gold.PLP.Fitness>
49.0490

> <Gold.PLP.PLP>
-33.2942

> <Gold.PLP.part.hbond>
-2.6901

> <Gold.PLP.part.metal>
0.0000

> <Gold.PLP.part.buried>
-0.3297

> <Gold.PLP.part.nonpolar>
-30.9434

> <Gold.PLP.part.repulsive>
0.4135

> <Gold.PLP.ligand.clash>
0.0000

> <Gold.PLP.ligand.torsion>
0.7022

> <Gold.PLP.Chemscore.Hbond>
4.0000

> <Gold.PLP.Chemscore.CHOScore>
1.6733

> <Gold.PLP.Chemscore.Metal>
0.0000

> <Gold.Chemscore.Hbonds>
donor molecule, donor type, donor heavy atom, donor atom, acceptor molecule, acceptor atom, score
      L1  H     9    32       P1  7948  2.00
      L1  H    15    41       P1  8028  2.00
      L1  C    13    37       P1 10175  0.72
      L1  C    16    39       P1  7957  0.44

> <Gold.PLP.Chemscore.Internal.Correction>
0.1392

> <Gold.Rescore>
     Score         DG    S(hbond)    S(metal)    S(lipo)     H(rot)  DE(clash)    DE(int)     intcor
     14.54     -15.34       2.00        0.00      70.56       1.98       0.05       0.75       ----

> <Gold.Chemscore.Fitness>
14.5378

> <Gold.Chemscore.DG>
-15.3366

> <Gold.Chemscore.ZeroCoef>
-5.4800

> <Gold.Chemscore.Hbond>
1.9950

> <Gold.Chemscore.Metal>
0.0000

> <Gold.Chemscore.Lipo>
70.5588

> <Gold.Chemscore.Internal_Hbond>
0.0000

> <Gold.Chemscore.DEClash>
0.0527

> <Gold.Chemscore.DEInternal>
0.7461

> <Gold.Chemscore.Rot>
1.9774

> <Gold.Chemscore.Internal.Correction>
   9.000000E+99

> <Gold.Chemscore.Hbonds>
donor molecule, donor type, donor heavy atom, donor atom, acceptor molecule, acceptor atom, score
      L1  H     9    32       P1  7948  1.00
      L1  H    15    41       P1  8028  0.92

> <Gold.Chemscore.Hbond.Weighted>
-6.6634

> <Gold.Chemscore.Metal.Weighted>
-0.0000

> <Gold.Chemscore.Lipo.Weighted>
-8.2554

> <Gold.Chemscore.Internal_Hbond.Weighted>
0.0000

> <Gold.Chemscore.DEClash.Weighted>
0.0527

> <Gold.Chemscore.DEInternal.Weighted>
0.7461

> <Gold.Chemscore.Rot.Weighted>
5.0622

> <Gold.Chemscore.Internal.Correction.Weighted>
   9.000000E+99

> <Gold.Protein.RotatedTorsions>
[ 6907 6896 6895 6894 ] final  -29.65 input  -60.11 | X-H torsion
[ 7974 7965 7964 7962 ] final   38.32 input  175.53 | X-H torsion
[ 8008 7997 7996 7995 ] final   -0.06 input   59.86 | X-H torsion
[ 10167 10162 10161 10158 ] final  -35.92 input  -65.29 | X-H torsion
[ 10718 10713 10712 10709 ] final   80.88 input   66.30 | X-H torsion
[ 10763 10752 10751 10750 ] final -128.69 input  -60.55 | X-H torsion
[ 11005 11000 10999 10996 ] final -111.83 input  -57.11 | X-H torsion

> <Gold.Protein.ActiveResidues>
 VAL166  LYS551  ARG553  GLY616  TRP617  ASP618  TYR619  PRO620  LYS621  CYS622 
 ASP623  PHE694  ASN695  SER759  ASP760  ASP761  ALA762  ILE779  LEU786  VAL792 
 PHE793  MET794  SER795  GLU796  ALA797  LYS798  CYS799  TRP800  GLU811  SER814 

> <Gold.Protein.RotatedAtoms>
  151.1163  135.0054  159.8517 H   0  0  0  0  0  0  0  0  0  0  0  0  # atno 6907 bound_to 6896
  152.5446  134.1776  159.8632 H   0  0  0  0  0  0  0  0  0  0  0  0  # atno 6908 bound_to 6896
  151.1830  133.4668  159.2627 H   0  0  0  0  0  0  0  0  0  0  0  0  # atno 6909 bound_to 6896
  146.1071  139.5786  142.9377 H   0  0  0  0  0  0  0  0  0  0  0  0  # atno 7974 bound_to 7965
  154.6624  140.2593  155.7094 H   0  0  0  0  0  0  0  0  0  0  0  0  # atno 8008 bound_to 7997
  156.2624  140.2846  156.1023 H   0  0  0  0  0  0  0  0  0  0  0  0  # atno 8009 bound_to 7997
  155.1288  140.0378  157.2759 H   0  0  0  0  0  0  0  0  0  0  0  0  # atno 8010 bound_to 7997
  140.7154  143.3444  151.2289 H   0  0  0  0  0  0  0  0  0  0  0  0  # atno 10167 bound_to 10162
  157.6818  130.9979  150.2145 H   0  0  0  0  0  0  0  0  0  0  0  0  # atno 10718 bound_to 10713
  154.8757  135.3920  154.3797 H   0  0  0  0  0  0  0  0  0  0  0  0  # atno 10763 bound_to 10752
  153.4546  135.7028  153.6093 H   0  0  0  0  0  0  0  0  0  0  0  0  # atno 10764 bound_to 10752
  153.4618  135.3810  155.2311 H   0  0  0  0  0  0  0  0  0  0  0  0  # atno 10765 bound_to 10752
  141.0711  133.9378  157.2483 H   0  0  0  0  0  0  0  0  0  0  0  0  # atno 11005 bound_to 11000
  145.5739  141.0391  143.2159 LP  0  0  0  0  0  0  0  0  0  0  0  0  # atno 17320 bound_to 7965
  144.7480  139.7270  143.7284 LP  0  0  0  0  0  0  0  0  0  0  0  0  # atno 17321 bound_to 7965
  139.6959  143.9613  152.2882 LP  0  0  0  0  0  0  0  0  0  0  0  0  # atno 17342 bound_to 10162
  139.9290  144.6753  150.8382 LP  0  0  0  0  0  0  0  0  0  0  0  0  # atno 17343 bound_to 10162
  156.2809  130.3733  149.7936 LP  0  0  0  0  0  0  0  0  0  0  0  0  # atno 17370 bound_to 10713
  156.5625  130.8389  151.3333 LP  0  0  0  0  0  0  0  0  0  0  0  0  # atno 17371 bound_to 10713
  139.9524  135.0172  156.9032 LP  0  0  0  0  0  0  0  0  0  0  0  0  # atno 17394 bound_to 11000
  140.5672  134.0478  155.7418 LP  0  0  0  0  0  0  0  0  0  0  0  0  # atno 17395 bound_to 11000

$$$$
