AV-unprocessed.smi:2017|AV-procd|sdf|8168|dock3
  -GOLD-   2272010413D 1   1.00000     0.00000
 Structure written by MMmdl.
 44 45  0  0  0  0  0  0  0  0  2 V2000
  151.2403  135.4862  155.8403 O   0  0  0  0  0  0  0  0  0  0  0  0
  150.6093  136.0453  154.9420 C   0  0  0  0  0  0  0  0  0  0  0  0
  151.0946  137.3778  154.3548 C   0  0  0  0  0  0  0  0  0  0  0  0
  151.3689  138.3934  155.3842 N   0  0  0  0  0  0  0  0  0  0  0  0
  150.2869  139.1590  155.8532 C   0  0  0  0  0  0  0  0  0  0  0  0
  150.4434  140.1074  156.7964 C   0  0  0  0  0  0  0  0  0  0  0  0
  151.7795  140.3320  157.3339 C   0  0  0  0  0  0  0  0  0  0  0  0
  151.9424  141.1976  158.1917 O   0  0  0  0  0  0  0  0  0  0  0  0
  152.7963  139.5599  156.8504 N   0  5  0  0  0  0  0  0  0  0  0  0
  152.6215  138.5970  155.8928 C   0  0  0  0  0  0  0  0  0  0  0  0
  153.5528  137.9091  155.4727 O   0  0  0  0  0  0  0  0  0  0  0  0
  149.4627  135.5623  154.4403 N   0  0  0  0  0  0  0  0  0  0  0  0
  148.8219  134.3214  154.8595 C   0  0  0  0  0  0  0  0  0  0  0  0
  149.1853  133.1533  153.9271 C   0  0  0  0  0  0  0  0  0  0  0  0
  147.9815  132.2643  153.5939 C   0  0  0  0  0  0  0  0  0  0  0  0
  147.7046  132.3550  152.2033 O   0  0  0  0  0  0  0  0  0  0  0  0
  146.3250  132.4770  151.8823 C   0  0  0  0  0  0  0  0  0  0  0  0
  145.7645  131.1466  151.3358 C   0  0  0  0  0  0  0  0  0  0  0  0
  144.3110  131.3050  150.8593 C   0  0  0  0  0  0  0  0  0  0  0  0
  144.1829  132.4258  149.8157 C   0  0  0  0  0  0  0  0  0  0  0  0
  144.7428  133.7518  150.3540 C   0  0  0  0  0  0  0  0  0  0  0  0
  146.1966  133.5890  150.8262 C   0  0  0  0  0  0  0  0  0  0  0  0
  151.9854  137.2116  153.7458 H   0  0  0  0  0  0  0  0  0  0  0  0
  150.3353  137.7371  153.6589 H   0  0  0  0  0  0  0  0  0  0  0  0
  149.3309  138.9250  155.4084 H   0  0  0  0  0  0  0  0  0  0  0  0
  149.6013  140.6849  157.1484 H   0  0  0  0  0  0  0  0  0  0  0  0
  149.0082  136.0869  153.7070 H   0  0  0  0  0  0  0  0  0  0  0  0
  149.1477  134.1026  155.8767 H   0  0  0  0  0  0  0  0  0  0  0  0
  147.7396  134.4549  154.9035 H   0  0  0  0  0  0  0  0  0  0  0  0
  149.5964  133.5462  152.9964 H   0  0  0  0  0  0  0  0  0  0  0  0
  149.9718  132.5469  154.3782 H   0  0  0  0  0  0  0  0  0  0  0  0
  148.1882  131.2358  153.8904 H   0  0  0  0  0  0  0  0  0  0  0  0
  147.1132  132.5997  154.1629 H   0  0  0  0  0  0  0  0  0  0  0  0
  145.7626  132.7799  152.7676 H   0  0  0  0  0  0  0  0  0  0  0  0
  146.3837  130.8024  150.5066 H   0  0  0  0  0  0  0  0  0  0  0  0
  145.8072  130.3677  152.0963 H   0  0  0  0  0  0  0  0  0  0  0  0
  143.9530  130.3645  150.4398 H   0  0  0  0  0  0  0  0  0  0  0  0
  143.6694  131.5263  151.7130 H   0  0  0  0  0  0  0  0  0  0  0  0
  144.7195  132.1439  148.9088 H   0  0  0  0  0  0  0  0  0  0  0  0
  143.1380  132.5515  149.5310 H   0  0  0  0  0  0  0  0  0  0  0  0
  144.6857  134.5203  149.5829 H   0  0  0  0  0  0  0  0  0  0  0  0
  144.1259  134.0994  151.1837 H   0  0  0  0  0  0  0  0  0  0  0  0
  146.5594  134.5326  151.2348 H   0  0  0  0  0  0  0  0  0  0  0  0
  146.8326  133.3584  149.9705 H   0  0  0  0  0  0  0  0  0  0  0  0
  1  2  2  0  0  0  0
  2  3  1  0  0  0  0
  2 12  1  0  0  0  0
  3  4  1  0  0  0  0
  3 23  1  0  0  0  0
  3 24  1  0  0  0  0
  4 10  1  0  0  0  0
  4  5  1  0  0  0  0
  5  6  2  0  0  0  0
  5 25  1  0  0  0  0
  6  7  1  0  0  0  0
  6 26  1  0  0  0  0
  7  8  2  0  0  0  0
  7  9  1  0  0  0  0
  9 10  1  0  0  0  0
 10 11  2  0  0  0  0
 12 13  1  0  0  0  0
 12 27  1  0  0  0  0
 13 14  1  0  0  0  0
 13 28  1  0  0  0  0
 13 29  1  0  0  0  0
 14 15  1  0  0  0  0
 14 30  1  0  0  0  0
 14 31  1  0  0  0  0
 15 16  1  0  0  0  0
 15 32  1  0  0  0  0
 15 33  1  0  0  0  0
 16 17  1  0  0  0  0
 17 22  1  0  0  0  0
 17 18  1  0  0  0  0
 17 34  1  0  0  0  0
 18 19  1  0  0  0  0
 18 35  1  0  0  0  0
 18 36  1  0  0  0  0
 19 20  1  0  0  0  0
 19 37  1  0  0  0  0
 19 38  1  0  0  0  0
 20 21  1  0  0  0  0
 20 39  1  0  0  0  0
 20 40  1  0  0  0  0
 21 22  1  0  0  0  0
 21 41  1  0  0  0  0
 21 42  1  0  0  0  0
 22 43  1  0  0  0  0
 22 44  1  0  0  0  0
M  CHG  1   9  -1
M  END
> <s_m_source_file>
AV-unprocessed.smi

> <i_m_source_file_index>
2017

> <i_lp_mmshare_version>
43012

> <i_f3d_flags>
0

> <s_epik_input>
Tz1jMVtuSF1jKD1PKVtjSF1bY0hdbjFbQ0gyXUMoPU8pW05IXVtDSDJdW0NIMl1bQ0gyXU9bQ0hdMltDSDJdW0NIMl1bQ0gyXVtDSDJdW0NIMl0y

> <s_epik_cmdline>
J2VwaWtfcHl0aG9uJywgJy1waCcsICc3LjAnLCAnLXRuJywgJzgnLCAnLW1hJywgJzIwMCcsICctbWV0YWxfYmluZGluZycsICctaW1hZScsICc8aW5maWxlLm1hZT4nLCAnLW9tYWUnLCAnPG91dGZpbGUubWFlPic=

> <r_lp_tautomer_probability>
0.999537

> <r_epik_Ionization_Penalty>
3.07707

> <r_epik_Ionization_Penalty_Charging>
2.73667e-08

> <r_epik_Ionization_Penalty_Neutral>
3.07707

> <r_epik_State_Penalty>
3.07611

> <r_epik_Charging_Adjusted_Penalty>
3.07611

> <i_epik_Tot_Q>
-1

> <i_epik_Tot_abs_Q>
1

> <r_epik_Metal_State_Penalty>
0.459703

> <b_epik_Metal_Only>
1

> <s_lp_Force_Field>
OPLS_2005

> <r_lp_Energy>
18.9634

> <b_lp_Chiralities_Consistent>
1

> <s_lp_Variant>
AV-unprocessed.smi:2017-2

> <Gold.Version>
5.8.1

> <Gold.Id.Protein>
6NUR|6NUR_protein|mol2

> <Gold.PLP.Fitness>
46.6519

> <Gold.PLP.PLP>
-39.8542

> <Gold.PLP.part.hbond>
-4.7651

> <Gold.PLP.part.metal>
0.0000

> <Gold.PLP.part.buried>
-4.6490

> <Gold.PLP.part.nonpolar>
-33.3165

> <Gold.PLP.part.repulsive>
2.2539

> <Gold.PLP.ligand.clash>
0.0000

> <Gold.PLP.ligand.torsion>
2.1893

> <Gold.PLP.Chemscore.Hbond>
3.6560

> <Gold.PLP.Chemscore.CHOScore>
0.0000

> <Gold.PLP.Chemscore.Metal>
0.0000

> <Gold.Chemscore.Hbonds>
donor molecule, donor type, donor heavy atom, donor atom, acceptor molecule, acceptor atom, score
      L1  H    12    27       P1  7948  0.80
      P1  H  7997  8008       L1     9  2.00
      P1  H 10752 10765       L1     1  0.64

> <Gold.PLP.Chemscore.Internal.Correction>
0.2084

> <Gold.Rescore>
     Score         DG    S(hbond)    S(metal)    S(lipo)     H(rot)  DE(clash)    DE(int)     intcor
     12.35     -15.73       2.08        0.00      86.33       2.66       1.43       1.95       ----

> <Gold.Chemscore.Fitness>
12.3503

> <Gold.Chemscore.DG>
-15.7308

> <Gold.Chemscore.ZeroCoef>
-5.4800

> <Gold.Chemscore.Hbond>
2.0817

> <Gold.Chemscore.Metal>
0.0000

> <Gold.Chemscore.Lipo>
86.3277

> <Gold.Chemscore.Internal_Hbond>
0.0000

> <Gold.Chemscore.DEClash>
1.4328

> <Gold.Chemscore.DEInternal>
1.9477

> <Gold.Chemscore.Rot>
2.6572

> <Gold.Chemscore.Internal.Correction>
   9.000000E+99

> <Gold.Chemscore.Hbonds>
donor molecule, donor type, donor heavy atom, donor atom, acceptor molecule, acceptor atom, score
      L1  H    12    27       P1  7948  0.77
      P1  H  7997  8008       L1     9  0.35
      P1  H 10752 10765       L1     1  0.05

> <Gold.Chemscore.Hbond.Weighted>
-6.9529

> <Gold.Chemscore.Metal.Weighted>
-0.0000

> <Gold.Chemscore.Lipo.Weighted>
-10.1003

> <Gold.Chemscore.Internal_Hbond.Weighted>
0.0000

> <Gold.Chemscore.DEClash.Weighted>
1.4328

> <Gold.Chemscore.DEInternal.Weighted>
1.9477

> <Gold.Chemscore.Rot.Weighted>
6.8024

> <Gold.Chemscore.Internal.Correction.Weighted>
   9.000000E+99

> <Gold.Protein.RotatedTorsions>
[ 6907 6896 6895 6894 ] final -173.64 input  -60.11 | X-H torsion
[ 7974 7965 7964 7962 ] final  135.76 input  175.53 | X-H torsion
[ 8008 7997 7996 7995 ] final  -51.92 input   59.86 | X-H torsion
[ 10167 10162 10161 10158 ] final -172.79 input  -65.29 | X-H torsion
[ 10718 10713 10712 10709 ] final -148.83 input   66.30 | X-H torsion
[ 10763 10752 10751 10750 ] final -167.99 input  -60.55 | X-H torsion
[ 11005 11000 10999 10996 ] final   99.05 input  -57.11 | X-H torsion

> <Gold.Protein.ActiveResidues>
 VAL166  LYS551  ARG553  GLY616  TRP617  ASP618  TYR619  PRO620  LYS621  CYS622 
 ASP623  PHE694  ASN695  SER759  ASP760  ASP761  ALA762  ILE779  LEU786  VAL792 
 PHE793  MET794  SER795  GLU796  ALA797  LYS798  CYS799  TRP800  GLU811  SER814 

> <Gold.Protein.RotatedAtoms>
  151.5595  133.3405  159.2968 H   0  0  0  0  0  0  0  0  0  0  0  0  # atno 6907 bound_to 6896
  150.8431  134.7733  159.6960 H   0  0  0  0  0  0  0  0  0  0  0  0  # atno 6908 bound_to 6896
  152.4494  134.5432  159.9897 H   0  0  0  0  0  0  0  0  0  0  0  0  # atno 6909 bound_to 6896
  144.9631  139.4688  143.5470 H   0  0  0  0  0  0  0  0  0  0  0  0  # atno 7974 bound_to 7965
  154.4094  140.1236  156.4908 H   0  0  0  0  0  0  0  0  0  0  0  0  # atno 8008 bound_to 7997
  155.6992  140.3495  155.4906 H   0  0  0  0  0  0  0  0  0  0  0  0  # atno 8009 bound_to 7997
  155.9400  140.1085  157.1053 H   0  0  0  0  0  0  0  0  0  0  0  0  # atno 8010 bound_to 7997
  139.5725  144.1609  152.1403 H   0  0  0  0  0  0  0  0  0  0  0  0  # atno 10167 bound_to 10162
  156.4253  130.8049  151.2273 H   0  0  0  0  0  0  0  0  0  0  0  0  # atno 10718 bound_to 10713
  154.6675  135.2934  154.9785 H   0  0  0  0  0  0  0  0  0  0  0  0  # atno 10763 bound_to 10752
  154.0824  135.6602  153.4844 H   0  0  0  0  0  0  0  0  0  0  0  0  # atno 10764 bound_to 10752
  153.0466  135.5200  154.7656 H   0  0  0  0  0  0  0  0  0  0  0  0  # atno 10765 bound_to 10752
  139.8771  134.9078  156.4548 H   0  0  0  0  0  0  0  0  0  0  0  0  # atno 11005 bound_to 11000
  146.3359  139.8794  142.8827 LP  0  0  0  0  0  0  0  0  0  0  0  0  # atno 17320 bound_to 7965
  145.2670  141.0096  143.3794 LP  0  0  0  0  0  0  0  0  0  0  0  0  # atno 17321 bound_to 7965
  140.1145  144.5428  150.6903 LP  0  0  0  0  0  0  0  0  0  0  0  0  # atno 17342 bound_to 10162
  140.7009  143.2434  151.4868 LP  0  0  0  0  0  0  0  0  0  0  0  0  # atno 17343 bound_to 10162
  157.7508  131.0215  150.3754 LP  0  0  0  0  0  0  0  0  0  0  0  0  # atno 17370 bound_to 10713
  156.4080  130.3928  149.6912 LP  0  0  0  0  0  0  0  0  0  0  0  0  # atno 17371 bound_to 10713
  140.8906  133.7851  155.9568 LP  0  0  0  0  0  0  0  0  0  0  0  0  # atno 17394 bound_to 11000
  140.8757  134.2672  157.5169 LP  0  0  0  0  0  0  0  0  0  0  0  0  # atno 17395 bound_to 11000

$$$$
