AV-unprocessed.smi:53|AV-procd|sdf|520|dock9
  -GOLD-   2262016393D 1   1.00000     0.00000
 Structure written by MMmdl.
 30 31  0  0  0  0  0  0  0  0  1 V2000
  155.5354  138.4101  159.7236 N   0  0  0  0  0  0  0  0  0  0  0  0
  154.4852  139.2130  159.5012 C   0  0  0  0  0  0  0  0  0  0  0  0
  154.2061  140.3146  160.3946 C   0  0  0  0  0  0  0  0  0  0  0  0
  153.1279  141.0759  160.1059 C   0  0  0  0  0  0  0  0  0  0  0  0
  152.3105  140.8174  159.0141 N   0  0  0  0  0  0  0  0  0  0  0  0
  151.1160  141.6926  158.7068 C   0  0  1  0  0  0  0  0  0  0  0  0
  151.0109  142.6731  159.6977 O   0  0  0  0  0  0  0  0  0  0  0  0
  150.8423  143.9566  159.1039 C   0  0  1  0  0  0  0  0  0  0  0  0
  151.3902  145.0418  160.0437 C   0  0  0  0  0  0  0  0  0  0  0  0
  150.9949  144.7770  161.3727 O   0  0  0  0  0  0  0  0  0  0  0  0
  151.6254  143.8249  157.7969 C   0  0  2  0  0  0  0  0  0  0  0  0
  151.2699  144.8003  156.8350 O   0  0  0  0  0  0  0  0  0  0  0  0
  151.3077  142.4007  157.3556 C   0  0  2  0  0  0  0  0  0  0  0  0
  150.1329  142.3244  156.5679 O   0  0  0  0  0  0  0  0  0  0  0  0
  152.6227  139.7452  158.1442 C   0  0  0  0  0  0  0  0  0  0  0  0
  151.9514  139.5040  157.1418 O   0  0  0  0  0  0  0  0  0  0  0  0
  153.7172  138.9829  158.4539 N   0  0  0  0  0  0  0  0  0  0  0  0
  150.2323  141.0533  158.7576 H   0  0  0  0  0  0  0  0  0  0  0  0
  149.7848  144.1166  158.8836 H   0  0  0  0  0  0  0  0  0  0  0  0
  152.6941  143.9035  158.0016 H   0  0  0  0  0  0  0  0  0  0  0  0
  152.1294  141.9581  156.7905 H   0  0  0  0  0  0  0  0  0  0  0  0
  155.7299  137.6434  159.0959 H   0  0  0  0  0  0  0  0  0  0  0  0
  156.1345  138.5775  160.5190 H   0  0  0  0  0  0  0  0  0  0  0  0
  154.8106  140.5462  161.2600 H   0  0  0  0  0  0  0  0  0  0  0  0
  152.9129  141.9093  160.7583 H   0  0  0  0  0  0  0  0  0  0  0  0
  152.4762  145.1152  159.9763 H   0  0  0  0  0  0  0  0  0  0  0  0
  150.9823  146.0154  159.7705 H   0  0  0  0  0  0  0  0  0  0  0  0
  150.7382  143.8696  161.4353 H   0  0  0  0  0  0  0  0  0  0  0  0
  150.5096  144.4939  156.3642 H   0  0  0  0  0  0  0  0  0  0  0  0
  149.9987  143.1608  156.1490 H   0  0  0  0  0  0  0  0  0  0  0  0
  1  2  1  0  0  0  0
  1 22  1  0  0  0  0
  1 23  1  0  0  0  0
  2 17  2  0  0  0  0
  2  3  1  0  0  0  0
  3  4  2  0  0  0  0
  3 24  1  0  0  0  0
  4  5  1  0  0  0  0
  4 25  1  0  0  0  0
  5  6  1  0  0  0  0
  5 15  1  0  0  0  0
  6 18  1  0  0  0  0
  6 13  1  0  0  0  0
  6  7  1  0  0  0  0
  7  8  1  0  0  0  0
  8 19  1  0  0  0  0
  8  9  1  0  0  0  0
  8 11  1  0  0  0  0
  9 10  1  0  0  0  0
  9 26  1  0  0  0  0
  9 27  1  0  0  0  0
 10 28  1  0  0  0  0
 11 20  1  0  0  0  0
 11 12  1  0  0  0  0
 11 13  1  0  0  0  0
 12 29  1  0  0  0  0
 13 21  1  0  0  0  0
 13 14  1  0  0  0  0
 14 30  1  0  0  0  0
 15 16  2  0  0  0  0
 15 17  1  0  0  0  0
M  END
> <s_m_source_file>
AV-unprocessed.smi

> <i_m_source_file_index>
53

> <i_lp_mmshare_version>
43012

> <i_f3d_flags>
0

> <s_epik_input>
W05IMl1jMVtjSF1bY0hdbihjKD1PKW4xKVtDQEBIXTJPW0NASF0oW0NIMl1bT0hdKVtDQEBIXShbT0hdKVtDQEBIXTJbT0hd

> <s_epik_cmdline>
J2VwaWtfcHl0aG9uJywgJy1waCcsICc3LjAnLCAnLXRuJywgJzgnLCAnLW1hJywgJzIwMCcsICctbWV0YWxfYmluZGluZycsICctaW1hZScsICc8aW5maWxlLm1hZT4nLCAnLW9tYWUnLCAnPG91dGZpbGUubWFlPic=

> <r_lp_tautomer_probability>
0.99996

> <r_epik_Ionization_Penalty>
0.00069087

> <r_epik_Ionization_Penalty_Charging>
2.61959e-08

> <r_epik_Ionization_Penalty_Neutral>
0.000690844

> <r_epik_State_Penalty>
1.15523e-05

> <r_epik_Charging_Adjusted_Penalty>
1.15785e-05

> <i_epik_Tot_Q>
0

> <i_epik_Tot_abs_Q>
0

> <r_epik_Metal_State_Penalty>
-0

> <b_epik_Metal_Only>
0

> <s_epik_Chemistry_Notes>
This compound contains an acetal/aminal-like group ( X-CH(R)-Y where X, Y are N, S, or O) that may be acid/base labile, releasing an aldehyde.

> <s_lp_Force_Field>
OPLS_2005

> <r_lp_Energy>
33.3856

> <b_lp_Chiralities_Consistent>
1

> <s_lp_Variant>
AV-unprocessed.smi:53-8

> <Gold.Version>
5.8.1

> <Gold.Id.Protein>
6NUR|6NUR_protein|mol2

> <Gold.PLP.Fitness>
35.9871

> <Gold.PLP.PLP>
-28.8320

> <Gold.PLP.part.hbond>
-5.6744

> <Gold.PLP.part.metal>
0.0000

> <Gold.PLP.part.buried>
-1.9079

> <Gold.PLP.part.nonpolar>
-21.1006

> <Gold.PLP.part.repulsive>
0.0764

> <Gold.PLP.ligand.clash>
0.0000

> <Gold.PLP.ligand.torsion>
0.1958

> <Gold.PLP.Chemscore.Hbond>
2.5100

> <Gold.PLP.Chemscore.CHOScore>
0.0000

> <Gold.PLP.Chemscore.Metal>
0.0000

> <Gold.Chemscore.Hbonds>
donor molecule, donor type, donor heavy atom, donor atom, acceptor molecule, acceptor atom, score
      L1  H    12    29       P1  8028  1.00
      L1  H    14    30       P1  8028  1.00
      P1  H  7997  8008       L1    17  0.36

> <Gold.PLP.Chemscore.Internal.Correction>
0.0166

> <Gold.Rescore>
     Score         DG    S(hbond)    S(metal)    S(lipo)     H(rot)  DE(clash)    DE(int)     intcor
      7.46      -9.36       1.97        0.00      58.02       3.71       1.45       0.45       ----

> <Gold.Chemscore.Fitness>
7.4580

> <Gold.Chemscore.DG>
-9.3576

> <Gold.Chemscore.ZeroCoef>
-5.4800

> <Gold.Chemscore.Hbond>
1.9716

> <Gold.Chemscore.Metal>
0.0000

> <Gold.Chemscore.Lipo>
58.0243

> <Gold.Chemscore.Internal_Hbond>
0.0000

> <Gold.Chemscore.DEClash>
1.4486

> <Gold.Chemscore.DEInternal>
0.4510

> <Gold.Chemscore.Rot>
3.7095

> <Gold.Chemscore.Internal.Correction>
   9.000000E+99

> <Gold.Chemscore.Hbonds>
donor molecule, donor type, donor heavy atom, donor atom, acceptor molecule, acceptor atom, score
      L1  H    12    29       P1  8028  0.95
      L1  H    14    30       P1  8028  0.95

> <Gold.Chemscore.Hbond.Weighted>
-6.5851

> <Gold.Chemscore.Metal.Weighted>
-0.0000

> <Gold.Chemscore.Lipo.Weighted>
-6.7888

> <Gold.Chemscore.Internal_Hbond.Weighted>
0.0000

> <Gold.Chemscore.DEClash.Weighted>
1.4486

> <Gold.Chemscore.DEInternal.Weighted>
0.4510

> <Gold.Chemscore.Rot.Weighted>
9.4964

> <Gold.Chemscore.Internal.Correction.Weighted>
   9.000000E+99

> <Gold.Protein.RotatedTorsions>
[ 6907 6896 6895 6894 ] final -114.53 input  -60.11 | X-H torsion
[ 7974 7965 7964 7962 ] final  -60.84 input  175.53 | X-H torsion
[ 8008 7997 7996 7995 ] final  -95.76 input   59.86 | X-H torsion
[ 10167 10162 10161 10158 ] final   16.46 input  -65.29 | X-H torsion
[ 10718 10713 10712 10709 ] final   91.67 input   66.30 | X-H torsion
[ 10763 10752 10751 10750 ] final  106.78 input  -60.55 | X-H torsion
[ 11005 11000 10999 10996 ] final  156.03 input  -57.11 | X-H torsion

> <Gold.Protein.ActiveResidues>
 VAL166  LYS551  ARG553  GLY616  TRP617  ASP618  TYR619  PRO620  LYS621  CYS622 
 ASP623  PHE694  ASN695  SER759  ASP760  ASP761  ALA762  ILE779  LEU786  VAL792 
 PHE793  MET794  SER795  GLU796  ALA797  LYS798  CYS799  TRP800  GLU811  SER814 

> <Gold.Protein.RotatedAtoms>
  150.7909  133.8787  159.3279 H   0  0  0  0  0  0  0  0  0  0  0  0  # atno 6907 bound_to 6896
  151.6625  135.0985  160.0192 H   0  0  0  0  0  0  0  0  0  0  0  0  # atno 6908 bound_to 6896
  152.3983  133.6741  159.6330 H   0  0  0  0  0  0  0  0  0  0  0  0  # atno 6909 bound_to 6896
  145.8107  140.8600  143.0183 H   0  0  0  0  0  0  0  0  0  0  0  0  # atno 7974 bound_to 7965
  154.7656  140.0477  157.1009 H   0  0  0  0  0  0  0  0  0  0  0  0  # atno 8008 bound_to 7997
  154.9884  140.3110  155.4897 H   0  0  0  0  0  0  0  0  0  0  0  0  # atno 8009 bound_to 7997
  156.2912  140.2223  156.4987 H   0  0  0  0  0  0  0  0  0  0  0  0  # atno 8010 bound_to 7997
  140.5795  143.9007  150.6778 H   0  0  0  0  0  0  0  0  0  0  0  0  # atno 10167 bound_to 10162
  157.6960  131.0416  150.3765 H   0  0  0  0  0  0  0  0  0  0  0  0  # atno 10718 bound_to 10713
  153.3976  135.3866  155.1966 H   0  0  0  0  0  0  0  0  0  0  0  0  # atno 10763 bound_to 10752
  154.8726  135.3763  154.4658 H   0  0  0  0  0  0  0  0  0  0  0  0  # atno 10764 bound_to 10752
  153.5152  135.7087  153.5822 H   0  0  0  0  0  0  0  0  0  0  0  0  # atno 10765 bound_to 10752
  140.1637  134.8592  157.2605 H   0  0  0  0  0  0  0  0  0  0  0  0  # atno 11005 bound_to 11000
  144.6758  140.0391  143.7481 LP  0  0  0  0  0  0  0  0  0  0  0  0  # atno 17320 bound_to 7965
  145.9780  139.2920  143.1059 LP  0  0  0  0  0  0  0  0  0  0  0  0  # atno 17321 bound_to 7965
  140.2503  143.3598  152.1411 LP  0  0  0  0  0  0  0  0  0  0  0  0  # atno 17342 bound_to 10162
  139.5162  144.6974  151.5592 LP  0  0  0  0  0  0  0  0  0  0  0  0  # atno 17343 bound_to 10162
  156.4184  130.3948  149.6842 LP  0  0  0  0  0  0  0  0  0  0  0  0  # atno 17370 bound_to 10713
  156.4102  130.7718  151.2731 LP  0  0  0  0  0  0  0  0  0  0  0  0  # atno 17371 bound_to 10713
  140.2459  134.3740  155.7461 LP  0  0  0  0  0  0  0  0  0  0  0  0  # atno 17394 bound_to 11000
  141.2212  133.7290  156.8861 LP  0  0  0  0  0  0  0  0  0  0  0  0  # atno 17395 bound_to 11000

$$$$
