AV-unprocessed.smi:1298|AV-procd|sdf|5417|dock1
  -GOLD-   22720 4573D 1   1.00000     0.00000
 Structure written by MMmdl.
 30 31  0  0  0  0  0  0  0  0  1 V2000
  151.7507  145.4656  160.0589 C   0  0  0  0  0  0  0  0  0  0  0  0
  152.2948  144.2445  159.9490 C   0  0  0  0  0  0  0  0  0  0  0  0
  152.8021  143.3339  161.3262 Cl  0  0  0  0  0  0  0  0  0  0  0  0
  152.5173  143.4997  158.6494 C   0  0  0  0  0  0  0  0  0  0  0  0
  150.9495  143.0791  157.8333 S   0  0  0  0  0  0  0  0  0  0  0  0
  151.3462  141.4776  157.1940 C   0  0  0  0  0  0  0  0  0  0  0  0
  152.3052  140.6829  157.6807 N   0  0  0  0  0  0  0  0  0  0  0  0
  152.2710  139.5407  156.9141 N   0  0  0  0  0  0  0  0  0  0  0  0
  151.3069  139.7482  156.0158 C   0  0  0  0  0  0  0  0  0  0  0  0
  150.8997  138.7333  154.9948 C   0  0  0  0  0  0  0  0  0  0  0  0
  151.3993  137.3067  155.0658 C   0  0  0  0  0  0  0  0  0  0  0  0
  151.8853  138.2174  153.9692 C   0  0  0  0  0  0  0  0  0  0  0  0
  150.6841  140.9379  156.1479 N   0  0  0  0  0  0  0  0  0  0  0  0
  149.5735  141.4831  155.3770 C   0  0  0  0  0  0  0  0  0  0  0  0
  148.4002  140.5020  155.3307 C   0  0  0  0  0  0  0  0  0  0  0  0
  148.0718  140.0009  154.1372 N   0  0  0  0  0  0  0  0  0  0  0  0
  147.8010  140.1956  156.3592 O   0  0  0  0  0  0  0  0  0  0  0  0
  151.6161  145.9315  161.0241 H   0  0  0  0  0  0  0  0  0  0  0  0
  151.4336  146.0157  159.1850 H   0  0  0  0  0  0  0  0  0  0  0  0
  153.1259  144.1079  157.9790 H   0  0  0  0  0  0  0  0  0  0  0  0
  153.0757  142.5851  158.8538 H   0  0  0  0  0  0  0  0  0  0  0  0
  149.8711  138.8967  154.6788 H   0  0  0  0  0  0  0  0  0  0  0  0
  152.1056  137.0524  155.8539 H   0  0  0  0  0  0  0  0  0  0  0  0
  150.7021  136.5175  154.7924 H   0  0  0  0  0  0  0  0  0  0  0  0
  151.5132  138.0378  152.9627 H   0  0  0  0  0  0  0  0  0  0  0  0
  152.9130  138.5703  154.0310 H   0  0  0  0  0  0  0  0  0  0  0  0
  149.2438  142.4230  155.8195 H   0  0  0  0  0  0  0  0  0  0  0  0
  149.9168  141.7244  154.3709 H   0  0  0  0  0  0  0  0  0  0  0  0
  147.3068  139.3473  154.0557 H   0  0  0  0  0  0  0  0  0  0  0  0
  148.5946  140.2769  153.3184 H   0  0  0  0  0  0  0  0  0  0  0  0
  1  2  2  0  0  0  0
  1 18  1  0  0  0  0
  1 19  1  0  0  0  0
  2  3  1  0  0  0  0
  2  4  1  0  0  0  0
  4  5  1  0  0  0  0
  4 20  1  0  0  0  0
  4 21  1  0  0  0  0
  5  6  1  0  0  0  0
  6 13  1  0  0  0  0
  6  7  2  0  0  0  0
  7  8  1  0  0  0  0
  8  9  2  0  0  0  0
  9 10  1  0  0  0  0
  9 13  1  0  0  0  0
 10 12  1  0  0  0  0
 10 11  1  0  0  0  0
 10 22  1  0  0  0  0
 11 12  1  0  0  0  0
 11 23  1  0  0  0  0
 11 24  1  0  0  0  0
 12 25  1  0  0  0  0
 12 26  1  0  0  0  0
 13 14  1  0  0  0  0
 14 15  1  0  0  0  0
 14 27  1  0  0  0  0
 14 28  1  0  0  0  0
 15 16  1  0  0  0  0
 15 17  2  0  0  0  0
 16 29  1  0  0  0  0
 16 30  1  0  0  0  0
M  END
> <s_m_source_file>
AV-unprocessed.smi

> <i_m_source_file_index>
1298

> <i_lp_mmshare_version>
43012

> <i_f3d_flags>
0

> <s_epik_input>
W0NIMl09QyhDbClbQ0gyXVNjMW5uYyhbQ0hdMltDSDJdW0NIMl0yKW4xW0NIMl1DKD1PKVtOSDJd

> <s_epik_cmdline>
J2VwaWtfcHl0aG9uJywgJy1waCcsICc3LjAnLCAnLXRuJywgJzgnLCAnLW1hJywgJzIwMCcsICctbWV0YWxfYmluZGluZycsICctaW1hZScsICc8aW5maWxlLm1hZT4nLCAnLW9tYWUnLCAnPG91dGZpbGUubWFlPic=

> <r_lp_tautomer_probability>
1

> <r_epik_Ionization_Penalty>
2.01117e-07

> <r_epik_Ionization_Penalty_Charging>
0

> <r_epik_Ionization_Penalty_Neutral>
2.01117e-07

> <r_epik_State_Penalty>
-0

> <r_epik_Charging_Adjusted_Penalty>
0

> <i_epik_Tot_Q>
0

> <i_epik_Tot_abs_Q>
0

> <r_epik_Metal_State_Penalty>
-0

> <b_epik_Metal_Only>
0

> <s_lp_Force_Field>
OPLS_2005

> <r_lp_Energy>
3.32617

> <b_lp_Chiralities_Consistent>
1

> <s_lp_Variant>
AV-unprocessed.smi:1298-1

> <Gold.Version>
5.8.1

> <Gold.Id.Protein>
6NUR|6NUR_protein|mol2

> <Gold.PLP.Fitness>
41.1901

> <Gold.PLP.PLP>
-39.5455

> <Gold.PLP.part.hbond>
-1.0000

> <Gold.PLP.part.metal>
0.0000

> <Gold.PLP.part.buried>
-4.6272

> <Gold.PLP.part.nonpolar>
-33.9984

> <Gold.PLP.part.repulsive>
0.1401

> <Gold.PLP.ligand.clash>
0.0000

> <Gold.PLP.ligand.torsion>
0.8225

> <Gold.PLP.Chemscore.Hbond>
1.0219

> <Gold.PLP.Chemscore.CHOScore>
0.0000

> <Gold.PLP.Chemscore.Metal>
0.0000

> <Gold.Chemscore.Hbonds>
donor molecule, donor type, donor heavy atom, donor atom, acceptor molecule, acceptor atom, score
      L1  H    16    30       P1  7957  0.10
      P1  H  7997  8008       L1     8  0.06

> <Gold.PLP.Chemscore.Internal.Correction>
0.2237

> <Gold.Rescore>
     Score         DG    S(hbond)    S(metal)    S(lipo)     H(rot)  DE(clash)    DE(int)     intcor
     11.73     -12.58       0.90        0.00      91.81       2.60       0.04       0.81       ----

> <Gold.Chemscore.Fitness>
11.7285

> <Gold.Chemscore.DG>
-12.5792

> <Gold.Chemscore.ZeroCoef>
-5.4800

> <Gold.Chemscore.Hbond>
0.9013

> <Gold.Chemscore.Metal>
0.0000

> <Gold.Chemscore.Lipo>
91.8149

> <Gold.Chemscore.Internal_Hbond>
0.0000

> <Gold.Chemscore.DEClash>
0.0419

> <Gold.Chemscore.DEInternal>
0.8089

> <Gold.Chemscore.Rot>
2.5990

> <Gold.Chemscore.Internal.Correction>
   9.000000E+99

> <Gold.Chemscore.Hbonds>
donor molecule, donor type, donor heavy atom, donor atom, acceptor molecule, acceptor atom, score
      L1  H    16    30       P1  7957  0.13

> <Gold.Chemscore.Hbond.Weighted>
-3.0103

> <Gold.Chemscore.Metal.Weighted>
-0.0000

> <Gold.Chemscore.Lipo.Weighted>
-10.7423

> <Gold.Chemscore.Internal_Hbond.Weighted>
0.0000

> <Gold.Chemscore.DEClash.Weighted>
0.0419

> <Gold.Chemscore.DEInternal.Weighted>
0.8089

> <Gold.Chemscore.Rot.Weighted>
6.6534

> <Gold.Chemscore.Internal.Correction.Weighted>
   9.000000E+99

> <Gold.Protein.RotatedTorsions>
[ 6907 6896 6895 6894 ] final   47.34 input  -60.11 | X-H torsion
[ 7974 7965 7964 7962 ] final   79.44 input  175.53 | X-H torsion
[ 8008 7997 7996 7995 ] final  -51.22 input   59.86 | X-H torsion
[ 10167 10162 10161 10158 ] final -121.36 input  -65.29 | X-H torsion
[ 10718 10713 10712 10709 ] final  -40.68 input   66.30 | X-H torsion
[ 10763 10752 10751 10750 ] final   62.26 input  -60.55 | X-H torsion
[ 11005 11000 10999 10996 ] final  -24.77 input  -57.11 | X-H torsion

> <Gold.Protein.ActiveResidues>
 VAL166  LYS551  ARG553  GLY616  TRP617  ASP618  TYR619  PRO620  LYS621  CYS622 
 ASP623  PHE694  ASN695  SER759  ASP760  ASP761  ALA762  ILE779  LEU786  VAL792 
 PHE793  MET794  SER795  GLU796  ALA797  LYS798  CYS799  TRP800  GLU811  SER814 

> <Gold.Protein.RotatedAtoms>
  152.2669  134.7975  160.0420 H   0  0  0  0  0  0  0  0  0  0  0  0  # atno 6907 bound_to 6896
  151.8601  133.3450  159.3709 H   0  0  0  0  0  0  0  0  0  0  0  0  # atno 6908 bound_to 6896
  150.7137  134.5142  159.5666 H   0  0  0  0  0  0  0  0  0  0  0  0  # atno 6909 bound_to 6896
  145.6641  139.2479  143.1905 H   0  0  0  0  0  0  0  0  0  0  0  0  # atno 7974 bound_to 7965
  154.4078  140.1253  156.4793 H   0  0  0  0  0  0  0  0  0  0  0  0  # atno 8008 bound_to 7997
  155.7101  140.3494  155.4950 H   0  0  0  0  0  0  0  0  0  0  0  0  # atno 8009 bound_to 7997
  155.9308  140.1069  157.1123 H   0  0  0  0  0  0  0  0  0  0  0  0  # atno 8010 bound_to 7997
  140.0258  143.5298  152.2199 H   0  0  0  0  0  0  0  0  0  0  0  0  # atno 10167 bound_to 10162
  156.2787  130.4214  149.8360 H   0  0  0  0  0  0  0  0  0  0  0  0  # atno 10718 bound_to 10713
  152.9977  135.5471  154.6165 H   0  0  0  0  0  0  0  0  0  0  0  0  # atno 10763 bound_to 10752
  154.5474  135.2824  155.1042 H   0  0  0  0  0  0  0  0  0  0  0  0  # atno 10764 bound_to 10752
  154.2296  135.6436  153.5223 H   0  0  0  0  0  0  0  0  0  0  0  0  # atno 10765 bound_to 10752
  140.8876  133.7611  156.0380 H   0  0  0  0  0  0  0  0  0  0  0  0  # atno 11005 bound_to 11000
  146.1100  140.7440  142.9508 LP  0  0  0  0  0  0  0  0  0  0  0  0  # atno 17320 bound_to 7965
  144.7079  140.3924  143.7104 LP  0  0  0  0  0  0  0  0  0  0  0  0  # atno 17321 bound_to 7965
  139.6109  144.7608  151.2954 LP  0  0  0  0  0  0  0  0  0  0  0  0  # atno 17342 bound_to 10162
  140.7323  143.6827  150.7987 LP  0  0  0  0  0  0  0  0  0  0  0  0  # atno 17343 bound_to 10162
  156.5815  130.8467  151.3384 LP  0  0  0  0  0  0  0  0  0  0  0  0  # atno 17370 bound_to 10713
  157.7307  130.9690  150.1848 LP  0  0  0  0  0  0  0  0  0  0  0  0  # atno 17371 bound_to 10713
  140.8386  134.3093  157.5322 LP  0  0  0  0  0  0  0  0  0  0  0  0  # atno 17394 bound_to 11000
  139.8726  134.9403  156.3767 LP  0  0  0  0  0  0  0  0  0  0  0  0  # atno 17395 bound_to 11000

$$$$
