AV-unprocessed.smi:1165|AV-procd|sdf|4932|dock1
  -GOLD-   22720 3513D 1   1.00000     0.00000
 Structure written by MMmdl.
 40 41  0  0  0  0  0  0  0  0  2 V2000
  153.0272  143.1168  162.4496 C   0  0  0  0  0  0  0  0  0  0  0  0
  152.8969  142.8300  160.9497 C   0  0  1  0  0  0  0  0  0  0  0  0
  152.9412  141.3217  160.6441 C   0  0  0  0  0  0  0  0  0  0  0  0
  152.6896  141.0535  159.2185 N   0  0  0  0  0  0  0  0  0  0  0  0
  152.9374  139.4199  158.6836 S   0  0  0  0  0  0  0  0  0  0  0  0
  152.1237  138.5627  159.5609 O   0  0  0  0  0  0  0  0  0  0  0  0
  152.6209  139.4213  157.2456 O   0  0  0  0  0  0  0  0  0  0  0  0
  154.5220  139.3241  159.0208 N   0  5  0  0  0  0  0  0  0  0  0  0
  154.9500  138.7399  160.2823 C   0  0  0  0  0  0  0  0  0  0  0  0
  154.6978  137.2143  160.2919 C   0  0  0  0  0  0  0  0  0  0  0  0
  154.3768  136.6170  161.6581 C   0  0  0  0  0  0  0  0  0  0  0  0
  154.0212  137.4352  162.7528 C   0  0  0  0  0  0  0  0  0  0  0  0
  153.7295  136.8285  163.9893 C   0  0  0  0  0  0  0  0  0  0  0  0
  153.8082  135.4248  164.0819 C   0  0  0  0  0  0  0  0  0  0  0  0
  154.1580  134.6304  163.0480 N   0  0  0  0  0  0  0  0  0  0  0  0
  154.4361  135.2209  161.8661 C   0  0  0  0  0  0  0  0  0  0  0  0
  151.5016  141.7613  158.7009 C   0  0  0  0  0  0  0  0  0  0  0  0
  151.5113  143.2485  159.0952 C   0  0  1  0  0  0  0  0  0  0  0  0
  150.2132  143.9557  158.6907 C   0  0  0  0  0  0  0  0  0  0  0  0
  151.6621  143.3695  160.5021 O   0  0  0  0  0  0  0  0  0  0  0  0
  153.9706  142.7354  162.8413 H   0  0  0  0  0  0  0  0  0  0  0  0
  152.2182  142.6510  163.0125 H   0  0  0  0  0  0  0  0  0  0  0  0
  152.9953  144.1888  162.6449 H   0  0  0  0  0  0  0  0  0  0  0  0
  153.7171  143.3311  160.4324 H   0  0  0  0  0  0  0  0  0  0  0  0
  153.9154  140.9229  160.9265 H   0  0  0  0  0  0  0  0  0  0  0  0
  152.1939  140.7911  161.2356 H   0  0  0  0  0  0  0  0  0  0  0  0
  156.0140  138.9118  160.4453 H   0  0  0  0  0  0  0  0  0  0  0  0
  154.4502  139.1914  161.1401 H   0  0  0  0  0  0  0  0  0  0  0  0
  153.8882  136.9729  159.6017 H   0  0  0  0  0  0  0  0  0  0  0  0
  155.5799  136.7065  159.9011 H   0  0  0  0  0  0  0  0  0  0  0  0
  153.9654  138.5083  162.6445 H   0  0  0  0  0  0  0  0  0  0  0  0
  153.4483  137.4246  164.8446 H   0  0  0  0  0  0  0  0  0  0  0  0
  153.5889  134.9264  165.0146 H   0  0  0  0  0  0  0  0  0  0  0  0
  154.7116  134.5579  161.0595 H   0  0  0  0  0  0  0  0  0  0  0  0
  151.4582  141.6806  157.6158 H   0  0  0  0  0  0  0  0  0  0  0  0
  150.6073  141.2728  159.0903 H   0  0  0  0  0  0  0  0  0  0  0  0
  152.3444  143.7504  158.6000 H   0  0  0  0  0  0  0  0  0  0  0  0
  150.0564  143.9006  157.6132 H   0  0  0  0  0  0  0  0  0  0  0  0
  150.2392  145.0092  158.9698 H   0  0  0  0  0  0  0  0  0  0  0  0
  149.3492  143.5026  159.1778 H   0  0  0  0  0  0  0  0  0  0  0  0
  1  2  1  0  0  0  0
  1 21  1  0  0  0  0
  1 22  1  0  0  0  0
  1 23  1  0  0  0  0
  2 20  1  0  0  0  0
  2  3  1  0  0  0  0
  2 24  1  0  0  0  0
  3  4  1  0  0  0  0
  3 25  1  0  0  0  0
  3 26  1  0  0  0  0
  4  5  1  0  0  0  0
  4 17  1  0  0  0  0
  5  6  2  0  0  0  0
  5  7  2  0  0  0  0
  5  8  1  0  0  0  0
  8  9  1  0  0  0  0
  9 10  1  0  0  0  0
  9 27  1  0  0  0  0
  9 28  1  0  0  0  0
 10 11  1  0  0  0  0
 10 29  1  0  0  0  0
 10 30  1  0  0  0  0
 11 16  1  0  0  0  0
 11 12  2  0  0  0  0
 12 13  1  0  0  0  0
 12 31  1  0  0  0  0
 13 14  2  0  0  0  0
 13 32  1  0  0  0  0
 14 15  1  0  0  0  0
 14 33  1  0  0  0  0
 15 16  2  0  0  0  0
 16 34  1  0  0  0  0
 17 18  1  0  0  0  0
 17 35  1  0  0  0  0
 17 36  1  0  0  0  0
 18 19  1  0  0  0  0
 18 20  1  0  0  0  0
 18 37  1  0  0  0  0
 19 38  1  0  0  0  0
 19 39  1  0  0  0  0
 19 40  1  0  0  0  0
M  CHG  1   8  -1
M  END
> <s_m_source_file>
AV-unprocessed.smi

> <i_m_source_file_index>
1165

> <i_lp_mmshare_version>
43012

> <i_f3d_flags>
0

> <s_epik_input>
W0NIM11bQ0BASF0xW0NIMl1OKFtDSDJdW0NASF0oTzEpW0NIM10pUyg9TykoPU8pW05IXVtDSDJdW0NIMl1jMltjSF1bY0hdW2NIXW5bY0hdMg==

> <s_epik_cmdline>
J2VwaWtfcHl0aG9uJywgJy1waCcsICc3LjAnLCAnLXRuJywgJzgnLCAnLW1hJywgJzIwMCcsICctbWV0YWxfYmluZGluZycsICctaW1hZScsICc8aW5maWxlLm1hZT4nLCAnLW9tYWUnLCAnPG91dGZpbGUubWFlPic=

> <r_epik_Ionization_Penalty>
1.23471

> <r_epik_Ionization_Penalty_Charging>
1.20871

> <r_epik_Ionization_Penalty_Neutral>
0.025996

> <r_epik_State_Penalty>
1.46261

> <r_epik_Charging_Adjusted_Penalty>
2.67132

> <i_epik_Tot_Q>
-1

> <i_epik_Tot_abs_Q>
1

> <r_epik_Metal_State_Penalty>
0.521406

> <b_epik_Metal_Only>
0

> <s_lp_Force_Field>
OPLS_2005

> <r_lp_Energy>
1.53282

> <b_lp_Chiralities_Consistent>
1

> <s_lp_Variant>
AV-unprocessed.smi:1165-5

> <Gold.Version>
5.8.1

> <Gold.Id.Protein>
6NUR|6NUR_protein|mol2

> <Gold.PLP.Fitness>
42.9705

> <Gold.PLP.PLP>
-37.3036

> <Gold.PLP.part.hbond>
-2.1756

> <Gold.PLP.part.metal>
0.0000

> <Gold.PLP.part.buried>
-5.3731

> <Gold.PLP.part.nonpolar>
-29.2036

> <Gold.PLP.part.repulsive>
0.0836

> <Gold.PLP.ligand.clash>
0.0000

> <Gold.PLP.ligand.torsion>
1.3671

> <Gold.PLP.Chemscore.Hbond>
2.2991

> <Gold.PLP.Chemscore.CHOScore>
0.0000

> <Gold.PLP.Chemscore.Metal>
0.0000

> <Gold.Chemscore.Hbonds>
donor molecule, donor type, donor heavy atom, donor atom, acceptor molecule, acceptor atom, score
      P1  H  7997  8009       L1     8  1.63
      P1  H  7997  8010       L1     7  0.20

> <Gold.PLP.Chemscore.Internal.Correction>
1.5038

> <Gold.Rescore>
     Score         DG    S(hbond)    S(metal)    S(lipo)     H(rot)  DE(clash)    DE(int)     intcor
     15.11     -16.47       0.86        0.00     101.57       1.47       0.01       1.35       ----

> <Gold.Chemscore.Fitness>
15.1082

> <Gold.Chemscore.DG>
-16.4667

> <Gold.Chemscore.ZeroCoef>
-5.4800

> <Gold.Chemscore.Hbond>
0.8604

> <Gold.Chemscore.Metal>
0.0000

> <Gold.Chemscore.Lipo>
101.5748

> <Gold.Chemscore.Internal_Hbond>
0.0000

> <Gold.Chemscore.DEClash>
0.0098

> <Gold.Chemscore.DEInternal>
1.3488

> <Gold.Chemscore.Rot>
1.4731

> <Gold.Chemscore.Internal.Correction>
   9.000000E+99

> <Gold.Chemscore.Hbonds>
donor molecule, donor type, donor heavy atom, donor atom, acceptor molecule, acceptor atom, score
      P1  H  7997  8009       L1     8  0.38
      P1  H  7997  8010       L1     7  0.15

> <Gold.Chemscore.Hbond.Weighted>
-2.8736

> <Gold.Chemscore.Metal.Weighted>
-0.0000

> <Gold.Chemscore.Lipo.Weighted>
-11.8843

> <Gold.Chemscore.Internal_Hbond.Weighted>
0.0000

> <Gold.Chemscore.DEClash.Weighted>
0.0098

> <Gold.Chemscore.DEInternal.Weighted>
1.3488

> <Gold.Chemscore.Rot.Weighted>
3.7712

> <Gold.Chemscore.Internal.Correction.Weighted>
   9.000000E+99

> <Gold.Protein.RotatedTorsions>
[ 6907 6896 6895 6894 ] final  138.61 input  -60.11 | X-H torsion
[ 7974 7965 7964 7962 ] final  -18.57 input  175.53 | X-H torsion
[ 8008 7997 7996 7995 ] final   97.35 input   59.86 | X-H torsion
[ 10167 10162 10161 10158 ] final -112.91 input  -65.29 | X-H torsion
[ 10718 10713 10712 10709 ] final   96.63 input   66.30 | X-H torsion
[ 10763 10752 10751 10750 ] final  163.36 input  -60.55 | X-H torsion
[ 11005 11000 10999 10996 ] final  158.59 input  -57.11 | X-H torsion

> <Gold.Protein.ActiveResidues>
 VAL166  LYS551  ARG553  GLY616  TRP617  ASP618  TYR619  PRO620  LYS621  CYS622 
 ASP623  PHE694  ASN695  SER759  ASP760  ASP761  ALA762  ILE779  LEU786  VAL792 
 PHE793  MET794  SER795  GLU796  ALA797  LYS798  CYS799  TRP800  GLU811  SER814 

> <Gold.Protein.RotatedAtoms>
  152.2646  133.5327  159.5401 H   0  0  0  0  0  0  0  0  0  0  0  0  # atno 6907 bound_to 6896
  150.7137  134.0782  159.3897 H   0  0  0  0  0  0  0  0  0  0  0  0  # atno 6908 bound_to 6896
  151.8699  135.0493  160.0529 H   0  0  0  0  0  0  0  0  0  0  0  0  # atno 6909 bound_to 6896
  146.1886  140.3939  142.8467 H   0  0  0  0  0  0  0  0  0  0  0  0  # atno 7974 bound_to 7965
  156.0892  140.3259  155.7794 H   0  0  0  0  0  0  0  0  0  0  0  0  # atno 8008 bound_to 7997
  155.5025  140.0570  157.2954 H   0  0  0  0  0  0  0  0  0  0  0  0  # atno 8009 bound_to 7997
  154.4627  140.1974  156.0216 H   0  0  0  0  0  0  0  0  0  0  0  0  # atno 8010 bound_to 7997
  140.1176  143.4472  152.1712 H   0  0  0  0  0  0  0  0  0  0  0  0  # atno 10167 bound_to 10162
  157.6924  131.0584  150.4520 H   0  0  0  0  0  0  0  0  0  0  0  0  # atno 10718 bound_to 10713
  154.2926  135.2760  155.2648 H   0  0  0  0  0  0  0  0  0  0  0  0  # atno 10763 bound_to 10752
  154.5120  135.5780  153.6616 H   0  0  0  0  0  0  0  0  0  0  0  0  # atno 10764 bound_to 10752
  152.9912  135.6183  154.3091 H   0  0  0  0  0  0  0  0  0  0  0  0  # atno 10765 bound_to 10752
  140.1880  134.8428  157.2879 H   0  0  0  0  0  0  0  0  0  0  0  0  # atno 11005 bound_to 11000
  144.8443  140.6905  143.6209 LP  0  0  0  0  0  0  0  0  0  0  0  0  # atno 17320 bound_to 7965
  145.3864  139.1626  143.4253 LP  0  0  0  0  0  0  0  0  0  0  0  0  # atno 17321 bound_to 7965
  139.5586  144.7390  151.4221 LP  0  0  0  0  0  0  0  0  0  0  0  0  # atno 17342 bound_to 10162
  140.6890  143.7905  150.7228 LP  0  0  0  0  0  0  0  0  0  0  0  0  # atno 17343 bound_to 10162
  156.4871  130.4087  149.6428 LP  0  0  0  0  0  0  0  0  0  0  0  0  # atno 17370 bound_to 10713
  156.3452  130.7403  151.2354 LP  0  0  0  0  0  0  0  0  0  0  0  0  # atno 17371 bound_to 10713
  140.2192  134.4044  155.7574 LP  0  0  0  0  0  0  0  0  0  0  0  0  # atno 17394 bound_to 11000
  141.2225  133.7157  156.8463 LP  0  0  0  0  0  0  0  0  0  0  0  0  # atno 17395 bound_to 11000

$$$$
