AV-unprocessed.smi:3265|AV-procd|sdf|12498|dock1
  -GOLD-   2272018403D 1   1.00000     0.00000
 Structure written by MMmdl.
 41 42  0  0  0  0  0  0  0  0  2 V2000
  152.5685  144.7492  158.1416 C   0  0  0  0  0  0  0  0  0  0  0  0
  151.8071  144.1321  159.3262 C   0  0  2  0  0  0  0  0  0  0  0  0
  152.7442  143.5255  160.3880 C   0  0  0  0  0  0  0  0  0  0  0  0
  153.3520  142.1997  159.9075 C   0  0  0  0  0  0  0  0  0  0  0  0
  152.2560  141.2238  159.4526 C   0  0  0  0  0  0  0  0  0  0  0  0
  151.4080  141.8356  158.3991 N   0  3  1  0  0  0  0  0  0  0  0  0
  150.4391  140.8774  157.8085 C   0  0  0  0  0  0  0  0  0  0  0  0
  149.6708  141.4796  156.6134 C   0  0  0  0  0  0  0  0  0  0  0  0
  148.5280  142.2851  157.0352 N   0  0  0  0  0  0  0  0  0  0  0  0
  147.5056  141.8372  157.7806 C   0  0  0  0  0  0  0  0  0  0  0  0
  147.4469  140.6948  158.2337 O   0  0  0  0  0  0  0  0  0  0  0  0
  146.3611  142.8182  158.0303 C   0  0  0  0  0  0  0  0  0  0  0  0
  146.2581  143.1389  159.4433 N   0  0  0  0  0  0  0  0  0  0  0  0
  146.4143  144.3640  160.0584 C   0  0  0  0  0  0  0  0  0  0  0  0
  146.2290  144.1735  161.3977 C   0  0  0  0  0  0  0  0  0  0  0  0
  145.9557  142.7816  161.5063 C   0  0  0  0  0  0  0  0  0  0  0  0
  145.9809  142.1638  160.3361 N   0  0  0  0  0  0  0  0  0  0  0  0
  150.7650  143.0926  158.8655 C   0  0  0  0  0  0  0  0  0  0  0  0
  153.1175  143.9949  157.5810 H   0  0  0  0  0  0  0  0  0  0  0  0
  153.2839  145.4988  158.4807 H   0  0  0  0  0  0  0  0  0  0  0  0
  151.8844  145.2390  157.4482 H   0  0  0  0  0  0  0  0  0  0  0  0
  151.2651  144.9507  159.8016 H   0  0  0  0  0  0  0  0  0  0  0  0
  153.5332  144.2306  160.6520 H   0  0  0  0  0  0  0  0  0  0  0  0
  152.1785  143.3447  161.3033 H   0  0  0  0  0  0  0  0  0  0  0  0
  154.0449  142.3829  159.0858 H   0  0  0  0  0  0  0  0  0  0  0  0
  153.9402  141.7499  160.7077 H   0  0  0  0  0  0  0  0  0  0  0  0
  152.7262  140.3178  159.0685 H   0  0  0  0  0  0  0  0  0  0  0  0
  151.6337  140.9283  160.2990 H   0  0  0  0  0  0  0  0  0  0  0  0
  150.9744  139.9959  157.4535 H   0  0  0  0  0  0  0  0  0  0  0  0
  149.7482  140.5166  158.5719 H   0  0  0  0  0  0  0  0  0  0  0  0
  150.3420  142.0800  155.9975 H   0  0  0  0  0  0  0  0  0  0  0  0
  149.2974  140.6850  155.9678 H   0  0  0  0  0  0  0  0  0  0  0  0
  148.4975  143.2436  156.7171 H   0  0  0  0  0  0  0  0  0  0  0  0
  146.5309  143.7406  157.4735 H   0  0  0  0  0  0  0  0  0  0  0  0
  145.4185  142.3972  157.6762 H   0  0  0  0  0  0  0  0  0  0  0  0
  146.6428  145.2583  159.4973 H   0  0  0  0  0  0  0  0  0  0  0  0
  146.2776  144.9156  162.1805 H   0  0  0  0  0  0  0  0  0  0  0  0
  145.7483  142.2039  162.3950 H   0  0  0  0  0  0  0  0  0  0  0  0
  150.0889  142.8599  159.6899 H   0  0  0  0  0  0  0  0  0  0  0  0
  150.1504  143.5184  158.0718 H   0  0  0  0  0  0  0  0  0  0  0  0
  152.0396  142.0881  157.6521 H   0  0  0  0  0  0  0  0  0  0  0  0
  1  2  1  0  0  0  0
  1 19  1  0  0  0  0
  1 20  1  0  0  0  0
  1 21  1  0  0  0  0
  2 18  1  0  0  0  0
  2  3  1  0  0  0  0
  2 22  1  0  0  0  0
  3  4  1  0  0  0  0
  3 23  1  0  0  0  0
  3 24  1  0  0  0  0
  4  5  1  0  0  0  0
  4 25  1  0  0  0  0
  4 26  1  0  0  0  0
  5  6  1  0  0  0  0
  5 27  1  0  0  0  0
  5 28  1  0  0  0  0
  6  7  1  0  0  0  0
  6 18  1  0  0  0  0
  6 41  1  0  0  0  0
  7  8  1  0  0  0  0
  7 29  1  0  0  0  0
  7 30  1  0  0  0  0
  8  9  1  0  0  0  0
  8 31  1  0  0  0  0
  8 32  1  0  0  0  0
  9 10  1  0  0  0  0
  9 33  1  0  0  0  0
 10 11  2  0  0  0  0
 10 12  1  0  0  0  0
 12 13  1  0  0  0  0
 12 34  1  0  0  0  0
 12 35  1  0  0  0  0
 13 17  1  0  0  0  0
 13 14  1  0  0  0  0
 14 15  2  0  0  0  0
 14 36  1  0  0  0  0
 15 16  1  0  0  0  0
 15 37  1  0  0  0  0
 16 17  2  0  0  0  0
 16 38  1  0  0  0  0
 18 39  1  0  0  0  0
 18 40  1  0  0  0  0
M  CHG  1   6   1
M  END
> <s_m_source_file>
AV-unprocessed.smi

> <i_m_source_file_index>
3265

> <i_lp_mmshare_version>
43012

> <i_f3d_flags>
0

> <s_epik_input>
W0NIM11bQ0BASF0xW0NIMl1bQ0gyXVtDSDJdTihbQ0gyXTEpW0NIMl1bQ0gyXVtOSF1DKD1PKVtDSDJdbjJbY0hdW2NIXVtjSF1uMg==

> <s_epik_cmdline>
J2VwaWtfcHl0aG9uJywgJy1waCcsICc3LjAnLCAnLXRuJywgJzgnLCAnLW1hJywgJzIwMCcsICctbWV0YWxfYmluZGluZycsICctaW1hZScsICc8aW5maWxlLm1hZT4nLCAnLW9tYWUnLCAnPG91dGZpbGUubWFlPic=

> <r_lp_tautomer_probability>
1

> <r_epik_Ionization_Penalty>
0.00231455

> <r_epik_Ionization_Penalty_Charging>
0.00230623

> <r_epik_Ionization_Penalty_Neutral>
8.31727e-06

> <r_epik_State_Penalty>
0.00159065

> <r_epik_Charging_Adjusted_Penalty>
0.00389688

> <i_epik_Tot_Q>
1

> <i_epik_Tot_abs_Q>
1

> <r_epik_Metal_State_Penalty>
-0

> <b_epik_Metal_Only>
0

> <s_lp_Force_Field>
OPLS_2005

> <r_lp_Energy>
23.6627

> <b_lp_Chiralities_Consistent>
1

> <s_lp_Variant>
AV-unprocessed.smi:3265-3

> <Gold.Version>
5.8.1

> <Gold.Id.Protein>
6NUR|6NUR_protein|mol2

> <Gold.PLP.Fitness>
47.6032

> <Gold.PLP.PLP>
-38.8923

> <Gold.PLP.part.hbond>
-3.0000

> <Gold.PLP.part.metal>
0.0000

> <Gold.PLP.part.buried>
-6.2939

> <Gold.PLP.part.nonpolar>
-29.5989

> <Gold.PLP.part.repulsive>
0.1042

> <Gold.PLP.ligand.clash>
0.0000

> <Gold.PLP.ligand.torsion>
0.1634

> <Gold.PLP.Chemscore.Hbond>
2.0000

> <Gold.PLP.Chemscore.CHOScore>
1.0000

> <Gold.PLP.Chemscore.Metal>
0.0000

> <Gold.Chemscore.Hbonds>
donor molecule, donor type, donor heavy atom, donor atom, acceptor molecule, acceptor atom, score
      L1  H     9    33       P1  8028  1.00
      P1  H  6934  6946       L1    17  1.00
      L1  C    14    36       P1  8029  0.78

> <Gold.PLP.Chemscore.Internal.Correction>
0.0377

> <Gold.Rescore>
     Score         DG    S(hbond)    S(metal)    S(lipo)     H(rot)  DE(clash)    DE(int)     intcor
     14.71     -17.15       1.64        0.00      93.16       1.84       0.05       2.39       ----

> <Gold.Chemscore.Fitness>
14.7067

> <Gold.Chemscore.DG>
-17.1511

> <Gold.Chemscore.ZeroCoef>
-5.4800

> <Gold.Chemscore.Hbond>
1.6402

> <Gold.Chemscore.Metal>
0.0000

> <Gold.Chemscore.Lipo>
93.1609

> <Gold.Chemscore.Internal_Hbond>
0.0000

> <Gold.Chemscore.DEClash>
0.0522

> <Gold.Chemscore.DEInternal>
2.3921

> <Gold.Chemscore.Rot>
1.8386

> <Gold.Chemscore.Internal.Correction>
   9.000000E+99

> <Gold.Chemscore.Hbonds>
donor molecule, donor type, donor heavy atom, donor atom, acceptor molecule, acceptor atom, score
      L1  H     9    33       P1  8028  0.55
      P1  H  6934  6946       L1    17  0.25

> <Gold.Chemscore.Hbond.Weighted>
-5.4781

> <Gold.Chemscore.Metal.Weighted>
-0.0000

> <Gold.Chemscore.Lipo.Weighted>
-10.8998

> <Gold.Chemscore.Internal_Hbond.Weighted>
0.0000

> <Gold.Chemscore.DEClash.Weighted>
0.0522

> <Gold.Chemscore.DEInternal.Weighted>
2.3921

> <Gold.Chemscore.Rot.Weighted>
4.7069

> <Gold.Chemscore.Internal.Correction.Weighted>
   9.000000E+99

> <Gold.Protein.RotatedTorsions>
[ 6907 6896 6895 6894 ] final -179.51 input  -60.11 | X-H torsion
[ 7974 7965 7964 7962 ] final -128.11 input  175.53 | X-H torsion
[ 8008 7997 7996 7995 ] final   40.37 input   59.86 | X-H torsion
[ 10167 10162 10161 10158 ] final   57.62 input  -65.29 | X-H torsion
[ 10718 10713 10712 10709 ] final  -33.63 input   66.30 | X-H torsion
[ 10763 10752 10751 10750 ] final  -28.57 input  -60.55 | X-H torsion
[ 11005 11000 10999 10996 ] final  -32.43 input  -57.11 | X-H torsion

> <Gold.Protein.ActiveResidues>
 VAL166  LYS551  ARG553  GLY616  TRP617  ASP618  TYR619  PRO620  LYS621  CYS622 
 ASP623  PHE694  ASN695  SER759  ASP760  ASP761  ALA762  ILE779  LEU786  VAL792 
 PHE793  MET794  SER795  GLU796  ALA797  LYS798  CYS799  TRP800  GLU811  SER814 

> <Gold.Protein.RotatedAtoms>
  151.6547  133.3319  159.3159 H   0  0  0  0  0  0  0  0  0  0  0  0  # atno 6907 bound_to 6896
  150.7943  134.6994  159.6551 H   0  0  0  0  0  0  0  0  0  0  0  0  # atno 6908 bound_to 6896
  152.4027  134.6262  160.0115 H   0  0  0  0  0  0  0  0  0  0  0  0  # atno 6909 bound_to 6896
  144.9703  140.7538  143.4674 H   0  0  0  0  0  0  0  0  0  0  0  0  # atno 7974 bound_to 7965
  155.2520  140.3353  155.4281 H   0  0  0  0  0  0  0  0  0  0  0  0  # atno 8008 bound_to 7997
  156.2212  140.1810  156.7517 H   0  0  0  0  0  0  0  0  0  0  0  0  # atno 8009 bound_to 7997
  154.5828  140.0651  156.9113 H   0  0  0  0  0  0  0  0  0  0  0  0  # atno 8010 bound_to 7997
  140.1960  144.4037  150.6550 H   0  0  0  0  0  0  0  0  0  0  0  0  # atno 10167 bound_to 10162
  156.3603  130.4322  149.7629 H   0  0  0  0  0  0  0  0  0  0  0  0  # atno 10718 bound_to 10713
  153.7504  135.6926  153.4947 H   0  0  0  0  0  0  0  0  0  0  0  0  # atno 10763 bound_to 10752
  153.2007  135.4437  155.0261 H   0  0  0  0  0  0  0  0  0  0  0  0  # atno 10764 bound_to 10752
  154.8189  135.3412  154.7025 H   0  0  0  0  0  0  0  0  0  0  0  0  # atno 10765 bound_to 10752
  140.9552  133.7197  156.1281 H   0  0  0  0  0  0  0  0  0  0  0  0  # atno 11005 bound_to 11000
  145.2569  139.2008  143.4913 LP  0  0  0  0  0  0  0  0  0  0  0  0  # atno 17320 bound_to 7965
  146.3380  140.2492  142.8598 LP  0  0  0  0  0  0  0  0  0  0  0  0  # atno 17321 bound_to 7965
  140.6423  143.2206  151.6263 LP  0  0  0  0  0  0  0  0  0  0  0  0  # atno 17342 bound_to 10162
  139.5236  144.3127  152.0979 LP  0  0  0  0  0  0  0  0  0  0  0  0  # atno 17343 bound_to 10162
  156.4796  130.8035  151.3049 LP  0  0  0  0  0  0  0  0  0  0  0  0  # atno 17370 bound_to 10713
  157.7472  131.0010  150.2947 LP  0  0  0  0  0  0  0  0  0  0  0  0  # atno 17371 bound_to 10713
  140.7547  134.4006  157.5536 LP  0  0  0  0  0  0  0  0  0  0  0  0  # atno 17394 bound_to 11000
  139.8860  134.8922  156.2611 LP  0  0  0  0  0  0  0  0  0  0  0  0  # atno 17395 bound_to 11000

$$$$
