AV-unprocessed.smi:2525|AV-procd|sdf|9930|dock6
  -GOLD-   2272013573D 1   1.00000     0.00000
 Structure written by MMmdl.
 44 45  0  0  0  0  0  0  0  0  1 V2000
  147.0189  142.0949  154.3596 C   0  0  0  0  0  0  0  0  0  0  0  0
  148.3272  141.3864  153.9649 C   0  0  0  0  0  0  0  0  0  0  0  0
  148.8935  140.3315  154.9576 C   0  0  0  0  0  0  0  0  0  0  0  0
  149.4131  141.1210  156.1843 C   0  0  0  0  0  0  0  0  0  0  0  0
  150.6689  141.9721  155.9249 C   0  0  0  0  0  0  0  0  0  0  0  0
  148.0004  139.1124  155.3381 C   0  0  1  0  0  0  0  0  0  0  0  0
  147.0341  138.7383  154.3074 N   0  0  0  0  0  0  0  0  0  0  0  0
  146.2162  137.6765  154.3582 C   0  0  0  0  0  0  0  0  0  0  0  0
  146.1759  136.8983  155.3103 O   0  0  0  0  0  0  0  0  0  0  0  0
  145.2851  137.4686  153.1603 C   0  0  0  0  0  0  0  0  0  0  0  0
  145.5828  136.2351  152.4507 N   0  0  0  0  0  0  0  0  0  0  0  0
  145.5479  135.9949  151.0924 C   0  0  0  0  0  0  0  0  0  0  0  0
  145.8940  134.6777  150.9937 C   0  0  0  0  0  0  0  0  0  0  0  0
  146.1210  134.1779  152.2749 N   0  0  0  0  0  0  0  0  0  0  0  0
  145.9345  135.1232  153.1415 N   0  0  0  0  0  0  0  0  0  0  0  0
  149.2432  138.2041  155.3068 C   0  0  1  0  0  0  0  0  0  0  0  0
  149.1307  136.7578  154.8272 C   0  0  0  0  0  0  0  0  0  0  0  0
  149.8827  139.2673  154.4014 C   0  0  2  0  0  0  0  0  0  0  0  0
  151.2381  139.5769  154.6919 O   0  0  0  0  0  0  0  0  0  0  0  0
  152.1090  138.4682  154.5523 C   0  0  0  0  0  0  0  0  0  0  0  0
  146.7502  142.8380  153.6085 H   0  0  0  0  0  0  0  0  0  0  0  0
  147.0959  142.6160  155.3129 H   0  0  0  0  0  0  0  0  0  0  0  0
  146.1898  141.3901  154.4225 H   0  0  0  0  0  0  0  0  0  0  0  0
  148.1428  140.9313  152.9909 H   0  0  0  0  0  0  0  0  0  0  0  0
  149.0832  142.1498  153.7785 H   0  0  0  0  0  0  0  0  0  0  0  0
  148.6379  141.7888  156.5603 H   0  0  0  0  0  0  0  0  0  0  0  0
  149.6159  140.4394  157.0113 H   0  0  0  0  0  0  0  0  0  0  0  0
  150.9448  142.5259  156.8222 H   0  0  0  0  0  0  0  0  0  0  0  0
  150.5091  142.7000  155.1301 H   0  0  0  0  0  0  0  0  0  0  0  0
  151.5265  141.3591  155.6488 H   0  0  0  0  0  0  0  0  0  0  0  0
  147.5697  139.1666  156.3387 H   0  0  0  0  0  0  0  0  0  0  0  0
  146.9945  139.3261  153.4872 H   0  0  0  0  0  0  0  0  0  0  0  0
  144.2480  137.4341  153.4962 H   0  0  0  0  0  0  0  0  0  0  0  0
  145.3746  138.3152  152.4780 H   0  0  0  0  0  0  0  0  0  0  0  0
  145.2891  136.7427  150.3570 H   0  0  0  0  0  0  0  0  0  0  0  0
  145.9956  134.0540  150.1178 H   0  0  0  0  0  0  0  0  0  0  0  0
  149.7157  138.2343  156.2900 H   0  0  0  0  0  0  0  0  0  0  0  0
  148.8268  136.6996  153.7814 H   0  0  0  0  0  0  0  0  0  0  0  0
  148.3968  136.2055  155.4140 H   0  0  0  0  0  0  0  0  0  0  0  0
  150.0820  136.2344  154.9188 H   0  0  0  0  0  0  0  0  0  0  0  0
  149.7282  139.0261  153.3492 H   0  0  0  0  0  0  0  0  0  0  0  0
  153.1353  138.7871  154.7327 H   0  0  0  0  0  0  0  0  0  0  0  0
  152.0594  138.0493  153.5467 H   0  0  0  0  0  0  0  0  0  0  0  0
  151.8733  137.6849  155.2720 H   0  0  0  0  0  0  0  0  0  0  0  0
  1  2  1  0  0  0  0
  1 21  1  0  0  0  0
  1 22  1  0  0  0  0
  1 23  1  0  0  0  0
  2  3  1  0  0  0  0
  2 24  1  0  0  0  0
  2 25  1  0  0  0  0
  3 18  1  0  0  0  0
  3  4  1  0  0  0  0
  3  6  1  0  0  0  0
  4  5  1  0  0  0  0
  4 26  1  0  0  0  0
  4 27  1  0  0  0  0
  5 28  1  0  0  0  0
  5 29  1  0  0  0  0
  5 30  1  0  0  0  0
  6  7  1  0  0  0  0
  6 16  1  0  0  0  0
  6 31  1  0  0  0  0
  7  8  1  0  0  0  0
  7 32  1  0  0  0  0
  8  9  2  0  0  0  0
  8 10  1  0  0  0  0
 10 11  1  0  0  0  0
 10 33  1  0  0  0  0
 10 34  1  0  0  0  0
 11 15  1  0  0  0  0
 11 12  1  0  0  0  0
 12 13  2  0  0  0  0
 12 35  1  0  0  0  0
 13 14  1  0  0  0  0
 13 36  1  0  0  0  0
 14 15  2  0  0  0  0
 16 17  1  0  0  0  0
 16 18  1  0  0  0  0
 16 37  1  0  0  0  0
 17 38  1  0  0  0  0
 17 39  1  0  0  0  0
 17 40  1  0  0  0  0
 18 19  1  0  0  0  0
 18 41  1  0  0  0  0
 19 20  1  0  0  0  0
 20 42  1  0  0  0  0
 20 43  1  0  0  0  0
 20 44  1  0  0  0  0
M  END
> <s_m_source_file>
AV-unprocessed.smi

> <i_m_source_file_index>
2525

> <i_lp_mmshare_version>
43012

> <i_f3d_flags>
0

> <s_epik_input>
W0NIM11PW0NAQEhdMVtDQEhdKFtDSDNdKVtDQEBIXShDMShbQ0gyXVtDSDNdKVtDSDJdW0NIM10pW05IXUMoPU8pW0NIMl1uMltjSF1bY0hdbm4y

> <s_epik_cmdline>
J2VwaWtfcHl0aG9uJywgJy1waCcsICc3LjAnLCAnLXRuJywgJzgnLCAnLW1hJywgJzIwMCcsICctbWV0YWxfYmluZGluZycsICctaW1hZScsICc8aW5maWxlLm1hZT4nLCAnLW9tYWUnLCAnPG91dGZpbGUubWFlPic=

> <r_lp_tautomer_probability>
1

> <r_epik_Ionization_Penalty>
1.18045e-06

> <r_epik_Ionization_Penalty_Charging>
0

> <r_epik_Ionization_Penalty_Neutral>
1.18045e-06

> <r_epik_State_Penalty>
-0

> <r_epik_Charging_Adjusted_Penalty>
0

> <i_epik_Tot_Q>
0

> <i_epik_Tot_abs_Q>
0

> <r_epik_Metal_State_Penalty>
-0

> <b_epik_Metal_Only>
0

> <s_lp_Force_Field>
OPLS_2005

> <r_lp_Energy>
28.6674

> <b_lp_Chiralities_Consistent>
1

> <s_lp_Variant>
AV-unprocessed.smi:2525-5

> <Gold.Version>
5.8.1

> <Gold.Id.Protein>
6NUR|6NUR_protein|mol2

> <Gold.PLP.Fitness>
36.1245

> <Gold.PLP.PLP>
-28.1779

> <Gold.PLP.part.hbond>
-1.0000

> <Gold.PLP.part.metal>
0.0000

> <Gold.PLP.part.buried>
-3.6050

> <Gold.PLP.part.nonpolar>
-23.8887

> <Gold.PLP.part.repulsive>
0.2897

> <Gold.PLP.ligand.clash>
0.0000

> <Gold.PLP.ligand.torsion>
0.7892

> <Gold.PLP.Chemscore.Hbond>
1.0000

> <Gold.PLP.Chemscore.CHOScore>
1.9809

> <Gold.PLP.Chemscore.Metal>
0.0000

> <Gold.Chemscore.Hbonds>
donor molecule, donor type, donor heavy atom, donor atom, acceptor molecule, acceptor atom, score
      P1  H  7989  7998       L1    19  1.00
      L1  C    12    35       P1 10171  1.00
      L1  C    13    36       P1  7921  0.81

> <Gold.PLP.Chemscore.Internal.Correction>
0.5824

> <Gold.Rescore>
     Score         DG    S(hbond)    S(metal)    S(lipo)     H(rot)  DE(clash)    DE(int)     intcor
      6.51     -10.00       0.35        0.00      72.00       1.98       0.03       3.47       ----

> <Gold.Chemscore.Fitness>
6.5067

> <Gold.Chemscore.DG>
-10.0043

> <Gold.Chemscore.ZeroCoef>
-5.4800

> <Gold.Chemscore.Hbond>
0.3513

> <Gold.Chemscore.Metal>
0.0000

> <Gold.Chemscore.Lipo>
71.9995

> <Gold.Chemscore.Internal_Hbond>
0.0000

> <Gold.Chemscore.DEClash>
0.0323

> <Gold.Chemscore.DEInternal>
3.4653

> <Gold.Chemscore.Rot>
1.9817

> <Gold.Chemscore.Internal.Correction>
   9.000000E+99

> <Gold.Chemscore.Hbonds>
donor molecule, donor type, donor heavy atom, donor atom, acceptor molecule, acceptor atom, score
      P1  H  7989  7998       L1    19  0.33

> <Gold.Chemscore.Hbond.Weighted>
-1.1734

> <Gold.Chemscore.Metal.Weighted>
-0.0000

> <Gold.Chemscore.Lipo.Weighted>
-8.4239

> <Gold.Chemscore.Internal_Hbond.Weighted>
0.0000

> <Gold.Chemscore.DEClash.Weighted>
0.0323

> <Gold.Chemscore.DEInternal.Weighted>
3.4653

> <Gold.Chemscore.Rot.Weighted>
5.0731

> <Gold.Chemscore.Internal.Correction.Weighted>
   9.000000E+99

> <Gold.Protein.RotatedTorsions>
[ 6907 6896 6895 6894 ] final    1.15 input  -60.11 | X-H torsion
[ 7974 7965 7964 7962 ] final   17.36 input  175.53 | X-H torsion
[ 8008 7997 7996 7995 ] final    6.68 input   59.86 | X-H torsion
[ 10167 10162 10161 10158 ] final -100.18 input  -65.29 | X-H torsion
[ 10718 10713 10712 10709 ] final   24.71 input   66.30 | X-H torsion
[ 10763 10752 10751 10750 ] final  136.43 input  -60.55 | X-H torsion
[ 11005 11000 10999 10996 ] final  -16.73 input  -57.11 | X-H torsion

> <Gold.Protein.ActiveResidues>
 VAL166  LYS551  ARG553  GLY616  TRP617  ASP618  TYR619  PRO620  LYS621  CYS622 
 ASP623  PHE694  ASN695  SER759  ASP760  ASP761  ALA762  ILE779  LEU786  VAL792 
 PHE793  MET794  SER795  GLU796  ALA797  LYS798  CYS799  TRP800  GLU811  SER814 

> <Gold.Protein.RotatedAtoms>
  151.5880  135.1055  160.0032 H   0  0  0  0  0  0  0  0  0  0  0  0  # atno 6907 bound_to 6896
  152.4321  133.7291  159.6588 H   0  0  0  0  0  0  0  0  0  0  0  0  # atno 6908 bound_to 6896
  150.8214  133.8175  159.3160 H   0  0  0  0  0  0  0  0  0  0  0  0  # atno 6909 bound_to 6896
  146.2221  139.8614  142.8604 H   0  0  0  0  0  0  0  0  0  0  0  0  # atno 7974 bound_to 7965
  154.7442  140.2754  155.6347 H   0  0  0  0  0  0  0  0  0  0  0  0  # atno 8008 bound_to 7997
  156.2881  140.2691  156.2103 H   0  0  0  0  0  0  0  0  0  0  0  0  # atno 8009 bound_to 7997
  155.0220  140.0371  157.2430 H   0  0  0  0  0  0  0  0  0  0  0  0  # atno 8010 bound_to 7997
  140.2547  143.3448  152.0682 H   0  0  0  0  0  0  0  0  0  0  0  0  # atno 10167 bound_to 10162
  157.1835  130.6813  149.6122 H   0  0  0  0  0  0  0  0  0  0  0  0  # atno 10718 bound_to 10713
  153.8563  135.3073  155.3435 H   0  0  0  0  0  0  0  0  0  0  0  0  # atno 10763 bound_to 10752
  154.7869  135.4805  153.9968 H   0  0  0  0  0  0  0  0  0  0  0  0  # atno 10764 bound_to 10752
  153.1488  135.6839  153.9008 H   0  0  0  0  0  0  0  0  0  0  0  0  # atno 10765 bound_to 10752
  140.8097  133.8150  155.9551 H   0  0  0  0  0  0  0  0  0  0  0  0  # atno 11005 bound_to 11000
  145.2701  141.0105  143.3777 LP  0  0  0  0  0  0  0  0  0  0  0  0  # atno 17320 bound_to 7965
  144.9231  139.4388  143.6532 LP  0  0  0  0  0  0  0  0  0  0  0  0  # atno 17321 bound_to 7965
  139.5035  144.6757  151.6134 LP  0  0  0  0  0  0  0  0  0  0  0  0  # atno 17342 bound_to 10162
  140.6013  143.9604  150.6388 LP  0  0  0  0  0  0  0  0  0  0  0  0  # atno 17343 bound_to 10162
  155.9721  130.4639  150.6197 LP  0  0  0  0  0  0  0  0  0  0  0  0  # atno 17370 bound_to 10713
  157.3930  131.0798  151.1377 LP  0  0  0  0  0  0  0  0  0  0  0  0  # atno 17371 bound_to 10713
  140.9210  134.2142  157.4926 LP  0  0  0  0  0  0  0  0  0  0  0  0  # atno 17394 bound_to 11000
  139.8715  134.9792  156.5028 LP  0  0  0  0  0  0  0  0  0  0  0  0  # atno 17395 bound_to 11000

$$$$
