AV-unprocessed.smi:1005|AV-procd|sdf|4372|dock8
  -GOLD-   22720 2283D 1   1.00000     0.00000
 Structure written by MMmdl.
 57 59  0  0  0  0  0  0  0  0  3 V2000
  153.1920  142.5158  161.3291 C   0  0  0  0  0  0  0  0  0  0  0  0
  152.5478  142.2444  159.9810 C   0  0  0  0  0  0  0  0  0  0  0  0
  152.9168  141.0837  159.2643 C   0  0  0  0  0  0  0  0  0  0  0  0
  152.3439  140.7969  158.0059 C   0  0  0  0  0  0  0  0  0  0  0  0
  152.5601  139.7393  157.1391 N   0  0  0  0  0  0  0  0  0  0  0  0
  151.7363  140.0386  156.1392 C   0  0  0  0  0  0  0  0  0  0  0  0
  151.0121  141.1684  156.2537 N   0  0  0  0  0  0  0  0  0  0  0  0
  150.0583  141.6950  155.2933 C   0  0  0  0  0  0  0  0  0  0  0  0
  149.1812  140.5930  154.6677 C   0  0  2  0  0  0  0  0  0  0  0  0
  149.9406  139.8677  153.7191 O   0  0  0  0  0  0  0  0  0  0  0  0
  147.9443  141.1832  153.9609 C   0  0  0  0  0  0  0  0  0  0  0  0
  146.7621  140.2855  154.0207 N   0  3  2  0  0  0  0  0  0  0  0  0
  146.1156  140.2881  155.3540 C   0  0  0  0  0  0  0  0  0  0  0  0
  144.8587  139.4033  155.3418 C   0  0  0  0  0  0  0  0  0  0  0  0
  145.2061  138.0870  154.9281 O   0  0  0  0  0  0  0  0  0  0  0  0
  145.7415  138.0559  153.6089 C   0  0  2  0  0  0  0  0  0  0  0  0
  146.0075  136.5857  153.2333 C   0  0  0  0  0  0  0  0  0  0  0  0
  146.5201  136.4253  151.8480 N   0  3  0  0  0  0  0  0  0  0  0  0
  146.3168  135.0648  151.2972 C   0  0  0  0  0  0  0  0  0  0  0  0
  145.9880  137.4614  150.9354 C   0  0  0  0  0  0  0  0  0  0  0  0
  147.0362  138.8935  153.5852 C   0  0  0  0  0  0  0  0  0  0  0  0
  151.3806  141.7079  157.4819 C   0  0  0  0  0  0  0  0  0  0  0  0
  151.0029  142.8644  158.1870 C   0  0  0  0  0  0  0  0  0  0  0  0
  151.5896  143.1391  159.4400 C   0  0  0  0  0  0  0  0  0  0  0  0
  151.1832  144.3967  160.1877 C   0  0  0  0  0  0  0  0  0  0  0  0
  153.8764  141.7156  161.6118 H   0  0  0  0  0  0  0  0  0  0  0  0
  152.4328  142.5962  162.1073 H   0  0  0  0  0  0  0  0  0  0  0  0
  153.7592  143.4464  161.3004 H   0  0  0  0  0  0  0  0  0  0  0  0
  153.6478  140.4029  159.6753 H   0  0  0  0  0  0  0  0  0  0  0  0
  151.6562  139.4005  155.2710 H   0  0  0  0  0  0  0  0  0  0  0  0
  149.4320  142.4283  155.8032 H   0  0  0  0  0  0  0  0  0  0  0  0
  150.6053  142.2383  154.5215 H   0  0  0  0  0  0  0  0  0  0  0  0
  148.8766  139.9069  155.4574 H   0  0  0  0  0  0  0  0  0  0  0  0
  149.5354  139.9675  152.8702 H   0  0  0  0  0  0  0  0  0  0  0  0
  147.6852  142.1532  154.3876 H   0  0  0  0  0  0  0  0  0  0  0  0
  148.2017  141.3682  152.9166 H   0  0  0  0  0  0  0  0  0  0  0  0
  146.8214  139.9268  156.1039 H   0  0  0  0  0  0  0  0  0  0  0  0
  145.8427  141.3065  155.6336 H   0  0  0  0  0  0  0  0  0  0  0  0
  144.4230  139.3574  156.3400 H   0  0  0  0  0  0  0  0  0  0  0  0
  144.0961  139.8170  154.6797 H   0  0  0  0  0  0  0  0  0  0  0  0
  145.0268  138.4967  152.9133 H   0  0  0  0  0  0  0  0  0  0  0  0
  146.7140  136.1335  153.9310 H   0  0  0  0  0  0  0  0  0  0  0  0
  145.0738  136.0311  153.3418 H   0  0  0  0  0  0  0  0  0  0  0  0
  145.2562  134.8138  151.2558 H   0  0  0  0  0  0  0  0  0  0  0  0
  146.8242  134.3083  151.8942 H   0  0  0  0  0  0  0  0  0  0  0  0
  146.7188  134.9971  150.2856 H   0  0  0  0  0  0  0  0  0  0  0  0
  144.9043  137.3804  150.8402 H   0  0  0  0  0  0  0  0  0  0  0  0
  146.4268  137.3636  149.9417 H   0  0  0  0  0  0  0  0  0  0  0  0
  146.2263  138.4609  151.3012 H   0  0  0  0  0  0  0  0  0  0  0  0
  147.4473  138.8863  152.5764 H   0  0  0  0  0  0  0  0  0  0  0  0
  147.7877  138.4484  154.2396 H   0  0  0  0  0  0  0  0  0  0  0  0
  150.2715  143.5372  157.7642 H   0  0  0  0  0  0  0  0  0  0  0  0
  150.4796  144.9947  159.6076 H   0  0  0  0  0  0  0  0  0  0  0  0
  152.0552  145.0175  160.3949 H   0  0  0  0  0  0  0  0  0  0  0  0
  150.7066  144.1409  161.1342 H   0  0  0  0  0  0  0  0  0  0  0  0
  147.5177  136.5810  151.8896 H   0  0  0  0  0  0  0  0  0  0  0  0
  146.0861  140.6732  153.3771 H   0  0  0  0  0  0  0  0  0  0  0  0
  1  2  1  0  0  0  0
  1 26  1  0  0  0  0
  1 27  1  0  0  0  0
  1 28  1  0  0  0  0
  2 24  1  0  0  0  0
  2  3  2  0  0  0  0
  3  4  1  0  0  0  0
  3 29  1  0  0  0  0
  4 22  2  0  0  0  0
  4  5  1  0  0  0  0
  5  6  2  0  0  0  0
  6  7  1  0  0  0  0
  6 30  1  0  0  0  0
  7  8  1  0  0  0  0
  7 22  1  0  0  0  0
  8  9  1  0  0  0  0
  8 31  1  0  0  0  0
  8 32  1  0  0  0  0
  9 10  1  0  0  0  0
  9 11  1  0  0  0  0
  9 33  1  0  0  0  0
 10 34  1  0  0  0  0
 11 12  1  0  0  0  0
 11 35  1  0  0  0  0
 11 36  1  0  0  0  0
 12 21  1  0  0  0  0
 12 13  1  0  0  0  0
 12 57  1  0  0  0  0
 13 14  1  0  0  0  0
 13 37  1  0  0  0  0
 13 38  1  0  0  0  0
 14 15  1  0  0  0  0
 14 39  1  0  0  0  0
 14 40  1  0  0  0  0
 15 16  1  0  0  0  0
 16 17  1  0  0  0  0
 16 21  1  0  0  0  0
 16 41  1  0  0  0  0
 17 18  1  0  0  0  0
 17 42  1  0  0  0  0
 17 43  1  0  0  0  0
 18 19  1  0  0  0  0
 18 20  1  0  0  0  0
 18 56  1  0  0  0  0
 19 44  1  0  0  0  0
 19 45  1  0  0  0  0
 19 46  1  0  0  0  0
 20 47  1  0  0  0  0
 20 48  1  0  0  0  0
 20 49  1  0  0  0  0
 21 50  1  0  0  0  0
 21 51  1  0  0  0  0
 22 23  1  0  0  0  0
 23 24  2  0  0  0  0
 23 52  1  0  0  0  0
 24 25  1  0  0  0  0
 25 53  1  0  0  0  0
 25 54  1  0  0  0  0
 25 55  1  0  0  0  0
M  CHG  1  12   1
M  CHG  1  18   1
M  END
> <s_m_source_file>
AV-unprocessed.smi

> <i_m_source_file_index>
1005

> <i_lp_mmshare_version>
43012

> <i_f3d_flags>
0

> <s_epik_input>
W0NIM11jKFtjSF0xKWMoW0NIM10pW2NIXWMoYzEyKW4oW2NIXW4yKVtDSDJdW0NASF0oW09IXSlbQ0gyXU4zW0NIMl1bQ0gyXU9bQ0BIXShbQ0gyXTMpW0NIMl1OKFtDSDNdKVtDSDNd

> <s_epik_cmdline>
J2VwaWtfcHl0aG9uJywgJy1waCcsICc3LjAnLCAnLXRuJywgJzgnLCAnLW1hJywgJzIwMCcsICctbWV0YWxfYmluZGluZycsICctaW1hZScsICc8aW5maWxlLm1hZT4nLCAnLW9tYWUnLCAnPG91dGZpbGUubWFlPic=

> <r_epik_Ionization_Penalty>
1.0968

> <r_epik_Ionization_Penalty_Charging>
1.0096

> <r_epik_Ionization_Penalty_Neutral>
0.0871956

> <r_epik_State_Penalty>
1.31185

> <r_epik_Charging_Adjusted_Penalty>
2.32145

> <i_epik_Tot_Q>
2

> <i_epik_Tot_abs_Q>
2

> <r_epik_Metal_State_Penalty>
1.22442

> <b_epik_Metal_Only>
0

> <s_lp_Force_Field>
OPLS_2005

> <r_lp_Energy>
33.8105

> <b_lp_Chiralities_Consistent>
1

> <s_lp_Variant>
AV-unprocessed.smi:1005-11

> <Gold.Version>
5.8.1

> <Gold.Id.Protein>
6NUR|6NUR_protein|mol2

> <Gold.PLP.Fitness>
56.7175

> <Gold.PLP.PLP>
-44.2201

> <Gold.PLP.part.hbond>
-3.9729

> <Gold.PLP.part.metal>
0.0000

> <Gold.PLP.part.buried>
-0.7762

> <Gold.PLP.part.nonpolar>
-39.7994

> <Gold.PLP.part.repulsive>
0.1244

> <Gold.PLP.ligand.clash>
0.0040

> <Gold.PLP.ligand.torsion>
1.1480

> <Gold.PLP.Chemscore.Hbond>
4.8320

> <Gold.PLP.Chemscore.CHOScore>
0.0000

> <Gold.PLP.Chemscore.Metal>
0.0000

> <Gold.Chemscore.Hbonds>
donor molecule, donor type, donor heavy atom, donor atom, acceptor molecule, acceptor atom, score
      L1  H    10    34       P1  7957  1.00
      L1  H    18    56       P1  7948  1.62
      P1  H  7989  7998       L1    10  0.80
      P1  H  7997  8009       L1     5  1.00

> <Gold.PLP.Chemscore.Internal.Correction>
0.3013

> <Gold.Rescore>
     Score         DG    S(hbond)    S(metal)    S(lipo)     H(rot)  DE(clash)    DE(int)     intcor
     18.20     -21.73       2.08        0.00     133.96       2.48       2.16       1.37       ----

> <Gold.Chemscore.Fitness>
18.1993

> <Gold.Chemscore.DG>
-21.7325

> <Gold.Chemscore.ZeroCoef>
-5.4800

> <Gold.Chemscore.Hbond>
2.0754

> <Gold.Chemscore.Metal>
0.0000

> <Gold.Chemscore.Lipo>
133.9587

> <Gold.Chemscore.Internal_Hbond>
0.0000

> <Gold.Chemscore.DEClash>
2.1584

> <Gold.Chemscore.DEInternal>
1.3748

> <Gold.Chemscore.Rot>
2.4814

> <Gold.Chemscore.Internal.Correction>
   9.000000E+99

> <Gold.Chemscore.Hbonds>
donor molecule, donor type, donor heavy atom, donor atom, acceptor molecule, acceptor atom, score
      L1  H    10    34       P1  7957  0.96
      L1  H    18    56       P1  7948  0.80
      P1  H  7989  7998       L1    10  0.13
      P1  H  7997  8009       L1     5  0.15

> <Gold.Chemscore.Hbond.Weighted>
-6.9317

> <Gold.Chemscore.Metal.Weighted>
-0.0000

> <Gold.Chemscore.Lipo.Weighted>
-15.6732

> <Gold.Chemscore.Internal_Hbond.Weighted>
0.0000

> <Gold.Chemscore.DEClash.Weighted>
2.1584

> <Gold.Chemscore.DEInternal.Weighted>
1.3748

> <Gold.Chemscore.Rot.Weighted>
6.3524

> <Gold.Chemscore.Internal.Correction.Weighted>
   9.000000E+99

> <Gold.Protein.RotatedTorsions>
[ 6907 6896 6895 6894 ] final  -73.20 input  -60.11 | X-H torsion
[ 7974 7965 7964 7962 ] final -137.21 input  175.53 | X-H torsion
[ 8008 7997 7996 7995 ] final -163.60 input   59.86 | X-H torsion
[ 10167 10162 10161 10158 ] final   39.43 input  -65.29 | X-H torsion
[ 10718 10713 10712 10709 ] final  167.52 input   66.30 | X-H torsion
[ 10763 10752 10751 10750 ] final -120.48 input  -60.55 | X-H torsion
[ 11005 11000 10999 10996 ] final  156.73 input  -57.11 | X-H torsion

> <Gold.Protein.ActiveResidues>
 VAL166  LYS551  ARG553  GLY616  TRP617  ASP618  TYR619  PRO620  LYS621  CYS622 
 ASP623  PHE694  ASN695  SER759  ASP760  ASP761  ALA762  ILE779  LEU786  VAL792 
 PHE793  MET794  SER795  GLU796  ALA797  LYS798  CYS799  TRP800  GLU811  SER814 

> <Gold.Protein.RotatedAtoms>
  150.7139  134.5051  159.5579 H   0  0  0  0  0  0  0  0  0  0  0  0  # atno 6907 bound_to 6896
  152.2640  134.8001  160.0435 H   0  0  0  0  0  0  0  0  0  0  0  0  # atno 6908 bound_to 6896
  151.8705  133.3439  159.3770 H   0  0  0  0  0  0  0  0  0  0  0  0  # atno 6909 bound_to 6896
  144.8861  140.6576  143.5175 H   0  0  0  0  0  0  0  0  0  0  0  0  # atno 7974 bound_to 7965
  155.8236  140.0923  157.1834 H   0  0  0  0  0  0  0  0  0  0  0  0  # atno 8008 bound_to 7997
  154.3979  140.1432  156.3589 H   0  0  0  0  0  0  0  0  0  0  0  0  # atno 8009 bound_to 7997
  155.8240  140.3445  155.5534 H   0  0  0  0  0  0  0  0  0  0  0  0  # atno 8010 bound_to 7997
  140.3840  144.1941  150.6130 H   0  0  0  0  0  0  0  0  0  0  0  0  # atno 10167 bound_to 10162
  157.0504  131.0312  151.2683 H   0  0  0  0  0  0  0  0  0  0  0  0  # atno 10718 bound_to 10713
  154.8645  135.4201  154.2466 H   0  0  0  0  0  0  0  0  0  0  0  0  # atno 10763 bound_to 10752
  153.3421  135.6994  153.6864 H   0  0  0  0  0  0  0  0  0  0  0  0  # atno 10764 bound_to 10752
  153.5838  135.3568  155.2858 H   0  0  0  0  0  0  0  0  0  0  0  0  # atno 10765 bound_to 10752
  140.1703  134.8548  157.2682 H   0  0  0  0  0  0  0  0  0  0  0  0  # atno 11005 bound_to 11000
  145.3867  139.1625  143.4251 LP  0  0  0  0  0  0  0  0  0  0  0  0  # atno 17320 bound_to 7965
  146.3025  140.3952  142.8699 LP  0  0  0  0  0  0  0  0  0  0  0  0  # atno 17321 bound_to 7965
  140.4908  143.2348  151.8821 LP  0  0  0  0  0  0  0  0  0  0  0  0  # atno 17342 bound_to 10162
  139.4793  144.5168  151.8857 LP  0  0  0  0  0  0  0  0  0  0  0  0  # atno 17343 bound_to 10162
  157.5035  130.7894  149.7629 LP  0  0  0  0  0  0  0  0  0  0  0  0  # atno 17370 bound_to 10713
  156.0009  130.3880  150.2609 LP  0  0  0  0  0  0  0  0  0  0  0  0  # atno 17371 bound_to 10713
  140.2385  134.3823  155.7490 LP  0  0  0  0  0  0  0  0  0  0  0  0  # atno 17394 bound_to 11000
  141.2217  133.7253  156.8752 LP  0  0  0  0  0  0  0  0  0  0  0  0  # atno 17395 bound_to 11000

$$$$
