AV-unprocessed.smi:646|AV-procd|sdf|3166|dock7
  -GOLD-   22720 0 83D 1   1.00000     0.00000
 Structure written by MMmdl.
 44 45  0  0  0  0  0  0  0  0  1 V2000
  143.6488  132.2315  149.7511 C   0  0  0  0  0  0  0  0  0  0  0  0
  143.8965  133.1149  150.8377 O   0  0  0  0  0  0  0  0  0  0  0  0
  144.8610  134.1562  150.6322 C   0  0  2  0  0  0  0  0  0  0  0  0
  144.3805  135.1328  149.5512 C   0  0  0  0  0  0  0  0  0  0  0  0
  146.2767  133.5559  150.5319 C   0  0  0  0  0  0  0  0  0  0  0  0
  146.3051  133.5555  152.0590 C   0  0  1  0  0  0  0  0  0  0  0  0
  147.6103  133.9141  152.5989 N   0  0  0  0  0  0  0  0  0  0  0  0
  148.2675  133.2046  153.5278 C   0  0  0  0  0  0  0  0  0  0  0  0
  147.8835  132.1140  153.9492 O   0  0  0  0  0  0  0  0  0  0  0  0
  149.5322  133.8449  154.0970 C   0  0  0  0  0  0  0  0  0  0  0  0
  149.9523  133.0885  155.3315 C   0  0  0  0  0  0  0  0  0  0  0  0
  150.1797  133.6066  156.6388 C   0  0  0  0  0  0  0  0  0  0  0  0
  150.0545  135.0254  157.1144 C   0  0  0  0  0  0  0  0  0  0  0  0
  150.5581  132.6637  157.4852 N   0  0  0  0  0  0  0  0  0  0  0  0
  150.5937  131.4775  156.7463 O   0  0  0  0  0  0  0  0  0  0  0  0
  150.2327  131.7564  155.4681 C   0  0  0  0  0  0  0  0  0  0  0  0
  150.2238  130.6103  154.5143 C   0  0  0  0  0  0  0  0  0  0  0  0
  145.2825  134.7207  152.0280 C   0  0  0  0  0  0  0  0  0  0  0  0
  145.8601  136.1502  152.0303 C   0  0  0  0  0  0  0  0  0  0  0  0
  144.2154  134.7028  153.1278 C   0  0  0  0  0  0  0  0  0  0  0  0
  143.0366  131.4004  150.1010 H   0  0  0  0  0  0  0  0  0  0  0  0
  144.5658  131.8147  149.3356 H   0  0  0  0  0  0  0  0  0  0  0  0
  143.0944  132.7252  148.9532 H   0  0  0  0  0  0  0  0  0  0  0  0
  145.0522  135.9841  149.4464 H   0  0  0  0  0  0  0  0  0  0  0  0
  143.3901  135.5248  149.7839 H   0  0  0  0  0  0  0  0  0  0  0  0
  144.3334  134.6639  148.5686 H   0  0  0  0  0  0  0  0  0  0  0  0
  146.3468  132.5655  150.0832 H   0  0  0  0  0  0  0  0  0  0  0  0
  146.9966  134.2413  150.0808 H   0  0  0  0  0  0  0  0  0  0  0  0
  145.8905  132.6325  152.4709 H   0  0  0  0  0  0  0  0  0  0  0  0
  148.0003  134.7991  152.3095 H   0  0  0  0  0  0  0  0  0  0  0  0
  150.3143  133.8323  153.3369 H   0  0  0  0  0  0  0  0  0  0  0  0
  149.3376  134.8957  154.3147 H   0  0  0  0  0  0  0  0  0  0  0  0
  149.1258  135.4748  156.7630 H   0  0  0  0  0  0  0  0  0  0  0  0
  150.8791  135.6330  156.7410 H   0  0  0  0  0  0  0  0  0  0  0  0
  150.0599  135.0890  158.2032 H   0  0  0  0  0  0  0  0  0  0  0  0
  150.3579  130.9537  153.4886 H   0  0  0  0  0  0  0  0  0  0  0  0
  149.2784  130.0711  154.5701 H   0  0  0  0  0  0  0  0  0  0  0  0
  151.0282  129.9101  154.7403 H   0  0  0  0  0  0  0  0  0  0  0  0
  146.2842  136.4133  153.0000 H   0  0  0  0  0  0  0  0  0  0  0  0
  145.0925  136.8914  151.8053 H   0  0  0  0  0  0  0  0  0  0  0  0
  146.6539  136.2761  151.2938 H   0  0  0  0  0  0  0  0  0  0  0  0
  144.6160  135.0497  154.0810 H   0  0  0  0  0  0  0  0  0  0  0  0
  143.8245  133.7001  153.3013 H   0  0  0  0  0  0  0  0  0  0  0  0
  143.3696  135.3416  152.8725 H   0  0  0  0  0  0  0  0  0  0  0  0
  1  2  1  0  0  0  0
  1 21  1  0  0  0  0
  1 22  1  0  0  0  0
  1 23  1  0  0  0  0
  2  3  1  0  0  0  0
  3 18  1  0  0  0  0
  3  4  1  0  0  0  0
  3  5  1  0  0  0  0
  4 24  1  0  0  0  0
  4 25  1  0  0  0  0
  4 26  1  0  0  0  0
  5  6  1  0  0  0  0
  5 27  1  0  0  0  0
  5 28  1  0  0  0  0
  6  7  1  0  0  0  0
  6 18  1  0  0  0  0
  6 29  1  0  0  0  0
  7  8  1  0  0  0  0
  7 30  1  0  0  0  0
  8  9  2  0  0  0  0
  8 10  1  0  0  0  0
 10 11  1  0  0  0  0
 10 31  1  0  0  0  0
 10 32  1  0  0  0  0
 11 16  2  0  0  0  0
 11 12  1  0  0  0  0
 12 13  1  0  0  0  0
 12 14  2  0  0  0  0
 13 33  1  0  0  0  0
 13 34  1  0  0  0  0
 13 35  1  0  0  0  0
 14 15  1  0  0  0  0
 15 16  1  0  0  0  0
 16 17  1  0  0  0  0
 17 36  1  0  0  0  0
 17 37  1  0  0  0  0
 17 38  1  0  0  0  0
 18 19  1  0  0  0  0
 18 20  1  0  0  0  0
 19 39  1  0  0  0  0
 19 40  1  0  0  0  0
 19 41  1  0  0  0  0
 20 42  1  0  0  0  0
 20 43  1  0  0  0  0
 20 44  1  0  0  0  0
M  END
> <s_m_source_file>
AV-unprocessed.smi

> <i_m_source_file_index>
646

> <i_lp_mmshare_version>
43012

> <i_f3d_flags>
0

> <s_epik_input>
W0NIM11PW0NAQF0xKFtDSDNdKVtDSDJdW0NASF0oQzEoW0NIM10pW0NIM10pW05IXUMoPU8pW0NIMl1jMmMoW0NIM10pbm9jMltDSDNd

> <s_epik_cmdline>
J2VwaWtfcHl0aG9uJywgJy1waCcsICc3LjAnLCAnLXRuJywgJzgnLCAnLW1hJywgJzIwMCcsICctbWV0YWxfYmluZGluZycsICctaW1hZScsICc8aW5maWxlLm1hZT4nLCAnLW9tYWUnLCAnPG91dGZpbGUubWFlPic=

> <r_lp_tautomer_probability>
1

> <r_epik_Ionization_Penalty>
2.13169e-08

> <r_epik_Ionization_Penalty_Charging>
0

> <r_epik_Ionization_Penalty_Neutral>
2.13169e-08

> <r_epik_State_Penalty>
-0

> <r_epik_Charging_Adjusted_Penalty>
0

> <i_epik_Tot_Q>
0

> <i_epik_Tot_abs_Q>
0

> <r_epik_Metal_State_Penalty>
-0

> <b_epik_Metal_Only>
0

> <s_lp_Force_Field>
OPLS_2005

> <r_lp_Energy>
15.8314

> <b_lp_Chiralities_Consistent>
1

> <s_lp_Variant>
AV-unprocessed.smi:646-2

> <Gold.Version>
5.8.1

> <Gold.Id.Protein>
6NUR|6NUR_protein|mol2

> <Gold.PLP.Fitness>
35.3043

> <Gold.PLP.PLP>
-29.6304

> <Gold.PLP.part.hbond>
-2.0000

> <Gold.PLP.part.metal>
0.0000

> <Gold.PLP.part.buried>
2.0083

> <Gold.PLP.part.nonpolar>
-28.7090

> <Gold.PLP.part.repulsive>
0.2609

> <Gold.PLP.ligand.clash>
0.0000

> <Gold.PLP.ligand.torsion>
0.3552

> <Gold.PLP.Chemscore.Hbond>
2.0000

> <Gold.PLP.Chemscore.CHOScore>
0.0000

> <Gold.PLP.Chemscore.Metal>
0.0000

> <Gold.Chemscore.Hbonds>
donor molecule, donor type, donor heavy atom, donor atom, acceptor molecule, acceptor atom, score
      L1  H     7    30       P1  7948  1.00
      P1  H  6896  6907       L1    14  1.00

> <Gold.PLP.Chemscore.Internal.Correction>
0.3844

> <Gold.Rescore>
     Score         DG    S(hbond)    S(metal)    S(lipo)     H(rot)  DE(clash)    DE(int)     intcor
     14.44     -16.86       1.86        0.00      76.79       1.49       0.84       1.57       ----

> <Gold.Chemscore.Fitness>
14.4424

> <Gold.Chemscore.DG>
-16.8557

> <Gold.Chemscore.ZeroCoef>
-5.4800

> <Gold.Chemscore.Hbond>
1.8603

> <Gold.Chemscore.Metal>
0.0000

> <Gold.Chemscore.Lipo>
76.7862

> <Gold.Chemscore.Internal_Hbond>
0.0000

> <Gold.Chemscore.DEClash>
0.8410

> <Gold.Chemscore.DEInternal>
1.5723

> <Gold.Chemscore.Rot>
1.4928

> <Gold.Chemscore.Internal.Correction>
   9.000000E+99

> <Gold.Chemscore.Hbonds>
donor molecule, donor type, donor heavy atom, donor atom, acceptor molecule, acceptor atom, score
      L1  H     7    30       P1  7948  0.60
      P1  H  6896  6907       L1    14  0.53

> <Gold.Chemscore.Hbond.Weighted>
-6.2134

> <Gold.Chemscore.Metal.Weighted>
-0.0000

> <Gold.Chemscore.Lipo.Weighted>
-8.9840

> <Gold.Chemscore.Internal_Hbond.Weighted>
0.0000

> <Gold.Chemscore.DEClash.Weighted>
0.8410

> <Gold.Chemscore.DEInternal.Weighted>
1.5723

> <Gold.Chemscore.Rot.Weighted>
3.8217

> <Gold.Chemscore.Internal.Correction.Weighted>
   9.000000E+99

> <Gold.Protein.RotatedTorsions>
[ 6907 6896 6895 6894 ] final -134.59 input  -60.11 | X-H torsion
[ 7974 7965 7964 7962 ] final -101.57 input  175.53 | X-H torsion
[ 8008 7997 7996 7995 ] final  -75.56 input   59.86 | X-H torsion
[ 10167 10162 10161 10158 ] final  156.57 input  -65.29 | X-H torsion
[ 10718 10713 10712 10709 ] final  -13.61 input   66.30 | X-H torsion
[ 10763 10752 10751 10750 ] final -103.89 input  -60.55 | X-H torsion
[ 11005 11000 10999 10996 ] final  114.55 input  -57.11 | X-H torsion

> <Gold.Protein.ActiveResidues>
 VAL166  LYS551  ARG553  GLY616  TRP617  ASP618  TYR619  PRO620  LYS621  CYS622 
 ASP623  PHE694  ASN695  SER759  ASP760  ASP761  ALA762  ILE779  LEU786  VAL792 
 PHE793  MET794  SER795  GLU796  ALA797  LYS798  CYS799  TRP800  GLU811  SER814 

> <Gold.Protein.RotatedAtoms>
  150.9877  133.6181  159.2712 H   0  0  0  0  0  0  0  0  0  0  0  0  # atno 6907 bound_to 6896
  151.3413  135.0863  159.9382 H   0  0  0  0  0  0  0  0  0  0  0  0  # atno 6908 bound_to 6896
  152.5236  133.9487  159.7716 H   0  0  0  0  0  0  0  0  0  0  0  0  # atno 6909 bound_to 6896
  145.2799  140.9323  143.2938 H   0  0  0  0  0  0  0  0  0  0  0  0  # atno 7974 bound_to 7965
  154.5427  140.0742  156.8537 H   0  0  0  0  0  0  0  0  0  0  0  0  # atno 8008 bound_to 7997
  155.3148  140.3392  155.4224 H   0  0  0  0  0  0  0  0  0  0  0  0  # atno 8009 bound_to 7997
  156.1890  140.1679  156.8116 H   0  0  0  0  0  0  0  0  0  0  0  0  # atno 8010 bound_to 7997
  139.4821  144.4997  151.8187 H   0  0  0  0  0  0  0  0  0  0  0  0  # atno 10167 bound_to 10162
  156.6278  130.4893  149.6140 H   0  0  0  0  0  0  0  0  0  0  0  0  # atno 10718 bound_to 10713
  154.7839  135.4806  153.9904 H   0  0  0  0  0  0  0  0  0  0  0  0  # atno 10763 bound_to 10752
  153.1533  135.6795  153.8857 H   0  0  0  0  0  0  0  0  0  0  0  0  # atno 10764 bound_to 10752
  153.8494  135.3169  155.3409 H   0  0  0  0  0  0  0  0  0  0  0  0  # atno 10765 bound_to 10752
  139.8984  134.9569  156.6909 H   0  0  0  0  0  0  0  0  0  0  0  0  # atno 11005 bound_to 11000
  144.9262  139.4352  143.6517 LP  0  0  0  0  0  0  0  0  0  0  0  0  # atno 17320 bound_to 7965
  146.3220  139.8149  142.8938 LP  0  0  0  0  0  0  0  0  0  0  0  0  # atno 17321 bound_to 7965
  140.4489  144.1883  150.5896 LP  0  0  0  0  0  0  0  0  0  0  0  0  # atno 17342 bound_to 10162
  140.4606  143.2450  151.9225 LP  0  0  0  0  0  0  0  0  0  0  0  0  # atno 17343 bound_to 10162
  156.2259  130.6765  151.1415 LP  0  0  0  0  0  0  0  0  0  0  0  0  # atno 17370 bound_to 10713
  157.7209  131.0682  150.6140 LP  0  0  0  0  0  0  0  0  0  0  0  0  # atno 17371 bound_to 10713
  140.7225  133.9128  155.8156 LP  0  0  0  0  0  0  0  0  0  0  0  0  # atno 17394 bound_to 11000
  141.0216  134.0881  157.4114 LP  0  0  0  0  0  0  0  0  0  0  0  0  # atno 17395 bound_to 11000

$$$$
