AV-unprocessed.smi:3178|AV-procd|sdf|12130|dock7
  -GOLD-   2272017573D 1   1.00000     0.00000
 Structure written by MMmdl.
 35 35  0  0  0  0  0  0  0  0  1 V2000
  152.4529  143.7885  161.9113 C   0  0  0  0  0  0  0  0  0  0  0  0
  151.4523  143.5838  160.9216 O   0  0  0  0  0  0  0  0  0  0  0  0
  151.8719  143.2925  159.5837 C   0  0  0  0  0  0  0  0  0  0  0  0
  152.4100  144.5829  158.9349 C   0  0  0  0  0  0  0  0  0  0  0  0
  152.9440  142.1778  159.5415 C   0  0  0  0  0  0  0  0  0  0  0  0
  150.5890  142.8506  158.8377 C   0  0  0  0  0  0  0  0  0  0  0  0
  150.8927  142.2487  157.5432 N   0  0  0  0  0  0  0  0  0  0  0  0
  150.8409  140.9367  157.2648 C   0  0  0  0  0  0  0  0  0  0  0  0
  150.3548  140.0972  158.0223 O   0  0  0  0  0  0  0  0  0  0  0  0
  151.4775  140.5013  155.9448 C   0  0  0  0  0  0  0  0  0  0  0  0
  150.4240  139.9004  155.0493 C   0  0  0  0  0  0  0  0  0  0  0  0
  149.1703  140.4636  154.6644 C   0  0  0  0  0  0  0  0  0  0  0  0
  148.5891  139.5013  153.8889 C   0  0  0  0  0  0  0  0  0  0  0  0
  147.2693  139.4634  153.1962 C   0  0  0  0  0  0  0  0  0  0  0  0
  149.4849  138.4583  153.8370 N   0  0  0  0  0  0  0  0  0  0  0  0
  150.6088  138.6903  154.5401 N   0  0  0  0  0  0  0  0  0  0  0  0
  149.3439  137.5941  153.3333 H   0  0  0  0  0  0  0  0  0  0  0  0
  151.9709  144.0892  162.8411 H   0  0  0  0  0  0  0  0  0  0  0  0
  153.1550  144.5750  161.6376 H   0  0  0  0  0  0  0  0  0  0  0  0
  153.0068  142.8733  162.1197 H   0  0  0  0  0  0  0  0  0  0  0  0
  152.6267  144.4284  157.8774 H   0  0  0  0  0  0  0  0  0  0  0  0
  153.3328  144.9250  159.4022 H   0  0  0  0  0  0  0  0  0  0  0  0
  151.6829  145.3925  159.0068 H   0  0  0  0  0  0  0  0  0  0  0  0
  153.1434  141.8673  158.5155 H   0  0  0  0  0  0  0  0  0  0  0  0
  152.6321  141.2941  160.0993 H   0  0  0  0  0  0  0  0  0  0  0  0
  153.8931  142.5110  159.9616 H   0  0  0  0  0  0  0  0  0  0  0  0
  150.0017  142.1674  159.4539 H   0  0  0  0  0  0  0  0  0  0  0  0
  149.9507  143.7153  158.6534 H   0  0  0  0  0  0  0  0  0  0  0  0
  151.2985  142.8576  156.8474 H   0  0  0  0  0  0  0  0  0  0  0  0
  151.9394  141.3620  155.4597 H   0  0  0  0  0  0  0  0  0  0  0  0
  152.2781  139.7894  156.1516 H   0  0  0  0  0  0  0  0  0  0  0  0
  148.7560  141.4239  154.9341 H   0  0  0  0  0  0  0  0  0  0  0  0
  147.1607  140.3162  152.5261 H   0  0  0  0  0  0  0  0  0  0  0  0
  146.4550  139.4968  153.9200 H   0  0  0  0  0  0  0  0  0  0  0  0
  147.1574  138.5540  152.6053 H   0  0  0  0  0  0  0  0  0  0  0  0
  1  2  1  0  0  0  0
  1 18  1  0  0  0  0
  1 19  1  0  0  0  0
  1 20  1  0  0  0  0
  2  3  1  0  0  0  0
  3  4  1  0  0  0  0
  3  5  1  0  0  0  0
  3  6  1  0  0  0  0
  4 21  1  0  0  0  0
  4 22  1  0  0  0  0
  4 23  1  0  0  0  0
  5 24  1  0  0  0  0
  5 25  1  0  0  0  0
  5 26  1  0  0  0  0
  6  7  1  0  0  0  0
  6 27  1  0  0  0  0
  6 28  1  0  0  0  0
  7  8  1  0  0  0  0
  7 29  1  0  0  0  0
  8  9  2  0  0  0  0
  8 10  1  0  0  0  0
 10 11  1  0  0  0  0
 10 30  1  0  0  0  0
 10 31  1  0  0  0  0
 11 16  2  0  0  0  0
 11 12  1  0  0  0  0
 12 13  2  0  0  0  0
 12 32  1  0  0  0  0
 13 14  1  0  0  0  0
 13 15  1  0  0  0  0
 14 33  1  0  0  0  0
 14 34  1  0  0  0  0
 14 35  1  0  0  0  0
 15 17  1  0  0  0  0
 15 16  1  0  0  0  0
M  END
> <s_m_source_file>
AV-unprocessed.smi

> <i_m_source_file_index>
3178

> <i_lp_mmshare_version>
43012

> <i_f3d_flags>
0

> <s_epik_input>
W0NIM11PQyhbQ0gzXSkoW0NIM10pW0NIMl1bTkhdQyg9TylbQ0gyXWMxW2NIXWMoW0NIM10pW25IXW4x

> <s_epik_cmdline>
J2VwaWtfcHl0aG9uJywgJy1waCcsICc3LjAnLCAnLXRuJywgJzgnLCAnLW1hJywgJzIwMCcsICctbWV0YWxfYmluZGluZycsICctaW1hZScsICc8aW5maWxlLm1hZT4nLCAnLW9tYWUnLCAnPG91dGZpbGUubWFlPic=

> <r_lp_tautomer_probability>
0.5

> <r_epik_Ionization_Penalty>
8.10473e-05

> <r_epik_Ionization_Penalty_Charging>
0

> <r_epik_Ionization_Penalty_Neutral>
8.10473e-05

> <r_epik_State_Penalty>
0.41068

> <r_epik_Charging_Adjusted_Penalty>
0.41068

> <i_epik_Tot_Q>
0

> <i_epik_Tot_abs_Q>
0

> <r_epik_Metal_State_Penalty>
0.410702

> <b_epik_Metal_Only>
0

> <s_lp_Force_Field>
OPLS_2005

> <r_lp_Energy>
5.73531

> <b_lp_Chiralities_Consistent>
1

> <s_lp_Variant>
AV-unprocessed.smi:3178-1

> <Gold.Version>
5.8.1

> <Gold.Id.Protein>
6NUR|6NUR_protein|mol2

> <Gold.PLP.Fitness>
36.9906

> <Gold.PLP.PLP>
-34.7790

> <Gold.PLP.part.hbond>
-2.3396

> <Gold.PLP.part.metal>
0.0000

> <Gold.PLP.part.buried>
-1.5901

> <Gold.PLP.part.nonpolar>
-30.2264

> <Gold.PLP.part.repulsive>
0.3780

> <Gold.PLP.ligand.clash>
0.0000

> <Gold.PLP.ligand.torsion>
0.4075

> <Gold.PLP.Chemscore.Hbond>
1.0000

> <Gold.PLP.Chemscore.CHOScore>
0.0000

> <Gold.PLP.Chemscore.Metal>
0.0000

> <Gold.Chemscore.Hbonds>
donor molecule, donor type, donor heavy atom, donor atom, acceptor molecule, acceptor atom, score
      L1  H    15    17       P1  7948  1.00

> <Gold.PLP.Chemscore.Internal.Correction>
0.0265

> <Gold.Rescore>
     Score         DG    S(hbond)    S(metal)    S(lipo)     H(rot)  DE(clash)    DE(int)     intcor
     13.60     -14.21       0.95        0.00      88.94       1.89       0.27       0.34       ----

> <Gold.Chemscore.Fitness>
13.6011

> <Gold.Chemscore.DG>
-14.2104

> <Gold.Chemscore.ZeroCoef>
-5.4800

> <Gold.Chemscore.Hbond>
0.9451

> <Gold.Chemscore.Metal>
0.0000

> <Gold.Chemscore.Lipo>
88.9436

> <Gold.Chemscore.Internal_Hbond>
0.0000

> <Gold.Chemscore.DEClash>
0.2704

> <Gold.Chemscore.DEInternal>
0.3390

> <Gold.Chemscore.Rot>
1.8877

> <Gold.Chemscore.Internal.Correction>
   9.000000E+99

> <Gold.Chemscore.Hbonds>
donor molecule, donor type, donor heavy atom, donor atom, acceptor molecule, acceptor atom, score
      L1  H    15    17       P1  7948  0.91

> <Gold.Chemscore.Hbond.Weighted>
-3.1566

> <Gold.Chemscore.Metal.Weighted>
-0.0000

> <Gold.Chemscore.Lipo.Weighted>
-10.4064

> <Gold.Chemscore.Internal_Hbond.Weighted>
0.0000

> <Gold.Chemscore.DEClash.Weighted>
0.2704

> <Gold.Chemscore.DEInternal.Weighted>
0.3390

> <Gold.Chemscore.Rot.Weighted>
4.8325

> <Gold.Chemscore.Internal.Correction.Weighted>
   9.000000E+99

> <Gold.Protein.RotatedTorsions>
[ 6907 6896 6895 6894 ] final -143.69 input  -60.11 | X-H torsion
[ 7974 7965 7964 7962 ] final    1.55 input  175.53 | X-H torsion
[ 8008 7997 7996 7995 ] final  -21.01 input   59.86 | X-H torsion
[ 10167 10162 10161 10158 ] final  125.64 input  -65.29 | X-H torsion
[ 10718 10713 10712 10709 ] final  118.87 input   66.30 | X-H torsion
[ 10763 10752 10751 10750 ] final  147.78 input  -60.55 | X-H torsion
[ 11005 11000 10999 10996 ] final -162.67 input  -57.11 | X-H torsion

> <Gold.Protein.ActiveResidues>
 VAL166  LYS551  ARG553  GLY616  TRP617  ASP618  TYR619  PRO620  LYS621  CYS622 
 ASP623  PHE694  ASN695  SER759  ASP760  ASP761  ALA762  ILE779  LEU786  VAL792 
 PHE793  MET794  SER795  GLU796  ALA797  LYS798  CYS799  TRP800  GLU811  SER814 

> <Gold.Protein.RotatedAtoms>
  151.1039  133.5223  159.2608 H   0  0  0  0  0  0  0  0  0  0  0  0  # atno 6907 bound_to 6896
  151.2043  135.0455  159.8895 H   0  0  0  0  0  0  0  0  0  0  0  0  # atno 6908 bound_to 6896
  152.5445  134.0863  159.8311 H   0  0  0  0  0  0  0  0  0  0  0  0  # atno 6909 bound_to 6896
  146.2441  140.0969  142.8349 H   0  0  0  0  0  0  0  0  0  0  0  0  # atno 7974 bound_to 7965
  154.4733  140.2046  155.9941 H   0  0  0  0  0  0  0  0  0  0  0  0  # atno 8008 bound_to 7997
  156.1047  140.3238  155.7959 H   0  0  0  0  0  0  0  0  0  0  0  0  # atno 8009 bound_to 7997
  155.4738  140.0533  157.2967 H   0  0  0  0  0  0  0  0  0  0  0  0  # atno 8010 bound_to 7997
  139.5675  144.6919  151.3871 H   0  0  0  0  0  0  0  0  0  0  0  0  # atno 10167 bound_to 10162
  157.6001  131.1052  150.7816 H   0  0  0  0  0  0  0  0  0  0  0  0  # atno 10718 bound_to 10713
  154.0439  135.2887  155.3351 H   0  0  0  0  0  0  0  0  0  0  0  0  # atno 10763 bound_to 10752
  154.6911  135.5226  153.8397 H   0  0  0  0  0  0  0  0  0  0  0  0  # atno 10764 bound_to 10752
  153.0588  135.6606  154.0641 H   0  0  0  0  0  0  0  0  0  0  0  0  # atno 10765 bound_to 10752
  140.6067  134.4891  157.5211 H   0  0  0  0  0  0  0  0  0  0  0  0  # atno 11005 bound_to 11000
  145.0602  140.9082  143.4943 LP  0  0  0  0  0  0  0  0  0  0  0  0  # atno 17320 bound_to 7965
  145.1083  139.2774  143.5650 LP  0  0  0  0  0  0  0  0  0  0  0  0  # atno 17321 bound_to 7965
  140.6958  143.7751  150.7325 LP  0  0  0  0  0  0  0  0  0  0  0  0  # atno 17342 bound_to 10162
  140.1247  143.4580  152.2291 LP  0  0  0  0  0  0  0  0  0  0  0  0  # atno 17343 bound_to 10162
  156.8218  130.4986  149.5342 LP  0  0  0  0  0  0  0  0  0  0  0  0  # atno 17370 bound_to 10713
  156.1072  130.6013  150.9990 LP  0  0  0  0  0  0  0  0  0  0  0  0  # atno 17371 bound_to 10713
  139.9209  134.8150  156.1214 LP  0  0  0  0  0  0  0  0  0  0  0  0  # atno 17394 bound_to 11000
  141.0836  133.6744  156.2388 LP  0  0  0  0  0  0  0  0  0  0  0  0  # atno 17395 bound_to 11000

$$$$
