AV-unprocessed.smi:1447|AV-procd|sdf|5892|dock3
  -GOLD-   22720 5573D 1   1.00000     0.00000
 Structure written by MMmdl.
 48 50  0  0  0  0  0  0  0  0  2 V2000
  154.9933  134.0152  156.6913 C   0  0  0  0  0  0  0  0  0  0  0  0
  154.6931  135.3192  156.2259 O   0  0  0  0  0  0  0  0  0  0  0  0
  154.3143  136.1959  157.2733 C   0  0  0  0  0  0  0  0  0  0  0  0
  154.0377  137.5865  156.6820 C   0  0  0  0  0  0  0  0  0  0  0  0
  152.8143  137.5939  155.8734 N   0  0  0  0  0  0  0  0  0  0  0  0
  152.0886  136.4156  155.9360 N   0  0  0  0  0  0  0  0  0  0  0  0
  150.9839  136.2968  155.2726 C   0  0  0  0  0  0  0  0  0  0  0  0
  150.1732  135.0480  155.3139 C   0  0  0  0  0  0  0  0  0  0  0  0
  150.3714  134.1703  156.1560 O   0  0  0  0  0  0  0  0  0  0  0  0
  149.2159  134.9499  154.3735 N   0  0  0  0  0  0  0  0  0  0  0  0
  148.3038  133.8218  154.2136 C   0  0  2  0  0  0  0  0  0  0  0  0
  148.5888  133.1049  152.8837 C   0  0  0  0  0  0  0  0  0  0  0  0
  147.5842  131.9625  152.6389 C   0  0  0  0  0  0  0  0  0  0  0  0
  146.1763  132.4332  152.6977 N   0  3  2  0  0  0  0  0  0  0  0  0
  145.7650  133.2042  151.5008 C   0  0  0  0  0  0  0  0  0  0  0  0
  144.3292  132.9707  151.0926 C   0  0  0  0  0  0  0  0  0  0  0  0
  145.4535  132.3393  150.3018 C   0  0  0  0  0  0  0  0  0  0  0  0
  145.8710  133.1244  153.9766 C   0  0  0  0  0  0  0  0  0  0  0  0
  146.8373  134.2921  154.2503 C   0  0  0  0  0  0  0  0  0  0  0  0
  150.4864  137.3892  154.4536 C   0  0  0  0  0  0  0  0  0  0  0  0
  151.2028  138.5336  154.4065 C   0  0  0  0  0  0  0  0  0  0  0  0
  152.4524  138.6968  155.1509 C   0  0  0  0  0  0  0  0  0  0  0  0
  153.1164  139.7327  155.1326 O   0  0  0  0  0  0  0  0  0  0  0  0
  155.2765  133.3819  155.8507 H   0  0  0  0  0  0  0  0  0  0  0  0
  154.1291  133.5614  157.1781 H   0  0  0  0  0  0  0  0  0  0  0  0
  155.8253  134.0295  157.3968 H   0  0  0  0  0  0  0  0  0  0  0  0
  153.4211  135.8161  157.7718 H   0  0  0  0  0  0  0  0  0  0  0  0
  155.1097  136.2498  158.0184 H   0  0  0  0  0  0  0  0  0  0  0  0
  153.9710  138.3264  157.4817 H   0  0  0  0  0  0  0  0  0  0  0  0
  154.8881  137.8962  156.0715 H   0  0  0  0  0  0  0  0  0  0  0  0
  149.1193  135.7148  153.7206 H   0  0  0  0  0  0  0  0  0  0  0  0
  148.4702  133.1113  155.0259 H   0  0  0  0  0  0  0  0  0  0  0  0
  148.5465  133.8169  152.0584 H   0  0  0  0  0  0  0  0  0  0  0  0
  149.6032  132.7036  152.8876 H   0  0  0  0  0  0  0  0  0  0  0  0
  147.7778  131.4847  151.6778 H   0  0  0  0  0  0  0  0  0  0  0  0
  147.7205  131.1907  153.3976 H   0  0  0  0  0  0  0  0  0  0  0  0
  146.2179  134.1848  151.3670 H   0  0  0  0  0  0  0  0  0  0  0  0
  143.7177  132.3140  151.7088 H   0  0  0  0  0  0  0  0  0  0  0  0
  143.7984  133.7998  150.6288 H   0  0  0  0  0  0  0  0  0  0  0  0
  145.6624  132.7519  149.3165 H   0  0  0  0  0  0  0  0  0  0  0  0
  145.5870  131.2626  150.3924 H   0  0  0  0  0  0  0  0  0  0  0  0
  144.8391  133.4768  153.9737 H   0  0  0  0  0  0  0  0  0  0  0  0
  145.9436  132.3965  154.7859 H   0  0  0  0  0  0  0  0  0  0  0  0
  146.6075  134.7308  155.2220 H   0  0  0  0  0  0  0  0  0  0  0  0
  146.6803  135.0830  153.5156 H   0  0  0  0  0  0  0  0  0  0  0  0
  149.5672  137.2971  153.8935 H   0  0  0  0  0  0  0  0  0  0  0  0
  150.8441  139.3539  153.8024 H   0  0  0  0  0  0  0  0  0  0  0  0
  145.6029  131.6015  152.6865 H   0  0  0  0  0  0  0  0  0  0  0  0
  1  2  1  0  0  0  0
  1 24  1  0  0  0  0
  1 25  1  0  0  0  0
  1 26  1  0  0  0  0
  2  3  1  0  0  0  0
  3  4  1  0  0  0  0
  3 27  1  0  0  0  0
  3 28  1  0  0  0  0
  4  5  1  0  0  0  0
  4 29  1  0  0  0  0
  4 30  1  0  0  0  0
  5 22  1  0  0  0  0
  5  6  1  0  0  0  0
  6  7  2  0  0  0  0
  7  8  1  0  0  0  0
  7 20  1  0  0  0  0
  8  9  2  0  0  0  0
  8 10  1  0  0  0  0
 10 11  1  0  0  0  0
 10 31  1  0  0  0  0
 11 19  1  0  0  0  0
 11 12  1  0  0  0  0
 11 32  1  0  0  0  0
 12 13  1  0  0  0  0
 12 33  1  0  0  0  0
 12 34  1  0  0  0  0
 13 14  1  0  0  0  0
 13 35  1  0  0  0  0
 13 36  1  0  0  0  0
 14 15  1  0  0  0  0
 14 18  1  0  0  0  0
 14 48  1  0  0  0  0
 15 17  1  0  0  0  0
 15 16  1  0  0  0  0
 15 37  1  0  0  0  0
 16 17  1  0  0  0  0
 16 38  1  0  0  0  0
 16 39  1  0  0  0  0
 17 40  1  0  0  0  0
 17 41  1  0  0  0  0
 18 19  1  0  0  0  0
 18 42  1  0  0  0  0
 18 43  1  0  0  0  0
 19 44  1  0  0  0  0
 19 45  1  0  0  0  0
 20 21  2  0  0  0  0
 20 46  1  0  0  0  0
 21 22  1  0  0  0  0
 21 47  1  0  0  0  0
 22 23  2  0  0  0  0
M  CHG  1  14   1
M  END
> <s_m_source_file>
AV-unprocessed.smi

> <i_m_source_file_index>
1447

> <i_lp_mmshare_version>
43012

> <i_f3d_flags>
0

> <s_epik_input>
W0NIM11PW0NIMl1bQ0gyXW4xbmMoW2NIXVtjSF1jMT1PKUMoPU8pW05IXVtDSF0yW0NIMl1bQ0gyXU4oW0NIMl1bQ0gyXTIpW0NIXTNbQ0gyXVtDSDJdMw==

> <s_epik_cmdline>
J2VwaWtfcHl0aG9uJywgJy1waCcsICc3LjAnLCAnLXRuJywgJzgnLCAnLW1hJywgJzIwMCcsICctbWV0YWxfYmluZGluZycsICctaW1hZScsICc8aW5maWxlLm1hZT4nLCAnLW9tYWUnLCAnPG91dGZpbGUubWFlPic=

> <r_lp_tautomer_probability>
1

> <r_epik_Ionization_Penalty>
0.168623

> <r_epik_Ionization_Penalty_Charging>
0.16862

> <r_epik_Ionization_Penalty_Neutral>
2.93027e-06

> <r_epik_State_Penalty>
0.157986

> <r_epik_Charging_Adjusted_Penalty>
0.326605

> <i_epik_Tot_Q>
1

> <i_epik_Tot_abs_Q>
1

> <r_epik_Metal_State_Penalty>
0.157986

> <b_epik_Metal_Only>
0

> <s_lp_Force_Field>
OPLS_2005

> <r_lp_Energy>
47.6191

> <b_lp_Chiralities_Consistent>
1

> <s_lp_Variant>
AV-unprocessed.smi:1447-2

> <Gold.Version>
5.8.1

> <Gold.Id.Protein>
6NUR|6NUR_protein|mol2

> <Gold.PLP.Fitness>
42.7453

> <Gold.PLP.PLP>
-34.0729

> <Gold.PLP.part.hbond>
-4.6228

> <Gold.PLP.part.metal>
0.0000

> <Gold.PLP.part.buried>
-2.2713

> <Gold.PLP.part.nonpolar>
-27.3337

> <Gold.PLP.part.repulsive>
0.0255

> <Gold.PLP.ligand.clash>
0.0000

> <Gold.PLP.ligand.torsion>
0.8194

> <Gold.PLP.Chemscore.Hbond>
3.0000

> <Gold.PLP.Chemscore.CHOScore>
0.0000

> <Gold.PLP.Chemscore.Metal>
0.0000

> <Gold.Chemscore.Hbonds>
donor molecule, donor type, donor heavy atom, donor atom, acceptor molecule, acceptor atom, score
      L1  H    10    31       P1  7948  0.91
      P1  H  7997  8008       L1    23  1.00
      P1  H 10752 10764       L1     6  0.18

> <Gold.PLP.Chemscore.Internal.Correction>
1.3111

> <Gold.Rescore>
     Score         DG    S(hbond)    S(metal)    S(lipo)     H(rot)  DE(clash)    DE(int)     intcor
     17.42     -19.82       2.88        0.00      78.78       1.76       0.25       2.14       ----

> <Gold.Chemscore.Fitness>
17.4224

> <Gold.Chemscore.DG>
-19.8170

> <Gold.Chemscore.ZeroCoef>
-5.4800

> <Gold.Chemscore.Hbond>
2.8826

> <Gold.Chemscore.Metal>
0.0000

> <Gold.Chemscore.Lipo>
78.7760

> <Gold.Chemscore.Internal_Hbond>
0.0000

> <Gold.Chemscore.DEClash>
0.2534

> <Gold.Chemscore.DEInternal>
2.1412

> <Gold.Chemscore.Rot>
1.7608

> <Gold.Chemscore.Internal.Correction>
   9.000000E+99

> <Gold.Chemscore.Hbonds>
donor molecule, donor type, donor heavy atom, donor atom, acceptor molecule, acceptor atom, score
      L1  H    10    31       P1  7948  0.69
      P1  H  7997  8008       L1    23  0.99
      P1  H 10752 10764       L1     2  0.07

> <Gold.Chemscore.Hbond.Weighted>
-9.6279

> <Gold.Chemscore.Metal.Weighted>
-0.0000

> <Gold.Chemscore.Lipo.Weighted>
-9.2168

> <Gold.Chemscore.Internal_Hbond.Weighted>
0.0000

> <Gold.Chemscore.DEClash.Weighted>
0.2534

> <Gold.Chemscore.DEInternal.Weighted>
2.1412

> <Gold.Chemscore.Rot.Weighted>
4.5077

> <Gold.Chemscore.Internal.Correction.Weighted>
   9.000000E+99

> <Gold.Protein.RotatedTorsions>
[ 6907 6896 6895 6894 ] final   80.60 input  -60.11 | X-H torsion
[ 7974 7965 7964 7962 ] final  -23.97 input  175.53 | X-H torsion
[ 8008 7997 7996 7995 ] final  -19.89 input   59.86 | X-H torsion
[ 10167 10162 10161 10158 ] final  -24.18 input  -65.29 | X-H torsion
[ 10718 10713 10712 10709 ] final  -47.07 input   66.30 | X-H torsion
[ 10763 10752 10751 10750 ] final   12.14 input  -60.55 | X-H torsion
[ 11005 11000 10999 10996 ] final -172.21 input  -57.11 | X-H torsion

> <Gold.Protein.ActiveResidues>
 VAL166  LYS551  ARG553  GLY616  TRP617  ASP618  TYR619  PRO620  LYS621  CYS622 
 ASP623  PHE694  ASN695  SER759  ASP760  ASP761  ALA762  ILE779  LEU786  VAL792 
 PHE793  MET794  SER795  GLU796  ALA797  LYS798  CYS799  TRP800  GLU811  SER814 

> <Gold.Protein.RotatedAtoms>
  152.5240  134.3332  159.9190 H   0  0  0  0  0  0  0  0  0  0  0  0  # atno 6907 bound_to 6896
  151.3281  133.4005  159.2668 H   0  0  0  0  0  0  0  0  0  0  0  0  # atno 6908 bound_to 6896
  150.9903  134.9257  159.7953 H   0  0  0  0  0  0  0  0  0  0  0  0  # atno 6909 bound_to 6896
  146.1583  140.4688  142.8582 H   0  0  0  0  0  0  0  0  0  0  0  0  # atno 7974 bound_to 7965
  154.4806  140.2076  155.9772 H   0  0  0  0  0  0  0  0  0  0  0  0  # atno 8008 bound_to 7997
  156.1159  140.3221  155.8108 H   0  0  0  0  0  0  0  0  0  0  0  0  # atno 8009 bound_to 7997
  155.4553  140.0520  157.2987 H   0  0  0  0  0  0  0  0  0  0  0  0  # atno 8010 bound_to 7997
  140.7288  143.4376  151.0706 H   0  0  0  0  0  0  0  0  0  0  0  0  # atno 10167 bound_to 10162
  156.2120  130.4161  149.9102 H   0  0  0  0  0  0  0  0  0  0  0  0  # atno 10718 bound_to 10713
  153.1853  135.6834  153.8424 H   0  0  0  0  0  0  0  0  0  0  0  0  # atno 10763 bound_to 10752
  153.7742  135.3191  155.3357 H   0  0  0  0  0  0  0  0  0  0  0  0  # atno 10764 bound_to 10752
  154.8084  135.4733  154.0550 H   0  0  0  0  0  0  0  0  0  0  0  0  # atno 10765 bound_to 10752
  140.4996  134.5907  157.4983 H   0  0  0  0  0  0  0  0  0  0  0  0  # atno 11005 bound_to 11000
  144.7993  140.6183  143.6489 LP  0  0  0  0  0  0  0  0  0  0  0  0  # atno 17320 bound_to 7965
  145.4652  139.1509  143.3844 LP  0  0  0  0  0  0  0  0  0  0  0  0  # atno 17321 bound_to 7965
  139.8040  143.8044  152.3165 LP  0  0  0  0  0  0  0  0  0  0  0  0  # atno 17342 bound_to 10162
  139.8070  144.7351  150.9747 LP  0  0  0  0  0  0  0  0  0  0  0  0  # atno 17343 bound_to 10162
  156.6777  130.8845  151.3571 LP  0  0  0  0  0  0  0  0  0  0  0  0  # atno 17370 bound_to 10713
  157.7043  130.9368  150.0883 LP  0  0  0  0  0  0  0  0  0  0  0  0  # atno 17371 bound_to 10713
  139.9721  134.7275  156.0020 LP  0  0  0  0  0  0  0  0  0  0  0  0  # atno 17394 bound_to 11000
  141.1442  133.6559  156.3820 LP  0  0  0  0  0  0  0  0  0  0  0  0  # atno 17395 bound_to 11000

$$$$
