AV-unprocessed.smi:672|AV-procd|sdf|3295|dock9
  -GOLD-   22720 0253D 1   1.00000     0.00000
 Structure written by MMmdl.
 35 36  0  0  0  0  0  0  0  0  2 V2000
  150.2051  133.3268  155.2593 C   0  0  0  0  0  0  0  0  0  0  0  0
  150.2048  134.7331  154.6505 C   0  0  0  0  0  0  0  0  0  0  0  0
  150.7959  135.7532  155.5651 C   0  0  0  0  0  0  0  0  0  0  0  0
  151.8584  136.4930  155.2371 N   0  0  0  0  0  0  0  0  0  0  0  0
  152.2362  137.3484  156.2617 N   0  0  0  0  0  0  0  0  0  0  0  0
  151.4751  137.2231  157.3583 C   0  0  0  0  0  0  0  0  0  0  0  0
  151.6764  137.9561  158.4657 N   0  5  0  0  0  0  0  0  0  0  0  0
  152.6651  138.8787  158.4933 C   0  0  0  0  0  0  0  0  0  0  0  0
  153.6935  138.8680  157.8126 O   0  0  0  0  0  0  0  0  0  0  0  0
  152.4518  139.8729  159.3670 N   0  0  0  0  0  0  0  0  0  0  0  0
  153.3397  141.0091  159.6048 C   0  0  2  0  0  0  0  0  0  0  0  0
  153.6613  141.1815  161.1037 C   0  0  0  0  0  0  0  0  0  0  0  0
  152.9307  142.4483  161.5483 C   0  0  0  0  0  0  0  0  0  0  0  0
  152.9065  143.3228  160.2975 C   0  0  2  0  0  0  0  0  0  0  0  0
  151.6423  144.6243  160.3836 S   0  0  0  0  0  0  0  0  0  0  0  0
  152.0842  145.5992  158.9214 C   0  0  0  0  0  0  0  0  0  0  0  0
  152.6753  142.3253  159.1577 C   0  0  0  0  0  0  0  0  0  0  0  0
  150.1894  136.0289  157.1893 S   0  0  0  0  0  0  0  0  0  0  0  0
  149.7679  132.6045  154.5699 H   0  0  0  0  0  0  0  0  0  0  0  0
  149.6262  133.2989  156.1829 H   0  0  0  0  0  0  0  0  0  0  0  0
  151.2187  132.9976  155.4895 H   0  0  0  0  0  0  0  0  0  0  0  0
  150.7630  134.7331  153.7136 H   0  0  0  0  0  0  0  0  0  0  0  0
  149.1852  135.0326  154.4064 H   0  0  0  0  0  0  0  0  0  0  0  0
  151.5989  139.8398  159.9058 H   0  0  0  0  0  0  0  0  0  0  0  0
  154.2678  140.8656  159.0485 H   0  0  0  0  0  0  0  0  0  0  0  0
  153.3845  140.3190  161.7114 H   0  0  0  0  0  0  0  0  0  0  0  0
  154.7359  141.3240  161.2243 H   0  0  0  0  0  0  0  0  0  0  0  0
  151.9126  142.1937  161.8474 H   0  0  0  0  0  0  0  0  0  0  0  0
  153.4154  142.9363  162.3943 H   0  0  0  0  0  0  0  0  0  0  0  0
  153.8855  143.7889  160.1770 H   0  0  0  0  0  0  0  0  0  0  0  0
  151.4360  146.4719  158.8439 H   0  0  0  0  0  0  0  0  0  0  0  0
  151.9698  145.0051  158.0148 H   0  0  0  0  0  0  0  0  0  0  0  0
  153.1174  145.9400  158.9877 H   0  0  0  0  0  0  0  0  0  0  0  0
  153.0798  142.6852  158.2112 H   0  0  0  0  0  0  0  0  0  0  0  0
  151.6030  142.1801  159.0141 H   0  0  0  0  0  0  0  0  0  0  0  0
  1  2  1  0  0  0  0
  1 19  1  0  0  0  0
  1 20  1  0  0  0  0
  1 21  1  0  0  0  0
  2  3  1  0  0  0  0
  2 22  1  0  0  0  0
  2 23  1  0  0  0  0
  3 18  1  0  0  0  0
  3  4  2  0  0  0  0
  4  5  1  0  0  0  0
  5  6  2  0  0  0  0
  6  7  1  0  0  0  0
  6 18  1  0  0  0  0
  7  8  1  0  0  0  0
  8  9  2  0  0  0  0
  8 10  1  0  0  0  0
 10 11  1  0  0  0  0
 10 24  1  0  0  0  0
 11 17  1  0  0  0  0
 11 12  1  0  0  0  0
 11 25  1  0  0  0  0
 12 13  1  0  0  0  0
 12 26  1  0  0  0  0
 12 27  1  0  0  0  0
 13 14  1  0  0  0  0
 13 28  1  0  0  0  0
 13 29  1  0  0  0  0
 14 15  1  0  0  0  0
 14 17  1  0  0  0  0
 14 30  1  0  0  0  0
 15 16  1  0  0  0  0
 16 31  1  0  0  0  0
 16 32  1  0  0  0  0
 16 33  1  0  0  0  0
 17 34  1  0  0  0  0
 17 35  1  0  0  0  0
M  CHG  1   7  -1
M  END
> <s_m_source_file>
AV-unprocessed.smi

> <i_m_source_file_index>
672

> <i_lp_mmshare_version>
43012

> <i_f3d_flags>
0

> <s_epik_input>
W0NIM11bQ0gyXWMxbm5jKHMxKVtOSF1DKD1PKVtOSF1bQ0BASF0yW0NIMl1bQ0gyXVtDQEhdKFtDSDJdMilTW0NIM10=

> <s_epik_cmdline>
J2VwaWtfcHl0aG9uJywgJy1waCcsICc3LjAnLCAnLXRuJywgJzgnLCAnLW1hJywgJzIwMCcsICctbWV0YWxfYmluZGluZycsICctaW1hZScsICc8aW5maWxlLm1hZT4nLCAnLW9tYWUnLCAnPG91dGZpbGUubWFlPic=

> <r_lp_tautomer_probability>
1

> <r_epik_Ionization_Penalty>
4.49964

> <r_epik_Ionization_Penalty_Charging>
4.32991

> <r_epik_Ionization_Penalty_Neutral>
0.169727

> <r_epik_State_Penalty>
4.32952

> <r_epik_Charging_Adjusted_Penalty>
8.65943

> <i_epik_Tot_Q>
-1

> <i_epik_Tot_abs_Q>
1

> <r_epik_Metal_State_Penalty>
0.740482

> <b_epik_Metal_Only>
1

> <s_lp_Force_Field>
OPLS_2005

> <r_lp_Energy>
9.98036

> <b_lp_Chiralities_Consistent>
1

> <s_lp_Variant>
AV-unprocessed.smi:672-7

> <Gold.Version>
5.8.1

> <Gold.Id.Protein>
6NUR|6NUR_protein|mol2

> <Gold.PLP.Fitness>
42.0470

> <Gold.PLP.PLP>
-36.5105

> <Gold.PLP.part.hbond>
-2.0000

> <Gold.PLP.part.metal>
0.0000

> <Gold.PLP.part.buried>
-4.9174

> <Gold.PLP.part.nonpolar>
-30.2315

> <Gold.PLP.part.repulsive>
0.2217

> <Gold.PLP.ligand.clash>
0.0000

> <Gold.PLP.ligand.torsion>
0.2524

> <Gold.PLP.Chemscore.Hbond>
2.0000

> <Gold.PLP.Chemscore.CHOScore>
0.0000

> <Gold.PLP.Chemscore.Metal>
0.0000

> <Gold.Chemscore.Hbonds>
donor molecule, donor type, donor heavy atom, donor atom, acceptor molecule, acceptor atom, score
      P1  H  7997  8008       L1     9  1.00
      P1  H 10752 10763       L1     4  1.00

> <Gold.PLP.Chemscore.Internal.Correction>
0.0413

> <Gold.Rescore>
     Score         DG    S(hbond)    S(metal)    S(lipo)     H(rot)  DE(clash)    DE(int)     intcor
     17.67     -19.62       1.83        0.00      97.91       1.34       0.07       1.88       ----

> <Gold.Chemscore.Fitness>
17.6685

> <Gold.Chemscore.DG>
-19.6153

> <Gold.Chemscore.ZeroCoef>
-5.4800

> <Gold.Chemscore.Hbond>
1.8302

> <Gold.Chemscore.Metal>
0.0000

> <Gold.Chemscore.Lipo>
97.9106

> <Gold.Chemscore.Internal_Hbond>
0.0000

> <Gold.Chemscore.DEClash>
0.0689

> <Gold.Chemscore.DEInternal>
1.8779

> <Gold.Chemscore.Rot>
1.3410

> <Gold.Chemscore.Internal.Correction>
   9.000000E+99

> <Gold.Chemscore.Hbonds>
donor molecule, donor type, donor heavy atom, donor atom, acceptor molecule, acceptor atom, score
      P1  H  7997  8008       L1     9  0.99
      P1  H 10752 10763       L1     4  0.61

> <Gold.Chemscore.Hbond.Weighted>
-6.1127

> <Gold.Chemscore.Metal.Weighted>
-0.0000

> <Gold.Chemscore.Lipo.Weighted>
-11.4555

> <Gold.Chemscore.Internal_Hbond.Weighted>
0.0000

> <Gold.Chemscore.DEClash.Weighted>
0.0689

> <Gold.Chemscore.DEInternal.Weighted>
1.8779

> <Gold.Chemscore.Rot.Weighted>
3.4329

> <Gold.Chemscore.Internal.Correction.Weighted>
   9.000000E+99

> <Gold.Protein.RotatedTorsions>
[ 6907 6896 6895 6894 ] final  -69.81 input  -60.11 | X-H torsion
[ 7974 7965 7964 7962 ] final  132.39 input  175.53 | X-H torsion
[ 8008 7997 7996 7995 ] final  -99.26 input   59.86 | X-H torsion
[ 10167 10162 10161 10158 ] final  -96.16 input  -65.29 | X-H torsion
[ 10718 10713 10712 10709 ] final   76.11 input   66.30 | X-H torsion
[ 10763 10752 10751 10750 ] final   64.22 input  -60.55 | X-H torsion
[ 11005 11000 10999 10996 ] final   44.13 input  -57.11 | X-H torsion

> <Gold.Protein.ActiveResidues>
 VAL166  LYS551  ARG553  GLY616  TRP617  ASP618  TYR619  PRO620  LYS621  CYS622 
 ASP623  PHE694  ASN695  SER759  ASP760  ASP761  ALA762  ILE779  LEU786  VAL792 
 PHE793  MET794  SER795  GLU796  ALA797  LYS798  CYS799  TRP800  GLU811  SER814 

> <Gold.Protein.RotatedAtoms>
  150.7287  134.5543  159.5810 H   0  0  0  0  0  0  0  0  0  0  0  0  # atno 6907 bound_to 6896
  152.3023  134.7594  160.0364 H   0  0  0  0  0  0  0  0  0  0  0  0  # atno 6908 bound_to 6896
  151.8170  133.3354  159.3609 H   0  0  0  0  0  0  0  0  0  0  0  0  # atno 6909 bound_to 6896
  144.9973  139.4347  143.5309 H   0  0  0  0  0  0  0  0  0  0  0  0  # atno 7974 bound_to 7965
  154.8124  140.0449  157.1352 H   0  0  0  0  0  0  0  0  0  0  0  0  # atno 8008 bound_to 7997
  154.9353  140.3045  155.5127 H   0  0  0  0  0  0  0  0  0  0  0  0  # atno 8009 bound_to 7997
  156.2973  140.2315  156.4417 H   0  0  0  0  0  0  0  0  0  0  0  0  # atno 8010 bound_to 7997
  140.2966  143.3188  152.0291 H   0  0  0  0  0  0  0  0  0  0  0  0  # atno 10167 bound_to 10162
  157.6661  130.9758  150.1449 H   0  0  0  0  0  0  0  0  0  0  0  0  # atno 10718 bound_to 10713
  153.0047  135.5401  154.6476 H   0  0  0  0  0  0  0  0  0  0  0  0  # atno 10763 bound_to 10752
  154.5716  135.2842  155.0823 H   0  0  0  0  0  0  0  0  0  0  0  0  # atno 10764 bound_to 10752
  154.1987  135.6487  153.5133 H   0  0  0  0  0  0  0  0  0  0  0  0  # atno 10765 bound_to 10752
  140.1580  134.4377  155.8337 H   0  0  0  0  0  0  0  0  0  0  0  0  # atno 11005 bound_to 11000
  146.3444  139.9341  142.8749 LP  0  0  0  0  0  0  0  0  0  0  0  0  # atno 17320 bound_to 7965
  145.2202  140.9932  143.4050 LP  0  0  0  0  0  0  0  0  0  0  0  0  # atno 17321 bound_to 7965
  139.4925  144.6486  151.6725 LP  0  0  0  0  0  0  0  0  0  0  0  0  # atno 17342 bound_to 10162
  140.5686  144.0147  150.6205 LP  0  0  0  0  0  0  0  0  0  0  0  0  # atno 17343 bound_to 10162
  156.2263  130.3678  149.8497 LP  0  0  0  0  0  0  0  0  0  0  0  0  # atno 17370 bound_to 10713
  156.6336  130.8676  151.3500 LP  0  0  0  0  0  0  0  0  0  0  0  0  # atno 17371 bound_to 10713
  141.2206  133.6901  156.7542 LP  0  0  0  0  0  0  0  0  0  0  0  0  # atno 17394 bound_to 11000
  140.2524  134.8530  157.3680 LP  0  0  0  0  0  0  0  0  0  0  0  0  # atno 17395 bound_to 11000

$$$$
