AV-unprocessed.smi:3002|AV-procd|sdf|11433|dock4
  -GOLD-   2272016363D 1   1.00000     0.00000
 Structure written by MMmdl.
 34 35  0  0  0  0  0  0  0  0  1 V2000
  153.3961  141.3347  161.1063 C   0  0  0  0  0  0  0  0  0  0  0  0
  152.2363  141.5735  160.1141 C   0  0  2  0  0  0  0  0  0  0  0  0
  152.3046  140.5773  158.9448 C   0  0  0  0  0  0  0  0  0  0  0  0
  153.3918  140.1837  158.5217 O   0  0  0  0  0  0  0  0  0  0  0  0
  151.1319  140.1891  158.4227 N   0  0  0  0  0  0  0  0  0  0  0  0
  150.9868  139.2862  157.2886 C   0  0  0  0  0  0  0  0  0  0  0  0
  150.0333  138.1278  157.6260 C   0  0  2  0  0  0  0  0  0  0  0  0
  148.5517  138.5429  157.5414 C   0  0  0  0  0  0  0  0  0  0  0  0
  147.6971  137.4263  158.1485 C   0  0  0  0  0  0  0  0  0  0  0  0
  148.6951  136.7369  159.5203 S   0  0  0  0  0  0  0  0  0  0  0  0
  148.2516  137.3257  160.7930 O   0  0  0  0  0  0  0  0  0  0  0  0
  148.7961  135.2791  159.3545 O   0  0  0  0  0  0  0  0  0  0  0  0
  150.2746  137.5240  159.0215 C   0  0  0  0  0  0  0  0  0  0  0  0
  152.1682  142.9508  159.6180 N   0  0  0  0  0  0  0  0  0  0  0  0
  152.1385  144.1118  160.2830 C   0  0  0  0  0  0  0  0  0  0  0  0
  152.1504  145.1848  159.5054 N   0  0  0  0  0  0  0  0  0  0  0  0
  152.2156  144.5785  158.2842 C   0  0  0  0  0  0  0  0  0  0  0  0
  152.2511  143.2464  158.2955 N   0  0  0  0  0  0  0  0  0  0  0  0
  153.4588  140.2854  161.3971 H   0  0  0  0  0  0  0  0  0  0  0  0
  153.2569  141.9112  162.0213 H   0  0  0  0  0  0  0  0  0  0  0  0
  154.3590  141.6172  160.6783 H   0  0  0  0  0  0  0  0  0  0  0  0
  151.3051  141.3911  160.6533 H   0  0  0  0  0  0  0  0  0  0  0  0
  150.2831  140.5556  158.8291 H   0  0  0  0  0  0  0  0  0  0  0  0
  150.6128  139.8338  156.4215 H   0  0  0  0  0  0  0  0  0  0  0  0
  151.9701  138.8972  157.0210 H   0  0  0  0  0  0  0  0  0  0  0  0
  150.1847  137.3320  156.8947 H   0  0  0  0  0  0  0  0  0  0  0  0
  148.4000  139.4556  158.1194 H   0  0  0  0  0  0  0  0  0  0  0  0
  148.2505  138.7613  156.5164 H   0  0  0  0  0  0  0  0  0  0  0  0
  146.7328  137.7753  158.5182 H   0  0  0  0  0  0  0  0  0  0  0  0
  147.5273  136.6318  157.4216 H   0  0  0  0  0  0  0  0  0  0  0  0
  151.0794  136.7888  159.0351 H   0  0  0  0  0  0  0  0  0  0  0  0
  150.5037  138.3006  159.7522 H   0  0  0  0  0  0  0  0  0  0  0  0
  152.1115  144.1775  161.3609 H   0  0  0  0  0  0  0  0  0  0  0  0
  152.2505  145.1353  157.3593 H   0  0  0  0  0  0  0  0  0  0  0  0
  1  2  1  0  0  0  0
  1 19  1  0  0  0  0
  1 20  1  0  0  0  0
  1 21  1  0  0  0  0
  2  3  1  0  0  0  0
  2 14  1  0  0  0  0
  2 22  1  0  0  0  0
  3  4  2  0  0  0  0
  3  5  1  0  0  0  0
  5  6  1  0  0  0  0
  5 23  1  0  0  0  0
  6  7  1  0  0  0  0
  6 24  1  0  0  0  0
  6 25  1  0  0  0  0
  7 13  1  0  0  0  0
  7  8  1  0  0  0  0
  7 26  1  0  0  0  0
  8  9  1  0  0  0  0
  8 27  1  0  0  0  0
  8 28  1  0  0  0  0
  9 10  1  0  0  0  0
  9 29  1  0  0  0  0
  9 30  1  0  0  0  0
 10 11  2  0  0  0  0
 10 12  2  0  0  0  0
 10 13  1  0  0  0  0
 13 31  1  0  0  0  0
 13 32  1  0  0  0  0
 14 18  1  0  0  0  0
 14 15  1  0  0  0  0
 15 16  2  0  0  0  0
 15 33  1  0  0  0  0
 16 17  1  0  0  0  0
 17 18  2  0  0  0  0
 17 34  1  0  0  0  0
M  END
> <s_m_source_file>
AV-unprocessed.smi

> <i_m_source_file_index>
3002

> <i_lp_mmshare_version>
43012

> <i_f3d_flags>
0

> <s_epik_input>
bjFbY0hdbltjSF1uMVtDQEhdKFtDSDNdKUMoPU8pW05IXVtDSDJdW0NAQEhdKFtDSDJdMilbQ0gyXVtDSDJdUzIoPU8pPU8=

> <s_epik_cmdline>
J2VwaWtfcHl0aG9uJywgJy1waCcsICc3LjAnLCAnLXRuJywgJzgnLCAnLW1hJywgJzIwMCcsICctbWV0YWxfYmluZGluZycsICctaW1hZScsICc8aW5maWxlLm1hZT4nLCAnLW9tYWUnLCAnPG91dGZpbGUubWFlPic=

> <r_lp_tautomer_probability>
1

> <r_epik_Ionization_Penalty>
1.1748e-05

> <r_epik_Ionization_Penalty_Charging>
0

> <r_epik_Ionization_Penalty_Neutral>
1.1748e-05

> <r_epik_State_Penalty>
-0

> <r_epik_Charging_Adjusted_Penalty>
0

> <i_epik_Tot_Q>
0

> <i_epik_Tot_abs_Q>
0

> <r_epik_Metal_State_Penalty>
-0

> <b_epik_Metal_Only>
0

> <s_lp_Force_Field>
OPLS_2005

> <r_lp_Energy>
11.0715

> <b_lp_Chiralities_Consistent>
1

> <s_lp_Variant>
AV-unprocessed.smi:3002-1

> <Gold.Version>
5.8.1

> <Gold.Id.Protein>
6NUR|6NUR_protein|mol2

> <Gold.PLP.Fitness>
39.0295

> <Gold.PLP.PLP>
-30.7713

> <Gold.PLP.part.hbond>
-3.8773

> <Gold.PLP.part.metal>
0.0000

> <Gold.PLP.part.buried>
-2.9579

> <Gold.PLP.part.nonpolar>
-24.2912

> <Gold.PLP.part.repulsive>
0.2406

> <Gold.PLP.ligand.clash>
0.0000

> <Gold.PLP.ligand.torsion>
0.9445

> <Gold.PLP.Chemscore.Hbond>
3.3403

> <Gold.PLP.Chemscore.CHOScore>
0.0000

> <Gold.PLP.Chemscore.Metal>
0.0000

> <Gold.Chemscore.Hbonds>
donor molecule, donor type, donor heavy atom, donor atom, acceptor molecule, acceptor atom, score
      P1  H  6896  6907       L1    12  1.00
      P1  H  6931  6943       L1    11  0.80
      P1  H  6934  6947       L1    11  0.59
      P1  H  7997  8010       L1     4  0.94

> <Gold.PLP.Chemscore.Internal.Correction>
0.1261

> <Gold.Rescore>
     Score         DG    S(hbond)    S(metal)    S(lipo)     H(rot)  DE(clash)    DE(int)     intcor
     12.89     -13.97       3.28        0.00      31.31       2.39       0.07       1.01       ----

> <Gold.Chemscore.Fitness>
12.8854

> <Gold.Chemscore.DG>
-13.9706

> <Gold.Chemscore.ZeroCoef>
-5.4800

> <Gold.Chemscore.Hbond>
3.2808

> <Gold.Chemscore.Metal>
0.0000

> <Gold.Chemscore.Lipo>
31.3058

> <Gold.Chemscore.Internal_Hbond>
0.0000

> <Gold.Chemscore.DEClash>
0.0712

> <Gold.Chemscore.DEInternal>
1.0139

> <Gold.Chemscore.Rot>
2.3946

> <Gold.Chemscore.Internal.Correction>
   9.000000E+99

> <Gold.Chemscore.Hbonds>
donor molecule, donor type, donor heavy atom, donor atom, acceptor molecule, acceptor atom, score
      P1  H  6896  6907       L1    12  0.89
      P1  H  6931  6943       L1    11  0.79
      P1  H  6934  6947       L1    11  0.57
      P1  H  7997  8010       L1     4  0.91

> <Gold.Chemscore.Hbond.Weighted>
-10.9579

> <Gold.Chemscore.Metal.Weighted>
-0.0000

> <Gold.Chemscore.Lipo.Weighted>
-3.6628

> <Gold.Chemscore.Internal_Hbond.Weighted>
0.0000

> <Gold.Chemscore.DEClash.Weighted>
0.0712

> <Gold.Chemscore.DEInternal.Weighted>
1.0139

> <Gold.Chemscore.Rot.Weighted>
6.1301

> <Gold.Chemscore.Internal.Correction.Weighted>
   9.000000E+99

> <Gold.Protein.RotatedTorsions>
[ 6907 6896 6895 6894 ] final  -76.94 input  -60.11 | X-H torsion
[ 7974 7965 7964 7962 ] final  -57.78 input  175.53 | X-H torsion
[ 8008 7997 7996 7995 ] final   23.54 input   59.86 | X-H torsion
[ 10167 10162 10161 10158 ] final  -33.12 input  -65.29 | X-H torsion
[ 10718 10713 10712 10709 ] final  -46.39 input   66.30 | X-H torsion
[ 10763 10752 10751 10750 ] final    4.11 input  -60.55 | X-H torsion
[ 11005 11000 10999 10996 ] final -172.91 input  -57.11 | X-H torsion

> <Gold.Protein.ActiveResidues>
 VAL166  LYS551  ARG553  GLY616  TRP617  ASP618  TYR619  PRO620  LYS621  CYS622 
 ASP623  PHE694  ASN695  SER759  ASP760  ASP761  ALA762  ILE779  LEU786  VAL792 
 PHE793  MET794  SER795  GLU796  ALA797  LYS798  CYS799  TRP800  GLU811  SER814 

> <Gold.Protein.RotatedAtoms>
  150.7013  134.4497  159.5330 H   0  0  0  0  0  0  0  0  0  0  0  0  # atno 6907 bound_to 6896
  152.2192  134.8426  160.0497 H   0  0  0  0  0  0  0  0  0  0  0  0  # atno 6908 bound_to 6896
  151.9283  133.3569  159.3958 H   0  0  0  0  0  0  0  0  0  0  0  0  # atno 6909 bound_to 6896
  145.8471  140.8378  143.0005 H   0  0  0  0  0  0  0  0  0  0  0  0  # atno 7974 bound_to 7965
  154.9825  140.3104  155.4940 H   0  0  0  0  0  0  0  0  0  0  0  0  # atno 8008 bound_to 7997
  156.2951  140.2264  156.4865 H   0  0  0  0  0  0  0  0  0  0  0  0  # atno 8009 bound_to 7997
  154.7776  140.0448  157.1090 H   0  0  0  0  0  0  0  0  0  0  0  0  # atno 8010 bound_to 7997
  140.7210  143.3644  151.1900 H   0  0  0  0  0  0  0  0  0  0  0  0  # atno 10167 bound_to 10162
  156.2187  130.4165  149.9020 H   0  0  0  0  0  0  0  0  0  0  0  0  # atno 10718 bound_to 10713
  153.2752  135.6936  153.7440 H   0  0  0  0  0  0  0  0  0  0  0  0  # atno 10763 bound_to 10752
  153.6449  135.3387  155.3083 H   0  0  0  0  0  0  0  0  0  0  0  0  # atno 10764 bound_to 10752
  154.8477  135.4440  154.1787 H   0  0  0  0  0  0  0  0  0  0  0  0  # atno 10765 bound_to 10752
  140.4917  134.5978  157.4957 H   0  0  0  0  0  0  0  0  0  0  0  0  # atno 11005 bound_to 11000
  144.6730  140.0897  143.7465 LP  0  0  0  0  0  0  0  0  0  0  0  0  # atno 17320 bound_to 7965
  145.9400  139.2662  143.1274 LP  0  0  0  0  0  0  0  0  0  0  0  0  # atno 17321 bound_to 7965
  139.7202  143.9235  152.2982 LP  0  0  0  0  0  0  0  0  0  0  0  0  # atno 17342 bound_to 10162
  139.8989  144.6923  150.8687 LP  0  0  0  0  0  0  0  0  0  0  0  0  # atno 17343 bound_to 10162
  156.6674  130.8806  151.3557 LP  0  0  0  0  0  0  0  0  0  0  0  0  # atno 17370 bound_to 10713
  157.7076  130.9403  150.0983 LP  0  0  0  0  0  0  0  0  0  0  0  0  # atno 17371 bound_to 10713
  139.9765  134.7207  155.9940 LP  0  0  0  0  0  0  0  0  0  0  0  0  # atno 17394 bound_to 11000
  141.1480  133.6553  156.3927 LP  0  0  0  0  0  0  0  0  0  0  0  0  # atno 17395 bound_to 11000

$$$$
