AV-unprocessed.smi:3094|AV-procd|sdf|11788|dock3
  -GOLD-   2272017163D 1   1.00000     0.00000
 Structure written by MMmdl.
 30 31  0  0  0  0  0  0  0  0  2 V2000
  149.2268  140.5251  157.1522 C   0  0  0  0  0  0  0  0  0  0  0  0
  150.1396  141.2743  156.1720 C   0  0  2  0  0  0  0  0  0  0  0  0
  151.4327  140.4779  155.8931 C   0  0  0  0  0  0  0  0  0  0  0  0
  151.1811  139.1923  155.2334 N   0  0  0  0  0  0  0  0  0  0  0  0
  151.5700  137.9496  155.6634 C   0  0  0  0  0  0  0  0  0  0  0  0
  151.1033  137.0519  154.7381 C   0  0  0  0  0  0  0  0  0  0  0  0
  150.4547  137.7843  153.7803 N   0  3  0  0  0  0  0  0  0  0  0  0
  150.5072  139.0861  154.0806 C   0  0  0  0  0  0  0  0  0  0  0  0
  150.4404  142.5950  156.7241 N   0  0  0  0  0  0  0  0  0  0  0  0
  151.1356  142.8393  157.8465 C   0  0  0  0  0  0  0  0  0  0  0  0
  151.5928  141.9468  158.5622 O   0  0  0  0  0  0  0  0  0  0  0  0
  151.2888  144.2913  158.1592 C   0  0  0  0  0  0  0  0  0  0  0  0
  152.6836  144.8810  158.1082 C   0  0  0  0  0  0  0  0  0  0  0  0
  152.0112  144.6573  159.4395 C   0  0  0  0  0  0  0  0  0  0  0  0
  148.9488  139.5466  156.7600 H   0  0  0  0  0  0  0  0  0  0  0  0
  148.3048  141.0793  157.3324 H   0  0  0  0  0  0  0  0  0  0  0  0
  149.7165  140.3703  158.1144 H   0  0  0  0  0  0  0  0  0  0  0  0
  149.5843  141.3848  155.2386 H   0  0  0  0  0  0  0  0  0  0  0  0
  152.1254  141.0580  155.2813 H   0  0  0  0  0  0  0  0  0  0  0  0
  151.9484  140.2573  156.8287 H   0  0  0  0  0  0  0  0  0  0  0  0
  152.1284  137.8001  156.5761 H   0  0  0  0  0  0  0  0  0  0  0  0
  151.1812  135.9753  154.6916 H   0  0  0  0  0  0  0  0  0  0  0  0
  150.0788  139.8910  153.5101 H   0  0  0  0  0  0  0  0  0  0  0  0
  150.1049  143.3904  156.1998 H   0  0  0  0  0  0  0  0  0  0  0  0
  150.4693  144.9433  157.8595 H   0  0  0  0  0  0  0  0  0  0  0  0
  153.5169  144.2284  157.8530 H   0  0  0  0  0  0  0  0  0  0  0  0
  152.7746  145.9034  157.7471 H   0  0  0  0  0  0  0  0  0  0  0  0
  151.6459  145.5284  159.9795 H   0  0  0  0  0  0  0  0  0  0  0  0
  152.3968  143.8557  160.0668 H   0  0  0  0  0  0  0  0  0  0  0  0
  149.9986  137.3987  152.9629 H   0  0  0  0  0  0  0  0  0  0  0  0
  1  2  1  0  0  0  0
  1 15  1  0  0  0  0
  1 16  1  0  0  0  0
  1 17  1  0  0  0  0
  2  3  1  0  0  0  0
  2  9  1  0  0  0  0
  2 18  1  0  0  0  0
  3  4  1  0  0  0  0
  3 19  1  0  0  0  0
  3 20  1  0  0  0  0
  4  8  1  0  0  0  0
  4  5  1  0  0  0  0
  5  6  2  0  0  0  0
  5 21  1  0  0  0  0
  6  7  1  0  0  0  0
  6 22  1  0  0  0  0
  7  8  2  0  0  0  0
  7 30  1  0  0  0  0
  8 23  1  0  0  0  0
  9 10  1  0  0  0  0
  9 24  1  0  0  0  0
 10 11  2  0  0  0  0
 10 12  1  0  0  0  0
 12 14  1  0  0  0  0
 12 13  1  0  0  0  0
 12 25  1  0  0  0  0
 13 14  1  0  0  0  0
 13 26  1  0  0  0  0
 13 27  1  0  0  0  0
 14 28  1  0  0  0  0
 14 29  1  0  0  0  0
M  CHG  1   7   1
M  END
> <s_m_source_file>
AV-unprocessed.smi

> <i_m_source_file_index>
3094

> <i_lp_mmshare_version>
43012

> <i_f3d_flags>
0

> <s_epik_input>
W0NIMl0xW0NIMl1bQ0hdMUMoPU8pW05IXVtDQEhdKFtDSDNdKVtDSDJdbjJbY0hdW2NIXW5bY0hdMg==

> <s_epik_cmdline>
J2VwaWtfcHl0aG9uJywgJy1waCcsICc3LjAnLCAnLXRuJywgJzgnLCAnLW1hJywgJzIwMCcsICctbWV0YWxfYmluZGluZycsICctaW1hZScsICc8aW5maWxlLm1hZT4nLCAnLW9tYWUnLCAnPG91dGZpbGUubWFlPic=

> <r_lp_tautomer_probability>
1

> <r_epik_Ionization_Penalty>
0.244425

> <r_epik_Ionization_Penalty_Charging>
0

> <r_epik_Ionization_Penalty_Neutral>
0.244425

> <r_epik_State_Penalty>
0.23553

> <r_epik_Charging_Adjusted_Penalty>
0.23553

> <i_epik_Tot_Q>
1

> <i_epik_Tot_abs_Q>
1

> <r_epik_Metal_State_Penalty>
0.528799

> <b_epik_Metal_Only>
0

> <s_lp_Force_Field>
OPLS_2005

> <r_lp_Energy>
8.8376

> <b_lp_Chiralities_Consistent>
1

> <s_lp_Variant>
AV-unprocessed.smi:3094-1

> <Gold.Version>
5.8.1

> <Gold.Id.Protein>
6NUR|6NUR_protein|mol2

> <Gold.PLP.Fitness>
45.8713

> <Gold.PLP.PLP>
-33.9742

> <Gold.PLP.part.hbond>
-3.0000

> <Gold.PLP.part.metal>
0.0000

> <Gold.PLP.part.buried>
-3.4307

> <Gold.PLP.part.nonpolar>
-27.7372

> <Gold.PLP.part.repulsive>
0.1260

> <Gold.PLP.ligand.clash>
0.0000

> <Gold.PLP.ligand.torsion>
0.0857

> <Gold.PLP.Chemscore.Hbond>
3.0000

> <Gold.PLP.Chemscore.CHOScore>
0.9922

> <Gold.PLP.Chemscore.Metal>
0.0000

> <Gold.Chemscore.Hbonds>
donor molecule, donor type, donor heavy atom, donor atom, acceptor molecule, acceptor atom, score
      L1  H     7    30       P1  7948  1.80
      L1  H     9    24       P1  8028  1.00
      L1  C     8    23       P1  7957  1.00

> <Gold.PLP.Chemscore.Internal.Correction>
0.0917

> <Gold.Rescore>
     Score         DG    S(hbond)    S(metal)    S(lipo)     H(rot)  DE(clash)    DE(int)     intcor
     14.37     -15.35       1.95        0.00      70.26       1.90       0.07       0.92       ----

> <Gold.Chemscore.Fitness>
14.3653

> <Gold.Chemscore.DG>
-15.3539

> <Gold.Chemscore.ZeroCoef>
-5.4800

> <Gold.Chemscore.Hbond>
1.9529

> <Gold.Chemscore.Metal>
0.0000

> <Gold.Chemscore.Lipo>
70.2573

> <Gold.Chemscore.Internal_Hbond>
0.0000

> <Gold.Chemscore.DEClash>
0.0653

> <Gold.Chemscore.DEInternal>
0.9233

> <Gold.Chemscore.Rot>
1.9019

> <Gold.Chemscore.Internal.Correction>
   9.000000E+99

> <Gold.Chemscore.Hbonds>
donor molecule, donor type, donor heavy atom, donor atom, acceptor molecule, acceptor atom, score
      L1  H     7    30       P1  7948  0.18
      L1  H     9    24       P1  8028  0.99

> <Gold.Chemscore.Hbond.Weighted>
-6.5227

> <Gold.Chemscore.Metal.Weighted>
-0.0000

> <Gold.Chemscore.Lipo.Weighted>
-8.2201

> <Gold.Chemscore.Internal_Hbond.Weighted>
0.0000

> <Gold.Chemscore.DEClash.Weighted>
0.0653

> <Gold.Chemscore.DEInternal.Weighted>
0.9233

> <Gold.Chemscore.Rot.Weighted>
4.8689

> <Gold.Chemscore.Internal.Correction.Weighted>
   9.000000E+99

> <Gold.Protein.RotatedTorsions>
[ 6907 6896 6895 6894 ] final -100.71 input  -60.11 | X-H torsion
[ 7974 7965 7964 7962 ] final   55.37 input  175.53 | X-H torsion
[ 8008 7997 7996 7995 ] final  153.51 input   59.86 | X-H torsion
[ 10167 10162 10161 10158 ] final  126.18 input  -65.29 | X-H torsion
[ 10718 10713 10712 10709 ] final  -58.69 input   66.30 | X-H torsion
[ 10763 10752 10751 10750 ] final  -32.91 input  -60.55 | X-H torsion
[ 11005 11000 10999 10996 ] final  115.31 input  -57.11 | X-H torsion

> <Gold.Protein.ActiveResidues>
 VAL166  LYS551  ARG553  GLY616  TRP617  ASP618  TYR619  PRO620  LYS621  CYS622 
 ASP623  PHE694  ASN695  SER759  ASP760  ASP761  ALA762  ILE779  LEU786  VAL792 
 PHE793  MET794  SER795  GLU796  ALA797  LYS798  CYS799  TRP800  GLU811  SER814 

> <Gold.Protein.RotatedAtoms>
  150.7126  134.0845  159.3909 H   0  0  0  0  0  0  0  0  0  0  0  0  # atno 6907 bound_to 6896
  151.8830  135.0444  160.0500 H   0  0  0  0  0  0  0  0  0  0  0  0  # atno 6908 bound_to 6896
  152.2553  133.5214  159.5386 H   0  0  0  0  0  0  0  0  0  0  0  0  # atno 6909 bound_to 6896
  145.9511  139.3973  143.0305 H   0  0  0  0  0  0  0  0  0  0  0  0  # atno 7974 bound_to 7965
  156.2578  140.1991  156.6502 H   0  0  0  0  0  0  0  0  0  0  0  0  # atno 8008 bound_to 7997
  154.6542  140.0568  157.0015 H   0  0  0  0  0  0  0  0  0  0  0  0  # atno 8009 bound_to 7997
  155.1372  140.3239  155.4463 H   0  0  0  0  0  0  0  0  0  0  0  0  # atno 8010 bound_to 7997
  139.5645  144.6903  151.3949 H   0  0  0  0  0  0  0  0  0  0  0  0  # atno 10167 bound_to 10162
  156.1116  130.4174  150.0612 H   0  0  0  0  0  0  0  0  0  0  0  0  # atno 10718 bound_to 10713
  153.8215  135.6874  153.4826 H   0  0  0  0  0  0  0  0  0  0  0  0  # atno 10763 bound_to 10752
  153.1566  135.4596  154.9712 H   0  0  0  0  0  0  0  0  0  0  0  0  # atno 10764 bound_to 10752
  154.7926  135.3307  154.7686 H   0  0  0  0  0  0  0  0  0  0  0  0  # atno 10765 bound_to 10752
  139.9006  134.9582  156.7025 H   0  0  0  0  0  0  0  0  0  0  0  0  # atno 11005 bound_to 11000
  145.8169  140.9698  143.0919 LP  0  0  0  0  0  0  0  0  0  0  0  0  # atno 17320 bound_to 7965
  144.6796  139.9992  143.7484 LP  0  0  0  0  0  0  0  0  0  0  0  0  # atno 17321 bound_to 7965
  140.6928  143.7822  150.7280 LP  0  0  0  0  0  0  0  0  0  0  0  0  # atno 17342 bound_to 10162
  140.1309  143.4527  152.2255 LP  0  0  0  0  0  0  0  0  0  0  0  0  # atno 17343 bound_to 10162
  156.8574  130.9480  151.3621 LP  0  0  0  0  0  0  0  0  0  0  0  0  # atno 17370 bound_to 10713
  157.6298  130.8720  149.9253 LP  0  0  0  0  0  0  0  0  0  0  0  0  # atno 17371 bound_to 10713
  140.7139  133.9199  155.8102 LP  0  0  0  0  0  0  0  0  0  0  0  0  # atno 17394 bound_to 11000
  141.0279  134.0797  157.4047 LP  0  0  0  0  0  0  0  0  0  0  0  0  # atno 17395 bound_to 11000

$$$$
