AV-unprocessed.smi:1592|AV-procd|sdf|6403|dock3
  -GOLD-   22720 7 43D 1   1.00000     0.00000
 Structure written by MMmdl.
 27 28  0  0  0  0  0  0  0  0  3 V2000
  151.8287  140.9153  158.8831 O   0  0  0  0  0  0  0  0  0  0  0  0
  151.9017  142.0512  158.4107 C   0  0  0  0  0  0  0  0  0  0  0  0
  151.3829  142.4216  157.2253 N   0  0  0  0  0  0  0  0  0  0  0  0
  150.6786  141.6310  156.2748 C   0  0  0  0  0  0  0  0  0  0  0  0
  149.5373  142.0618  155.6809 N   0  3  0  0  0  0  0  0  0  0  0  0
  148.8466  141.3372  154.7746 C   0  0  0  0  0  0  0  0  0  0  0  0
  149.3068  140.0598  154.4021 C   0  0  0  0  0  0  0  0  0  0  0  0
  150.4875  139.5627  154.9884 C   0  0  0  0  0  0  0  0  0  0  0  0
  151.1799  140.3518  155.9313 C   0  0  0  0  0  0  0  0  0  0  0  0
  152.3251  139.8679  156.4997 O   0  5  0  0  0  0  0  0  0  0  0  0
  152.6084  143.1595  159.1990 C   0  0  2  0  0  0  0  0  0  0  0  0
  153.0915  142.7261  160.5964 C   0  0  0  0  0  0  0  0  0  0  0  0
  152.2120  143.5168  161.5459 C   0  0  0  0  0  0  0  0  0  0  0  0
  151.8824  144.7499  160.7176 C   0  0  0  0  0  0  0  0  0  0  0  0
  151.6717  144.2115  159.4223 O   0  0  0  0  0  0  0  0  0  0  0  0
  151.5096  143.3884  156.9614 H   0  0  0  0  0  0  0  0  0  0  0  0
  147.9541  141.7988  154.3783 H   0  0  0  0  0  0  0  0  0  0  0  0
  148.7642  139.4698  153.6784 H   0  0  0  0  0  0  0  0  0  0  0  0
  150.8574  138.5849  154.7160 H   0  0  0  0  0  0  0  0  0  0  0  0
  149.1838  142.9852  155.9338 H   0  0  0  0  0  0  0  0  0  0  0  0
  153.4510  143.5531  158.6276 H   0  0  0  0  0  0  0  0  0  0  0  0
  153.0254  141.6527  160.7802 H   0  0  0  0  0  0  0  0  0  0  0  0
  154.1353  143.0135  160.7285 H   0  0  0  0  0  0  0  0  0  0  0  0
  151.2998  142.9596  161.7632 H   0  0  0  0  0  0  0  0  0  0  0  0
  152.7037  143.7535  162.4899 H   0  0  0  0  0  0  0  0  0  0  0  0
  151.0029  145.2819  161.0809 H   0  0  0  0  0  0  0  0  0  0  0  0
  152.7242  145.4436  160.6951 H   0  0  0  0  0  0  0  0  0  0  0  0
  1  2  2  0  0  0  0
  2  3  1  0  0  0  0
  2 11  1  0  0  0  0
  3 16  1  0  0  0  0
  3  4  1  0  0  0  0
  4  9  2  0  0  0  0
  4  5  1  0  0  0  0
  5 20  1  0  0  0  0
  5  6  2  0  0  0  0
  6 17  1  0  0  0  0
  6  7  1  0  0  0  0
  7 18  1  0  0  0  0
  7  8  2  0  0  0  0
  8  9  1  0  0  0  0
  8 19  1  0  0  0  0
  9 10  1  0  0  0  0
 11 15  1  0  0  0  0
 11 12  1  0  0  0  0
 11 21  1  0  0  0  0
 12 13  1  0  0  0  0
 12 22  1  0  0  0  0
 12 23  1  0  0  0  0
 13 14  1  0  0  0  0
 13 24  1  0  0  0  0
 13 25  1  0  0  0  0
 14 15  1  0  0  0  0
 14 26  1  0  0  0  0
 14 27  1  0  0  0  0
M  CHG  1   5   1
M  CHG  1  10  -1
M  END
> <s_m_source_file>
AV-unprocessed.smi

> <i_m_source_file_index>
1592

> <i_lp_mmshare_version>
43012

> <i_f3d_flags>
0

> <s_epik_input>
TzFbQ0gyXVtDSDJdW0NIMl1bQ0BIXTFDKD1PKVtOSF1jMm5bY0hdW2NIXVtjSF1jMltPSF0=

> <s_epik_cmdline>
J2VwaWtfcHl0aG9uJywgJy1waCcsICc3LjAnLCAnLXRuJywgJzgnLCAnLW1hJywgJzIwMCcsICctbWV0YWxfYmluZGluZycsICctaW1hZScsICc8aW5maWxlLm1hZT4nLCAnLW9tYWUnLCAnPG91dGZpbGUubWFlPic=

> <r_lp_tautomer_probability>
0.56342

> <r_epik_Ionization_Penalty>
0.215537

> <r_epik_Ionization_Penalty_Charging>
0.025819

> <r_epik_Ionization_Penalty_Neutral>
0.189718

> <r_epik_State_Penalty>
0.544343

> <r_epik_Charging_Adjusted_Penalty>
0.570162

> <i_epik_Tot_Q>
0

> <i_epik_Tot_abs_Q>
2

> <r_epik_Metal_State_Penalty>
2.6192

> <b_epik_Metal_Only>
0

> <s_lp_Force_Field>
OPLS_2005

> <r_lp_Energy>
19.357

> <b_lp_Chiralities_Consistent>
1

> <s_lp_Variant>
AV-unprocessed.smi:1592-3

> <Gold.Version>
5.8.1

> <Gold.Id.Protein>
6NUR|6NUR_protein|mol2

> <Gold.PLP.Fitness>
47.2848

> <Gold.PLP.PLP>
-35.6142

> <Gold.PLP.part.hbond>
-2.0000

> <Gold.PLP.part.metal>
0.0000

> <Gold.PLP.part.buried>
-3.8843

> <Gold.PLP.part.nonpolar>
-30.1408

> <Gold.PLP.part.repulsive>
0.2514

> <Gold.PLP.ligand.clash>
0.0000

> <Gold.PLP.ligand.torsion>
0.4017

> <Gold.PLP.Chemscore.Hbond>
4.0000

> <Gold.PLP.Chemscore.CHOScore>
0.0000

> <Gold.PLP.Chemscore.Metal>
0.0000

> <Gold.Chemscore.Hbonds>
donor molecule, donor type, donor heavy atom, donor atom, acceptor molecule, acceptor atom, score
      L1  H     5    20       P1  8028  2.00
      P1  H  7997  8010       L1    10  2.00

> <Gold.PLP.Chemscore.Internal.Correction>
0.4739

> <Gold.Rescore>
     Score         DG    S(hbond)    S(metal)    S(lipo)     H(rot)  DE(clash)    DE(int)     intcor
     15.26     -18.46       1.96        0.00      76.98       1.00       0.12       3.08       ----

> <Gold.Chemscore.Fitness>
15.2592

> <Gold.Chemscore.DG>
-18.4575

> <Gold.Chemscore.ZeroCoef>
-5.4800

> <Gold.Chemscore.Hbond>
1.9554

> <Gold.Chemscore.Metal>
0.0000

> <Gold.Chemscore.Lipo>
76.9788

> <Gold.Chemscore.Internal_Hbond>
0.0000

> <Gold.Chemscore.DEClash>
0.1219

> <Gold.Chemscore.DEInternal>
3.0764

> <Gold.Chemscore.Rot>
1.0000

> <Gold.Chemscore.Internal.Correction>
   9.000000E+99

> <Gold.Chemscore.Hbonds>
donor molecule, donor type, donor heavy atom, donor atom, acceptor molecule, acceptor atom, score
      L1  H     5    20       P1  8028  0.98
      P1  H  7997  8010       L1    10  0.93

> <Gold.Chemscore.Hbond.Weighted>
-6.5310

> <Gold.Chemscore.Metal.Weighted>
-0.0000

> <Gold.Chemscore.Lipo.Weighted>
-9.0065

> <Gold.Chemscore.Internal_Hbond.Weighted>
0.0000

> <Gold.Chemscore.DEClash.Weighted>
0.1219

> <Gold.Chemscore.DEInternal.Weighted>
3.0764

> <Gold.Chemscore.Rot.Weighted>
2.5600

> <Gold.Chemscore.Internal.Correction.Weighted>
   9.000000E+99

> <Gold.Protein.RotatedTorsions>
[ 6907 6896 6895 6894 ] final   30.81 input  -60.11 | X-H torsion
[ 7974 7965 7964 7962 ] final   36.26 input  175.53 | X-H torsion
[ 8008 7997 7996 7995 ] final   73.48 input   59.86 | X-H torsion
[ 10167 10162 10161 10158 ] final -160.93 input  -65.29 | X-H torsion
[ 10718 10713 10712 10709 ] final -145.90 input   66.30 | X-H torsion
[ 10763 10752 10751 10750 ] final  -38.59 input  -60.55 | X-H torsion
[ 11005 11000 10999 10996 ] final    1.04 input  -57.11 | X-H torsion

> <Gold.Protein.ActiveResidues>
 VAL166  LYS551  ARG553  GLY616  TRP617  ASP618  TYR619  PRO620  LYS621  CYS622 
 ASP623  PHE694  ASN695  SER759  ASP760  ASP761  ALA762  ILE779  LEU786  VAL792 
 PHE793  MET794  SER795  GLU796  ALA797  LYS798  CYS799  TRP800  GLU811  SER814 

> <Gold.Protein.RotatedAtoms>
  152.0513  134.9651  160.0574 H   0  0  0  0  0  0  0  0  0  0  0  0  # atno 6907 bound_to 6896
  152.1051  133.4266  159.4613 H   0  0  0  0  0  0  0  0  0  0  0  0  # atno 6908 bound_to 6896
  150.6841  134.2633  159.4601 H   0  0  0  0  0  0  0  0  0  0  0  0  # atno 6909 bound_to 6896
  146.1224  139.6039  142.9281 H   0  0  0  0  0  0  0  0  0  0  0  0  # atno 7974 bound_to 7965
  155.7843  140.3481  155.5314 H   0  0  0  0  0  0  0  0  0  0  0  0  # atno 8008 bound_to 7997
  155.8697  140.0984  157.1579 H   0  0  0  0  0  0  0  0  0  0  0  0  # atno 8009 bound_to 7997
  154.4017  140.1343  156.4050 H   0  0  0  0  0  0  0  0  0  0  0  0  # atno 8010 bound_to 7997
  139.6503  144.0097  152.2156 H   0  0  0  0  0  0  0  0  0  0  0  0  # atno 10167 bound_to 10162
  156.3882  130.7872  151.2071 H   0  0  0  0  0  0  0  0  0  0  0  0  # atno 10718 bound_to 10713
  153.9154  135.6788  153.4749 H   0  0  0  0  0  0  0  0  0  0  0  0  # atno 10763 bound_to 10752
  153.1057  135.4807  154.8943 H   0  0  0  0  0  0  0  0  0  0  0  0  # atno 10764 bound_to 10752
  154.7506  135.3184  154.8521 H   0  0  0  0  0  0  0  0  0  0  0  0  # atno 10765 bound_to 10752
  140.6198  133.9672  155.8219 H   0  0  0  0  0  0  0  0  0  0  0  0  # atno 11005 bound_to 11000
  145.5438  141.0419  143.2316 LP  0  0  0  0  0  0  0  0  0  0  0  0  # atno 17320 bound_to 7965
  144.7609  139.6958  143.7234 LP  0  0  0  0  0  0  0  0  0  0  0  0  # atno 17321 bound_to 7965
  139.9809  144.6429  150.7901 LP  0  0  0  0  0  0  0  0  0  0  0  0  # atno 17342 bound_to 10162
  140.7534  143.3008  151.3085 LP  0  0  0  0  0  0  0  0  0  0  0  0  # atno 17343 bound_to 10162
  157.7497  131.0324  150.4223 LP  0  0  0  0  0  0  0  0  0  0  0  0  # atno 17370 bound_to 10713
  156.4479  130.4005  149.6654 LP  0  0  0  0  0  0  0  0  0  0  0  0  # atno 17371 bound_to 10713
  141.0750  134.0148  157.3471 LP  0  0  0  0  0  0  0  0  0  0  0  0  # atno 17394 bound_to 11000
  139.9158  135.0196  156.7874 LP  0  0  0  0  0  0  0  0  0  0  0  0  # atno 17395 bound_to 11000

$$$$
