AV-unprocessed.smi:1985|AV-procd|sdf|8045|dock7
  -GOLD-   2272010243D 1   1.00000     0.00000
 Structure written by MMmdl.
 51 52  0  0  0  0  0  0  0  0  2 V2000
  145.8110  136.9431  154.2366 C   0  0  0  0  0  0  0  0  0  0  0  0
  145.3050  138.3905  154.3698 C   0  0  0  0  0  0  0  0  0  0  0  0
  146.3973  139.4981  154.2613 C   0  0  2  0  0  0  0  0  0  0  0  0
  147.1076  139.3191  152.8930 C   0  0  0  0  0  0  0  0  0  0  0  0
  147.4362  139.2993  155.4046 C   0  0  0  0  0  0  0  0  0  0  0  0
  148.5376  140.2561  155.3470 N   0  0  0  0  0  0  0  0  0  0  0  0
  149.2430  140.6659  156.4102 C   0  0  0  0  0  0  0  0  0  0  0  0
  149.0518  140.2364  157.5487 O   0  0  0  0  0  0  0  0  0  0  0  0
  150.3329  141.7106  156.1314 C   0  0  0  0  0  0  0  0  0  0  0  0
  151.1342  142.0487  157.3153 N   0  0  0  0  0  0  0  0  0  0  0  0
  151.2692  143.3717  157.6947 C   0  0  0  0  0  0  0  0  0  0  0  0
  151.9962  143.7706  158.7610 C   0  0  0  0  0  0  0  0  0  0  0  0
  152.6956  142.8005  159.5942 C   0  0  0  0  0  0  0  0  0  0  0  0
  153.3874  143.1175  160.5628 O   0  0  0  0  0  0  0  0  0  0  0  0
  152.5296  141.4539  159.1944 N   0  0  0  0  0  0  0  0  0  0  0  0
  153.2218  140.4420  159.9657 C   0  0  0  0  0  0  0  0  0  0  0  0
  151.7803  141.0432  158.0679 C   0  0  0  0  0  0  0  0  0  0  0  0
  151.6892  139.8592  157.7340 O   0  0  0  0  0  0  0  0  0  0  0  0
  145.7623  140.8645  154.3487 N   0  3  0  0  0  0  0  0  0  0  0  0
  145.1546  141.2160  155.6638 C   0  0  0  0  0  0  0  0  0  0  0  0
  144.3706  142.5339  155.5611 C   0  0  0  0  0  0  0  0  0  0  0  0
  145.2401  143.5691  155.1258 O   0  0  0  0  0  0  0  0  0  0  0  0
  145.7686  143.3018  153.8348 C   0  0  0  0  0  0  0  0  0  0  0  0
  146.5936  142.0038  153.8650 C   0  0  0  0  0  0  0  0  0  0  0  0
  144.9809  136.2413  154.3216 H   0  0  0  0  0  0  0  0  0  0  0  0
  146.5271  136.6904  155.0180 H   0  0  0  0  0  0  0  0  0  0  0  0
  146.2864  136.7651  153.2720 H   0  0  0  0  0  0  0  0  0  0  0  0
  144.5178  138.5572  153.6348 H   0  0  0  0  0  0  0  0  0  0  0  0
  144.7955  138.4724  155.3306 H   0  0  0  0  0  0  0  0  0  0  0  0
  147.3675  138.2769  152.7045 H   0  0  0  0  0  0  0  0  0  0  0  0
  148.0408  139.8806  152.8408 H   0  0  0  0  0  0  0  0  0  0  0  0
  146.4793  139.6465  152.0642 H   0  0  0  0  0  0  0  0  0  0  0  0
  146.9637  139.4019  156.3815 H   0  0  0  0  0  0  0  0  0  0  0  0
  147.8586  138.2947  155.3642 H   0  0  0  0  0  0  0  0  0  0  0  0
  148.7603  140.6516  154.4448 H   0  0  0  0  0  0  0  0  0  0  0  0
  150.9790  141.3269  155.3407 H   0  0  0  0  0  0  0  0  0  0  0  0
  149.8755  142.6145  155.7252 H   0  0  0  0  0  0  0  0  0  0  0  0
  150.7728  144.1299  157.1066 H   0  0  0  0  0  0  0  0  0  0  0  0
  152.0638  144.8221  158.9990 H   0  0  0  0  0  0  0  0  0  0  0  0
  152.7264  139.4772  159.8535 H   0  0  0  0  0  0  0  0  0  0  0  0
  153.1887  140.7169  161.0213 H   0  0  0  0  0  0  0  0  0  0  0  0
  154.2464  140.4068  159.5928 H   0  0  0  0  0  0  0  0  0  0  0  0
  144.4711  140.4427  156.0089 H   0  0  0  0  0  0  0  0  0  0  0  0
  145.9295  141.3244  156.4230 H   0  0  0  0  0  0  0  0  0  0  0  0
  143.5255  142.4350  154.8778 H   0  0  0  0  0  0  0  0  0  0  0  0
  143.9623  142.8044  156.5351 H   0  0  0  0  0  0  0  0  0  0  0  0
  144.9610  143.2326  153.1042 H   0  0  0  0  0  0  0  0  0  0  0  0
  146.3982  144.1389  153.5323 H   0  0  0  0  0  0  0  0  0  0  0  0
  147.4618  142.1395  154.5102 H   0  0  0  0  0  0  0  0  0  0  0  0
  146.9654  141.8316  152.8567 H   0  0  0  0  0  0  0  0  0  0  0  0
  144.9863  140.8202  153.7036 H   0  0  0  0  0  0  0  0  0  0  0  0
  1  2  1  0  0  0  0
  1 25  1  0  0  0  0
  1 26  1  0  0  0  0
  1 27  1  0  0  0  0
  2  3  1  0  0  0  0
  2 28  1  0  0  0  0
  2 29  1  0  0  0  0
  3  4  1  0  0  0  0
  3  5  1  0  0  0  0
  3 19  1  0  0  0  0
  4 30  1  0  0  0  0
  4 31  1  0  0  0  0
  4 32  1  0  0  0  0
  5  6  1  0  0  0  0
  5 33  1  0  0  0  0
  5 34  1  0  0  0  0
  6  7  1  0  0  0  0
  6 35  1  0  0  0  0
  7  8  2  0  0  0  0
  7  9  1  0  0  0  0
  9 10  1  0  0  0  0
  9 36  1  0  0  0  0
  9 37  1  0  0  0  0
 10 17  1  0  0  0  0
 10 11  1  0  0  0  0
 11 12  2  0  0  0  0
 11 38  1  0  0  0  0
 12 13  1  0  0  0  0
 12 39  1  0  0  0  0
 13 14  2  0  0  0  0
 13 15  1  0  0  0  0
 15 16  1  0  0  0  0
 15 17  1  0  0  0  0
 16 40  1  0  0  0  0
 16 41  1  0  0  0  0
 16 42  1  0  0  0  0
 17 18  2  0  0  0  0
 19 24  1  0  0  0  0
 19 20  1  0  0  0  0
 19 51  1  0  0  0  0
 20 21  1  0  0  0  0
 20 43  1  0  0  0  0
 20 44  1  0  0  0  0
 21 22  1  0  0  0  0
 21 45  1  0  0  0  0
 21 46  1  0  0  0  0
 22 23  1  0  0  0  0
 23 24  1  0  0  0  0
 23 47  1  0  0  0  0
 23 48  1  0  0  0  0
 24 49  1  0  0  0  0
 24 50  1  0  0  0  0
M  CHG  1  19   1
M  END
> <s_m_source_file>
AV-unprocessed.smi

> <i_m_source_file_index>
1985

> <i_lp_mmshare_version>
43012

> <i_f3d_flags>
0

> <s_epik_input>
W0NIMl0xW0NIMl1PW0NIMl1bQ0gyXU4xW0NAQF0oW0NIM10pKFtDSDJdW0NIM10pW0NIMl1bTkhdQyg9TylbQ0gyXW4yW2NIXVtjSF1jKD1PKW4oW0NIM10pYzI9Tw==

> <s_epik_cmdline>
J2VwaWtfcHl0aG9uJywgJy1waCcsICc3LjAnLCAnLXRuJywgJzgnLCAnLW1hJywgJzIwMCcsICctbWV0YWxfYmluZGluZycsICctaW1hZScsICc8aW5maWxlLm1hZT4nLCAnLW9tYWUnLCAnPG91dGZpbGUubWFlPic=

> <r_lp_tautomer_probability>
1

> <r_epik_Ionization_Penalty>
0.519658

> <r_epik_Ionization_Penalty_Charging>
0.519658

> <r_epik_Ionization_Penalty_Neutral>
8.70177e-08

> <r_epik_State_Penalty>
0.527569

> <r_epik_Charging_Adjusted_Penalty>
1.04723

> <i_epik_Tot_Q>
1

> <i_epik_Tot_abs_Q>
1

> <r_epik_Metal_State_Penalty>
0.527613

> <b_epik_Metal_Only>
0

> <s_lp_Force_Field>
OPLS_2005

> <r_lp_Energy>
37.4979

> <b_lp_Chiralities_Consistent>
1

> <s_lp_Variant>
AV-unprocessed.smi:1985-4

> <Gold.Version>
5.8.1

> <Gold.Id.Protein>
6NUR|6NUR_protein|mol2

> <Gold.PLP.Fitness>
45.0475

> <Gold.PLP.PLP>
-36.7555

> <Gold.PLP.part.hbond>
-1.0000

> <Gold.PLP.part.metal>
0.0000

> <Gold.PLP.part.buried>
-3.3058

> <Gold.PLP.part.nonpolar>
-32.9314

> <Gold.PLP.part.repulsive>
0.2323

> <Gold.PLP.ligand.clash>
0.0000

> <Gold.PLP.ligand.torsion>
0.4774

> <Gold.PLP.Chemscore.Hbond>
2.0000

> <Gold.PLP.Chemscore.CHOScore>
1.0000

> <Gold.PLP.Chemscore.Metal>
0.0000

> <Gold.Chemscore.Hbonds>
donor molecule, donor type, donor heavy atom, donor atom, acceptor molecule, acceptor atom, score
      L1  H    19    51       P1 10175  2.00
      L1  C    11    38       P1  8028  1.00

> <Gold.PLP.Chemscore.Internal.Correction>
0.2470

> <Gold.Rescore>
     Score         DG    S(hbond)    S(metal)    S(lipo)     H(rot)  DE(clash)    DE(int)     intcor
     10.47     -11.49       0.93        0.00      74.62       2.27       0.31       0.71       ----

> <Gold.Chemscore.Fitness>
10.4686

> <Gold.Chemscore.DG>
-11.4882

> <Gold.Chemscore.ZeroCoef>
-5.4800

> <Gold.Chemscore.Hbond>
0.9268

> <Gold.Chemscore.Metal>
0.0000

> <Gold.Chemscore.Lipo>
74.6167

> <Gold.Chemscore.Internal_Hbond>
0.0000

> <Gold.Chemscore.DEClash>
0.3096

> <Gold.Chemscore.DEInternal>
0.7100

> <Gold.Chemscore.Rot>
2.2724

> <Gold.Chemscore.Internal.Correction>
   9.000000E+99

> <Gold.Chemscore.Hbonds>
donor molecule, donor type, donor heavy atom, donor atom, acceptor molecule, acceptor atom, score
      L1  H    19    51       P1 10175  0.91

> <Gold.Chemscore.Hbond.Weighted>
-3.0954

> <Gold.Chemscore.Metal.Weighted>
-0.0000

> <Gold.Chemscore.Lipo.Weighted>
-8.7302

> <Gold.Chemscore.Internal_Hbond.Weighted>
0.0000

> <Gold.Chemscore.DEClash.Weighted>
0.3096

> <Gold.Chemscore.DEInternal.Weighted>
0.7100

> <Gold.Chemscore.Rot.Weighted>
5.8174

> <Gold.Chemscore.Internal.Correction.Weighted>
   9.000000E+99

> <Gold.Protein.RotatedTorsions>
[ 6907 6896 6895 6894 ] final  147.30 input  -60.11 | X-H torsion
[ 7974 7965 7964 7962 ] final  -74.07 input  175.53 | X-H torsion
[ 8008 7997 7996 7995 ] final   14.33 input   59.86 | X-H torsion
[ 10167 10162 10161 10158 ] final  156.87 input  -65.29 | X-H torsion
[ 10718 10713 10712 10709 ] final  -20.04 input   66.30 | X-H torsion
[ 10763 10752 10751 10750 ] final   73.71 input  -60.55 | X-H torsion
[ 11005 11000 10999 10996 ] final   -1.50 input  -57.11 | X-H torsion

> <Gold.Protein.ActiveResidues>
 VAL166  LYS551  ARG553  GLY616  TRP617  ASP618  TYR619  PRO620  LYS621  CYS622 
 ASP623  PHE694  ASN695  SER759  ASP760  ASP761  ALA762  ILE779  LEU786  VAL792 
 PHE793  MET794  SER795  GLU796  ALA797  LYS798  CYS799  TRP800  GLU811  SER814 

> <Gold.Protein.RotatedAtoms>
  152.1566  133.4555  159.4839 H   0  0  0  0  0  0  0  0  0  0  0  0  # atno 6907 bound_to 6896
  150.6901  134.2123  159.4373 H   0  0  0  0  0  0  0  0  0  0  0  0  # atno 6908 bound_to 6896
  152.0023  134.9921  160.0616 H   0  0  0  0  0  0  0  0  0  0  0  0  # atno 6909 bound_to 6896
  145.6439  140.9303  143.1021 H   0  0  0  0  0  0  0  0  0  0  0  0  # atno 7974 bound_to 7965
  154.8470  140.2923  155.5623 H   0  0  0  0  0  0  0  0  0  0  0  0  # atno 8008 bound_to 7997
  156.3014  140.2503  156.3354 H   0  0  0  0  0  0  0  0  0  0  0  0  # atno 8009 bound_to 7997
  154.9063  140.0390  157.1910 H   0  0  0  0  0  0  0  0  0  0  0  0  # atno 8010 bound_to 7997
  139.4822  144.4969  151.8226 H   0  0  0  0  0  0  0  0  0  0  0  0  # atno 10167 bound_to 10162
  156.5373  130.4669  149.6516 H   0  0  0  0  0  0  0  0  0  0  0  0  # atno 10718 bound_to 10713
  153.0539  135.5053  154.7933 H   0  0  0  0  0  0  0  0  0  0  0  0  # atno 10763 bound_to 10752
  154.6774  135.2963  154.9661 H   0  0  0  0  0  0  0  0  0  0  0  0  # atno 10764 bound_to 10752
  154.0459  135.6710  153.4847 H   0  0  0  0  0  0  0  0  0  0  0  0  # atno 10765 bound_to 10752
  140.6480  133.9430  155.8364 H   0  0  0  0  0  0  0  0  0  0  0  0  # atno 11005 bound_to 11000
  144.7147  139.8240  143.7403 LP  0  0  0  0  0  0  0  0  0  0  0  0  # atno 17320 bound_to 7965
  146.1258  139.4284  143.0199 LP  0  0  0  0  0  0  0  0  0  0  0  0  # atno 17321 bound_to 7965
  140.4458  144.1923  150.5894 LP  0  0  0  0  0  0  0  0  0  0  0  0  # atno 17342 bound_to 10162
  140.4636  143.2439  151.9186 LP  0  0  0  0  0  0  0  0  0  0  0  0  # atno 17343 bound_to 10162
  156.3004  130.7174  151.2044 LP  0  0  0  0  0  0  0  0  0  0  0  0  # atno 17370 bound_to 10713
  157.7411  131.0508  150.5117 LP  0  0  0  0  0  0  0  0  0  0  0  0  # atno 17371 bound_to 10713
  141.0558  134.0419  157.3725 LP  0  0  0  0  0  0  0  0  0  0  0  0  # atno 17394 bound_to 11000
  139.9056  135.0178  156.7469 LP  0  0  0  0  0  0  0  0  0  0  0  0  # atno 17395 bound_to 11000

$$$$
