AV-unprocessed.smi:2002|AV-procd|sdf|8113|dock1
  -GOLD-   2272010343D 1   1.00000     0.00000
 Structure written by MMmdl.
 39 40  0  0  0  0  0  0  0  0  2 V2000
  144.8136  132.6770  150.7971 C   0  0  0  0  0  0  0  0  0  0  0  0
  145.7990  131.8184  151.6010 C   0  0  0  0  0  0  0  0  0  0  0  0
  146.0718  132.3926  152.9391 N   0  3  1  0  0  0  0  0  0  0  0  0
  146.1466  131.4091  154.0465 C   0  0  0  0  0  0  0  0  0  0  0  0
  147.3775  131.7775  154.8849 C   0  0  0  0  0  0  0  0  0  0  0  0
  147.7090  133.2112  154.4741 C   0  0  1  0  0  0  0  0  0  0  0  0
  149.1725  133.6097  154.7469 C   0  0  0  0  0  0  0  0  0  0  0  0
  149.4538  134.9860  154.3495 N   0  0  0  0  0  0  0  0  0  0  0  0
  150.1377  135.8810  155.0775 C   0  0  0  0  0  0  0  0  0  0  0  0
  150.6297  135.6273  156.1776 O   0  0  0  0  0  0  0  0  0  0  0  0
  150.2148  137.0661  154.4492 N   0  0  0  0  0  0  0  0  0  0  0  0
  150.8734  138.2396  154.8971 C   0  0  0  0  0  0  0  0  0  0  0  0
  150.1539  139.4467  155.1019 C   0  0  0  0  0  0  0  0  0  0  0  0
  151.1227  140.3153  155.5193 C   0  0  0  0  0  0  0  0  0  0  0  0
  151.0945  141.7519  155.9156 C   0  0  0  0  0  0  0  0  0  0  0  0
  152.3311  139.6910  155.5650 O   0  0  0  0  0  0  0  0  0  0  0  0
  152.1650  138.3604  155.1633 N   0  0  0  0  0  0  0  0  0  0  0  0
  147.2924  133.2209  153.0015 C   0  0  0  0  0  0  0  0  0  0  0  0
  144.6590  132.2566  149.8032 H   0  0  0  0  0  0  0  0  0  0  0  0
  145.1882  133.6935  150.6715 H   0  0  0  0  0  0  0  0  0  0  0  0
  143.8395  132.7356  151.2833 H   0  0  0  0  0  0  0  0  0  0  0  0
  145.4258  130.7981  151.7011 H   0  0  0  0  0  0  0  0  0  0  0  0
  146.7381  131.7557  151.0494 H   0  0  0  0  0  0  0  0  0  0  0  0
  145.2340  131.4828  154.6386 H   0  0  0  0  0  0  0  0  0  0  0  0
  146.2245  130.3823  153.6858 H   0  0  0  0  0  0  0  0  0  0  0  0
  147.2001  131.6778  155.9562 H   0  0  0  0  0  0  0  0  0  0  0  0
  148.2043  131.1148  154.6243 H   0  0  0  0  0  0  0  0  0  0  0  0
  147.0477  133.8829  155.0244 H   0  0  0  0  0  0  0  0  0  0  0  0
  149.3762  133.5299  155.8150 H   0  0  0  0  0  0  0  0  0  0  0  0
  149.8597  132.9188  154.2552 H   0  0  0  0  0  0  0  0  0  0  0  0
  149.0848  135.2837  153.4580 H   0  0  0  0  0  0  0  0  0  0  0  0
  149.7569  137.1369  153.5525 H   0  0  0  0  0  0  0  0  0  0  0  0
  149.1011  139.6462  154.9668 H   0  0  0  0  0  0  0  0  0  0  0  0
  150.2638  142.2708  155.4371 H   0  0  0  0  0  0  0  0  0  0  0  0
  152.0174  142.2545  155.6252 H   0  0  0  0  0  0  0  0  0  0  0  0
  150.9795  141.8512  156.9950 H   0  0  0  0  0  0  0  0  0  0  0  0
  148.0742  132.7664  152.3901 H   0  0  0  0  0  0  0  0  0  0  0  0
  147.1085  134.2266  152.6219 H   0  0  0  0  0  0  0  0  0  0  0  0
  145.3058  133.0125  153.1605 H   0  0  0  0  0  0  0  0  0  0  0  0
  1  2  1  0  0  0  0
  1 19  1  0  0  0  0
  1 20  1  0  0  0  0
  1 21  1  0  0  0  0
  2  3  1  0  0  0  0
  2 22  1  0  0  0  0
  2 23  1  0  0  0  0
  3 18  1  0  0  0  0
  3  4  1  0  0  0  0
  3 39  1  0  0  0  0
  4  5  1  0  0  0  0
  4 24  1  0  0  0  0
  4 25  1  0  0  0  0
  5  6  1  0  0  0  0
  5 26  1  0  0  0  0
  5 27  1  0  0  0  0
  6  7  1  0  0  0  0
  6 18  1  0  0  0  0
  6 28  1  0  0  0  0
  7  8  1  0  0  0  0
  7 29  1  0  0  0  0
  7 30  1  0  0  0  0
  8  9  1  0  0  0  0
  8 31  1  0  0  0  0
  9 10  2  0  0  0  0
  9 11  1  0  0  0  0
 11 12  1  0  0  0  0
 11 32  1  0  0  0  0
 12 17  2  0  0  0  0
 12 13  1  0  0  0  0
 13 14  2  0  0  0  0
 13 33  1  0  0  0  0
 14 15  1  0  0  0  0
 14 16  1  0  0  0  0
 15 34  1  0  0  0  0
 15 35  1  0  0  0  0
 15 36  1  0  0  0  0
 16 17  1  0  0  0  0
 18 37  1  0  0  0  0
 18 38  1  0  0  0  0
M  CHG  1   3   1
M  END
> <s_m_source_file>
AV-unprocessed.smi

> <i_m_source_file_index>
2002

> <i_lp_mmshare_version>
43012

> <i_f3d_flags>
0

> <s_epik_input>
W0NIM11bQ0gyXU4xW0NIMl1bQ0gyXVtDQEhdKFtDSDJdMSlbQ0gyXVtOSF1DKD1PKVtOSF1jMltjSF1jKFtDSDNdKW9uMg==

> <s_epik_cmdline>
J2VwaWtfcHl0aG9uJywgJy1waCcsICc3LjAnLCAnLXRuJywgJzgnLCAnLW1hJywgJzIwMCcsICctbWV0YWxfYmluZGluZycsICctaW1hZScsICc8aW5maWxlLm1hZT4nLCAnLW9tYWUnLCAnPG91dGZpbGUubWFlPic=

> <r_epik_Ionization_Penalty>
0.000632871

> <r_epik_Ionization_Penalty_Charging>
0.000610951

> <r_epik_Ionization_Penalty_Neutral>
2.19198e-05

> <r_epik_State_Penalty>
0.000385263

> <r_epik_Charging_Adjusted_Penalty>
0.000996214

> <i_epik_Tot_Q>
1

> <i_epik_Tot_abs_Q>
1

> <r_epik_Metal_State_Penalty>
-0

> <b_epik_Metal_Only>
0

> <s_lp_Force_Field>
OPLS_2005

> <r_lp_Energy>
24.2793

> <b_lp_Chiralities_Consistent>
1

> <s_lp_Variant>
AV-unprocessed.smi:2002-1

> <Gold.Version>
5.8.1

> <Gold.Id.Protein>
6NUR|6NUR_protein|mol2

> <Gold.PLP.Fitness>
38.9553

> <Gold.PLP.PLP>
-30.2681

> <Gold.PLP.part.hbond>
-6.1433

> <Gold.PLP.part.metal>
0.0000

> <Gold.PLP.part.buried>
-3.0891

> <Gold.PLP.part.nonpolar>
-22.6013

> <Gold.PLP.part.repulsive>
0.2111

> <Gold.PLP.ligand.clash>
0.0000

> <Gold.PLP.ligand.torsion>
1.1895

> <Gold.PLP.Chemscore.Hbond>
3.6800

> <Gold.PLP.Chemscore.CHOScore>
0.0000

> <Gold.PLP.Chemscore.Metal>
0.0000

> <Gold.Chemscore.Hbonds>
donor molecule, donor type, donor heavy atom, donor atom, acceptor molecule, acceptor atom, score
      L1  H     8    31       P1  7948  1.00
      L1  H    11    32       P1  7948  0.95
      P1  H  7997  8009       L1    16  0.68

> <Gold.PLP.Chemscore.Internal.Correction>
0.0262

> <Gold.Rescore>
     Score         DG    S(hbond)    S(metal)    S(lipo)     H(rot)  DE(clash)    DE(int)     intcor
     13.41     -14.71       2.00        0.00      55.18       1.52       0.09       1.21       ----

> <Gold.Chemscore.Fitness>
13.4090

> <Gold.Chemscore.DG>
-14.7090

> <Gold.Chemscore.ZeroCoef>
-5.4800

> <Gold.Chemscore.Hbond>
1.9970

> <Gold.Chemscore.Metal>
0.0000

> <Gold.Chemscore.Lipo>
55.1801

> <Gold.Chemscore.Internal_Hbond>
0.0000

> <Gold.Chemscore.DEClash>
0.0901

> <Gold.Chemscore.DEInternal>
1.2099

> <Gold.Chemscore.Rot>
1.5223

> <Gold.Chemscore.Internal.Correction>
   9.000000E+99

> <Gold.Chemscore.Hbonds>
donor molecule, donor type, donor heavy atom, donor atom, acceptor molecule, acceptor atom, score
      L1  H     8    31       P1  7948  0.44
      L1  H    11    32       P1  7948  0.56
      P1  H  7997  8009       L1    16  0.59

> <Gold.Chemscore.Hbond.Weighted>
-6.6700

> <Gold.Chemscore.Metal.Weighted>
-0.0000

> <Gold.Chemscore.Lipo.Weighted>
-6.4561

> <Gold.Chemscore.Internal_Hbond.Weighted>
0.0000

> <Gold.Chemscore.DEClash.Weighted>
0.0901

> <Gold.Chemscore.DEInternal.Weighted>
1.2099

> <Gold.Chemscore.Rot.Weighted>
3.8971

> <Gold.Chemscore.Internal.Correction.Weighted>
   9.000000E+99

> <Gold.Protein.RotatedTorsions>
[ 6907 6896 6895 6894 ] final  129.31 input  -60.11 | X-H torsion
[ 7974 7965 7964 7962 ] final   39.96 input  175.53 | X-H torsion
[ 8008 7997 7996 7995 ] final -149.71 input   59.86 | X-H torsion
[ 10167 10162 10161 10158 ] final  153.86 input  -65.29 | X-H torsion
[ 10718 10713 10712 10709 ] final  -64.15 input   66.30 | X-H torsion
[ 10763 10752 10751 10750 ] final -155.21 input  -60.55 | X-H torsion
[ 11005 11000 10999 10996 ] final  150.49 input  -57.11 | X-H torsion

> <Gold.Protein.ActiveResidues>
 VAL166  LYS551  ARG553  GLY616  TRP617  ASP618  TYR619  PRO620  LYS621  CYS622 
 ASP623  PHE694  ASN695  SER759  ASP760  ASP761  ALA762  ILE779  LEU786  VAL792 
 PHE793  MET794  SER795  GLU796  ALA797  LYS798  CYS799  TRP800  GLU811  SER814 

> <Gold.Protein.RotatedAtoms>
  152.3636  133.6328  159.6033 H   0  0  0  0  0  0  0  0  0  0  0  0  # atno 6907 bound_to 6896
  150.7618  133.9384  159.3457 H   0  0  0  0  0  0  0  0  0  0  0  0  # atno 6908 bound_to 6896
  151.7218  135.0894  160.0336 H   0  0  0  0  0  0  0  0  0  0  0  0  # atno 6909 bound_to 6896
  146.0943  139.5589  142.9456 H   0  0  0  0  0  0  0  0  0  0  0  0  # atno 7974 bound_to 7965
  155.6119  140.0672  157.2703 H   0  0  0  0  0  0  0  0  0  0  0  0  # atno 8008 bound_to 7997
  154.4251  140.1800  156.1329 H   0  0  0  0  0  0  0  0  0  0  0  0  # atno 8009 bound_to 7997
  156.0078  140.3330  155.6913 H   0  0  0  0  0  0  0  0  0  0  0  0  # atno 8010 bound_to 7997
  139.4825  144.5237  151.7835 H   0  0  0  0  0  0  0  0  0  0  0  0  # atno 10167 bound_to 10162
  156.0747  130.4230  150.1379 H   0  0  0  0  0  0  0  0  0  0  0  0  # atno 10718 bound_to 10713
  154.7803  135.3173  154.8003 H   0  0  0  0  0  0  0  0  0  0  0  0  # atno 10763 bound_to 10752
  153.8716  135.6843  153.4778 H   0  0  0  0  0  0  0  0  0  0  0  0  # atno 10764 bound_to 10752
  153.1438  135.4728  154.9473 H   0  0  0  0  0  0  0  0  0  0  0  0  # atno 10765 bound_to 10752
  140.1135  134.8909  157.1971 H   0  0  0  0  0  0  0  0  0  0  0  0  # atno 11005 bound_to 11000
  145.5979  141.0360  143.2034 LP  0  0  0  0  0  0  0  0  0  0  0  0  # atno 17320 bound_to 7965
  144.7383  139.7521  143.7320 LP  0  0  0  0  0  0  0  0  0  0  0  0  # atno 17321 bound_to 7965
  140.4754  144.1526  150.5924 LP  0  0  0  0  0  0  0  0  0  0  0  0  # atno 17342 bound_to 10162
  140.4336  143.2557  151.9563 LP  0  0  0  0  0  0  0  0  0  0  0  0  # atno 17343 bound_to 10162
  156.9422  130.9748  151.3514 LP  0  0  0  0  0  0  0  0  0  0  0  0  # atno 17370 bound_to 10713
  157.5836  130.8394  149.8557 LP  0  0  0  0  0  0  0  0  0  0  0  0  # atno 17371 bound_to 10713
  140.3059  134.3079  155.7278 LP  0  0  0  0  0  0  0  0  0  0  0  0  # atno 17394 bound_to 11000
  141.2136  133.7620  156.9707 LP  0  0  0  0  0  0  0  0  0  0  0  0  # atno 17395 bound_to 11000

$$$$
