AV-unprocessed.smi:927|AV-procd|sdf|4189|dock3
  -GOLD-   22720 2 93D 1   1.00000     0.00000
 Structure written by MMmdl.
 20 20  0  0  0  0  0  0  0  0  1 V2000
  148.0252  138.8646  152.8631 N   0  0  0  0  0  0  0  0  0  0  0  0
  148.0033  139.3797  154.2413 C   0  0  0  0  0  0  0  0  0  0  0  0
  148.9447  140.5796  154.4476 C   0  0  2  0  0  0  0  0  0  0  0  0
  149.2079  141.1633  153.1871 O   0  0  0  0  0  0  0  0  0  0  0  0
  150.2330  140.1501  155.1324 C   0  0  0  0  0  0  0  0  0  0  0  0
  150.9933  139.0778  154.6201 C   0  0  0  0  0  0  0  0  0  0  0  0
  152.1837  138.7180  155.2829 C   0  0  0  0  0  0  0  0  0  0  0  0
  152.6383  139.3487  156.3869 N   0  0  0  0  0  0  0  0  0  0  0  0
  151.9082  140.3756  156.8722 C   0  0  0  0  0  0  0  0  0  0  0  0
  150.7047  140.8148  156.2854 C   0  0  0  0  0  0  0  0  0  0  0  0
  148.7172  139.3647  152.3070 H   0  0  0  0  0  0  0  0  0  0  0  0
  148.2888  137.8803  152.8540 H   0  0  0  0  0  0  0  0  0  0  0  0
  146.9847  139.6943  154.4710 H   0  0  0  0  0  0  0  0  0  0  0  0
  148.2402  138.5850  154.9498 H   0  0  0  0  0  0  0  0  0  0  0  0
  148.4534  141.3296  155.0693 H   0  0  0  0  0  0  0  0  0  0  0  0
  149.3832  140.4710  152.5686 H   0  0  0  0  0  0  0  0  0  0  0  0
  150.6759  138.5408  153.7384 H   0  0  0  0  0  0  0  0  0  0  0  0
  152.7878  137.9019  154.9147 H   0  0  0  0  0  0  0  0  0  0  0  0
  152.2951  140.8638  157.7544 H   0  0  0  0  0  0  0  0  0  0  0  0
  150.1595  141.6442  156.7116 H   0  0  0  0  0  0  0  0  0  0  0  0
  1  2  1  0  0  0  0
  1 11  1  0  0  0  0
  1 12  1  0  0  0  0
  2  3  1  0  0  0  0
  2 13  1  0  0  0  0
  2 14  1  0  0  0  0
  3  4  1  0  0  0  0
  3  5  1  0  0  0  0
  3 15  1  0  0  0  0
  4 16  1  0  0  0  0
  5 10  1  0  0  0  0
  5  6  2  0  0  0  0
  6  7  1  0  0  0  0
  6 17  1  0  0  0  0
  7  8  2  0  0  0  0
  7 18  1  0  0  0  0
  8  9  1  0  0  0  0
  9 10  2  0  0  0  0
  9 19  1  0  0  0  0
 10 20  1  0  0  0  0
M  END
> <s_m_source_file>
AV-unprocessed.smi

> <i_m_source_file_index>
927

> <i_lp_mmshare_version>
43012

> <i_f3d_flags>
0

> <s_epik_input>
W05IMl1bQ0gyXVtDQEhdKFtPSF0pYzFbY0hdW2NIXW5bY0hdW2NIXTE=

> <s_epik_cmdline>
J2VwaWtfcHl0aG9uJywgJy1waCcsICc3LjAnLCAnLXRuJywgJzgnLCAnLW1hJywgJzIwMCcsICctbWV0YWxfYmluZGluZycsICctaW1hZScsICc8aW5maWxlLm1hZT4nLCAnLW9tYWUnLCAnPG91dGZpbGUubWFlPic=

> <r_epik_Ionization_Penalty>
2.24668

> <r_epik_Ionization_Penalty_Charging>
0

> <r_epik_Ionization_Penalty_Neutral>
2.24668

> <r_epik_State_Penalty>
2.36938

> <r_epik_Charging_Adjusted_Penalty>
2.36938

> <i_epik_Tot_Q>
0

> <i_epik_Tot_abs_Q>
0

> <r_epik_Metal_State_Penalty>
2.3492

> <b_epik_Metal_Only>
0

> <s_lp_Force_Field>
OPLS_2005

> <r_lp_Energy>
12.0251

> <b_lp_Chiralities_Consistent>
1

> <s_lp_Variant>
AV-unprocessed.smi:927-3

> <Gold.Version>
5.8.1

> <Gold.Id.Protein>
6NUR|6NUR_protein|mol2

> <Gold.PLP.Fitness>
36.3960

> <Gold.PLP.PLP>
-23.4151

> <Gold.PLP.part.hbond>
-5.4139

> <Gold.PLP.part.metal>
0.0000

> <Gold.PLP.part.buried>
-2.6326

> <Gold.PLP.part.nonpolar>
-15.6271

> <Gold.PLP.part.repulsive>
0.0000

> <Gold.PLP.ligand.clash>
0.0000

> <Gold.PLP.ligand.torsion>
0.7048

> <Gold.PLP.Chemscore.Hbond>
4.7960

> <Gold.PLP.Chemscore.CHOScore>
0.0000

> <Gold.PLP.Chemscore.Metal>
0.0000

> <Gold.Chemscore.Hbonds>
donor molecule, donor type, donor heavy atom, donor atom, acceptor molecule, acceptor atom, score
      L1  H     1    11       P1  7957  1.00
      L1  H     1    12       P1  7948  0.99
      L1  H     4    16       P1  7957  0.87
      P1  H  7997  8009       L1     8  0.95
      P1  H  8011  8017       L1     4  0.90

> <Gold.PLP.Chemscore.Internal.Correction>
0.0025

> <Gold.Rescore>
     Score         DG    S(hbond)    S(metal)    S(lipo)     H(rot)  DE(clash)    DE(int)     intcor
     18.21     -18.99       3.90        0.00      44.65       1.85       0.03       0.75       ----

> <Gold.Chemscore.Fitness>
18.2147

> <Gold.Chemscore.DG>
-18.9944

> <Gold.Chemscore.ZeroCoef>
-5.4800

> <Gold.Chemscore.Hbond>
3.8967

> <Gold.Chemscore.Metal>
0.0000

> <Gold.Chemscore.Lipo>
44.6489

> <Gold.Chemscore.Internal_Hbond>
0.0000

> <Gold.Chemscore.DEClash>
0.0270

> <Gold.Chemscore.DEInternal>
0.7528

> <Gold.Chemscore.Rot>
1.8455

> <Gold.Chemscore.Internal.Correction>
   9.000000E+99

> <Gold.Chemscore.Hbonds>
donor molecule, donor type, donor heavy atom, donor atom, acceptor molecule, acceptor atom, score
      L1  H     1    11       P1  7957  0.98
      L1  H     1    12       P1  7948  0.89
      L1  H     4    16       P1  7957  0.79
      P1  H  7997  8009       L1     8  0.21
      P1  H  8011  8017       L1     4  0.18

> <Gold.Chemscore.Hbond.Weighted>
-13.0150

> <Gold.Chemscore.Metal.Weighted>
-0.0000

> <Gold.Chemscore.Lipo.Weighted>
-5.2239

> <Gold.Chemscore.Internal_Hbond.Weighted>
0.0000

> <Gold.Chemscore.DEClash.Weighted>
0.0270

> <Gold.Chemscore.DEInternal.Weighted>
0.7528

> <Gold.Chemscore.Rot.Weighted>
4.7245

> <Gold.Chemscore.Internal.Correction.Weighted>
   9.000000E+99

> <Gold.Protein.RotatedTorsions>
[ 6907 6896 6895 6894 ] final   -0.41 input  -60.11 | X-H torsion
[ 7974 7965 7964 7962 ] final  122.23 input  175.53 | X-H torsion
[ 8008 7997 7996 7995 ] final -176.27 input   59.86 | X-H torsion
[ 10167 10162 10161 10158 ] final  -48.36 input  -65.29 | X-H torsion
[ 10718 10713 10712 10709 ] final   57.82 input   66.30 | X-H torsion
[ 10763 10752 10751 10750 ] final -179.22 input  -60.55 | X-H torsion
[ 11005 11000 10999 10996 ] final  115.77 input  -57.11 | X-H torsion

> <Gold.Protein.ActiveResidues>
 VAL166  LYS551  ARG553  GLY616  TRP617  ASP618  TYR619  PRO620  LYS621  CYS622 
 ASP623  PHE694  ASN695  SER759  ASP760  ASP761  ALA762  ILE779  LEU786  VAL792 
 PHE793  MET794  SER795  GLU796  ALA797  LYS798  CYS799  TRP800  GLU811  SER814 

> <Gold.Protein.RotatedAtoms>
  151.5628  135.1065  159.9976 H   0  0  0  0  0  0  0  0  0  0  0  0  # atno 6907 bound_to 6896
  152.4438  133.7494  159.6696 H   0  0  0  0  0  0  0  0  0  0  0  0  # atno 6908 bound_to 6896
  150.8350  133.7961  159.3107 H   0  0  0  0  0  0  0  0  0  0  0  0  # atno 6909 bound_to 6896
  145.1100  139.3459  143.4768 H   0  0  0  0  0  0  0  0  0  0  0  0  # atno 7974 bound_to 7965
  155.9928  140.1204  157.0621 H   0  0  0  0  0  0  0  0  0  0  0  0  # atno 8008 bound_to 7997
  154.4217  140.1122  156.5658 H   0  0  0  0  0  0  0  0  0  0  0  0  # atno 8009 bound_to 7997
  155.6319  140.3473  155.4688 H   0  0  0  0  0  0  0  0  0  0  0  0  # atno 8010 bound_to 7997
  140.6734  143.2743  151.4060 H   0  0  0  0  0  0  0  0  0  0  0  0  # atno 10167 bound_to 10162
  157.5546  130.8791  149.9016 H   0  0  0  0  0  0  0  0  0  0  0  0  # atno 10718 bound_to 10713
  154.5379  135.2804  155.1122 H   0  0  0  0  0  0  0  0  0  0  0  0  # atno 10763 bound_to 10752
  154.2616  135.6320  153.5280 H   0  0  0  0  0  0  0  0  0  0  0  0  # atno 10764 bound_to 10752
  152.9972  135.5607  154.5910 H   0  0  0  0  0  0  0  0  0  0  0  0  # atno 10765 bound_to 10752
  139.9020  134.9589  156.7097 H   0  0  0  0  0  0  0  0  0  0  0  0  # atno 11005 bound_to 11000
  146.3526  140.1015  142.8608 LP  0  0  0  0  0  0  0  0  0  0  0  0  # atno 17320 bound_to 7965
  145.0857  140.9251  143.4798 LP  0  0  0  0  0  0  0  0  0  0  0  0  # atno 17321 bound_to 7965
  139.6014  144.1288  152.2202 LP  0  0  0  0  0  0  0  0  0  0  0  0  # atno 17342 bound_to 10162
  140.0674  144.5807  150.7217 LP  0  0  0  0  0  0  0  0  0  0  0  0  # atno 17343 bound_to 10162
  156.0607  130.3700  150.0988 LP  0  0  0  0  0  0  0  0  0  0  0  0  # atno 17370 bound_to 10713
  156.9158  130.9667  151.3556 LP  0  0  0  0  0  0  0  0  0  0  0  0  # atno 17371 bound_to 10713
  140.7086  133.9243  155.8069 LP  0  0  0  0  0  0  0  0  0  0  0  0  # atno 17394 bound_to 11000
  141.0318  134.0746  157.4006 LP  0  0  0  0  0  0  0  0  0  0  0  0  # atno 17395 bound_to 11000

$$$$
