AV-unprocessed.smi:170|AV-procd|sdf|1410|dock10
  -GOLD-   2262019173D 1   1.00000     0.00000
 Structure written by MMmdl.
 57 61  0  0  0  0  0  0  0  0  1 V2000
  154.1393  140.5350  159.4905 O   0  0  0  0  0  0  0  0  0  0  0  0
  152.8042  140.8042  159.8755 C   0  0  2  0  0  0  0  0  0  0  0  0
  151.8215  140.4145  158.7541 C   0  0  0  0  0  0  0  0  0  0  0  0
  151.3847  139.0339  158.8607 N   0  0  0  0  0  0  0  0  0  0  0  0
  151.8659  138.0851  159.7336 C   0  0  0  0  0  0  0  0  0  0  0  0
  151.3170  136.9058  159.6292 N   0  0  0  0  0  0  0  0  0  0  0  0
  150.3895  137.0518  158.6039 C   0  0  0  0  0  0  0  0  0  0  0  0
  149.4625  136.1797  157.9642 C   0  0  0  0  0  0  0  0  0  0  0  0
  149.2963  134.8704  158.2586 N   0  0  0  0  0  0  0  0  0  0  0  0
  149.8280  134.0292  157.1931 C   0  0  0  0  0  0  0  0  0  0  0  0
  149.8107  132.5559  157.6219 C   0  0  0  0  0  0  0  0  0  0  0  0
  148.4831  132.1927  157.9767 O   0  0  0  0  0  0  0  0  0  0  0  0
  147.9975  132.9546  159.0768 C   0  0  0  0  0  0  0  0  0  0  0  0
  147.9641  134.4590  158.7194 C   0  0  1  0  0  0  0  0  0  0  0  0
  147.4581  135.3171  159.9092 C   0  0  0  0  0  0  0  0  0  0  0  0
  147.8977  134.8152  161.2868 C   0  0  0  0  0  0  0  0  0  0  0  0
  147.1630  133.6214  161.9220 C   0  0  0  0  0  0  0  0  0  0  0  0
  146.3456  134.6171  162.7469 C   0  0  0  0  0  0  0  0  0  0  0  0
  147.4748  135.6254  162.5231 C   0  0  0  0  0  0  0  0  0  0  0  0
  148.6836  136.6906  156.9793 N   0  0  0  0  0  0  0  0  0  0  0  0
  148.8118  137.9723  156.6231 C   0  0  0  0  0  0  0  0  0  0  0  0
  149.6381  138.8979  157.1159 N   0  0  0  0  0  0  0  0  0  0  0  0
  150.4140  138.3884  158.1155 C   0  0  0  0  0  0  0  0  0  0  0  0
  152.6600  142.2751  160.3143 C   0  0  1  0  0  0  0  0  0  0  0  0
  152.8647  143.3344  159.2178 C   0  0  0  0  0  0  0  0  0  0  0  0
  151.6620  144.2530  159.3673 C   0  0  0  0  0  0  0  0  0  0  0  0
  151.1302  143.9188  160.7560 C   0  0  0  0  0  0  0  0  0  0  0  0
  151.3718  142.5263  160.8634 O   0  0  0  0  0  0  0  0  0  0  0  0
  154.7165  141.0193  160.0614 H   0  0  0  0  0  0  0  0  0  0  0  0
  152.6012  140.1759  160.7435 H   0  0  0  0  0  0  0  0  0  0  0  0
  150.9398  141.0555  158.7858 H   0  0  0  0  0  0  0  0  0  0  0  0
  152.2771  140.5613  157.7741 H   0  0  0  0  0  0  0  0  0  0  0  0
  152.6446  138.2961  160.4520 H   0  0  0  0  0  0  0  0  0  0  0  0
  149.2293  134.1597  156.2903 H   0  0  0  0  0  0  0  0  0  0  0  0
  150.8479  134.3306  156.9499 H   0  0  0  0  0  0  0  0  0  0  0  0
  150.1472  131.9208  156.8026 H   0  0  0  0  0  0  0  0  0  0  0  0
  150.4873  132.3839  158.4606 H   0  0  0  0  0  0  0  0  0  0  0  0
  146.9982  132.5909  159.3133 H   0  0  0  0  0  0  0  0  0  0  0  0
  148.6184  132.7745  159.9561 H   0  0  0  0  0  0  0  0  0  0  0  0
  147.2747  134.5753  157.8842 H   0  0  0  0  0  0  0  0  0  0  0  0
  147.7898  136.3469  159.7725 H   0  0  0  0  0  0  0  0  0  0  0  0
  146.3693  135.3637  159.9002 H   0  0  0  0  0  0  0  0  0  0  0  0
  148.9747  134.6489  161.3199 H   0  0  0  0  0  0  0  0  0  0  0  0
  146.5695  133.0162  161.2366 H   0  0  0  0  0  0  0  0  0  0  0  0
  147.8174  133.0023  162.5380 H   0  0  0  0  0  0  0  0  0  0  0  0
  145.4141  134.9073  162.2575 H   0  0  0  0  0  0  0  0  0  0  0  0
  146.1868  134.3295  163.7863 H   0  0  0  0  0  0  0  0  0  0  0  0
  148.2207  135.6054  163.3193 H   0  0  0  0  0  0  0  0  0  0  0  0
  147.1387  136.6415  162.3138 H   0  0  0  0  0  0  0  0  0  0  0  0
  148.1614  138.3026  155.8266 H   0  0  0  0  0  0  0  0  0  0  0  0
  153.3800  142.4708  161.1110 H   0  0  0  0  0  0  0  0  0  0  0  0
  153.7952  143.8771  159.3883 H   0  0  0  0  0  0  0  0  0  0  0  0
  152.9121  142.9149  158.2126 H   0  0  0  0  0  0  0  0  0  0  0  0
  151.9121  145.3079  159.2523 H   0  0  0  0  0  0  0  0  0  0  0  0
  150.9115  144.0003  158.6174 H   0  0  0  0  0  0  0  0  0  0  0  0
  151.6900  144.4495  161.5275 H   0  0  0  0  0  0  0  0  0  0  0  0
  150.0724  144.1548  160.8716 H   0  0  0  0  0  0  0  0  0  0  0  0
  1  2  1  0  0  0  0
  1 29  1  0  0  0  0
  2  3  1  0  0  0  0
  2 24  1  0  0  0  0
  2 30  1  0  0  0  0
  3  4  1  0  0  0  0
  3 31  1  0  0  0  0
  3 32  1  0  0  0  0
  4 23  1  0  0  0  0
  4  5  1  0  0  0  0
  5  6  2  0  0  0  0
  5 33  1  0  0  0  0
  6  7  1  0  0  0  0
  7 23  2  0  0  0  0
  7  8  1  0  0  0  0
  8  9  1  0  0  0  0
  8 20  2  0  0  0  0
  9 14  1  0  0  0  0
  9 10  1  0  0  0  0
 10 11  1  0  0  0  0
 10 34  1  0  0  0  0
 10 35  1  0  0  0  0
 11 12  1  0  0  0  0
 11 36  1  0  0  0  0
 11 37  1  0  0  0  0
 12 13  1  0  0  0  0
 13 14  1  0  0  0  0
 13 38  1  0  0  0  0
 13 39  1  0  0  0  0
 14 15  1  0  0  0  0
 14 40  1  0  0  0  0
 15 16  1  0  0  0  0
 15 41  1  0  0  0  0
 15 42  1  0  0  0  0
 16 19  1  0  0  0  0
 16 17  1  0  0  0  0
 16 43  1  0  0  0  0
 17 18  1  0  0  0  0
 17 44  1  0  0  0  0
 17 45  1  0  0  0  0
 18 19  1  0  0  0  0
 18 46  1  0  0  0  0
 18 47  1  0  0  0  0
 19 48  1  0  0  0  0
 19 49  1  0  0  0  0
 20 21  1  0  0  0  0
 21 22  2  0  0  0  0
 21 50  1  0  0  0  0
 22 23  1  0  0  0  0
 24 28  1  0  0  0  0
 24 25  1  0  0  0  0
 24 51  1  0  0  0  0
 25 26  1  0  0  0  0
 25 52  1  0  0  0  0
 25 53  1  0  0  0  0
 26 27  1  0  0  0  0
 26 54  1  0  0  0  0
 26 55  1  0  0  0  0
 27 28  1  0  0  0  0
 27 56  1  0  0  0  0
 27 57  1  0  0  0  0
M  END
> <s_m_source_file>
AV-unprocessed.smi

> <i_m_source_file_index>
170

> <i_lp_mmshare_version>
43012

> <i_f3d_flags>
0

> <s_epik_input>
TzFbQ0gyXVtDSDJdW0NIMl1bQ0BIXTFbQ0BIXShbT0hdKVtDSDJdbihbY0hdbjIpYyhjMjMpbltjSF1uYzNONFtDSDJdW0NIMl1PW0NIMl1bQ0BIXTRbQ0gyXVtDSF01W0NIMl1bQ0gyXVtDSDJdNQ==

> <s_epik_cmdline>
J2VwaWtfcHl0aG9uJywgJy1waCcsICc3LjAnLCAnLXRuJywgJzgnLCAnLW1hJywgJzIwMCcsICctbWV0YWxfYmluZGluZycsICctaW1hZScsICc8aW5maWxlLm1hZT4nLCAnLW9tYWUnLCAnPG91dGZpbGUubWFlPic=

> <r_lp_tautomer_probability>
1

> <r_epik_Ionization_Penalty>
4.98275e-05

> <r_epik_Ionization_Penalty_Charging>
0

> <r_epik_Ionization_Penalty_Neutral>
4.98275e-05

> <r_epik_State_Penalty>
-0

> <r_epik_Charging_Adjusted_Penalty>
0

> <i_epik_Tot_Q>
0

> <i_epik_Tot_abs_Q>
0

> <r_epik_Metal_State_Penalty>
-0

> <b_epik_Metal_Only>
0

> <s_lp_Force_Field>
OPLS_2005

> <r_lp_Energy>
54.4618

> <b_lp_Chiralities_Consistent>
1

> <s_lp_Variant>
AV-unprocessed.smi:170-5

> <Gold.Version>
5.8.1

> <Gold.Id.Protein>
6NUR|6NUR_protein|mol2

> <Gold.PLP.Fitness>
51.8219

> <Gold.PLP.PLP>
-47.3398

> <Gold.PLP.part.hbond>
-3.8083

> <Gold.PLP.part.metal>
0.0000

> <Gold.PLP.part.buried>
-5.7633

> <Gold.PLP.part.nonpolar>
-37.4506

> <Gold.PLP.part.repulsive>
0.0456

> <Gold.PLP.ligand.clash>
0.0000

> <Gold.PLP.ligand.torsion>
0.9724

> <Gold.PLP.Chemscore.Hbond>
2.0347

> <Gold.PLP.Chemscore.CHOScore>
0.0000

> <Gold.PLP.Chemscore.Metal>
0.0000

> <Gold.Chemscore.Hbonds>
donor molecule, donor type, donor heavy atom, donor atom, acceptor molecule, acceptor atom, score
      P1  H  6896  6907       L1     9  0.50
      P1  H  6896  6908       L1     6  0.56
      P1  H  6933  6945       L1    28  0.20
      P1  H  7997  8009       L1     1  0.08

> <Gold.PLP.Chemscore.Internal.Correction>
0.3230

> <Gold.Rescore>
     Score         DG    S(hbond)    S(metal)    S(lipo)     H(rot)  DE(clash)    DE(int)     intcor
     16.03     -17.69       1.51        0.00     118.38       2.61       0.12       1.54       ----

> <Gold.Chemscore.Fitness>
16.0284

> <Gold.Chemscore.DG>
-17.6852

> <Gold.Chemscore.ZeroCoef>
-5.4800

> <Gold.Chemscore.Hbond>
1.5112

> <Gold.Chemscore.Metal>
0.0000

> <Gold.Chemscore.Lipo>
118.3825

> <Gold.Chemscore.Internal_Hbond>
0.0000

> <Gold.Chemscore.DEClash>
0.1165

> <Gold.Chemscore.DEInternal>
1.5403

> <Gold.Chemscore.Rot>
2.6144

> <Gold.Chemscore.Internal.Correction>
   9.000000E+99

> <Gold.Chemscore.Hbonds>
donor molecule, donor type, donor heavy atom, donor atom, acceptor molecule, acceptor atom, score
      P1  H  6896  6907       L1     9  0.01
      P1  H  6896  6908       L1     6  0.50
      P1  H  6933  6945       L1    28  0.12
      P1  H  7997  8009       L1     1  0.10

> <Gold.Chemscore.Hbond.Weighted>
-5.0474

> <Gold.Chemscore.Metal.Weighted>
-0.0000

> <Gold.Chemscore.Lipo.Weighted>
-13.8507

> <Gold.Chemscore.Internal_Hbond.Weighted>
0.0000

> <Gold.Chemscore.DEClash.Weighted>
0.1165

> <Gold.Chemscore.DEInternal.Weighted>
1.5403

> <Gold.Chemscore.Rot.Weighted>
6.6929

> <Gold.Chemscore.Internal.Correction.Weighted>
   9.000000E+99

> <Gold.Protein.RotatedTorsions>
[ 6907 6896 6895 6894 ] final  -90.86 input  -60.11 | X-H torsion
[ 7974 7965 7964 7962 ] final  129.70 input  175.53 | X-H torsion
[ 8008 7997 7996 7995 ] final  128.87 input   59.86 | X-H torsion
[ 10167 10162 10161 10158 ] final  -33.77 input  -65.29 | X-H torsion
[ 10718 10713 10712 10709 ] final   55.60 input   66.30 | X-H torsion
[ 10763 10752 10751 10750 ] final -113.94 input  -60.55 | X-H torsion
[ 11005 11000 10999 10996 ] final   31.49 input  -57.11 | X-H torsion

> <Gold.Protein.ActiveResidues>
 VAL166  LYS551  ARG553  GLY616  TRP617  ASP618  TYR619  PRO620  LYS621  CYS622 
 ASP623  PHE694  ASN695  SER759  ASP760  ASP761  ALA762  ILE779  LEU786  VAL792 
 PHE793  MET794  SER795  GLU796  ALA797  LYS798  CYS799  TRP800  GLU811  SER814 

> <Gold.Protein.RotatedAtoms>
  150.6886  134.2366  159.4455 H   0  0  0  0  0  0  0  0  0  0  0  0  # atno 6907 bound_to 6896
  152.0313  134.9763  160.0582 H   0  0  0  0  0  0  0  0  0  0  0  0  # atno 6908 bound_to 6896
  152.1301  133.4368  159.4754 H   0  0  0  0  0  0  0  0  0  0  0  0  # atno 6909 bound_to 6896
  145.0258  139.4090  143.5174 H   0  0  0  0  0  0  0  0  0  0  0  0  # atno 7974 bound_to 7965
  156.2924  140.2634  156.2506 H   0  0  0  0  0  0  0  0  0  0  0  0  # atno 8008 bound_to 7997
  154.9886  140.0389  157.2328 H   0  0  0  0  0  0  0  0  0  0  0  0  # atno 8009 bound_to 7997
  154.7707  140.2777  155.6145 H   0  0  0  0  0  0  0  0  0  0  0  0  # atno 8010 bound_to 7997
  140.7198  143.3596  151.1989 H   0  0  0  0  0  0  0  0  0  0  0  0  # atno 10167 bound_to 10162
  157.5359  130.8663  149.8752 H   0  0  0  0  0  0  0  0  0  0  0  0  # atno 10718 bound_to 10713
  154.8418  135.4436  154.1428 H   0  0  0  0  0  0  0  0  0  0  0  0  # atno 10763 bound_to 10752
  153.2608  135.6936  153.7586 H   0  0  0  0  0  0  0  0  0  0  0  0  # atno 10764 bound_to 10752
  153.6863  135.3394  155.3166 H   0  0  0  0  0  0  0  0  0  0  0  0  # atno 10765 bound_to 10752
  140.2834  134.2947  155.7794 H   0  0  0  0  0  0  0  0  0  0  0  0  # atno 11005 bound_to 11000
  146.3492  139.9781  142.8699 LP  0  0  0  0  0  0  0  0  0  0  0  0  # atno 17320 bound_to 7965
  145.1835  140.9778  143.4252 LP  0  0  0  0  0  0  0  0  0  0  0  0  # atno 17321 bound_to 7965
  139.7145  143.9322  152.2961 LP  0  0  0  0  0  0  0  0  0  0  0  0  # atno 17342 bound_to 10162
  139.9058  144.6885  150.8615 LP  0  0  0  0  0  0  0  0  0  0  0  0  # atno 17343 bound_to 10162
  156.0458  130.3728  150.1322 LP  0  0  0  0  0  0  0  0  0  0  0  0  # atno 17370 bound_to 10713
  156.9504  130.9773  151.3499 LP  0  0  0  0  0  0  0  0  0  0  0  0  # atno 17371 bound_to 10713
  141.2159  133.7539  156.9515 LP  0  0  0  0  0  0  0  0  0  0  0  0  # atno 17394 bound_to 11000
  140.1262  134.9385  157.2274 LP  0  0  0  0  0  0  0  0  0  0  0  0  # atno 17395 bound_to 11000

$$$$
