AV-unprocessed.smi:2837|AV-procd|sdf|10926|dock7
  -GOLD-   2272015373D 1   1.00000     0.00000
 Structure written by MMmdl.
 33 35  0  0  0  0  0  0  0  0  2 V2000
  154.1575  141.4170  161.5770 F   0  0  0  0  0  0  0  0  0  0  0  0
  153.0922  142.1146  161.1124 C   0  0  0  0  0  0  0  0  0  0  0  0
  152.8653  143.1357  161.9731 F   0  0  0  0  0  0  0  0  0  0  0  0
  153.3523  142.6089  159.8727 O   0  0  0  0  0  0  0  0  0  0  0  0
  152.3835  142.5300  158.8984 C   0  0  0  0  0  0  0  0  0  0  0  0
  151.9027  141.2551  158.5342 C   0  0  0  0  0  0  0  0  0  0  0  0
  150.9016  141.1361  157.5487 C   0  0  0  0  0  0  0  0  0  0  0  0
  150.3816  142.3037  156.9414 C   0  0  0  0  0  0  0  0  0  0  0  0
  149.3878  142.3111  155.9529 N   0  0  0  0  0  0  0  0  0  0  0  0
  148.7980  141.0708  155.4626 C   0  0  2  0  0  0  0  0  0  0  0  0
  148.7613  140.9880  153.9345 C   0  0  0  0  0  0  0  0  0  0  0  0
  147.2817  140.6760  153.6703 C   0  0  2  0  0  0  0  0  0  0  0  0
  146.4002  141.9148  153.8727 C   0  0  0  0  0  0  0  0  0  0  0  0
  146.4132  142.0594  155.3931 C   0  0  0  0  0  0  0  0  0  0  0  0
  147.3091  140.8831  155.8182 C   0  0  1  0  0  0  0  0  0  0  0  0
  146.9502  139.9316  154.8310 O   0  0  0  0  0  0  0  0  0  0  0  0
  150.8609  143.5074  157.3252 N   0  3  0  0  0  0  0  0  0  0  0  0
  151.8203  143.6631  158.2636 C   0  0  0  0  0  0  0  0  0  0  0  0
  152.2090  141.4752  161.1137 H   0  0  0  0  0  0  0  0  0  0  0  0
  152.3033  140.3701  159.0070 H   0  0  0  0  0  0  0  0  0  0  0  0
  150.5508  140.1521  157.2760 H   0  0  0  0  0  0  0  0  0  0  0  0
  148.9411  143.1824  155.7055 H   0  0  0  0  0  0  0  0  0  0  0  0
  149.3748  140.2236  155.8353 H   0  0  0  0  0  0  0  0  0  0  0  0
  149.0797  141.9041  153.4343 H   0  0  0  0  0  0  0  0  0  0  0  0
  149.3987  140.1748  153.5854 H   0  0  0  0  0  0  0  0  0  0  0  0
  147.0998  140.1526  152.7314 H   0  0  0  0  0  0  0  0  0  0  0  0
  146.7919  142.7934  153.3589 H   0  0  0  0  0  0  0  0  0  0  0  0
  145.3861  141.7330  153.5149 H   0  0  0  0  0  0  0  0  0  0  0  0
  146.7877  143.0275  155.7263 H   0  0  0  0  0  0  0  0  0  0  0  0
  145.4058  141.9353  155.7916 H   0  0  0  0  0  0  0  0  0  0  0  0
  147.1340  140.5457  156.8398 H   0  0  0  0  0  0  0  0  0  0  0  0
  152.0968  144.6859  158.4745 H   0  0  0  0  0  0  0  0  0  0  0  0
  150.4772  144.3451  156.8869 H   0  0  0  0  0  0  0  0  0  0  0  0
  1  2  1  0  0  0  0
  2  3  1  0  0  0  0
  2  4  1  0  0  0  0
  2 19  1  0  0  0  0
  4  5  1  0  0  0  0
  5 18  1  0  0  0  0
  5  6  2  0  0  0  0
  6  7  1  0  0  0  0
  6 20  1  0  0  0  0
  7  8  2  0  0  0  0
  7 21  1  0  0  0  0
  8  9  1  0  0  0  0
  8 17  1  0  0  0  0
  9 10  1  0  0  0  0
  9 22  1  0  0  0  0
 10 15  1  0  0  0  0
 10 11  1  0  0  0  0
 10 23  1  0  0  0  0
 11 12  1  0  0  0  0
 11 24  1  0  0  0  0
 11 25  1  0  0  0  0
 12 16  1  0  0  0  0
 12 13  1  0  0  0  0
 12 26  1  0  0  0  0
 13 14  1  0  0  0  0
 13 27  1  0  0  0  0
 13 28  1  0  0  0  0
 14 15  1  0  0  0  0
 14 29  1  0  0  0  0
 14 30  1  0  0  0  0
 15 16  1  0  0  0  0
 15 31  1  0  0  0  0
 17 18  2  0  0  0  0
 17 33  1  0  0  0  0
 18 32  1  0  0  0  0
M  CHG  1  17   1
M  END
> <s_m_source_file>
AV-unprocessed.smi

> <i_m_source_file_index>
2837

> <i_lp_mmshare_version>
43012

> <i_f3d_flags>
0

> <s_epik_input>
RltDSF0oRilPYzFbY0hdW2NIXWMobltjSF0xKVtOSF1bQ0BIXShbQ0gyXVtDQEBIXTIzKVtDQEBIXShPMylbQ0gyXVtDSDJdMg==

> <s_epik_cmdline>
J2VwaWtfcHl0aG9uJywgJy1waCcsICc3LjAnLCAnLXRuJywgJzgnLCAnLW1hJywgJzIwMCcsICctbWV0YWxfYmluZGluZycsICctaW1hZScsICc8aW5maWxlLm1hZT4nLCAnLW9tYWUnLCAnPG91dGZpbGUubWFlPic=

> <r_lp_tautomer_probability>
0.999429

> <r_epik_Ionization_Penalty>
2.29716

> <r_epik_Ionization_Penalty_Charging>
2.29716

> <r_epik_Ionization_Penalty_Neutral>
1.42285e-06

> <r_epik_State_Penalty>
2.44762

> <r_epik_Charging_Adjusted_Penalty>
4.74478

> <i_epik_Tot_Q>
1

> <i_epik_Tot_abs_Q>
1

> <r_epik_Metal_State_Penalty>
6.53078

> <b_epik_Metal_Only>
0

> <s_lp_Force_Field>
OPLS_2005

> <r_lp_Energy>
46.8355

> <b_lp_Chiralities_Consistent>
1

> <s_lp_Variant>
AV-unprocessed.smi:2837-7

> <Gold.Version>
5.8.1

> <Gold.Id.Protein>
6NUR|6NUR_protein|mol2

> <Gold.PLP.Fitness>
47.3480

> <Gold.PLP.PLP>
-38.5611

> <Gold.PLP.part.hbond>
-1.8306

> <Gold.PLP.part.metal>
0.0000

> <Gold.PLP.part.buried>
-2.5533

> <Gold.PLP.part.nonpolar>
-34.1456

> <Gold.PLP.part.repulsive>
0.2091

> <Gold.PLP.ligand.clash>
0.0000

> <Gold.PLP.ligand.torsion>
0.7060

> <Gold.PLP.Chemscore.Hbond>
3.3957

> <Gold.PLP.Chemscore.CHOScore>
0.0000

> <Gold.PLP.Chemscore.Metal>
0.0000

> <Gold.Chemscore.Hbonds>
donor molecule, donor type, donor heavy atom, donor atom, acceptor molecule, acceptor atom, score
      L1  H     9    22       P1  8028  2.00
      L1  H    17    33       P1  8028  1.44

> <Gold.PLP.Chemscore.Internal.Correction>
0.0118

> <Gold.Rescore>
     Score         DG    S(hbond)    S(metal)    S(lipo)     H(rot)  DE(clash)    DE(int)     intcor
     15.44     -16.49       1.60        0.00      77.68       1.34       0.31       0.74       ----

> <Gold.Chemscore.Fitness>
15.4418

> <Gold.Chemscore.DG>
-16.4904

> <Gold.Chemscore.ZeroCoef>
-5.4800

> <Gold.Chemscore.Hbond>
1.5999

> <Gold.Chemscore.Metal>
0.0000

> <Gold.Chemscore.Lipo>
77.6831

> <Gold.Chemscore.Internal_Hbond>
0.0000

> <Gold.Chemscore.DEClash>
0.3061

> <Gold.Chemscore.DEInternal>
0.7426

> <Gold.Chemscore.Rot>
1.3368

> <Gold.Chemscore.Internal.Correction>
   9.000000E+99

> <Gold.Chemscore.Hbonds>
donor molecule, donor type, donor heavy atom, donor atom, acceptor molecule, acceptor atom, score
      L1  H     9    22       P1  8028  0.91
      L1  H    17    33       P1  8028  0.64

> <Gold.Chemscore.Hbond.Weighted>
-5.3438

> <Gold.Chemscore.Metal.Weighted>
-0.0000

> <Gold.Chemscore.Lipo.Weighted>
-9.0889

> <Gold.Chemscore.Internal_Hbond.Weighted>
0.0000

> <Gold.Chemscore.DEClash.Weighted>
0.3061

> <Gold.Chemscore.DEInternal.Weighted>
0.7426

> <Gold.Chemscore.Rot.Weighted>
3.4223

> <Gold.Chemscore.Internal.Correction.Weighted>
   9.000000E+99

> <Gold.Protein.RotatedTorsions>
[ 6907 6896 6895 6894 ] final   66.67 input  -60.11 | X-H torsion
[ 7974 7965 7964 7962 ] final   -1.73 input  175.53 | X-H torsion
[ 8008 7997 7996 7995 ] final   14.95 input   59.86 | X-H torsion
[ 10167 10162 10161 10158 ] final -125.13 input  -65.29 | X-H torsion
[ 10718 10713 10712 10709 ] final  143.02 input   66.30 | X-H torsion
[ 10763 10752 10751 10750 ] final   63.51 input  -60.55 | X-H torsion
[ 11005 11000 10999 10996 ] final   57.69 input  -57.11 | X-H torsion

> <Gold.Protein.ActiveResidues>
 VAL166  LYS551  ARG553  GLY616  TRP617  ASP618  TYR619  PRO620  LYS621  CYS622 
 ASP623  PHE694  ASN695  SER759  ASP760  ASP761  ALA762  ILE779  LEU786  VAL792 
 PHE793  MET794  SER795  GLU796  ALA797  LYS798  CYS799  TRP800  GLU811  SER814 

> <Gold.Protein.RotatedAtoms>
  152.4498  134.5418  159.9841 H   0  0  0  0  0  0  0  0  0  0  0  0  # atno 6907 bound_to 6896
  151.5494  133.3414  159.2958 H   0  0  0  0  0  0  0  0  0  0  0  0  # atno 6908 bound_to 6896
  150.8423  134.7752  159.7006 H   0  0  0  0  0  0  0  0  0  0  0  0  # atno 6909 bound_to 6896
  146.2413  140.1464  142.8334 H   0  0  0  0  0  0  0  0  0  0  0  0  # atno 7974 bound_to 7965
  154.8557  140.2936  155.5570 H   0  0  0  0  0  0  0  0  0  0  0  0  # atno 8008 bound_to 7997
  156.3018  140.2487  156.3456 H   0  0  0  0  0  0  0  0  0  0  0  0  # atno 8009 bound_to 7997
  154.8972  140.0392  157.1862 H   0  0  0  0  0  0  0  0  0  0  0  0  # atno 8010 bound_to 7997
  139.9854  143.5698  152.2362 H   0  0  0  0  0  0  0  0  0  0  0  0  # atno 10167 bound_to 10162
  157.3738  131.0982  151.0804 H   0  0  0  0  0  0  0  0  0  0  0  0  # atno 10718 bound_to 10713
  153.0020  135.5426  154.6363 H   0  0  0  0  0  0  0  0  0  0  0  0  # atno 10763 bound_to 10752
  154.5628  135.2835  155.0904 H   0  0  0  0  0  0  0  0  0  0  0  0  # atno 10764 bound_to 10752
  154.2100  135.6469  153.5165 H   0  0  0  0  0  0  0  0  0  0  0  0  # atno 10765 bound_to 10752
  140.0433  134.5842  155.9354 H   0  0  0  0  0  0  0  0  0  0  0  0  # atno 11005 bound_to 11000
  145.0204  140.8788  143.5170 LP  0  0  0  0  0  0  0  0  0  0  0  0  # atno 17320 bound_to 7965
  145.1512  139.2513  143.5440 LP  0  0  0  0  0  0  0  0  0  0  0  0  # atno 17321 bound_to 7965
  139.6379  144.7652  151.2400 LP  0  0  0  0  0  0  0  0  0  0  0  0  # atno 17342 bound_to 10162
  140.7474  143.6367  150.8373 LP  0  0  0  0  0  0  0  0  0  0  0  0  # atno 17343 bound_to 10162
  157.1898  130.6347  149.5700 LP  0  0  0  0  0  0  0  0  0  0  0  0  # atno 17370 bound_to 10713
  155.9761  130.4726  150.6504 LP  0  0  0  0  0  0  0  0  0  0  0  0  # atno 17371 bound_to 10713
  141.1894  133.6565  156.5367 LP  0  0  0  0  0  0  0  0  0  0  0  0  # atno 17394 bound_to 11000
  140.4034  134.7337  157.4793 LP  0  0  0  0  0  0  0  0  0  0  0  0  # atno 17395 bound_to 11000

$$$$
