AV-unprocessed.smi:2837|AV-procd|sdf|10927|dock10
  -GOLD-   2272015373D 1   1.00000     0.00000
 Structure written by MMmdl.
 33 35  0  0  0  0  0  0  0  0  2 V2000
  145.9913  132.9814  150.7986 F   0  0  0  0  0  0  0  0  0  0  0  0
  144.8324  133.6737  150.9223 C   0  0  0  0  0  0  0  0  0  0  0  0
  143.8283  132.8655  150.5062 F   0  0  0  0  0  0  0  0  0  0  0  0
  144.6277  134.0291  152.2187 O   0  0  0  0  0  0  0  0  0  0  0  0
  143.8982  135.1614  152.5034 C   0  0  0  0  0  0  0  0  0  0  0  0
  142.6757  135.0127  153.1912 C   0  0  0  0  0  0  0  0  0  0  0  0
  141.9075  136.1498  153.5153 C   0  0  0  0  0  0  0  0  0  0  0  0
  142.3788  137.4335  153.1515 C   0  0  0  0  0  0  0  0  0  0  0  0
  141.7056  138.6329  153.4221 N   0  0  0  0  0  0  0  0  0  0  0  0
  140.4272  138.6449  154.1220 C   0  0  1  0  0  0  0  0  0  0  0  0
  139.7375  140.0159  154.0974 C   0  0  0  0  0  0  0  0  0  0  0  0
  138.3778  139.6766  153.4744 C   0  0  2  0  0  0  0  0  0  0  0  0
  137.5021  138.8334  154.4112 C   0  0  0  0  0  0  0  0  0  0  0  0
  138.1930  137.4719  154.3434 C   0  0  0  0  0  0  0  0  0  0  0  0
  139.3806  137.7657  153.4167 C   0  0  1  0  0  0  0  0  0  0  0  0
  138.7768  138.6967  152.5331 O   0  0  0  0  0  0  0  0  0  0  0  0
  143.5586  137.5352  152.5011 N   0  3  0  0  0  0  0  0  0  0  0  0
  144.3230  136.4709  152.1725 C   0  0  0  0  0  0  0  0  0  0  0  0
  144.8542  134.5432  150.2648 H   0  0  0  0  0  0  0  0  0  0  0  0
  142.3270  134.0287  153.4680 H   0  0  0  0  0  0  0  0  0  0  0  0
  140.9724  136.0190  154.0388 H   0  0  0  0  0  0  0  0  0  0  0  0
  142.1623  139.5157  153.2425 H   0  0  0  0  0  0  0  0  0  0  0  0
  140.5769  138.2870  155.1414 H   0  0  0  0  0  0  0  0  0  0  0  0
  139.6406  140.4564  155.0903 H   0  0  0  0  0  0  0  0  0  0  0  0
  140.2716  140.7258  153.4638 H   0  0  0  0  0  0  0  0  0  0  0  0
  137.8640  140.5341  153.0392 H   0  0  0  0  0  0  0  0  0  0  0  0
  137.4651  139.2412  155.4220 H   0  0  0  0  0  0  0  0  0  0  0  0
  136.4816  138.7629  154.0329 H   0  0  0  0  0  0  0  0  0  0  0  0
  138.5050  137.1042  155.3214 H   0  0  0  0  0  0  0  0  0  0  0  0
  137.5296  136.7303  153.8965 H   0  0  0  0  0  0  0  0  0  0  0  0
  139.7858  136.8761  152.9330 H   0  0  0  0  0  0  0  0  0  0  0  0
  145.2466  136.7076  151.6645 H   0  0  0  0  0  0  0  0  0  0  0  0
  143.8938  138.4648  152.2471 H   0  0  0  0  0  0  0  0  0  0  0  0
  1  2  1  0  0  0  0
  2  3  1  0  0  0  0
  2  4  1  0  0  0  0
  2 19  1  0  0  0  0
  4  5  1  0  0  0  0
  5 18  1  0  0  0  0
  5  6  2  0  0  0  0
  6  7  1  0  0  0  0
  6 20  1  0  0  0  0
  7  8  2  0  0  0  0
  7 21  1  0  0  0  0
  8  9  1  0  0  0  0
  8 17  1  0  0  0  0
  9 10  1  0  0  0  0
  9 22  1  0  0  0  0
 10 15  1  0  0  0  0
 10 11  1  0  0  0  0
 10 23  1  0  0  0  0
 11 12  1  0  0  0  0
 11 24  1  0  0  0  0
 11 25  1  0  0  0  0
 12 16  1  0  0  0  0
 12 13  1  0  0  0  0
 12 26  1  0  0  0  0
 13 14  1  0  0  0  0
 13 27  1  0  0  0  0
 13 28  1  0  0  0  0
 14 15  1  0  0  0  0
 14 29  1  0  0  0  0
 14 30  1  0  0  0  0
 15 16  1  0  0  0  0
 15 31  1  0  0  0  0
 17 18  2  0  0  0  0
 17 33  1  0  0  0  0
 18 32  1  0  0  0  0
M  CHG  1  17   1
M  END
> <s_m_source_file>
AV-unprocessed.smi

> <i_m_source_file_index>
2837

> <i_lp_mmshare_version>
43012

> <i_f3d_flags>
0

> <s_epik_input>
RltDSF0oRilPYzFbY0hdW2NIXWMobltjSF0xKVtOSF1bQ0BIXShbQ0gyXVtDQEBIXTIzKVtDQEBIXShPMylbQ0gyXVtDSDJdMg==

> <s_epik_cmdline>
J2VwaWtfcHl0aG9uJywgJy1waCcsICc3LjAnLCAnLXRuJywgJzgnLCAnLW1hJywgJzIwMCcsICctbWV0YWxfYmluZGluZycsICctaW1hZScsICc8aW5maWxlLm1hZT4nLCAnLW9tYWUnLCAnPG91dGZpbGUubWFlPic=

> <r_lp_tautomer_probability>
0.999429

> <r_epik_Ionization_Penalty>
2.29716

> <r_epik_Ionization_Penalty_Charging>
2.29716

> <r_epik_Ionization_Penalty_Neutral>
1.42285e-06

> <r_epik_State_Penalty>
2.44762

> <r_epik_Charging_Adjusted_Penalty>
4.74478

> <i_epik_Tot_Q>
1

> <i_epik_Tot_abs_Q>
1

> <r_epik_Metal_State_Penalty>
6.53078

> <b_epik_Metal_Only>
0

> <s_lp_Force_Field>
OPLS_2005

> <r_lp_Energy>
46.2914

> <b_lp_Chiralities_Consistent>
1

> <s_lp_Variant>
AV-unprocessed.smi:2837-8

> <Gold.Version>
5.8.1

> <Gold.Id.Protein>
6NUR|6NUR_protein|mol2

> <Gold.PLP.Fitness>
43.3630

> <Gold.PLP.PLP>
-32.6855

> <Gold.PLP.part.hbond>
-3.0000

> <Gold.PLP.part.metal>
0.0000

> <Gold.PLP.part.buried>
-5.6142

> <Gold.PLP.part.nonpolar>
-25.6114

> <Gold.PLP.part.repulsive>
1.2154

> <Gold.PLP.ligand.clash>
0.0000

> <Gold.PLP.ligand.torsion>
0.4329

> <Gold.PLP.Chemscore.Hbond>
3.8400

> <Gold.PLP.Chemscore.CHOScore>
0.0000

> <Gold.PLP.Chemscore.Metal>
0.0000

> <Gold.Chemscore.Hbonds>
donor molecule, donor type, donor heavy atom, donor atom, acceptor molecule, acceptor atom, score
      L1  H     9    22       P1 10175  1.98
      L1  H    17    33       P1 10175  1.86

> <Gold.PLP.Chemscore.Internal.Correction>
0.0233

> <Gold.Rescore>
     Score         DG    S(hbond)    S(metal)    S(lipo)     H(rot)  DE(clash)    DE(int)     intcor
     14.26     -15.67       1.79        0.00      65.20       1.34       1.11       0.30       ----

> <Gold.Chemscore.Fitness>
14.2604

> <Gold.Chemscore.DG>
-15.6697

> <Gold.Chemscore.ZeroCoef>
-5.4800

> <Gold.Chemscore.Hbond>
1.7916

> <Gold.Chemscore.Metal>
0.0000

> <Gold.Chemscore.Lipo>
65.1983

> <Gold.Chemscore.Internal_Hbond>
0.0000

> <Gold.Chemscore.DEClash>
1.1089

> <Gold.Chemscore.DEInternal>
0.3004

> <Gold.Chemscore.Rot>
1.3368

> <Gold.Chemscore.Internal.Correction>
   9.000000E+99

> <Gold.Chemscore.Hbonds>
donor molecule, donor type, donor heavy atom, donor atom, acceptor molecule, acceptor atom, score
      L1  H     9    22       P1 10175  0.88
      L1  H    17    33       P1 10175  0.87

> <Gold.Chemscore.Hbond.Weighted>
-5.9838

> <Gold.Chemscore.Metal.Weighted>
-0.0000

> <Gold.Chemscore.Lipo.Weighted>
-7.6282

> <Gold.Chemscore.Internal_Hbond.Weighted>
0.0000

> <Gold.Chemscore.DEClash.Weighted>
1.1089

> <Gold.Chemscore.DEInternal.Weighted>
0.3004

> <Gold.Chemscore.Rot.Weighted>
3.4223

> <Gold.Chemscore.Internal.Correction.Weighted>
   9.000000E+99

> <Gold.Protein.RotatedTorsions>
[ 6907 6896 6895 6894 ] final   98.52 input  -60.11 | X-H torsion
[ 7974 7965 7964 7962 ] final  159.50 input  175.53 | X-H torsion
[ 8008 7997 7996 7995 ] final -109.71 input   59.86 | X-H torsion
[ 10167 10162 10161 10158 ] final   65.34 input  -65.29 | X-H torsion
[ 10718 10713 10712 10709 ] final  -12.97 input   66.30 | X-H torsion
[ 10763 10752 10751 10750 ] final  -41.64 input  -60.55 | X-H torsion
[ 11005 11000 10999 10996 ] final  -45.66 input  -57.11 | X-H torsion

> <Gold.Protein.ActiveResidues>
 VAL166  LYS551  ARG553  GLY616  TRP617  ASP618  TYR619  PRO620  LYS621  CYS622 
 ASP623  PHE694  ASN695  SER759  ASP760  ASP761  ALA762  ILE779  LEU786  VAL792 
 PHE793  MET794  SER795  GLU796  ALA797  LYS798  CYS799  TRP800  GLU811  SER814 

> <Gold.Protein.RotatedAtoms>
  152.5408  134.0568  159.8134 H   0  0  0  0  0  0  0  0  0  0  0  0  # atno 6907 bound_to 6896
  151.0701  133.5465  159.2635 H   0  0  0  0  0  0  0  0  0  0  0  0  # atno 6908 bound_to 6896
  151.2331  135.0570  159.9049 H   0  0  0  0  0  0  0  0  0  0  0  0  # atno 6909 bound_to 6896
  144.7787  139.7626  143.6268 H   0  0  0  0  0  0  0  0  0  0  0  0  # atno 7974 bound_to 7965
  154.9634  140.0398  157.2201 H   0  0  0  0  0  0  0  0  0  0  0  0  # atno 8008 bound_to 7997
  154.7868  140.2828  155.6000 H   0  0  0  0  0  0  0  0  0  0  0  0  # atno 8009 bound_to 7997
  156.2944  140.2581  156.2706 H   0  0  0  0  0  0  0  0  0  0  0  0  # atno 8010 bound_to 7997
  140.1124  144.4806  150.6970 H   0  0  0  0  0  0  0  0  0  0  0  0  # atno 10167 bound_to 10162
  156.6370  130.4917  149.6108 H   0  0  0  0  0  0  0  0  0  0  0  0  # atno 10718 bound_to 10713
  153.9659  135.6734  153.4746 H   0  0  0  0  0  0  0  0  0  0  0  0  # atno 10763 bound_to 10752
  153.0816  135.4920  154.8510 H   0  0  0  0  0  0  0  0  0  0  0  0  # atno 10764 bound_to 10752
  154.7246  135.3124  154.8952 H   0  0  0  0  0  0  0  0  0  0  0  0  # atno 10765 bound_to 10752
  141.0529  133.6736  156.3044 H   0  0  0  0  0  0  0  0  0  0  0  0  # atno 11005 bound_to 11000
  146.1982  139.5261  142.9760 LP  0  0  0  0  0  0  0  0  0  0  0  0  # atno 17320 bound_to 7965
  145.6112  141.0339  143.1965 LP  0  0  0  0  0  0  0  0  0  0  0  0  # atno 17321 bound_to 7965
  140.6918  143.2380  151.5110 LP  0  0  0  0  0  0  0  0  0  0  0  0  # atno 17342 bound_to 10162
  139.5612  144.2152  152.1694 LP  0  0  0  0  0  0  0  0  0  0  0  0  # atno 17343 bound_to 10162
  156.2189  130.6725  151.1347 LP  0  0  0  0  0  0  0  0  0  0  0  0  # atno 17370 bound_to 10713
  157.7182  131.0697  150.6241 LP  0  0  0  0  0  0  0  0  0  0  0  0  # atno 17371 bound_to 10713
  140.6020  134.5545  157.5519 LP  0  0  0  0  0  0  0  0  0  0  0  0  # atno 17394 bound_to 11000
  139.9366  134.7865  156.0788 LP  0  0  0  0  0  0  0  0  0  0  0  0  # atno 17395 bound_to 11000

$$$$
