AV-unprocessed.smi:1071|AV-procd|sdf|4681|dock4
  -GOLD-   22720 3193D 1   1.00000     0.00000
 Structure written by MMmdl.
 46 47  0  0  0  0  0  0  0  0  1 V2000
  141.1149  138.5907  153.4699 C   0  0  0  0  0  0  0  0  0  0  0  0
  142.1463  138.7048  154.4343 O   0  0  0  0  0  0  0  0  0  0  0  0
  141.7370  139.4243  155.5855 C   0  0  0  0  0  0  0  0  0  0  0  0
  142.9770  139.8741  156.3638 C   0  0  0  0  0  0  0  0  0  0  0  0
  143.7087  140.8011  155.5672 O   0  0  0  0  0  0  0  0  0  0  0  0
  144.9813  141.1535  155.9670 C   0  0  0  0  0  0  0  0  0  0  0  0
  145.4678  140.6459  157.1879 C   0  0  0  0  0  0  0  0  0  0  0  0
  146.7647  141.0006  157.6055 C   0  0  0  0  0  0  0  0  0  0  0  0
  147.5339  141.8634  156.7888 C   0  0  0  0  0  0  0  0  0  0  0  0
  148.8594  142.2800  157.0868 N   0  0  0  0  0  0  0  0  0  0  0  0
  149.8175  141.6233  157.7705 C   0  0  0  0  0  0  0  0  0  0  0  0
  149.7117  140.4573  158.1487 O   0  0  0  0  0  0  0  0  0  0  0  0
  150.9602  142.3438  157.8867 N   0  0  0  0  0  0  0  0  0  0  0  0
  150.9160  143.7993  158.0999 C   0  0  0  0  0  0  0  0  0  0  0  0
  150.9779  144.0824  159.6160 C   0  0  0  0  0  0  0  0  0  0  0  0
  152.2080  143.5251  160.1834 N   0  0  0  0  0  0  0  0  0  0  0  0
  152.2425  143.7697  161.6177 C   0  0  0  0  0  0  0  0  0  0  0  0
  152.2989  142.0853  159.9261 C   0  0  0  0  0  0  0  0  0  0  0  0
  152.2430  141.8256  158.4052 C   0  0  1  0  0  0  0  0  0  0  0  0
  152.5565  140.3580  158.0473 C   0  0  0  0  0  0  0  0  0  0  0  0
  146.9612  142.3035  155.5775 C   0  0  0  0  0  0  0  0  0  0  0  0
  145.7187  141.9675  155.1715 N   0  0  0  0  0  0  0  0  0  0  0  0
  141.4787  138.0289  152.6098 H   0  0  0  0  0  0  0  0  0  0  0  0
  140.7927  139.5721  153.1192 H   0  0  0  0  0  0  0  0  0  0  0  0
  140.2511  138.0625  153.8760 H   0  0  0  0  0  0  0  0  0  0  0  0
  141.1238  140.2848  155.3132 H   0  0  0  0  0  0  0  0  0  0  0  0
  141.1283  138.7744  156.2160 H   0  0  0  0  0  0  0  0  0  0  0  0
  142.6621  140.3619  157.2876 H   0  0  0  0  0  0  0  0  0  0  0  0
  143.5869  139.0093  156.6317 H   0  0  0  0  0  0  0  0  0  0  0  0
  144.8576  139.9912  157.7928 H   0  0  0  0  0  0  0  0  0  0  0  0
  147.1425  140.5937  158.5303 H   0  0  0  0  0  0  0  0  0  0  0  0
  149.0768  143.2350  156.8418 H   0  0  0  0  0  0  0  0  0  0  0  0
  151.7549  144.2746  157.5891 H   0  0  0  0  0  0  0  0  0  0  0  0
  150.0211  144.2644  157.6849 H   0  0  0  0  0  0  0  0  0  0  0  0
  150.9523  145.1584  159.7917 H   0  0  0  0  0  0  0  0  0  0  0  0
  150.1063  143.6541  160.1143 H   0  0  0  0  0  0  0  0  0  0  0  0
  153.1658  143.3820  162.0496 H   0  0  0  0  0  0  0  0  0  0  0  0
  151.4013  143.2923  162.1226 H   0  0  0  0  0  0  0  0  0  0  0  0
  152.2029  144.8397  161.8244 H   0  0  0  0  0  0  0  0  0  0  0  0
  153.2381  141.7081  160.3331 H   0  0  0  0  0  0  0  0  0  0  0  0
  151.4910  141.5556  160.4337 H   0  0  0  0  0  0  0  0  0  0  0  0
  153.0364  142.4086  157.9330 H   0  0  0  0  0  0  0  0  0  0  0  0
  153.5957  140.1245  158.2796 H   0  0  0  0  0  0  0  0  0  0  0  0
  152.4114  140.1697  156.9832 H   0  0  0  0  0  0  0  0  0  0  0  0
  151.9450  139.6506  158.6067 H   0  0  0  0  0  0  0  0  0  0  0  0
  147.5147  142.9512  154.9132 H   0  0  0  0  0  0  0  0  0  0  0  0
  1  2  1  0  0  0  0
  1 23  1  0  0  0  0
  1 24  1  0  0  0  0
  1 25  1  0  0  0  0
  2  3  1  0  0  0  0
  3  4  1  0  0  0  0
  3 26  1  0  0  0  0
  3 27  1  0  0  0  0
  4  5  1  0  0  0  0
  4 28  1  0  0  0  0
  4 29  1  0  0  0  0
  5  6  1  0  0  0  0
  6 22  1  0  0  0  0
  6  7  2  0  0  0  0
  7  8  1  0  0  0  0
  7 30  1  0  0  0  0
  8  9  2  0  0  0  0
  8 31  1  0  0  0  0
  9 10  1  0  0  0  0
  9 21  1  0  0  0  0
 10 11  1  0  0  0  0
 10 32  1  0  0  0  0
 11 12  2  0  0  0  0
 11 13  1  0  0  0  0
 13 19  1  0  0  0  0
 13 14  1  0  0  0  0
 14 15  1  0  0  0  0
 14 33  1  0  0  0  0
 14 34  1  0  0  0  0
 15 16  1  0  0  0  0
 15 35  1  0  0  0  0
 15 36  1  0  0  0  0
 16 17  1  0  0  0  0
 16 18  1  0  0  0  0
 17 37  1  0  0  0  0
 17 38  1  0  0  0  0
 17 39  1  0  0  0  0
 18 19  1  0  0  0  0
 18 40  1  0  0  0  0
 18 41  1  0  0  0  0
 19 20  1  0  0  0  0
 19 42  1  0  0  0  0
 20 43  1  0  0  0  0
 20 44  1  0  0  0  0
 20 45  1  0  0  0  0
 21 22  2  0  0  0  0
 21 46  1  0  0  0  0
M  END
> <s_m_source_file>
AV-unprocessed.smi

> <i_m_source_file_index>
1071

> <i_lp_mmshare_version>
43012

> <i_f3d_flags>
0

> <s_epik_input>
W0NIM11PW0NIMl1bQ0gyXU9jMVtjSF1bY0hdYyhbY0hdbjEpW05IXUMoPU8pTjJbQ0gyXVtDSDJdTihbQ0gzXSlbQ0gyXVtDQEhdMltDSDNd

> <s_epik_cmdline>
J2VwaWtfcHl0aG9uJywgJy1waCcsICc3LjAnLCAnLXRuJywgJzgnLCAnLW1hJywgJzIwMCcsICctbWV0YWxfYmluZGluZycsICctaW1hZScsICc8aW5maWxlLm1hZT4nLCAnLW9tYWUnLCAnPG91dGZpbGUubWFlPic=

> <r_lp_tautomer_probability>
1

> <r_epik_Ionization_Penalty>
0.623446

> <r_epik_Ionization_Penalty_Charging>
0

> <r_epik_Ionization_Penalty_Neutral>
0.623446

> <r_epik_State_Penalty>
0.639577

> <r_epik_Charging_Adjusted_Penalty>
0.639577

> <i_epik_Tot_Q>
0

> <i_epik_Tot_abs_Q>
0

> <r_epik_Metal_State_Penalty>
0.639567

> <b_epik_Metal_Only>
0

> <s_lp_Force_Field>
OPLS_2005

> <r_lp_Energy>
47.7745

> <b_lp_Chiralities_Consistent>
1

> <s_lp_Variant>
AV-unprocessed.smi:1071-5

> <Gold.Version>
5.8.1

> <Gold.Id.Protein>
6NUR|6NUR_protein|mol2

> <Gold.PLP.Fitness>
31.4933

> <Gold.PLP.PLP>
-27.0888

> <Gold.PLP.part.hbond>
-1.0000

> <Gold.PLP.part.metal>
0.0000

> <Gold.PLP.part.buried>
-4.1036

> <Gold.PLP.part.nonpolar>
-22.6636

> <Gold.PLP.part.repulsive>
1.0749

> <Gold.PLP.ligand.clash>
0.5534

> <Gold.PLP.ligand.torsion>
0.5842

> <Gold.PLP.Chemscore.Hbond>
1.0000

> <Gold.PLP.Chemscore.CHOScore>
0.8592

> <Gold.PLP.Chemscore.Metal>
0.0000

> <Gold.Chemscore.Hbonds>
donor molecule, donor type, donor heavy atom, donor atom, acceptor molecule, acceptor atom, score
      L1  H    10    32       P1  8028  1.00
      L1  C    21    46       P1  8028  0.88

> <Gold.PLP.Chemscore.Internal.Correction>
0.5489

> <Gold.Rescore>
     Score         DG    S(hbond)    S(metal)    S(lipo)     H(rot)  DE(clash)    DE(int)     intcor
     11.03     -13.18       0.97        0.00      72.44       1.57       0.18       1.97       ----

> <Gold.Chemscore.Fitness>
11.0299

> <Gold.Chemscore.DG>
-13.1776

> <Gold.Chemscore.ZeroCoef>
-5.4800

> <Gold.Chemscore.Hbond>
0.9736

> <Gold.Chemscore.Metal>
0.0000

> <Gold.Chemscore.Lipo>
72.4435

> <Gold.Chemscore.Internal_Hbond>
0.0000

> <Gold.Chemscore.DEClash>
0.1771

> <Gold.Chemscore.DEInternal>
1.9706

> <Gold.Chemscore.Rot>
1.5743

> <Gold.Chemscore.Internal.Correction>
   9.000000E+99

> <Gold.Chemscore.Hbonds>
donor molecule, donor type, donor heavy atom, donor atom, acceptor molecule, acceptor atom, score
      L1  H    10    32       P1  8028  0.87

> <Gold.Chemscore.Hbond.Weighted>
-3.2519

> <Gold.Chemscore.Metal.Weighted>
-0.0000

> <Gold.Chemscore.Lipo.Weighted>
-8.4759

> <Gold.Chemscore.Internal_Hbond.Weighted>
0.0000

> <Gold.Chemscore.DEClash.Weighted>
0.1771

> <Gold.Chemscore.DEInternal.Weighted>
1.9706

> <Gold.Chemscore.Rot.Weighted>
4.0301

> <Gold.Chemscore.Internal.Correction.Weighted>
   9.000000E+99

> <Gold.Protein.RotatedTorsions>
[ 6907 6896 6895 6894 ] final  -30.53 input  -60.11 | X-H torsion
[ 7974 7965 7964 7962 ] final  -90.12 input  175.53 | X-H torsion
[ 8008 7997 7996 7995 ] final   -1.48 input   59.86 | X-H torsion
[ 10167 10162 10161 10158 ] final   28.80 input  -65.29 | X-H torsion
[ 10718 10713 10712 10709 ] final -120.66 input   66.30 | X-H torsion
[ 10763 10752 10751 10750 ] final   59.97 input  -60.55 | X-H torsion
[ 11005 11000 10999 10996 ] final -159.26 input  -57.11 | X-H torsion

> <Gold.Protein.ActiveResidues>
 VAL166  LYS551  ARG553  GLY616  TRP617  ASP618  TYR619  PRO620  LYS621  CYS622 
 ASP623  PHE694  ASN695  SER759  ASP760  ASP761  ALA762  ILE779  LEU786  VAL792 
 PHE793  MET794  SER795  GLU796  ALA797  LYS798  CYS799  TRP800  GLU811  SER814 

> <Gold.Protein.RotatedAtoms>
  151.1044  134.9991  159.8463 H   0  0  0  0  0  0  0  0  0  0  0  0  # atno 6907 bound_to 6896
  152.5439  134.1911  159.8684 H   0  0  0  0  0  0  0  0  0  0  0  0  # atno 6908 bound_to 6896
  151.1957  133.4596  159.2628 H   0  0  0  0  0  0  0  0  0  0  0  0  # atno 6909 bound_to 6896
  145.4307  140.9555  143.2129 H   0  0  0  0  0  0  0  0  0  0  0  0  # atno 7974 bound_to 7965
  154.6463  140.2558  155.7264 H   0  0  0  0  0  0  0  0  0  0  0  0  # atno 8008 bound_to 7997
  156.2554  140.2877  156.0799 H   0  0  0  0  0  0  0  0  0  0  0  0  # atno 8009 bound_to 7997
  155.1518  140.0382  157.2813 H   0  0  0  0  0  0  0  0  0  0  0  0  # atno 8010 bound_to 7997
  140.4821  144.0599  150.6269 H   0  0  0  0  0  0  0  0  0  0  0  0  # atno 10167 bound_to 10162
  156.1275  130.6370  150.9567 H   0  0  0  0  0  0  0  0  0  0  0  0  # atno 10718 bound_to 10713
  152.9908  135.5553  154.5799 H   0  0  0  0  0  0  0  0  0  0  0  0  # atno 10763 bound_to 10752
  154.5182  135.2806  155.1287 H   0  0  0  0  0  0  0  0  0  0  0  0  # atno 10764 bound_to 10752
  154.2651  135.6373  153.5342 H   0  0  0  0  0  0  0  0  0  0  0  0  # atno 10765 bound_to 10752
  140.6446  134.4515  157.5234 H   0  0  0  0  0  0  0  0  0  0  0  0  # atno 11005 bound_to 11000
  144.8184  139.5835  143.6998 LP  0  0  0  0  0  0  0  0  0  0  0  0  # atno 17320 bound_to 7965
  146.2608  139.6407  142.9363 LP  0  0  0  0  0  0  0  0  0  0  0  0  # atno 17321 bound_to 7965
  140.3844  143.2785  152.0133 LP  0  0  0  0  0  0  0  0  0  0  0  0  # atno 17342 bound_to 10162
  139.4835  144.6128  151.7401 LP  0  0  0  0  0  0  0  0  0  0  0  0  # atno 17343 bound_to 10162
  157.6456  131.0904  150.8160 LP  0  0  0  0  0  0  0  0  0  0  0  0  # atno 17370 bound_to 10713
  156.8249  130.4996  149.5338 LP  0  0  0  0  0  0  0  0  0  0  0  0  # atno 17371 bound_to 10713
  139.9068  134.8432  156.1677 LP  0  0  0  0  0  0  0  0  0  0  0  0  # atno 17394 bound_to 11000
  141.0582  133.6855  156.1901 LP  0  0  0  0  0  0  0  0  0  0  0  0  # atno 17395 bound_to 11000

$$$$
