AV-unprocessed.smi:1235|AV-procd|sdf|5175|dock5
  -GOLD-   22720 4253D 1   1.00000     0.00000
 Structure written by MMmdl.
 50 51  0  0  0  0  0  0  0  0  2 V2000
  153.8007  137.2284  162.5504 C   0  0  0  0  0  0  0  0  0  0  0  0
  154.4458  138.4687  162.7818 O   0  0  0  0  0  0  0  0  0  0  0  0
  155.3836  138.7899  161.7686 C   0  0  0  0  0  0  0  0  0  0  0  0
  154.6294  139.0394  160.4539 C   0  0  0  0  0  0  0  0  0  0  0  0
  153.9062  140.3148  160.4813 N   0  0  0  0  0  0  0  0  0  0  0  0
  153.9834  140.9811  161.6929 N   0  0  0  0  0  0  0  0  0  0  0  0
  153.3865  142.1186  161.8485 C   0  0  0  0  0  0  0  0  0  0  0  0
  153.4488  142.8677  163.1346 C   0  0  0  0  0  0  0  0  0  0  0  0
  152.6655  143.7825  163.3951 O   0  0  0  0  0  0  0  0  0  0  0  0
  154.4166  142.4773  163.9837 N   0  0  0  0  0  0  0  0  0  0  0  0
  154.6634  143.0595  165.2976 C   0  0  0  0  0  0  0  0  0  0  0  0
  155.9965  142.5609  165.8928 C   0  0  0  0  0  0  0  0  0  0  0  0
  155.9294  142.3508  167.3676 N   0  3  2  0  0  0  0  0  0  0  0  0
  155.7258  140.9097  167.6983 C   0  0  0  0  0  0  0  0  0  0  0  0
  155.7866  140.6482  169.2091 C   0  0  0  0  0  0  0  0  0  0  0  0
  154.7409  141.4911  169.9374 C   0  0  0  0  0  0  0  0  0  0  0  0
  154.9563  142.9671  169.5956 C   0  0  0  0  0  0  0  0  0  0  0  0
  154.9333  143.2252  168.0718 C   0  0  1  0  0  0  0  0  0  0  0  0
  155.1667  144.7325  167.8332 C   0  0  0  0  0  0  0  0  0  0  0  0
  152.6262  142.7150  160.7632 C   0  0  0  0  0  0  0  0  0  0  0  0
  152.5549  142.0500  159.5892 C   0  0  0  0  0  0  0  0  0  0  0  0
  153.2184  140.7609  159.3871 C   0  0  0  0  0  0  0  0  0  0  0  0
  153.1612  140.1325  158.3306 O   0  0  0  0  0  0  0  0  0  0  0  0
  153.0846  137.0336  163.3489 H   0  0  0  0  0  0  0  0  0  0  0  0
  154.5188  136.4072  162.5345 H   0  0  0  0  0  0  0  0  0  0  0  0
  153.2564  137.2364  161.6050 H   0  0  0  0  0  0  0  0  0  0  0  0
  155.9518  139.6764  162.0552 H   0  0  0  0  0  0  0  0  0  0  0  0
  156.0923  137.9692  161.6451 H   0  0  0  0  0  0  0  0  0  0  0  0
  155.3380  139.0332  159.6236 H   0  0  0  0  0  0  0  0  0  0  0  0
  153.9426  138.2149  160.2541 H   0  0  0  0  0  0  0  0  0  0  0  0
  155.0168  141.7164  163.6979 H   0  0  0  0  0  0  0  0  0  0  0  0
  154.6319  144.1449  165.2077 H   0  0  0  0  0  0  0  0  0  0  0  0
  153.8377  142.7785  165.9518 H   0  0  0  0  0  0  0  0  0  0  0  0
  156.2297  141.6354  165.3732 H   0  0  0  0  0  0  0  0  0  0  0  0
  156.8118  143.2483  165.6624 H   0  0  0  0  0  0  0  0  0  0  0  0
  154.7632  140.5795  167.3041 H   0  0  0  0  0  0  0  0  0  0  0  0
  156.4837  140.2911  167.2217 H   0  0  0  0  0  0  0  0  0  0  0  0
  155.6177  139.5901  169.4118 H   0  0  0  0  0  0  0  0  0  0  0  0
  156.7832  140.8823  169.5863 H   0  0  0  0  0  0  0  0  0  0  0  0
  153.7377  141.1810  169.6416 H   0  0  0  0  0  0  0  0  0  0  0  0
  154.8138  141.3370  171.0146 H   0  0  0  0  0  0  0  0  0  0  0  0
  154.1860  143.5622  170.0878 H   0  0  0  0  0  0  0  0  0  0  0  0
  155.9097  143.2976  170.0110 H   0  0  0  0  0  0  0  0  0  0  0  0
  153.9401  142.9716  167.6972 H   0  0  0  0  0  0  0  0  0  0  0  0
  154.5497  145.3320  168.5035 H   0  0  0  0  0  0  0  0  0  0  0  0
  154.8972  145.0453  166.8252 H   0  0  0  0  0  0  0  0  0  0  0  0
  156.2062  145.0086  168.0128 H   0  0  0  0  0  0  0  0  0  0  0  0
  152.1260  143.6649  160.8841 H   0  0  0  0  0  0  0  0  0  0  0  0
  151.9920  142.4806  158.7742 H   0  0  0  0  0  0  0  0  0  0  0  0
  156.8338  142.6104  167.7347 H   0  0  0  0  0  0  0  0  0  0  0  0
  1  2  1  0  0  0  0
  1 24  1  0  0  0  0
  1 25  1  0  0  0  0
  1 26  1  0  0  0  0
  2  3  1  0  0  0  0
  3  4  1  0  0  0  0
  3 27  1  0  0  0  0
  3 28  1  0  0  0  0
  4  5  1  0  0  0  0
  4 29  1  0  0  0  0
  4 30  1  0  0  0  0
  5 22  1  0  0  0  0
  5  6  1  0  0  0  0
  6  7  2  0  0  0  0
  7  8  1  0  0  0  0
  7 20  1  0  0  0  0
  8  9  2  0  0  0  0
  8 10  1  0  0  0  0
 10 11  1  0  0  0  0
 10 31  1  0  0  0  0
 11 12  1  0  0  0  0
 11 32  1  0  0  0  0
 11 33  1  0  0  0  0
 12 13  1  0  0  0  0
 12 34  1  0  0  0  0
 12 35  1  0  0  0  0
 13 18  1  0  0  0  0
 13 14  1  0  0  0  0
 13 50  1  0  0  0  0
 14 15  1  0  0  0  0
 14 36  1  0  0  0  0
 14 37  1  0  0  0  0
 15 16  1  0  0  0  0
 15 38  1  0  0  0  0
 15 39  1  0  0  0  0
 16 17  1  0  0  0  0
 16 40  1  0  0  0  0
 16 41  1  0  0  0  0
 17 18  1  0  0  0  0
 17 42  1  0  0  0  0
 17 43  1  0  0  0  0
 18 19  1  0  0  0  0
 18 44  1  0  0  0  0
 19 45  1  0  0  0  0
 19 46  1  0  0  0  0
 19 47  1  0  0  0  0
 20 21  2  0  0  0  0
 20 48  1  0  0  0  0
 21 22  1  0  0  0  0
 21 49  1  0  0  0  0
 22 23  2  0  0  0  0
M  CHG  1  13   1
M  END
> <s_m_source_file>
AV-unprocessed.smi

> <i_m_source_file_index>
1235

> <i_lp_mmshare_version>
43012

> <i_f3d_flags>
0

> <s_epik_input>
W0NIM11PW0NIMl1bQ0gyXW4xbmMoW2NIXVtjSF1jMT1PKUMoPU8pW05IXVtDSDJdW0NIMl1OMltDSDJdW0NIMl1bQ0gyXVtDSDJdW0NASF0yW0NIM10=

> <s_epik_cmdline>
J2VwaWtfcHl0aG9uJywgJy1waCcsICc3LjAnLCAnLXRuJywgJzgnLCAnLW1hJywgJzIwMCcsICctbWV0YWxfYmluZGluZycsICctaW1hZScsICc8aW5maWxlLm1hZT4nLCAnLW9tYWUnLCAnPG91dGZpbGUubWFlPic=

> <r_lp_tautomer_probability>
1

> <r_epik_Ionization_Penalty>
0.00271975

> <r_epik_Ionization_Penalty_Charging>
0.00271407

> <r_epik_Ionization_Penalty_Neutral>
5.6803e-06

> <r_epik_State_Penalty>
0.00189271

> <r_epik_Charging_Adjusted_Penalty>
0.00460678

> <i_epik_Tot_Q>
1

> <i_epik_Tot_abs_Q>
1

> <r_epik_Metal_State_Penalty>
-0

> <b_epik_Metal_Only>
0

> <s_lp_Force_Field>
OPLS_2005

> <r_lp_Energy>
40.0899

> <b_lp_Chiralities_Consistent>
1

> <s_lp_Variant>
AV-unprocessed.smi:1235-1

> <Gold.Version>
5.8.1

> <Gold.Id.Protein>
6NUR|6NUR_protein|mol2

> <Gold.PLP.Fitness>
46.3888

> <Gold.PLP.PLP>
-45.2032

> <Gold.PLP.part.hbond>
-2.0000

> <Gold.PLP.part.metal>
0.0000

> <Gold.PLP.part.buried>
-7.5540

> <Gold.PLP.part.nonpolar>
-36.6233

> <Gold.PLP.part.repulsive>
1.7923

> <Gold.PLP.ligand.clash>
0.0000

> <Gold.PLP.ligand.torsion>
0.9672

> <Gold.PLP.Chemscore.Hbond>
0.9920

> <Gold.PLP.Chemscore.CHOScore>
0.0000

> <Gold.PLP.Chemscore.Metal>
0.0000

> <Gold.Chemscore.Hbonds>
donor molecule, donor type, donor heavy atom, donor atom, acceptor molecule, acceptor atom, score
      P1  H  7997  8008       L1    23  1.00

> <Gold.PLP.Chemscore.Internal.Correction>
0.1440

> <Gold.Rescore>
     Score         DG    S(hbond)    S(metal)    S(lipo)     H(rot)  DE(clash)    DE(int)     intcor
     10.63     -15.28       0.85        0.00     103.36       2.00       1.89       2.77       ----

> <Gold.Chemscore.Fitness>
10.6261

> <Gold.Chemscore.DG>
-15.2803

> <Gold.Chemscore.ZeroCoef>
-5.4800

> <Gold.Chemscore.Hbond>
0.8482

> <Gold.Chemscore.Metal>
0.0000

> <Gold.Chemscore.Lipo>
103.3551

> <Gold.Chemscore.Internal_Hbond>
0.0000

> <Gold.Chemscore.DEClash>
1.8860

> <Gold.Chemscore.DEInternal>
2.7681

> <Gold.Chemscore.Rot>
2.0020

> <Gold.Chemscore.Internal.Correction>
   9.000000E+99

> <Gold.Chemscore.Hbonds>
donor molecule, donor type, donor heavy atom, donor atom, acceptor molecule, acceptor atom, score
      P1  H  7997  8008       L1    23  0.93

> <Gold.Chemscore.Hbond.Weighted>
-2.8329

> <Gold.Chemscore.Metal.Weighted>
-0.0000

> <Gold.Chemscore.Lipo.Weighted>
-12.0925

> <Gold.Chemscore.Internal_Hbond.Weighted>
0.0000

> <Gold.Chemscore.DEClash.Weighted>
1.8860

> <Gold.Chemscore.DEInternal.Weighted>
2.7681

> <Gold.Chemscore.Rot.Weighted>
5.1252

> <Gold.Chemscore.Internal.Correction.Weighted>
   9.000000E+99

> <Gold.Protein.RotatedTorsions>
[ 6907 6896 6895 6894 ] final  105.91 input  -60.11 | X-H torsion
[ 7974 7965 7964 7962 ] final   68.64 input  175.53 | X-H torsion
[ 8008 7997 7996 7995 ] final  -88.15 input   59.86 | X-H torsion
[ 10167 10162 10161 10158 ] final -111.08 input  -65.29 | X-H torsion
[ 10718 10713 10712 10709 ] final   79.96 input   66.30 | X-H torsion
[ 10763 10752 10751 10750 ] final  131.46 input  -60.55 | X-H torsion
[ 11005 11000 10999 10996 ] final -148.63 input  -57.11 | X-H torsion

> <Gold.Protein.ActiveResidues>
 VAL166  LYS551  ARG553  GLY616  TRP617  ASP618  TYR619  PRO620  LYS621  CYS622 
 ASP623  PHE694  ASN695  SER759  ASP760  ASP761  ALA762  ILE779  LEU786  VAL792 
 PHE793  MET794  SER795  GLU796  ALA797  LYS798  CYS799  TRP800  GLU811  SER814 

> <Gold.Protein.RotatedAtoms>
  152.5213  133.9458  159.7648 H   0  0  0  0  0  0  0  0  0  0  0  0  # atno 6907 bound_to 6896
  150.9779  133.6268  159.2734 H   0  0  0  0  0  0  0  0  0  0  0  0  # atno 6908 bound_to 6896
  151.3456  135.0879  159.9438 H   0  0  0  0  0  0  0  0  0  0  0  0  # atno 6909 bound_to 6896
  145.8001  139.2978  143.1160 H   0  0  0  0  0  0  0  0  0  0  0  0  # atno 7974 bound_to 7965
  154.6714  140.0557  157.0170 H   0  0  0  0  0  0  0  0  0  0  0  0  # atno 8008 bound_to 7997
  155.1083  140.3236  155.4510 H   0  0  0  0  0  0  0  0  0  0  0  0  # atno 8009 bound_to 7997
  156.2659  140.2019  156.6208 H   0  0  0  0  0  0  0  0  0  0  0  0  # atno 8010 bound_to 7997
  140.1374  143.4308  152.1585 H   0  0  0  0  0  0  0  0  0  0  0  0  # atno 10167 bound_to 10162
  157.6792  130.9938  150.2009 H   0  0  0  0  0  0  0  0  0  0  0  0  # atno 10718 bound_to 10713
  153.7748  135.3177  155.3357 H   0  0  0  0  0  0  0  0  0  0  0  0  # atno 10763 bound_to 10752
  154.8183  135.4621  154.0709 H   0  0  0  0  0  0  0  0  0  0  0  0  # atno 10764 bound_to 10752
  153.1980  135.6918  153.8353 H   0  0  0  0  0  0  0  0  0  0  0  0  # atno 10765 bound_to 10752
  140.7592  134.3318  157.5106 H   0  0  0  0  0  0  0  0  0  0  0  0  # atno 11005 bound_to 11000
  145.9887  140.8621  143.0077 LP  0  0  0  0  0  0  0  0  0  0  0  0  # atno 17320 bound_to 7965
  144.6770  140.2184  143.7369 LP  0  0  0  0  0  0  0  0  0  0  0  0  # atno 17321 bound_to 7965
  139.5489  144.7321  151.4497 LP  0  0  0  0  0  0  0  0  0  0  0  0  # atno 17342 bound_to 10162
  140.6781  143.8145  150.7084 LP  0  0  0  0  0  0  0  0  0  0  0  0  # atno 17343 bound_to 10162
  156.2700  130.3720  149.8041 LP  0  0  0  0  0  0  0  0  0  0  0  0  # atno 17370 bound_to 10713
  156.5761  130.8445  151.3370 LP  0  0  0  0  0  0  0  0  0  0  0  0  # atno 17371 bound_to 10713
  139.8774  134.9191  156.3219 LP  0  0  0  0  0  0  0  0  0  0  0  0  # atno 17394 bound_to 11000
  140.9679  133.7346  156.0492 LP  0  0  0  0  0  0  0  0  0  0  0  0  # atno 17395 bound_to 11000

$$$$
