AV-unprocessed.smi:2749|AV-procd|sdf|10588|dock10
  -GOLD-   2272015 43D 1   1.00000     0.00000
 Structure written by MMmdl.
 32 34  0  0  0  0  0  0  0  0  1 V2000
  150.5187  140.6341  156.8780 O   0  0  0  0  0  0  0  0  0  0  0  0
  150.1081  141.7444  156.5446 C   0  0  0  0  0  0  0  0  0  0  0  0
  149.0490  141.8711  155.7160 N   0  0  0  0  0  0  0  0  0  0  0  0
  148.2227  140.8992  155.0775 C   0  0  0  0  0  0  0  0  0  0  0  0
  147.3829  141.4203  154.0663 C   0  0  0  0  0  0  0  0  0  0  0  0
  146.5169  140.5578  153.3662 C   0  0  0  0  0  0  0  0  0  0  0  0
  146.5114  139.1915  153.6973 C   0  0  0  0  0  0  0  0  0  0  0  0
  145.6963  138.3234  153.0528 F   0  0  0  0  0  0  0  0  0  0  0  0
  147.3745  138.7504  154.7166 C   0  0  0  0  0  0  0  0  0  0  0  0
  148.2047  139.5772  155.3872 N   0  0  0  0  0  0  0  0  0  0  0  0
  150.6673  142.8875  156.9731 N   0  0  0  0  0  0  0  0  0  0  0  0
  151.8157  143.0052  157.8669 C   0  0  1  0  0  0  0  0  0  0  0  0
  152.1397  144.4677  158.1890 C   0  0  0  0  0  0  0  0  0  0  0  0
  151.9976  144.4931  159.7169 C   0  0  2  0  0  0  0  0  0  0  0  0
  153.1218  143.7144  160.4158 C   0  0  0  0  0  0  0  0  0  0  0  0
  152.7378  142.2659  160.1115 C   0  0  0  0  0  0  0  0  0  0  0  0
  151.4745  142.4522  159.2610 C   0  0  1  0  0  0  0  0  0  0  0  0
  150.9149  143.5961  159.8858 O   0  0  0  0  0  0  0  0  0  0  0  0
  148.7841  142.8269  155.5275 H   0  0  0  0  0  0  0  0  0  0  0  0
  147.3987  142.4733  153.8246 H   0  0  0  0  0  0  0  0  0  0  0  0
  145.8692  140.9387  152.5906 H   0  0  0  0  0  0  0  0  0  0  0  0
  147.3998  137.7091  155.0023 H   0  0  0  0  0  0  0  0  0  0  0  0
  150.2611  143.7536  156.6473 H   0  0  0  0  0  0  0  0  0  0  0  0
  152.6880  142.4909  157.4599 H   0  0  0  0  0  0  0  0  0  0  0  0
  153.1375  144.7601  157.8603 H   0  0  0  0  0  0  0  0  0  0  0  0
  151.4214  145.1493  157.7305 H   0  0  0  0  0  0  0  0  0  0  0  0
  151.8256  145.4879  160.1288 H   0  0  0  0  0  0  0  0  0  0  0  0
  154.1084  143.9805  160.0352 H   0  0  0  0  0  0  0  0  0  0  0  0
  153.1098  143.8946  161.4912 H   0  0  0  0  0  0  0  0  0  0  0  0
  153.5210  141.7191  159.5853 H   0  0  0  0  0  0  0  0  0  0  0  0
  152.5077  141.7305  161.0334 H   0  0  0  0  0  0  0  0  0  0  0  0
  150.8223  141.5780  159.2520 H   0  0  0  0  0  0  0  0  0  0  0  0
  1  2  2  0  0  0  0
  2  3  1  0  0  0  0
  2 11  1  0  0  0  0
  3  4  1  0  0  0  0
  3 19  1  0  0  0  0
  4 10  1  0  0  0  0
  4  5  2  0  0  0  0
  5  6  1  0  0  0  0
  5 20  1  0  0  0  0
  6  7  2  0  0  0  0
  6 21  1  0  0  0  0
  7  8  1  0  0  0  0
  7  9  1  0  0  0  0
  9 10  2  0  0  0  0
  9 22  1  0  0  0  0
 11 12  1  0  0  0  0
 11 23  1  0  0  0  0
 12 17  1  0  0  0  0
 12 13  1  0  0  0  0
 12 24  1  0  0  0  0
 13 14  1  0  0  0  0
 13 25  1  0  0  0  0
 13 26  1  0  0  0  0
 14 18  1  0  0  0  0
 14 15  1  0  0  0  0
 14 27  1  0  0  0  0
 15 16  1  0  0  0  0
 15 28  1  0  0  0  0
 15 29  1  0  0  0  0
 16 17  1  0  0  0  0
 16 30  1  0  0  0  0
 16 31  1  0  0  0  0
 17 18  1  0  0  0  0
 17 32  1  0  0  0  0
M  END
> <s_m_source_file>
AV-unprocessed.smi

> <i_m_source_file_index>
2749

> <i_lp_mmshare_version>
43012

> <i_f3d_flags>
0

> <s_epik_input>
W0NIMl0xW0NIMl1bQ0BIXShPMilbQ0BASF0oW0NIMl1bQ0BASF0xMilbTkhdQyg9TylbTkhdYzNbY0hdW2NIXWMoRilbY0hdbjM=

> <s_epik_cmdline>
J2VwaWtfcHl0aG9uJywgJy1waCcsICc3LjAnLCAnLXRuJywgJzgnLCAnLW1hJywgJzIwMCcsICctbWV0YWxfYmluZGluZycsICctaW1hZScsICc8aW5maWxlLm1hZT4nLCAnLW9tYWUnLCAnPG91dGZpbGUubWFlPic=

> <r_lp_tautomer_probability>
1

> <r_epik_Ionization_Penalty>
3.37159e-05

> <r_epik_Ionization_Penalty_Charging>
0

> <r_epik_Ionization_Penalty_Neutral>
3.37159e-05

> <r_epik_State_Penalty>
-0

> <r_epik_Charging_Adjusted_Penalty>
0

> <i_epik_Tot_Q>
0

> <i_epik_Tot_abs_Q>
0

> <r_epik_Metal_State_Penalty>
-0

> <b_epik_Metal_Only>
0

> <s_lp_Force_Field>
OPLS_2005

> <r_lp_Energy>
42.1361

> <b_lp_Chiralities_Consistent>
1

> <s_lp_Variant>
AV-unprocessed.smi:2749-4

> <Gold.Version>
5.8.1

> <Gold.Id.Protein>
6NUR|6NUR_protein|mol2

> <Gold.PLP.Fitness>
48.6834

> <Gold.PLP.PLP>
-40.0215

> <Gold.PLP.part.hbond>
-3.0000

> <Gold.PLP.part.metal>
0.0000

> <Gold.PLP.part.buried>
-3.7226

> <Gold.PLP.part.nonpolar>
-33.5543

> <Gold.PLP.part.repulsive>
0.3287

> <Gold.PLP.ligand.clash>
0.0000

> <Gold.PLP.ligand.torsion>
0.0520

> <Gold.PLP.Chemscore.Hbond>
1.9120

> <Gold.PLP.Chemscore.CHOScore>
1.0000

> <Gold.PLP.Chemscore.Metal>
0.0000

> <Gold.Chemscore.Hbonds>
donor molecule, donor type, donor heavy atom, donor atom, acceptor molecule, acceptor atom, score
      L1  H     3    19       P1  8028  1.00
      L1  H    11    23       P1  8028  1.00

> <Gold.PLP.Chemscore.Internal.Correction>
0.0299

> <Gold.Rescore>
     Score         DG    S(hbond)    S(metal)    S(lipo)     H(rot)  DE(clash)    DE(int)     intcor
     18.27     -19.89       1.74        0.00      95.31       1.00       0.18       1.44       ----

> <Gold.Chemscore.Fitness>
18.2670

> <Gold.Chemscore.DG>
-19.8908

> <Gold.Chemscore.ZeroCoef>
-5.4800

> <Gold.Chemscore.Hbond>
1.7423

> <Gold.Chemscore.Metal>
0.0000

> <Gold.Chemscore.Lipo>
95.3118

> <Gold.Chemscore.Internal_Hbond>
0.0000

> <Gold.Chemscore.DEClash>
0.1798

> <Gold.Chemscore.DEInternal>
1.4439

> <Gold.Chemscore.Rot>
1.0000

> <Gold.Chemscore.Internal.Correction>
   9.000000E+99

> <Gold.Chemscore.Hbonds>
donor molecule, donor type, donor heavy atom, donor atom, acceptor molecule, acceptor atom, score
      L1  H     3    19       P1  8028  0.99
      L1  H    11    23       P1  8028  0.96

> <Gold.Chemscore.Hbond.Weighted>
-5.8193

> <Gold.Chemscore.Metal.Weighted>
-0.0000

> <Gold.Chemscore.Lipo.Weighted>
-11.1515

> <Gold.Chemscore.Internal_Hbond.Weighted>
0.0000

> <Gold.Chemscore.DEClash.Weighted>
0.1798

> <Gold.Chemscore.DEInternal.Weighted>
1.4439

> <Gold.Chemscore.Rot.Weighted>
2.5600

> <Gold.Chemscore.Internal.Correction.Weighted>
   9.000000E+99

> <Gold.Protein.RotatedTorsions>
[ 6907 6896 6895 6894 ] final  116.82 input  -60.11 | X-H torsion
[ 7974 7965 7964 7962 ] final -158.69 input  175.53 | X-H torsion
[ 8008 7997 7996 7995 ] final   -9.94 input   59.86 | X-H torsion
[ 10167 10162 10161 10158 ] final   81.72 input  -65.29 | X-H torsion
[ 10718 10713 10712 10709 ] final -137.68 input   66.30 | X-H torsion
[ 10763 10752 10751 10750 ] final  138.63 input  -60.55 | X-H torsion
[ 11005 11000 10999 10996 ] final  150.50 input  -57.11 | X-H torsion

> <Gold.Protein.ActiveResidues>
 VAL166  LYS551  ARG553  GLY616  TRP617  ASP618  TYR619  PRO620  LYS621  CYS622 
 ASP623  PHE694  ASN695  SER759  ASP760  ASP761  ALA762  ILE779  LEU786  VAL792 
 PHE793  MET794  SER795  GLU796  ALA797  LYS798  CYS799  TRP800  GLU811  SER814 

> <Gold.Protein.RotatedAtoms>
  152.4653  133.7909  159.6901 H   0  0  0  0  0  0  0  0  0  0  0  0  # atno 6907 bound_to 6896
  150.8614  133.7628  159.2997 H   0  0  0  0  0  0  0  0  0  0  0  0  # atno 6908 bound_to 6896
  151.5192  135.1070  159.9926 H   0  0  0  0  0  0  0  0  0  0  0  0  # atno 6909 bound_to 6896
  144.7495  140.3791  143.6059 H   0  0  0  0  0  0  0  0  0  0  0  0  # atno 7974 bound_to 7965
  154.5600  140.2342  155.8349 H   0  0  0  0  0  0  0  0  0  0  0  0  # atno 8008 bound_to 7997
  156.2021  140.3049  155.9509 H   0  0  0  0  0  0  0  0  0  0  0  0  # atno 8009 bound_to 7997
  155.2906  140.0426  157.3013 H   0  0  0  0  0  0  0  0  0  0  0  0  # atno 8010 bound_to 7997
  139.9363  144.6119  150.8295 H   0  0  0  0  0  0  0  0  0  0  0  0  # atno 10167 bound_to 10162
  156.2908  130.7374  151.1399 H   0  0  0  0  0  0  0  0  0  0  0  0  # atno 10718 bound_to 10713
  153.8927  135.3031  155.3447 H   0  0  0  0  0  0  0  0  0  0  0  0  # atno 10763 bound_to 10752
  154.7708  135.4887  153.9649 H   0  0  0  0  0  0  0  0  0  0  0  0  # atno 10764 bound_to 10752
  153.1288  135.6799  153.9311 H   0  0  0  0  0  0  0  0  0  0  0  0  # atno 10765 bound_to 10752
  140.1136  134.8908  157.1972 H   0  0  0  0  0  0  0  0  0  0  0  0  # atno 11005 bound_to 11000
  145.6996  139.1658  143.2600 LP  0  0  0  0  0  0  0  0  0  0  0  0  # atno 17320 bound_to 7965
  146.1425  140.7038  142.9360 LP  0  0  0  0  0  0  0  0  0  0  0  0  # atno 17321 bound_to 7965
  140.7623  143.3196  151.2653 LP  0  0  0  0  0  0  0  0  0  0  0  0  # atno 17342 bound_to 10162
  139.6741  143.9969  152.2770 LP  0  0  0  0  0  0  0  0  0  0  0  0  # atno 17343 bound_to 10162
  157.7342  131.0584  150.5538 LP  0  0  0  0  0  0  0  0  0  0  0  0  # atno 17370 bound_to 10713
  156.5654  130.4266  149.6043 LP  0  0  0  0  0  0  0  0  0  0  0  0  # atno 17371 bound_to 10713
  140.3058  134.3080  155.7278 LP  0  0  0  0  0  0  0  0  0  0  0  0  # atno 17394 bound_to 11000
  141.2136  133.7619  156.9705 LP  0  0  0  0  0  0  0  0  0  0  0  0  # atno 17395 bound_to 11000

$$$$
