AV-unprocessed.smi:289|AV-procd|sdf|2214|dock7
  -GOLD-   2262022 53D 1   1.00000     0.00000
 Structure written by MMmdl.
 51 54  0  0  0  0  0  0  0  0  1 V2000
  153.2919  136.7910  156.8775 O   0  0  0  0  0  0  0  0  0  0  0  0
  152.2626  137.3615  156.5105 C   0  0  0  0  0  0  0  0  0  0  0  0
  152.3678  138.5062  155.4805 C   0  0  0  0  0  0  0  0  0  0  0  0
  151.6007  139.7155  155.8554 N   0  0  0  0  0  0  0  0  0  0  0  0
  150.5560  140.1488  155.0026 C   0  0  0  0  0  0  0  0  0  0  0  0
  150.3000  139.5561  153.9534 O   0  0  0  0  0  0  0  0  0  0  0  0
  149.8110  141.3132  155.4645 C   0  0  0  0  0  0  0  0  0  0  0  0
  148.7741  141.7694  154.7415 F   0  0  0  0  0  0  0  0  0  0  0  0
  150.1341  141.9327  156.6183 C   0  0  0  0  0  0  0  0  0  0  0  0
  151.1862  141.5278  157.4236 N   0  0  0  0  0  0  0  0  0  0  0  0
  151.4960  142.1822  158.7619 C   0  0  1  0  0  0  0  0  0  0  0  0
  152.8983  142.7994  158.8548 C   0  0  0  0  0  0  0  0  0  0  0  0
  152.6535  144.2752  158.5511 C   0  0  0  0  0  0  0  0  0  0  0  0
  151.1431  144.3812  158.3153 C   0  0  0  0  0  0  0  0  0  0  0  0
  150.6045  143.2332  158.9567 O   0  0  0  0  0  0  0  0  0  0  0  0
  151.9123  140.3671  157.0731 C   0  0  0  0  0  0  0  0  0  0  0  0
  152.7965  139.9299  157.8131 O   0  0  0  0  0  0  0  0  0  0  0  0
  151.0410  137.0135  156.9828 N   0  0  0  0  0  0  0  0  0  0  0  0
  150.7703  135.9888  158.0012 C   0  0  0  0  0  0  0  0  0  0  0  0
  150.2075  136.6718  159.2648 C   0  0  0  0  0  0  0  0  0  0  0  0
  148.9915  137.4284  158.9117 N   0  0  0  0  0  0  0  0  0  0  0  0
  147.7361  137.1612  159.3513 C   0  0  0  0  0  0  0  0  0  0  0  0
  146.7308  137.6085  158.7988 O   0  0  0  0  0  0  0  0  0  0  0  0
  147.5547  136.3120  160.5483 C   0  0  0  0  0  0  0  0  0  0  0  0
  146.8684  135.1375  160.7015 C   0  0  0  0  0  0  0  0  0  0  0  0
  146.9727  134.7806  162.0742 C   0  0  0  0  0  0  0  0  0  0  0  0
  147.6941  135.7763  162.6674 C   0  0  0  0  0  0  0  0  0  0  0  0
  148.0441  136.7235  161.7554 O   0  0  0  0  0  0  0  0  0  0  0  0
  149.2547  138.4264  157.8617 C   0  0  0  0  0  0  0  0  0  0  0  0
  149.8101  137.7227  156.6091 C   0  0  0  0  0  0  0  0  0  0  0  0
  153.4194  138.7588  155.3377 H   0  0  0  0  0  0  0  0  0  0  0  0
  152.0419  138.1329  154.5084 H   0  0  0  0  0  0  0  0  0  0  0  0
  149.5208  142.7702  156.9108 H   0  0  0  0  0  0  0  0  0  0  0  0
  151.3597  141.3965  159.5068 H   0  0  0  0  0  0  0  0  0  0  0  0
  153.2495  142.6909  159.8816 H   0  0  0  0  0  0  0  0  0  0  0  0
  153.6224  142.3056  158.2073 H   0  0  0  0  0  0  0  0  0  0  0  0
  152.9503  144.8842  159.4059 H   0  0  0  0  0  0  0  0  0  0  0  0
  153.2182  144.6202  157.6846 H   0  0  0  0  0  0  0  0  0  0  0  0
  150.7193  145.2989  158.7237 H   0  0  0  0  0  0  0  0  0  0  0  0
  150.9111  144.3504  157.2497 H   0  0  0  0  0  0  0  0  0  0  0  0
  150.0413  135.2798  157.6060 H   0  0  0  0  0  0  0  0  0  0  0  0
  151.6389  135.3894  158.2671 H   0  0  0  0  0  0  0  0  0  0  0  0
  150.0401  135.8974  160.0104 H   0  0  0  0  0  0  0  0  0  0  0  0
  150.9448  137.3536  159.6911 H   0  0  0  0  0  0  0  0  0  0  0  0
  146.3554  134.5989  159.9183 H   0  0  0  0  0  0  0  0  0  0  0  0
  146.5634  133.9107  162.5665 H   0  0  0  0  0  0  0  0  0  0  0  0
  148.0265  135.9630  163.6780 H   0  0  0  0  0  0  0  0  0  0  0  0
  148.3689  139.0045  157.5953 H   0  0  0  0  0  0  0  0  0  0  0  0
  149.9789  139.1519  158.2358 H   0  0  0  0  0  0  0  0  0  0  0  0
  149.9653  138.4557  155.8167 H   0  0  0  0  0  0  0  0  0  0  0  0
  149.0821  137.0098  156.2185 H   0  0  0  0  0  0  0  0  0  0  0  0
  1  2  2  0  0  0  0
  2  3  1  0  0  0  0
  2 18  1  0  0  0  0
  3  4  1  0  0  0  0
  3 31  1  0  0  0  0
  3 32  1  0  0  0  0
  4 16  1  0  0  0  0
  4  5  1  0  0  0  0
  5  6  2  0  0  0  0
  5  7  1  0  0  0  0
  7  8  1  0  0  0  0
  7  9  2  0  0  0  0
  9 10  1  0  0  0  0
  9 33  1  0  0  0  0
 10 11  1  0  0  0  0
 10 16  1  0  0  0  0
 11 15  1  0  0  0  0
 11 12  1  0  0  0  0
 11 34  1  0  0  0  0
 12 13  1  0  0  0  0
 12 35  1  0  0  0  0
 12 36  1  0  0  0  0
 13 14  1  0  0  0  0
 13 37  1  0  0  0  0
 13 38  1  0  0  0  0
 14 15  1  0  0  0  0
 14 39  1  0  0  0  0
 14 40  1  0  0  0  0
 16 17  2  0  0  0  0
 18 30  1  0  0  0  0
 18 19  1  0  0  0  0
 19 20  1  0  0  0  0
 19 41  1  0  0  0  0
 19 42  1  0  0  0  0
 20 21  1  0  0  0  0
 20 43  1  0  0  0  0
 20 44  1  0  0  0  0
 21 22  1  0  0  0  0
 21 29  1  0  0  0  0
 22 23  2  0  0  0  0
 22 24  1  0  0  0  0
 24 28  1  0  0  0  0
 24 25  2  0  0  0  0
 25 26  1  0  0  0  0
 25 45  1  0  0  0  0
 26 27  2  0  0  0  0
 26 46  1  0  0  0  0
 27 28  1  0  0  0  0
 27 47  1  0  0  0  0
 29 30  1  0  0  0  0
 29 48  1  0  0  0  0
 29 49  1  0  0  0  0
 30 50  1  0  0  0  0
 30 51  1  0  0  0  0
M  END
> <s_m_source_file>
AV-unprocessed.smi

> <i_m_source_file_index>
289

> <i_lp_mmshare_version>
43012

> <i_f3d_flags>
0

> <s_epik_input>
bzFbY0hdW2NIXVtjSF1jMUMoPU8pTihbQ0gyXVtDSDJdMilbQ0gyXVtDSDJdTjJDKD1PKVtDSDJdbjNjKD1PKWMoRilbY0hdbihjMz1PKVtDQEBIXTRbQ0gyXVtDSDJdW0NIMl1PNA==

> <s_epik_cmdline>
J2VwaWtfcHl0aG9uJywgJy1waCcsICc3LjAnLCAnLXRuJywgJzgnLCAnLW1hJywgJzIwMCcsICctbWV0YWxfYmluZGluZycsICctaW1hZScsICc8aW5maWxlLm1hZT4nLCAnLW9tYWUnLCAnPG91dGZpbGUubWFlPic=

> <r_lp_tautomer_probability>
1

> <r_epik_Ionization_Penalty>
6.38128e-09

> <r_epik_Ionization_Penalty_Charging>
4.20153e-09

> <r_epik_Ionization_Penalty_Neutral>
2.17976e-09

> <r_epik_State_Penalty>
-0

> <r_epik_Charging_Adjusted_Penalty>
4.20153e-09

> <i_epik_Tot_Q>
0

> <i_epik_Tot_abs_Q>
0

> <r_epik_Metal_State_Penalty>
-0

> <b_epik_Metal_Only>
0

> <s_epik_Chemistry_Notes>
This compound contains an acetal/aminal-like group ( X-CH(R)-Y where X, Y are N, S, or O) that may be acid/base labile, releasing an aldehyde.

> <s_lp_Force_Field>
OPLS_2005

> <r_lp_Energy>
67.9556

> <b_lp_Chiralities_Consistent>
1

> <s_lp_Variant>
AV-unprocessed.smi:289-2

> <Gold.Version>
5.8.1

> <Gold.Id.Protein>
6NUR|6NUR_protein|mol2

> <Gold.PLP.Fitness>
56.6721

> <Gold.PLP.PLP>
-47.1247

> <Gold.PLP.part.hbond>
-4.1398

> <Gold.PLP.part.metal>
0.0000

> <Gold.PLP.part.buried>
2.7164

> <Gold.PLP.part.nonpolar>
-46.8132

> <Gold.PLP.part.repulsive>
1.5251

> <Gold.PLP.ligand.clash>
0.0000

> <Gold.PLP.ligand.torsion>
1.4077

> <Gold.PLP.Chemscore.Hbond>
2.9350

> <Gold.PLP.Chemscore.CHOScore>
0.9921

> <Gold.PLP.Chemscore.Metal>
0.0000

> <Gold.Chemscore.Hbonds>
donor molecule, donor type, donor heavy atom, donor atom, acceptor molecule, acceptor atom, score
      P1  H  6931  6943       L1    28  1.00
      P1  H  7997  8009       L1    17  1.00
      P1  H 10752 10765       L1     1  0.82
      L1  C     9    33       P1  8028  1.00

> <Gold.PLP.Chemscore.Internal.Correction>
0.5817

> <Gold.Rescore>
     Score         DG    S(hbond)    S(metal)    S(lipo)     H(rot)  DE(clash)    DE(int)     intcor
     13.29     -21.88       2.67        0.00     100.12       1.66       3.30       5.29       ----

> <Gold.Chemscore.Fitness>
13.2945

> <Gold.Chemscore.DG>
-21.8826

> <Gold.Chemscore.ZeroCoef>
-5.4800

> <Gold.Chemscore.Hbond>
2.6747

> <Gold.Chemscore.Metal>
0.0000

> <Gold.Chemscore.Lipo>
100.1156

> <Gold.Chemscore.Internal_Hbond>
0.0000

> <Gold.Chemscore.DEClash>
3.2997

> <Gold.Chemscore.DEInternal>
5.2884

> <Gold.Chemscore.Rot>
1.6580

> <Gold.Chemscore.Internal.Correction>
   9.000000E+99

> <Gold.Chemscore.Hbonds>
donor molecule, donor type, donor heavy atom, donor atom, acceptor molecule, acceptor atom, score
      P1  H  6931  6943       L1    28  0.99
      P1  H  7997  8009       L1    17  0.54
      P1  H 10752 10765       L1     1  0.27

> <Gold.Chemscore.Hbond.Weighted>
-8.9336

> <Gold.Chemscore.Metal.Weighted>
-0.0000

> <Gold.Chemscore.Lipo.Weighted>
-11.7135

> <Gold.Chemscore.Internal_Hbond.Weighted>
0.0000

> <Gold.Chemscore.DEClash.Weighted>
3.2997

> <Gold.Chemscore.DEInternal.Weighted>
5.2884

> <Gold.Chemscore.Rot.Weighted>
4.2446

> <Gold.Chemscore.Internal.Correction.Weighted>
   9.000000E+99

> <Gold.Protein.RotatedTorsions>
[ 6907 6896 6895 6894 ] final   99.98 input  -60.11 | X-H torsion
[ 7974 7965 7964 7962 ] final   79.32 input  175.53 | X-H torsion
[ 8008 7997 7996 7995 ] final  169.82 input   59.86 | X-H torsion
[ 10167 10162 10161 10158 ] final -175.59 input  -65.29 | X-H torsion
[ 10718 10713 10712 10709 ] final -151.11 input   66.30 | X-H torsion
[ 10763 10752 10751 10750 ] final -118.62 input  -60.55 | X-H torsion
[ 11005 11000 10999 10996 ] final  125.04 input  -57.11 | X-H torsion

> <Gold.Protein.ActiveResidues>
 VAL166  LYS551  ARG553  GLY616  TRP617  ASP618  TYR619  PRO620  LYS621  CYS622 
 ASP623  PHE694  ASN695  SER759  ASP760  ASP761  ALA762  ILE779  LEU786  VAL792 
 PHE793  MET794  SER795  GLU796  ALA797  LYS798  CYS799  TRP800  GLU811  SER814 

> <Gold.Protein.RotatedAtoms>
  152.5381  134.0346  159.8039 H   0  0  0  0  0  0  0  0  0  0  0  0  # atno 6907 bound_to 6896
  151.0512  133.5615  159.2649 H   0  0  0  0  0  0  0  0  0  0  0  0  # atno 6908 bound_to 6896
  151.2549  135.0642  159.9130 H   0  0  0  0  0  0  0  0  0  0  0  0  # atno 6909 bound_to 6896
  145.6657  139.2483  143.1897 H   0  0  0  0  0  0  0  0  0  0  0  0  # atno 7974 bound_to 7965
  156.1423  140.1554  156.8902 H   0  0  0  0  0  0  0  0  0  0  0  0  # atno 8008 bound_to 7997
  154.4998  140.0828  156.7811 H   0  0  0  0  0  0  0  0  0  0  0  0  # atno 8009 bound_to 7997
  155.4056  140.3416  155.4262 H   0  0  0  0  0  0  0  0  0  0  0  0  # atno 8010 bound_to 7997
  139.5573  144.1958  152.1180 H   0  0  0  0  0  0  0  0  0  0  0  0  # atno 10167 bound_to 10162
  156.4549  130.8186  151.2417 H   0  0  0  0  0  0  0  0  0  0  0  0  # atno 10718 bound_to 10713
  154.8593  135.4267  154.2168 H   0  0  0  0  0  0  0  0  0  0  0  0  # atno 10763 bound_to 10752
  153.3182  135.6980  153.7060 H   0  0  0  0  0  0  0  0  0  0  0  0  # atno 10764 bound_to 10752
  153.6126  135.3516  155.2957 H   0  0  0  0  0  0  0  0  0  0  0  0  # atno 10765 bound_to 10752
  139.9387  134.9637  156.8499 H   0  0  0  0  0  0  0  0  0  0  0  0  # atno 11005 bound_to 11000
  146.1088  140.7454  142.9513 LP  0  0  0  0  0  0  0  0  0  0  0  0  # atno 17320 bound_to 7965
  144.7074  140.3905  143.7107 LP  0  0  0  0  0  0  0  0  0  0  0  0  # atno 17321 bound_to 7965
  140.1464  144.5155  150.6713 LP  0  0  0  0  0  0  0  0  0  0  0  0  # atno 17342 bound_to 10162
  140.6847  143.2344  151.5291 LP  0  0  0  0  0  0  0  0  0  0  0  0  # atno 17343 bound_to 10162
  157.7501  131.0126  150.3390 LP  0  0  0  0  0  0  0  0  0  0  0  0  # atno 17370 bound_to 10713
  156.3777  130.3875  149.7126 LP  0  0  0  0  0  0  0  0  0  0  0  0  # atno 17371 bound_to 10713
  140.6007  134.0174  155.7536 LP  0  0  0  0  0  0  0  0  0  0  0  0  # atno 17394 bound_to 11000
  141.1013  133.9764  157.3074 LP  0  0  0  0  0  0  0  0  0  0  0  0  # atno 17395 bound_to 11000

$$$$
