AV-unprocessed.smi:639|AV-procd|sdf|3149|dock2
  -GOLD-   22720 0 73D 1   1.00000     0.00000
 Structure written by MMmdl.
 23 24  0  0  0  0  0  0  0  0  2 V2000
  151.8184  145.3017  158.6724 C   0  0  0  0  0  0  0  0  0  0  0  0
  151.9522  143.8639  158.5784 N   0  0  0  0  0  0  0  0  0  0  0  0
  151.2680  142.9875  157.7649 C   0  0  0  0  0  0  0  0  0  0  0  0
  151.7337  141.7263  158.0235 C   0  0  0  0  0  0  0  0  0  0  0  0
  151.3286  140.4005  157.4029 C   0  0  2  0  0  0  0  0  0  0  0  0
  150.7303  139.4520  158.4600 C   0  0  0  0  0  0  0  0  0  0  0  0
  152.4282  139.7396  156.7139 N   0  5  0  0  0  0  0  0  0  0  0  0
  152.1305  139.6558  155.3954 C   0  0  0  0  0  0  0  0  0  0  0  0
  152.8177  139.1737  154.4979 O   0  0  0  0  0  0  0  0  0  0  0  0
  150.9281  140.1844  155.1493 N   0  0  0  0  0  0  0  0  0  0  0  0
  150.3538  140.6402  156.2583 C   0  0  0  0  0  0  0  0  0  0  0  0
  149.2415  141.1576  156.3603 O   0  0  0  0  0  0  0  0  0  0  0  0
  152.7212  141.9529  159.0282 C   0  0  0  0  0  0  0  0  0  0  0  0
  152.8477  143.2276  159.3591 N   0  0  0  0  0  0  0  0  0  0  0  0
  151.0460  145.6508  157.9865 H   0  0  0  0  0  0  0  0  0  0  0  0
  152.7644  145.7777  158.4124 H   0  0  0  0  0  0  0  0  0  0  0  0
  151.5424  145.5816  159.6894 H   0  0  0  0  0  0  0  0  0  0  0  0
  150.5120  143.3279  157.0725 H   0  0  0  0  0  0  0  0  0  0  0  0
  149.8575  139.8918  158.9441 H   0  0  0  0  0  0  0  0  0  0  0  0
  151.4578  139.2265  159.2407 H   0  0  0  0  0  0  0  0  0  0  0  0
  150.4167  138.5036  158.0208 H   0  0  0  0  0  0  0  0  0  0  0  0
  150.5033  140.2199  154.2348 H   0  0  0  0  0  0  0  0  0  0  0  0
  153.3464  141.2261  159.5254 H   0  0  0  0  0  0  0  0  0  0  0  0
  1  2  1  0  0  0  0
  1 15  1  0  0  0  0
  1 16  1  0  0  0  0
  1 17  1  0  0  0  0
  2 14  1  0  0  0  0
  2  3  1  0  0  0  0
  3  4  2  0  0  0  0
  3 18  1  0  0  0  0
  4  5  1  0  0  0  0
  4 13  1  0  0  0  0
  5 11  1  0  0  0  0
  5  6  1  0  0  0  0
  5  7  1  0  0  0  0
  6 19  1  0  0  0  0
  6 20  1  0  0  0  0
  6 21  1  0  0  0  0
  7  8  1  0  0  0  0
  8  9  2  0  0  0  0
  8 10  1  0  0  0  0
 10 11  1  0  0  0  0
 10 22  1  0  0  0  0
 11 12  2  0  0  0  0
 13 14  2  0  0  0  0
 13 23  1  0  0  0  0
M  CHG  1   7  -1
M  END
> <s_m_source_file>
AV-unprocessed.smi

> <i_m_source_file_index>
639

> <i_lp_mmshare_version>
43012

> <i_f3d_flags>
0

> <s_epik_input>
W0NIM11uMVtjSF1jKFtjSF1uMSlbQ0BAXTIoW0NIM10pW05IXUMoPU8pW05IXUMyPU8=

> <s_epik_cmdline>
J2VwaWtfcHl0aG9uJywgJy1waCcsICc3LjAnLCAnLXRuJywgJzgnLCAnLW1hJywgJzIwMCcsICctbWV0YWxfYmluZGluZycsICctaW1hZScsICc8aW5maWxlLm1hZT4nLCAnLW9tYWUnLCAnPG91dGZpbGUubWFlPic=

> <r_lp_tautomer_probability>
1

> <r_epik_Ionization_Penalty>
4.83415

> <r_epik_Ionization_Penalty_Charging>
4.8337

> <r_epik_Ionization_Penalty_Neutral>
0.000449923

> <r_epik_State_Penalty>
4.85653

> <r_epik_Charging_Adjusted_Penalty>
9.69023

> <i_epik_Tot_Q>
-1

> <i_epik_Tot_abs_Q>
1

> <r_epik_Metal_State_Penalty>
1.31841

> <b_epik_Metal_Only>
1

> <s_lp_Force_Field>
OPLS_2005

> <r_lp_Energy>
8.78459

> <b_lp_Chiralities_Consistent>
1

> <s_lp_Variant>
AV-unprocessed.smi:639-6

> <Gold.Version>
5.8.1

> <Gold.Id.Protein>
6NUR|6NUR_protein|mol2

> <Gold.PLP.Fitness>
35.1361

> <Gold.PLP.PLP>
-26.9473

> <Gold.PLP.part.hbond>
-2.1044

> <Gold.PLP.part.metal>
0.0000

> <Gold.PLP.part.buried>
-4.5598

> <Gold.PLP.part.nonpolar>
-20.8297

> <Gold.PLP.part.repulsive>
1.2343

> <Gold.PLP.ligand.clash>
0.0000

> <Gold.PLP.ligand.torsion>
0.0489

> <Gold.PLP.Chemscore.Hbond>
2.0000

> <Gold.PLP.Chemscore.CHOScore>
0.7429

> <Gold.PLP.Chemscore.Metal>
0.0000

> <Gold.Chemscore.Hbonds>
donor molecule, donor type, donor heavy atom, donor atom, acceptor molecule, acceptor atom, score
      P1  H  7997  8008       L1     7  2.00
      L1  C     3    18       P1  8028  0.94

> <Gold.PLP.Chemscore.Internal.Correction>
0.0578

> <Gold.Rescore>
     Score         DG    S(hbond)    S(metal)    S(lipo)     H(rot)  DE(clash)    DE(int)     intcor
     11.89     -12.00       0.88        0.00      52.44       1.00       0.02       0.09       ----

> <Gold.Chemscore.Fitness>
11.8908

> <Gold.Chemscore.DG>
-12.0009

> <Gold.Chemscore.ZeroCoef>
-5.4800

> <Gold.Chemscore.Hbond>
0.8818

> <Gold.Chemscore.Metal>
0.0000

> <Gold.Chemscore.Lipo>
52.4424

> <Gold.Chemscore.Internal_Hbond>
0.0000

> <Gold.Chemscore.DEClash>
0.0210

> <Gold.Chemscore.DEInternal>
0.0890

> <Gold.Chemscore.Rot>
1.0000

> <Gold.Chemscore.Internal.Correction>
   9.000000E+99

> <Gold.Chemscore.Hbonds>
donor molecule, donor type, donor heavy atom, donor atom, acceptor molecule, acceptor atom, score
      P1  H  7997  8008       L1     7  0.42

> <Gold.Chemscore.Hbond.Weighted>
-2.9451

> <Gold.Chemscore.Metal.Weighted>
-0.0000

> <Gold.Chemscore.Lipo.Weighted>
-6.1358

> <Gold.Chemscore.Internal_Hbond.Weighted>
0.0000

> <Gold.Chemscore.DEClash.Weighted>
0.0210

> <Gold.Chemscore.DEInternal.Weighted>
0.0890

> <Gold.Chemscore.Rot.Weighted>
2.5600

> <Gold.Chemscore.Internal.Correction.Weighted>
   9.000000E+99

> <Gold.Protein.RotatedTorsions>
[ 6907 6896 6895 6894 ] final  172.83 input  -60.11 | X-H torsion
[ 7974 7965 7964 7962 ] final  -50.35 input  175.53 | X-H torsion
[ 8008 7997 7996 7995 ] final  -67.12 input   59.86 | X-H torsion
[ 10167 10162 10161 10158 ] final -149.11 input  -65.29 | X-H torsion
[ 10718 10713 10712 10709 ] final -139.67 input   66.30 | X-H torsion
[ 10763 10752 10751 10750 ] final  -99.12 input  -60.55 | X-H torsion
[ 11005 11000 10999 10996 ] final -102.96 input  -57.11 | X-H torsion

> <Gold.Protein.ActiveResidues>
 VAL166  LYS551  ARG553  GLY616  TRP617  ASP618  TYR619  PRO620  LYS621  CYS622 
 ASP623  PHE694  ASN695  SER759  ASP760  ASP761  ALA762  ILE779  LEU786  VAL792 
 PHE793  MET794  SER795  GLU796  ALA797  LYS798  CYS799  TRP800  GLU811  SER814 

> <Gold.Protein.RotatedAtoms>
  151.7781  133.3347  159.3463 H   0  0  0  0  0  0  0  0  0  0  0  0  # atno 6907 bound_to 6896
  150.7436  134.5956  159.6019 H   0  0  0  0  0  0  0  0  0  0  0  0  # atno 6908 bound_to 6896
  152.3295  134.7279  160.0344 H   0  0  0  0  0  0  0  0  0  0  0  0  # atno 6909 bound_to 6896
  145.9308  140.7751  142.9601 H   0  0  0  0  0  0  0  0  0  0  0  0  # atno 7974 bound_to 7965
  154.4779  140.0899  156.7306 H   0  0  0  0  0  0  0  0  0  0  0  0  # atno 8008 bound_to 7997
  155.4548  140.3459  155.4287 H   0  0  0  0  0  0  0  0  0  0  0  0  # atno 8009 bound_to 7997
  156.1145  140.1457  156.9280 H   0  0  0  0  0  0  0  0  0  0  0  0  # atno 8010 bound_to 7997
  139.7471  143.8574  152.2577 H   0  0  0  0  0  0  0  0  0  0  0  0  # atno 10167 bound_to 10162
  156.3134  130.7494  151.1575 H   0  0  0  0  0  0  0  0  0  0  0  0  # atno 10718 bound_to 10713
  154.7471  135.4984  153.9223 H   0  0  0  0  0  0  0  0  0  0  0  0  # atno 10763 bound_to 10752
  153.1104  135.6707  153.9519 H   0  0  0  0  0  0  0  0  0  0  0  0  # atno 10764 bound_to 10752
  153.9280  135.3081  155.3425 H   0  0  0  0  0  0  0  0  0  0  0  0  # atno 10765 bound_to 10752
  141.1166  133.8601  157.1426 H   0  0  0  0  0  0  0  0  0  0  0  0  # atno 11005 bound_to 11000
  144.6764  140.2124  143.7375 LP  0  0  0  0  0  0  0  0  0  0  0  0  # atno 17320 bound_to 7965
  145.8429  139.2138  143.1817 LP  0  0  0  0  0  0  0  0  0  0  0  0  # atno 17321 bound_to 7965
  139.8541  144.7150  150.9178 LP  0  0  0  0  0  0  0  0  0  0  0  0  # atno 17342 bound_to 10162
  140.7793  143.3874  151.1370 LP  0  0  0  0  0  0  0  0  0  0  0  0  # atno 17343 bound_to 10162
  157.7396  131.0527  150.5220 LP  0  0  0  0  0  0  0  0  0  0  0  0  # atno 17370 bound_to 10713
  156.5363  130.4197  149.6176 LP  0  0  0  0  0  0  0  0  0  0  0  0  # atno 17371 bound_to 10713
  140.0093  134.9995  157.0361 LP  0  0  0  0  0  0  0  0  0  0  0  0  # atno 17394 bound_to 11000
  140.4627  134.1468  155.7193 LP  0  0  0  0  0  0  0  0  0  0  0  0  # atno 17395 bound_to 11000

$$$$
