AV-unprocessed.smi:1195|AV-procd|sdf|4994|dock2
  -GOLD-   22720 3593D 1   1.00000     0.00000
 Structure written by MMmdl.
 39 40  0  0  0  0  0  0  0  0  1 V2000
  142.0567  132.1885  147.9454 N   0  0  0  0  0  0  0  0  0  0  0  0
  143.0810  132.9196  148.3914 C   0  0  0  0  0  0  0  0  0  0  0  0
  143.5841  133.8157  147.7148 O   0  0  0  0  0  0  0  0  0  0  0  0
  143.5973  132.5824  149.7964 C   0  0  0  0  0  0  0  0  0  0  0  0
  144.4442  133.6244  150.3543 N   0  0  0  0  0  0  0  0  0  0  0  0
  144.1934  134.9811  150.4250 C   0  0  0  0  0  0  0  0  0  0  0  0
  145.2874  135.5283  151.0334 C   0  0  0  0  0  0  0  0  0  0  0  0
  145.5528  136.8822  151.3583 N   0  0  0  0  0  0  0  0  0  0  0  0
  146.1964  137.3497  152.4403 C   0  0  0  0  0  0  0  0  0  0  0  0
  146.6622  136.6537  153.3427 O   0  0  0  0  0  0  0  0  0  0  0  0
  146.2722  138.6882  152.4205 N   0  0  0  0  0  0  0  0  0  0  0  0
  146.9047  139.5122  153.4461 C   0  0  2  0  0  0  0  0  0  0  0  0
  146.8972  140.9860  152.9973 C   0  0  0  0  0  0  0  0  0  0  0  0
  147.6131  141.8897  154.0143 C   0  0  0  0  0  0  0  0  0  0  0  0
  149.0486  141.4020  154.2737 C   0  0  1  0  0  0  0  0  0  0  0  0
  149.6509  142.2131  155.2600 O   0  0  0  0  0  0  0  0  0  0  0  0
  149.0575  139.9354  154.7375 C   0  0  0  0  0  0  0  0  0  0  0  0
  148.3448  139.0296  153.7203 C   0  0  0  0  0  0  0  0  0  0  0  0
  146.1618  134.4443  151.3058 C   0  0  0  0  0  0  0  0  0  0  0  0
  145.6470  133.2972  150.8903 N   0  0  0  0  0  0  0  0  0  0  0  0
  141.6762  132.3688  147.0274 H   0  0  0  0  0  0  0  0  0  0  0  0
  141.6649  131.4604  148.5249 H   0  0  0  0  0  0  0  0  0  0  0  0
  142.7508  132.4107  150.4632 H   0  0  0  0  0  0  0  0  0  0  0  0
  144.1716  131.6560  149.7604 H   0  0  0  0  0  0  0  0  0  0  0  0
  143.2798  135.4156  150.0469 H   0  0  0  0  0  0  0  0  0  0  0  0
  145.2135  137.5670  150.6987 H   0  0  0  0  0  0  0  0  0  0  0  0
  145.8616  139.1755  151.6374 H   0  0  0  0  0  0  0  0  0  0  0  0
  146.3251  139.4362  154.3685 H   0  0  0  0  0  0  0  0  0  0  0  0
  147.3865  141.0795  152.0267 H   0  0  0  0  0  0  0  0  0  0  0  0
  145.8712  141.3300  152.8603 H   0  0  0  0  0  0  0  0  0  0  0  0
  147.6260  142.9173  153.6492 H   0  0  0  0  0  0  0  0  0  0  0  0
  147.0494  141.9000  154.9483 H   0  0  0  0  0  0  0  0  0  0  0  0
  149.6339  141.4963  153.3581 H   0  0  0  0  0  0  0  0  0  0  0  0
  149.5825  143.1160  154.9892 H   0  0  0  0  0  0  0  0  0  0  0  0
  150.0825  139.5918  154.8814 H   0  0  0  0  0  0  0  0  0  0  0  0
  148.5625  139.8493  155.7060 H   0  0  0  0  0  0  0  0  0  0  0  0
  148.3360  138.0040  154.0914 H   0  0  0  0  0  0  0  0  0  0  0  0
  148.9133  139.0154  152.7892 H   0  0  0  0  0  0  0  0  0  0  0  0
  147.1327  134.4509  151.7787 H   0  0  0  0  0  0  0  0  0  0  0  0
  1  2  1  0  0  0  0
  1 21  1  0  0  0  0
  1 22  1  0  0  0  0
  2  3  2  0  0  0  0
  2  4  1  0  0  0  0
  4  5  1  0  0  0  0
  4 23  1  0  0  0  0
  4 24  1  0  0  0  0
  5 20  1  0  0  0  0
  5  6  1  0  0  0  0
  6  7  2  0  0  0  0
  6 25  1  0  0  0  0
  7  8  1  0  0  0  0
  7 19  1  0  0  0  0
  8  9  1  0  0  0  0
  8 26  1  0  0  0  0
  9 10  2  0  0  0  0
  9 11  1  0  0  0  0
 11 12  1  0  0  0  0
 11 27  1  0  0  0  0
 12 18  1  0  0  0  0
 12 13  1  0  0  0  0
 12 28  1  0  0  0  0
 13 14  1  0  0  0  0
 13 29  1  0  0  0  0
 13 30  1  0  0  0  0
 14 15  1  0  0  0  0
 14 31  1  0  0  0  0
 14 32  1  0  0  0  0
 15 16  1  0  0  0  0
 15 17  1  0  0  0  0
 15 33  1  0  0  0  0
 16 34  1  0  0  0  0
 17 18  1  0  0  0  0
 17 35  1  0  0  0  0
 17 36  1  0  0  0  0
 18 37  1  0  0  0  0
 18 38  1  0  0  0  0
 19 20  2  0  0  0  0
 19 39  1  0  0  0  0
M  END
> <s_m_source_file>
AV-unprocessed.smi

> <i_m_source_file_index>
1195

> <i_lp_mmshare_version>
43012

> <i_f3d_flags>
0

> <s_epik_input>
W05IMl1DKD1PKVtDSDJdbjFbY0hdYyhbY0hdbjEpW05IXUMoPU8pW05IXVtDQEBIXTJbQ0gyXVtDSDJdW0NAQEhdKFtPSF0pW0NIMl1bQ0gyXTI=

> <s_epik_cmdline>
J2VwaWtfcHl0aG9uJywgJy1waCcsICc3LjAnLCAnLXRuJywgJzgnLCAnLW1hJywgJzIwMCcsICctbWV0YWxfYmluZGluZycsICctaW1hZScsICc8aW5maWxlLm1hZT4nLCAnLW9tYWUnLCAnPG91dGZpbGUubWFlPic=

> <r_lp_tautomer_probability>
1

> <r_epik_Ionization_Penalty>
4.75851e-05

> <r_epik_Ionization_Penalty_Charging>
0

> <r_epik_Ionization_Penalty_Neutral>
4.75851e-05

> <r_epik_State_Penalty>
-0

> <r_epik_Charging_Adjusted_Penalty>
0

> <i_epik_Tot_Q>
0

> <i_epik_Tot_abs_Q>
0

> <r_epik_Metal_State_Penalty>
-0

> <b_epik_Metal_Only>
0

> <s_lp_Force_Field>
OPLS_2005

> <r_lp_Energy>
13.1232

> <b_lp_Chiralities_Consistent>
1

> <s_lp_Variant>
AV-unprocessed.smi:1195-1

> <Gold.Version>
5.8.1

> <Gold.Id.Protein>
6NUR|6NUR_protein|mol2

> <Gold.PLP.Fitness>
54.0512

> <Gold.PLP.PLP>
-34.5372

> <Gold.PLP.part.hbond>
-6.7565

> <Gold.PLP.part.metal>
0.0000

> <Gold.PLP.part.buried>
-3.6518

> <Gold.PLP.part.nonpolar>
-32.2812

> <Gold.PLP.part.repulsive>
7.5913

> <Gold.PLP.ligand.clash>
0.0000

> <Gold.PLP.ligand.torsion>
0.6032

> <Gold.PLP.Chemscore.Hbond>
4.9855

> <Gold.PLP.Chemscore.CHOScore>
1.9188

> <Gold.PLP.Chemscore.Metal>
0.0000

> <Gold.Chemscore.Hbonds>
donor molecule, donor type, donor heavy atom, donor atom, acceptor molecule, acceptor atom, score
      L1  H     1    21       P1 10195  1.00
      L1  H     1    22       P1 10952  1.00
      L1  H     8    26       P1 10171  1.00
      L1  H    16    34       P1  8028  0.78
      P1  H  7918  7932       L1     3  0.21
      P1  H 10192 10197       L1     3  0.73
      L1  C     6    25       P1 10186  0.84
      L1  C    19    39       P1  7948  1.00

> <Gold.PLP.Chemscore.Internal.Correction>
0.0074

> <Gold.Rescore>
     Score         DG    S(hbond)    S(metal)    S(lipo)     H(rot)  DE(clash)    DE(int)     intcor
     16.75     -22.35       4.69        0.00      67.60       2.62       4.21       1.38       ----

> <Gold.Chemscore.Fitness>
16.7526

> <Gold.Chemscore.DG>
-22.3468

> <Gold.Chemscore.ZeroCoef>
-5.4800

> <Gold.Chemscore.Hbond>
4.6911

> <Gold.Chemscore.Metal>
0.0000

> <Gold.Chemscore.Lipo>
67.5961

> <Gold.Chemscore.Internal_Hbond>
0.0000

> <Gold.Chemscore.DEClash>
4.2115

> <Gold.Chemscore.DEInternal>
1.3827

> <Gold.Chemscore.Rot>
2.6212

> <Gold.Chemscore.Internal.Correction>
   9.000000E+99

> <Gold.Chemscore.Hbonds>
donor molecule, donor type, donor heavy atom, donor atom, acceptor molecule, acceptor atom, score
      L1  H     1    21       P1 10195  0.91
      L1  H     1    22       P1 10952  1.00
      L1  H     8    26       P1 10171  0.98
      L1  H    16    34       P1  8028  0.78
      P1  H  7918  7932       L1     3  0.20
      P1  H 10192 10197       L1     3  0.48

> <Gold.Chemscore.Hbond.Weighted>
-15.6683

> <Gold.Chemscore.Metal.Weighted>
-0.0000

> <Gold.Chemscore.Lipo.Weighted>
-7.9087

> <Gold.Chemscore.Internal_Hbond.Weighted>
0.0000

> <Gold.Chemscore.DEClash.Weighted>
4.2115

> <Gold.Chemscore.DEInternal.Weighted>
1.3827

> <Gold.Chemscore.Rot.Weighted>
6.7103

> <Gold.Chemscore.Internal.Correction.Weighted>
   9.000000E+99

> <Gold.Protein.RotatedTorsions>
[ 6907 6896 6895 6894 ] final  -13.00 input  -60.11 | X-H torsion
[ 7974 7965 7964 7962 ] final   -3.38 input  175.53 | X-H torsion
[ 8008 7997 7996 7995 ] final   72.97 input   59.86 | X-H torsion
[ 10167 10162 10161 10158 ] final   36.94 input  -65.29 | X-H torsion
[ 10718 10713 10712 10709 ] final    3.63 input   66.30 | X-H torsion
[ 10763 10752 10751 10750 ] final  -69.06 input  -60.55 | X-H torsion
[ 11005 11000 10999 10996 ] final  120.85 input  -57.11 | X-H torsion

> <Gold.Protein.ActiveResidues>
 VAL166  LYS551  ARG553  GLY616  TRP617  ASP618  TYR619  PRO620  LYS621  CYS622 
 ASP623  PHE694  ASN695  SER759  ASP760  ASP761  ALA762  ILE779  LEU786  VAL792 
 PHE793  MET794  SER795  GLU796  ALA797  LYS798  CYS799  TRP800  GLU811  SER814 

> <Gold.Protein.RotatedAtoms>
  151.3617  135.0905  159.9436 H   0  0  0  0  0  0  0  0  0  0  0  0  # atno 6907 bound_to 6896
  152.5160  133.9251  159.7564 H   0  0  0  0  0  0  0  0  0  0  0  0  # atno 6908 bound_to 6896
  150.9647  133.6353  159.2777 H   0  0  0  0  0  0  0  0  0  0  0  0  # atno 6909 bound_to 6896
  146.2390  140.1712  142.8332 H   0  0  0  0  0  0  0  0  0  0  0  0  # atno 7974 bound_to 7965
  155.7768  140.3483  155.5276 H   0  0  0  0  0  0  0  0  0  0  0  0  # atno 8008 bound_to 7997
  155.8768  140.0995  157.1533 H   0  0  0  0  0  0  0  0  0  0  0  0  # atno 8009 bound_to 7997
  154.4021  140.1330  156.4134 H   0  0  0  0  0  0  0  0  0  0  0  0  # atno 8010 bound_to 7997
  140.4080  144.1632  150.6137 H   0  0  0  0  0  0  0  0  0  0  0  0  # atno 10167 bound_to 10162
  156.8806  130.5652  149.5653 H   0  0  0  0  0  0  0  0  0  0  0  0  # atno 10718 bound_to 10713
  154.3980  135.6037  153.5880 H   0  0  0  0  0  0  0  0  0  0  0  0  # atno 10763 bound_to 10752
  152.9788  135.5899  154.4219 H   0  0  0  0  0  0  0  0  0  0  0  0  # atno 10764 bound_to 10752
  154.4013  135.2843  155.2073 H   0  0  0  0  0  0  0  0  0  0  0  0  # atno 10765 bound_to 10752
  139.9202  134.9636  156.7869 H   0  0  0  0  0  0  0  0  0  0  0  0  # atno 11005 bound_to 11000
  145.0010  140.8632  143.5281 LP  0  0  0  0  0  0  0  0  0  0  0  0  # atno 17320 bound_to 7965
  145.1731  139.2393  143.5331 LP  0  0  0  0  0  0  0  0  0  0  0  0  # atno 17321 bound_to 7965
  140.4668  143.2428  151.9144 LP  0  0  0  0  0  0  0  0  0  0  0  0  # atno 17342 bound_to 10162
  139.4783  144.5411  151.8527 LP  0  0  0  0  0  0  0  0  0  0  0  0  # atno 17343 bound_to 10162
  156.0679  130.5718  150.9325 LP  0  0  0  0  0  0  0  0  0  0  0  0  # atno 17370 bound_to 10713
  157.6142  131.0934  150.8740 LP  0  0  0  0  0  0  0  0  0  0  0  0  # atno 17371 bound_to 10713
  140.6499  133.9741  155.7750 LP  0  0  0  0  0  0  0  0  0  0  0  0  # atno 17394 bound_to 11000
  141.0715  134.0198  157.3519 LP  0  0  0  0  0  0  0  0  0  0  0  0  # atno 17395 bound_to 11000

$$$$
