AV-unprocessed.smi:2067|AV-procd|sdf|8424|dock7
  -GOLD-   2272011113D 1   1.00000     0.00000
 Structure written by MMmdl.
 47 48  0  0  0  0  0  0  0  0  1 V2000
  147.1155  130.5204  153.4420 C   0  0  0  0  0  0  0  0  0  0  0  0
  146.8116  131.3649  152.1949 C   0  0  1  0  0  0  0  0  0  0  0  0
  145.4110  131.0635  151.6247 C   0  0  0  0  0  0  0  0  0  0  0  0
  145.1315  131.8831  150.3550 C   0  0  0  0  0  0  0  0  0  0  0  0
  145.3073  133.3866  150.6140 C   0  0  0  0  0  0  0  0  0  0  0  0
  146.7029  133.6949  151.1818 C   0  0  0  0  0  0  0  0  0  0  0  0
  146.9954  132.8765  152.4581 C   0  0  1  0  0  0  0  0  0  0  0  0
  146.1118  133.2691  153.5029 O   0  0  0  0  0  0  0  0  0  0  0  0
  146.0507  134.6700  153.7234 C   0  0  0  0  0  0  0  0  0  0  0  0
  147.2638  135.0894  154.5579 C   0  0  0  0  0  0  0  0  0  0  0  0
  147.6072  136.4811  154.3122 N   0  0  0  0  0  0  0  0  0  0  0  0
  148.7946  137.1106  154.6695 C   0  0  0  0  0  0  0  0  0  0  0  0
  149.7783  136.4428  155.3349 C   0  0  0  0  0  0  0  0  0  0  0  0
  149.6619  135.0779  155.7427 C   0  0  0  0  0  0  0  0  0  0  0  0
  149.5849  133.9727  156.0799 N   0  0  0  0  0  0  0  0  0  0  0  0
  151.0285  137.0910  155.7253 C   0  0  0  0  0  0  0  0  0  0  0  0
  151.9357  136.5200  156.3349 O   0  0  0  0  0  0  0  0  0  0  0  0
  151.1276  138.4495  155.3607 N   0  0  0  0  0  0  0  0  0  0  0  0
  152.3450  139.1403  155.7390 C   0  0  0  0  0  0  0  0  0  0  0  0
  150.1127  139.1715  154.6984 C   0  0  0  0  0  0  0  0  0  0  0  0
  150.2360  140.3725  154.4390 O   0  0  0  0  0  0  0  0  0  0  0  0
  148.9386  138.4623  154.3448 N   0  0  0  0  0  0  0  0  0  0  0  0
  147.9500  139.2491  153.6358 C   0  0  0  0  0  0  0  0  0  0  0  0
  146.4132  130.7319  154.2491 H   0  0  0  0  0  0  0  0  0  0  0  0
  148.1206  130.7188  153.8149 H   0  0  0  0  0  0  0  0  0  0  0  0
  147.0515  129.4551  153.2186 H   0  0  0  0  0  0  0  0  0  0  0  0
  147.5401  131.0775  151.4352 H   0  0  0  0  0  0  0  0  0  0  0  0
  145.3218  130.0005  151.3980 H   0  0  0  0  0  0  0  0  0  0  0  0
  144.6497  131.2822  152.3747 H   0  0  0  0  0  0  0  0  0  0  0  0
  145.8084  131.5673  149.5600 H   0  0  0  0  0  0  0  0  0  0  0  0
  144.1208  131.6831  149.9982 H   0  0  0  0  0  0  0  0  0  0  0  0
  145.1504  133.9440  149.6901 H   0  0  0  0  0  0  0  0  0  0  0  0
  144.5426  133.7269  151.3130 H   0  0  0  0  0  0  0  0  0  0  0  0
  147.4543  133.4600  150.4271 H   0  0  0  0  0  0  0  0  0  0  0  0
  146.7960  134.7633  151.3739 H   0  0  0  0  0  0  0  0  0  0  0  0
  148.0287  133.0454  152.7672 H   0  0  0  0  0  0  0  0  0  0  0  0
  146.0718  135.1846  152.7620 H   0  0  0  0  0  0  0  0  0  0  0  0
  145.1290  134.9606  154.2282 H   0  0  0  0  0  0  0  0  0  0  0  0
  147.0720  134.9407  155.6209 H   0  0  0  0  0  0  0  0  0  0  0  0
  148.1066  134.4525  154.2893 H   0  0  0  0  0  0  0  0  0  0  0  0
  147.1886  136.8297  153.4617 H   0  0  0  0  0  0  0  0  0  0  0  0
  152.4576  140.0674  155.1778 H   0  0  0  0  0  0  0  0  0  0  0  0
  153.1933  138.4955  155.5028 H   0  0  0  0  0  0  0  0  0  0  0  0
  152.2787  139.3370  156.8099 H   0  0  0  0  0  0  0  0  0  0  0  0
  147.6130  140.0366  154.3123 H   0  0  0  0  0  0  0  0  0  0  0  0
  147.1087  138.6292  153.3362 H   0  0  0  0  0  0  0  0  0  0  0  0
  148.4293  139.6575  152.7440 H   0  0  0  0  0  0  0  0  0  0  0  0
  1  2  1  0  0  0  0
  1 24  1  0  0  0  0
  1 25  1  0  0  0  0
  1 26  1  0  0  0  0
  2  7  1  0  0  0  0
  2  3  1  0  0  0  0
  2 27  1  0  0  0  0
  3  4  1  0  0  0  0
  3 28  1  0  0  0  0
  3 29  1  0  0  0  0
  4  5  1  0  0  0  0
  4 30  1  0  0  0  0
  4 31  1  0  0  0  0
  5  6  1  0  0  0  0
  5 32  1  0  0  0  0
  5 33  1  0  0  0  0
  6  7  1  0  0  0  0
  6 34  1  0  0  0  0
  6 35  1  0  0  0  0
  7  8  1  0  0  0  0
  7 36  1  0  0  0  0
  8  9  1  0  0  0  0
  9 10  1  0  0  0  0
  9 37  1  0  0  0  0
  9 38  1  0  0  0  0
 10 11  1  0  0  0  0
 10 39  1  0  0  0  0
 10 40  1  0  0  0  0
 11 12  1  0  0  0  0
 11 41  1  0  0  0  0
 12 22  1  0  0  0  0
 12 13  2  0  0  0  0
 13 14  1  0  0  0  0
 13 16  1  0  0  0  0
 14 15  3  0  0  0  0
 16 17  2  0  0  0  0
 16 18  1  0  0  0  0
 18 19  1  0  0  0  0
 18 20  1  0  0  0  0
 19 42  1  0  0  0  0
 19 43  1  0  0  0  0
 19 44  1  0  0  0  0
 20 21  2  0  0  0  0
 20 22  1  0  0  0  0
 22 23  1  0  0  0  0
 23 45  1  0  0  0  0
 23 46  1  0  0  0  0
 23 47  1  0  0  0  0
M  END
> <s_m_source_file>
AV-unprocessed.smi

> <i_m_source_file_index>
2067

> <i_lp_mmshare_version>
43012

> <i_f3d_flags>
0

> <s_epik_input>
W0NIM11bQ0BASF0xW0NIMl1bQ0gyXVtDSDJdW0NIMl1bQ0BIXTFPW0NIMl1bQ0gyXVtOSF1jMmMoQyNOKWMoPU8pbihbQ0gzXSljKD1PKW4yW0NIM10=

> <s_epik_cmdline>
J2VwaWtfcHl0aG9uJywgJy1waCcsICc3LjAnLCAnLXRuJywgJzgnLCAnLW1hJywgJzIwMCcsICctbWV0YWxfYmluZGluZycsICctaW1hZScsICc8aW5maWxlLm1hZT4nLCAnLW9tYWUnLCAnPG91dGZpbGUubWFlPic=

> <r_epik_Ionization_Penalty>
0.00056529

> <r_epik_Ionization_Penalty_Charging>
3.94678e-10

> <r_epik_Ionization_Penalty_Neutral>
0.000565289

> <r_epik_State_Penalty>
0.000354611

> <r_epik_Charging_Adjusted_Penalty>
0.000354611

> <i_epik_Tot_Q>
0

> <i_epik_Tot_abs_Q>
0

> <r_epik_Metal_State_Penalty>
-0

> <b_epik_Metal_Only>
0

> <s_lp_Force_Field>
OPLS_2005

> <r_lp_Energy>
33.1423

> <b_lp_Chiralities_Consistent>
1

> <s_lp_Variant>
AV-unprocessed.smi:2067-2

> <Gold.Version>
5.8.1

> <Gold.Id.Protein>
6NUR|6NUR_protein|mol2

> <Gold.PLP.Fitness>
39.3704

> <Gold.PLP.PLP>
-34.1037

> <Gold.PLP.part.hbond>
-2.9007

> <Gold.PLP.part.metal>
0.0000

> <Gold.PLP.part.buried>
-2.2769

> <Gold.PLP.part.nonpolar>
-29.6747

> <Gold.PLP.part.repulsive>
0.2621

> <Gold.PLP.ligand.clash>
10.2522

> <Gold.PLP.ligand.torsion>
0.3722

> <Gold.PLP.Chemscore.Hbond>
2.0000

> <Gold.PLP.Chemscore.CHOScore>
0.0000

> <Gold.PLP.Chemscore.Metal>
0.0000

> <Gold.Chemscore.Hbonds>
donor molecule, donor type, donor heavy atom, donor atom, acceptor molecule, acceptor atom, score
      P1  H  7989  7998       L1    21  0.98
      P1  H 10752 10763       L1    17  0.93

> <Gold.PLP.Chemscore.Internal.Correction>
10.2633

> <Gold.Rescore>
     Score         DG    S(hbond)    S(metal)    S(lipo)     H(rot)  DE(clash)    DE(int)     intcor
     12.32     -15.21       1.93        0.00      66.47       1.76       0.01       2.88       ----

> <Gold.Chemscore.Fitness>
12.3245

> <Gold.Chemscore.DG>
-15.2068

> <Gold.Chemscore.ZeroCoef>
-5.4800

> <Gold.Chemscore.Hbond>
1.9313

> <Gold.Chemscore.Metal>
0.0000

> <Gold.Chemscore.Lipo>
66.4733

> <Gold.Chemscore.Internal_Hbond>
0.0000

> <Gold.Chemscore.DEClash>
0.0069

> <Gold.Chemscore.DEInternal>
2.8754

> <Gold.Chemscore.Rot>
1.7583

> <Gold.Chemscore.Internal.Correction>
   9.000000E+99

> <Gold.Chemscore.Hbonds>
donor molecule, donor type, donor heavy atom, donor atom, acceptor molecule, acceptor atom, score
      P1  H  7989  7998       L1    21  0.90
      P1  H 10752 10763       L1    17  0.80

> <Gold.Chemscore.Hbond.Weighted>
-6.4507

> <Gold.Chemscore.Metal.Weighted>
-0.0000

> <Gold.Chemscore.Lipo.Weighted>
-7.7774

> <Gold.Chemscore.Internal_Hbond.Weighted>
0.0000

> <Gold.Chemscore.DEClash.Weighted>
0.0069

> <Gold.Chemscore.DEInternal.Weighted>
2.8754

> <Gold.Chemscore.Rot.Weighted>
4.5012

> <Gold.Chemscore.Internal.Correction.Weighted>
   9.000000E+99

> <Gold.Protein.RotatedTorsions>
[ 6907 6896 6895 6894 ] final  -56.68 input  -60.11 | X-H torsion
[ 7974 7965 7964 7962 ] final  -64.93 input  175.53 | X-H torsion
[ 8008 7997 7996 7995 ] final  141.71 input   59.86 | X-H torsion
[ 10167 10162 10161 10158 ] final  133.54 input  -65.29 | X-H torsion
[ 10718 10713 10712 10709 ] final  118.16 input   66.30 | X-H torsion
[ 10763 10752 10751 10750 ] final   97.06 input  -60.55 | X-H torsion
[ 11005 11000 10999 10996 ] final  134.44 input  -57.11 | X-H torsion

> <Gold.Protein.ActiveResidues>
 VAL166  LYS551  ARG553  GLY616  TRP617  ASP618  TYR619  PRO620  LYS621  CYS622 
 ASP623  PHE694  ASN695  SER759  ASP760  ASP761  ALA762  ILE779  LEU786  VAL792 
 PHE793  MET794  SER795  GLU796  ALA797  LYS798  CYS799  TRP800  GLU811  SER814 

> <Gold.Protein.RotatedAtoms>
  150.8148  134.7323  159.6719 H   0  0  0  0  0  0  0  0  0  0  0  0  # atno 6907 bound_to 6896
  152.4267  134.5852  159.9969 H   0  0  0  0  0  0  0  0  0  0  0  0  # atno 6908 bound_to 6896
  151.6052  133.3315  159.3092 H   0  0  0  0  0  0  0  0  0  0  0  0  # atno 6909 bound_to 6896
  145.7606  140.8863  143.0432 H   0  0  0  0  0  0  0  0  0  0  0  0  # atno 7974 bound_to 7965
  156.2961  140.2308  156.4609 H   0  0  0  0  0  0  0  0  0  0  0  0  # atno 8008 bound_to 7997
  154.8019  140.0448  157.1300 H   0  0  0  0  0  0  0  0  0  0  0  0  # atno 8009 bound_to 7997
  154.9523  140.3043  155.5072 H   0  0  0  0  0  0  0  0  0  0  0  0  # atno 8010 bound_to 7997
  139.5293  144.6611  151.5010 H   0  0  0  0  0  0  0  0  0  0  0  0  # atno 10167 bound_to 10162
  157.6049  131.1045  150.7717 H   0  0  0  0  0  0  0  0  0  0  0  0  # atno 10718 bound_to 10713
  153.2724  135.4196  155.1000 H   0  0  0  0  0  0  0  0  0  0  0  0  # atno 10763 bound_to 10752
  154.8460  135.3475  154.6226 H   0  0  0  0  0  0  0  0  0  0  0  0  # atno 10764 bound_to 10752
  153.6646  135.7046  153.5224 H   0  0  0  0  0  0  0  0  0  0  0  0  # atno 10765 bound_to 10752
  139.9915  134.9513  156.9866 H   0  0  0  0  0  0  0  0  0  0  0  0  # atno 11005 bound_to 11000
  144.6831  139.9717  143.7482 LP  0  0  0  0  0  0  0  0  0  0  0  0  # atno 17320 bound_to 7965
  146.0268  139.3299  143.0779 LP  0  0  0  0  0  0  0  0  0  0  0  0  # atno 17321 bound_to 7965
  140.6460  143.8794  150.6737 LP  0  0  0  0  0  0  0  0  0  0  0  0  # atno 17342 bound_to 10162
  140.2144  143.3858  152.1693 LP  0  0  0  0  0  0  0  0  0  0  0  0  # atno 17343 bound_to 10162
  156.8108  130.4951  149.5356 LP  0  0  0  0  0  0  0  0  0  0  0  0  # atno 17370 bound_to 10713
  156.1132  130.6055  151.0080 LP  0  0  0  0  0  0  0  0  0  0  0  0  # atno 17371 bound_to 10713
  140.4900  134.1203  155.7231 LP  0  0  0  0  0  0  0  0  0  0  0  0  # atno 17394 bound_to 11000
  141.1569  133.8865  157.1952 LP  0  0  0  0  0  0  0  0  0  0  0  0  # atno 17395 bound_to 11000

$$$$
