AV-unprocessed.smi:1830|AV-procd|sdf|7453|dock2
  -GOLD-   22720 9143D 1   1.00000     0.00000
 Structure written by MMmdl.
 53 56  0  0  0  0  0  0  0  0  2 V2000
  151.9982  135.0474  154.5263 O   0  0  0  0  0  0  0  0  0  0  0  0
  150.8873  135.3623  154.1001 C   0  0  0  0  0  0  0  0  0  0  0  0
  150.4113  136.6148  154.1055 N   0  0  0  0  0  0  0  0  0  0  0  0
  151.1436  137.7934  154.5566 C   0  0  0  0  0  0  0  0  0  0  0  0
  150.3444  139.0847  154.2838 C   0  0  1  0  0  0  0  0  0  0  0  0
  149.2562  139.3543  155.3503 C   0  0  0  0  0  0  0  0  0  0  0  0
  149.8492  139.8544  156.5760 N   0  0  0  0  0  0  0  0  0  0  0  0
  148.9377  140.2386  157.6286 C   0  0  0  0  0  0  0  0  0  0  0  0
  149.7956  141.0850  158.5845 C   0  0  0  0  0  0  0  0  0  0  0  0
  150.9943  141.5405  157.7236 C   0  0  0  0  0  0  0  0  0  0  0  0
  150.6190  141.0420  156.3265 C   0  0  1  0  0  0  0  0  0  0  0  0
  151.7657  140.7477  155.3519 C   0  0  0  0  0  0  0  0  0  0  0  0
  151.2080  140.2247  154.1415 O   0  0  0  0  0  0  0  0  0  0  0  0
  150.0079  134.5099  153.5499 N   0  0  0  0  0  0  0  0  0  0  0  0
  150.2001  133.1242  153.2927 C   0  0  0  0  0  0  0  0  0  0  0  0
  151.4983  132.5591  153.2180 C   0  0  0  0  0  0  0  0  0  0  0  0
  151.6472  131.1750  153.0066 C   0  0  0  0  0  0  0  0  0  0  0  0
  150.4961  130.3767  152.8837 C   0  0  0  0  0  0  0  0  0  0  0  0
  149.2750  130.9442  152.9722 N   0  3  0  0  0  0  0  0  0  0  0  0
  149.0700  132.2695  153.1745 C   0  0  0  0  0  0  0  0  0  0  0  0
  147.7459  132.7575  153.2228 N   0  0  0  0  0  0  0  0  0  0  0  0
  146.9670  132.5079  152.0117 C   0  0  0  0  0  0  0  0  0  0  0  0
  145.5407  132.1913  152.4681 C   0  0  0  0  0  0  0  0  0  0  0  0
  145.7384  131.6476  153.8776 C   0  0  0  0  0  0  0  0  0  0  0  0
  146.9087  132.4838  154.3899 C   0  0  0  0  0  0  0  0  0  0  0  0
  149.4850  136.7741  153.7377 H   0  0  0  0  0  0  0  0  0  0  0  0
  151.3020  137.6861  155.6299 H   0  0  0  0  0  0  0  0  0  0  0  0
  152.1386  137.8388  154.1115 H   0  0  0  0  0  0  0  0  0  0  0  0
  149.8393  138.9562  153.3260 H   0  0  0  0  0  0  0  0  0  0  0  0
  148.5491  140.0889  154.9620 H   0  0  0  0  0  0  0  0  0  0  0  0
  148.6843  138.4478  155.5512 H   0  0  0  0  0  0  0  0  0  0  0  0
  148.1276  140.8462  157.2221 H   0  0  0  0  0  0  0  0  0  0  0  0
  148.4969  139.3691  158.1170 H   0  0  0  0  0  0  0  0  0  0  0  0
  149.2289  141.9295  158.9777 H   0  0  0  0  0  0  0  0  0  0  0  0
  150.1412  140.4897  159.4303 H   0  0  0  0  0  0  0  0  0  0  0  0
  151.1448  142.6200  157.7486 H   0  0  0  0  0  0  0  0  0  0  0  0
  151.9102  141.0612  158.0723 H   0  0  0  0  0  0  0  0  0  0  0  0
  149.9711  141.7931  155.8696 H   0  0  0  0  0  0  0  0  0  0  0  0
  152.3221  141.6570  155.1254 H   0  0  0  0  0  0  0  0  0  0  0  0
  152.4720  140.0395  155.7850 H   0  0  0  0  0  0  0  0  0  0  0  0
  149.1740  134.9197  153.1552 H   0  0  0  0  0  0  0  0  0  0  0  0
  152.3826  133.1675  153.3355 H   0  0  0  0  0  0  0  0  0  0  0  0
  152.6307  130.7322  152.9463 H   0  0  0  0  0  0  0  0  0  0  0  0
  150.5142  129.3088  152.7210 H   0  0  0  0  0  0  0  0  0  0  0  0
  146.9838  133.3716  151.3467 H   0  0  0  0  0  0  0  0  0  0  0  0
  147.3810  131.6582  151.4662 H   0  0  0  0  0  0  0  0  0  0  0  0
  144.9525  133.1090  152.5082 H   0  0  0  0  0  0  0  0  0  0  0  0
  145.0287  131.4915  151.8072 H   0  0  0  0  0  0  0  0  0  0  0  0
  144.8478  131.7366  154.5001 H   0  0  0  0  0  0  0  0  0  0  0  0
  146.0214  130.5948  153.8352 H   0  0  0  0  0  0  0  0  0  0  0  0
  147.4219  131.9955  155.2178 H   0  0  0  0  0  0  0  0  0  0  0  0
  146.5431  133.4395  154.7662 H   0  0  0  0  0  0  0  0  0  0  0  0
  148.4584  130.3403  152.8766 H   0  0  0  0  0  0  0  0  0  0  0  0
  1  2  2  0  0  0  0
  2  3  1  0  0  0  0
  2 14  1  0  0  0  0
  3  4  1  0  0  0  0
  3 26  1  0  0  0  0
  4  5  1  0  0  0  0
  4 27  1  0  0  0  0
  4 28  1  0  0  0  0
  5 13  1  0  0  0  0
  5  6  1  0  0  0  0
  5 29  1  0  0  0  0
  6  7  1  0  0  0  0
  6 30  1  0  0  0  0
  6 31  1  0  0  0  0
  7 11  1  0  0  0  0
  7  8  1  0  0  0  0
  8  9  1  0  0  0  0
  8 32  1  0  0  0  0
  8 33  1  0  0  0  0
  9 10  1  0  0  0  0
  9 34  1  0  0  0  0
  9 35  1  0  0  0  0
 10 11  1  0  0  0  0
 10 36  1  0  0  0  0
 10 37  1  0  0  0  0
 11 12  1  0  0  0  0
 11 38  1  0  0  0  0
 12 13  1  0  0  0  0
 12 39  1  0  0  0  0
 12 40  1  0  0  0  0
 14 15  1  0  0  0  0
 14 41  1  0  0  0  0
 15 20  1  0  0  0  0
 15 16  2  0  0  0  0
 16 17  1  0  0  0  0
 16 42  1  0  0  0  0
 17 18  2  0  0  0  0
 17 43  1  0  0  0  0
 18 19  1  0  0  0  0
 18 44  1  0  0  0  0
 19 20  2  0  0  0  0
 19 53  1  0  0  0  0
 20 21  1  0  0  0  0
 21 25  1  0  0  0  0
 21 22  1  0  0  0  0
 22 23  1  0  0  0  0
 22 45  1  0  0  0  0
 22 46  1  0  0  0  0
 23 24  1  0  0  0  0
 23 47  1  0  0  0  0
 23 48  1  0  0  0  0
 24 25  1  0  0  0  0
 24 49  1  0  0  0  0
 24 50  1  0  0  0  0
 25 51  1  0  0  0  0
 25 52  1  0  0  0  0
M  CHG  1  19   1
M  END
> <s_m_source_file>
AV-unprocessed.smi

> <i_m_source_file_index>
1830

> <i_lp_mmshare_version>
43012

> <i_f3d_flags>
0

> <s_epik_input>
W0NIMl0xW0NIMl1bQ0gyXVtDQEhdKE4xMilbQ0gyXU9bQ0BASF0oW0NIMl0yKVtDSDJdW05IXUMoPU8pW05IXWMzW2NIXVtjSF1bY0hdbmMzTjRbQ0gyXVtDSDJdW0NIMl1bQ0gyXTQ=

> <s_epik_cmdline>
J2VwaWtfcHl0aG9uJywgJy1waCcsICc3LjAnLCAnLXRuJywgJzgnLCAnLW1hJywgJzIwMCcsICctbWV0YWxfYmluZGluZycsICctaW1hZScsICc8aW5maWxlLm1hZT4nLCAnLW9tYWUnLCAnPG91dGZpbGUubWFlPic=

> <r_epik_Ionization_Penalty>
2.19264

> <r_epik_Ionization_Penalty_Charging>
1.12452

> <r_epik_Ionization_Penalty_Neutral>
1.06812

> <r_epik_State_Penalty>
2.334

> <r_epik_Charging_Adjusted_Penalty>
3.45852

> <i_epik_Tot_Q>
1

> <i_epik_Tot_abs_Q>
1

> <r_epik_Metal_State_Penalty>
2.41144

> <b_epik_Metal_Only>
0

> <s_lp_Force_Field>
OPLS_2005

> <r_lp_Energy>
84.2953

> <b_lp_Chiralities_Consistent>
1

> <s_lp_Variant>
AV-unprocessed.smi:1830-22

> <Gold.Version>
5.8.1

> <Gold.Id.Protein>
6NUR|6NUR_protein|mol2

> <Gold.PLP.Fitness>
49.0192

> <Gold.PLP.PLP>
-41.3255

> <Gold.PLP.part.hbond>
-4.0952

> <Gold.PLP.part.metal>
0.0000

> <Gold.PLP.part.buried>
-4.2329

> <Gold.PLP.part.nonpolar>
-33.4970

> <Gold.PLP.part.repulsive>
0.3321

> <Gold.PLP.ligand.clash>
0.0000

> <Gold.PLP.ligand.torsion>
0.5001

> <Gold.PLP.Chemscore.Hbond>
2.8400

> <Gold.PLP.Chemscore.CHOScore>
0.0000

> <Gold.PLP.Chemscore.Metal>
0.0000

> <Gold.Chemscore.Hbonds>
donor molecule, donor type, donor heavy atom, donor atom, acceptor molecule, acceptor atom, score
      L1  H     3    26       P1  7948  0.42
      L1  H    14    41       P1  7948  0.38
      P1  H 10752 10763       L1     1  0.05

> <Gold.PLP.Chemscore.Internal.Correction>
0.1738

> <Gold.Rescore>
     Score         DG    S(hbond)    S(metal)    S(lipo)     H(rot)  DE(clash)    DE(int)     intcor
     15.16     -17.11       1.38        0.00      90.53       1.40       0.09       1.86       ----

> <Gold.Chemscore.Fitness>
15.1589

> <Gold.Chemscore.DG>
-17.1073

> <Gold.Chemscore.ZeroCoef>
-5.4800

> <Gold.Chemscore.Hbond>
1.3800

> <Gold.Chemscore.Metal>
0.0000

> <Gold.Chemscore.Lipo>
90.5271

> <Gold.Chemscore.Internal_Hbond>
0.0000

> <Gold.Chemscore.DEClash>
0.0882

> <Gold.Chemscore.DEInternal>
1.8602

> <Gold.Chemscore.Rot>
1.3959

> <Gold.Chemscore.Internal.Correction>
   9.000000E+99

> <Gold.Chemscore.Hbonds>
donor molecule, donor type, donor heavy atom, donor atom, acceptor molecule, acceptor atom, score
      L1  H     3    26       P1  7948  0.36
      L1  H    14    41       P1  7948  0.03
      P1  H 10752 10763       L1     1  0.05

> <Gold.Chemscore.Hbond.Weighted>
-4.6093

> <Gold.Chemscore.Metal.Weighted>
-0.0000

> <Gold.Chemscore.Lipo.Weighted>
-10.5917

> <Gold.Chemscore.Internal_Hbond.Weighted>
0.0000

> <Gold.Chemscore.DEClash.Weighted>
0.0882

> <Gold.Chemscore.DEInternal.Weighted>
1.8602

> <Gold.Chemscore.Rot.Weighted>
3.5736

> <Gold.Chemscore.Internal.Correction.Weighted>
   9.000000E+99

> <Gold.Protein.RotatedTorsions>
[ 6907 6896 6895 6894 ] final  118.68 input  -60.11 | X-H torsion
[ 7974 7965 7964 7962 ] final -128.83 input  175.53 | X-H torsion
[ 8008 7997 7996 7995 ] final  -82.49 input   59.86 | X-H torsion
[ 10167 10162 10161 10158 ] final  127.47 input  -65.29 | X-H torsion
[ 10718 10713 10712 10709 ] final  100.11 input   66.30 | X-H torsion
[ 10763 10752 10751 10750 ] final   27.87 input  -60.55 | X-H torsion
[ 11005 11000 10999 10996 ] final -159.63 input  -57.11 | X-H torsion

> <Gold.Protein.ActiveResidues>
 VAL166  LYS551  ARG553  GLY616  TRP617  ASP618  TYR619  PRO620  LYS621  CYS622 
 ASP623  PHE694  ASN695  SER759  ASP760  ASP761  ALA762  ILE779  LEU786  VAL792 
 PHE793  MET794  SER795  GLU796  ALA797  LYS798  CYS799  TRP800  GLU811  SER814 

> <Gold.Protein.RotatedAtoms>
  152.4526  133.7659  159.6771 H   0  0  0  0  0  0  0  0  0  0  0  0  # atno 6907 bound_to 6896
  150.8442  133.7877  159.3055 H   0  0  0  0  0  0  0  0  0  0  0  0  # atno 6908 bound_to 6896
  151.5493  135.1070  159.9997 H   0  0  0  0  0  0  0  0  0  0  0  0  # atno 6909 bound_to 6896
  144.9632  140.7469  143.4716 H   0  0  0  0  0  0  0  0  0  0  0  0  # atno 7974 bound_to 7965
  154.6091  140.0632  156.9471 H   0  0  0  0  0  0  0  0  0  0  0  0  # atno 8008 bound_to 7997
  155.2002  140.3314  155.4326 H   0  0  0  0  0  0  0  0  0  0  0  0  # atno 8009 bound_to 7997
  156.2366  140.1866  156.7086 H   0  0  0  0  0  0  0  0  0  0  0  0  # atno 8010 bound_to 7997
  139.5576  144.6860  151.4136 H   0  0  0  0  0  0  0  0  0  0  0  0  # atno 10167 bound_to 10162
  157.6861  131.0689  150.5051 H   0  0  0  0  0  0  0  0  0  0  0  0  # atno 10718 bound_to 10713
  153.0528  135.6527  154.0651 H   0  0  0  0  0  0  0  0  0  0  0  0  # atno 10763 bound_to 10752
  154.0336  135.2909  155.3366 H   0  0  0  0  0  0  0  0  0  0  0  0  # atno 10764 bound_to 10752
  154.6826  135.5314  153.8350 H   0  0  0  0  0  0  0  0  0  0  0  0  # atno 10765 bound_to 10752
  140.6405  134.4556  157.5233 H   0  0  0  0  0  0  0  0  0  0  0  0  # atno 11005 bound_to 11000
  145.2668  139.1970  143.4862 LP  0  0  0  0  0  0  0  0  0  0  0  0  # atno 17320 bound_to 7965
  146.3359  140.2608  142.8602 LP  0  0  0  0  0  0  0  0  0  0  0  0  # atno 17321 bound_to 7965
  140.6852  143.7991  150.7176 LP  0  0  0  0  0  0  0  0  0  0  0  0  # atno 17342 bound_to 10162
  140.1456  143.4402  152.2165 LP  0  0  0  0  0  0  0  0  0  0  0  0  # atno 17343 bound_to 10162
  156.5371  130.4199  149.6172 LP  0  0  0  0  0  0  0  0  0  0  0  0  # atno 17370 bound_to 10713
  156.3018  130.7181  151.2054 LP  0  0  0  0  0  0  0  0  0  0  0  0  # atno 17371 bound_to 10713
  139.9082  134.8402  156.1626 LP  0  0  0  0  0  0  0  0  0  0  0  0  # atno 17394 bound_to 11000
  141.0610  133.6841  156.1953 LP  0  0  0  0  0  0  0  0  0  0  0  0  # atno 17395 bound_to 11000

$$$$
