AV-unprocessed.smi:2840|AV-procd|sdf|10933|dock3
  -GOLD-   2272015383D 1   1.00000     0.00000
 Structure written by MMmdl.
 36 37  0  0  0  0  0  0  0  0  1 V2000
  153.5476  140.8152  160.5005 C   0  0  0  0  0  0  0  0  0  0  0  0
  153.3369  142.3360  160.4062 C   0  0  2  0  0  0  0  0  0  0  0  0
  152.3939  142.8477  161.5149 C   0  0  0  0  0  0  0  0  0  0  0  0
  152.2358  144.3755  161.4607 C   0  0  0  0  0  0  0  0  0  0  0  0
  151.7515  144.8388  160.0789 C   0  0  0  0  0  0  0  0  0  0  0  0
  152.6829  144.3325  158.9636 C   0  0  0  0  0  0  0  0  0  0  0  0
  152.8651  142.8016  159.0044 C   0  0  2  0  0  0  0  0  0  0  0  0
  151.6199  142.1451  158.5990 N   0  0  0  0  0  0  0  0  0  0  0  0
  150.9807  142.3121  157.4314 C   0  0  0  0  0  0  0  0  0  0  0  0
  151.3940  143.0346  156.5240 O   0  0  0  0  0  0  0  0  0  0  0  0
  149.8464  141.5910  157.3950 N   0  0  0  0  0  0  0  0  0  0  0  0
  148.8819  141.5217  156.3546 C   0  0  0  0  0  0  0  0  0  0  0  0
  147.5418  141.4037  156.7880 C   0  0  0  0  0  0  0  0  0  0  0  0
  146.5080  141.3346  155.8339 C   0  0  0  0  0  0  0  0  0  0  0  0
  146.8416  141.3834  154.4687 C   0  0  0  0  0  0  0  0  0  0  0  0
  148.2004  141.4986  154.1219 C   0  0  0  0  0  0  0  0  0  0  0  0
  149.1925  141.5661  155.0346 N   0  0  0  0  0  0  0  0  0  0  0  0
  152.6078  140.2706  160.4089 H   0  0  0  0  0  0  0  0  0  0  0  0
  153.9934  140.5416  161.4570 H   0  0  0  0  0  0  0  0  0  0  0  0
  154.2159  140.4631  159.7140 H   0  0  0  0  0  0  0  0  0  0  0  0
  154.3120  142.7942  160.5794 H   0  0  0  0  0  0  0  0  0  0  0  0
  151.4154  142.3754  161.4194 H   0  0  0  0  0  0  0  0  0  0  0  0
  152.7791  142.5583  162.4932 H   0  0  0  0  0  0  0  0  0  0  0  0
  151.5353  144.7038  162.2289 H   0  0  0  0  0  0  0  0  0  0  0  0
  153.1909  144.8494  161.6902 H   0  0  0  0  0  0  0  0  0  0  0  0
  150.7367  144.4785  159.9069 H   0  0  0  0  0  0  0  0  0  0  0  0
  151.6988  145.9274  160.0512 H   0  0  0  0  0  0  0  0  0  0  0  0
  152.3019  144.6422  157.9895 H   0  0  0  0  0  0  0  0  0  0  0  0
  153.6571  144.8110  159.0718 H   0  0  0  0  0  0  0  0  0  0  0  0
  153.6488  142.5545  158.2862 H   0  0  0  0  0  0  0  0  0  0  0  0
  151.2040  141.5225  159.2760 H   0  0  0  0  0  0  0  0  0  0  0  0
  149.6384  141.0423  158.2159 H   0  0  0  0  0  0  0  0  0  0  0  0
  147.3031  141.3682  157.8411 H   0  0  0  0  0  0  0  0  0  0  0  0
  145.4775  141.2466  156.1450 H   0  0  0  0  0  0  0  0  0  0  0  0
  146.0771  141.3335  153.7077 H   0  0  0  0  0  0  0  0  0  0  0  0
  148.4988  141.5385  153.0847 H   0  0  0  0  0  0  0  0  0  0  0  0
  1  2  1  0  0  0  0
  1 18  1  0  0  0  0
  1 19  1  0  0  0  0
  1 20  1  0  0  0  0
  2  7  1  0  0  0  0
  2  3  1  0  0  0  0
  2 21  1  0  0  0  0
  3  4  1  0  0  0  0
  3 22  1  0  0  0  0
  3 23  1  0  0  0  0
  4  5  1  0  0  0  0
  4 24  1  0  0  0  0
  4 25  1  0  0  0  0
  5  6  1  0  0  0  0
  5 26  1  0  0  0  0
  5 27  1  0  0  0  0
  6  7  1  0  0  0  0
  6 28  1  0  0  0  0
  6 29  1  0  0  0  0
  7  8  1  0  0  0  0
  7 30  1  0  0  0  0
  8  9  1  0  0  0  0
  8 31  1  0  0  0  0
  9 10  2  0  0  0  0
  9 11  1  0  0  0  0
 11 12  1  0  0  0  0
 11 32  1  0  0  0  0
 12 17  1  0  0  0  0
 12 13  2  0  0  0  0
 13 14  1  0  0  0  0
 13 33  1  0  0  0  0
 14 15  2  0  0  0  0
 14 34  1  0  0  0  0
 15 16  1  0  0  0  0
 15 35  1  0  0  0  0
 16 17  2  0  0  0  0
 16 36  1  0  0  0  0
M  END
> <s_m_source_file>
AV-unprocessed.smi

> <i_m_source_file_index>
2840

> <i_lp_mmshare_version>
43012

> <i_f3d_flags>
0

> <s_epik_input>
W0NIM11bQ0BASF0xW0NIMl1bQ0gyXVtDSDJdW0NIMl1bQ0BIXTFbTkhdQyg9TylbTkhdYzJbY0hdW2NIXVtjSF1bY0hdbjI=

> <s_epik_cmdline>
J2VwaWtfcHl0aG9uJywgJy1waCcsICc3LjAnLCAnLXRuJywgJzgnLCAnLW1hJywgJzIwMCcsICctbWV0YWxfYmluZGluZycsICctaW1hZScsICc8aW5maWxlLm1hZT4nLCAnLW9tYWUnLCAnPG91dGZpbGUubWFlPic=

> <r_lp_tautomer_probability>
1

> <r_epik_Ionization_Penalty>
5.29956e-05

> <r_epik_Ionization_Penalty_Charging>
0

> <r_epik_Ionization_Penalty_Neutral>
5.29956e-05

> <r_epik_State_Penalty>
-0

> <r_epik_Charging_Adjusted_Penalty>
0

> <i_epik_Tot_Q>
0

> <i_epik_Tot_abs_Q>
0

> <r_epik_Metal_State_Penalty>
-0

> <b_epik_Metal_Only>
0

> <s_lp_Force_Field>
OPLS_2005

> <r_lp_Energy>
11.7155

> <b_lp_Chiralities_Consistent>
1

> <s_lp_Variant>
AV-unprocessed.smi:2840-3

> <Gold.Version>
5.8.1

> <Gold.Id.Protein>
6NUR|6NUR_protein|mol2

> <Gold.PLP.Fitness>
38.1764

> <Gold.PLP.PLP>
-35.7109

> <Gold.PLP.part.hbond>
0.0000

> <Gold.PLP.part.metal>
0.0000

> <Gold.PLP.part.buried>
-2.6582

> <Gold.PLP.part.nonpolar>
-33.4184

> <Gold.PLP.part.repulsive>
0.3834

> <Gold.PLP.ligand.clash>
0.0000

> <Gold.PLP.ligand.torsion>
0.2629

> <Gold.PLP.Chemscore.Hbond>
0.0000

> <Gold.PLP.Chemscore.CHOScore>
0.9947

> <Gold.PLP.Chemscore.Metal>
0.0000

> <Gold.Chemscore.Hbonds>
donor molecule, donor type, donor heavy atom, donor atom, acceptor molecule, acceptor atom, score
      L1  C    16    36       P1  7957  0.66

> <Gold.PLP.Chemscore.Internal.Correction>
0.0070

> <Gold.Rescore>
     Score         DG    S(hbond)    S(metal)    S(lipo)     H(rot)  DE(clash)    DE(int)     intcor
     12.13     -14.54       0.00        0.00      99.30       1.00       1.22       1.19       ----

> <Gold.Chemscore.Fitness>
12.1264

> <Gold.Chemscore.DG>
-14.5377

> <Gold.Chemscore.ZeroCoef>
-5.4800

> <Gold.Chemscore.Hbond>
0.0000

> <Gold.Chemscore.Metal>
0.0000

> <Gold.Chemscore.Lipo>
99.2969

> <Gold.Chemscore.Internal_Hbond>
0.0000

> <Gold.Chemscore.DEClash>
1.2222

> <Gold.Chemscore.DEInternal>
1.1891

> <Gold.Chemscore.Rot>
1.0000

> <Gold.Chemscore.Internal.Correction>
   9.000000E+99

> <Gold.Chemscore.Hbond.Weighted>
-0.0000

> <Gold.Chemscore.Metal.Weighted>
-0.0000

> <Gold.Chemscore.Lipo.Weighted>
-11.6177

> <Gold.Chemscore.Internal_Hbond.Weighted>
0.0000

> <Gold.Chemscore.DEClash.Weighted>
1.2222

> <Gold.Chemscore.DEInternal.Weighted>
1.1891

> <Gold.Chemscore.Rot.Weighted>
2.5600

> <Gold.Chemscore.Internal.Correction.Weighted>
   9.000000E+99

> <Gold.Protein.RotatedTorsions>
[ 6907 6896 6895 6894 ] final  -34.09 input  -60.11 | X-H torsion
[ 7974 7965 7964 7962 ] final  -94.95 input  175.53 | X-H torsion
[ 8008 7997 7996 7995 ] final    3.20 input   59.86 | X-H torsion
[ 10167 10162 10161 10158 ] final  175.92 input  -65.29 | X-H torsion
[ 10718 10713 10712 10709 ] final  168.57 input   66.30 | X-H torsion
[ 10763 10752 10751 10750 ] final  163.55 input  -60.55 | X-H torsion
[ 11005 11000 10999 10996 ] final  -95.22 input  -57.11 | X-H torsion

> <Gold.Protein.ActiveResidues>
 VAL166  LYS551  ARG553  GLY616  TRP617  ASP618  TYR619  PRO620  LYS621  CYS622 
 ASP623  PHE694  ASN695  SER759  ASP760  ASP761  ALA762  ILE779  LEU786  VAL792 
 PHE793  MET794  SER795  GLU796  ALA797  LYS798  CYS799  TRP800  GLU811  SER814 

> <Gold.Protein.RotatedAtoms>
  151.0572  134.9712  159.8241 H   0  0  0  0  0  0  0  0  0  0  0  0  # atno 6907 bound_to 6896
  152.5390  134.2463  159.8891 H   0  0  0  0  0  0  0  0  0  0  0  0  # atno 6908 bound_to 6896
  151.2482  133.4321  159.2644 H   0  0  0  0  0  0  0  0  0  0  0  0  # atno 6909 bound_to 6896
  145.3665  140.9499  143.2471 H   0  0  0  0  0  0  0  0  0  0  0  0  # atno 7974 bound_to 7965
  154.7008  140.2672  155.6722 H   0  0  0  0  0  0  0  0  0  0  0  0  # atno 8008 bound_to 7997
  156.2764  140.2772  156.1541 H   0  0  0  0  0  0  0  0  0  0  0  0  # atno 8009 bound_to 7997
  155.0768  140.0372  157.2616 H   0  0  0  0  0  0  0  0  0  0  0  0  # atno 8010 bound_to 7997
  139.5195  144.2975  152.0408 H   0  0  0  0  0  0  0  0  0  0  0  0  # atno 10167 bound_to 10162
  157.0352  131.0271  151.2731 H   0  0  0  0  0  0  0  0  0  0  0  0  # atno 10718 bound_to 10713
  154.2954  135.2760  155.2636 H   0  0  0  0  0  0  0  0  0  0  0  0  # atno 10763 bound_to 10752
  154.5096  135.5786  153.6598 H   0  0  0  0  0  0  0  0  0  0  0  0  # atno 10764 bound_to 10752
  152.9908  135.6178  154.3121 H   0  0  0  0  0  0  0  0  0  0  0  0  # atno 10765 bound_to 10752
  141.1448  133.8011  157.0405 H   0  0  0  0  0  0  0  0  0  0  0  0  # atno 11005 bound_to 11000
  144.8608  139.5181  143.6813 LP  0  0  0  0  0  0  0  0  0  0  0  0  # atno 17320 bound_to 7965
  146.2904  139.7124  142.9165 LP  0  0  0  0  0  0  0  0  0  0  0  0  # atno 17321 bound_to 7965
  140.2424  144.4255  150.6254 LP  0  0  0  0  0  0  0  0  0  0  0  0  # atno 17342 bound_to 10162
  140.6281  143.2184  151.6553 LP  0  0  0  0  0  0  0  0  0  0  0  0  # atno 17343 bound_to 10162
  157.5147  130.7960  149.7743 LP  0  0  0  0  0  0  0  0  0  0  0  0  # atno 17370 bound_to 10713
  156.0056  130.3857  150.2444 LP  0  0  0  0  0  0  0  0  0  0  0  0  # atno 17371 bound_to 10713
  140.0696  134.9710  157.1444 LP  0  0  0  0  0  0  0  0  0  0  0  0  # atno 17394 bound_to 11000
  140.3730  134.2369  155.7176 LP  0  0  0  0  0  0  0  0  0  0  0  0  # atno 17395 bound_to 11000

$$$$
