AV-unprocessed.smi:2399|AV-procd|sdf|9499|dock7
  -GOLD-   2272013133D 1   1.00000     0.00000
 Structure written by MMmdl.
 53 55  0  0  0  0  0  0  0  0  2 V2000
  146.9887  132.8495  152.2398 C   0  0  0  0  0  0  0  0  0  0  0  0
  147.9056  133.6492  152.9721 O   0  0  0  0  0  0  0  0  0  0  0  0
  148.7566  133.0207  153.8602 C   0  0  0  0  0  0  0  0  0  0  0  0
  148.7308  131.6264  154.1190 C   0  0  0  0  0  0  0  0  0  0  0  0
  149.6390  131.0777  155.0409 C   0  0  0  0  0  0  0  0  0  0  0  0
  150.5463  131.9442  155.6757 C   0  0  0  0  0  0  0  0  0  0  0  0
  151.5546  131.4218  156.6771 C   0  0  0  0  0  0  0  0  0  0  0  0
  150.5814  133.2704  155.4368 N   0  0  0  0  0  0  0  0  0  0  0  0
  149.7104  133.8127  154.5502 C   0  0  0  0  0  0  0  0  0  0  0  0
  149.6829  135.2022  154.2488 N   0  0  0  0  0  0  0  0  0  0  0  0
  149.9520  136.2385  155.0616 C   0  0  0  0  0  0  0  0  0  0  0  0
  150.2902  136.1519  156.2426 O   0  0  0  0  0  0  0  0  0  0  0  0
  149.8162  137.4073  154.4182 N   0  0  0  0  0  0  0  0  0  0  0  0
  150.0530  138.7208  155.0097 C   0  0  2  0  0  0  0  0  0  0  0  0
  151.5030  138.8212  155.5028 C   0  0  0  0  0  0  0  0  0  0  0  0
  151.7612  140.1647  156.2054 C   0  0  0  0  0  0  0  0  0  0  0  0
  150.8190  140.3810  157.3390 N   0  3  1  0  0  0  0  0  0  0  0  0
  151.1096  141.6215  158.1156 C   0  0  0  0  0  0  0  0  0  0  0  0
  151.2785  142.8772  157.2486 C   0  0  0  0  0  0  0  0  0  0  0  0
  152.0132  143.8744  158.1463 C   0  0  0  0  0  0  0  0  0  0  0  0
  152.8487  143.0304  159.1170 C   0  0  0  0  0  0  0  0  0  0  0  0
  152.4441  141.5705  158.8769 C   0  0  0  0  0  0  0  0  0  0  0  0
  149.4049  140.3106  156.8763 C   0  0  0  0  0  0  0  0  0  0  0  0
  149.0995  138.9701  156.1896 C   0  0  0  0  0  0  0  0  0  0  0  0
  146.4034  133.4884  151.5786 H   0  0  0  0  0  0  0  0  0  0  0  0
  146.2915  132.3339  152.9014 H   0  0  0  0  0  0  0  0  0  0  0  0
  147.5059  132.1179  151.6176 H   0  0  0  0  0  0  0  0  0  0  0  0
  148.0321  130.9653  153.6292 H   0  0  0  0  0  0  0  0  0  0  0  0
  149.6365  130.0186  155.2520 H   0  0  0  0  0  0  0  0  0  0  0  0
  151.3202  130.3997  156.9762 H   0  0  0  0  0  0  0  0  0  0  0  0
  151.5625  132.0434  157.5731 H   0  0  0  0  0  0  0  0  0  0  0  0
  152.5550  131.4308  156.2440 H   0  0  0  0  0  0  0  0  0  0  0  0
  149.4356  135.4284  153.2968 H   0  0  0  0  0  0  0  0  0  0  0  0
  149.5330  137.3858  153.4493 H   0  0  0  0  0  0  0  0  0  0  0  0
  149.8941  139.4899  154.2508 H   0  0  0  0  0  0  0  0  0  0  0  0
  151.7197  138.0043  156.1931 H   0  0  0  0  0  0  0  0  0  0  0  0
  152.1909  138.7076  154.6638 H   0  0  0  0  0  0  0  0  0  0  0  0
  152.7923  140.1655  156.5564 H   0  0  0  0  0  0  0  0  0  0  0  0
  151.6686  140.9861  155.4928 H   0  0  0  0  0  0  0  0  0  0  0  0
  150.3008  141.7943  158.8282 H   0  0  0  0  0  0  0  0  0  0  0  0
  151.8936  142.6514  156.3763 H   0  0  0  0  0  0  0  0  0  0  0  0
  150.3301  143.2826  156.8944 H   0  0  0  0  0  0  0  0  0  0  0  0
  152.6242  144.5692  157.5692 H   0  0  0  0  0  0  0  0  0  0  0  0
  151.2891  144.4656  158.7083 H   0  0  0  0  0  0  0  0  0  0  0  0
  153.9175  143.1689  158.9495 H   0  0  0  0  0  0  0  0  0  0  0  0
  152.6402  143.3262  160.1458 H   0  0  0  0  0  0  0  0  0  0  0  0
  152.3736  141.0147  159.8125 H   0  0  0  0  0  0  0  0  0  0  0  0
  153.2046  141.0859  158.2623 H   0  0  0  0  0  0  0  0  0  0  0  0
  148.7199  140.4232  157.7158 H   0  0  0  0  0  0  0  0  0  0  0  0
  149.2037  141.1364  156.1921 H   0  0  0  0  0  0  0  0  0  0  0  0
  148.0645  138.9651  155.8456 H   0  0  0  0  0  0  0  0  0  0  0  0
  149.1870  138.1612  156.9166 H   0  0  0  0  0  0  0  0  0  0  0  0
  150.9536  139.6081  157.9751 H   0  0  0  0  0  0  0  0  0  0  0  0
  1  2  1  0  0  0  0
  1 25  1  0  0  0  0
  1 26  1  0  0  0  0
  1 27  1  0  0  0  0
  2  3  1  0  0  0  0
  3  9  1  0  0  0  0
  3  4  2  0  0  0  0
  4  5  1  0  0  0  0
  4 28  1  0  0  0  0
  5  6  2  0  0  0  0
  5 29  1  0  0  0  0
  6  7  1  0  0  0  0
  6  8  1  0  0  0  0
  7 30  1  0  0  0  0
  7 31  1  0  0  0  0
  7 32  1  0  0  0  0
  8  9  2  0  0  0  0
  9 10  1  0  0  0  0
 10 11  1  0  0  0  0
 10 33  1  0  0  0  0
 11 12  2  0  0  0  0
 11 13  1  0  0  0  0
 13 14  1  0  0  0  0
 13 34  1  0  0  0  0
 14 24  1  0  0  0  0
 14 15  1  0  0  0  0
 14 35  1  0  0  0  0
 15 16  1  0  0  0  0
 15 36  1  0  0  0  0
 15 37  1  0  0  0  0
 16 17  1  0  0  0  0
 16 38  1  0  0  0  0
 16 39  1  0  0  0  0
 17 18  1  0  0  0  0
 17 23  1  0  0  0  0
 17 53  1  0  0  0  0
 18 22  1  0  0  0  0
 18 19  1  0  0  0  0
 18 40  1  0  0  0  0
 19 20  1  0  0  0  0
 19 41  1  0  0  0  0
 19 42  1  0  0  0  0
 20 21  1  0  0  0  0
 20 43  1  0  0  0  0
 20 44  1  0  0  0  0
 21 22  1  0  0  0  0
 21 45  1  0  0  0  0
 21 46  1  0  0  0  0
 22 47  1  0  0  0  0
 22 48  1  0  0  0  0
 23 24  1  0  0  0  0
 23 49  1  0  0  0  0
 23 50  1  0  0  0  0
 24 51  1  0  0  0  0
 24 52  1  0  0  0  0
M  CHG  1  17   1
M  END
> <s_m_source_file>
AV-unprocessed.smi

> <i_m_source_file_index>
2399

> <i_lp_mmshare_version>
43012

> <i_f3d_flags>
0

> <s_epik_input>
W0NIM11PYzFbY0hdW2NIXWMoW0NIM10pbmMxW05IXUMoPU8pW05IXVtDSF0yW0NIMl1bQ0gyXU4oW0NIMl1bQ0gyXTIpW0NIXTNbQ0gyXVtDSDJdW0NIMl1bQ0gyXTM=

> <s_epik_cmdline>
J2VwaWtfcHl0aG9uJywgJy1waCcsICc3LjAnLCAnLXRuJywgJzgnLCAnLW1hJywgJzIwMCcsICctbWV0YWxfYmluZGluZycsICctaW1hZScsICc8aW5maWxlLm1hZT4nLCAnLW9tYWUnLCAnPG91dGZpbGUubWFlPic=

> <r_lp_tautomer_probability>
1

> <r_epik_Ionization_Penalty>
0.00183805

> <r_epik_Ionization_Penalty_Charging>
0.00179121

> <r_epik_Ionization_Penalty_Neutral>
4.68398e-05

> <r_epik_State_Penalty>
0.00121448

> <r_epik_Charging_Adjusted_Penalty>
0.0030057

> <i_epik_Tot_Q>
1

> <i_epik_Tot_abs_Q>
1

> <r_epik_Metal_State_Penalty>
-0

> <b_epik_Metal_Only>
0

> <s_lp_Force_Field>
OPLS_2005

> <r_lp_Energy>
41.4811

> <b_lp_Chiralities_Consistent>
1

> <s_lp_Variant>
AV-unprocessed.smi:2399-1

> <Gold.Version>
5.8.1

> <Gold.Id.Protein>
6NUR|6NUR_protein|mol2

> <Gold.PLP.Fitness>
45.6236

> <Gold.PLP.PLP>
-40.9469

> <Gold.PLP.part.hbond>
-2.3800

> <Gold.PLP.part.metal>
0.0000

> <Gold.PLP.part.buried>
-4.4099

> <Gold.PLP.part.nonpolar>
-35.6140

> <Gold.PLP.part.repulsive>
0.9780

> <Gold.PLP.ligand.clash>
0.0000

> <Gold.PLP.ligand.torsion>
0.3835

> <Gold.PLP.Chemscore.Hbond>
1.7940

> <Gold.PLP.Chemscore.CHOScore>
0.0000

> <Gold.PLP.Chemscore.Metal>
0.0000

> <Gold.Chemscore.Hbonds>
donor molecule, donor type, donor heavy atom, donor atom, acceptor molecule, acceptor atom, score
      L1  H    10    33       P1  7948  0.75
      L1  H    13    34       P1  7948  0.94

> <Gold.PLP.Chemscore.Internal.Correction>
0.0617

> <Gold.Rescore>
     Score         DG    S(hbond)    S(metal)    S(lipo)     H(rot)  DE(clash)    DE(int)     intcor
     16.41     -18.22       1.44        0.00      97.99       1.38       0.12       1.69       ----

> <Gold.Chemscore.Fitness>
16.4088

> <Gold.Chemscore.DG>
-18.2195

> <Gold.Chemscore.ZeroCoef>
-5.4800

> <Gold.Chemscore.Hbond>
1.4414

> <Gold.Chemscore.Metal>
0.0000

> <Gold.Chemscore.Lipo>
97.9927

> <Gold.Chemscore.Internal_Hbond>
0.0000

> <Gold.Chemscore.DEClash>
0.1174

> <Gold.Chemscore.DEInternal>
1.6933

> <Gold.Chemscore.Rot>
1.3828

> <Gold.Chemscore.Internal.Correction>
   9.000000E+99

> <Gold.Chemscore.Hbonds>
donor molecule, donor type, donor heavy atom, donor atom, acceptor molecule, acceptor atom, score
      L1  H    10    33       P1  7948  0.09
      L1  H    13    34       P1  7948  0.76

> <Gold.Chemscore.Hbond.Weighted>
-4.8143

> <Gold.Chemscore.Metal.Weighted>
-0.0000

> <Gold.Chemscore.Lipo.Weighted>
-11.4652

> <Gold.Chemscore.Internal_Hbond.Weighted>
0.0000

> <Gold.Chemscore.DEClash.Weighted>
0.1174

> <Gold.Chemscore.DEInternal.Weighted>
1.6933

> <Gold.Chemscore.Rot.Weighted>
3.5399

> <Gold.Chemscore.Internal.Correction.Weighted>
   9.000000E+99

> <Gold.Protein.RotatedTorsions>
[ 6907 6896 6895 6894 ] final  114.97 input  -60.11 | X-H torsion
[ 7974 7965 7964 7962 ] final  -27.67 input  175.53 | X-H torsion
[ 8008 7997 7996 7995 ] final  174.23 input   59.86 | X-H torsion
[ 10167 10162 10161 10158 ] final  -22.73 input  -65.29 | X-H torsion
[ 10718 10713 10712 10709 ] final   -0.65 input   66.30 | X-H torsion
[ 10763 10752 10751 10750 ] final  -84.51 input  -60.55 | X-H torsion
[ 11005 11000 10999 10996 ] final  128.44 input  -57.11 | X-H torsion

> <Gold.Protein.ActiveResidues>
 VAL166  LYS551  ARG553  GLY616  TRP617  ASP618  TYR619  PRO620  LYS621  CYS622 
 ASP623  PHE694  ASN695  SER759  ASP760  ASP761  ALA762  ILE779  LEU786  VAL792 
 PHE793  MET794  SER795  GLU796  ALA797  LYS798  CYS799  TRP800  GLU811  SER814 

> <Gold.Protein.RotatedAtoms>
  152.4770  133.8163  159.7029 H   0  0  0  0  0  0  0  0  0  0  0  0  # atno 6907 bound_to 6896
  150.8794  133.7384  159.2943 H   0  0  0  0  0  0  0  0  0  0  0  0  # atno 6908 bound_to 6896
  151.4893  135.1060  159.9851 H   0  0  0  0  0  0  0  0  0  0  0  0  # atno 6909 bound_to 6896
  146.1341  140.5182  142.8680 H   0  0  0  0  0  0  0  0  0  0  0  0  # atno 7974 bound_to 7965
  156.0995  140.1440  156.9486 H   0  0  0  0  0  0  0  0  0  0  0  0  # atno 8008 bound_to 7997
  154.4693  140.0915  156.7149 H   0  0  0  0  0  0  0  0  0  0  0  0  # atno 8009 bound_to 7997
  155.4783  140.3444  155.4338 H   0  0  0  0  0  0  0  0  0  0  0  0  # atno 8010 bound_to 7997
  140.7286  143.4508  151.0520 H   0  0  0  0  0  0  0  0  0  0  0  0  # atno 10167 bound_to 10162
  156.8173  130.5444  149.5701 H   0  0  0  0  0  0  0  0  0  0  0  0  # atno 10718 bound_to 10713
  154.6003  135.5518  153.7368 H   0  0  0  0  0  0  0  0  0  0  0  0  # atno 10763 bound_to 10752
  153.0152  135.6365  154.1723 H   0  0  0  0  0  0  0  0  0  0  0  0  # atno 10764 bound_to 10752
  154.1663  135.2894  155.3074 H   0  0  0  0  0  0  0  0  0  0  0  0  # atno 10765 bound_to 10752
  139.9561  134.9612  156.9003 H   0  0  0  0  0  0  0  0  0  0  0  0  # atno 11005 bound_to 11000
  144.7722  140.5661  143.6663 LP  0  0  0  0  0  0  0  0  0  0  0  0  # atno 17320 bound_to 7965
  145.5194  139.1477  143.3560 LP  0  0  0  0  0  0  0  0  0  0  0  0  # atno 17321 bound_to 7965
  139.8184  143.7854  152.3175 LP  0  0  0  0  0  0  0  0  0  0  0  0  # atno 17342 bound_to 10162
  139.7928  144.7404  150.9931 LP  0  0  0  0  0  0  0  0  0  0  0  0  # atno 17343 bound_to 10162
  156.1009  130.5968  150.9892 LP  0  0  0  0  0  0  0  0  0  0  0  0  # atno 17370 bound_to 10713
  157.6475  131.0902  150.8123 LP  0  0  0  0  0  0  0  0  0  0  0  0  # atno 17371 bound_to 10713
  140.5606  134.0538  155.7397 LP  0  0  0  0  0  0  0  0  0  0  0  0  # atno 17394 bound_to 11000
  141.1232  133.9426  157.2687 LP  0  0  0  0  0  0  0  0  0  0  0  0  # atno 17395 bound_to 11000

$$$$
