AV-unprocessed.smi:367|AV-procd|sdf|2433|dock2
  -GOLD-   2262022373D 1   1.00000     0.00000
 Structure written by MMmdl.
 21 21  0  0  0  0  0  0  0  0  3 V2000
  153.0343  142.8123  161.9270 C   0  0  0  0  0  0  0  0  0  0  0  0
  152.4952  142.5352  160.5399 C   0  0  0  0  0  0  0  0  0  0  0  0
  152.4678  143.4800  159.6793 N   0  0  0  0  0  0  0  0  0  0  0  0
  151.9623  143.2282  158.3921 C   0  0  0  0  0  0  0  0  0  0  0  0
  151.9519  144.4124  157.4412 C   0  0  0  0  0  0  0  0  0  0  0  0
  151.5063  141.9915  158.0410 C   0  0  0  0  0  0  0  0  0  0  0  0
  150.9254  141.6742  156.6597 C   0  0  0  0  0  0  0  0  0  0  0  0
  151.5911  140.5039  155.9255 C   0  0  0  0  0  0  0  0  0  0  0  0
  152.5124  139.9174  156.5348 O   0  0  0  0  0  0  0  0  0  0  0  0
  151.1853  140.2084  154.7793 O   0  5  0  0  0  0  0  0  0  0  0  0
  151.5644  140.9277  159.0605 C   0  0  0  0  0  0  0  0  0  0  0  0
  151.1778  139.7898  158.7957 O   0  0  0  0  0  0  0  0  0  0  0  0
  152.0563  141.2545  160.2905 N   0  5  0  0  0  0  0  0  0  0  0  0
  153.4223  143.8290  162.0027 H   0  0  0  0  0  0  0  0  0  0  0  0
  153.8422  142.1201  162.1655 H   0  0  0  0  0  0  0  0  0  0  0  0
  152.2443  142.6914  162.6688 H   0  0  0  0  0  0  0  0  0  0  0  0
  150.9291  144.6772  157.1728 H   0  0  0  0  0  0  0  0  0  0  0  0
  152.5010  144.1773  156.5295 H   0  0  0  0  0  0  0  0  0  0  0  0
  152.4181  145.2876  157.8947 H   0  0  0  0  0  0  0  0  0  0  0  0
  149.8544  141.4800  156.7216 H   0  0  0  0  0  0  0  0  0  0  0  0
  151.0139  142.5619  156.0333 H   0  0  0  0  0  0  0  0  0  0  0  0
  1  2  1  0  0  0  0
  1 14  1  0  0  0  0
  1 15  1  0  0  0  0
  1 16  1  0  0  0  0
  2 13  1  0  0  0  0
  2  3  2  0  0  0  0
  3  4  1  0  0  0  0
  4  5  1  0  0  0  0
  4  6  2  0  0  0  0
  5 17  1  0  0  0  0
  5 18  1  0  0  0  0
  5 19  1  0  0  0  0
  6  7  1  0  0  0  0
  6 11  1  0  0  0  0
  7  8  1  0  0  0  0
  7 20  1  0  0  0  0
  7 21  1  0  0  0  0
  8  9  2  0  0  0  0
  8 10  1  0  0  0  0
 11 12  2  0  0  0  0
 11 13  1  0  0  0  0
M  CHG  1  10  -1
M  CHG  1  13  -1
M  END
> <s_m_source_file>
AV-unprocessed.smi

> <i_m_source_file_index>
367

> <i_lp_mmshare_version>
43012

> <i_f3d_flags>
0

> <s_epik_input>
W0NIM11jMW5jKFtDSDNdKWMoYyg9TylbbkhdMSlbQ0gyXUMoPU8pW09IXQ==

> <s_epik_cmdline>
J2VwaWtfcHl0aG9uJywgJy1waCcsICc3LjAnLCAnLXRuJywgJzgnLCAnLW1hJywgJzIwMCcsICctbWV0YWxfYmluZGluZycsICctaW1hZScsICc8aW5maWxlLm1hZT4nLCAnLW9tYWUnLCAnPG91dGZpbGUubWFlPic=

> <r_lp_tautomer_probability>
0.839158

> <r_epik_Ionization_Penalty>
8.1762

> <r_epik_Ionization_Penalty_Charging>
0.00175347

> <r_epik_Ionization_Penalty_Neutral>
8.17445

> <r_epik_State_Penalty>
5.46366

> <r_epik_Charging_Adjusted_Penalty>
5.46542

> <i_epik_Tot_Q>
-2

> <i_epik_Tot_abs_Q>
2

> <r_epik_Metal_State_Penalty>
1.48615

> <b_epik_Metal_Only>
1

> <s_lp_Force_Field>
OPLS_2005

> <r_lp_Energy>
12.8552

> <b_lp_Chiralities_Consistent>
1

> <s_lp_Variant>
AV-unprocessed.smi:367-3

> <Gold.Version>
5.8.1

> <Gold.Id.Protein>
6NUR|6NUR_protein|mol2

> <Gold.PLP.Fitness>
37.4076

> <Gold.PLP.PLP>
-28.4560

> <Gold.PLP.part.hbond>
-2.1962

> <Gold.PLP.part.metal>
0.0000

> <Gold.PLP.part.buried>
-3.5702

> <Gold.PLP.part.nonpolar>
-21.2556

> <Gold.PLP.part.repulsive>
0.0702

> <Gold.PLP.ligand.clash>
0.0000

> <Gold.PLP.ligand.torsion>
0.0246

> <Gold.PLP.Chemscore.Hbond>
3.0000

> <Gold.PLP.Chemscore.CHOScore>
0.0000

> <Gold.PLP.Chemscore.Metal>
0.0000

> <Gold.Chemscore.Hbonds>
donor molecule, donor type, donor heavy atom, donor atom, acceptor molecule, acceptor atom, score
      P1  H  7989  7998       L1    10  0.94
      P1  H  7997  8010       L1     9  2.00

> <Gold.PLP.Chemscore.Internal.Correction>
0.0007

> <Gold.Rescore>
     Score         DG    S(hbond)    S(metal)    S(lipo)     H(rot)  DE(clash)    DE(int)     intcor
     13.13     -14.37       1.97        0.00      53.12       1.53       0.42       0.82       ----

> <Gold.Chemscore.Fitness>
13.1251

> <Gold.Chemscore.DG>
-14.3723

> <Gold.Chemscore.ZeroCoef>
-5.4800

> <Gold.Chemscore.Hbond>
1.9725

> <Gold.Chemscore.Metal>
0.0000

> <Gold.Chemscore.Lipo>
53.1205

> <Gold.Chemscore.Internal_Hbond>
0.0000

> <Gold.Chemscore.DEClash>
0.4243

> <Gold.Chemscore.DEInternal>
0.8229

> <Gold.Chemscore.Rot>
1.5278

> <Gold.Chemscore.Internal.Correction>
   9.000000E+99

> <Gold.Chemscore.Hbonds>
donor molecule, donor type, donor heavy atom, donor atom, acceptor molecule, acceptor atom, score
      P1  H  7989  7998       L1    10  0.90
      P1  H  7997  8010       L1     9  0.98

> <Gold.Chemscore.Hbond.Weighted>
-6.5883

> <Gold.Chemscore.Metal.Weighted>
-0.0000

> <Gold.Chemscore.Lipo.Weighted>
-6.2151

> <Gold.Chemscore.Internal_Hbond.Weighted>
0.0000

> <Gold.Chemscore.DEClash.Weighted>
0.4243

> <Gold.Chemscore.DEInternal.Weighted>
0.8229

> <Gold.Chemscore.Rot.Weighted>
3.9111

> <Gold.Chemscore.Internal.Correction.Weighted>
   9.000000E+99

> <Gold.Protein.RotatedTorsions>
[ 6907 6896 6895 6894 ] final  141.44 input  -60.11 | X-H torsion
[ 7974 7965 7964 7962 ] final -103.46 input  175.53 | X-H torsion
[ 8008 7997 7996 7995 ] final   83.75 input   59.86 | X-H torsion
[ 10167 10162 10161 10158 ] final   70.33 input  -65.29 | X-H torsion
[ 10718 10713 10712 10709 ] final   35.54 input   66.30 | X-H torsion
[ 10763 10752 10751 10750 ] final  -42.42 input  -60.55 | X-H torsion
[ 11005 11000 10999 10996 ] final -128.20 input  -57.11 | X-H torsion

> <Gold.Protein.ActiveResidues>
 VAL166  LYS551  ARG553  GLY616  TRP617  ASP618  TYR619  PRO620  LYS621  CYS622 
 ASP623  PHE694  ASN695  SER759  ASP760  ASP761  ALA762  ILE779  LEU786  VAL792 
 PHE793  MET794  SER795  GLU796  ALA797  LYS798  CYS799  TRP800  GLU811  SER814 

> <Gold.Protein.RotatedAtoms>
  152.2309  133.5057  159.5214 H   0  0  0  0  0  0  0  0  0  0  0  0  # atno 6907 bound_to 6896
  150.7037  134.1218  159.4046 H   0  0  0  0  0  0  0  0  0  0  0  0  # atno 6908 bound_to 6896
  151.9139  135.0327  160.0567 H   0  0  0  0  0  0  0  0  0  0  0  0  # atno 6909 bound_to 6896
  145.2557  140.9253  143.3070 H   0  0  0  0  0  0  0  0  0  0  0  0  # atno 7974 bound_to 7965
  155.9281  140.3417  155.6226 H   0  0  0  0  0  0  0  0  0  0  0  0  # atno 8008 bound_to 7997
  155.7191  140.0781  157.2357 H   0  0  0  0  0  0  0  0  0  0  0  0  # atno 8009 bound_to 7997
  154.4080  140.1608  156.2370 H   0  0  0  0  0  0  0  0  0  0  0  0  # atno 8010 bound_to 7997
  140.0581  144.5256  150.7314 H   0  0  0  0  0  0  0  0  0  0  0  0  # atno 10167 bound_to 10162
  157.3240  130.7463  149.6803 H   0  0  0  0  0  0  0  0  0  0  0  0  # atno 10718 bound_to 10713
  153.9788  135.6719  153.4749 H   0  0  0  0  0  0  0  0  0  0  0  0  # atno 10763 bound_to 10752
  153.0758  135.4949  154.8398 H   0  0  0  0  0  0  0  0  0  0  0  0  # atno 10764 bound_to 10752
  154.7177  135.3110  154.9059 H   0  0  0  0  0  0  0  0  0  0  0  0  # atno 10765 bound_to 10752
  140.9536  134.1032  157.4038 H   0  0  0  0  0  0  0  0  0  0  0  0  # atno 11005 bound_to 11000
  144.9463  139.4132  143.6424 LP  0  0  0  0  0  0  0  0  0  0  0  0  # atno 17320 bound_to 7965
  146.3290  139.8448  142.8884 LP  0  0  0  0  0  0  0  0  0  0  0  0  # atno 17321 bound_to 7965
  140.7185  143.2566  151.4357 LP  0  0  0  0  0  0  0  0  0  0  0  0  # atno 17342 bound_to 10162
  139.5911  144.1498  152.2089 LP  0  0  0  0  0  0  0  0  0  0  0  0  # atno 17343 bound_to 10162
  155.9688  130.4215  150.4471 LP  0  0  0  0  0  0  0  0  0  0  0  0  # atno 17370 bound_to 10713
  157.2492  131.0542  151.2390 LP  0  0  0  0  0  0  0  0  0  0  0  0  # atno 17371 bound_to 10713
  139.8855  135.0073  156.6439 LP  0  0  0  0  0  0  0  0  0  0  0  0  # atno 17394 bound_to 11000
  140.7568  133.8851  155.8388 LP  0  0  0  0  0  0  0  0  0  0  0  0  # atno 17395 bound_to 11000

$$$$
