AV-unprocessed.smi:1734|AV-procd|sdf|6982|dock9
  -GOLD-   22720 8193D 1   1.00000     0.00000
 Structure written by MMmdl.
 50 52  0  0  0  0  0  0  0  0  1 V2000
  145.2996  135.5741  150.7993 C   0  0  0  0  0  0  0  0  0  0  0  0
  145.2058  134.1139  151.2115 C   0  0  0  0  0  0  0  0  0  0  0  0
  144.2161  133.2943  150.6283 C   0  0  0  0  0  0  0  0  0  0  0  0
  144.1313  131.9446  151.0101 C   0  0  0  0  0  0  0  0  0  0  0  0
  145.0463  131.4681  151.9643 C   0  0  0  0  0  0  0  0  0  0  0  0
  145.9944  132.2443  152.5274 N   0  0  0  0  0  0  0  0  0  0  0  0
  146.0892  133.5501  152.1708 C   0  0  0  0  0  0  0  0  0  0  0  0
  147.0557  134.4305  152.7333 N   0  0  0  0  0  0  0  0  0  0  0  0
  147.4957  134.4889  154.0025 C   0  0  0  0  0  0  0  0  0  0  0  0
  147.1813  133.7123  154.9050 O   0  0  0  0  0  0  0  0  0  0  0  0
  148.3329  135.5215  154.1760 N   0  0  0  0  0  0  0  0  0  0  0  0
  148.9497  135.8944  155.4438 C   0  0  0  0  0  0  0  0  0  0  0  0
  148.4804  137.2776  155.9873 C   0  0  2  0  0  0  0  0  0  0  0  0
  148.9640  138.4618  155.0991 C   0  0  1  0  0  0  0  0  0  0  0  0
  148.8353  139.8510  155.7112 C   0  0  0  0  0  0  0  0  0  0  0  0
  149.8863  140.6822  154.9734 C   0  0  0  0  0  0  0  0  0  0  0  0
  150.7527  139.7531  154.3335 O   0  0  0  0  0  0  0  0  0  0  0  0
  150.4676  138.4475  154.8097 C   0  0  0  0  0  0  0  0  0  0  0  0
  148.8132  137.4899  157.4072 N   0  0  0  0  0  0  0  0  0  0  0  0
  150.2402  137.6304  157.6919 C   0  0  0  0  0  0  0  0  0  0  0  0
  150.4886  137.9717  159.1714 C   0  0  0  0  0  0  0  0  0  0  0  0
  149.8830  136.9849  160.0014 O   0  0  0  0  0  0  0  0  0  0  0  0
  148.4805  136.8639  159.7826 C   0  0  0  0  0  0  0  0  0  0  0  0
  148.2177  136.5076  158.3096 C   0  0  0  0  0  0  0  0  0  0  0  0
  144.5571  135.8212  150.0399 H   0  0  0  0  0  0  0  0  0  0  0  0
  146.2848  135.7915  150.3860 H   0  0  0  0  0  0  0  0  0  0  0  0
  145.1313  136.2250  151.6578 H   0  0  0  0  0  0  0  0  0  0  0  0
  143.5278  133.6924  149.8972 H   0  0  0  0  0  0  0  0  0  0  0  0
  143.3847  131.2918  150.5824 H   0  0  0  0  0  0  0  0  0  0  0  0
  145.0167  130.4374  152.2854 H   0  0  0  0  0  0  0  0  0  0  0  0
  147.4304  135.1201  152.0991 H   0  0  0  0  0  0  0  0  0  0  0  0
  148.5408  136.1068  153.3802 H   0  0  0  0  0  0  0  0  0  0  0  0
  148.7489  135.0929  156.1540 H   0  0  0  0  0  0  0  0  0  0  0  0
  150.0298  135.8986  155.2959 H   0  0  0  0  0  0  0  0  0  0  0  0
  147.3914  137.2923  155.9290 H   0  0  0  0  0  0  0  0  0  0  0  0
  148.4298  138.4574  154.1482 H   0  0  0  0  0  0  0  0  0  0  0  0
  147.8367  140.2743  155.6029 H   0  0  0  0  0  0  0  0  0  0  0  0
  149.0763  139.8204  156.7749 H   0  0  0  0  0  0  0  0  0  0  0  0
  149.4286  141.3193  154.2163 H   0  0  0  0  0  0  0  0  0  0  0  0
  150.4437  141.3194  155.6608 H   0  0  0  0  0  0  0  0  0  0  0  0
  151.0384  138.2673  155.7223 H   0  0  0  0  0  0  0  0  0  0  0  0
  150.7524  137.6941  154.0748 H   0  0  0  0  0  0  0  0  0  0  0  0
  150.7631  136.7043  157.4513 H   0  0  0  0  0  0  0  0  0  0  0  0
  150.6787  138.4108  157.0710 H   0  0  0  0  0  0  0  0  0  0  0  0
  151.5581  138.0049  159.3785 H   0  0  0  0  0  0  0  0  0  0  0  0
  150.0845  138.9563  159.4122 H   0  0  0  0  0  0  0  0  0  0  0  0
  148.0828  136.0882  160.4373 H   0  0  0  0  0  0  0  0  0  0  0  0
  147.9815  137.7965  160.0505 H   0  0  0  0  0  0  0  0  0  0  0  0
  147.1425  136.4480  158.1380 H   0  0  0  0  0  0  0  0  0  0  0  0
  148.6222  135.5147  158.1166 H   0  0  0  0  0  0  0  0  0  0  0  0
  1  2  1  0  0  0  0
  1 25  1  0  0  0  0
  1 26  1  0  0  0  0
  1 27  1  0  0  0  0
  2  7  1  0  0  0  0
  2  3  2  0  0  0  0
  3  4  1  0  0  0  0
  3 28  1  0  0  0  0
  4  5  2  0  0  0  0
  4 29  1  0  0  0  0
  5  6  1  0  0  0  0
  5 30  1  0  0  0  0
  6  7  2  0  0  0  0
  7  8  1  0  0  0  0
  8  9  1  0  0  0  0
  8 31  1  0  0  0  0
  9 10  2  0  0  0  0
  9 11  1  0  0  0  0
 11 12  1  0  0  0  0
 11 32  1  0  0  0  0
 12 13  1  0  0  0  0
 12 33  1  0  0  0  0
 12 34  1  0  0  0  0
 13 14  1  0  0  0  0
 13 19  1  0  0  0  0
 13 35  1  0  0  0  0
 14 18  1  0  0  0  0
 14 15  1  0  0  0  0
 14 36  1  0  0  0  0
 15 16  1  0  0  0  0
 15 37  1  0  0  0  0
 15 38  1  0  0  0  0
 16 17  1  0  0  0  0
 16 39  1  0  0  0  0
 16 40  1  0  0  0  0
 17 18  1  0  0  0  0
 18 41  1  0  0  0  0
 18 42  1  0  0  0  0
 19 24  1  0  0  0  0
 19 20  1  0  0  0  0
 20 21  1  0  0  0  0
 20 43  1  0  0  0  0
 20 44  1  0  0  0  0
 21 22  1  0  0  0  0
 21 45  1  0  0  0  0
 21 46  1  0  0  0  0
 22 23  1  0  0  0  0
 23 24  1  0  0  0  0
 23 47  1  0  0  0  0
 23 48  1  0  0  0  0
 24 49  1  0  0  0  0
 24 50  1  0  0  0  0
M  END
> <s_m_source_file>
AV-unprocessed.smi

> <i_m_source_file_index>
1734

> <i_lp_mmshare_version>
43012

> <i_f3d_flags>
0

> <s_epik_input>
W0NIM11jMVtjSF1bY0hdW2NIXW5jMVtOSF1DKD1PKVtOSF1bQ0gyXVtDQEhdKFtDQEBIXTJbQ0gyXVtDSDJdT1tDSDJdMilOM1tDSDJdW0NIMl1PW0NIMl1bQ0gyXTM=

> <s_epik_cmdline>
J2VwaWtfcHl0aG9uJywgJy1waCcsICc3LjAnLCAnLXRuJywgJzgnLCAnLW1hJywgJzIwMCcsICctbWV0YWxfYmluZGluZycsICctaW1hZScsICc8aW5maWxlLm1hZT4nLCAnLW9tYWUnLCAnPG91dGZpbGUubWFlPic=

> <r_epik_Ionization_Penalty>
0.125073

> <r_epik_Ionization_Penalty_Charging>
0

> <r_epik_Ionization_Penalty_Neutral>
0.125073

> <r_epik_State_Penalty>
0.114484

> <r_epik_Charging_Adjusted_Penalty>
0.114484

> <i_epik_Tot_Q>
0

> <i_epik_Tot_abs_Q>
0

> <r_epik_Metal_State_Penalty>
0.114483

> <b_epik_Metal_Only>
0

> <s_lp_Force_Field>
OPLS_2005

> <r_lp_Energy>
51.317

> <b_lp_Chiralities_Consistent>
1

> <s_lp_Variant>
AV-unprocessed.smi:1734-3

> <Gold.Version>
5.8.1

> <Gold.Id.Protein>
6NUR|6NUR_protein|mol2

> <Gold.PLP.Fitness>
42.1462

> <Gold.PLP.PLP>
-32.0852

> <Gold.PLP.part.hbond>
-4.0924

> <Gold.PLP.part.metal>
0.0000

> <Gold.PLP.part.buried>
-4.5528

> <Gold.PLP.part.nonpolar>
-23.9696

> <Gold.PLP.part.repulsive>
0.2944

> <Gold.PLP.ligand.clash>
0.0000

> <Gold.PLP.ligand.torsion>
0.6580

> <Gold.PLP.Chemscore.Hbond>
3.7048

> <Gold.PLP.Chemscore.CHOScore>
0.0000

> <Gold.PLP.Chemscore.Metal>
0.0000

> <Gold.Chemscore.Hbonds>
donor molecule, donor type, donor heavy atom, donor atom, acceptor molecule, acceptor atom, score
      L1  H     8    31       P1  7948  0.83
      L1  H    11    32       P1  7948  0.96
      P1  H  6896  6909       L1    22  0.37
      P1  H  7989  7998       L1    17  0.85

> <Gold.PLP.Chemscore.Internal.Correction>
0.2625

> <Gold.Rescore>
     Score         DG    S(hbond)    S(metal)    S(lipo)     H(rot)  DE(clash)    DE(int)     intcor
     18.98     -20.04       3.19        0.00      69.33       1.65       0.16       0.90       ----

> <Gold.Chemscore.Fitness>
18.9760

> <Gold.Chemscore.DG>
-20.0359

> <Gold.Chemscore.ZeroCoef>
-5.4800

> <Gold.Chemscore.Hbond>
3.1926

> <Gold.Chemscore.Metal>
0.0000

> <Gold.Chemscore.Lipo>
69.3289

> <Gold.Chemscore.Internal_Hbond>
0.0000

> <Gold.Chemscore.DEClash>
0.1596

> <Gold.Chemscore.DEInternal>
0.9003

> <Gold.Chemscore.Rot>
1.6480

> <Gold.Chemscore.Internal.Correction>
   9.000000E+99

> <Gold.Chemscore.Hbonds>
donor molecule, donor type, donor heavy atom, donor atom, acceptor molecule, acceptor atom, score
      L1  H     8    31       P1  7948  0.80
      L1  H    11    32       P1  7948  0.89
      P1  H  6896  6909       L1    22  0.23
      P1  H  7989  7998       L1    17  0.15

> <Gold.Chemscore.Hbond.Weighted>
-10.6633

> <Gold.Chemscore.Metal.Weighted>
-0.0000

> <Gold.Chemscore.Lipo.Weighted>
-8.1115

> <Gold.Chemscore.Internal_Hbond.Weighted>
0.0000

> <Gold.Chemscore.DEClash.Weighted>
0.1596

> <Gold.Chemscore.DEInternal.Weighted>
0.9003

> <Gold.Chemscore.Rot.Weighted>
4.2188

> <Gold.Chemscore.Internal.Correction.Weighted>
   9.000000E+99

> <Gold.Protein.RotatedTorsions>
[ 6907 6896 6895 6894 ] final   78.73 input  -60.11 | X-H torsion
[ 7974 7965 7964 7962 ] final    8.03 input  175.53 | X-H torsion
[ 8008 7997 7996 7995 ] final  168.74 input   59.86 | X-H torsion
[ 10167 10162 10161 10158 ] final -153.85 input  -65.29 | X-H torsion
[ 10718 10713 10712 10709 ] final  -62.47 input   66.30 | X-H torsion
[ 10763 10752 10751 10750 ] final   12.08 input  -60.55 | X-H torsion
[ 11005 11000 10999 10996 ] final  -41.89 input  -57.11 | X-H torsion

> <Gold.Protein.ActiveResidues>
 VAL166  LYS551  ARG553  GLY616  TRP617  ASP618  TYR619  PRO620  LYS621  CYS622 
 ASP623  PHE694  ASN695  SER759  ASP760  ASP761  ALA762  ILE779  LEU786  VAL792 
 PHE793  MET794  SER795  GLU796  ALA797  LYS798  CYS799  TRP800  GLU811  SER814 

> <Gold.Protein.RotatedAtoms>
  152.5171  134.3620  159.9287 H   0  0  0  0  0  0  0  0  0  0  0  0  # atno 6907 bound_to 6896
  151.3572  133.3896  159.2694 H   0  0  0  0  0  0  0  0  0  0  0  0  # atno 6908 bound_to 6896
  150.9680  134.9076  159.7829 H   0  0  0  0  0  0  0  0  0  0  0  0  # atno 6909 bound_to 6896
  146.2421  139.9995  142.8417 H   0  0  0  0  0  0  0  0  0  0  0  0  # atno 7974 bound_to 7965
  156.1520  140.1582  156.8754 H   0  0  0  0  0  0  0  0  0  0  0  0  # atno 8008 bound_to 7997
  154.5080  140.0808  156.7970 H   0  0  0  0  0  0  0  0  0  0  0  0  # atno 8009 bound_to 7997
  155.3877  140.3408  155.4252 H   0  0  0  0  0  0  0  0  0  0  0  0  # atno 8010 bound_to 7997
  139.7062  143.9183  152.2449 H   0  0  0  0  0  0  0  0  0  0  0  0  # atno 10167 bound_to 10162
  156.0853  130.4209  150.1140 H   0  0  0  0  0  0  0  0  0  0  0  0  # atno 10718 bound_to 10713
  153.1859  135.6835  153.8416 H   0  0  0  0  0  0  0  0  0  0  0  0  # atno 10763 bound_to 10752
  153.7732  135.3193  155.3356 H   0  0  0  0  0  0  0  0  0  0  0  0  # atno 10764 bound_to 10752
  154.8088  135.4731  154.0559 H   0  0  0  0  0  0  0  0  0  0  0  0  # atno 10765 bound_to 10752
  141.0278  133.6833  156.2520 H   0  0  0  0  0  0  0  0  0  0  0  0  # atno 11005 bound_to 11000
  145.1428  140.9581  143.4478 LP  0  0  0  0  0  0  0  0  0  0  0  0  # atno 17320 bound_to 7965
  145.0279  139.3366  143.6039 LP  0  0  0  0  0  0  0  0  0  0  0  0  # atno 17321 bound_to 7965
  139.9039  144.6896  150.8635 LP  0  0  0  0  0  0  0  0  0  0  0  0  # atno 17342 bound_to 10162
  140.7722  143.3493  151.2046 LP  0  0  0  0  0  0  0  0  0  0  0  0  # atno 17343 bound_to 10162
  156.9163  130.9668  151.3555 LP  0  0  0  0  0  0  0  0  0  0  0  0  # atno 17370 bound_to 10713
  157.5985  130.8495  149.8765 LP  0  0  0  0  0  0  0  0  0  0  0  0  # atno 17371 bound_to 10713
  140.6461  134.5116  157.5574 LP  0  0  0  0  0  0  0  0  0  0  0  0  # atno 17394 bound_to 11000
  139.9187  134.8192  156.1280 LP  0  0  0  0  0  0  0  0  0  0  0  0  # atno 17395 bound_to 11000

$$$$
