AV-unprocessed.smi:2194|AV-procd|sdf|8903|dock8
  -GOLD-   2272012113D 1   1.00000     0.00000
 Structure written by MMmdl.
 45 47  0  0  0  0  0  0  0  0  1 V2000
  151.8048  144.6470  157.8468 C   0  0  0  0  0  0  0  0  0  0  0  0
  152.4432  143.8234  158.9462 C   0  0  0  0  0  0  0  0  0  0  0  0
  153.2109  142.6859  158.6274 C   0  0  0  0  0  0  0  0  0  0  0  0
  153.8037  141.9240  159.6526 C   0  0  0  0  0  0  0  0  0  0  0  0
  153.6422  142.2839  161.0064 C   0  0  0  0  0  0  0  0  0  0  0  0
  154.2568  141.4823  161.9444 O   0  0  0  0  0  0  0  0  0  0  0  0
  154.5026  140.1228  161.6103 C   0  0  0  0  0  0  0  0  0  0  0  0
  155.2639  139.4534  162.7640 C   0  0  1  0  0  0  0  0  0  0  0  0
  155.7789  138.2208  162.3006 O   0  0  0  0  0  0  0  0  0  0  0  0
  156.4011  140.3407  163.3103 C   0  0  0  0  0  0  0  0  0  0  0  0
  156.3277  140.5193  164.7528 N   0  0  0  0  0  0  0  0  0  0  0  0
  156.3796  139.5374  165.6754 C   0  0  0  0  0  0  0  0  0  0  0  0
  156.3020  139.9360  166.9452 N   0  0  0  0  0  0  0  0  0  0  0  0
  156.1881  141.3157  166.8114 C   0  0  0  0  0  0  0  0  0  0  0  0
  156.2000  141.6857  165.5071 C   0  0  0  0  0  0  0  0  0  0  0  0
  156.1036  143.0841  165.0740 C   0  0  0  0  0  0  0  0  0  0  0  0
  156.1255  143.3919  163.8815 O   0  0  0  0  0  0  0  0  0  0  0  0
  155.9976  143.9804  166.1043 N   0  0  0  0  0  0  0  0  0  0  0  0
  155.9033  145.4042  165.7290 C   0  0  0  0  0  0  0  0  0  0  0  0
  156.0077  143.6528  167.4499 C   0  0  0  0  0  0  0  0  0  0  0  0
  155.9594  144.5221  168.3245 O   0  0  0  0  0  0  0  0  0  0  0  0
  156.0791  142.3273  167.8002 N   0  0  0  0  0  0  0  0  0  0  0  0
  156.0713  141.9421  169.2144 C   0  0  0  0  0  0  0  0  0  0  0  0
  152.8711  143.4319  161.3199 C   0  0  0  0  0  0  0  0  0  0  0  0
  152.2772  144.1942  160.2951 C   0  0  0  0  0  0  0  0  0  0  0  0
  151.6220  144.0398  156.9597 H   0  0  0  0  0  0  0  0  0  0  0  0
  152.4581  145.4743  157.5689 H   0  0  0  0  0  0  0  0  0  0  0  0
  150.8500  145.0587  158.1761 H   0  0  0  0  0  0  0  0  0  0  0  0
  153.3481  142.3934  157.5965 H   0  0  0  0  0  0  0  0  0  0  0  0
  154.3896  141.0533  159.3967 H   0  0  0  0  0  0  0  0  0  0  0  0
  153.5500  139.6129  161.4556 H   0  0  0  0  0  0  0  0  0  0  0  0
  155.0805  140.0479  160.6874 H   0  0  0  0  0  0  0  0  0  0  0  0
  154.5626  139.2278  163.5685 H   0  0  0  0  0  0  0  0  0  0  0  0
  155.6087  138.1538  161.3734 H   0  0  0  0  0  0  0  0  0  0  0  0
  157.3767  139.9387  163.0407 H   0  0  0  0  0  0  0  0  0  0  0  0
  156.3505  141.3276  162.8488 H   0  0  0  0  0  0  0  0  0  0  0  0
  156.4821  138.4962  165.4067 H   0  0  0  0  0  0  0  0  0  0  0  0
  155.4627  146.0372  166.5001 H   0  0  0  0  0  0  0  0  0  0  0  0
  155.2807  145.5558  164.8454 H   0  0  0  0  0  0  0  0  0  0  0  0
  156.8971  145.7962  165.5088 H   0  0  0  0  0  0  0  0  0  0  0  0
  155.2067  142.3663  169.7271 H   0  0  0  0  0  0  0  0  0  0  0  0
  156.9733  142.3019  169.7109 H   0  0  0  0  0  0  0  0  0  0  0  0
  156.0274  140.8624  169.3568 H   0  0  0  0  0  0  0  0  0  0  0  0
  152.7202  143.7506  162.3400 H   0  0  0  0  0  0  0  0  0  0  0  0
  151.6931  145.0667  160.5492 H   0  0  0  0  0  0  0  0  0  0  0  0
  1  2  1  0  0  0  0
  1 26  1  0  0  0  0
  1 27  1  0  0  0  0
  1 28  1  0  0  0  0
  2 25  1  0  0  0  0
  2  3  2  0  0  0  0
  3  4  1  0  0  0  0
  3 29  1  0  0  0  0
  4  5  2  0  0  0  0
  4 30  1  0  0  0  0
  5  6  1  0  0  0  0
  5 24  1  0  0  0  0
  6  7  1  0  0  0  0
  7  8  1  0  0  0  0
  7 31  1  0  0  0  0
  7 32  1  0  0  0  0
  8  9  1  0  0  0  0
  8 10  1  0  0  0  0
  8 33  1  0  0  0  0
  9 34  1  0  0  0  0
 10 11  1  0  0  0  0
 10 35  1  0  0  0  0
 10 36  1  0  0  0  0
 11 15  1  0  0  0  0
 11 12  1  0  0  0  0
 12 13  2  0  0  0  0
 12 37  1  0  0  0  0
 13 14  1  0  0  0  0
 14 22  1  0  0  0  0
 14 15  2  0  0  0  0
 15 16  1  0  0  0  0
 16 17  2  0  0  0  0
 16 18  1  0  0  0  0
 18 19  1  0  0  0  0
 18 20  1  0  0  0  0
 19 38  1  0  0  0  0
 19 39  1  0  0  0  0
 19 40  1  0  0  0  0
 20 21  2  0  0  0  0
 20 22  1  0  0  0  0
 22 23  1  0  0  0  0
 23 41  1  0  0  0  0
 23 42  1  0  0  0  0
 23 43  1  0  0  0  0
 24 25  2  0  0  0  0
 24 44  1  0  0  0  0
 25 45  1  0  0  0  0
M  END
> <s_m_source_file>
AV-unprocessed.smi

> <i_m_source_file_index>
2194

> <i_lp_mmshare_version>
43012

> <i_f3d_flags>
0

> <s_epik_input>
W0NIM11jMVtjSF1bY0hdYyhbY0hdW2NIXTEpT1tDSDJdW0NASF0oW09IXSlbQ0gyXW4oW2NIXW4yKWMoYzIzKWMoPU8pbihbQ0gzXSljKD1PKW4zW0NIM10=

> <s_epik_cmdline>
J2VwaWtfcHl0aG9uJywgJy1waCcsICc3LjAnLCAnLXRuJywgJzgnLCAnLW1hJywgJzIwMCcsICctbWV0YWxfYmluZGluZycsICctaW1hZScsICc8aW5maWxlLm1hZT4nLCAnLW9tYWUnLCAnPG91dGZpbGUubWFlPic=

> <r_lp_tautomer_probability>
1

> <r_epik_Ionization_Penalty>
1.06124e-06

> <r_epik_Ionization_Penalty_Charging>
3.25921e-09

> <r_epik_Ionization_Penalty_Neutral>
1.05798e-06

> <r_epik_State_Penalty>
-0

> <r_epik_Charging_Adjusted_Penalty>
3.25921e-09

> <i_epik_Tot_Q>
0

> <i_epik_Tot_abs_Q>
0

> <r_epik_Metal_State_Penalty>
-0

> <b_epik_Metal_Only>
0

> <s_lp_Force_Field>
OPLS_2005

> <r_lp_Energy>
38.6758

> <b_lp_Chiralities_Consistent>
1

> <s_lp_Variant>
AV-unprocessed.smi:2194-2

> <Gold.Version>
5.8.1

> <Gold.Id.Protein>
6NUR|6NUR_protein|mol2

> <Gold.PLP.Fitness>
56.4550

> <Gold.PLP.PLP>
-58.8169

> <Gold.PLP.part.hbond>
-2.4038

> <Gold.PLP.part.metal>
0.0000

> <Gold.PLP.part.buried>
-6.6431

> <Gold.PLP.part.nonpolar>
-48.7574

> <Gold.PLP.part.repulsive>
0.2868

> <Gold.PLP.ligand.clash>
0.0000

> <Gold.PLP.ligand.torsion>
1.1899

> <Gold.PLP.Chemscore.Hbond>
0.0000

> <Gold.PLP.Chemscore.CHOScore>
0.0000

> <Gold.PLP.Chemscore.Metal>
0.0000

> <Gold.PLP.Chemscore.Internal.Correction>
0.0179

> <Gold.Rescore>
     Score         DG    S(hbond)    S(metal)    S(lipo)     H(rot)  DE(clash)    DE(int)     intcor
     10.83     -13.28       0.00        0.00     125.47       2.69       1.43       1.02       ----

> <Gold.Chemscore.Fitness>
10.8306

> <Gold.Chemscore.DG>
-13.2771

> <Gold.Chemscore.ZeroCoef>
-5.4800

> <Gold.Chemscore.Hbond>
0.0000

> <Gold.Chemscore.Metal>
0.0000

> <Gold.Chemscore.Lipo>
125.4664

> <Gold.Chemscore.Internal_Hbond>
0.0000

> <Gold.Chemscore.DEClash>
1.4255

> <Gold.Chemscore.DEInternal>
1.0210

> <Gold.Chemscore.Rot>
2.6885

> <Gold.Chemscore.Internal.Correction>
   9.000000E+99

> <Gold.Chemscore.Hbond.Weighted>
-0.0000

> <Gold.Chemscore.Metal.Weighted>
-0.0000

> <Gold.Chemscore.Lipo.Weighted>
-14.6796

> <Gold.Chemscore.Internal_Hbond.Weighted>
0.0000

> <Gold.Chemscore.DEClash.Weighted>
1.4255

> <Gold.Chemscore.DEInternal.Weighted>
1.0210

> <Gold.Chemscore.Rot.Weighted>
6.8825

> <Gold.Chemscore.Internal.Correction.Weighted>
   9.000000E+99

> <Gold.Protein.RotatedTorsions>
[ 6907 6896 6895 6894 ] final  -76.17 input  -60.11 | X-H torsion
[ 7974 7965 7964 7962 ] final -174.31 input  175.53 | X-H torsion
[ 8008 7997 7996 7995 ] final  114.20 input   59.86 | X-H torsion
[ 10167 10162 10161 10158 ] final   76.29 input  -65.29 | X-H torsion
[ 10718 10713 10712 10709 ] final   72.02 input   66.30 | X-H torsion
[ 10763 10752 10751 10750 ] final -103.05 input  -60.55 | X-H torsion
[ 11005 11000 10999 10996 ] final  -35.72 input  -57.11 | X-H torsion

> <Gold.Protein.ActiveResidues>
 VAL166  LYS551  ARG553  GLY616  TRP617  ASP618  TYR619  PRO620  LYS621  CYS622 
 ASP623  PHE694  ASN695  SER759  ASP760  ASP761  ALA762  ILE779  LEU786  VAL792 
 PHE793  MET794  SER795  GLU796  ALA797  LYS798  CYS799  TRP800  GLU811  SER814 

> <Gold.Protein.RotatedAtoms>
  150.7036  134.4613  159.5381 H   0  0  0  0  0  0  0  0  0  0  0  0  # atno 6907 bound_to 6896
  152.2287  134.8340  160.0485 H   0  0  0  0  0  0  0  0  0  0  0  0  # atno 6908 bound_to 6896
  151.9164  133.3539  159.3918 H   0  0  0  0  0  0  0  0  0  0  0  0  # atno 6909 bound_to 6896
  144.7132  140.1491  143.6385 H   0  0  0  0  0  0  0  0  0  0  0  0  # atno 7974 bound_to 7965
  156.2306  140.2964  156.0178 H   0  0  0  0  0  0  0  0  0  0  0  0  # atno 8008 bound_to 7997
  155.2236  140.0416  157.2969 H   0  0  0  0  0  0  0  0  0  0  0  0  # atno 8009 bound_to 7997
  154.5989  140.2421  155.7827 H   0  0  0  0  0  0  0  0  0  0  0  0  # atno 8010 bound_to 7997
  139.9938  144.5737  150.7795 H   0  0  0  0  0  0  0  0  0  0  0  0  # atno 10167 bound_to 10162
  157.6480  130.9557  150.0870 H   0  0  0  0  0  0  0  0  0  0  0  0  # atno 10718 bound_to 10713
  154.7779  135.4838  153.9782 H   0  0  0  0  0  0  0  0  0  0  0  0  # atno 10763 bound_to 10752
  153.1453  135.6780  153.8971 H   0  0  0  0  0  0  0  0  0  0  0  0  # atno 10764 bound_to 10752
  153.8633  135.3152  155.3417 H   0  0  0  0  0  0  0  0  0  0  0  0  # atno 10765 bound_to 10752
  140.9818  133.7052  156.1697 H   0  0  0  0  0  0  0  0  0  0  0  0  # atno 11005 bound_to 11000
  145.9133  139.2500  143.1425 LP  0  0  0  0  0  0  0  0  0  0  0  0  # atno 17320 bound_to 7965
  145.9694  140.8772  143.0170 LP  0  0  0  0  0  0  0  0  0  0  0  0  # atno 17321 bound_to 7965
  140.7445  143.2861  151.3460 LP  0  0  0  0  0  0  0  0  0  0  0  0  # atno 17342 bound_to 10162
  139.6320  144.0702  152.2484 LP  0  0  0  0  0  0  0  0  0  0  0  0  # atno 17343 bound_to 10162
  156.1830  130.3651  149.9010 LP  0  0  0  0  0  0  0  0  0  0  0  0  # atno 17370 bound_to 10713
  156.6957  130.8913  151.3593 LP  0  0  0  0  0  0  0  0  0  0  0  0  # atno 17371 bound_to 10713
  140.7174  134.4395  157.5577 LP  0  0  0  0  0  0  0  0  0  0  0  0  # atno 17394 bound_to 11000
  139.8953  134.8685  156.2136 LP  0  0  0  0  0  0  0  0  0  0  0  0  # atno 17395 bound_to 11000

$$$$
