AV-unprocessed.smi:456|AV-procd|sdf|2617|dock10
  -GOLD-   2262023 13D 1   1.00000     0.00000
 Structure written by MMmdl.
 33 35  0  0  0  0  0  0  0  0  2 V2000
  149.1036  142.5446  156.8760 O   0  0  0  0  0  0  0  0  0  0  0  0
  150.3496  141.9862  157.2364 C   0  0  2  0  0  0  0  0  0  0  0  0
  151.3931  143.1206  157.2642 C   0  0  0  0  0  0  0  0  0  0  0  0
  151.4010  143.8492  158.5391 N   0  0  0  0  0  0  0  0  0  0  0  0
  150.7975  145.0201  158.8804 C   0  0  0  0  0  0  0  0  0  0  0  0
  151.1151  145.2820  160.1788 N   0  3  0  0  0  0  0  0  0  0  0  0
  151.9312  144.2622  160.6743 C   0  0  0  0  0  0  0  0  0  0  0  0
  152.5063  144.0809  161.9280 C   0  0  0  0  0  0  0  0  0  0  0  0
  153.2931  142.9236  162.1048 C   0  0  0  0  0  0  0  0  0  0  0  0
  153.8758  142.6982  163.3061 F   0  0  0  0  0  0  0  0  0  0  0  0
  153.4847  141.9988  161.0560 C   0  0  0  0  0  0  0  0  0  0  0  0
  154.2491  140.9014  161.2677 F   0  0  0  0  0  0  0  0  0  0  0  0
  152.8959  142.1933  159.7890 C   0  0  0  0  0  0  0  0  0  0  0  0
  152.1192  143.3389  159.6249 C   0  0  0  0  0  0  0  0  0  0  0  0
  150.7603  140.8482  156.3123 C   0  0  0  0  0  0  0  0  0  0  0  0
  149.9150  140.4365  155.2583 C   0  0  0  0  0  0  0  0  0  0  0  0
  150.3091  139.3926  154.3989 C   0  0  0  0  0  0  0  0  0  0  0  0
  151.5512  138.7565  154.5861 C   0  0  0  0  0  0  0  0  0  0  0  0
  152.3996  139.1652  155.6329 C   0  0  0  0  0  0  0  0  0  0  0  0
  152.0054  140.2082  156.4932 C   0  0  0  0  0  0  0  0  0  0  0  0
  149.2507  143.4176  156.5446 H   0  0  0  0  0  0  0  0  0  0  0  0
  150.2266  141.5881  158.2444 H   0  0  0  0  0  0  0  0  0  0  0  0
  152.3967  142.7249  157.1016 H   0  0  0  0  0  0  0  0  0  0  0  0
  151.2116  143.8395  156.4639 H   0  0  0  0  0  0  0  0  0  0  0  0
  150.1844  145.6334  158.2353 H   0  0  0  0  0  0  0  0  0  0  0  0
  152.3634  144.7864  162.7332 H   0  0  0  0  0  0  0  0  0  0  0  0
  153.0487  141.4801  158.9927 H   0  0  0  0  0  0  0  0  0  0  0  0
  148.9623  140.9218  155.1037 H   0  0  0  0  0  0  0  0  0  0  0  0
  149.6583  139.0807  153.5953 H   0  0  0  0  0  0  0  0  0  0  0  0
  151.8531  137.9559  153.9269 H   0  0  0  0  0  0  0  0  0  0  0  0
  153.3531  138.6785  155.7758 H   0  0  0  0  0  0  0  0  0  0  0  0
  152.6652  140.5182  157.2903 H   0  0  0  0  0  0  0  0  0  0  0  0
  150.7962  146.0978  160.6861 H   0  0  0  0  0  0  0  0  0  0  0  0
  1  2  1  0  0  0  0
  1 21  1  0  0  0  0
  2  3  1  0  0  0  0
  2 15  1  0  0  0  0
  2 22  1  0  0  0  0
  3  4  1  0  0  0  0
  3 23  1  0  0  0  0
  3 24  1  0  0  0  0
  4 14  1  0  0  0  0
  4  5  1  0  0  0  0
  5  6  2  0  0  0  0
  5 25  1  0  0  0  0
  6  7  1  0  0  0  0
  6 33  1  0  0  0  0
  7 14  2  0  0  0  0
  7  8  1  0  0  0  0
  8  9  2  0  0  0  0
  8 26  1  0  0  0  0
  9 10  1  0  0  0  0
  9 11  1  0  0  0  0
 11 12  1  0  0  0  0
 11 13  2  0  0  0  0
 13 14  1  0  0  0  0
 13 27  1  0  0  0  0
 15 20  1  0  0  0  0
 15 16  2  0  0  0  0
 16 17  1  0  0  0  0
 16 28  1  0  0  0  0
 17 18  2  0  0  0  0
 17 29  1  0  0  0  0
 18 19  1  0  0  0  0
 18 30  1  0  0  0  0
 19 20  2  0  0  0  0
 19 31  1  0  0  0  0
 20 32  1  0  0  0  0
M  CHG  1   6   1
M  END
> <s_m_source_file>
AV-unprocessed.smi

> <i_m_source_file_index>
456

> <i_lp_mmshare_version>
43012

> <i_f3d_flags>
0

> <s_epik_input>
W2NIXTFbY0hdW2NIXVtjSF1bY0hdYzFbQ0BIXShbT0hdKVtDSDJdbihbY0hdbjIpYyhjMjMpW2NIXWMoRiljKEYpW2NIXTM=

> <s_epik_cmdline>
J2VwaWtfcHl0aG9uJywgJy1waCcsICc3LjAnLCAnLXRuJywgJzgnLCAnLW1hJywgJzIwMCcsICctbWV0YWxfYmluZGluZycsICctaW1hZScsICc8aW5maWxlLm1hZT4nLCAnLW9tYWUnLCAnPG91dGZpbGUubWFlPic=

> <r_epik_Ionization_Penalty>
2.16139

> <r_epik_Ionization_Penalty_Charging>
2.16138

> <r_epik_Ionization_Penalty_Neutral>
1.34362e-06

> <r_epik_State_Penalty>
2.30198

> <r_epik_Charging_Adjusted_Penalty>
4.46337

> <i_epik_Tot_Q>
1

> <i_epik_Tot_abs_Q>
1

> <r_epik_Metal_State_Penalty>
6.38245

> <b_epik_Metal_Only>
0

> <s_lp_Force_Field>
OPLS_2005

> <r_lp_Energy>
16.094

> <b_lp_Chiralities_Consistent>
1

> <s_lp_Variant>
AV-unprocessed.smi:456-3

> <Gold.Version>
5.8.1

> <Gold.Id.Protein>
6NUR|6NUR_protein|mol2

> <Gold.PLP.Fitness>
61.7655

> <Gold.PLP.PLP>
-57.0529

> <Gold.PLP.part.hbond>
-0.6450

> <Gold.PLP.part.metal>
0.0000

> <Gold.PLP.part.buried>
-6.1689

> <Gold.PLP.part.nonpolar>
-50.7049

> <Gold.PLP.part.repulsive>
0.1880

> <Gold.PLP.ligand.clash>
0.0000

> <Gold.PLP.ligand.torsion>
0.6504

> <Gold.PLP.Chemscore.Hbond>
1.0000

> <Gold.PLP.Chemscore.CHOScore>
1.0000

> <Gold.PLP.Chemscore.Metal>
0.0000

> <Gold.Chemscore.Hbonds>
donor molecule, donor type, donor heavy atom, donor atom, acceptor molecule, acceptor atom, score
      L1  H     1    21       P1  8028  1.00
      L1  C     5    25       P1  8029  1.00

> <Gold.PLP.Chemscore.Internal.Correction>
0.0133

> <Gold.Rescore>
     Score         DG    S(hbond)    S(metal)    S(lipo)     H(rot)  DE(clash)    DE(int)     intcor
     17.90     -18.62       0.97        0.00     129.09       2.03       0.03       0.70       ----

> <Gold.Chemscore.Fitness>
17.8956

> <Gold.Chemscore.DG>
-18.6237

> <Gold.Chemscore.ZeroCoef>
-5.4800

> <Gold.Chemscore.Hbond>
0.9656

> <Gold.Chemscore.Metal>
0.0000

> <Gold.Chemscore.Lipo>
129.0945

> <Gold.Chemscore.Internal_Hbond>
0.0000

> <Gold.Chemscore.DEClash>
0.0310

> <Gold.Chemscore.DEInternal>
0.6971

> <Gold.Chemscore.Rot>
2.0256

> <Gold.Chemscore.Internal.Correction>
   9.000000E+99

> <Gold.Chemscore.Hbonds>
donor molecule, donor type, donor heavy atom, donor atom, acceptor molecule, acceptor atom, score
      L1  H     1    21       P1  8028  0.96

> <Gold.Chemscore.Hbond.Weighted>
-3.2251

> <Gold.Chemscore.Metal.Weighted>
-0.0000

> <Gold.Chemscore.Lipo.Weighted>
-15.1041

> <Gold.Chemscore.Internal_Hbond.Weighted>
0.0000

> <Gold.Chemscore.DEClash.Weighted>
0.0310

> <Gold.Chemscore.DEInternal.Weighted>
0.6971

> <Gold.Chemscore.Rot.Weighted>
5.1855

> <Gold.Chemscore.Internal.Correction.Weighted>
   9.000000E+99

> <Gold.Protein.RotatedTorsions>
[ 6907 6896 6895 6894 ] final    6.37 input  -60.11 | X-H torsion
[ 7974 7965 7964 7962 ] final   17.81 input  175.53 | X-H torsion
[ 8008 7997 7996 7995 ] final  112.77 input   59.86 | X-H torsion
[ 10167 10162 10161 10158 ] final -107.13 input  -65.29 | X-H torsion
[ 10718 10713 10712 10709 ] final -157.27 input   66.30 | X-H torsion
[ 10763 10752 10751 10750 ] final   55.71 input  -60.55 | X-H torsion
[ 11005 11000 10999 10996 ] final   53.55 input  -57.11 | X-H torsion

> <Gold.Protein.ActiveResidues>
 VAL166  LYS551  ARG553  GLY616  TRP617  ASP618  TYR619  PRO620  LYS621  CYS622 
 ASP623  PHE694  ASN695  SER759  ASP760  ASP761  ALA762  ILE779  LEU786  VAL792 
 PHE793  MET794  SER795  GLU796  ALA797  LYS798  CYS799  TRP800  GLU811  SER814 

> <Gold.Protein.RotatedAtoms>
  151.6727  135.0973  160.0200 H   0  0  0  0  0  0  0  0  0  0  0  0  # atno 6907 bound_to 6896
  152.3882  133.6637  159.6224 H   0  0  0  0  0  0  0  0  0  0  0  0  # atno 6908 bound_to 6896
  150.7803  133.8916  159.3356 H   0  0  0  0  0  0  0  0  0  0  0  0  # atno 6909 bound_to 6896
  146.2206  139.8549  142.8615 H   0  0  0  0  0  0  0  0  0  0  0  0  # atno 7974 bound_to 7965
  156.2214  140.2993  155.9961 H   0  0  0  0  0  0  0  0  0  0  0  0  # atno 8008 bound_to 7997
  155.2471  140.0424  157.2999 H   0  0  0  0  0  0  0  0  0  0  0  0  # atno 8009 bound_to 7997
  154.5846  140.2385  155.8013 H   0  0  0  0  0  0  0  0  0  0  0  0  # atno 8010 bound_to 7997
  140.1803  143.3972  152.1286 H   0  0  0  0  0  0  0  0  0  0  0  0  # atno 10167 bound_to 10162
  156.5380  130.8550  151.2739 H   0  0  0  0  0  0  0  0  0  0  0  0  # atno 10718 bound_to 10713
  152.9821  135.5701  154.5111 H   0  0  0  0  0  0  0  0  0  0  0  0  # atno 10763 bound_to 10752
  154.4615  135.2781  155.1711 H   0  0  0  0  0  0  0  0  0  0  0  0  # atno 10764 bound_to 10752
  154.3297  135.6252  153.5599 H   0  0  0  0  0  0  0  0  0  0  0  0  # atno 10765 bound_to 10752
  140.0758  134.5407  155.8998 H   0  0  0  0  0  0  0  0  0  0  0  0  # atno 11005 bound_to 11000
  145.2764  141.0125  143.3742 LP  0  0  0  0  0  0  0  0  0  0  0  0  # atno 17320 bound_to 7965
  144.9184  139.4442  143.6553 LP  0  0  0  0  0  0  0  0  0  0  0  0  # atno 17321 bound_to 7965
  139.5299  144.7147  151.5094 LP  0  0  0  0  0  0  0  0  0  0  0  0  # atno 17342 bound_to 10162
  140.6524  143.8670  150.6799 LP  0  0  0  0  0  0  0  0  0  0  0  0  # atno 17343 bound_to 10162
  157.7410  130.9862  150.2417 LP  0  0  0  0  0  0  0  0  0  0  0  0  # atno 17370 bound_to 10713
  156.2998  130.3757  149.7761 LP  0  0  0  0  0  0  0  0  0  0  0  0  # atno 17371 bound_to 10713
  141.2029  133.6628  156.6031 LP  0  0  0  0  0  0  0  0  0  0  0  0  # atno 17394 bound_to 11000
  140.3560  134.7728  157.4500 LP  0  0  0  0  0  0  0  0  0  0  0  0  # atno 17395 bound_to 11000

$$$$
