AV-unprocessed.smi:1211|AV-procd|sdf|5078|dock7
  -GOLD-   22720 4123D 1   1.00000     0.00000
 Structure written by MMmdl.
 47 49  0  0  0  0  0  0  0  0  1 V2000
  145.3992  135.5875  150.9229 C   0  0  0  0  0  0  0  0  0  0  0  0
  145.2912  134.0742  151.0198 C   0  0  0  0  0  0  0  0  0  0  0  0
  144.2703  133.4084  150.3086 C   0  0  0  0  0  0  0  0  0  0  0  0
  144.1721  132.0093  150.3983 C   0  0  0  0  0  0  0  0  0  0  0  0
  145.1063  131.3309  151.1997 C   0  0  0  0  0  0  0  0  0  0  0  0
  146.0850  131.9589  151.8825 N   0  0  0  0  0  0  0  0  0  0  0  0
  146.1930  133.3093  151.8075 C   0  0  0  0  0  0  0  0  0  0  0  0
  147.1978  134.0391  152.5027 N   0  0  0  0  0  0  0  0  0  0  0  0
  147.6599  133.8476  153.7508 C   0  0  0  0  0  0  0  0  0  0  0  0
  147.2808  132.9715  154.5285 O   0  0  0  0  0  0  0  0  0  0  0  0
  148.6080  134.7420  154.0555 N   0  0  0  0  0  0  0  0  0  0  0  0
  149.3245  134.7941  155.3259 C   0  0  0  0  0  0  0  0  0  0  0  0
  149.0884  136.1466  156.0722 C   0  0  1  0  0  0  0  0  0  0  0  0
  149.6275  137.2840  155.2647 N   0  0  0  0  0  0  0  0  0  0  0  0
  149.3095  138.6340  155.7521 C   0  0  0  0  0  0  0  0  0  0  0  0
  149.8326  139.7344  154.8122 C   0  0  0  0  0  0  0  0  0  0  0  0
  151.2343  139.5880  154.6302 O   0  0  0  0  0  0  0  0  0  0  0  0
  151.5744  138.3201  154.0857 C   0  0  0  0  0  0  0  0  0  0  0  0
  151.0741  137.2059  155.0194 C   0  0  0  0  0  0  0  0  0  0  0  0
  147.5632  136.2612  156.3610 C   0  0  0  0  0  0  0  0  0  0  0  0
  147.1767  135.2549  157.4510 C   0  0  0  0  0  0  0  0  0  0  0  0
  148.5987  135.0807  158.5543 S   0  0  0  0  0  0  0  0  0  0  0  0
  149.7104  136.0392  157.4880 C   0  0  0  0  0  0  0  0  0  0  0  0
  144.6206  136.0004  150.2810 H   0  0  0  0  0  0  0  0  0  0  0  0
  146.3650  135.8754  150.5064 H   0  0  0  0  0  0  0  0  0  0  0  0
  145.2968  136.0418  151.9086 H   0  0  0  0  0  0  0  0  0  0  0  0
  143.5690  133.9606  149.7003 H   0  0  0  0  0  0  0  0  0  0  0  0
  143.4019  131.4704  149.8667 H   0  0  0  0  0  0  0  0  0  0  0  0
  145.0669  130.2560  151.2956 H   0  0  0  0  0  0  0  0  0  0  0  0
  147.6148  134.7980  151.9845 H   0  0  0  0  0  0  0  0  0  0  0  0
  148.8669  135.4272  153.3607 H   0  0  0  0  0  0  0  0  0  0  0  0
  149.0151  133.9428  155.9317 H   0  0  0  0  0  0  0  0  0  0  0  0
  150.3844  134.6196  155.1415 H   0  0  0  0  0  0  0  0  0  0  0  0
  148.2350  138.7805  155.8288 H   0  0  0  0  0  0  0  0  0  0  0  0
  149.7285  138.7937  156.7448 H   0  0  0  0  0  0  0  0  0  0  0  0
  149.3265  139.6905  153.8465 H   0  0  0  0  0  0  0  0  0  0  0  0
  149.6302  140.7187  155.2342 H   0  0  0  0  0  0  0  0  0  0  0  0
  151.1408  138.2129  153.0902 H   0  0  0  0  0  0  0  0  0  0  0  0
  152.6568  138.2608  153.9715 H   0  0  0  0  0  0  0  0  0  0  0  0
  151.6160  137.2645  155.9641 H   0  0  0  0  0  0  0  0  0  0  0  0
  151.3445  136.2576  154.5605 H   0  0  0  0  0  0  0  0  0  0  0  0
  147.3107  137.2355  156.7727 H   0  0  0  0  0  0  0  0  0  0  0  0
  146.9525  136.1382  155.4661 H   0  0  0  0  0  0  0  0  0  0  0  0
  146.2962  135.5780  158.0064 H   0  0  0  0  0  0  0  0  0  0  0  0
  146.9454  134.2821  157.0172 H   0  0  0  0  0  0  0  0  0  0  0  0
  150.7035  135.5889  157.4771 H   0  0  0  0  0  0  0  0  0  0  0  0
  149.8121  137.0173  157.9552 H   0  0  0  0  0  0  0  0  0  0  0  0
  1  2  1  0  0  0  0
  1 24  1  0  0  0  0
  1 25  1  0  0  0  0
  1 26  1  0  0  0  0
  2  7  1  0  0  0  0
  2  3  2  0  0  0  0
  3  4  1  0  0  0  0
  3 27  1  0  0  0  0
  4  5  2  0  0  0  0
  4 28  1  0  0  0  0
  5  6  1  0  0  0  0
  5 29  1  0  0  0  0
  6  7  2  0  0  0  0
  7  8  1  0  0  0  0
  8  9  1  0  0  0  0
  8 30  1  0  0  0  0
  9 10  2  0  0  0  0
  9 11  1  0  0  0  0
 11 12  1  0  0  0  0
 11 31  1  0  0  0  0
 12 13  1  0  0  0  0
 12 32  1  0  0  0  0
 12 33  1  0  0  0  0
 13 23  1  0  0  0  0
 13 14  1  0  0  0  0
 13 20  1  0  0  0  0
 14 19  1  0  0  0  0
 14 15  1  0  0  0  0
 15 16  1  0  0  0  0
 15 34  1  0  0  0  0
 15 35  1  0  0  0  0
 16 17  1  0  0  0  0
 16 36  1  0  0  0  0
 16 37  1  0  0  0  0
 17 18  1  0  0  0  0
 18 19  1  0  0  0  0
 18 38  1  0  0  0  0
 18 39  1  0  0  0  0
 19 40  1  0  0  0  0
 19 41  1  0  0  0  0
 20 21  1  0  0  0  0
 20 42  1  0  0  0  0
 20 43  1  0  0  0  0
 21 22  1  0  0  0  0
 21 44  1  0  0  0  0
 21 45  1  0  0  0  0
 22 23  1  0  0  0  0
 23 46  1  0  0  0  0
 23 47  1  0  0  0  0
M  END
> <s_m_source_file>
AV-unprocessed.smi

> <i_m_source_file_index>
1211

> <i_lp_mmshare_version>
43012

> <i_f3d_flags>
0

> <s_epik_input>
W0NIM11jMVtjSF1bY0hdW2NIXW5jMVtOSF1DKD1PKVtOSF1bQ0gyXVtDQF0yKFtDSDJdW0NIMl1TW0NIMl0yKU4zW0NIMl1bQ0gyXU9bQ0gyXVtDSDJdMw==

> <s_epik_cmdline>
J2VwaWtfcHl0aG9uJywgJy1waCcsICc3LjAnLCAnLXRuJywgJzgnLCAnLW1hJywgJzIwMCcsICctbWV0YWxfYmluZGluZycsICctaW1hZScsICc8aW5maWxlLm1hZT4nLCAnLW9tYWUnLCAnPG91dGZpbGUubWFlPic=

> <r_epik_Ionization_Penalty>
0.0195636

> <r_epik_Ionization_Penalty_Charging>
0

> <r_epik_Ionization_Penalty_Neutral>
0.0195636

> <r_epik_State_Penalty>
0.0155843

> <r_epik_Charging_Adjusted_Penalty>
0.0155843

> <i_epik_Tot_Q>
0

> <i_epik_Tot_abs_Q>
0

> <r_epik_Metal_State_Penalty>
0.0155842

> <b_epik_Metal_Only>
0

> <s_lp_Force_Field>
OPLS_2005

> <r_lp_Energy>
55.2683

> <b_lp_Chiralities_Consistent>
1

> <s_lp_Variant>
AV-unprocessed.smi:1211-1

> <Gold.Version>
5.8.1

> <Gold.Id.Protein>
6NUR|6NUR_protein|mol2

> <Gold.PLP.Fitness>
41.3422

> <Gold.PLP.PLP>
-33.0220

> <Gold.PLP.part.hbond>
-3.0000

> <Gold.PLP.part.metal>
0.0000

> <Gold.PLP.part.buried>
-6.6225

> <Gold.PLP.part.nonpolar>
-23.5702

> <Gold.PLP.part.repulsive>
0.3429

> <Gold.PLP.ligand.clash>
0.0000

> <Gold.PLP.ligand.torsion>
0.3832

> <Gold.PLP.Chemscore.Hbond>
3.0000

> <Gold.PLP.Chemscore.CHOScore>
0.0000

> <Gold.PLP.Chemscore.Metal>
0.0000

> <Gold.Chemscore.Hbonds>
donor molecule, donor type, donor heavy atom, donor atom, acceptor molecule, acceptor atom, score
      L1  H     8    30       P1  7948  1.00
      L1  H    11    31       P1  7948  1.00
      P1  H  7989  7998       L1    17  1.00

> <Gold.PLP.Chemscore.Internal.Correction>
0.0866

> <Gold.Rescore>
     Score         DG    S(hbond)    S(metal)    S(lipo)     H(rot)  DE(clash)    DE(int)     intcor
     17.10     -17.72       2.08        0.00      76.77       1.44       0.15       0.47       ----

> <Gold.Chemscore.Fitness>
17.0970

> <Gold.Chemscore.DG>
-17.7215

> <Gold.Chemscore.ZeroCoef>
-5.4800

> <Gold.Chemscore.Hbond>
2.0801

> <Gold.Chemscore.Metal>
0.0000

> <Gold.Chemscore.Lipo>
76.7656

> <Gold.Chemscore.Internal_Hbond>
0.0000

> <Gold.Chemscore.DEClash>
0.1509

> <Gold.Chemscore.DEInternal>
0.4736

> <Gold.Chemscore.Rot>
1.4405

> <Gold.Chemscore.Internal.Correction>
   9.000000E+99

> <Gold.Chemscore.Hbonds>
donor molecule, donor type, donor heavy atom, donor atom, acceptor molecule, acceptor atom, score
      L1  H     8    30       P1  7948  0.66
      L1  H    11    31       P1  7948  0.78
      P1  H  7989  7998       L1    17  0.33

> <Gold.Chemscore.Hbond.Weighted>
-6.9475

> <Gold.Chemscore.Metal.Weighted>
-0.0000

> <Gold.Chemscore.Lipo.Weighted>
-8.9816

> <Gold.Chemscore.Internal_Hbond.Weighted>
0.0000

> <Gold.Chemscore.DEClash.Weighted>
0.1509

> <Gold.Chemscore.DEInternal.Weighted>
0.4736

> <Gold.Chemscore.Rot.Weighted>
3.6876

> <Gold.Chemscore.Internal.Correction.Weighted>
   9.000000E+99

> <Gold.Protein.RotatedTorsions>
[ 6907 6896 6895 6894 ] final   94.37 input  -60.11 | X-H torsion
[ 7974 7965 7964 7962 ] final   74.55 input  175.53 | X-H torsion
[ 8008 7997 7996 7995 ] final -159.90 input   59.86 | X-H torsion
[ 10167 10162 10161 10158 ] final   76.05 input  -65.29 | X-H torsion
[ 10718 10713 10712 10709 ] final  -41.55 input   66.30 | X-H torsion
[ 10763 10752 10751 10750 ] final   58.48 input  -60.55 | X-H torsion
[ 11005 11000 10999 10996 ] final  116.12 input  -57.11 | X-H torsion

> <Gold.Protein.ActiveResidues>
 VAL166  LYS551  ARG553  GLY616  TRP617  ASP618  TYR619  PRO620  LYS621  CYS622 
 ASP623  PHE694  ASN695  SER759  ASP760  ASP761  ALA762  ILE779  LEU786  VAL792 
 PHE793  MET794  SER795  GLU796  ALA797  LYS798  CYS799  TRP800  GLU811  SER814 

> <Gold.Protein.RotatedAtoms>
  152.5449  134.1204  159.8396 H   0  0  0  0  0  0  0  0  0  0  0  0  # atno 6907 bound_to 6896
  151.1261  133.5062  159.2608 H   0  0  0  0  0  0  0  0  0  0  0  0  # atno 6908 bound_to 6896
  151.1726  135.0334  159.8813 H   0  0  0  0  0  0  0  0  0  0  0  0  # atno 6909 bound_to 6896
  145.7268  139.2669  143.1564 H   0  0  0  0  0  0  0  0  0  0  0  0  # atno 7974 bound_to 7965
  155.7695  140.0850  157.2115 H   0  0  0  0  0  0  0  0  0  0  0  0  # atno 8008 bound_to 7997
  154.3997  140.1528  156.2982 H   0  0  0  0  0  0  0  0  0  0  0  0  # atno 8009 bound_to 7997
  155.8761  140.3423  155.5858 H   0  0  0  0  0  0  0  0  0  0  0  0  # atno 8010 bound_to 7997
  139.9964  144.5719  150.7774 H   0  0  0  0  0  0  0  0  0  0  0  0  # atno 10167 bound_to 10162
  156.2691  130.4205  149.8457 H   0  0  0  0  0  0  0  0  0  0  0  0  # atno 10718 bound_to 10713
  152.9872  135.5605  154.5559 H   0  0  0  0  0  0  0  0  0  0  0  0  # atno 10763 bound_to 10752
  154.4987  135.2796  155.1440 H   0  0  0  0  0  0  0  0  0  0  0  0  # atno 10764 bound_to 10752
  154.2879  135.6332  153.5426 H   0  0  0  0  0  0  0  0  0  0  0  0  # atno 10765 bound_to 10752
  139.9031  134.9593  156.7149 H   0  0  0  0  0  0  0  0  0  0  0  0  # atno 11005 bound_to 11000
  146.0574  140.8006  142.9751 LP  0  0  0  0  0  0  0  0  0  0  0  0  # atno 17320 bound_to 7965
  144.6903  140.3145  143.7242 LP  0  0  0  0  0  0  0  0  0  0  0  0  # atno 17321 bound_to 7965
  140.7435  143.2848  151.3496 LP  0  0  0  0  0  0  0  0  0  0  0  0  # atno 17342 bound_to 10162
  139.6303  144.0734  152.2470 LP  0  0  0  0  0  0  0  0  0  0  0  0  # atno 17343 bound_to 10162
  156.5945  130.8520  151.3416 LP  0  0  0  0  0  0  0  0  0  0  0  0  # atno 17370 bound_to 10713
  157.7278  130.9647  150.1713 LP  0  0  0  0  0  0  0  0  0  0  0  0  # atno 17371 bound_to 10713
  140.7046  133.9276  155.8046 LP  0  0  0  0  0  0  0  0  0  0  0  0  # atno 17394 bound_to 11000
  141.0346  134.0708  157.3974 LP  0  0  0  0  0  0  0  0  0  0  0  0  # atno 17395 bound_to 11000

$$$$
