AV-unprocessed.smi:2936|AV-procd|sdf|11258|dock6
  -GOLD-   2272016153D 1   1.00000     0.00000
 Structure written by MMmdl.
 24 25  0  0  0  0  0  0  0  0  1 V2000
  152.1413  138.8664  158.0222 O   0  0  0  0  0  0  0  0  0  0  0  0
  152.5924  139.6809  158.8251 C   0  0  0  0  0  0  0  0  0  0  0  0
  153.4028  139.2975  159.8404 N   0  0  0  0  0  0  0  0  0  0  0  0
  153.9659  140.1131  160.7923 N   0  0  0  0  0  0  0  0  0  0  0  0
  153.7143  141.3763  160.7414 C   0  0  0  0  0  0  0  0  0  0  0  0
  152.8628  141.9706  159.7227 C   0  0  0  0  0  0  0  0  0  0  0  0
  152.6292  143.3374  159.7236 N   0  0  0  0  0  0  0  0  0  0  0  0
  152.1911  144.0758  160.8990 C   0  0  0  0  0  0  0  0  0  0  0  0
  150.9003  144.8545  160.5892 C   0  0  0  0  0  0  0  0  0  0  0  0
  151.1099  145.6938  159.4565 O   0  0  0  0  0  0  0  0  0  0  0  0
  151.4541  144.9501  158.2904 C   0  0  0  0  0  0  0  0  0  0  0  0
  152.7603  144.1757  158.5409 C   0  0  0  0  0  0  0  0  0  0  0  0
  152.3263  141.1260  158.7972 C   0  0  0  0  0  0  0  0  0  0  0  0
  151.3007  141.7223  157.5368 Cl  0  0  0  0  0  0  0  0  0  0  0  0
  153.6398  138.3209  159.9395 H   0  0  0  0  0  0  0  0  0  0  0  0
  154.1319  142.0727  161.4691 H   0  0  0  0  0  0  0  0  0  0  0  0
  152.0276  143.3918  161.7324 H   0  0  0  0  0  0  0  0  0  0  0  0
  152.9829  144.7627  161.1999 H   0  0  0  0  0  0  0  0  0  0  0  0
  150.0666  144.1763  160.4031 H   0  0  0  0  0  0  0  0  0  0  0  0
  150.6214  145.4725  161.4427 H   0  0  0  0  0  0  0  0  0  0  0  0
  150.6409  144.2736  158.0243 H   0  0  0  0  0  0  0  0  0  0  0  0
  151.5805  145.6384  157.4547 H   0  0  0  0  0  0  0  0  0  0  0  0
  153.5881  144.8697  158.6893 H   0  0  0  0  0  0  0  0  0  0  0  0
  153.0076  143.5636  157.6728 H   0  0  0  0  0  0  0  0  0  0  0  0
  1  2  2  0  0  0  0
  2 13  1  0  0  0  0
  2  3  1  0  0  0  0
  3 15  1  0  0  0  0
  3  4  1  0  0  0  0
  4  5  2  0  0  0  0
  5  6  1  0  0  0  0
  5 16  1  0  0  0  0
  6  7  1  0  0  0  0
  6 13  2  0  0  0  0
  7 12  1  0  0  0  0
  7  8  1  0  0  0  0
  8  9  1  0  0  0  0
  8 17  1  0  0  0  0
  8 18  1  0  0  0  0
  9 10  1  0  0  0  0
  9 19  1  0  0  0  0
  9 20  1  0  0  0  0
 10 11  1  0  0  0  0
 11 12  1  0  0  0  0
 11 21  1  0  0  0  0
 11 22  1  0  0  0  0
 12 23  1  0  0  0  0
 12 24  1  0  0  0  0
 13 14  1  0  0  0  0
M  END
> <s_m_source_file>
AV-unprocessed.smi

> <i_m_source_file_index>
2936

> <i_lp_mmshare_version>
43012

> <i_f3d_flags>
0

> <s_epik_input>
Tz1jMVtuSF1uW2NIXWMoYzFDbClOMltDSDJdW0NIMl1PW0NIMl1bQ0gyXTI=

> <s_epik_cmdline>
J2VwaWtfcHl0aG9uJywgJy1waCcsICc3LjAnLCAnLXRuJywgJzgnLCAnLW1hJywgJzIwMCcsICctbWV0YWxfYmluZGluZycsICctaW1hZScsICc8aW5maWxlLm1hZT4nLCAnLW9tYWUnLCAnPG91dGZpbGUubWFlPic=

> <r_lp_tautomer_probability>
0.986175

> <r_epik_Ionization_Penalty>
0.0102925

> <r_epik_Ionization_Penalty_Charging>
0.0102925

> <r_epik_Ionization_Penalty_Neutral>
4.87729e-09

> <r_epik_State_Penalty>
1.65855

> <r_epik_Charging_Adjusted_Penalty>
1.66884

> <i_epik_Tot_Q>
0

> <i_epik_Tot_abs_Q>
0

> <r_epik_Metal_State_Penalty>
3.9956

> <b_epik_Metal_Only>
0

> <s_lp_Force_Field>
OPLS_2005

> <r_lp_Energy>
35.1147

> <b_lp_Chiralities_Consistent>
1

> <s_lp_Variant>
AV-unprocessed.smi:2936-2

> <Gold.Version>
5.8.1

> <Gold.Id.Protein>
6NUR|6NUR_protein|mol2

> <Gold.PLP.Fitness>
33.1665

> <Gold.PLP.PLP>
-33.3584

> <Gold.PLP.part.hbond>
-1.5291

> <Gold.PLP.part.metal>
0.0000

> <Gold.PLP.part.buried>
-3.9267

> <Gold.PLP.part.nonpolar>
-28.2271

> <Gold.PLP.part.repulsive>
0.2705

> <Gold.PLP.ligand.clash>
0.0000

> <Gold.PLP.ligand.torsion>
0.8710

> <Gold.PLP.Chemscore.Hbond>
0.0000

> <Gold.PLP.Chemscore.CHOScore>
0.0000

> <Gold.PLP.Chemscore.Metal>
0.0000

> <Gold.PLP.Chemscore.Internal.Correction>
1.5501

> <Gold.Rescore>
     Score         DG    S(hbond)    S(metal)    S(lipo)     H(rot)  DE(clash)    DE(int)     intcor
     14.54     -15.61       0.00        0.00      86.55       0.00       0.00       1.07       ----

> <Gold.Chemscore.Fitness>
14.5373

> <Gold.Chemscore.DG>
-15.6066

> <Gold.Chemscore.ZeroCoef>
-5.4800

> <Gold.Chemscore.Hbond>
0.0000

> <Gold.Chemscore.Metal>
0.0000

> <Gold.Chemscore.Lipo>
86.5520

> <Gold.Chemscore.Internal_Hbond>
0.0000

> <Gold.Chemscore.DEClash>
0.0038

> <Gold.Chemscore.DEInternal>
1.0655

> <Gold.Chemscore.Rot>
0.0000

> <Gold.Chemscore.Internal.Correction>
   9.000000E+99

> <Gold.Chemscore.Hbond.Weighted>
-0.0000

> <Gold.Chemscore.Metal.Weighted>
-0.0000

> <Gold.Chemscore.Lipo.Weighted>
-10.1266

> <Gold.Chemscore.Internal_Hbond.Weighted>
0.0000

> <Gold.Chemscore.DEClash.Weighted>
0.0038

> <Gold.Chemscore.DEInternal.Weighted>
1.0655

> <Gold.Chemscore.Rot.Weighted>
0.0000

> <Gold.Chemscore.Internal.Correction.Weighted>
   9.000000E+99

> <Gold.Protein.RotatedTorsions>
[ 6907 6896 6895 6894 ] final   42.12 input  -60.11 | X-H torsion
[ 7974 7965 7964 7962 ] final  -40.80 input  175.53 | X-H torsion
[ 8008 7997 7996 7995 ] final  178.98 input   59.86 | X-H torsion
[ 10167 10162 10161 10158 ] final -155.15 input  -65.29 | X-H torsion
[ 10718 10713 10712 10709 ] final   71.64 input   66.30 | X-H torsion
[ 10763 10752 10751 10750 ] final  -34.69 input  -60.55 | X-H torsion
[ 11005 11000 10999 10996 ] final   -6.38 input  -57.11 | X-H torsion

> <Gold.Protein.ActiveResidues>
 VAL166  LYS551  ARG553  GLY616  TRP617  ASP618  TYR619  PRO620  LYS621  CYS622 
 ASP623  PHE694  ASN695  SER759  ASP760  ASP761  ALA762  ILE779  LEU786  VAL792 
 PHE793  MET794  SER795  GLU796  ALA797  LYS798  CYS799  TRP800  GLU811  SER814 

> <Gold.Protein.RotatedAtoms>
  152.2038  134.8564  160.0504 H   0  0  0  0  0  0  0  0  0  0  0  0  # atno 6907 bound_to 6896
  151.9407  133.3632  159.3972 H   0  0  0  0  0  0  0  0  0  0  0  0  # atno 6908 bound_to 6896
  150.6960  134.4366  159.5317 H   0  0  0  0  0  0  0  0  0  0  0  0  # atno 6909 bound_to 6896
  146.0271  140.6778  142.9150 H   0  0  0  0  0  0  0  0  0  0  0  0  # atno 7974 bound_to 7965
  156.0485  140.1320  157.0077 H   0  0  0  0  0  0  0  0  0  0  0  0  # atno 8008 bound_to 7997
  154.4424  140.1015  156.6412 H   0  0  0  0  0  0  0  0  0  0  0  0  # atno 8009 bound_to 7997
  155.5559  140.3464  155.4482 H   0  0  0  0  0  0  0  0  0  0  0  0  # atno 8010 bound_to 7997
  139.6954  143.9350  152.2405 H   0  0  0  0  0  0  0  0  0  0  0  0  # atno 10167 bound_to 10162
  157.6462  130.9538  150.0818 H   0  0  0  0  0  0  0  0  0  0  0  0  # atno 10718 bound_to 10713
  153.8508  135.6849  153.4792 H   0  0  0  0  0  0  0  0  0  0  0  0  # atno 10763 bound_to 10752
  153.1398  135.4662  154.9477 H   0  0  0  0  0  0  0  0  0  0  0  0  # atno 10764 bound_to 10752
  154.7803  135.3266  154.7952 H   0  0  0  0  0  0  0  0  0  0  0  0  # atno 10765 bound_to 10752
  140.7014  133.8986  155.8686 H   0  0  0  0  0  0  0  0  0  0  0  0  # atno 11005 bound_to 11000
  144.7014  140.3669  143.7153 LP  0  0  0  0  0  0  0  0  0  0  0  0  # atno 17320 bound_to 7965
  145.7101  139.1682  143.2544 LP  0  0  0  0  0  0  0  0  0  0  0  0  # atno 17321 bound_to 7965
  139.9178  144.6818  150.8493 LP  0  0  0  0  0  0  0  0  0  0  0  0  # atno 17342 bound_to 10162
  140.7695  143.3396  151.2235 LP  0  0  0  0  0  0  0  0  0  0  0  0  # atno 17343 bound_to 10162
  156.1792  130.3649  149.9059 LP  0  0  0  0  0  0  0  0  0  0  0  0  # atno 17370 bound_to 10713
  156.7015  130.8935  151.3600 LP  0  0  0  0  0  0  0  0  0  0  0  0  # atno 17371 bound_to 10713
  141.0161  134.0954  157.4171 LP  0  0  0  0  0  0  0  0  0  0  0  0  # atno 17394 bound_to 11000
  139.8896  135.0106  156.6687 LP  0  0  0  0  0  0  0  0  0  0  0  0  # atno 17395 bound_to 11000

$$$$
