AV-unprocessed.smi:1653|AV-procd|sdf|6641|dock3
  -GOLD-   22720 7343D 1   1.00000     0.00000
 Structure written by MMmdl.
 41 42  0  0  0  0  0  0  0  0  3 V2000
  149.0092  138.5392  155.5135 N   0  0  0  0  0  0  0  0  0  0  0  0
  148.6025  139.6210  155.5719 C   0  0  0  0  0  0  0  0  0  0  0  0
  148.0847  141.0016  155.6455 C   0  0  0  0  0  0  0  0  0  0  0  0
  149.1827  141.9343  155.9253 N   0  0  0  0  0  0  0  0  0  0  0  0
  150.2336  141.7327  156.7369 C   0  0  0  0  0  0  0  0  0  0  0  0
  150.4222  140.6859  157.3569 O   0  0  0  0  0  0  0  0  0  0  0  0
  151.2345  142.8918  156.8379 C   0  0  0  0  0  0  0  0  0  0  0  0
  151.7027  143.1316  158.2137 N   0  0  0  0  0  0  0  0  0  0  0  0
  151.3763  144.3724  158.7920 C   0  0  0  0  0  0  0  0  0  0  0  0
  151.7580  144.6967  160.0355 C   0  0  0  0  0  0  0  0  0  0  0  0
  152.5199  143.7316  160.7895 C   0  0  0  0  0  0  0  0  0  0  0  0
  152.8475  142.5330  160.2539 C   0  0  0  0  0  0  0  0  0  0  0  0
  153.6064  141.6098  161.0659 N   0  3  0  0  0  0  0  0  0  0  0  0
  154.0272  141.9864  162.1554 O   0  0  0  0  0  0  0  0  0  0  0  0
  153.8163  140.4819  160.6299 O   0  5  0  0  0  0  0  0  0  0  0  0
  152.4356  142.1847  158.8784 C   0  0  0  0  0  0  0  0  0  0  0  0
  152.7313  141.1150  158.3417 O   0  0  0  0  0  0  0  0  0  0  0  0
  147.3786  141.3365  154.3019 C   0  0  0  0  0  0  0  0  0  0  0  0
  146.9461  142.8066  154.1187 C   0  0  0  0  0  0  0  0  0  0  0  0
  145.5649  143.1723  154.6892 C   0  0  0  0  0  0  0  0  0  0  0  0
  145.1838  142.5389  156.0381 C   0  0  0  0  0  0  0  0  0  0  0  0
  146.3366  142.3690  157.0399 C   0  0  0  0  0  0  0  0  0  0  0  0
  147.1069  141.0494  156.8402 C   0  0  0  0  0  0  0  0  0  0  0  0
  149.1285  142.8283  155.4596 H   0  0  0  0  0  0  0  0  0  0  0  0
  152.0747  142.6706  156.1783 H   0  0  0  0  0  0  0  0  0  0  0  0
  150.7867  143.8013  156.4322 H   0  0  0  0  0  0  0  0  0  0  0  0
  150.8097  145.0414  158.1605 H   0  0  0  0  0  0  0  0  0  0  0  0
  151.5034  145.6562  160.4612 H   0  0  0  0  0  0  0  0  0  0  0  0
  152.8188  143.9785  161.7980 H   0  0  0  0  0  0  0  0  0  0  0  0
  148.0639  141.0935  153.4891 H   0  0  0  0  0  0  0  0  0  0  0  0
  146.5230  140.6770  154.1508 H   0  0  0  0  0  0  0  0  0  0  0  0
  147.6958  143.4826  154.5275 H   0  0  0  0  0  0  0  0  0  0  0  0
  146.9277  143.0307  153.0517 H   0  0  0  0  0  0  0  0  0  0  0  0
  145.5153  144.2580  154.7799 H   0  0  0  0  0  0  0  0  0  0  0  0
  144.7963  142.9074  153.9623 H   0  0  0  0  0  0  0  0  0  0  0  0
  144.4087  143.1582  156.4910 H   0  0  0  0  0  0  0  0  0  0  0  0
  144.7094  141.5722  155.8645 H   0  0  0  0  0  0  0  0  0  0  0  0
  147.0015  143.2330  157.0274 H   0  0  0  0  0  0  0  0  0  0  0  0
  145.9040  142.3458  158.0406 H   0  0  0  0  0  0  0  0  0  0  0  0
  146.3920  140.2292  156.7587 H   0  0  0  0  0  0  0  0  0  0  0  0
  147.6696  140.8422  157.7520 H   0  0  0  0  0  0  0  0  0  0  0  0
  1  2  3  0  0  0  0
  2  3  1  0  0  0  0
  3 23  1  0  0  0  0
  3  4  1  0  0  0  0
  3 18  1  0  0  0  0
  4  5  1  0  0  0  0
  4 24  1  0  0  0  0
  5  6  2  0  0  0  0
  5  7  1  0  0  0  0
  7  8  1  0  0  0  0
  7 25  1  0  0  0  0
  7 26  1  0  0  0  0
  8 16  1  0  0  0  0
  8  9  1  0  0  0  0
  9 10  2  0  0  0  0
  9 27  1  0  0  0  0
 10 11  1  0  0  0  0
 10 28  1  0  0  0  0
 11 12  2  0  0  0  0
 11 29  1  0  0  0  0
 12 13  1  0  0  0  0
 12 16  1  0  0  0  0
 13 14  2  0  0  0  0
 13 15  1  0  0  0  0
 16 17  2  0  0  0  0
 18 19  1  0  0  0  0
 18 30  1  0  0  0  0
 18 31  1  0  0  0  0
 19 20  1  0  0  0  0
 19 32  1  0  0  0  0
 19 33  1  0  0  0  0
 20 21  1  0  0  0  0
 20 34  1  0  0  0  0
 20 35  1  0  0  0  0
 21 22  1  0  0  0  0
 21 36  1  0  0  0  0
 21 37  1  0  0  0  0
 22 23  1  0  0  0  0
 22 38  1  0  0  0  0
 22 39  1  0  0  0  0
 23 40  1  0  0  0  0
 23 41  1  0  0  0  0
M  CHG  1  13   1
M  CHG  1  15  -1
M  END
> <s_m_source_file>
AV-unprocessed.smi

> <i_m_source_file_index>
1653

> <i_lp_mmshare_version>
43012

> <i_f3d_flags>
0

> <s_epik_input>
W0NIMl0xW0NIMl1bQ0gyXVtDSDJdW0NIMl1bQ0gyXUMxKEMjTilbTkhdQyg9TylbQ0gyXW4yW2NIXVtjSF1bY0hdYyhbTitdKD1PKVtPLV0pYzI9Tw==

> <s_epik_cmdline>
J2VwaWtfcHl0aG9uJywgJy1waCcsICc3LjAnLCAnLXRuJywgJzgnLCAnLW1hJywgJzIwMCcsICctbWV0YWxfYmluZGluZycsICctaW1hZScsICc8aW5maWxlLm1hZT4nLCAnLW9tYWUnLCAnPG91dGZpbGUubWFlPic=

> <r_lp_tautomer_probability>
1

> <r_epik_Ionization_Penalty>
4.51252e-07

> <r_epik_Ionization_Penalty_Charging>
1.09758e-10

> <r_epik_Ionization_Penalty_Neutral>
4.51142e-07

> <r_epik_State_Penalty>
-0

> <r_epik_Charging_Adjusted_Penalty>
1.09758e-10

> <i_epik_Tot_Q>
0

> <i_epik_Tot_abs_Q>
2

> <r_epik_Metal_State_Penalty>
-0

> <b_epik_Metal_Only>
0

> <s_lp_Force_Field>
OPLS_2005

> <r_lp_Energy>
31.6459

> <b_lp_Chiralities_Consistent>
1

> <s_lp_Variant>
AV-unprocessed.smi:1653-1

> <Gold.Version>
5.8.1

> <Gold.Id.Protein>
6NUR|6NUR_protein|mol2

> <Gold.PLP.Fitness>
44.6199

> <Gold.PLP.PLP>
-43.2909

> <Gold.PLP.part.hbond>
-2.1329

> <Gold.PLP.part.metal>
0.0000

> <Gold.PLP.part.buried>
-4.7147

> <Gold.PLP.part.nonpolar>
-36.4324

> <Gold.PLP.part.repulsive>
0.1686

> <Gold.PLP.ligand.clash>
0.0000

> <Gold.PLP.ligand.torsion>
0.7117

> <Gold.PLP.Chemscore.Hbond>
0.9120

> <Gold.PLP.Chemscore.CHOScore>
0.0000

> <Gold.PLP.Chemscore.Metal>
0.0000

> <Gold.Chemscore.Hbonds>
donor molecule, donor type, donor heavy atom, donor atom, acceptor molecule, acceptor atom, score
      L1  H     4    24       P1  8028  0.94

> <Gold.PLP.Chemscore.Internal.Correction>
0.0164

> <Gold.Rescore>
     Score         DG    S(hbond)    S(metal)    S(lipo)     H(rot)  DE(clash)    DE(int)     intcor
      8.81     -13.93       0.98        0.00      80.05       1.63       0.09       5.03       ----

> <Gold.Chemscore.Fitness>
8.8056

> <Gold.Chemscore.DG>
-13.9342

> <Gold.Chemscore.ZeroCoef>
-5.4800

> <Gold.Chemscore.Hbond>
0.9754

> <Gold.Chemscore.Metal>
0.0000

> <Gold.Chemscore.Lipo>
80.0493

> <Gold.Chemscore.Internal_Hbond>
0.0000

> <Gold.Chemscore.DEClash>
0.0941

> <Gold.Chemscore.DEInternal>
5.0345

> <Gold.Chemscore.Rot>
1.6287

> <Gold.Chemscore.Internal.Correction>
   9.000000E+99

> <Gold.Chemscore.Hbonds>
donor molecule, donor type, donor heavy atom, donor atom, acceptor molecule, acceptor atom, score
      L1  H     4    24       P1  8028  0.91

> <Gold.Chemscore.Hbond.Weighted>
-3.2579

> <Gold.Chemscore.Metal.Weighted>
-0.0000

> <Gold.Chemscore.Lipo.Weighted>
-9.3658

> <Gold.Chemscore.Internal_Hbond.Weighted>
0.0000

> <Gold.Chemscore.DEClash.Weighted>
0.0941

> <Gold.Chemscore.DEInternal.Weighted>
5.0345

> <Gold.Chemscore.Rot.Weighted>
4.1694

> <Gold.Chemscore.Internal.Correction.Weighted>
   9.000000E+99

> <Gold.Protein.RotatedTorsions>
[ 6907 6896 6895 6894 ] final   13.10 input  -60.11 | X-H torsion
[ 7974 7965 7964 7962 ] final   35.49 input  175.53 | X-H torsion
[ 8008 7997 7996 7995 ] final -168.55 input   59.86 | X-H torsion
[ 10167 10162 10161 10158 ] final  -26.97 input  -65.29 | X-H torsion
[ 10718 10713 10712 10709 ] final   21.73 input   66.30 | X-H torsion
[ 10763 10752 10751 10750 ] final  111.44 input  -60.55 | X-H torsion
[ 11005 11000 10999 10996 ] final  -74.38 input  -57.11 | X-H torsion

> <Gold.Protein.ActiveResidues>
 VAL166  LYS551  ARG553  GLY616  TRP617  ASP618  TYR619  PRO620  LYS621  CYS622 
 ASP623  PHE694  ASN695  SER759  ASP760  ASP761  ALA762  ILE779  LEU786  VAL792 
 PHE793  MET794  SER795  GLU796  ALA797  LYS798  CYS799  TRP800  GLU811  SER814 

> <Gold.Protein.RotatedAtoms>
  151.7809  135.0762  160.0373 H   0  0  0  0  0  0  0  0  0  0  0  0  # atno 6907 bound_to 6896
  152.3224  133.5863  159.5762 H   0  0  0  0  0  0  0  0  0  0  0  0  # atno 6908 bound_to 6896
  150.7377  133.9907  159.3648 H   0  0  0  0  0  0  0  0  0  0  0  0  # atno 6909 bound_to 6896
  146.1279  139.6136  142.9246 H   0  0  0  0  0  0  0  0  0  0  0  0  # atno 7974 bound_to 7965
  155.8929  140.1028  157.1406 H   0  0  0  0  0  0  0  0  0  0  0  0  # atno 8008 bound_to 7997
  154.4017  140.1307  156.4402 H   0  0  0  0  0  0  0  0  0  0  0  0  # atno 8009 bound_to 7997
  155.7513  140.3465  155.5154 H   0  0  0  0  0  0  0  0  0  0  0  0  # atno 8010 bound_to 7997
  140.7280  143.4133  151.1070 H   0  0  0  0  0  0  0  0  0  0  0  0  # atno 10167 bound_to 10162
  157.1425  130.6639  149.5985 H   0  0  0  0  0  0  0  0  0  0  0  0  # atno 10718 bound_to 10713
  153.4633  135.3717  155.2350 H   0  0  0  0  0  0  0  0  0  0  0  0  # atno 10763 bound_to 10752
  154.8757  135.3914  154.3898 H   0  0  0  0  0  0  0  0  0  0  0  0  # atno 10764 bound_to 10752
  153.4475  135.7085  153.6194 H   0  0  0  0  0  0  0  0  0  0  0  0  # atno 10765 bound_to 10752
  141.1634  133.6909  156.7356 H   0  0  0  0  0  0  0  0  0  0  0  0  # atno 11005 bound_to 11000
  145.5325  141.0426  143.2375 LP  0  0  0  0  0  0  0  0  0  0  0  0  # atno 17320 bound_to 7965
  144.7661  139.6842  143.7214 LP  0  0  0  0  0  0  0  0  0  0  0  0  # atno 17321 bound_to 7965
  139.7769  143.8412  152.3131 LP  0  0  0  0  0  0  0  0  0  0  0  0  # atno 17342 bound_to 10162
  139.8350  144.7236  150.9403 LP  0  0  0  0  0  0  0  0  0  0  0  0  # atno 17343 bound_to 10162
  155.9786  130.4772  150.6663 LP  0  0  0  0  0  0  0  0  0  0  0  0  # atno 17370 bound_to 10713
  157.4294  131.0847  151.1054 LP  0  0  0  0  0  0  0  0  0  0  0  0  # atno 17371 bound_to 10713
  140.2713  134.8390  157.3849 LP  0  0  0  0  0  0  0  0  0  0  0  0  # atno 17394 bound_to 11000
  140.1519  134.4839  155.7955 LP  0  0  0  0  0  0  0  0  0  0  0  0  # atno 17395 bound_to 11000

$$$$
