AV-unprocessed.smi:1113|AV-procd|sdf|4798|dock5
  -GOLD-   22720 3343D 1   1.00000     0.00000
 Structure written by MMmdl.
 40 41  0  0  0  0  0  0  0  0  1 V2000
  145.5931  136.2437  151.2709 C   0  0  0  0  0  0  0  0  0  0  0  0
  145.6074  137.3673  152.3152 C   0  0  2  0  0  0  0  0  0  0  0  0
  144.2790  137.8259  152.4639 O   0  0  0  0  0  0  0  0  0  0  0  0
  146.4976  138.5470  151.8783 C   0  0  0  0  0  0  0  0  0  0  0  0
  147.7581  138.5736  152.6128 N   0  0  0  0  0  0  0  0  0  0  0  0
  148.0827  139.4702  153.5546 C   0  0  0  0  0  0  0  0  0  0  0  0
  147.3322  140.3760  153.9168 O   0  0  0  0  0  0  0  0  0  0  0  0
  149.3257  139.2568  154.0185 N   0  0  0  0  0  0  0  0  0  0  0  0
  150.0347  139.9789  155.0160 C   0  0  0  0  0  0  0  0  0  0  0  0
  151.1752  139.4897  155.6962 C   0  0  0  0  0  0  0  0  0  0  0  0
  151.8025  140.3127  156.6510 C   0  0  0  0  0  0  0  0  0  0  0  0
  151.2773  141.5987  156.8922 C   0  0  0  0  0  0  0  0  0  0  0  0
  151.9009  142.4213  157.8408 N   0  0  0  0  0  0  0  0  0  0  0  0
  151.4044  143.7919  157.8357 C   0  0  0  0  0  0  0  0  0  0  0  0
  152.2231  144.6521  158.8140 C   0  0  0  0  0  0  0  0  0  0  0  0
  152.1865  144.0659  160.1123 O   0  0  0  0  0  0  0  0  0  0  0  0
  152.7427  142.7539  160.1221 C   0  0  0  0  0  0  0  0  0  0  0  0
  151.9356  141.8449  159.1793 C   0  0  0  0  0  0  0  0  0  0  0  0
  150.1938  142.0776  156.2367 N   0  0  0  0  0  0  0  0  0  0  0  0
  149.5975  141.2840  155.3221 C   0  0  0  0  0  0  0  0  0  0  0  0
  146.5930  135.8335  151.1264 H   0  0  0  0  0  0  0  0  0  0  0  0
  145.2377  136.6014  150.3039 H   0  0  0  0  0  0  0  0  0  0  0  0
  144.9448  135.4242  151.5832 H   0  0  0  0  0  0  0  0  0  0  0  0
  145.9493  136.9576  153.2666 H   0  0  0  0  0  0  0  0  0  0  0  0
  144.0416  138.3143  151.6909 H   0  0  0  0  0  0  0  0  0  0  0  0
  146.7155  138.4759  150.8110 H   0  0  0  0  0  0  0  0  0  0  0  0
  145.9796  139.4969  152.0167 H   0  0  0  0  0  0  0  0  0  0  0  0
  148.4393  137.8690  152.3703 H   0  0  0  0  0  0  0  0  0  0  0  0
  149.8492  138.5247  153.5612 H   0  0  0  0  0  0  0  0  0  0  0  0
  151.5892  138.5136  155.4967 H   0  0  0  0  0  0  0  0  0  0  0  0
  152.6744  139.9623  157.1839 H   0  0  0  0  0  0  0  0  0  0  0  0
  151.4695  144.2051  156.8284 H   0  0  0  0  0  0  0  0  0  0  0  0
  150.3522  143.8053  158.1235 H   0  0  0  0  0  0  0  0  0  0  0  0
  153.2565  144.7484  158.4764 H   0  0  0  0  0  0  0  0  0  0  0  0
  151.8099  145.6593  158.8666 H   0  0  0  0  0  0  0  0  0  0  0  0
  153.7919  142.7902  159.8242 H   0  0  0  0  0  0  0  0  0  0  0  0
  152.7134  142.3624  161.1388 H   0  0  0  0  0  0  0  0  0  0  0  0
  150.9195  141.7282  159.5590 H   0  0  0  0  0  0  0  0  0  0  0  0
  152.3833  140.8511  159.1420 H   0  0  0  0  0  0  0  0  0  0  0  0
  148.7388  141.7063  154.8209 H   0  0  0  0  0  0  0  0  0  0  0  0
  1  2  1  0  0  0  0
  1 21  1  0  0  0  0
  1 22  1  0  0  0  0
  1 23  1  0  0  0  0
  2  3  1  0  0  0  0
  2  4  1  0  0  0  0
  2 24  1  0  0  0  0
  3 25  1  0  0  0  0
  4  5  1  0  0  0  0
  4 26  1  0  0  0  0
  4 27  1  0  0  0  0
  5  6  1  0  0  0  0
  5 28  1  0  0  0  0
  6  7  2  0  0  0  0
  6  8  1  0  0  0  0
  8  9  1  0  0  0  0
  8 29  1  0  0  0  0
  9 20  1  0  0  0  0
  9 10  2  0  0  0  0
 10 11  1  0  0  0  0
 10 30  1  0  0  0  0
 11 12  2  0  0  0  0
 11 31  1  0  0  0  0
 12 13  1  0  0  0  0
 12 19  1  0  0  0  0
 13 18  1  0  0  0  0
 13 14  1  0  0  0  0
 14 15  1  0  0  0  0
 14 32  1  0  0  0  0
 14 33  1  0  0  0  0
 15 16  1  0  0  0  0
 15 34  1  0  0  0  0
 15 35  1  0  0  0  0
 16 17  1  0  0  0  0
 17 18  1  0  0  0  0
 17 36  1  0  0  0  0
 17 37  1  0  0  0  0
 18 38  1  0  0  0  0
 18 39  1  0  0  0  0
 19 20  2  0  0  0  0
 20 40  1  0  0  0  0
M  END
> <s_m_source_file>
AV-unprocessed.smi

> <i_m_source_file_index>
1113

> <i_lp_mmshare_version>
43012

> <i_f3d_flags>
0

> <s_epik_input>
W0NIM11bQ0BIXShbT0hdKVtDSDJdW05IXUMoPU8pW05IXWMxW2NIXVtjSF1jKG5bY0hdMSlOMltDSDJdW0NIMl1PW0NIMl1bQ0gyXTI=

> <s_epik_cmdline>
J2VwaWtfcHl0aG9uJywgJy1waCcsICc3LjAnLCAnLXRuJywgJzgnLCAnLW1hJywgJzIwMCcsICctbWV0YWxfYmluZGluZycsICctaW1hZScsICc8aW5maWxlLm1hZT4nLCAnLW9tYWUnLCAnPG91dGZpbGUubWFlPic=

> <r_lp_tautomer_probability>
1

> <r_epik_Ionization_Penalty>
0.00204837

> <r_epik_Ionization_Penalty_Charging>
0

> <r_epik_Ionization_Penalty_Neutral>
0.00204837

> <r_epik_State_Penalty>
0.00137592

> <r_epik_Charging_Adjusted_Penalty>
0.00137592

> <i_epik_Tot_Q>
0

> <i_epik_Tot_abs_Q>
0

> <r_epik_Metal_State_Penalty>
-0

> <b_epik_Metal_Only>
0

> <s_lp_Force_Field>
OPLS_2005

> <r_lp_Energy>
20.5006

> <b_lp_Chiralities_Consistent>
1

> <s_lp_Variant>
AV-unprocessed.smi:1113-1

> <Gold.Version>
5.8.1

> <Gold.Id.Protein>
6NUR|6NUR_protein|mol2

> <Gold.PLP.Fitness>
46.0152

> <Gold.PLP.PLP>
-41.6135

> <Gold.PLP.part.hbond>
-5.0000

> <Gold.PLP.part.metal>
0.0000

> <Gold.PLP.part.buried>
-3.5354

> <Gold.PLP.part.nonpolar>
-35.4806

> <Gold.PLP.part.repulsive>
1.2830

> <Gold.PLP.ligand.clash>
0.0000

> <Gold.PLP.ligand.torsion>
0.8574

> <Gold.PLP.Chemscore.Hbond>
2.0000

> <Gold.PLP.Chemscore.CHOScore>
0.0000

> <Gold.PLP.Chemscore.Metal>
0.0000

> <Gold.Chemscore.Hbonds>
donor molecule, donor type, donor heavy atom, donor atom, acceptor molecule, acceptor atom, score
      L1  H     3    25       P1 10171  1.00
      L1  H     5    28       P1  7948  1.00

> <Gold.PLP.Chemscore.Internal.Correction>
0.1165

> <Gold.Rescore>
     Score         DG    S(hbond)    S(metal)    S(lipo)     H(rot)  DE(clash)    DE(int)     intcor
     15.28     -17.58       1.95        0.00      93.36       2.08       0.18       2.12       ----

> <Gold.Chemscore.Fitness>
15.2850

> <Gold.Chemscore.DG>
-17.5791

> <Gold.Chemscore.ZeroCoef>
-5.4800

> <Gold.Chemscore.Hbond>
1.9463

> <Gold.Chemscore.Metal>
0.0000

> <Gold.Chemscore.Lipo>
93.3590

> <Gold.Chemscore.Internal_Hbond>
0.0000

> <Gold.Chemscore.DEClash>
0.1783

> <Gold.Chemscore.DEInternal>
2.1158

> <Gold.Chemscore.Rot>
2.0799

> <Gold.Chemscore.Internal.Correction>
   9.000000E+99

> <Gold.Chemscore.Hbonds>
donor molecule, donor type, donor heavy atom, donor atom, acceptor molecule, acceptor atom, score
      L1  H     3    25       P1 10171  0.98
      L1  H     5    28       P1  7948  0.98

> <Gold.Chemscore.Hbond.Weighted>
-6.5006

> <Gold.Chemscore.Metal.Weighted>
-0.0000

> <Gold.Chemscore.Lipo.Weighted>
-10.9230

> <Gold.Chemscore.Internal_Hbond.Weighted>
0.0000

> <Gold.Chemscore.DEClash.Weighted>
0.1783

> <Gold.Chemscore.DEInternal.Weighted>
2.1158

> <Gold.Chemscore.Rot.Weighted>
5.3246

> <Gold.Chemscore.Internal.Correction.Weighted>
   9.000000E+99

> <Gold.Protein.RotatedTorsions>
[ 6907 6896 6895 6894 ] final  -88.29 input  -60.11 | X-H torsion
[ 7974 7965 7964 7962 ] final -138.40 input  175.53 | X-H torsion
[ 8008 7997 7996 7995 ] final  115.62 input   59.86 | X-H torsion
[ 10167 10162 10161 10158 ] final   94.69 input  -65.29 | X-H torsion
[ 10718 10713 10712 10709 ] final  -49.16 input   66.30 | X-H torsion
[ 10763 10752 10751 10750 ] final  165.56 input  -60.55 | X-H torsion
[ 11005 11000 10999 10996 ] final   95.22 input  -57.11 | X-H torsion

> <Gold.Protein.ActiveResidues>
 VAL166  LYS551  ARG553  GLY616  TRP617  ASP618  TYR619  PRO620  LYS621  CYS622 
 ASP623  PHE694  ASN695  SER759  ASP760  ASP761  ALA762  ILE779  LEU786  VAL792 
 PHE793  MET794  SER795  GLU796  ALA797  LYS798  CYS799  TRP800  GLU811  SER814 

> <Gold.Protein.RotatedAtoms>
  150.6868  134.2764  159.4608 H   0  0  0  0  0  0  0  0  0  0  0  0  # atno 6907 bound_to 6896
  152.0682  134.9548  160.0584 H   0  0  0  0  0  0  0  0  0  0  0  0  # atno 6908 bound_to 6896
  152.0949  133.4184  159.4597 H   0  0  0  0  0  0  0  0  0  0  0  0  # atno 6909 bound_to 6896
  144.8761  140.6439  143.5235 H   0  0  0  0  0  0  0  0  0  0  0  0  # atno 7974 bound_to 7965
  156.2392  140.2934  156.0397 H   0  0  0  0  0  0  0  0  0  0  0  0  # atno 8008 bound_to 7997
  155.2001  140.0409  157.2933 H   0  0  0  0  0  0  0  0  0  0  0  0  # atno 8009 bound_to 7997
  154.6136  140.2458  155.7645 H   0  0  0  0  0  0  0  0  0  0  0  0  # atno 8010 bound_to 7997
  139.8060  144.6794  150.9703 H   0  0  0  0  0  0  0  0  0  0  0  0  # atno 10167 bound_to 10162
  156.1919  130.4153  149.9359 H   0  0  0  0  0  0  0  0  0  0  0  0  # atno 10718 bound_to 10713
  154.3259  135.2755  155.2496 H   0  0  0  0  0  0  0  0  0  0  0  0  # atno 10763 bound_to 10752
  154.4829  135.5853  153.6406 H   0  0  0  0  0  0  0  0  0  0  0  0  # atno 10764 bound_to 10752
  152.9871  135.6116  154.3447 H   0  0  0  0  0  0  0  0  0  0  0  0  # atno 10765 bound_to 10752
  139.8791  134.8887  156.3980 H   0  0  0  0  0  0  0  0  0  0  0  0  # atno 11005 bound_to 11000
  145.4040  139.1592  143.4162 LP  0  0  0  0  0  0  0  0  0  0  0  0  # atno 17320 bound_to 7965
  146.2964  140.4138  142.8720 LP  0  0  0  0  0  0  0  0  0  0  0  0  # atno 17321 bound_to 7965
  140.7819  143.4233  151.0807 LP  0  0  0  0  0  0  0  0  0  0  0  0  # atno 17342 bound_to 10162
  139.7903  143.8228  152.3150 LP  0  0  0  0  0  0  0  0  0  0  0  0  # atno 17343 bound_to 10162
  156.7096  130.8965  151.3608 LP  0  0  0  0  0  0  0  0  0  0  0  0  # atno 17370 bound_to 10713
  157.6934  130.9257  150.0577 LP  0  0  0  0  0  0  0  0  0  0  0  0  # atno 17371 bound_to 10713
  140.9287  133.7594  155.9997 LP  0  0  0  0  0  0  0  0  0  0  0  0  # atno 17394 bound_to 11000
  140.8356  134.3127  157.5333 LP  0  0  0  0  0  0  0  0  0  0  0  0  # atno 17395 bound_to 11000

$$$$
