AV-unprocessed.smi:20|AV-procd|sdf|116|dock10
  -GOLD-   2262015283D 1   1.00000     0.00000
 Structure written by MMmdl.
 57 61  0  0  0  0  0  0  0  0  1 V2000
  145.8398  132.8517  151.7971 O   0  0  0  0  0  0  0  0  0  0  0  0
  145.7637  134.0763  151.7329 C   0  0  0  0  0  0  0  0  0  0  0  0
  145.6645  134.9812  152.9490 C   0  0  0  0  0  0  0  0  0  0  0  0
  145.2179  136.3378  152.3523 C   0  0  1  0  0  0  0  0  0  0  0  0
  143.6754  136.5089  152.3993 C   0  0  0  0  0  0  0  0  0  0  0  0
  143.1625  136.7752  153.8257 C   0  0  0  0  0  0  0  0  0  0  0  0
  143.9112  137.9477  154.4756 C   0  0  0  0  0  0  0  0  0  0  0  0
  145.3572  137.7395  154.4040 N   0  0  0  0  0  0  0  0  0  0  0  0
  146.1478  138.4743  155.2272 C   0  0  0  0  0  0  0  0  0  0  0  0
  145.9529  138.4298  156.5727 N   0  0  0  0  0  0  0  0  0  0  0  0
  146.7187  139.1572  157.3911 C   0  0  0  0  0  0  0  0  0  0  0  0
  147.7214  139.9811  157.0824 N   0  0  0  0  0  0  0  0  0  0  0  0
  147.9292  140.0239  155.7355 C   0  0  0  0  0  0  0  0  0  0  0  0
  147.1958  139.3096  154.7458 C   0  0  0  0  0  0  0  0  0  0  0  0
  147.7026  139.5979  153.4837 N   0  0  0  0  0  0  0  0  0  0  0  0
  148.6716  140.4411  153.7134 C   0  0  0  0  0  0  0  0  0  0  0  0
  148.8872  140.7408  155.0395 N   0  0  0  0  0  0  0  0  0  0  0  0
  149.8884  141.6489  155.5725 C   0  0  0  0  0  0  0  0  0  0  0  0
  150.8356  141.0106  156.6212 C   0  0  1  0  0  0  0  0  0  0  0  0
  151.9018  140.1550  155.8979 C   0  0  0  0  0  0  0  0  0  0  0  0
  151.3531  139.4545  154.7997 O   0  0  0  0  0  0  0  0  0  0  0  0
  151.4683  142.0329  157.6098 C   0  0  2  0  0  0  0  0  0  0  0  0
  152.3057  141.4103  158.7160 C   0  0  0  0  0  0  0  0  0  0  0  0
  152.3855  142.5399  159.7319 C   0  0  0  0  0  0  0  0  0  0  0  0
  151.0990  143.1378  159.6943 O   0  0  0  0  0  0  0  0  0  0  0  0
  150.4787  142.8667  158.4402 C   0  0  0  0  0  0  0  0  0  0  0  0
  145.8846  137.5425  153.0540 C   0  0  0  0  0  0  0  0  0  0  0  0
  145.6831  136.2263  150.8807 C   0  0  0  0  0  0  0  0  0  0  0  0
  145.7562  134.8023  150.6178 N   0  0  0  0  0  0  0  0  0  0  0  0
  144.9742  134.5773  153.6888 H   0  0  0  0  0  0  0  0  0  0  0  0
  146.6509  135.0487  153.4097 H   0  0  0  0  0  0  0  0  0  0  0  0
  143.3858  137.3520  151.7706 H   0  0  0  0  0  0  0  0  0  0  0  0
  143.1747  135.6346  151.9818 H   0  0  0  0  0  0  0  0  0  0  0  0
  142.0935  136.9876  153.8026 H   0  0  0  0  0  0  0  0  0  0  0  0
  143.2801  135.8836  154.4412 H   0  0  0  0  0  0  0  0  0  0  0  0
  143.6573  138.8794  153.9680 H   0  0  0  0  0  0  0  0  0  0  0  0
  143.5923  138.0474  155.5141 H   0  0  0  0  0  0  0  0  0  0  0  0
  146.4962  139.0657  158.4441 H   0  0  0  0  0  0  0  0  0  0  0  0
  149.2651  140.8652  152.9167 H   0  0  0  0  0  0  0  0  0  0  0  0
  150.4661  142.0171  154.7239 H   0  0  0  0  0  0  0  0  0  0  0  0
  149.3875  142.5191  155.9978 H   0  0  0  0  0  0  0  0  0  0  0  0
  150.2456  140.3082  157.2114 H   0  0  0  0  0  0  0  0  0  0  0  0
  152.7280  140.7718  155.5445 H   0  0  0  0  0  0  0  0  0  0  0  0
  152.3397  139.4316  156.5864 H   0  0  0  0  0  0  0  0  0  0  0  0
  150.4114  139.4580  154.8801 H   0  0  0  0  0  0  0  0  0  0  0  0
  152.1087  142.7195  157.0533 H   0  0  0  0  0  0  0  0  0  0  0  0
  151.7906  140.5526  159.1512 H   0  0  0  0  0  0  0  0  0  0  0  0
  153.2912  141.0861  158.3798 H   0  0  0  0  0  0  0  0  0  0  0  0
  152.6382  142.1907  160.7333 H   0  0  0  0  0  0  0  0  0  0  0  0
  153.1296  143.2771  159.4269 H   0  0  0  0  0  0  0  0  0  0  0  0
  150.2172  143.8013  157.9455 H   0  0  0  0  0  0  0  0  0  0  0  0
  149.5578  142.3157  158.6335 H   0  0  0  0  0  0  0  0  0  0  0  0
  146.9663  137.4118  153.0601 H   0  0  0  0  0  0  0  0  0  0  0  0
  145.6933  138.4512  152.4815 H   0  0  0  0  0  0  0  0  0  0  0  0
  145.0116  136.7232  150.1798 H   0  0  0  0  0  0  0  0  0  0  0  0
  146.6793  136.6493  150.7421 H   0  0  0  0  0  0  0  0  0  0  0  0
  145.8146  134.4181  149.6858 H   0  0  0  0  0  0  0  0  0  0  0  0
  1  2  2  0  0  0  0
  2 29  1  0  0  0  0
  2  3  1  0  0  0  0
  3  4  1  0  0  0  0
  3 30  1  0  0  0  0
  3 31  1  0  0  0  0
  4 27  1  0  0  0  0
  4  5  1  0  0  0  0
  4 28  1  0  0  0  0
  5  6  1  0  0  0  0
  5 32  1  0  0  0  0
  5 33  1  0  0  0  0
  6  7  1  0  0  0  0
  6 34  1  0  0  0  0
  6 35  1  0  0  0  0
  7  8  1  0  0  0  0
  7 36  1  0  0  0  0
  7 37  1  0  0  0  0
  8  9  1  0  0  0  0
  8 27  1  0  0  0  0
  9 14  1  0  0  0  0
  9 10  2  0  0  0  0
 10 11  1  0  0  0  0
 11 12  2  0  0  0  0
 11 38  1  0  0  0  0
 12 13  1  0  0  0  0
 13 17  1  0  0  0  0
 13 14  2  0  0  0  0
 14 15  1  0  0  0  0
 15 16  2  0  0  0  0
 16 17  1  0  0  0  0
 16 39  1  0  0  0  0
 17 18  1  0  0  0  0
 18 19  1  0  0  0  0
 18 40  1  0  0  0  0
 18 41  1  0  0  0  0
 19 20  1  0  0  0  0
 19 22  1  0  0  0  0
 19 42  1  0  0  0  0
 20 21  1  0  0  0  0
 20 43  1  0  0  0  0
 20 44  1  0  0  0  0
 21 45  1  0  0  0  0
 22 26  1  0  0  0  0
 22 23  1  0  0  0  0
 22 46  1  0  0  0  0
 23 24  1  0  0  0  0
 23 47  1  0  0  0  0
 23 48  1  0  0  0  0
 24 25  1  0  0  0  0
 24 49  1  0  0  0  0
 24 50  1  0  0  0  0
 25 26  1  0  0  0  0
 26 51  1  0  0  0  0
 26 52  1  0  0  0  0
 27 53  1  0  0  0  0
 27 54  1  0  0  0  0
 28 29  1  0  0  0  0
 28 55  1  0  0  0  0
 28 56  1  0  0  0  0
 29 57  1  0  0  0  0
M  END
> <s_m_source_file>
AV-unprocessed.smi

> <i_m_source_file_index>
20

> <i_lp_mmshare_version>
43012

> <i_f3d_flags>
0

> <s_epik_input>
W0NIMl0xW05IXUMoPU8pW0NIMl1bQ0BAXTEyW0NIMl1bQ0gyXVtDSDJdTihbQ0gyXTIpYyhuW2NIXW4zKWMoYzM0KW5bY0hdbjRbQ0gyXVtDQEhdKFtDSDJdW09IXSlbQ0BASF01W0NIMl1bQ0gyXU9bQ0gyXTU=

> <s_epik_cmdline>
J2VwaWtfcHl0aG9uJywgJy1waCcsICc3LjAnLCAnLXRuJywgJzgnLCAnLW1hJywgJzIwMCcsICctbWV0YWxfYmluZGluZycsICctaW1hZScsICc8aW5maWxlLm1hZT4nLCAnLW9tYWUnLCAnPG91dGZpbGUubWFlPic=

> <r_lp_tautomer_probability>
1

> <r_epik_Ionization_Penalty>
0.0019697

> <r_epik_Ionization_Penalty_Charging>
0

> <r_epik_Ionization_Penalty_Neutral>
0.0019697

> <r_epik_State_Penalty>
0.00113613

> <r_epik_Charging_Adjusted_Penalty>
0.00113613

> <i_epik_Tot_Q>
0

> <i_epik_Tot_abs_Q>
0

> <r_epik_Metal_State_Penalty>
-0

> <b_epik_Metal_Only>
0

> <s_lp_Force_Field>
OPLS_2005

> <r_lp_Energy>
60.744

> <b_lp_Chiralities_Consistent>
1

> <s_lp_Variant>
AV-unprocessed.smi:20-4

> <Gold.Version>
5.8.1

> <Gold.Id.Protein>
6NUR|6NUR_protein|mol2

> <Gold.PLP.Fitness>
43.3519

> <Gold.PLP.PLP>
-35.7672

> <Gold.PLP.part.hbond>
-2.7377

> <Gold.PLP.part.metal>
0.0000

> <Gold.PLP.part.buried>
-2.6750

> <Gold.PLP.part.nonpolar>
-31.1542

> <Gold.PLP.part.repulsive>
0.8617

> <Gold.PLP.ligand.clash>
0.0319

> <Gold.PLP.ligand.torsion>
0.6275

> <Gold.PLP.Chemscore.Hbond>
1.9000

> <Gold.PLP.Chemscore.CHOScore>
0.8833

> <Gold.PLP.Chemscore.Metal>
0.0000

> <Gold.Chemscore.Hbonds>
donor molecule, donor type, donor heavy atom, donor atom, acceptor molecule, acceptor atom, score
      L1  H    29    57       P1  7921  0.74
      P1  H  7989  7998       L1    21  0.80
      L1  C    16    39       P1  7957  0.78

> <Gold.PLP.Chemscore.Internal.Correction>
0.5218

> <Gold.Rescore>
     Score         DG    S(hbond)    S(metal)    S(lipo)     H(rot)  DE(clash)    DE(int)     intcor
      7.86     -13.46       1.63        0.00      81.72       2.74       2.13       3.47       ----

> <Gold.Chemscore.Fitness>
7.8581

> <Gold.Chemscore.DG>
-13.4599

> <Gold.Chemscore.ZeroCoef>
-5.4800

> <Gold.Chemscore.Hbond>
1.6279

> <Gold.Chemscore.Metal>
0.0000

> <Gold.Chemscore.Lipo>
81.7163

> <Gold.Chemscore.Internal_Hbond>
0.0000

> <Gold.Chemscore.DEClash>
2.1334

> <Gold.Chemscore.DEInternal>
3.4684

> <Gold.Chemscore.Rot>
2.7415

> <Gold.Chemscore.Internal.Correction>
   9.000000E+99

> <Gold.Chemscore.Hbonds>
donor molecule, donor type, donor heavy atom, donor atom, acceptor molecule, acceptor atom, score
      L1  H    29    57       P1  7921  0.46
      P1  H  7989  7998       L1    21  0.04

> <Gold.Chemscore.Hbond.Weighted>
-5.4373

> <Gold.Chemscore.Metal.Weighted>
-0.0000

> <Gold.Chemscore.Lipo.Weighted>
-9.5608

> <Gold.Chemscore.Internal_Hbond.Weighted>
0.0000

> <Gold.Chemscore.DEClash.Weighted>
2.1334

> <Gold.Chemscore.DEInternal.Weighted>
3.4684

> <Gold.Chemscore.Rot.Weighted>
7.0182

> <Gold.Chemscore.Internal.Correction.Weighted>
   9.000000E+99

> <Gold.Protein.RotatedTorsions>
[ 6907 6896 6895 6894 ] final  149.03 input  -60.11 | X-H torsion
[ 7974 7965 7964 7962 ] final   20.41 input  175.53 | X-H torsion
[ 8008 7997 7996 7995 ] final  -86.34 input   59.86 | X-H torsion
[ 10167 10162 10161 10158 ] final   55.49 input  -65.29 | X-H torsion
[ 10718 10713 10712 10709 ] final  115.34 input   66.30 | X-H torsion
[ 10763 10752 10751 10750 ] final -133.07 input  -60.55 | X-H torsion
[ 11005 11000 10999 10996 ] final -137.83 input  -57.11 | X-H torsion

> <Gold.Protein.ActiveResidues>
 VAL166  LYS551  ARG553  GLY616  TRP617  ASP618  TYR619  PRO620  LYS621  CYS622 
 ASP623  PHE694  ASN695  SER759  ASP760  ASP761  ALA762  ILE779  LEU786  VAL792 
 PHE793  MET794  SER795  GLU796  ALA797  LYS798  CYS799  TRP800  GLU811  SER814 

> <Gold.Protein.RotatedAtoms>
  152.1335  133.4421  159.4731 H   0  0  0  0  0  0  0  0  0  0  0  0  # atno 6907 bound_to 6896
  150.6880  134.2392  159.4475 H   0  0  0  0  0  0  0  0  0  0  0  0  # atno 6908 bound_to 6896
  152.0278  134.9785  160.0622 H   0  0  0  0  0  0  0  0  0  0  0  0  # atno 6909 bound_to 6896
  146.2112  139.8174  142.8687 H   0  0  0  0  0  0  0  0  0  0  0  0  # atno 7974 bound_to 7965
  154.6507  140.0580  156.9953 H   0  0  0  0  0  0  0  0  0  0  0  0  # atno 8008 bound_to 7997
  155.1375  140.3262  155.4441 H   0  0  0  0  0  0  0  0  0  0  0  0  # atno 8009 bound_to 7997
  156.2575  140.1970  156.6492 H   0  0  0  0  0  0  0  0  0  0  0  0  # atno 8010 bound_to 7997
  140.2189  144.3810  150.6458 H   0  0  0  0  0  0  0  0  0  0  0  0  # atno 10167 bound_to 10162
  157.6227  131.1011  150.7316 H   0  0  0  0  0  0  0  0  0  0  0  0  # atno 10718 bound_to 10713
  154.8736  135.3777  154.4513 H   0  0  0  0  0  0  0  0  0  0  0  0  # atno 10763 bound_to 10752
  153.5189  135.7029  153.5746 H   0  0  0  0  0  0  0  0  0  0  0  0  # atno 10764 bound_to 10752
  153.4002  135.3950  155.1948 H   0  0  0  0  0  0  0  0  0  0  0  0  # atno 10765 bound_to 10752
  140.8674  134.2093  157.4671 H   0  0  0  0  0  0  0  0  0  0  0  0  # atno 11005 bound_to 11000
  145.3132  141.0225  143.3542 LP  0  0  0  0  0  0  0  0  0  0  0  0  # atno 17320 bound_to 7965
  144.8920  139.4761  143.6673 LP  0  0  0  0  0  0  0  0  0  0  0  0  # atno 17321 bound_to 7965
  140.6270  143.2182  151.6577 LP  0  0  0  0  0  0  0  0  0  0  0  0  # atno 17342 bound_to 10162
  139.5152  144.3387  152.0760 LP  0  0  0  0  0  0  0  0  0  0  0  0  # atno 17343 bound_to 10162
  156.7670  130.4817  149.5425 LP  0  0  0  0  0  0  0  0  0  0  0  0  # atno 17370 bound_to 10713
  156.1382  130.6226  151.0430 LP  0  0  0  0  0  0  0  0  0  0  0  0  # atno 17371 bound_to 10713
  139.8710  134.9758  156.4897 LP  0  0  0  0  0  0  0  0  0  0  0  0  # atno 17394 bound_to 11000
  140.8613  133.8058  155.9268 LP  0  0  0  0  0  0  0  0  0  0  0  0  # atno 17395 bound_to 11000

$$$$
