AV-unprocessed.smi:260|AV-procd|sdf|1978|dock10
  -GOLD-   2262021153D 1   1.00000     0.00000
 Structure written by MMmdl.
 53 56  0  0  0  0  0  0  0  0  1 V2000
  145.9891  135.5019  153.3081 C   0  0  0  0  0  0  0  0  0  0  0  0
  147.3277  135.0393  153.6394 N   0  0  0  0  0  0  0  0  0  0  0  0
  147.7113  134.6359  154.8611 C   0  0  0  0  0  0  0  0  0  0  0  0
  146.9394  134.6390  155.8211 O   0  0  0  0  0  0  0  0  0  0  0  0
  149.1755  134.1636  155.0602 C   0  0  2  0  0  0  0  0  0  0  0  0
  149.4141  132.9054  154.2028 C   0  0  0  0  0  0  0  0  0  0  0  0
  149.5765  133.9448  156.5370 C   0  0  0  0  0  0  0  0  0  0  0  0
  149.9394  135.3414  157.0579 C   0  0  0  0  0  0  0  0  0  0  0  0
  150.2766  136.1214  155.8755 N   0  0  0  0  0  0  0  0  0  0  0  0
  151.1621  137.1495  155.9393 C   0  0  0  0  0  0  0  0  0  0  0  0
  151.9308  137.4182  154.8506 N   0  0  0  0  0  0  0  0  0  0  0  0
  152.8171  138.4173  154.8738 C   0  0  0  0  0  0  0  0  0  0  0  0
  153.0913  139.2656  155.8657 N   0  0  0  0  0  0  0  0  0  0  0  0
  152.3152  139.0143  156.9578 C   0  0  0  0  0  0  0  0  0  0  0  0
  151.3337  137.9882  157.0804 C   0  0  0  0  0  0  0  0  0  0  0  0
  150.7444  138.0562  158.3391 N   0  0  0  0  0  0  0  0  0  0  0  0
  151.3482  139.0524  158.9268 C   0  0  0  0  0  0  0  0  0  0  0  0
  152.3090  139.6815  158.1701 N   0  0  0  0  0  0  0  0  0  0  0  0
  153.1303  140.8082  158.5782 C   0  0  0  0  0  0  0  0  0  0  0  0
  152.5934  141.4937  159.8499 C   0  0  1  0  0  0  0  0  0  0  0  0
  153.2462  140.9526  160.9824 O   0  0  0  0  0  0  0  0  0  0  0  0
  152.8151  143.0171  159.8300 C   0  0  2  0  0  0  0  0  0  0  0  0
  152.1232  143.7750  160.9647 C   0  0  0  0  0  0  0  0  0  0  0  0
  151.9360  145.1748  160.4007 C   0  0  0  0  0  0  0  0  0  0  0  0
  152.1535  145.0014  158.8952 C   0  0  0  0  0  0  0  0  0  0  0  0
  152.2069  143.5971  158.6863 O   0  0  0  0  0  0  0  0  0  0  0  0
  150.1494  135.2956  154.6803 C   0  0  0  0  0  0  0  0  0  0  0  0
  145.9535  135.8202  152.2663 H   0  0  0  0  0  0  0  0  0  0  0  0
  145.7023  136.3482  153.9340 H   0  0  0  0  0  0  0  0  0  0  0  0
  145.2596  134.7027  153.4467 H   0  0  0  0  0  0  0  0  0  0  0  0
  148.0069  135.0166  152.8926 H   0  0  0  0  0  0  0  0  0  0  0  0
  150.4453  132.5597  154.2828 H   0  0  0  0  0  0  0  0  0  0  0  0
  149.2188  133.0943  153.1465 H   0  0  0  0  0  0  0  0  0  0  0  0
  148.7698  132.0841  154.5185 H   0  0  0  0  0  0  0  0  0  0  0  0
  148.8236  133.4475  157.1495 H   0  0  0  0  0  0  0  0  0  0  0  0
  150.4672  133.3162  156.5805 H   0  0  0  0  0  0  0  0  0  0  0  0
  149.0861  135.8037  157.5551 H   0  0  0  0  0  0  0  0  0  0  0  0
  150.7651  135.2886  157.7685 H   0  0  0  0  0  0  0  0  0  0  0  0
  153.3890  138.5556  153.9682 H   0  0  0  0  0  0  0  0  0  0  0  0
  151.1099  139.3565  159.9359 H   0  0  0  0  0  0  0  0  0  0  0  0
  154.1540  140.4640  158.7303 H   0  0  0  0  0  0  0  0  0  0  0  0
  153.1620  141.5182  157.7509 H   0  0  0  0  0  0  0  0  0  0  0  0
  151.5266  141.2868  159.9465 H   0  0  0  0  0  0  0  0  0  0  0  0
  154.1459  140.7759  160.7538 H   0  0  0  0  0  0  0  0  0  0  0  0
  153.8819  143.2506  159.8205 H   0  0  0  0  0  0  0  0  0  0  0  0
  151.1476  143.3337  161.1727 H   0  0  0  0  0  0  0  0  0  0  0  0
  152.6998  143.7651  161.8899 H   0  0  0  0  0  0  0  0  0  0  0  0
  150.9391  145.5555  160.6252 H   0  0  0  0  0  0  0  0  0  0  0  0
  152.6638  145.8731  160.8155 H   0  0  0  0  0  0  0  0  0  0  0  0
  151.3597  145.4554  158.3018 H   0  0  0  0  0  0  0  0  0  0  0  0
  153.1023  145.4464  158.5916 H   0  0  0  0  0  0  0  0  0  0  0  0
  151.1269  134.8905  154.4140 H   0  0  0  0  0  0  0  0  0  0  0  0
  149.7965  135.8874  153.8344 H   0  0  0  0  0  0  0  0  0  0  0  0
  1  2  1  0  0  0  0
  1 28  1  0  0  0  0
  1 29  1  0  0  0  0
  1 30  1  0  0  0  0
  2  3  1  0  0  0  0
  2 31  1  0  0  0  0
  3  4  2  0  0  0  0
  3  5  1  0  0  0  0
  5 27  1  0  0  0  0
  5  6  1  0  0  0  0
  5  7  1  0  0  0  0
  6 32  1  0  0  0  0
  6 33  1  0  0  0  0
  6 34  1  0  0  0  0
  7  8  1  0  0  0  0
  7 35  1  0  0  0  0
  7 36  1  0  0  0  0
  8  9  1  0  0  0  0
  8 37  1  0  0  0  0
  8 38  1  0  0  0  0
  9 10  1  0  0  0  0
  9 27  1  0  0  0  0
 10 15  1  0  0  0  0
 10 11  2  0  0  0  0
 11 12  1  0  0  0  0
 12 13  2  0  0  0  0
 12 39  1  0  0  0  0
 13 14  1  0  0  0  0
 14 18  1  0  0  0  0
 14 15  2  0  0  0  0
 15 16  1  0  0  0  0
 16 17  2  0  0  0  0
 17 18  1  0  0  0  0
 17 40  1  0  0  0  0
 18 19  1  0  0  0  0
 19 20  1  0  0  0  0
 19 41  1  0  0  0  0
 19 42  1  0  0  0  0
 20 21  1  0  0  0  0
 20 22  1  0  0  0  0
 20 43  1  0  0  0  0
 21 44  1  0  0  0  0
 22 26  1  0  0  0  0
 22 23  1  0  0  0  0
 22 45  1  0  0  0  0
 23 24  1  0  0  0  0
 23 46  1  0  0  0  0
 23 47  1  0  0  0  0
 24 25  1  0  0  0  0
 24 48  1  0  0  0  0
 24 49  1  0  0  0  0
 25 26  1  0  0  0  0
 25 50  1  0  0  0  0
 25 51  1  0  0  0  0
 27 52  1  0  0  0  0
 27 53  1  0  0  0  0
M  END
> <s_m_source_file>
AV-unprocessed.smi

> <i_m_source_file_index>
260

> <i_lp_mmshare_version>
43012

> <i_f3d_flags>
0

> <s_epik_input>
W0NIM11bTkhdQyg9TylbQ0BAXTEoW0NIM10pW0NIMl1bQ0gyXU4oW0NIMl0xKWMobltjSF1uMiljKGMyMyluW2NIXW4zW0NIMl1bQ0BIXShbT0hdKVtDQEBIXTRbQ0gyXVtDSDJdW0NIMl1PNA==

> <s_epik_cmdline>
J2VwaWtfcHl0aG9uJywgJy1waCcsICc3LjAnLCAnLXRuJywgJzgnLCAnLW1hJywgJzIwMCcsICctbWV0YWxfYmluZGluZycsICctaW1hZScsICc8aW5maWxlLm1hZT4nLCAnLW9tYWUnLCAnPG91dGZpbGUubWFlPic=

> <r_lp_tautomer_probability>
1

> <r_epik_Ionization_Penalty>
0.00115068

> <r_epik_Ionization_Penalty_Charging>
0

> <r_epik_Ionization_Penalty_Neutral>
0.00115068

> <r_epik_State_Penalty>
0.000668876

> <r_epik_Charging_Adjusted_Penalty>
0.000668876

> <i_epik_Tot_Q>
0

> <i_epik_Tot_abs_Q>
0

> <r_epik_Metal_State_Penalty>
-0

> <b_epik_Metal_Only>
0

> <s_lp_Force_Field>
OPLS_2005

> <r_lp_Energy>
50.1788

> <b_lp_Chiralities_Consistent>
1

> <s_lp_Variant>
AV-unprocessed.smi:260-4

> <Gold.Version>
5.8.1

> <Gold.Id.Protein>
6NUR|6NUR_protein|mol2

> <Gold.PLP.Fitness>
49.3942

> <Gold.PLP.PLP>
-43.6479

> <Gold.PLP.part.hbond>
-3.0000

> <Gold.PLP.part.metal>
0.0000

> <Gold.PLP.part.buried>
-6.0542

> <Gold.PLP.part.nonpolar>
-35.3463

> <Gold.PLP.part.repulsive>
0.1280

> <Gold.PLP.ligand.clash>
0.0000

> <Gold.PLP.ligand.torsion>
0.9841

> <Gold.PLP.Chemscore.Hbond>
2.4563

> <Gold.PLP.Chemscore.CHOScore>
0.0000

> <Gold.PLP.Chemscore.Metal>
0.0000

> <Gold.Chemscore.Hbonds>
donor molecule, donor type, donor heavy atom, donor atom, acceptor molecule, acceptor atom, score
      L1  H     2    31       P1  7948  0.78
      P1  H  7997  8009       L1    13  0.83
      P1  H 10752 10765       L1    11  0.79

> <Gold.PLP.Chemscore.Internal.Correction>
0.3457

> <Gold.Rescore>
     Score         DG    S(hbond)    S(metal)    S(lipo)     H(rot)  DE(clash)    DE(int)     intcor
     16.27     -17.57       2.22        0.00      95.17       2.53       0.18       1.13       ----

> <Gold.Chemscore.Fitness>
16.2657

> <Gold.Chemscore.DG>
-17.5748

> <Gold.Chemscore.ZeroCoef>
-5.4800

> <Gold.Chemscore.Hbond>
2.2233

> <Gold.Chemscore.Metal>
0.0000

> <Gold.Chemscore.Lipo>
95.1736

> <Gold.Chemscore.Internal_Hbond>
0.0000

> <Gold.Chemscore.DEClash>
0.1799

> <Gold.Chemscore.DEInternal>
1.1292

> <Gold.Chemscore.Rot>
2.5259

> <Gold.Chemscore.Internal.Correction>
   9.000000E+99

> <Gold.Chemscore.Hbonds>
donor molecule, donor type, donor heavy atom, donor atom, acceptor molecule, acceptor atom, score
      L1  H     2    31       P1  7948  0.74
      P1  H  7997  8009       L1    13  0.21
      P1  H 10752 10765       L1    11  0.27

> <Gold.Chemscore.Hbond.Weighted>
-7.4258

> <Gold.Chemscore.Metal.Weighted>
-0.0000

> <Gold.Chemscore.Lipo.Weighted>
-11.1353

> <Gold.Chemscore.Internal_Hbond.Weighted>
0.0000

> <Gold.Chemscore.DEClash.Weighted>
0.1799

> <Gold.Chemscore.DEInternal.Weighted>
1.1292

> <Gold.Chemscore.Rot.Weighted>
6.4663

> <Gold.Chemscore.Internal.Correction.Weighted>
   9.000000E+99

> <Gold.Protein.RotatedTorsions>
[ 6907 6896 6895 6894 ] final -129.31 input  -60.11 | X-H torsion
[ 7974 7965 7964 7962 ] final   60.78 input  175.53 | X-H torsion
[ 8008 7997 7996 7995 ] final  179.79 input   59.86 | X-H torsion
[ 10167 10162 10161 10158 ] final -130.23 input  -65.29 | X-H torsion
[ 10718 10713 10712 10709 ] final -175.82 input   66.30 | X-H torsion
[ 10763 10752 10751 10750 ] final  169.61 input  -60.55 | X-H torsion
[ 11005 11000 10999 10996 ] final -141.74 input  -57.11 | X-H torsion

> <Gold.Protein.ActiveResidues>
 VAL166  LYS551  ARG553  GLY616  TRP617  ASP618  TYR619  PRO620  LYS621  CYS622 
 ASP623  PHE694  ASN695  SER759  ASP760  ASP761  ALA762  ILE779  LEU786  VAL792 
 PHE793  MET794  SER795  GLU796  ALA797  LYS798  CYS799  TRP800  GLU811  SER814 

> <Gold.Protein.RotatedAtoms>
  150.9273  133.6808  159.2818 H   0  0  0  0  0  0  0  0  0  0  0  0  # atno 6907 bound_to 6896
  151.4242  135.1000  159.9632 H   0  0  0  0  0  0  0  0  0  0  0  0  # atno 6908 bound_to 6896
  152.5009  133.8718  159.7357 H   0  0  0  0  0  0  0  0  0  0  0  0  # atno 6909 bound_to 6896
  145.8922  139.3519  143.0643 H   0  0  0  0  0  0  0  0  0  0  0  0  # atno 7974 bound_to 7965
  156.0394  140.1300  157.0172 H   0  0  0  0  0  0  0  0  0  0  0  0  # atno 8008 bound_to 7997
  154.4384  140.1033  156.6286 H   0  0  0  0  0  0  0  0  0  0  0  0  # atno 8009 bound_to 7997
  155.5689  140.3466  155.4512 H   0  0  0  0  0  0  0  0  0  0  0  0  # atno 8010 bound_to 7997
  139.9314  143.6267  152.2528 H   0  0  0  0  0  0  0  0  0  0  0  0  # atno 10167 bound_to 10162
  156.8056  130.9568  151.3117 H   0  0  0  0  0  0  0  0  0  0  0  0  # atno 10718 bound_to 10713
  154.3856  135.2753  155.2185 H   0  0  0  0  0  0  0  0  0  0  0  0  # atno 10763 bound_to 10752
  154.4273  135.5985  153.6050 H   0  0  0  0  0  0  0  0  0  0  0  0  # atno 10764 bound_to 10752
  152.9833  135.5987  154.4104 H   0  0  0  0  0  0  0  0  0  0  0  0  # atno 10765 bound_to 10752
  140.8295  134.2534  157.4863 H   0  0  0  0  0  0  0  0  0  0  0  0  # atno 11005 bound_to 11000
  145.8895  140.9313  143.0559 LP  0  0  0  0  0  0  0  0  0  0  0  0  # atno 17320 bound_to 7965
  144.6731  140.0886  143.7466 LP  0  0  0  0  0  0  0  0  0  0  0  0  # atno 17321 bound_to 7965
  139.6779  144.7657  151.1663 LP  0  0  0  0  0  0  0  0  0  0  0  0  # atno 17342 bound_to 10162
  140.7636  143.5768  150.8937 LP  0  0  0  0  0  0  0  0  0  0  0  0  # atno 17343 bound_to 10162
  157.6532  130.8902  149.9675 LP  0  0  0  0  0  0  0  0  0  0  0  0  # atno 17370 bound_to 10713
  156.1075  130.3652  150.0108 LP  0  0  0  0  0  0  0  0  0  0  0  0  # atno 17371 bound_to 10713
  139.8705  134.9578  156.4281 LP  0  0  0  0  0  0  0  0  0  0  0  0  # atno 17394 bound_to 11000
  140.9014  133.7777  155.9684 LP  0  0  0  0  0  0  0  0  0  0  0  0  # atno 17395 bound_to 11000

$$$$
