AV-unprocessed.smi:21|AV-procd|sdf|126|dock8
  -GOLD-   2262015303D 1   1.00000     0.00000
 Structure written by MMmdl.
 62 65  0  0  0  0  0  0  0  0  2 V2000
  146.1836  131.6641  151.8467 C   0  0  0  0  0  0  0  0  0  0  0  0
  147.1387  131.7062  152.8944 O   0  0  0  0  0  0  0  0  0  0  0  0
  147.7318  132.9843  153.0697 C   0  0  2  0  0  0  0  0  0  0  0  0
  148.5183  133.0338  154.3751 C   0  0  0  0  0  0  0  0  0  0  0  0
  148.5344  134.5213  154.7733 C   0  0  1  0  0  0  0  0  0  0  0  0
  149.8765  135.2296  154.4731 C   0  0  0  0  0  0  0  0  0  0  0  0
  150.6785  135.5108  155.6659 N   0  0  0  0  0  0  0  0  0  0  0  0
  150.4685  134.6984  156.8619 C   0  0  0  0  0  0  0  0  0  0  0  0
  151.2644  136.7344  155.8000 C   0  0  0  0  0  0  0  0  0  0  0  0
  152.1517  137.1417  154.8529 N   0  0  0  0  0  0  0  0  0  0  0  0
  152.8008  138.3022  154.9785 C   0  0  0  0  0  0  0  0  0  0  0  0
  152.7252  139.1955  155.9648 N   0  0  0  0  0  0  0  0  0  0  0  0
  151.8236  138.8094  156.9106 C   0  0  0  0  0  0  0  0  0  0  0  0
  151.0424  137.6181  156.8995 C   0  0  0  0  0  0  0  0  0  0  0  0
  150.2195  137.5941  158.0213 N   0  0  0  0  0  0  0  0  0  0  0  0
  150.5162  138.6866  158.6685 C   0  0  0  0  0  0  0  0  0  0  0  0
  151.5020  139.4530  158.0926 N   0  0  0  0  0  0  0  0  0  0  0  0
  152.0598  140.6855  158.6170 C   0  0  0  0  0  0  0  0  0  0  0  0
  151.6074  141.9699  157.8652 C   0  0  1  0  0  0  0  0  0  0  0  0
  150.0618  141.9873  157.7808 C   0  0  0  0  0  0  0  0  0  0  0  0
  149.6185  142.5687  156.5719 O   0  0  0  0  0  0  0  0  0  0  0  0
  152.1620  143.2866  158.4933 C   0  0  2  0  0  0  0  0  0  0  0  0
  151.8603  143.4721  159.9738 C   0  0  0  0  0  0  0  0  0  0  0  0
  152.0859  144.9638  160.1714 C   0  0  0  0  0  0  0  0  0  0  0  0
  151.5825  145.5581  158.9859 O   0  0  0  0  0  0  0  0  0  0  0  0
  151.5785  144.5980  157.9345 C   0  0  0  0  0  0  0  0  0  0  0  0
  147.4433  135.1613  153.9969 N   0  3  2  0  0  0  0  0  0  0  0  0
  146.5714  136.0581  154.7862 C   0  0  0  0  0  0  0  0  0  0  0  0
  146.7129  134.1046  153.2685 C   0  0  0  0  0  0  0  0  0  0  0  0
  148.4016  133.2225  152.2410 H   0  0  0  0  0  0  0  0  0  0  0  0
  148.3016  134.5937  155.8366 H   0  0  0  0  0  0  0  0  0  0  0  0
  145.7908  130.6519  151.7526 H   0  0  0  0  0  0  0  0  0  0  0  0
  146.6334  131.9386  150.8916 H   0  0  0  0  0  0  0  0  0  0  0  0
  145.3432  132.3305  152.0426 H   0  0  0  0  0  0  0  0  0  0  0  0
  147.9863  132.4675  155.1411 H   0  0  0  0  0  0  0  0  0  0  0  0
  149.5076  132.5893  154.2771 H   0  0  0  0  0  0  0  0  0  0  0  0
  150.4591  134.6122  153.7885 H   0  0  0  0  0  0  0  0  0  0  0  0
  149.7072  136.1577  153.9299 H   0  0  0  0  0  0  0  0  0  0  0  0
  151.4056  134.5657  157.4037 H   0  0  0  0  0  0  0  0  0  0  0  0
  150.0949  133.7074  156.6037 H   0  0  0  0  0  0  0  0  0  0  0  0
  149.7475  135.1664  157.5328 H   0  0  0  0  0  0  0  0  0  0  0  0
  153.4894  138.5423  154.1815 H   0  0  0  0  0  0  0  0  0  0  0  0
  150.0446  138.9475  159.6049 H   0  0  0  0  0  0  0  0  0  0  0  0
  151.7795  140.7373  159.6693 H   0  0  0  0  0  0  0  0  0  0  0  0
  153.1475  140.6083  158.5952 H   0  0  0  0  0  0  0  0  0  0  0  0
  151.9786  141.9168  156.8409 H   0  0  0  0  0  0  0  0  0  0  0  0
  149.6567  140.9787  157.8670 H   0  0  0  0  0  0  0  0  0  0  0  0
  149.6234  142.5788  158.5834 H   0  0  0  0  0  0  0  0  0  0  0  0
  150.1326  143.3438  156.4039 H   0  0  0  0  0  0  0  0  0  0  0  0
  153.2463  143.3091  158.3716 H   0  0  0  0  0  0  0  0  0  0  0  0
  150.8202  143.2208  160.1881 H   0  0  0  0  0  0  0  0  0  0  0  0
  152.5004  142.8742  160.6231 H   0  0  0  0  0  0  0  0  0  0  0  0
  151.5872  145.3533  161.0592 H   0  0  0  0  0  0  0  0  0  0  0  0
  153.1516  145.1823  160.2528 H   0  0  0  0  0  0  0  0  0  0  0  0
  152.1547  144.9817  157.0945 H   0  0  0  0  0  0  0  0  0  0  0  0
  150.5469  144.4662  157.6067 H   0  0  0  0  0  0  0  0  0  0  0  0
  146.0523  135.5109  155.5747 H   0  0  0  0  0  0  0  0  0  0  0  0
  145.8248  136.5250  154.1435 H   0  0  0  0  0  0  0  0  0  0  0  0
  147.1584  136.8511  155.2499 H   0  0  0  0  0  0  0  0  0  0  0  0
  146.3017  134.4766  152.3298 H   0  0  0  0  0  0  0  0  0  0  0  0
  145.8852  133.7419  153.8810 H   0  0  0  0  0  0  0  0  0  0  0  0
  147.8975  135.7258  153.2931 H   0  0  0  0  0  0  0  0  0  0  0  0
  1  2  1  0  0  0  0
  1 32  1  0  0  0  0
  1 33  1  0  0  0  0
  1 34  1  0  0  0  0
  2  3  1  0  0  0  0
  3 30  1  0  0  0  0
  3 29  1  0  0  0  0
  3  4  1  0  0  0  0
  4  5  1  0  0  0  0
  4 35  1  0  0  0  0
  4 36  1  0  0  0  0
  5 31  1  0  0  0  0
  5  6  1  0  0  0  0
  5 27  1  0  0  0  0
  6  7  1  0  0  0  0
  6 37  1  0  0  0  0
  6 38  1  0  0  0  0
  7  8  1  0  0  0  0
  7  9  1  0  0  0  0
  8 39  1  0  0  0  0
  8 40  1  0  0  0  0
  8 41  1  0  0  0  0
  9 14  1  0  0  0  0
  9 10  2  0  0  0  0
 10 11  1  0  0  0  0
 11 12  2  0  0  0  0
 11 42  1  0  0  0  0
 12 13  1  0  0  0  0
 13 17  1  0  0  0  0
 13 14  2  0  0  0  0
 14 15  1  0  0  0  0
 15 16  2  0  0  0  0
 16 17  1  0  0  0  0
 16 43  1  0  0  0  0
 17 18  1  0  0  0  0
 18 19  1  0  0  0  0
 18 44  1  0  0  0  0
 18 45  1  0  0  0  0
 19 20  1  0  0  0  0
 19 22  1  0  0  0  0
 19 46  1  0  0  0  0
 20 21  1  0  0  0  0
 20 47  1  0  0  0  0
 20 48  1  0  0  0  0
 21 49  1  0  0  0  0
 22 26  1  0  0  0  0
 22 23  1  0  0  0  0
 22 50  1  0  0  0  0
 23 24  1  0  0  0  0
 23 51  1  0  0  0  0
 23 52  1  0  0  0  0
 24 25  1  0  0  0  0
 24 53  1  0  0  0  0
 24 54  1  0  0  0  0
 25 26  1  0  0  0  0
 26 55  1  0  0  0  0
 26 56  1  0  0  0  0
 27 28  1  0  0  0  0
 27 29  1  0  0  0  0
 27 62  1  0  0  0  0
 28 57  1  0  0  0  0
 28 58  1  0  0  0  0
 28 59  1  0  0  0  0
 29 60  1  0  0  0  0
 29 61  1  0  0  0  0
M  CHG  1  27   1
M  END
> <s_m_source_file>
AV-unprocessed.smi

> <i_m_source_file_index>
21

> <i_lp_mmshare_version>
43012

> <i_f3d_flags>
0

> <s_epik_input>
W0NIM11PW0NASF0xW0NIMl1bQ0BIXShOKFtDSDNdKVtDSDJdMSlbQ0gyXU4oW0NIM10pYyhuW2NIXW4yKWMoYzIzKW5bY0hdbjNbQ0gyXVtDQEhdKFtDSDJdW09IXSlbQ0BASF00W0NIMl1bQ0gyXU9bQ0gyXTQ=

> <s_epik_cmdline>
J2VwaWtfcHl0aG9uJywgJy1waCcsICc3LjAnLCAnLXRuJywgJzgnLCAnLW1hJywgJzIwMCcsICctbWV0YWxfYmluZGluZycsICctaW1hZScsICc8aW5maWxlLm1hZT4nLCAnLW9tYWUnLCAnPG91dGZpbGUubWFlPic=

> <r_lp_tautomer_probability>
1

> <r_epik_Ionization_Penalty>
0.0157465

> <r_epik_Ionization_Penalty_Charging>
0.015354

> <r_epik_Ionization_Penalty_Neutral>
0.000392529

> <r_epik_State_Penalty>
0.0120612

> <r_epik_Charging_Adjusted_Penalty>
0.0274152

> <i_epik_Tot_Q>
1

> <i_epik_Tot_abs_Q>
1

> <r_epik_Metal_State_Penalty>
0.0121253

> <b_epik_Metal_Only>
0

> <s_lp_Force_Field>
OPLS_2005

> <r_lp_Energy>
57.6991

> <b_lp_Chiralities_Consistent>
1

> <s_lp_Variant>
AV-unprocessed.smi:21-6

> <Gold.Version>
5.8.1

> <Gold.Id.Protein>
6NUR|6NUR_protein|mol2

> <Gold.PLP.Fitness>
54.2682

> <Gold.PLP.PLP>
-46.2748

> <Gold.PLP.part.hbond>
-4.8096

> <Gold.PLP.part.metal>
0.0000

> <Gold.PLP.part.buried>
-5.2629

> <Gold.PLP.part.nonpolar>
-37.7300

> <Gold.PLP.part.repulsive>
0.3426

> <Gold.PLP.ligand.clash>
0.0000

> <Gold.PLP.ligand.torsion>
2.4425

> <Gold.PLP.Chemscore.Hbond>
4.0560

> <Gold.PLP.Chemscore.CHOScore>
0.0000

> <Gold.PLP.Chemscore.Metal>
0.0000

> <Gold.Chemscore.Hbonds>
donor molecule, donor type, donor heavy atom, donor atom, acceptor molecule, acceptor atom, score
      L1  H    21    49       P1  8028  0.16
      L1  H    27    62       P1  7948  2.00
      P1  H  7997  8009       L1    12  1.00
      P1  H 10752 10764       L1    10  0.75

> <Gold.PLP.Chemscore.Internal.Correction>
0.7104

> <Gold.Rescore>
     Score         DG    S(hbond)    S(metal)    S(lipo)     H(rot)  DE(clash)    DE(int)     intcor
     15.06     -18.22       2.46        0.00     105.98       3.08       0.79       2.37       ----

> <Gold.Chemscore.Fitness>
15.0608

> <Gold.Chemscore.DG>
-18.2220

> <Gold.Chemscore.ZeroCoef>
-5.4800

> <Gold.Chemscore.Hbond>
2.4601

> <Gold.Chemscore.Metal>
0.0000

> <Gold.Chemscore.Lipo>
105.9768

> <Gold.Chemscore.Internal_Hbond>
0.0000

> <Gold.Chemscore.DEClash>
0.7898

> <Gold.Chemscore.DEInternal>
2.3715

> <Gold.Chemscore.Rot>
3.0758

> <Gold.Chemscore.Internal.Correction>
   9.000000E+99

> <Gold.Chemscore.Hbonds>
donor molecule, donor type, donor heavy atom, donor atom, acceptor molecule, acceptor atom, score
      L1  H    21    49       P1  8028  0.16
      L1  H    27    62       P1  7948  1.00
      P1  H  7997  8009       L1    12  0.85
      P1  H 10752 10764       L1    10  0.45

> <Gold.Chemscore.Hbond.Weighted>
-8.2169

> <Gold.Chemscore.Metal.Weighted>
-0.0000

> <Gold.Chemscore.Lipo.Weighted>
-12.3993

> <Gold.Chemscore.Internal_Hbond.Weighted>
0.0000

> <Gold.Chemscore.DEClash.Weighted>
0.7898

> <Gold.Chemscore.DEInternal.Weighted>
2.3715

> <Gold.Chemscore.Rot.Weighted>
7.8741

> <Gold.Chemscore.Internal.Correction.Weighted>
   9.000000E+99

> <Gold.Protein.RotatedTorsions>
[ 6907 6896 6895 6894 ] final -150.45 input  -60.11 | X-H torsion
[ 7974 7965 7964 7962 ] final   73.28 input  175.53 | X-H torsion
[ 8008 7997 7996 7995 ] final -157.46 input   59.86 | X-H torsion
[ 10167 10162 10161 10158 ] final  -56.86 input  -65.29 | X-H torsion
[ 10718 10713 10712 10709 ] final  -67.40 input   66.30 | X-H torsion
[ 10763 10752 10751 10750 ] final  -81.38 input  -60.55 | X-H torsion
[ 11005 11000 10999 10996 ] final -136.32 input  -57.11 | X-H torsion

> <Gold.Protein.ActiveResidues>
 VAL166  LYS551  ARG553  GLY616  TRP617  ASP618  TYR619  PRO620  LYS621  CYS622 
 ASP623  PHE694  ASN695  SER759  ASP760  ASP761  ALA762  ILE779  LEU786  VAL792 
 PHE793  MET794  SER795  GLU796  ALA797  LYS798  CYS799  TRP800  GLU811  SER814 

> <Gold.Protein.RotatedAtoms>
  151.1988  133.4623  159.2595 H   0  0  0  0  0  0  0  0  0  0  0  0  # atno 6907 bound_to 6896
  151.1090  135.0016  159.8495 H   0  0  0  0  0  0  0  0  0  0  0  0  # atno 6908 bound_to 6896
  152.5449  134.1908  159.8726 H   0  0  0  0  0  0  0  0  0  0  0  0  # atno 6909 bound_to 6896
  145.7428  139.2728  143.1476 H   0  0  0  0  0  0  0  0  0  0  0  0  # atno 7974 bound_to 7965
  155.7327  140.0804  157.2281 H   0  0  0  0  0  0  0  0  0  0  0  0  # atno 8008 bound_to 7997
  154.4031  140.1592  156.2582 H   0  0  0  0  0  0  0  0  0  0  0  0  # atno 8009 bound_to 7997
  155.9094  140.3405  155.6090 H   0  0  0  0  0  0  0  0  0  0  0  0  # atno 8010 bound_to 7997
  140.6292  143.2452  151.5284 H   0  0  0  0  0  0  0  0  0  0  0  0  # atno 10167 bound_to 10162
  156.0560  130.4277  150.1849 H   0  0  0  0  0  0  0  0  0  0  0  0  # atno 10718 bound_to 10713
  154.5628  135.5628  153.7023 H   0  0  0  0  0  0  0  0  0  0  0  0  # atno 10763 bound_to 10752
  153.0023  135.6278  154.2221 H   0  0  0  0  0  0  0  0  0  0  0  0  # atno 10764 bound_to 10752
  154.2159  135.2871  155.2922 H   0  0  0  0  0  0  0  0  0  0  0  0  # atno 10765 bound_to 10752
  140.8816  134.1925  157.4587 H   0  0  0  0  0  0  0  0  0  0  0  0  # atno 11005 bound_to 11000
  146.0431  140.8145  142.9819 LP  0  0  0  0  0  0  0  0  0  0  0  0  # atno 17320 bound_to 7965
  144.6867  140.2940  143.7273 LP  0  0  0  0  0  0  0  0  0  0  0  0  # atno 17321 bound_to 7965
  139.5509  144.2399  152.1528 LP  0  0  0  0  0  0  0  0  0  0  0  0  # atno 17342 bound_to 10162
  140.1639  144.5000  150.6617 LP  0  0  0  0  0  0  0  0  0  0  0  0  # atno 17343 bound_to 10162
  156.9925  130.9897  151.3411 LP  0  0  0  0  0  0  0  0  0  0  0  0  # atno 17370 bound_to 10713
  157.5529  130.8194  149.8168 LP  0  0  0  0  0  0  0  0  0  0  0  0  # atno 17371 bound_to 10713
  139.8720  134.9819  156.5137 LP  0  0  0  0  0  0  0  0  0  0  0  0  # atno 17394 bound_to 11000
  140.8455  133.8172  155.9116 LP  0  0  0  0  0  0  0  0  0  0  0  0  # atno 17395 bound_to 11000

$$$$
