AV-unprocessed.smi:221|AV-procd|sdf|1695|dock3
  -GOLD-   2262020143D 1   1.00000     0.00000
 Structure written by MMmdl.
 50 53  0  0  0  0  0  0  0  0  1 V2000
  147.8409  137.1394  163.7083 N   0  0  0  0  0  0  0  0  0  0  0  0
  147.3505  136.7503  162.5291 C   0  0  0  0  0  0  0  0  0  0  0  0
  146.5149  137.4167  161.9202 O   0  0  0  0  0  0  0  0  0  0  0  0
  147.8825  135.4192  161.9655 C   0  0  1  0  0  0  0  0  0  0  0  0
  147.4526  134.2157  162.8243 C   0  0  0  0  0  0  0  0  0  0  0  0
  146.1475  133.7275  162.1945 C   0  0  1  0  0  0  0  0  0  0  0  0
  145.1190  134.4291  162.6732 F   0  0  0  0  0  0  0  0  0  0  0  0
  146.3366  134.0336  160.7078 C   0  0  0  0  0  0  0  0  0  0  0  0
  147.3255  135.1066  160.6489 N   0  0  0  0  0  0  0  0  0  0  0  0
  147.7293  135.6604  159.4713 C   0  0  0  0  0  0  0  0  0  0  0  0
  146.9686  135.4254  158.3688 N   0  0  0  0  0  0  0  0  0  0  0  0
  147.3033  135.9378  157.1822 C   0  0  0  0  0  0  0  0  0  0  0  0
  148.3486  136.7035  156.8716 N   0  0  0  0  0  0  0  0  0  0  0  0
  149.1233  136.9449  157.9663 C   0  0  0  0  0  0  0  0  0  0  0  0
  148.8931  136.4707  159.2915 C   0  0  0  0  0  0  0  0  0  0  0  0
  149.9077  136.9338  160.1245 N   0  0  0  0  0  0  0  0  0  0  0  0
  150.6812  137.6372  159.3452 C   0  0  0  0  0  0  0  0  0  0  0  0
  150.2888  137.6877  158.0287 N   0  0  0  0  0  0  0  0  0  0  0  0
  150.9556  138.3865  156.9438 C   0  0  0  0  0  0  0  0  0  0  0  0
  150.8741  139.9286  157.0826 C   0  0  2  0  0  0  0  0  0  0  0  0
  150.5567  140.5989  155.7252 C   0  0  0  0  0  0  0  0  0  0  0  0
  151.3113  140.0212  154.6804 O   0  0  0  0  0  0  0  0  0  0  0  0
  152.1267  140.5575  157.7538 C   0  0  1  0  0  0  0  0  0  0  0  0
  152.0205  142.0302  158.1208 C   0  0  0  0  0  0  0  0  0  0  0  0
  153.0848  142.2018  159.2100 C   0  0  0  0  0  0  0  0  0  0  0  0
  153.5225  140.8910  159.5601 O   0  0  0  0  0  0  0  0  0  0  0  0
  152.5837  139.9434  159.0758 C   0  0  0  0  0  0  0  0  0  0  0  0
  148.9717  135.4469  161.9263 H   0  0  0  0  0  0  0  0  0  0  0  0
  145.9413  132.6753  162.3917 H   0  0  0  0  0  0  0  0  0  0  0  0
  147.5255  138.0063  164.1186 H   0  0  0  0  0  0  0  0  0  0  0  0
  148.5252  136.5695  164.1837 H   0  0  0  0  0  0  0  0  0  0  0  0
  148.2055  133.4307  162.7421 H   0  0  0  0  0  0  0  0  0  0  0  0
  147.3462  134.4475  163.8851 H   0  0  0  0  0  0  0  0  0  0  0  0
  146.7316  133.1590  160.1890 H   0  0  0  0  0  0  0  0  0  0  0  0
  145.3948  134.3152  160.2344 H   0  0  0  0  0  0  0  0  0  0  0  0
  146.6388  135.6988  156.3651 H   0  0  0  0  0  0  0  0  0  0  0  0
  151.5686  138.1336  159.7103 H   0  0  0  0  0  0  0  0  0  0  0  0
  151.9882  138.0418  156.9262 H   0  0  0  0  0  0  0  0  0  0  0  0
  150.5061  138.0633  156.0045 H   0  0  0  0  0  0  0  0  0  0  0  0
  150.0326  140.1439  157.7428 H   0  0  0  0  0  0  0  0  0  0  0  0
  149.4949  140.5212  155.4913 H   0  0  0  0  0  0  0  0  0  0  0  0
  150.8002  141.6607  155.7421 H   0  0  0  0  0  0  0  0  0  0  0  0
  151.5538  139.1433  154.9329 H   0  0  0  0  0  0  0  0  0  0  0  0
  152.9647  140.4822  157.0595 H   0  0  0  0  0  0  0  0  0  0  0  0
  152.1927  142.6826  157.2641 H   0  0  0  0  0  0  0  0  0  0  0  0
  151.0424  142.2778  158.5302 H   0  0  0  0  0  0  0  0  0  0  0  0
  153.9354  142.7835  158.8540 H   0  0  0  0  0  0  0  0  0  0  0  0
  152.6722  142.7070  160.0839 H   0  0  0  0  0  0  0  0  0  0  0  0
  151.7682  139.8628  159.7950 H   0  0  0  0  0  0  0  0  0  0  0  0
  153.0382  138.9601  158.9545 H   0  0  0  0  0  0  0  0  0  0  0  0
  1  2  1  0  0  0  0
  1 30  1  0  0  0  0
  1 31  1  0  0  0  0
  2  3  2  0  0  0  0
  2  4  1  0  0  0  0
  4 28  1  0  0  0  0
  4  9  1  0  0  0  0
  4  5  1  0  0  0  0
  5  6  1  0  0  0  0
  5 32  1  0  0  0  0
  5 33  1  0  0  0  0
  6 29  1  0  0  0  0
  6  7  1  0  0  0  0
  6  8  1  0  0  0  0
  8  9  1  0  0  0  0
  8 34  1  0  0  0  0
  8 35  1  0  0  0  0
  9 10  1  0  0  0  0
 10 15  1  0  0  0  0
 10 11  2  0  0  0  0
 11 12  1  0  0  0  0
 12 13  2  0  0  0  0
 12 36  1  0  0  0  0
 13 14  1  0  0  0  0
 14 18  1  0  0  0  0
 14 15  2  0  0  0  0
 15 16  1  0  0  0  0
 16 17  2  0  0  0  0
 17 18  1  0  0  0  0
 17 37  1  0  0  0  0
 18 19  1  0  0  0  0
 19 20  1  0  0  0  0
 19 38  1  0  0  0  0
 19 39  1  0  0  0  0
 20 21  1  0  0  0  0
 20 23  1  0  0  0  0
 20 40  1  0  0  0  0
 21 22  1  0  0  0  0
 21 41  1  0  0  0  0
 21 42  1  0  0  0  0
 22 43  1  0  0  0  0
 23 27  1  0  0  0  0
 23 24  1  0  0  0  0
 23 44  1  0  0  0  0
 24 25  1  0  0  0  0
 24 45  1  0  0  0  0
 24 46  1  0  0  0  0
 25 26  1  0  0  0  0
 25 47  1  0  0  0  0
 25 48  1  0  0  0  0
 26 27  1  0  0  0  0
 27 49  1  0  0  0  0
 27 50  1  0  0  0  0
M  END
> <s_m_source_file>
AV-unprocessed.smi

> <i_m_source_file_index>
221

> <i_lp_mmshare_version>
43012

> <i_f3d_flags>
0

> <s_epik_input>
W05IMl1DKD1PKVtDQEBIXTFbQ0gyXVtDQEBIXShGKVtDSDJdTjFjKG5bY0hdbjIpYyhjMjMpbltjSF1uM1tDSDJdW0NASF0oW0NIMl1bT0hdKVtDQEBIXTRbQ0gyXVtDSDJdT1tDSDJdNA==

> <s_epik_cmdline>
J2VwaWtfcHl0aG9uJywgJy1waCcsICc3LjAnLCAnLXRuJywgJzgnLCAnLW1hJywgJzIwMCcsICctbWV0YWxfYmluZGluZycsICctaW1hZScsICc8aW5maWxlLm1hZT4nLCAnLW9tYWUnLCAnPG91dGZpbGUubWFlPic=

> <r_lp_tautomer_probability>
1

> <r_epik_Ionization_Penalty>
0.000818822

> <r_epik_Ionization_Penalty_Charging>
0

> <r_epik_Ionization_Penalty_Neutral>
0.000818822

> <r_epik_State_Penalty>
0.000440551

> <r_epik_Charging_Adjusted_Penalty>
0.000440551

> <i_epik_Tot_Q>
0

> <i_epik_Tot_abs_Q>
0

> <r_epik_Metal_State_Penalty>
-0

> <b_epik_Metal_Only>
0

> <s_lp_Force_Field>
OPLS_2005

> <r_lp_Energy>
49.0425

> <b_lp_Chiralities_Consistent>
1

> <s_lp_Variant>
AV-unprocessed.smi:221-10

> <Gold.Version>
5.8.1

> <Gold.Id.Protein>
6NUR|6NUR_protein|mol2

> <Gold.PLP.Fitness>
45.4018

> <Gold.PLP.PLP>
-40.5986

> <Gold.PLP.part.hbond>
-2.8912

> <Gold.PLP.part.metal>
0.0000

> <Gold.PLP.part.buried>
-4.8454

> <Gold.PLP.part.nonpolar>
-33.9187

> <Gold.PLP.part.repulsive>
0.7732

> <Gold.PLP.ligand.clash>
0.0000

> <Gold.PLP.ligand.torsion>
1.0065

> <Gold.PLP.Chemscore.Hbond>
2.2000

> <Gold.PLP.Chemscore.CHOScore>
0.0000

> <Gold.PLP.Chemscore.Metal>
0.0000

> <Gold.Chemscore.Hbonds>
donor molecule, donor type, donor heavy atom, donor atom, acceptor molecule, acceptor atom, score
      P1  H  6931  6943       L1    16  0.08
      P1  H  6934  6947       L1     3  0.86
      P1  H  7989  7998       L1    22  0.89

> <Gold.PLP.Chemscore.Internal.Correction>
0.2163

> <Gold.Rescore>
     Score         DG    S(hbond)    S(metal)    S(lipo)     H(rot)  DE(clash)    DE(int)     intcor
     10.95     -13.47       2.06        0.00      81.83       3.31       1.30       1.22       ----

> <Gold.Chemscore.Fitness>
10.9458

> <Gold.Chemscore.DG>
-13.4668

> <Gold.Chemscore.ZeroCoef>
-5.4800

> <Gold.Chemscore.Hbond>
2.0610

> <Gold.Chemscore.Metal>
0.0000

> <Gold.Chemscore.Lipo>
81.8273

> <Gold.Chemscore.Internal_Hbond>
0.0000

> <Gold.Chemscore.DEClash>
1.2980

> <Gold.Chemscore.DEInternal>
1.2231

> <Gold.Chemscore.Rot>
3.3089

> <Gold.Chemscore.Internal.Correction>
   9.000000E+99

> <Gold.Chemscore.Hbonds>
donor molecule, donor type, donor heavy atom, donor atom, acceptor molecule, acceptor atom, score
      P1  H  6931  6943       L1    16  0.05
      P1  H  6934  6947       L1     3  0.78
      P1  H  7989  7998       L1    22  0.83

> <Gold.Chemscore.Hbond.Weighted>
-6.8839

> <Gold.Chemscore.Metal.Weighted>
-0.0000

> <Gold.Chemscore.Lipo.Weighted>
-9.5738

> <Gold.Chemscore.Internal_Hbond.Weighted>
0.0000

> <Gold.Chemscore.DEClash.Weighted>
1.2980

> <Gold.Chemscore.DEInternal.Weighted>
1.2231

> <Gold.Chemscore.Rot.Weighted>
8.4709

> <Gold.Chemscore.Internal.Correction.Weighted>
   9.000000E+99

> <Gold.Protein.RotatedTorsions>
[ 6907 6896 6895 6894 ] final   49.91 input  -60.11 | X-H torsion
[ 7974 7965 7964 7962 ] final  -92.62 input  175.53 | X-H torsion
[ 8008 7997 7996 7995 ] final  125.63 input   59.86 | X-H torsion
[ 10167 10162 10161 10158 ] final   62.62 input  -65.29 | X-H torsion
[ 10718 10713 10712 10709 ] final  147.63 input   66.30 | X-H torsion
[ 10763 10752 10751 10750 ] final  128.78 input  -60.55 | X-H torsion
[ 11005 11000 10999 10996 ] final   96.06 input  -57.11 | X-H torsion

> <Gold.Protein.ActiveResidues>
 VAL166  LYS551  ARG553  GLY616  TRP617  ASP618  TYR619  PRO620  LYS621  CYS622 
 ASP623  PHE694  ASN695  SER759  ASP760  ASP761  ALA762  ILE779  LEU786  VAL792 
 PHE793  MET794  SER795  GLU796  ALA797  LYS798  CYS799  TRP800  GLU811  SER814 

> <Gold.Protein.RotatedAtoms>
  152.2960  134.7666  160.0367 H   0  0  0  0  0  0  0  0  0  0  0  0  # atno 6907 bound_to 6896
  151.8196  133.3387  159.3588 H   0  0  0  0  0  0  0  0  0  0  0  0  # atno 6908 bound_to 6896
  150.7252  134.5516  159.5842 H   0  0  0  0  0  0  0  0  0  0  0  0  # atno 6909 bound_to 6896
  145.3974  140.9534  143.2306 H   0  0  0  0  0  0  0  0  0  0  0  0  # atno 7974 bound_to 7965
  156.2840  140.2712  156.1980 H   0  0  0  0  0  0  0  0  0  0  0  0  # atno 8008 bound_to 7997
  155.0390  140.0386  157.2520 H   0  0  0  0  0  0  0  0  0  0  0  0  # atno 8009 bound_to 7997
  154.7290  140.2703  155.6478 H   0  0  0  0  0  0  0  0  0  0  0  0  # atno 8010 bound_to 7997
  140.1419  144.4545  150.6806 H   0  0  0  0  0  0  0  0  0  0  0  0  # atno 10167 bound_to 10162
  157.3187  131.0900  151.1258 H   0  0  0  0  0  0  0  0  0  0  0  0  # atno 10718 bound_to 10713
  153.7311  135.3238  155.3286 H   0  0  0  0  0  0  0  0  0  0  0  0  # atno 10763 bound_to 10752
  154.8325  135.4522  154.1120 H   0  0  0  0  0  0  0  0  0  0  0  0  # atno 10764 bound_to 10752
  153.2268  135.6955  153.8016 H   0  0  0  0  0  0  0  0  0  0  0  0  # atno 10765 bound_to 10752
  139.8784  134.8931  156.4103 H   0  0  0  0  0  0  0  0  0  0  0  0  # atno 11005 bound_to 11000
  144.8398  139.5491  143.6905 LP  0  0  0  0  0  0  0  0  0  0  0  0  # atno 17320 bound_to 7965
  146.2768  139.6774  142.9257 LP  0  0  0  0  0  0  0  0  0  0  0  0  # atno 17321 bound_to 7965
  140.6755  143.2303  151.5517 LP  0  0  0  0  0  0  0  0  0  0  0  0  # atno 17342 bound_to 10162
  139.5468  144.2500  152.1457 LP  0  0  0  0  0  0  0  0  0  0  0  0  # atno 17343 bound_to 10162
  157.2552  130.6633  149.5949 LP  0  0  0  0  0  0  0  0  0  0  0  0  # atno 17370 bound_to 10713
  155.9684  130.4526  150.5779 LP  0  0  0  0  0  0  0  0  0  0  0  0  # atno 17371 bound_to 10713
  140.9205  133.7648  155.9900 LP  0  0  0  0  0  0  0  0  0  0  0  0  # atno 17394 bound_to 11000
  140.8445  134.3027  157.5300 LP  0  0  0  0  0  0  0  0  0  0  0  0  # atno 17395 bound_to 11000

$$$$
