AV-unprocessed.smi:2511|AV-procd|sdf|9888|dock6
  -GOLD-   2272013523D 1   1.00000     0.00000
 Structure written by MMmdl.
 40 41  0  0  0  0  0  0  0  0  1 V2000
  156.1916  131.8196  161.3390 N   0  0  0  0  0  0  0  0  0  0  0  0
  155.6024  132.1856  160.1955 C   0  0  0  0  0  0  0  0  0  0  0  0
  155.3727  131.3833  159.2918 O   0  0  0  0  0  0  0  0  0  0  0  0
  155.2741  133.6476  160.0510 C   0  0  0  0  0  0  0  0  0  0  0  0
  155.3715  134.5055  161.1703 C   0  0  0  0  0  0  0  0  0  0  0  0
  155.0695  135.8721  161.0158 C   0  0  0  0  0  0  0  0  0  0  0  0
  154.6745  136.3455  159.7427 C   0  0  0  0  0  0  0  0  0  0  0  0
  154.3587  137.6994  159.4501 N   0  0  0  0  0  0  0  0  0  0  0  0
  154.4445  138.7811  160.2496 C   0  0  0  0  0  0  0  0  0  0  0  0
  154.8445  138.7644  161.4114 O   0  0  0  0  0  0  0  0  0  0  0  0
  154.0271  139.9250  159.6766 N   0  0  0  0  0  0  0  0  0  0  0  0
  153.9838  141.2713  160.2523 C   0  0  2  0  0  0  0  0  0  0  0  0
  153.5514  141.1810  161.7268 C   0  0  0  0  0  0  0  0  0  0  0  0
  153.4313  142.5748  162.3606 C   0  0  0  0  0  0  0  0  0  0  0  0
  152.4719  143.4704  161.5617 C   0  0  0  0  0  0  0  0  0  0  0  0
  152.8976  143.5825  160.0827 C   0  0  2  0  0  0  0  0  0  0  0  0
  151.9511  144.4947  159.2752 C   0  0  0  0  0  0  0  0  0  0  0  0
  150.7365  143.9529  159.1792 F   0  0  0  0  0  0  0  0  0  0  0  0
  151.8471  145.6837  159.8690 F   0  0  0  0  0  0  0  0  0  0  0  0
  152.4367  144.6847  158.0483 F   0  0  0  0  0  0  0  0  0  0  0  0
  153.0172  142.1760  159.4576 C   0  0  0  0  0  0  0  0  0  0  0  0
  154.6270  135.4155  158.6847 C   0  0  0  0  0  0  0  0  0  0  0  0
  154.9132  134.1045  158.8271 N   0  0  0  0  0  0  0  0  0  0  0  0
  156.4335  130.8521  161.4945 H   0  0  0  0  0  0  0  0  0  0  0  0
  156.3881  132.5179  162.0417 H   0  0  0  0  0  0  0  0  0  0  0  0
  155.6734  134.1297  162.1372 H   0  0  0  0  0  0  0  0  0  0  0  0
  155.1605  136.5245  161.8699 H   0  0  0  0  0  0  0  0  0  0  0  0
  153.9493  137.8588  158.5412 H   0  0  0  0  0  0  0  0  0  0  0  0
  153.6959  139.8493  158.7254 H   0  0  0  0  0  0  0  0  0  0  0  0
  154.9838  141.7085  160.2293 H   0  0  0  0  0  0  0  0  0  0  0  0
  152.5920  140.6668  161.8020 H   0  0  0  0  0  0  0  0  0  0  0  0
  154.2681  140.5827  162.2911 H   0  0  0  0  0  0  0  0  0  0  0  0
  153.0836  142.4851  163.3902 H   0  0  0  0  0  0  0  0  0  0  0  0
  154.4157  143.0423  162.4064 H   0  0  0  0  0  0  0  0  0  0  0  0
  151.4609  143.0666  161.6265 H   0  0  0  0  0  0  0  0  0  0  0  0
  152.4374  144.4597  162.0187 H   0  0  0  0  0  0  0  0  0  0  0  0
  153.8882  144.0399  160.0574 H   0  0  0  0  0  0  0  0  0  0  0  0
  153.3566  142.2639  158.4254 H   0  0  0  0  0  0  0  0  0  0  0  0
  152.0318  141.7098  159.4152 H   0  0  0  0  0  0  0  0  0  0  0  0
  154.3454  135.7313  157.6906 H   0  0  0  0  0  0  0  0  0  0  0  0
  1  2  1  0  0  0  0
  1 24  1  0  0  0  0
  1 25  1  0  0  0  0
  2  3  2  0  0  0  0
  2  4  1  0  0  0  0
  4 23  1  0  0  0  0
  4  5  2  0  0  0  0
  5  6  1  0  0  0  0
  5 26  1  0  0  0  0
  6  7  2  0  0  0  0
  6 27  1  0  0  0  0
  7  8  1  0  0  0  0
  7 22  1  0  0  0  0
  8  9  1  0  0  0  0
  8 28  1  0  0  0  0
  9 10  2  0  0  0  0
  9 11  1  0  0  0  0
 11 12  1  0  0  0  0
 11 29  1  0  0  0  0
 12 21  1  0  0  0  0
 12 13  1  0  0  0  0
 12 30  1  0  0  0  0
 13 14  1  0  0  0  0
 13 31  1  0  0  0  0
 13 32  1  0  0  0  0
 14 15  1  0  0  0  0
 14 33  1  0  0  0  0
 14 34  1  0  0  0  0
 15 16  1  0  0  0  0
 15 35  1  0  0  0  0
 15 36  1  0  0  0  0
 16 17  1  0  0  0  0
 16 21  1  0  0  0  0
 16 37  1  0  0  0  0
 17 18  1  0  0  0  0
 17 19  1  0  0  0  0
 17 20  1  0  0  0  0
 21 38  1  0  0  0  0
 21 39  1  0  0  0  0
 22 23  2  0  0  0  0
 22 40  1  0  0  0  0
M  END
> <s_m_source_file>
AV-unprocessed.smi

> <i_m_source_file_index>
2511

> <i_lp_mmshare_version>
43012

> <i_f3d_flags>
0

> <s_epik_input>
W05IMl1DKD1PKWMxW2NIXVtjSF1jKFtjSF1uMSlbTkhdQyg9TylbTkhdW0NAQEhdMltDSDJdW0NIMl1bQ0gyXVtDQEBIXShDKEYpKEYpRilbQ0gyXTI=

> <s_epik_cmdline>
J2VwaWtfcHl0aG9uJywgJy1waCcsICc3LjAnLCAnLXRuJywgJzgnLCAnLW1hJywgJzIwMCcsICctbWV0YWxfYmluZGluZycsICctaW1hZScsICc8aW5maWxlLm1hZT4nLCAnLW9tYWUnLCAnPG91dGZpbGUubWFlPic=

> <r_lp_tautomer_probability>
1

> <r_epik_Ionization_Penalty>
4.28758e-05

> <r_epik_Ionization_Penalty_Charging>
0

> <r_epik_Ionization_Penalty_Neutral>
4.28758e-05

> <r_epik_State_Penalty>
-0

> <r_epik_Charging_Adjusted_Penalty>
0

> <i_epik_Tot_Q>
0

> <i_epik_Tot_abs_Q>
0

> <r_epik_Metal_State_Penalty>
-0

> <b_epik_Metal_Only>
0

> <s_lp_Force_Field>
OPLS_2005

> <r_lp_Energy>
28.5247

> <b_lp_Chiralities_Consistent>
1

> <s_lp_Variant>
AV-unprocessed.smi:2511-3

> <Gold.Version>
5.8.1

> <Gold.Id.Protein>
6NUR|6NUR_protein|mol2

> <Gold.PLP.Fitness>
43.8694

> <Gold.PLP.PLP>
-44.6081

> <Gold.PLP.part.hbond>
0.0000

> <Gold.PLP.part.metal>
0.0000

> <Gold.PLP.part.buried>
-5.2007

> <Gold.PLP.part.nonpolar>
-38.6789

> <Gold.PLP.part.repulsive>
0.1435

> <Gold.PLP.ligand.clash>
0.0000

> <Gold.PLP.ligand.torsion>
0.3806

> <Gold.PLP.Chemscore.Hbond>
0.0000

> <Gold.PLP.Chemscore.CHOScore>
0.0000

> <Gold.PLP.Chemscore.Metal>
0.0000

> <Gold.PLP.Chemscore.Internal.Correction>
0.0225

> <Gold.Rescore>
     Score         DG    S(hbond)    S(metal)    S(lipo)     H(rot)  DE(clash)    DE(int)     intcor
     11.16     -14.29       0.00        0.00      97.14       1.00       0.02       3.11       ----

> <Gold.Chemscore.Fitness>
11.1603

> <Gold.Chemscore.DG>
-14.2854

> <Gold.Chemscore.ZeroCoef>
-5.4800

> <Gold.Chemscore.Hbond>
0.0000

> <Gold.Chemscore.Metal>
0.0000

> <Gold.Chemscore.Lipo>
97.1399

> <Gold.Chemscore.Internal_Hbond>
0.0000

> <Gold.Chemscore.DEClash>
0.0153

> <Gold.Chemscore.DEInternal>
3.1098

> <Gold.Chemscore.Rot>
1.0000

> <Gold.Chemscore.Internal.Correction>
   9.000000E+99

> <Gold.Chemscore.Hbond.Weighted>
-0.0000

> <Gold.Chemscore.Metal.Weighted>
-0.0000

> <Gold.Chemscore.Lipo.Weighted>
-11.3654

> <Gold.Chemscore.Internal_Hbond.Weighted>
0.0000

> <Gold.Chemscore.DEClash.Weighted>
0.0153

> <Gold.Chemscore.DEInternal.Weighted>
3.1098

> <Gold.Chemscore.Rot.Weighted>
2.5600

> <Gold.Chemscore.Internal.Correction.Weighted>
   9.000000E+99

> <Gold.Protein.RotatedTorsions>
[ 6907 6896 6895 6894 ] final  -46.18 input  -60.11 | X-H torsion
[ 7974 7965 7964 7962 ] final   21.69 input  175.53 | X-H torsion
[ 8008 7997 7996 7995 ] final  119.51 input   59.86 | X-H torsion
[ 10167 10162 10161 10158 ] final -131.97 input  -65.29 | X-H torsion
[ 10718 10713 10712 10709 ] final  -97.89 input   66.30 | X-H torsion
[ 10763 10752 10751 10750 ] final  -72.29 input  -60.55 | X-H torsion
[ 11005 11000 10999 10996 ] final  -48.29 input  -57.11 | X-H torsion

> <Gold.Protein.ActiveResidues>
 VAL166  LYS551  ARG553  GLY616  TRP617  ASP618  TYR619  PRO620  LYS621  CYS622 
 ASP623  PHE694  ASN695  SER759  ASP760  ASP761  ALA762  ILE779  LEU786  VAL792 
 PHE793  MET794  SER795  GLU796  ALA797  LYS798  CYS799  TRP800  GLU811  SER814 

> <Gold.Protein.RotatedAtoms>
  150.9140  134.8557  159.7444 H   0  0  0  0  0  0  0  0  0  0  0  0  # atno 6907 bound_to 6896
  152.4959  134.4317  159.9524 H   0  0  0  0  0  0  0  0  0  0  0  0  # atno 6908 bound_to 6896
  151.4356  133.3618  159.2810 H   0  0  0  0  0  0  0  0  0  0  0  0  # atno 6909 bound_to 6896
  146.2060  139.7991  142.8725 H   0  0  0  0  0  0  0  0  0  0  0  0  # atno 7974 bound_to 7965
  156.2599  140.2851  156.1003 H   0  0  0  0  0  0  0  0  0  0  0  0  # atno 8008 bound_to 7997
  155.1366  140.0395  157.2806 H   0  0  0  0  0  0  0  0  0  0  0  0  # atno 8009 bound_to 7997
  154.6560  140.2555  155.7167 H   0  0  0  0  0  0  0  0  0  0  0  0  # atno 8010 bound_to 7997
  139.9134  143.6467  152.2570 H   0  0  0  0  0  0  0  0  0  0  0  0  # atno 10167 bound_to 10162
  156.0094  130.5214  150.6441 H   0  0  0  0  0  0  0  0  0  0  0  0  # atno 10718 bound_to 10713
  154.4436  135.5935  153.6145 H   0  0  0  0  0  0  0  0  0  0  0  0  # atno 10763 bound_to 10752
  152.9807  135.6004  154.3692 H   0  0  0  0  0  0  0  0  0  0  0  0  # atno 10764 bound_to 10752
  154.3545  135.2841  155.2333 H   0  0  0  0  0  0  0  0  0  0  0  0  # atno 10765 bound_to 10752
  141.0692  133.6684  156.3420 H   0  0  0  0  0  0  0  0  0  0  0  0  # atno 11005 bound_to 11000
  145.3315  141.0267  143.3443 LP  0  0  0  0  0  0  0  0  0  0  0  0  # atno 17320 bound_to 7965
  144.8795  139.4924  143.6729 LP  0  0  0  0  0  0  0  0  0  0  0  0  # atno 17321 bound_to 7965
  139.6923  144.7645  151.1417 LP  0  0  0  0  0  0  0  0  0  0  0  0  # atno 17342 bound_to 10162
  140.7680  143.5572  150.9139 LP  0  0  0  0  0  0  0  0  0  0  0  0  # atno 17343 bound_to 10162
  157.4215  131.0837  151.1126 LP  0  0  0  0  0  0  0  0  0  0  0  0  # atno 17370 bound_to 10713
  157.1726  130.6274  149.5645 LP  0  0  0  0  0  0  0  0  0  0  0  0  # atno 17371 bound_to 10713
  140.5710  134.5841  157.5457 LP  0  0  0  0  0  0  0  0  0  0  0  0  # atno 17394 bound_to 11000
  139.9506  134.7623  156.0457 LP  0  0  0  0  0  0  0  0  0  0  0  0  # atno 17395 bound_to 11000

$$$$
