AV-unprocessed.smi:2272|AV-procd|sdf|9162|dock9
  -GOLD-   2272012373D 1   1.00000     0.00000
 Structure written by MMmdl.
 41 42  0  0  0  0  0  0  0  0  1 V2000
  152.1900  144.0053  161.1667 C   0  0  0  0  0  0  0  0  0  0  0  0
  151.9734  143.1762  159.9132 C   0  0  0  0  0  0  0  0  0  0  0  0
  151.0412  143.6861  159.0055 N   0  0  0  0  0  0  0  0  0  0  0  0
  150.8039  143.0545  157.9029 C   0  0  0  0  0  0  0  0  0  0  0  0
  151.4636  141.8569  157.5788 N   0  0  0  0  0  0  0  0  0  0  0  0
  151.1123  141.2580  156.2783 C   0  0  0  0  0  0  0  0  0  0  0  0
  149.6159  140.8823  156.1831 C   0  0  2  0  0  0  0  0  0  0  0  0
  149.2400  140.0888  157.2887 O   0  0  0  0  0  0  0  0  0  0  0  0
  149.1929  140.1716  154.8860 C   0  0  0  0  0  0  0  0  0  0  0  0
  147.8555  140.5148  154.5495 O   0  0  0  0  0  0  0  0  0  0  0  0
  147.7239  141.7860  153.9273 C   0  0  0  0  0  0  0  0  0  0  0  0
  146.4998  142.5571  154.3938 C   0  0  0  0  0  0  0  0  0  0  0  0
  145.8801  143.4878  153.5330 C   0  0  0  0  0  0  0  0  0  0  0  0
  144.7436  144.2018  153.9592 C   0  0  0  0  0  0  0  0  0  0  0  0
  144.2253  143.9940  155.2515 C   0  0  0  0  0  0  0  0  0  0  0  0
  144.8437  143.0709  156.1165 C   0  0  0  0  0  0  0  0  0  0  0  0
  145.9784  142.3534  155.6906 C   0  0  0  0  0  0  0  0  0  0  0  0
  146.5614  141.4660  156.5320 F   0  0  0  0  0  0  0  0  0  0  0  0
  152.3686  141.2780  158.4207 C   0  0  0  0  0  0  0  0  0  0  0  0
  152.9227  140.2135  158.1449 O   0  0  0  0  0  0  0  0  0  0  0  0
  152.6335  142.0114  159.6692 C   0  0  0  0  0  0  0  0  0  0  0  0
  153.6625  141.4130  160.6197 C   0  0  0  0  0  0  0  0  0  0  0  0
  153.2378  144.2926  161.2599 H   0  0  0  0  0  0  0  0  0  0  0  0
  151.9031  143.4387  162.0531 H   0  0  0  0  0  0  0  0  0  0  0  0
  151.5941  144.9188  161.1469 H   0  0  0  0  0  0  0  0  0  0  0  0
  150.0872  143.4095  157.1598 H   0  0  0  0  0  0  0  0  0  0  0  0
  151.3867  141.9084  155.4461 H   0  0  0  0  0  0  0  0  0  0  0  0
  151.7180  140.3617  156.1288 H   0  0  0  0  0  0  0  0  0  0  0  0
  149.0207  141.7919  156.2701 H   0  0  0  0  0  0  0  0  0  0  0  0
  148.3719  140.3478  157.5587 H   0  0  0  0  0  0  0  0  0  0  0  0
  149.8735  140.4333  154.0741 H   0  0  0  0  0  0  0  0  0  0  0  0
  149.2685  139.0936  155.0294 H   0  0  0  0  0  0  0  0  0  0  0  0
  148.6132  142.3678  154.1700 H   0  0  0  0  0  0  0  0  0  0  0  0
  147.7215  141.6883  152.8404 H   0  0  0  0  0  0  0  0  0  0  0  0
  146.2727  143.6520  152.5400 H   0  0  0  0  0  0  0  0  0  0  0  0
  144.2695  144.9091  153.2945 H   0  0  0  0  0  0  0  0  0  0  0  0
  143.3532  144.5404  155.5791 H   0  0  0  0  0  0  0  0  0  0  0  0
  144.4450  142.9094  157.1071 H   0  0  0  0  0  0  0  0  0  0  0  0
  154.6484  141.4261  160.1562 H   0  0  0  0  0  0  0  0  0  0  0  0
  153.4100  140.3778  160.8521 H   0  0  0  0  0  0  0  0  0  0  0  0
  153.7359  141.9479  161.5651 H   0  0  0  0  0  0  0  0  0  0  0  0
  1  2  1  0  0  0  0
  1 23  1  0  0  0  0
  1 24  1  0  0  0  0
  1 25  1  0  0  0  0
  2 21  2  0  0  0  0
  2  3  1  0  0  0  0
  3  4  2  0  0  0  0
  4  5  1  0  0  0  0
  4 26  1  0  0  0  0
  5  6  1  0  0  0  0
  5 19  1  0  0  0  0
  6  7  1  0  0  0  0
  6 27  1  0  0  0  0
  6 28  1  0  0  0  0
  7  8  1  0  0  0  0
  7  9  1  0  0  0  0
  7 29  1  0  0  0  0
  8 30  1  0  0  0  0
  9 10  1  0  0  0  0
  9 31  1  0  0  0  0
  9 32  1  0  0  0  0
 10 11  1  0  0  0  0
 11 12  1  0  0  0  0
 11 33  1  0  0  0  0
 11 34  1  0  0  0  0
 12 17  1  0  0  0  0
 12 13  2  0  0  0  0
 13 14  1  0  0  0  0
 13 35  1  0  0  0  0
 14 15  2  0  0  0  0
 14 36  1  0  0  0  0
 15 16  1  0  0  0  0
 15 37  1  0  0  0  0
 16 17  2  0  0  0  0
 16 38  1  0  0  0  0
 17 18  1  0  0  0  0
 19 20  2  0  0  0  0
 19 21  1  0  0  0  0
 21 22  1  0  0  0  0
 22 39  1  0  0  0  0
 22 40  1  0  0  0  0
 22 41  1  0  0  0  0
M  END
> <s_m_source_file>
AV-unprocessed.smi

> <i_m_source_file_index>
2272

> <i_lp_mmshare_version>
43012

> <i_f3d_flags>
0

> <s_epik_input>
W0NIM11jMW5bY0hdbihjKD1PKWMxW0NIM10pW0NIMl1bQ0BIXShbT0hdKVtDSDJdT1tDSDJdYzJbY0hdW2NIXVtjSF1bY0hdYzJG

> <s_epik_cmdline>
J2VwaWtfcHl0aG9uJywgJy1waCcsICc3LjAnLCAnLXRuJywgJzgnLCAnLW1hJywgJzIwMCcsICctbWV0YWxfYmluZGluZycsICctaW1hZScsICc8aW5maWxlLm1hZT4nLCAnLW9tYWUnLCAnPG91dGZpbGUubWFlPic=

> <r_lp_tautomer_probability>
1

> <r_epik_Ionization_Penalty>
5.35985e-05

> <r_epik_Ionization_Penalty_Charging>
1.17753e-07

> <r_epik_Ionization_Penalty_Neutral>
5.34808e-05

> <r_epik_State_Penalty>
-0

> <r_epik_Charging_Adjusted_Penalty>
1.17753e-07

> <i_epik_Tot_Q>
0

> <i_epik_Tot_abs_Q>
0

> <r_epik_Metal_State_Penalty>
-0

> <b_epik_Metal_Only>
0

> <s_lp_Force_Field>
OPLS_2005

> <r_lp_Energy>
20.6286

> <b_lp_Chiralities_Consistent>
1

> <s_lp_Variant>
AV-unprocessed.smi:2272-1

> <Gold.Version>
5.8.1

> <Gold.Id.Protein>
6NUR|6NUR_protein|mol2

> <Gold.PLP.Fitness>
49.2864

> <Gold.PLP.PLP>
-45.4300

> <Gold.PLP.part.hbond>
-1.0000

> <Gold.PLP.part.metal>
0.0000

> <Gold.PLP.part.buried>
-6.6366

> <Gold.PLP.part.nonpolar>
-38.1798

> <Gold.PLP.part.repulsive>
0.1875

> <Gold.PLP.ligand.clash>
0.0000

> <Gold.PLP.ligand.torsion>
1.1251

> <Gold.PLP.Chemscore.Hbond>
0.9920

> <Gold.PLP.Chemscore.CHOScore>
1.0000

> <Gold.PLP.Chemscore.Metal>
0.0000

> <Gold.Chemscore.Hbonds>
donor molecule, donor type, donor heavy atom, donor atom, acceptor molecule, acceptor atom, score
      P1  H  7997  8008       L1    20  0.98
      L1  C     4    26       P1  8028  1.00

> <Gold.PLP.Chemscore.Internal.Correction>
0.1306

> <Gold.Rescore>
     Score         DG    S(hbond)    S(metal)    S(lipo)     H(rot)  DE(clash)    DE(int)     intcor
     10.87     -13.63       0.92        0.00     102.07       2.69       0.01       2.75       ----

> <Gold.Chemscore.Fitness>
10.8709

> <Gold.Chemscore.DG>
-13.6264

> <Gold.Chemscore.ZeroCoef>
-5.4800

> <Gold.Chemscore.Hbond>
0.9220

> <Gold.Chemscore.Metal>
0.0000

> <Gold.Chemscore.Lipo>
102.0720

> <Gold.Chemscore.Internal_Hbond>
0.0000

> <Gold.Chemscore.DEClash>
0.0089

> <Gold.Chemscore.DEInternal>
2.7466

> <Gold.Chemscore.Rot>
2.6857

> <Gold.Chemscore.Internal.Correction>
   9.000000E+99

> <Gold.Chemscore.Hbonds>
donor molecule, donor type, donor heavy atom, donor atom, acceptor molecule, acceptor atom, score
      P1  H  7997  8008       L1    20  0.89

> <Gold.Chemscore.Hbond.Weighted>
-3.0794

> <Gold.Chemscore.Metal.Weighted>
-0.0000

> <Gold.Chemscore.Lipo.Weighted>
-11.9424

> <Gold.Chemscore.Internal_Hbond.Weighted>
0.0000

> <Gold.Chemscore.DEClash.Weighted>
0.0089

> <Gold.Chemscore.DEInternal.Weighted>
2.7466

> <Gold.Chemscore.Rot.Weighted>
6.8755

> <Gold.Chemscore.Internal.Correction.Weighted>
   9.000000E+99

> <Gold.Protein.RotatedTorsions>
[ 6907 6896 6895 6894 ] final  -37.26 input  -60.11 | X-H torsion
[ 7974 7965 7964 7962 ] final   80.19 input  175.53 | X-H torsion
[ 8008 7997 7996 7995 ] final  -80.52 input   59.86 | X-H torsion
[ 10167 10162 10161 10158 ] final -108.93 input  -65.29 | X-H torsion
[ 10718 10713 10712 10709 ] final -168.55 input   66.30 | X-H torsion
[ 10763 10752 10751 10750 ] final  -45.16 input  -60.55 | X-H torsion
[ 11005 11000 10999 10996 ] final   49.29 input  -57.11 | X-H torsion

> <Gold.Protein.ActiveResidues>
 VAL166  LYS551  ARG553  GLY616  TRP617  ASP618  TYR619  PRO620  LYS621  CYS622 
 ASP623  PHE694  ASN695  SER759  ASP760  ASP761  ALA762  ILE779  LEU786  VAL792 
 PHE793  MET794  SER795  GLU796  ALA797  LYS798  CYS799  TRP800  GLU811  SER814 

> <Gold.Protein.RotatedAtoms>
  151.0170  134.9440  159.8038 H   0  0  0  0  0  0  0  0  0  0  0  0  # atno 6907 bound_to 6896
  152.5316  134.2954  159.9068 H   0  0  0  0  0  0  0  0  0  0  0  0  # atno 6908 bound_to 6896
  151.2961  133.4101  159.2670 H   0  0  0  0  0  0  0  0  0  0  0  0  # atno 6909 bound_to 6896
  145.6545  139.2456  143.1958 H   0  0  0  0  0  0  0  0  0  0  0  0  # atno 7974 bound_to 7965
  154.5891  140.0661  156.9213 H   0  0  0  0  0  0  0  0  0  0  0  0  # atno 8008 bound_to 7997
  155.2327  140.3338  155.4283 H   0  0  0  0  0  0  0  0  0  0  0  0  # atno 8009 bound_to 7997
  156.2243  140.1812  156.7385 H   0  0  0  0  0  0  0  0  0  0  0  0  # atno 8010 bound_to 7997
  140.1609  143.4121  152.1426 H   0  0  0  0  0  0  0  0  0  0  0  0  # atno 10167 bound_to 10162
  156.6985  130.9187  151.3077 H   0  0  0  0  0  0  0  0  0  0  0  0  # atno 10718 bound_to 10713
  154.0239  135.6665  153.4775 H   0  0  0  0  0  0  0  0  0  0  0  0  # atno 10763 bound_to 10752
  153.0568  135.5051  154.7997 H   0  0  0  0  0  0  0  0  0  0  0  0  # atno 10764 bound_to 10752
  154.6920  135.3063  154.9430 H   0  0  0  0  0  0  0  0  0  0  0  0  # atno 10765 bound_to 10752
  140.1116  134.4947  155.8673 H   0  0  0  0  0  0  0  0  0  0  0  0  # atno 11005 bound_to 11000
  146.1176  140.7349  142.9473 LP  0  0  0  0  0  0  0  0  0  0  0  0  # atno 17320 bound_to 7965
  144.7111  140.4040  143.7080 LP  0  0  0  0  0  0  0  0  0  0  0  0  # atno 17321 bound_to 7965
  139.5382  144.7230  151.4823 LP  0  0  0  0  0  0  0  0  0  0  0  0  # atno 17342 bound_to 10162
  140.6644  143.8430  150.6924 LP  0  0  0  0  0  0  0  0  0  0  0  0  # atno 17343 bound_to 10162
  157.6982  130.9304  150.0706 LP  0  0  0  0  0  0  0  0  0  0  0  0  # atno 17370 bound_to 10713
  156.1745  130.3647  149.9119 LP  0  0  0  0  0  0  0  0  0  0  0  0  # atno 17371 bound_to 10713
  141.2131  133.6729  156.6716 LP  0  0  0  0  0  0  0  0  0  0  0  0  # atno 17394 bound_to 11000
  140.3083  134.8107  157.4155 LP  0  0  0  0  0  0  0  0  0  0  0  0  # atno 17395 bound_to 11000

$$$$
