AV-unprocessed.smi:2569|AV-procd|sdf|10103|dock7
  -GOLD-   2272014123D 1   1.00000     0.00000
 Structure written by MMmdl.
 39 41  0  0  0  0  0  0  0  0  1 V2000
  153.7108  142.7331  163.4334 C   0  0  0  0  0  0  0  0  0  0  0  0
  153.1481  142.8182  162.0255 C   0  0  0  0  0  0  0  0  0  0  0  0
  152.2350  143.8502  161.7114 C   0  0  0  0  0  0  0  0  0  0  0  0
  151.6884  143.9634  160.4144 C   0  0  0  0  0  0  0  0  0  0  0  0
  150.7942  144.8826  159.8927 N   0  0  0  0  0  0  0  0  0  0  0  0
  150.6766  144.4597  158.6374 C   0  0  0  0  0  0  0  0  0  0  0  0
  151.3912  143.3744  158.2831 N   0  0  0  0  0  0  0  0  0  0  0  0
  151.4204  142.7375  156.9786 C   0  0  0  0  0  0  0  0  0  0  0  0
  151.2977  141.2013  157.0674 C   0  0  1  0  0  0  0  0  0  0  0  0
  150.0466  140.8464  157.6225 O   0  0  0  0  0  0  0  0  0  0  0  0
  151.4322  140.4897  155.7068 C   0  0  0  0  0  0  0  0  0  0  0  0
  151.9517  139.1377  155.8280 N   0  0  0  0  0  0  0  0  0  0  0  0
  153.1247  138.8933  156.4635 N   0  0  0  0  0  0  0  0  0  0  0  0
  153.3149  137.6061  156.4156 N   0  0  0  0  0  0  0  0  0  0  0  0
  152.2840  136.9699  155.7498 N   0  0  0  0  0  0  0  0  0  0  0  0
  151.4718  137.9606  155.4058 C   0  0  0  0  0  0  0  0  0  0  0  0
  150.1891  137.8069  154.6568 C   0  0  0  0  0  0  0  0  0  0  0  0
  152.0814  143.0070  159.4330 C   0  0  0  0  0  0  0  0  0  0  0  0
  152.9889  141.9759  159.7332 C   0  0  0  0  0  0  0  0  0  0  0  0
  153.5280  141.8790  161.0332 C   0  0  0  0  0  0  0  0  0  0  0  0
  154.5110  140.7647  161.3458 C   0  0  0  0  0  0  0  0  0  0  0  0
  153.3231  143.5315  164.0667 H   0  0  0  0  0  0  0  0  0  0  0  0
  154.7975  142.8179  163.4169 H   0  0  0  0  0  0  0  0  0  0  0  0
  153.4440  141.7817  163.8940 H   0  0  0  0  0  0  0  0  0  0  0  0
  151.9463  144.5665  162.4665 H   0  0  0  0  0  0  0  0  0  0  0  0
  150.0341  144.9682  157.9335 H   0  0  0  0  0  0  0  0  0  0  0  0
  150.6156  143.1509  156.3694 H   0  0  0  0  0  0  0  0  0  0  0  0
  152.3543  143.0203  156.4917 H   0  0  0  0  0  0  0  0  0  0  0  0
  152.0685  140.8258  157.7411 H   0  0  0  0  0  0  0  0  0  0  0  0
  149.7040  140.1071  157.1436 H   0  0  0  0  0  0  0  0  0  0  0  0
  150.4646  140.4415  155.2061 H   0  0  0  0  0  0  0  0  0  0  0  0
  152.0909  141.0589  155.0486 H   0  0  0  0  0  0  0  0  0  0  0  0
  150.1142  136.8042  154.2350 H   0  0  0  0  0  0  0  0  0  0  0  0
  150.1353  138.5287  153.8416 H   0  0  0  0  0  0  0  0  0  0  0  0
  149.3437  137.9656  155.3262 H   0  0  0  0  0  0  0  0  0  0  0  0
  153.2699  141.2681  158.9674 H   0  0  0  0  0  0  0  0  0  0  0  0
  154.6837  140.1308  160.4755 H   0  0  0  0  0  0  0  0  0  0  0  0
  154.1312  140.1335  162.1494 H   0  0  0  0  0  0  0  0  0  0  0  0
  155.4717  141.1784  161.6537 H   0  0  0  0  0  0  0  0  0  0  0  0
  1  2  1  0  0  0  0
  1 22  1  0  0  0  0
  1 23  1  0  0  0  0
  1 24  1  0  0  0  0
  2 20  1  0  0  0  0
  2  3  2  0  0  0  0
  3  4  1  0  0  0  0
  3 25  1  0  0  0  0
  4 18  2  0  0  0  0
  4  5  1  0  0  0  0
  5  6  2  0  0  0  0
  6  7  1  0  0  0  0
  6 26  1  0  0  0  0
  7  8  1  0  0  0  0
  7 18  1  0  0  0  0
  8  9  1  0  0  0  0
  8 27  1  0  0  0  0
  8 28  1  0  0  0  0
  9 10  1  0  0  0  0
  9 11  1  0  0  0  0
  9 29  1  0  0  0  0
 10 30  1  0  0  0  0
 11 12  1  0  0  0  0
 11 31  1  0  0  0  0
 11 32  1  0  0  0  0
 12 16  1  0  0  0  0
 12 13  1  0  0  0  0
 13 14  2  0  0  0  0
 14 15  1  0  0  0  0
 15 16  2  0  0  0  0
 16 17  1  0  0  0  0
 17 33  1  0  0  0  0
 17 34  1  0  0  0  0
 17 35  1  0  0  0  0
 18 19  1  0  0  0  0
 19 20  2  0  0  0  0
 19 36  1  0  0  0  0
 20 21  1  0  0  0  0
 21 37  1  0  0  0  0
 21 38  1  0  0  0  0
 21 39  1  0  0  0  0
M  END
> <s_m_source_file>
AV-unprocessed.smi

> <i_m_source_file_index>
2569

> <i_lp_mmshare_version>
43012

> <i_f3d_flags>
0

> <s_epik_input>
W0NIM11jKFtjSF0xKWMoW0NIM10pW2NIXWMoYzEyKW4oW2NIXW4yKVtDSDJdW0NASF0oW09IXSlbQ0gyXW4zbm5uYzNbQ0gzXQ==

> <s_epik_cmdline>
J2VwaWtfcHl0aG9uJywgJy1waCcsICc3LjAnLCAnLXRuJywgJzgnLCAnLW1hJywgJzIwMCcsICctbWV0YWxfYmluZGluZycsICctaW1hZScsICc8aW5maWxlLm1hZT4nLCAnLW9tYWUnLCAnPG91dGZpbGUubWFlPic=

> <r_lp_tautomer_probability>
1

> <r_epik_Ionization_Penalty>
0.0946713

> <r_epik_Ionization_Penalty_Charging>
0

> <r_epik_Ionization_Penalty_Neutral>
0.0946713

> <r_epik_State_Penalty>
0.0848712

> <r_epik_Charging_Adjusted_Penalty>
0.0848712

> <i_epik_Tot_Q>
0

> <i_epik_Tot_abs_Q>
0

> <r_epik_Metal_State_Penalty>
0.0730911

> <b_epik_Metal_Only>
0

> <s_lp_Force_Field>
OPLS_2005

> <r_lp_Energy>
9.51249

> <b_lp_Chiralities_Consistent>
1

> <s_lp_Variant>
AV-unprocessed.smi:2569-2

> <Gold.Version>
5.8.1

> <Gold.Id.Protein>
6NUR|6NUR_protein|mol2

> <Gold.PLP.Fitness>
57.7020

> <Gold.PLP.PLP>
-49.9175

> <Gold.PLP.part.hbond>
-2.4864

> <Gold.PLP.part.metal>
0.0000

> <Gold.PLP.part.buried>
-6.0510

> <Gold.PLP.part.nonpolar>
-42.1566

> <Gold.PLP.part.repulsive>
0.1749

> <Gold.PLP.ligand.clash>
0.0000

> <Gold.PLP.ligand.torsion>
0.5148

> <Gold.PLP.Chemscore.Hbond>
1.9280

> <Gold.PLP.Chemscore.CHOScore>
1.0085

> <Gold.PLP.Chemscore.Metal>
0.0000

> <Gold.Chemscore.Hbonds>
donor molecule, donor type, donor heavy atom, donor atom, acceptor molecule, acceptor atom, score
      P1  H  7997  8010       L1    13  1.00
      P1  H 10752 10763       L1    15  0.91
      L1  C     6    26       P1  8028  0.40
      L1  C     6    26       P1  8029  0.61

> <Gold.PLP.Chemscore.Internal.Correction>
0.0047

> <Gold.Rescore>
     Score         DG    S(hbond)    S(metal)    S(lipo)     H(rot)  DE(clash)    DE(int)     intcor
     17.63     -18.51       1.71        0.00     117.86       2.53       0.28       0.60       ----

> <Gold.Chemscore.Fitness>
17.6329

> <Gold.Chemscore.DG>
-18.5132

> <Gold.Chemscore.ZeroCoef>
-5.4800

> <Gold.Chemscore.Hbond>
1.7105

> <Gold.Chemscore.Metal>
0.0000

> <Gold.Chemscore.Lipo>
117.8564

> <Gold.Chemscore.Internal_Hbond>
0.0000

> <Gold.Chemscore.DEClash>
0.2769

> <Gold.Chemscore.DEInternal>
0.6034

> <Gold.Chemscore.Rot>
2.5270

> <Gold.Chemscore.Internal.Correction>
   9.000000E+99

> <Gold.Chemscore.Hbonds>
donor molecule, donor type, donor heavy atom, donor atom, acceptor molecule, acceptor atom, score
      P1  H  7997  8010       L1    13  0.98
      P1  H 10752 10763       L1    15  0.45

> <Gold.Chemscore.Hbond.Weighted>
-5.7131

> <Gold.Chemscore.Metal.Weighted>
-0.0000

> <Gold.Chemscore.Lipo.Weighted>
-13.7892

> <Gold.Chemscore.Internal_Hbond.Weighted>
0.0000

> <Gold.Chemscore.DEClash.Weighted>
0.2769

> <Gold.Chemscore.DEInternal.Weighted>
0.6034

> <Gold.Chemscore.Rot.Weighted>
6.4691

> <Gold.Chemscore.Internal.Correction.Weighted>
   9.000000E+99

> <Gold.Protein.RotatedTorsions>
[ 6907 6896 6895 6894 ] final   25.63 input  -60.11 | X-H torsion
[ 7974 7965 7964 7962 ] final  -47.19 input  175.53 | X-H torsion
[ 8008 7997 7996 7995 ] final   65.23 input   59.86 | X-H torsion
[ 10167 10162 10161 10158 ] final   16.10 input  -65.29 | X-H torsion
[ 10718 10713 10712 10709 ] final  -19.39 input   66.30 | X-H torsion
[ 10763 10752 10751 10750 ] final   80.61 input  -60.55 | X-H torsion
[ 11005 11000 10999 10996 ] final   10.66 input  -57.11 | X-H torsion

> <Gold.Protein.ActiveResidues>
 VAL166  LYS551  ARG553  GLY616  TRP617  ASP618  TYR619  PRO620  LYS621  CYS622 
 ASP623  PHE694  ASN695  SER759  ASP760  ASP761  ALA762  ILE779  LEU786  VAL792 
 PHE793  MET794  SER795  GLU796  ALA797  LYS798  CYS799  TRP800  GLU811  SER814 

> <Gold.Protein.RotatedAtoms>
  151.9754  135.0056  160.0554 H   0  0  0  0  0  0  0  0  0  0  0  0  # atno 6907 bound_to 6896
  152.1745  133.4661  159.4934 H   0  0  0  0  0  0  0  0  0  0  0  0  # atno 6908 bound_to 6896
  150.6907  134.1829  159.4298 H   0  0  0  0  0  0  0  0  0  0  0  0  # atno 6909 bound_to 6896
  145.9642  140.7449  142.9442 H   0  0  0  0  0  0  0  0  0  0  0  0  # atno 7974 bound_to 7965
  155.6585  140.3497  155.4774 H   0  0  0  0  0  0  0  0  0  0  0  0  # atno 8008 bound_to 7997
  155.9788  140.1170  157.0768 H   0  0  0  0  0  0  0  0  0  0  0  0  # atno 8009 bound_to 7997
  154.4186  140.1142  156.5393 H   0  0  0  0  0  0  0  0  0  0  0  0  # atno 8010 bound_to 7997
  140.5821  143.8961  150.6798 H   0  0  0  0  0  0  0  0  0  0  0  0  # atno 10167 bound_to 10162
  156.5463  130.4690  149.6474 H   0  0  0  0  0  0  0  0  0  0  0  0  # atno 10718 bound_to 10713
  153.1048  135.4796  154.8931 H   0  0  0  0  0  0  0  0  0  0  0  0  # atno 10763 bound_to 10752
  154.7418  135.3084  154.8717 H   0  0  0  0  0  0  0  0  0  0  0  0  # atno 10764 bound_to 10752
  153.9323  135.6843  153.4799 H   0  0  0  0  0  0  0  0  0  0  0  0  # atno 10765 bound_to 10752
  140.5119  134.0643  155.7820 H   0  0  0  0  0  0  0  0  0  0  0  0  # atno 11005 bound_to 11000
  144.6822  140.2641  143.7315 LP  0  0  0  0  0  0  0  0  0  0  0  0  # atno 17320 bound_to 7965
  145.7997  139.1959  143.2055 LP  0  0  0  0  0  0  0  0  0  0  0  0  # atno 17321 bound_to 7965
  140.2463  143.3626  152.1444 LP  0  0  0  0  0  0  0  0  0  0  0  0  # atno 17342 bound_to 10162
  139.5176  144.6993  151.5539 LP  0  0  0  0  0  0  0  0  0  0  0  0  # atno 17343 bound_to 10162
  156.2925  130.7132  151.1984 LP  0  0  0  0  0  0  0  0  0  0  0  0  # atno 17370 bound_to 10713
  157.7396  131.0527  150.5222 LP  0  0  0  0  0  0  0  0  0  0  0  0  # atno 17371 bound_to 10713
  141.1381  133.9187  157.2389 LP  0  0  0  0  0  0  0  0  0  0  0  0  # atno 17394 bound_to 11000
  139.9654  135.0143  156.9372 LP  0  0  0  0  0  0  0  0  0  0  0  0  # atno 17395 bound_to 11000

$$$$
