AV-unprocessed.smi:2446|AV-procd|sdf|9647|dock4
  -GOLD-   2272013283D 1   1.00000     0.00000
 Structure written by MMmdl.
 40 41  0  0  0  0  0  0  0  0  2 V2000
  149.7067  138.5740  154.5573 C   0  0  0  0  0  0  0  0  0  0  0  0
  149.0157  139.8882  154.2345 C   0  0  0  0  0  0  0  0  0  0  0  0
  149.3771  141.0556  154.9416 C   0  0  0  0  0  0  0  0  0  0  0  0
  148.7742  142.2305  154.6637 N   0  3  0  0  0  0  0  0  0  0  0  0
  147.8222  142.3558  153.7160 C   0  0  0  0  0  0  0  0  0  0  0  0
  147.4165  141.2290  152.9737 C   0  0  0  0  0  0  0  0  0  0  0  0
  148.0080  139.9670  153.2389 C   0  0  0  0  0  0  0  0  0  0  0  0
  147.6694  138.7818  152.5273 N   0  0  0  0  0  0  0  0  0  0  0  0
  146.5197  138.4604  151.9023 C   0  0  0  0  0  0  0  0  0  0  0  0
  145.5383  139.1951  151.8191 O   0  0  0  0  0  0  0  0  0  0  0  0
  146.5116  137.2257  151.3665 N   0  0  0  0  0  0  0  0  0  0  0  0
  145.4365  136.5614  150.6253 C   0  0  2  0  0  0  0  0  0  0  0  0
  144.0983  136.7842  151.3521 C   0  0  0  0  0  0  0  0  0  0  0  0
  142.9488  136.0536  150.6413 C   0  0  0  0  0  0  0  0  0  0  0  0
  143.2487  134.5540  150.4891 C   0  0  0  0  0  0  0  0  0  0  0  0
  144.5827  134.3141  149.7513 C   0  0  2  0  0  0  0  0  0  0  0  0
  144.8871  132.8123  149.5736 C   0  0  0  0  0  0  0  0  0  0  0  0
  145.8827  132.6288  148.7060 F   0  0  0  0  0  0  0  0  0  0  0  0
  145.2297  132.2740  150.7440 F   0  0  0  0  0  0  0  0  0  0  0  0
  143.8028  132.1787  149.1261 F   0  0  0  0  0  0  0  0  0  0  0  0
  145.7276  135.0528  150.4762 C   0  0  0  0  0  0  0  0  0  0  0  0
  150.4683  138.7058  155.3264 H   0  0  0  0  0  0  0  0  0  0  0  0
  150.1923  138.1680  153.6693 H   0  0  0  0  0  0  0  0  0  0  0  0
  148.9842  137.8428  154.9208 H   0  0  0  0  0  0  0  0  0  0  0  0
  150.1283  141.0861  155.7175 H   0  0  0  0  0  0  0  0  0  0  0  0
  147.4197  143.3485  153.5758 H   0  0  0  0  0  0  0  0  0  0  0  0
  146.6686  141.3606  152.2073 H   0  0  0  0  0  0  0  0  0  0  0  0
  148.3601  138.0466  152.5671 H   0  0  0  0  0  0  0  0  0  0  0  0
  147.3589  136.6871  151.4774 H   0  0  0  0  0  0  0  0  0  0  0  0
  145.3485  137.0082  149.6331 H   0  0  0  0  0  0  0  0  0  0  0  0
  144.1701  136.4289  152.3812 H   0  0  0  0  0  0  0  0  0  0  0  0
  143.8754  137.8505  151.4079 H   0  0  0  0  0  0  0  0  0  0  0  0
  142.0215  136.1916  151.1981 H   0  0  0  0  0  0  0  0  0  0  0  0
  142.7871  136.4959  149.6577 H   0  0  0  0  0  0  0  0  0  0  0  0
  143.2816  134.0890  151.4753 H   0  0  0  0  0  0  0  0  0  0  0  0
  142.4302  134.0754  149.9510 H   0  0  0  0  0  0  0  0  0  0  0  0
  144.4908  134.7457  148.7532 H   0  0  0  0  0  0  0  0  0  0  0  0
  146.6591  134.9067  149.9296 H   0  0  0  0  0  0  0  0  0  0  0  0
  145.8813  134.6108  151.4618 H   0  0  0  0  0  0  0  0  0  0  0  0
  149.0536  143.0599  155.1882 H   0  0  0  0  0  0  0  0  0  0  0  0
  1  2  1  0  0  0  0
  1 22  1  0  0  0  0
  1 23  1  0  0  0  0
  1 24  1  0  0  0  0
  2  7  1  0  0  0  0
  2  3  2  0  0  0  0
  3  4  1  0  0  0  0
  3 25  1  0  0  0  0
  4  5  2  0  0  0  0
  4 40  1  0  0  0  0
  5  6  1  0  0  0  0
  5 26  1  0  0  0  0
  6  7  2  0  0  0  0
  6 27  1  0  0  0  0
  7  8  1  0  0  0  0
  8  9  1  0  0  0  0
  8 28  1  0  0  0  0
  9 10  2  0  0  0  0
  9 11  1  0  0  0  0
 11 12  1  0  0  0  0
 11 29  1  0  0  0  0
 12 21  1  0  0  0  0
 12 13  1  0  0  0  0
 12 30  1  0  0  0  0
 13 14  1  0  0  0  0
 13 31  1  0  0  0  0
 13 32  1  0  0  0  0
 14 15  1  0  0  0  0
 14 33  1  0  0  0  0
 14 34  1  0  0  0  0
 15 16  1  0  0  0  0
 15 35  1  0  0  0  0
 15 36  1  0  0  0  0
 16 17  1  0  0  0  0
 16 21  1  0  0  0  0
 16 37  1  0  0  0  0
 17 18  1  0  0  0  0
 17 19  1  0  0  0  0
 17 20  1  0  0  0  0
 21 38  1  0  0  0  0
 21 39  1  0  0  0  0
M  CHG  1   4   1
M  END
> <s_m_source_file>
AV-unprocessed.smi

> <i_m_source_file_index>
2446

> <i_lp_mmshare_version>
43012

> <i_f3d_flags>
0

> <s_epik_input>
W0NIM11jMVtjSF1uW2NIXVtjSF1jMVtOSF1DKD1PKVtOSF1bQ0BASF0yW0NIMl1bQ0gyXVtDSDJdW0NAQEhdKEMoRikoRilGKVtDSDJdMg==

> <s_epik_cmdline>
J2VwaWtfcHl0aG9uJywgJy1waCcsICc3LjAnLCAnLXRuJywgJzgnLCAnLW1hJywgJzIwMCcsICctbWV0YWxfYmluZGluZycsICctaW1hZScsICc8aW5maWxlLm1hZT4nLCAnLW9tYWUnLCAnPG91dGZpbGUubWFlPic=

> <r_epik_Ionization_Penalty>
0.736582

> <r_epik_Ionization_Penalty_Charging>
0.736562

> <r_epik_Ionization_Penalty_Neutral>
1.98379e-05

> <r_epik_State_Penalty>
0.762314

> <r_epik_Charging_Adjusted_Penalty>
1.49888

> <i_epik_Tot_Q>
1

> <i_epik_Tot_abs_Q>
1

> <r_epik_Metal_State_Penalty>
0.914579

> <b_epik_Metal_Only>
0

> <s_lp_Force_Field>
OPLS_2005

> <r_lp_Energy>
31.4788

> <b_lp_Chiralities_Consistent>
1

> <s_lp_Variant>
AV-unprocessed.smi:2446-7

> <Gold.Version>
5.8.1

> <Gold.Id.Protein>
6NUR|6NUR_protein|mol2

> <Gold.PLP.Fitness>
50.3587

> <Gold.PLP.PLP>
-39.4675

> <Gold.PLP.part.hbond>
-3.9791

> <Gold.PLP.part.metal>
0.0000

> <Gold.PLP.part.buried>
-3.1357

> <Gold.PLP.part.nonpolar>
-38.6097

> <Gold.PLP.part.repulsive>
5.2380

> <Gold.PLP.ligand.clash>
0.0000

> <Gold.PLP.ligand.torsion>
0.4907

> <Gold.PLP.Chemscore.Hbond>
3.9516

> <Gold.PLP.Chemscore.CHOScore>
0.0000

> <Gold.PLP.Chemscore.Metal>
0.0000

> <Gold.Chemscore.Hbonds>
donor molecule, donor type, donor heavy atom, donor atom, acceptor molecule, acceptor atom, score
      L1  H     4    40       P1  8028  2.00
      L1  H     8    28       P1  7948  0.93
      L1  H    11    29       P1  7948  1.00

> <Gold.PLP.Chemscore.Internal.Correction>
0.0178

> <Gold.Rescore>
     Score         DG    S(hbond)    S(metal)    S(lipo)     H(rot)  DE(clash)    DE(int)     intcor
     18.31     -22.24       2.93        0.00      81.36       1.00       1.90       2.02       ----

> <Gold.Chemscore.Fitness>
18.3119

> <Gold.Chemscore.DG>
-22.2357

> <Gold.Chemscore.ZeroCoef>
-5.4800

> <Gold.Chemscore.Hbond>
2.9330

> <Gold.Chemscore.Metal>
0.0000

> <Gold.Chemscore.Lipo>
81.3639

> <Gold.Chemscore.Internal_Hbond>
0.0000

> <Gold.Chemscore.DEClash>
1.9014

> <Gold.Chemscore.DEInternal>
2.0224

> <Gold.Chemscore.Rot>
1.0000

> <Gold.Chemscore.Internal.Correction>
   9.000000E+99

> <Gold.Chemscore.Hbonds>
donor molecule, donor type, donor heavy atom, donor atom, acceptor molecule, acceptor atom, score
      L1  H     4    40       P1  8028  0.96
      L1  H     8    28       P1  7948  0.87
      L1  H    11    29       P1  7948  1.00

> <Gold.Chemscore.Hbond.Weighted>
-9.7961

> <Gold.Chemscore.Metal.Weighted>
-0.0000

> <Gold.Chemscore.Lipo.Weighted>
-9.5196

> <Gold.Chemscore.Internal_Hbond.Weighted>
0.0000

> <Gold.Chemscore.DEClash.Weighted>
1.9014

> <Gold.Chemscore.DEInternal.Weighted>
2.0224

> <Gold.Chemscore.Rot.Weighted>
2.5600

> <Gold.Chemscore.Internal.Correction.Weighted>
   9.000000E+99

> <Gold.Protein.RotatedTorsions>
[ 6907 6896 6895 6894 ] final  172.38 input  -60.11 | X-H torsion
[ 7974 7965 7964 7962 ] final  -61.34 input  175.53 | X-H torsion
[ 8008 7997 7996 7995 ] final  101.22 input   59.86 | X-H torsion
[ 10167 10162 10161 10158 ] final  -18.16 input  -65.29 | X-H torsion
[ 10718 10713 10712 10709 ] final   -3.78 input   66.30 | X-H torsion
[ 10763 10752 10751 10750 ] final   66.83 input  -60.55 | X-H torsion
[ 11005 11000 10999 10996 ] final  -51.59 input  -57.11 | X-H torsion

> <Gold.Protein.ActiveResidues>
 VAL166  LYS551  ARG553  GLY616  TRP617  ASP618  TYR619  PRO620  LYS621  CYS622 
 ASP623  PHE694  ASN695  SER759  ASP760  ASP761  ALA762  ILE779  LEU786  VAL792 
 PHE793  MET794  SER795  GLU796  ALA797  LYS798  CYS799  TRP800  GLU811  SER814 

> <Gold.Protein.RotatedAtoms>
  151.7853  133.3353  159.3482 H   0  0  0  0  0  0  0  0  0  0  0  0  # atno 6907 bound_to 6896
  150.7411  134.5893  159.5988 H   0  0  0  0  0  0  0  0  0  0  0  0  # atno 6908 bound_to 6896
  152.3248  134.7336  160.0356 H   0  0  0  0  0  0  0  0  0  0  0  0  # atno 6909 bound_to 6896
  145.8047  140.8634  143.0213 H   0  0  0  0  0  0  0  0  0  0  0  0  # atno 7974 bound_to 7965
  156.1278  140.3201  155.8304 H   0  0  0  0  0  0  0  0  0  0  0  0  # atno 8008 bound_to 7997
  155.4387  140.0524  157.3029 H   0  0  0  0  0  0  0  0  0  0  0  0  # atno 8009 bound_to 7997
  154.4876  140.2079  155.9633 H   0  0  0  0  0  0  0  0  0  0  0  0  # atno 8010 bound_to 7997
  140.7255  143.4944  150.9950 H   0  0  0  0  0  0  0  0  0  0  0  0  # atno 10167 bound_to 10162
  156.7710  130.5300  149.5767 H   0  0  0  0  0  0  0  0  0  0  0  0  # atno 10718 bound_to 10713
  153.0158  135.5306  154.6885 H   0  0  0  0  0  0  0  0  0  0  0  0  # atno 10763 bound_to 10752
  154.6026  135.2870  155.0521 H   0  0  0  0  0  0  0  0  0  0  0  0  # atno 10764 bound_to 10752
  154.1573  135.6553  153.5030 H   0  0  0  0  0  0  0  0  0  0  0  0  # atno 10765 bound_to 10752
  141.0879  133.6638  156.3900 H   0  0  0  0  0  0  0  0  0  0  0  0  # atno 11005 bound_to 11000
  144.6764  140.0309  143.7482 LP  0  0  0  0  0  0  0  0  0  0  0  0  # atno 17320 bound_to 7965
  145.9841  139.2964  143.1024 LP  0  0  0  0  0  0  0  0  0  0  0  0  # atno 17321 bound_to 7965
  139.8650  143.7266  152.3171 LP  0  0  0  0  0  0  0  0  0  0  0  0  # atno 17342 bound_to 10162
  139.7494  144.7538  151.0529 LP  0  0  0  0  0  0  0  0  0  0  0  0  # atno 17343 bound_to 10162
  156.1278  130.6156  151.0289 LP  0  0  0  0  0  0  0  0  0  0  0  0  # atno 17370 bound_to 10713
  157.6691  131.0865  150.7657 LP  0  0  0  0  0  0  0  0  0  0  0  0  # atno 17371 bound_to 10713
  140.5320  134.6203  157.5353 LP  0  0  0  0  0  0  0  0  0  0  0  0  # atno 17394 bound_to 11000
  139.9700  134.7308  156.0060 LP  0  0  0  0  0  0  0  0  0  0  0  0  # atno 17395 bound_to 11000

$$$$
