AV-unprocessed.smi:2279|AV-procd|sdf|9186|dock1
  -GOLD-   2272012403D 1   1.00000     0.00000
 Structure written by MMmdl.
 58 60  0  0  0  0  0  0  0  0  3 V2000
  151.8218  143.7051  160.4366 C   0  0  0  0  0  0  0  0  0  0  0  0
  152.2836  142.4569  159.7140 C   0  0  0  0  0  0  0  0  0  0  0  0
  153.2842  141.6325  160.2632 C   0  0  0  0  0  0  0  0  0  0  0  0
  153.6696  140.4850  159.5427 C   0  0  0  0  0  0  0  0  0  0  0  0
  154.7438  139.5575  160.0708 C   0  0  0  0  0  0  0  0  0  0  0  0
  153.1204  140.1399  158.3586 N   0  0  0  0  0  0  0  0  0  0  0  0
  152.1544  140.9250  157.8207 C   0  0  0  0  0  0  0  0  0  0  0  0
  151.5219  140.6532  156.5781 N   0  0  0  0  0  0  0  0  0  0  0  0
  150.2372  140.8636  156.2403 C   0  0  0  0  0  0  0  0  0  0  0  0
  149.3878  141.3867  156.9624 O   0  0  0  0  0  0  0  0  0  0  0  0
  149.9841  140.4432  154.9916 N   0  0  0  0  0  0  0  0  0  0  0  0
  148.6916  140.5513  154.3202 C   0  0  2  0  0  0  0  0  0  0  0  0
  148.0492  141.9170  154.6159 C   0  0  0  0  0  0  0  0  0  0  0  0
  146.6421  141.9976  153.9947 C   0  0  0  0  0  0  0  0  0  0  0  0
  145.7483  140.9190  154.5069 N   0  3  2  0  0  0  0  0  0  0  0  0
  145.2882  141.0648  155.9324 C   0  0  2  0  0  0  0  0  0  0  0  0
  144.2497  139.9903  156.3365 C   0  0  0  0  0  0  0  0  0  0  0  0
  142.9027  140.1908  155.6164 C   0  0  0  0  0  0  0  0  0  0  0  0
  142.3452  141.5398  155.8866 N   0  3  2  0  0  0  0  0  0  0  0  0
  141.0159  141.7336  155.2682 C   0  0  0  0  0  0  0  0  0  0  0  0
  143.2956  142.6242  155.5346 C   0  0  0  0  0  0  0  0  0  0  0  0
  144.6426  142.4346  156.2570 C   0  0  0  0  0  0  0  0  0  0  0  0
  146.3391  139.5896  154.1729 C   0  0  0  0  0  0  0  0  0  0  0  0
  147.7529  139.4129  154.7629 C   0  0  0  0  0  0  0  0  0  0  0  0
  151.7148  142.0979  158.4751 C   0  0  0  0  0  0  0  0  0  0  0  0
  152.4539  143.9203  161.2988 H   0  0  0  0  0  0  0  0  0  0  0  0
  150.7967  143.5808  160.7863 H   0  0  0  0  0  0  0  0  0  0  0  0
  151.8553  144.5653  159.7675 H   0  0  0  0  0  0  0  0  0  0  0  0
  153.7446  141.8735  161.2103 H   0  0  0  0  0  0  0  0  0  0  0  0
  155.2493  139.9898  160.9347 H   0  0  0  0  0  0  0  0  0  0  0  0
  155.4931  139.3645  159.3023 H   0  0  0  0  0  0  0  0  0  0  0  0
  154.3059  138.6054  160.3716 H   0  0  0  0  0  0  0  0  0  0  0  0
  152.1162  140.2529  155.8674 H   0  0  0  0  0  0  0  0  0  0  0  0
  150.7406  140.0265  154.4684 H   0  0  0  0  0  0  0  0  0  0  0  0
  148.8380  140.4823  153.2403 H   0  0  0  0  0  0  0  0  0  0  0  0
  147.9946  142.0881  155.6917 H   0  0  0  0  0  0  0  0  0  0  0  0
  148.6739  142.7138  154.2101 H   0  0  0  0  0  0  0  0  0  0  0  0
  146.2098  142.9881  154.1201 H   0  0  0  0  0  0  0  0  0  0  0  0
  146.7285  141.8770  152.9137 H   0  0  0  0  0  0  0  0  0  0  0  0
  146.1588  140.9581  156.5790 H   0  0  0  0  0  0  0  0  0  0  0  0
  144.6150  138.9776  156.1792 H   0  0  0  0  0  0  0  0  0  0  0  0
  144.0787  140.0553  157.4122 H   0  0  0  0  0  0  0  0  0  0  0  0
  143.0227  140.0493  154.5412 H   0  0  0  0  0  0  0  0  0  0  0  0
  142.1941  139.4344  155.9566 H   0  0  0  0  0  0  0  0  0  0  0  0
  141.0786  141.6848  154.1801 H   0  0  0  0  0  0  0  0  0  0  0  0
  140.6002  142.7035  155.5436 H   0  0  0  0  0  0  0  0  0  0  0  0
  140.3184  140.9662  155.6053 H   0  0  0  0  0  0  0  0  0  0  0  0
  143.4424  142.6488  154.4539 H   0  0  0  0  0  0  0  0  0  0  0  0
  142.8648  143.5858  155.8162 H   0  0  0  0  0  0  0  0  0  0  0  0
  144.4638  142.4883  157.3321 H   0  0  0  0  0  0  0  0  0  0  0  0
  145.3150  143.2674  156.0573 H   0  0  0  0  0  0  0  0  0  0  0  0
  145.6967  138.7656  154.4745 H   0  0  0  0  0  0  0  0  0  0  0  0
  146.4008  139.5127  153.0864 H   0  0  0  0  0  0  0  0  0  0  0  0
  148.1611  138.4529  154.4438 H   0  0  0  0  0  0  0  0  0  0  0  0
  147.7029  139.3689  155.8512 H   0  0  0  0  0  0  0  0  0  0  0  0
  150.9452  142.7163  158.0357 H   0  0  0  0  0  0  0  0  0  0  0  0
  144.9068  140.9897  153.9529 H   0  0  0  0  0  0  0  0  0  0  0  0
  142.2035  141.5965  156.8855 H   0  0  0  0  0  0  0  0  0  0  0  0
  1  2  1  0  0  0  0
  1 26  1  0  0  0  0
  1 27  1  0  0  0  0
  1 28  1  0  0  0  0
  2 25  1  0  0  0  0
  2  3  2  0  0  0  0
  3  4  1  0  0  0  0
  3 29  1  0  0  0  0
  4  5  1  0  0  0  0
  4  6  2  0  0  0  0
  5 30  1  0  0  0  0
  5 31  1  0  0  0  0
  5 32  1  0  0  0  0
  6  7  1  0  0  0  0
  7  8  1  0  0  0  0
  7 25  2  0  0  0  0
  8  9  1  0  0  0  0
  8 33  1  0  0  0  0
  9 10  2  0  0  0  0
  9 11  1  0  0  0  0
 11 12  1  0  0  0  0
 11 34  1  0  0  0  0
 12 24  1  0  0  0  0
 12 13  1  0  0  0  0
 12 35  1  0  0  0  0
 13 14  1  0  0  0  0
 13 36  1  0  0  0  0
 13 37  1  0  0  0  0
 14 15  1  0  0  0  0
 14 38  1  0  0  0  0
 14 39  1  0  0  0  0
 15 16  1  0  0  0  0
 15 23  1  0  0  0  0
 15 57  1  0  0  0  0
 16 22  1  0  0  0  0
 16 17  1  0  0  0  0
 16 40  1  0  0  0  0
 17 18  1  0  0  0  0
 17 41  1  0  0  0  0
 17 42  1  0  0  0  0
 18 19  1  0  0  0  0
 18 43  1  0  0  0  0
 18 44  1  0  0  0  0
 19 20  1  0  0  0  0
 19 21  1  0  0  0  0
 19 58  1  0  0  0  0
 20 45  1  0  0  0  0
 20 46  1  0  0  0  0
 20 47  1  0  0  0  0
 21 22  1  0  0  0  0
 21 48  1  0  0  0  0
 21 49  1  0  0  0  0
 22 50  1  0  0  0  0
 22 51  1  0  0  0  0
 23 24  1  0  0  0  0
 23 52  1  0  0  0  0
 23 53  1  0  0  0  0
 24 54  1  0  0  0  0
 24 55  1  0  0  0  0
 25 56  1  0  0  0  0
M  CHG  1  15   1
M  CHG  1  19   1
M  END
> <s_m_source_file>
AV-unprocessed.smi

> <i_m_source_file_index>
2279

> <i_lp_mmshare_version>
43012

> <i_f3d_flags>
0

> <s_epik_input>
W0NIM11jMVtjSF1jKFtDSDNdKW5jKFtjSF0xKVtOSF1DKD1PKVtOSF1bQ0hdMltDSDJdW0NIMl1OKFtDSDJdW0NIMl0yKVtDSF0zW0NIMl1bQ0gyXU4oW0NIM10pW0NIMl1bQ0gyXTM=

> <s_epik_cmdline>
J2VwaWtfcHl0aG9uJywgJy1waCcsICc3LjAnLCAnLXRuJywgJzgnLCAnLW1hJywgJzIwMCcsICctbWV0YWxfYmluZGluZycsICctaW1hZScsICc8aW5maWxlLm1hZT4nLCAnLW9tYWUnLCAnPG91dGZpbGUubWFlPic=

> <r_epik_Ionization_Penalty>
0.180973

> <r_epik_Ionization_Penalty_Charging>
0.180787

> <r_epik_Ionization_Penalty_Neutral>
0.000186186

> <r_epik_State_Penalty>
0.153592

> <r_epik_Charging_Adjusted_Penalty>
0.334379

> <i_epik_Tot_Q>
2

> <i_epik_Tot_abs_Q>
2

> <r_epik_Metal_State_Penalty>
0.153604

> <b_epik_Metal_Only>
0

> <s_lp_Force_Field>
OPLS_2005

> <r_lp_Energy>
49.6144

> <b_lp_Chiralities_Consistent>
1

> <s_lp_Variant>
AV-unprocessed.smi:2279-4

> <Gold.Version>
5.8.1

> <Gold.Id.Protein>
6NUR|6NUR_protein|mol2

> <Gold.PLP.Fitness>
45.0053

> <Gold.PLP.PLP>
-37.3977

> <Gold.PLP.part.hbond>
-2.0000

> <Gold.PLP.part.metal>
0.0000

> <Gold.PLP.part.buried>
-4.9375

> <Gold.PLP.part.nonpolar>
-30.1747

> <Gold.PLP.part.repulsive>
0.3647

> <Gold.PLP.ligand.clash>
0.0000

> <Gold.PLP.ligand.torsion>
0.5641

> <Gold.PLP.Chemscore.Hbond>
2.8960

> <Gold.PLP.Chemscore.CHOScore>
0.0000

> <Gold.PLP.Chemscore.Metal>
0.0000

> <Gold.Chemscore.Hbonds>
donor molecule, donor type, donor heavy atom, donor atom, acceptor molecule, acceptor atom, score
      L1  H    15    57       P1 10175  2.00
      P1  H  7997  8009       L1     6  0.99

> <Gold.PLP.Chemscore.Internal.Correction>
0.0478

> <Gold.Rescore>
     Score         DG    S(hbond)    S(metal)    S(lipo)     H(rot)  DE(clash)    DE(int)     intcor
     15.17     -18.22       1.51        0.00      92.14       1.21       0.06       2.99       ----

> <Gold.Chemscore.Fitness>
15.1748

> <Gold.Chemscore.DG>
-18.2237

> <Gold.Chemscore.ZeroCoef>
-5.4800

> <Gold.Chemscore.Hbond>
1.5149

> <Gold.Chemscore.Metal>
0.0000

> <Gold.Chemscore.Lipo>
92.1374

> <Gold.Chemscore.Internal_Hbond>
0.0000

> <Gold.Chemscore.DEClash>
0.0551

> <Gold.Chemscore.DEInternal>
2.9938

> <Gold.Chemscore.Rot>
1.2095

> <Gold.Chemscore.Internal.Correction>
   9.000000E+99

> <Gold.Chemscore.Hbonds>
donor molecule, donor type, donor heavy atom, donor atom, acceptor molecule, acceptor atom, score
      L1  H    15    57       P1 10175  0.83
      P1  H  7997  8009       L1     6  0.33

> <Gold.Chemscore.Hbond.Weighted>
-5.0598

> <Gold.Chemscore.Metal.Weighted>
-0.0000

> <Gold.Chemscore.Lipo.Weighted>
-10.7801

> <Gold.Chemscore.Internal_Hbond.Weighted>
0.0000

> <Gold.Chemscore.DEClash.Weighted>
0.0551

> <Gold.Chemscore.DEInternal.Weighted>
2.9938

> <Gold.Chemscore.Rot.Weighted>
3.0963

> <Gold.Chemscore.Internal.Correction.Weighted>
   9.000000E+99

> <Gold.Protein.RotatedTorsions>
[ 6907 6896 6895 6894 ] final -139.95 input  -60.11 | X-H torsion
[ 7974 7965 7964 7962 ] final  153.15 input  175.53 | X-H torsion
[ 8008 7997 7996 7995 ] final  152.19 input   59.86 | X-H torsion
[ 10167 10162 10161 10158 ] final   -3.49 input  -65.29 | X-H torsion
[ 10718 10713 10712 10709 ] final  138.02 input   66.30 | X-H torsion
[ 10763 10752 10751 10750 ] final  145.00 input  -60.55 | X-H torsion
[ 11005 11000 10999 10996 ] final   68.96 input  -57.11 | X-H torsion

> <Gold.Protein.ActiveResidues>
 VAL166  LYS551  ARG553  GLY616  TRP617  ASP618  TYR619  PRO620  LYS621  CYS622 
 ASP623  PHE694  ASN695  SER759  ASP760  ASP761  ALA762  ILE779  LEU786  VAL792 
 PHE793  MET794  SER795  GLU796  ALA797  LYS798  CYS799  TRP800  GLU811  SER814 

> <Gold.Protein.RotatedAtoms>
  151.0543  133.5597  159.2639 H   0  0  0  0  0  0  0  0  0  0  0  0  # atno 6907 bound_to 6896
  151.2596  135.0649  159.9103 H   0  0  0  0  0  0  0  0  0  0  0  0  # atno 6908 bound_to 6896
  152.5387  134.0291  159.8070 H   0  0  0  0  0  0  0  0  0  0  0  0  # atno 6909 bound_to 6896
  144.8174  139.6762  143.6115 H   0  0  0  0  0  0  0  0  0  0  0  0  # atno 7974 bound_to 7965
  156.2640  140.2027  156.6294 H   0  0  0  0  0  0  0  0  0  0  0  0  # atno 8008 bound_to 7997
  154.6695  140.0551  157.0174 H   0  0  0  0  0  0  0  0  0  0  0  0  # atno 8009 bound_to 7997
  155.1158  140.3220  155.4513 H   0  0  0  0  0  0  0  0  0  0  0  0  # atno 8010 bound_to 7997
  140.6892  143.6534  150.8330 H   0  0  0  0  0  0  0  0  0  0  0  0  # atno 10167 bound_to 10162
  157.4298  131.1047  151.0263 H   0  0  0  0  0  0  0  0  0  0  0  0  # atno 10718 bound_to 10713
  153.9982  135.2926  155.3405 H   0  0  0  0  0  0  0  0  0  0  0  0  # atno 10763 bound_to 10752
  154.7175  135.5123  153.8763 H   0  0  0  0  0  0  0  0  0  0  0  0  # atno 10764 bound_to 10752
  153.0778  135.6669  154.0226 H   0  0  0  0  0  0  0  0  0  0  0  0  # atno 10765 bound_to 10752
  139.9681  134.6947  156.0503 H   0  0  0  0  0  0  0  0  0  0  0  0  # atno 11005 bound_to 11000
  146.2478  139.6134  142.9448 LP  0  0  0  0  0  0  0  0  0  0  0  0  # atno 17320 bound_to 7965
  145.5183  141.0433  143.2449 LP  0  0  0  0  0  0  0  0  0  0  0  0  # atno 17321 bound_to 7965
  140.0245  143.5508  152.2786 LP  0  0  0  0  0  0  0  0  0  0  0  0  # atno 17342 bound_to 10162
  139.6278  144.7640  151.2601 LP  0  0  0  0  0  0  0  0  0  0  0  0  # atno 17343 bound_to 10162
  157.1163  130.6043  149.5494 LP  0  0  0  0  0  0  0  0  0  0  0  0  # atno 17370 bound_to 10713
  155.9909  130.4962  150.7277 LP  0  0  0  0  0  0  0  0  0  0  0  0  # atno 17371 bound_to 10713
  141.1361  133.6575  156.3597 LP  0  0  0  0  0  0  0  0  0  0  0  0  # atno 17394 bound_to 11000
  140.5353  134.6173  157.5363 LP  0  0  0  0  0  0  0  0  0  0  0  0  # atno 17395 bound_to 11000

$$$$
