AV-unprocessed.smi:1880|AV-procd|sdf|7638|dock3
  -GOLD-   22720 9363D 1   1.00000     0.00000
 Structure written by MMmdl.
 37 39  0  0  0  0  0  0  0  0  2 V2000
  153.3148  138.8771  154.9139 O   0  0  0  0  0  0  0  0  0  0  0  0
  152.0062  139.2982  155.2464 C   0  0  1  0  0  0  0  0  0  0  0  0
  151.0299  138.1591  154.9157 C   0  0  0  0  0  0  0  0  0  0  0  0
  151.6554  136.9238  155.2188 O   0  0  0  0  0  0  0  0  0  0  0  0
  151.0396  136.2433  156.3008 C   0  0  0  0  0  0  0  0  0  0  0  0
  150.8618  134.8143  155.8976 C   0  0  0  0  0  0  0  0  0  0  0  0
  150.4107  134.2191  154.7514 C   0  0  0  0  0  0  0  0  0  0  0  0
  150.4869  132.8155  154.9684 C   0  0  0  0  0  0  0  0  0  0  0  0
  150.9874  132.6562  156.2289 C   0  0  0  0  0  0  0  0  0  0  0  0
  151.2248  133.8643  156.8083 O   0  0  0  0  0  0  0  0  0  0  0  0
  151.9706  139.6759  156.7405 C   0  0  0  0  0  0  0  0  0  0  0  0
  151.3480  140.9847  156.9805 N   0  0  0  0  0  0  0  0  0  0  0  0
  150.5424  141.7304  156.1763 C   0  0  0  0  0  0  0  0  0  0  0  0
  150.2168  142.8635  156.8585 N   0  3  0  0  0  0  0  0  0  0  0  0
  150.8233  142.8409  158.1167 C   0  0  0  0  0  0  0  0  0  0  0  0
  150.7907  143.7577  159.1625 C   0  0  0  0  0  0  0  0  0  0  0  0
  151.5242  143.4264  160.3209 C   0  0  0  0  0  0  0  0  0  0  0  0
  151.5266  144.2840  161.3686 F   0  0  0  0  0  0  0  0  0  0  0  0
  152.2534  142.2214  160.4086 C   0  0  0  0  0  0  0  0  0  0  0  0
  152.9433  141.9419  161.5395 F   0  0  0  0  0  0  0  0  0  0  0  0
  152.2788  141.2991  159.3415 C   0  0  0  0  0  0  0  0  0  0  0  0
  151.5517  141.6360  158.2011 C   0  0  0  0  0  0  0  0  0  0  0  0
  153.4418  139.0065  153.9859 H   0  0  0  0  0  0  0  0  0  0  0  0
  151.7566  140.1760  154.6492 H   0  0  0  0  0  0  0  0  0  0  0  0
  150.0885  138.2758  155.4559 H   0  0  0  0  0  0  0  0  0  0  0  0
  150.7959  138.1708  153.8499 H   0  0  0  0  0  0  0  0  0  0  0  0
  151.6619  136.3070  157.1945 H   0  0  0  0  0  0  0  0  0  0  0  0
  150.0712  136.6885  156.5317 H   0  0  0  0  0  0  0  0  0  0  0  0
  150.0654  134.7319  153.8658 H   0  0  0  0  0  0  0  0  0  0  0  0
  150.2133  132.0230  154.2876 H   0  0  0  0  0  0  0  0  0  0  0  0
  151.2270  131.7975  156.8387 H   0  0  0  0  0  0  0  0  0  0  0  0
  151.4328  138.9265  157.3225 H   0  0  0  0  0  0  0  0  0  0  0  0
  152.9827  139.7154  157.1464 H   0  0  0  0  0  0  0  0  0  0  0  0
  150.2156  141.4668  155.1806 H   0  0  0  0  0  0  0  0  0  0  0  0
  150.2333  144.6806  159.1002 H   0  0  0  0  0  0  0  0  0  0  0  0
  152.8385  140.3789  159.4187 H   0  0  0  0  0  0  0  0  0  0  0  0
  149.6215  143.5944  156.4900 H   0  0  0  0  0  0  0  0  0  0  0  0
  1  2  1  0  0  0  0
  1 23  1  0  0  0  0
  2  3  1  0  0  0  0
  2 11  1  0  0  0  0
  2 24  1  0  0  0  0
  3  4  1  0  0  0  0
  3 25  1  0  0  0  0
  3 26  1  0  0  0  0
  4  5  1  0  0  0  0
  5  6  1  0  0  0  0
  5 27  1  0  0  0  0
  5 28  1  0  0  0  0
  6 10  1  0  0  0  0
  6  7  2  0  0  0  0
  7  8  1  0  0  0  0
  7 29  1  0  0  0  0
  8  9  2  0  0  0  0
  8 30  1  0  0  0  0
  9 10  1  0  0  0  0
  9 31  1  0  0  0  0
 11 12  1  0  0  0  0
 11 32  1  0  0  0  0
 11 33  1  0  0  0  0
 12 22  1  0  0  0  0
 12 13  1  0  0  0  0
 13 14  2  0  0  0  0
 13 34  1  0  0  0  0
 14 15  1  0  0  0  0
 14 37  1  0  0  0  0
 15 22  2  0  0  0  0
 15 16  1  0  0  0  0
 16 17  2  0  0  0  0
 16 35  1  0  0  0  0
 17 18  1  0  0  0  0
 17 19  1  0  0  0  0
 19 20  1  0  0  0  0
 19 21  2  0  0  0  0
 21 22  1  0  0  0  0
 21 36  1  0  0  0  0
M  CHG  1  14   1
M  END
> <s_m_source_file>
AV-unprocessed.smi

> <i_m_source_file_index>
1880

> <i_lp_mmshare_version>
43012

> <i_f3d_flags>
0

> <s_epik_input>
W2NIXTFjKEYpYyhGKVtjSF1jKGMxMiluKFtjSF1uMilbQ0gyXVtDQEhdKFtPSF0pW0NIMl1PW0NIMl1jM1tjSF1bY0hdW2NIXW8z

> <s_epik_cmdline>
J2VwaWtfcHl0aG9uJywgJy1waCcsICc3LjAnLCAnLXRuJywgJzgnLCAnLW1hJywgJzIwMCcsICctbWV0YWxfYmluZGluZycsICctaW1hZScsICc8aW5maWxlLm1hZT4nLCAnLW9tYWUnLCAnPG91dGZpbGUubWFlPic=

> <r_epik_Ionization_Penalty>
2.17656

> <r_epik_Ionization_Penalty_Charging>
2.17656

> <r_epik_Ionization_Penalty_Neutral>
9.34185e-07

> <r_epik_State_Penalty>
2.31826

> <r_epik_Charging_Adjusted_Penalty>
4.49482

> <i_epik_Tot_Q>
1

> <i_epik_Tot_abs_Q>
1

> <r_epik_Metal_State_Penalty>
6.39906

> <b_epik_Metal_Only>
0

> <s_lp_Force_Field>
OPLS_2005

> <r_lp_Energy>
11.8532

> <b_lp_Chiralities_Consistent>
1

> <s_lp_Variant>
AV-unprocessed.smi:1880-4

> <Gold.Version>
5.8.1

> <Gold.Id.Protein>
6NUR|6NUR_protein|mol2

> <Gold.PLP.Fitness>
58.3993

> <Gold.PLP.PLP>
-49.0990

> <Gold.PLP.part.hbond>
-4.0000

> <Gold.PLP.part.metal>
0.0000

> <Gold.PLP.part.buried>
-7.2913

> <Gold.PLP.part.nonpolar>
-38.4443

> <Gold.PLP.part.repulsive>
0.1141

> <Gold.PLP.ligand.clash>
0.0000

> <Gold.PLP.ligand.torsion>
2.0394

> <Gold.PLP.Chemscore.Hbond>
4.4400

> <Gold.PLP.Chemscore.CHOScore>
0.0000

> <Gold.PLP.Chemscore.Metal>
0.0000

> <Gold.Chemscore.Hbonds>
donor molecule, donor type, donor heavy atom, donor atom, acceptor molecule, acceptor atom, score
      L1  H    14    37       P1  8028  2.00
      P1  H  6896  6909       L1    10  0.02
      P1  H  7997  8009       L1     1  1.00
      P1  H 10752 10764       L1     4  1.00

> <Gold.PLP.Chemscore.Internal.Correction>
0.0591

> <Gold.Rescore>
     Score         DG    S(hbond)    S(metal)    S(lipo)     H(rot)  DE(clash)    DE(int)     intcor
     17.29     -19.57       2.90        0.00     101.94       2.94       0.03       2.25       ----

> <Gold.Chemscore.Fitness>
17.2925

> <Gold.Chemscore.DG>
-19.5734

> <Gold.Chemscore.ZeroCoef>
-5.4800

> <Gold.Chemscore.Hbond>
2.8995

> <Gold.Chemscore.Metal>
0.0000

> <Gold.Chemscore.Lipo>
101.9440

> <Gold.Chemscore.Internal_Hbond>
0.0000

> <Gold.Chemscore.DEClash>
0.0350

> <Gold.Chemscore.DEInternal>
2.2459

> <Gold.Chemscore.Rot>
2.9369

> <Gold.Chemscore.Internal.Correction>
   9.000000E+99

> <Gold.Chemscore.Hbonds>
donor molecule, donor type, donor heavy atom, donor atom, acceptor molecule, acceptor atom, score
      L1  H    14    37       P1  8028  0.97
      P1  H  6896  6909       L1    10  0.03
      P1  H  7997  8009       L1     1  0.23
      P1  H 10752 10764       L1     4  0.25

> <Gold.Chemscore.Hbond.Weighted>
-9.6845

> <Gold.Chemscore.Metal.Weighted>
-0.0000

> <Gold.Chemscore.Lipo.Weighted>
-11.9275

> <Gold.Chemscore.Internal_Hbond.Weighted>
0.0000

> <Gold.Chemscore.DEClash.Weighted>
0.0350

> <Gold.Chemscore.DEInternal.Weighted>
2.2459

> <Gold.Chemscore.Rot.Weighted>
7.5185

> <Gold.Chemscore.Internal.Correction.Weighted>
   9.000000E+99

> <Gold.Protein.RotatedTorsions>
[ 6907 6896 6895 6894 ] final  -18.65 input  -60.11 | X-H torsion
[ 7974 7965 7964 7962 ] final  103.40 input  175.53 | X-H torsion
[ 8008 7997 7996 7995 ] final -127.35 input   59.86 | X-H torsion
[ 10167 10162 10161 10158 ] final -106.31 input  -65.29 | X-H torsion
[ 10718 10713 10712 10709 ] final   18.24 input   66.30 | X-H torsion
[ 10763 10752 10751 10750 ] final  -53.57 input  -60.55 | X-H torsion
[ 11005 11000 10999 10996 ] final -168.78 input  -57.11 | X-H torsion

> <Gold.Protein.ActiveResidues>
 VAL166  LYS551  ARG553  GLY616  TRP617  ASP618  TYR619  PRO620  LYS621  CYS622 
 ASP623  PHE694  ASN695  SER759  ASP760  ASP761  ALA762  ILE779  LEU786  VAL792 
 PHE793  MET794  SER795  GLU796  ALA797  LYS798  CYS799  TRP800  GLU811  SER814 

> <Gold.Protein.RotatedAtoms>
  151.2750  135.0696  159.9147 H   0  0  0  0  0  0  0  0  0  0  0  0  # atno 6907 bound_to 6896
  152.5344  134.0091  159.7940 H   0  0  0  0  0  0  0  0  0  0  0  0  # atno 6908 bound_to 6896
  151.0335  133.5719  159.2689 H   0  0  0  0  0  0  0  0  0  0  0  0  # atno 6909 bound_to 6896
  145.3464  139.2450  143.3582 H   0  0  0  0  0  0  0  0  0  0  0  0  # atno 7974 bound_to 7965
  155.2447  140.0430  157.2979 H   0  0  0  0  0  0  0  0  0  0  0  0  # atno 8008 bound_to 7997
  154.5806  140.2399  155.8029 H   0  0  0  0  0  0  0  0  0  0  0  0  # atno 8009 bound_to 7997
  156.2190  140.2976  155.9915 H   0  0  0  0  0  0  0  0  0  0  0  0  # atno 8010 bound_to 7997
  140.1891  143.3906  152.1220 H   0  0  0  0  0  0  0  0  0  0  0  0  # atno 10167 bound_to 10162
  157.0935  130.6438  149.5854 H   0  0  0  0  0  0  0  0  0  0  0  0  # atno 10718 bound_to 10713
  154.1610  135.6475  153.4986 H   0  0  0  0  0  0  0  0  0  0  0  0  # atno 10763 bound_to 10752
  153.0111  135.5360  154.6711 H   0  0  0  0  0  0  0  0  0  0  0  0  # atno 10764 bound_to 10752
  154.6025  135.2945  155.0492 H   0  0  0  0  0  0  0  0  0  0  0  0  # atno 10765 bound_to 10752
  140.5382  134.5549  157.5093 H   0  0  0  0  0  0  0  0  0  0  0  0  # atno 11005 bound_to 11000
  146.2986  140.4071  142.8712 LP  0  0  0  0  0  0  0  0  0  0  0  0  # atno 17320 bound_to 7965
  144.8751  140.7325  143.6022 LP  0  0  0  0  0  0  0  0  0  0  0  0  # atno 17321 bound_to 7965
  139.5263  144.7106  151.5217 LP  0  0  0  0  0  0  0  0  0  0  0  0  # atno 17342 bound_to 10162
  140.6468  143.8778  150.6745 LP  0  0  0  0  0  0  0  0  0  0  0  0  # atno 17343 bound_to 10162
  155.9892  130.4938  150.7202 LP  0  0  0  0  0  0  0  0  0  0  0  0  # atno 17370 bound_to 10713
  157.4701  131.0892  151.0652 LP  0  0  0  0  0  0  0  0  0  0  0  0  # atno 17371 bound_to 10713
  139.9518  134.7604  156.0431 LP  0  0  0  0  0  0  0  0  0  0  0  0  # atno 17394 bound_to 11000
  141.1242  133.6604  156.3294 LP  0  0  0  0  0  0  0  0  0  0  0  0  # atno 17395 bound_to 11000

$$$$
