AV-unprocessed.smi:404|AV-procd|sdf|2497|dock5
  -GOLD-   2262022443D 1   1.00000     0.00000
 Structure written by MMmdl.
 44 45  0  0  0  0  0  0  0  0  1 V2000
  151.4276  136.4654  155.0836 C   0  0  0  0  0  0  0  0  0  0  0  0
  150.1759  137.2956  155.1043 C   0  0  0  0  0  0  0  0  0  0  0  0
  149.0091  136.7052  155.3039 N   0  0  0  0  0  0  0  0  0  0  0  0
  148.1054  137.7046  155.2586 N   0  0  0  0  0  0  0  0  0  0  0  0
  146.6992  137.4012  155.4401 C   0  0  0  0  0  0  0  0  0  0  0  0
  148.7022  138.9283  155.0270 C   0  0  0  0  0  0  0  0  0  0  0  0
  147.9113  140.1926  154.9245 C   0  0  0  0  0  0  0  0  0  0  0  0
  150.0493  138.7043  154.9227 C   0  0  0  0  0  0  0  0  0  0  0  0
  151.1523  139.6999  154.6688 C   0  0  0  0  0  0  0  0  0  0  0  0
  151.9875  139.8735  155.9370 C   0  0  0  0  0  0  0  0  0  0  0  0
  153.1764  139.5546  155.9379 O   0  0  0  0  0  0  0  0  0  0  0  0
  151.3525  140.3775  157.0068 N   0  0  0  0  0  0  0  0  0  0  0  0
  151.9450  140.5971  158.3229 C   0  0  0  0  0  0  0  0  0  0  0  0
  151.9083  142.0798  158.7501 C   0  0  0  0  0  0  0  0  0  0  0  0
  152.1057  142.2737  160.2710 C   0  0  0  0  0  0  0  0  0  0  0  0
  152.0328  143.7556  160.6748 C   0  0  0  0  0  0  0  0  0  0  0  0
  150.7175  144.3990  160.2119 C   0  0  0  0  0  0  0  0  0  0  0  0
  150.5225  144.2224  158.6992 C   0  0  0  0  0  0  0  0  0  0  0  0
  150.5878  142.7393  158.3009 C   0  0  0  0  0  0  0  0  0  0  0  0
  151.8401  136.4112  154.0762 H   0  0  0  0  0  0  0  0  0  0  0  0
  151.2425  135.4449  155.4213 H   0  0  0  0  0  0  0  0  0  0  0  0
  152.1910  136.8935  155.7331 H   0  0  0  0  0  0  0  0  0  0  0  0
  146.2808  138.0443  156.2149 H   0  0  0  0  0  0  0  0  0  0  0  0
  146.5646  136.3600  155.7372 H   0  0  0  0  0  0  0  0  0  0  0  0
  146.1649  137.5745  154.5055 H   0  0  0  0  0  0  0  0  0  0  0  0
  148.5427  141.0324  154.6349 H   0  0  0  0  0  0  0  0  0  0  0  0
  147.4462  140.4364  155.8800 H   0  0  0  0  0  0  0  0  0  0  0  0
  147.1231  140.0972  154.1775 H   0  0  0  0  0  0  0  0  0  0  0  0
  151.8060  139.3736  153.8593 H   0  0  0  0  0  0  0  0  0  0  0  0
  150.7543  140.6666  154.3577 H   0  0  0  0  0  0  0  0  0  0  0  0
  150.3751  140.6106  156.9064 H   0  0  0  0  0  0  0  0  0  0  0  0
  151.3734  139.9993  159.0333 H   0  0  0  0  0  0  0  0  0  0  0  0
  152.9664  140.2142  158.3627 H   0  0  0  0  0  0  0  0  0  0  0  0
  152.7239  142.5934  158.2383 H   0  0  0  0  0  0  0  0  0  0  0  0
  151.3460  141.7104  160.8145 H   0  0  0  0  0  0  0  0  0  0  0  0
  153.0693  141.8730  160.5851 H   0  0  0  0  0  0  0  0  0  0  0  0
  152.1315  143.8504  161.7564 H   0  0  0  0  0  0  0  0  0  0  0  0
  152.8754  144.2940  160.2393 H   0  0  0  0  0  0  0  0  0  0  0  0
  149.8805  143.9459  160.7448 H   0  0  0  0  0  0  0  0  0  0  0  0
  150.7108  145.4590  160.4675 H   0  0  0  0  0  0  0  0  0  0  0  0
  149.5650  144.6469  158.3961 H   0  0  0  0  0  0  0  0  0  0  0  0
  151.2916  144.7799  158.1631 H   0  0  0  0  0  0  0  0  0  0  0  0
  150.4757  142.6509  157.2198 H   0  0  0  0  0  0  0  0  0  0  0  0
  149.7428  142.2086  158.7419 H   0  0  0  0  0  0  0  0  0  0  0  0
  1  2  1  0  0  0  0
  1 20  1  0  0  0  0
  1 21  1  0  0  0  0
  1 22  1  0  0  0  0
  2  8  1  0  0  0  0
  2  3  2  0  0  0  0
  3  4  1  0  0  0  0
  4  5  1  0  0  0  0
  4  6  1  0  0  0  0
  5 23  1  0  0  0  0
  5 24  1  0  0  0  0
  5 25  1  0  0  0  0
  6  7  1  0  0  0  0
  6  8  2  0  0  0  0
  7 26  1  0  0  0  0
  7 27  1  0  0  0  0
  7 28  1  0  0  0  0
  8  9  1  0  0  0  0
  9 10  1  0  0  0  0
  9 29  1  0  0  0  0
  9 30  1  0  0  0  0
 10 11  2  0  0  0  0
 10 12  1  0  0  0  0
 12 13  1  0  0  0  0
 12 31  1  0  0  0  0
 13 14  1  0  0  0  0
 13 32  1  0  0  0  0
 13 33  1  0  0  0  0
 14 19  1  0  0  0  0
 14 15  1  0  0  0  0
 14 34  1  0  0  0  0
 15 16  1  0  0  0  0
 15 35  1  0  0  0  0
 15 36  1  0  0  0  0
 16 17  1  0  0  0  0
 16 37  1  0  0  0  0
 16 38  1  0  0  0  0
 17 18  1  0  0  0  0
 17 39  1  0  0  0  0
 17 40  1  0  0  0  0
 18 19  1  0  0  0  0
 18 41  1  0  0  0  0
 18 42  1  0  0  0  0
 19 43  1  0  0  0  0
 19 44  1  0  0  0  0
M  END
> <s_m_source_file>
AV-unprocessed.smi

> <i_m_source_file_index>
404

> <i_lp_mmshare_version>
43012

> <i_f3d_flags>
0

> <s_epik_input>
W0NIM11jMW5uKFtDSDNdKWMoW0NIM10pYzFbQ0gyXUMoPU8pW05IXVtDSDJdW0NIXTJbQ0gyXVtDSDJdW0NIMl1bQ0gyXVtDSDJdMg==

> <s_epik_cmdline>
J2VwaWtfcHl0aG9uJywgJy1waCcsICc3LjAnLCAnLXRuJywgJzgnLCAnLW1hJywgJzIwMCcsICctbWV0YWxfYmluZGluZycsICctaW1hZScsICc8aW5maWxlLm1hZT4nLCAnLW9tYWUnLCAnPG91dGZpbGUubWFlPic=

> <r_lp_tautomer_probability>
1

> <r_epik_Ionization_Penalty>
0.00317479

> <r_epik_Ionization_Penalty_Charging>
0

> <r_epik_Ionization_Penalty_Neutral>
0.00317479

> <r_epik_State_Penalty>
0.00223767

> <r_epik_Charging_Adjusted_Penalty>
0.00223767

> <i_epik_Tot_Q>
0

> <i_epik_Tot_abs_Q>
0

> <r_epik_Metal_State_Penalty>
-0

> <b_epik_Metal_Only>
0

> <s_lp_Force_Field>
OPLS_2005

> <r_lp_Energy>
5.4513

> <b_lp_Chiralities_Consistent>
1

> <s_lp_Variant>
AV-unprocessed.smi:404-1

> <Gold.Version>
5.8.1

> <Gold.Id.Protein>
6NUR|6NUR_protein|mol2

> <Gold.PLP.Fitness>
41.2976

> <Gold.PLP.PLP>
-38.8952

> <Gold.PLP.part.hbond>
-1.0000

> <Gold.PLP.part.metal>
0.0000

> <Gold.PLP.part.buried>
-1.5616

> <Gold.PLP.part.nonpolar>
-34.9172

> <Gold.PLP.part.repulsive>
0.2211

> <Gold.PLP.ligand.clash>
0.0000

> <Gold.PLP.ligand.torsion>
0.3039

> <Gold.PLP.Chemscore.Hbond>
1.0000

> <Gold.PLP.Chemscore.CHOScore>
0.0000

> <Gold.PLP.Chemscore.Metal>
0.0000

> <Gold.Chemscore.Hbonds>
donor molecule, donor type, donor heavy atom, donor atom, acceptor molecule, acceptor atom, score
      P1  H  7997  8010       L1    11  0.71

> <Gold.PLP.Chemscore.Internal.Correction>
0.0102

> <Gold.Rescore>
     Score         DG    S(hbond)    S(metal)    S(lipo)     H(rot)  DE(clash)    DE(int)     intcor
     15.70     -16.52       0.41        0.00     112.88       1.38       0.48       0.35       ----

> <Gold.Chemscore.Fitness>
15.7022

> <Gold.Chemscore.DG>
-16.5249

> <Gold.Chemscore.ZeroCoef>
-5.4800

> <Gold.Chemscore.Hbond>
0.4078

> <Gold.Chemscore.Metal>
0.0000

> <Gold.Chemscore.Lipo>
112.8833

> <Gold.Chemscore.Internal_Hbond>
0.0000

> <Gold.Chemscore.DEClash>
0.4771

> <Gold.Chemscore.DEInternal>
0.3455

> <Gold.Chemscore.Rot>
1.3768

> <Gold.Chemscore.Internal.Correction>
   9.000000E+99

> <Gold.Chemscore.Hbonds>
donor molecule, donor type, donor heavy atom, donor atom, acceptor molecule, acceptor atom, score
      P1  H  7997  8010       L1    11  0.68

> <Gold.Chemscore.Hbond.Weighted>
-1.3620

> <Gold.Chemscore.Metal.Weighted>
-0.0000

> <Gold.Chemscore.Lipo.Weighted>
-13.2073

> <Gold.Chemscore.Internal_Hbond.Weighted>
0.0000

> <Gold.Chemscore.DEClash.Weighted>
0.4771

> <Gold.Chemscore.DEInternal.Weighted>
0.3455

> <Gold.Chemscore.Rot.Weighted>
3.5245

> <Gold.Chemscore.Internal.Correction.Weighted>
   9.000000E+99

> <Gold.Protein.RotatedTorsions>
[ 6907 6896 6895 6894 ] final  118.18 input  -60.11 | X-H torsion
[ 7974 7965 7964 7962 ] final -103.28 input  175.53 | X-H torsion
[ 8008 7997 7996 7995 ] final   62.49 input   59.86 | X-H torsion
[ 10167 10162 10161 10158 ] final -172.42 input  -65.29 | X-H torsion
[ 10718 10713 10712 10709 ] final  175.50 input   66.30 | X-H torsion
[ 10763 10752 10751 10750 ] final  -89.90 input  -60.55 | X-H torsion
[ 11005 11000 10999 10996 ] final    8.41 input  -57.11 | X-H torsion

> <Gold.Protein.ActiveResidues>
 VAL166  LYS551  ARG553  GLY616  TRP617  ASP618  TYR619  PRO620  LYS621  CYS622 
 ASP623  PHE694  ASN695  SER759  ASP760  ASP761  ALA762  ILE779  LEU786  VAL792 
 PHE793  MET794  SER795  GLU796  ALA797  LYS798  CYS799  TRP800  GLU811  SER814 

> <Gold.Protein.RotatedAtoms>
  152.4561  133.7725  159.6806 H   0  0  0  0  0  0  0  0  0  0  0  0  # atno 6907 bound_to 6896
  150.8487  133.7810  159.3039 H   0  0  0  0  0  0  0  0  0  0  0  0  # atno 6908 bound_to 6896
  151.5412  135.1071  159.9979 H   0  0  0  0  0  0  0  0  0  0  0  0  # atno 6909 bound_to 6896
  145.2580  140.9260  143.3057 H   0  0  0  0  0  0  0  0  0  0  0  0  # atno 7974 bound_to 7965
  155.6152  140.3495  155.4634 H   0  0  0  0  0  0  0  0  0  0  0  0  # atno 8008 bound_to 7997
  156.0123  140.1236  157.0465 H   0  0  0  0  0  0  0  0  0  0  0  0  # atno 8009 bound_to 7997
  154.4285  140.1079  156.5833 H   0  0  0  0  0  0  0  0  0  0  0  0  # atno 8010 bound_to 7997
  139.5746  144.1563  152.1432 H   0  0  0  0  0  0  0  0  0  0  0  0  # atno 10167 bound_to 10162
  156.9339  130.9980  151.2982 H   0  0  0  0  0  0  0  0  0  0  0  0  # atno 10718 bound_to 10713
  154.6601  135.5324  153.8007 H   0  0  0  0  0  0  0  0  0  0  0  0  # atno 10763 bound_to 10752
  153.0437  135.6503  154.0885 H   0  0  0  0  0  0  0  0  0  0  0  0  # atno 10764 bound_to 10752
  154.0794  135.2948  155.3273 H   0  0  0  0  0  0  0  0  0  0  0  0  # atno 10765 bound_to 10752
  140.5373  134.0408  155.7892 H   0  0  0  0  0  0  0  0  0  0  0  0  # atno 11005 bound_to 11000
  144.9444  139.4153  143.6433 LP  0  0  0  0  0  0  0  0  0  0  0  0  # atno 17320 bound_to 7965
  146.3283  139.8420  142.8889 LP  0  0  0  0  0  0  0  0  0  0  0  0  # atno 17321 bound_to 7965
  140.1103  144.5463  150.6929 LP  0  0  0  0  0  0  0  0  0  0  0  0  # atno 17342 bound_to 10162
  140.7029  143.2447  151.4812 LP  0  0  0  0  0  0  0  0  0  0  0  0  # atno 17343 bound_to 10162
  157.5829  130.8389  149.8548 LP  0  0  0  0  0  0  0  0  0  0  0  0  # atno 17370 bound_to 10713
  156.0435  130.3733  150.1376 LP  0  0  0  0  0  0  0  0  0  0  0  0  # atno 17371 bound_to 10713
  141.1247  133.9402  157.2659 LP  0  0  0  0  0  0  0  0  0  0  0  0  # atno 17394 bound_to 11000
  139.9522  135.0173  156.9027 LP  0  0  0  0  0  0  0  0  0  0  0  0  # atno 17395 bound_to 11000

$$$$
