AV-unprocessed.smi:2141|AV-procd|sdf|8719|dock10
  -GOLD-   2272011483D 1   1.00000     0.00000
 Structure written by MMmdl.
 41 42  0  0  0  0  0  0  0  0  2 V2000
  155.9668  133.1015  157.4359 C   0  0  0  0  0  0  0  0  0  0  0  0
  154.2828  133.7419  157.8283 S   0  0  0  0  0  0  0  0  0  0  0  0
  154.2313  135.0751  157.2097 O   0  0  0  0  0  0  0  0  0  0  0  0
  153.3321  132.7378  157.3215 O   0  0  0  0  0  0  0  0  0  0  0  0
  154.3261  133.8514  159.4509 N   0  5  0  0  0  0  0  0  0  0  0  0
  155.3249  134.6685  160.1258 C   0  0  0  0  0  0  0  0  0  0  0  0
  154.6390  135.5690  161.1766 C   0  0  0  0  0  0  0  0  0  0  0  0
  154.0710  136.8725  160.5937 C   0  0  0  0  0  0  0  0  0  0  0  0
  153.4113  136.8451  159.5527 O   0  0  0  0  0  0  0  0  0  0  0  0
  154.4032  138.0006  161.2520 N   0  0  0  0  0  0  0  0  0  0  0  0
  154.0135  139.3401  160.9807 C   0  0  0  0  0  0  0  0  0  0  0  0
  154.3004  140.4426  161.8185 C   0  0  0  0  0  0  0  0  0  0  0  0
  153.8769  141.7266  161.4256 C   0  0  0  0  0  0  0  0  0  0  0  0
  153.1860  141.8849  160.2009 C   0  0  0  0  0  0  0  0  0  0  0  0
  152.7537  143.1641  159.7866 N   0  0  0  0  0  0  0  0  0  0  0  0
  152.2092  143.2453  158.4331 C   0  0  0  0  0  0  0  0  0  0  0  0
  152.0728  144.7145  157.9970 C   0  0  0  0  0  0  0  0  0  0  0  0
  151.2945  145.4310  158.9496 O   0  0  0  0  0  0  0  0  0  0  0  0
  151.9041  145.4333  160.2360 C   0  0  0  0  0  0  0  0  0  0  0  0
  152.0303  143.9901  160.7520 C   0  0  0  0  0  0  0  0  0  0  0  0
  152.9185  140.8258  159.3981 N   0  0  0  0  0  0  0  0  0  0  0  0
  153.3269  139.5973  159.7779 C   0  0  0  0  0  0  0  0  0  0  0  0
  156.0942  133.0736  156.3544 H   0  0  0  0  0  0  0  0  0  0  0  0
  156.0877  132.0950  157.8346 H   0  0  0  0  0  0  0  0  0  0  0  0
  156.7172  133.7613  157.8703 H   0  0  0  0  0  0  0  0  0  0  0  0
  156.0810  134.0524  160.6138 H   0  0  0  0  0  0  0  0  0  0  0  0
  155.8659  135.3015  159.4214 H   0  0  0  0  0  0  0  0  0  0  0  0
  153.8374  135.0171  161.6710 H   0  0  0  0  0  0  0  0  0  0  0  0
  155.3527  135.8319  161.9588 H   0  0  0  0  0  0  0  0  0  0  0  0
  155.0382  137.8845  162.0286 H   0  0  0  0  0  0  0  0  0  0  0  0
  154.8429  140.3352  162.7446 H   0  0  0  0  0  0  0  0  0  0  0  0
  154.0782  142.5674  162.0721 H   0  0  0  0  0  0  0  0  0  0  0  0
  152.8340  142.7205  157.7123 H   0  0  0  0  0  0  0  0  0  0  0  0
  151.2323  142.7602  158.4183 H   0  0  0  0  0  0  0  0  0  0  0  0
  153.0538  145.1802  157.8882 H   0  0  0  0  0  0  0  0  0  0  0  0
  151.5845  144.7729  157.0243 H   0  0  0  0  0  0  0  0  0  0  0  0
  152.8818  145.9156  160.1868 H   0  0  0  0  0  0  0  0  0  0  0  0
  151.2924  146.0236  160.9183 H   0  0  0  0  0  0  0  0  0  0  0  0
  151.0392  143.5660  160.9193 H   0  0  0  0  0  0  0  0  0  0  0  0
  152.5502  143.9952  161.7109 H   0  0  0  0  0  0  0  0  0  0  0  0
  153.0924  138.7918  159.0973 H   0  0  0  0  0  0  0  0  0  0  0  0
  1  2  1  0  0  0  0
  1 23  1  0  0  0  0
  1 24  1  0  0  0  0
  1 25  1  0  0  0  0
  2  3  2  0  0  0  0
  2  4  2  0  0  0  0
  2  5  1  0  0  0  0
  5  6  1  0  0  0  0
  6  7  1  0  0  0  0
  6 26  1  0  0  0  0
  6 27  1  0  0  0  0
  7  8  1  0  0  0  0
  7 28  1  0  0  0  0
  7 29  1  0  0  0  0
  8  9  2  0  0  0  0
  8 10  1  0  0  0  0
 10 11  1  0  0  0  0
 10 30  1  0  0  0  0
 11 22  1  0  0  0  0
 11 12  2  0  0  0  0
 12 13  1  0  0  0  0
 12 31  1  0  0  0  0
 13 14  2  0  0  0  0
 13 32  1  0  0  0  0
 14 15  1  0  0  0  0
 14 21  1  0  0  0  0
 15 20  1  0  0  0  0
 15 16  1  0  0  0  0
 16 17  1  0  0  0  0
 16 33  1  0  0  0  0
 16 34  1  0  0  0  0
 17 18  1  0  0  0  0
 17 35  1  0  0  0  0
 17 36  1  0  0  0  0
 18 19  1  0  0  0  0
 19 20  1  0  0  0  0
 19 37  1  0  0  0  0
 19 38  1  0  0  0  0
 20 39  1  0  0  0  0
 20 40  1  0  0  0  0
 21 22  2  0  0  0  0
 22 41  1  0  0  0  0
M  CHG  1   5  -1
M  END
> <s_m_source_file>
AV-unprocessed.smi

> <i_m_source_file_index>
2141

> <i_lp_mmshare_version>
43012

> <i_f3d_flags>
0

> <s_epik_input>
W0NIM11TKD1PKSg9TylbTkhdW0NIMl1bQ0gyXUMoPU8pW05IXWMxW2NIXVtjSF1jKG5bY0hdMSlOMltDSDJdW0NIMl1PW0NIMl1bQ0gyXTI=

> <s_epik_cmdline>
J2VwaWtfcHl0aG9uJywgJy1waCcsICc3LjAnLCAnLXRuJywgJzgnLCAnLW1hJywgJzIwMCcsICctbWV0YWxfYmluZGluZycsICctaW1hZScsICc8aW5maWxlLm1hZT4nLCAnLW9tYWUnLCAnPG91dGZpbGUubWFlPic=

> <r_lp_tautomer_probability>
1

> <r_epik_Ionization_Penalty>
6.16997

> <r_epik_Ionization_Penalty_Charging>
6.16921

> <r_epik_Ionization_Penalty_Neutral>
0.000766965

> <r_epik_State_Penalty>
6.16956

> <r_epik_Charging_Adjusted_Penalty>
12.3388

> <i_epik_Tot_Q>
-1

> <i_epik_Tot_abs_Q>
1

> <r_epik_Metal_State_Penalty>
2.11159

> <b_epik_Metal_Only>
1

> <s_lp_Force_Field>
OPLS_2005

> <r_lp_Energy>
18.4771

> <b_lp_Chiralities_Consistent>
1

> <s_lp_Variant>
AV-unprocessed.smi:2141-2

> <Gold.Version>
5.8.1

> <Gold.Id.Protein>
6NUR|6NUR_protein|mol2

> <Gold.PLP.Fitness>
48.0991

> <Gold.PLP.PLP>
-39.8210

> <Gold.PLP.part.hbond>
-2.8409

> <Gold.PLP.part.metal>
0.0000

> <Gold.PLP.part.buried>
-6.4902

> <Gold.PLP.part.nonpolar>
-30.2922

> <Gold.PLP.part.repulsive>
0.1433

> <Gold.PLP.ligand.clash>
0.0000

> <Gold.PLP.ligand.torsion>
1.0302

> <Gold.PLP.Chemscore.Hbond>
3.0000

> <Gold.PLP.Chemscore.CHOScore>
0.0000

> <Gold.PLP.Chemscore.Metal>
0.0000

> <Gold.Chemscore.Hbonds>
donor molecule, donor type, donor heavy atom, donor atom, acceptor molecule, acceptor atom, score
      P1  H  6896  6907       L1     5  2.00
      P1  H 10752 10765       L1     3  1.00

> <Gold.PLP.Chemscore.Internal.Correction>
1.3386

> <Gold.Rescore>
     Score         DG    S(hbond)    S(metal)    S(lipo)     H(rot)  DE(clash)    DE(int)     intcor
     14.43     -17.07       1.66        0.00      93.76       1.93       0.12       2.51       ----

> <Gold.Chemscore.Fitness>
14.4323

> <Gold.Chemscore.DG>
-17.0651

> <Gold.Chemscore.ZeroCoef>
-5.4800

> <Gold.Chemscore.Hbond>
1.6598

> <Gold.Chemscore.Metal>
0.0000

> <Gold.Chemscore.Lipo>
93.7647

> <Gold.Chemscore.Internal_Hbond>
0.0000

> <Gold.Chemscore.DEClash>
0.1231

> <Gold.Chemscore.DEInternal>
2.5097

> <Gold.Chemscore.Rot>
1.9255

> <Gold.Chemscore.Internal.Correction>
   9.000000E+99

> <Gold.Chemscore.Hbonds>
donor molecule, donor type, donor heavy atom, donor atom, acceptor molecule, acceptor atom, score
      P1  H  6896  6907       L1     5  0.32
      P1  H 10752 10765       L1     3  0.96

> <Gold.Chemscore.Hbond.Weighted>
-5.5439

> <Gold.Chemscore.Metal.Weighted>
-0.0000

> <Gold.Chemscore.Lipo.Weighted>
-10.9705

> <Gold.Chemscore.Internal_Hbond.Weighted>
0.0000

> <Gold.Chemscore.DEClash.Weighted>
0.1231

> <Gold.Chemscore.DEInternal.Weighted>
2.5097

> <Gold.Chemscore.Rot.Weighted>
4.9292

> <Gold.Chemscore.Internal.Correction.Weighted>
   9.000000E+99

> <Gold.Protein.RotatedTorsions>
[ 6907 6896 6895 6894 ] final   81.41 input  -60.11 | X-H torsion
[ 7974 7965 7964 7962 ] final -141.64 input  175.53 | X-H torsion
[ 8008 7997 7996 7995 ] final  164.02 input   59.86 | X-H torsion
[ 10167 10162 10161 10158 ] final -154.04 input  -65.29 | X-H torsion
[ 10718 10713 10712 10709 ] final  106.59 input   66.30 | X-H torsion
[ 10763 10752 10751 10750 ] final  -78.67 input  -60.55 | X-H torsion
[ 11005 11000 10999 10996 ] final   17.80 input  -57.11 | X-H torsion

> <Gold.Protein.ActiveResidues>
 VAL166  LYS551  ARG553  GLY616  TRP617  ASP618  TYR619  PRO620  LYS621  CYS622 
 ASP623  PHE694  ASN695  SER759  ASP760  ASP761  ALA762  ILE779  LEU786  VAL792 
 PHE793  MET794  SER795  GLU796  ALA797  LYS798  CYS799  TRP800  GLU811  SER814 

> <Gold.Protein.RotatedAtoms>
  152.5267  134.3208  159.9147 H   0  0  0  0  0  0  0  0  0  0  0  0  # atno 6907 bound_to 6896
  151.3157  133.4055  159.2658 H   0  0  0  0  0  0  0  0  0  0  0  0  # atno 6908 bound_to 6896
  151.0001  134.9332  159.8006 H   0  0  0  0  0  0  0  0  0  0  0  0  # atno 6909 bound_to 6896
  144.8504  140.6056  143.5394 H   0  0  0  0  0  0  0  0  0  0  0  0  # atno 7974 bound_to 7965
  156.1912  140.1708  156.8088 H   0  0  0  0  0  0  0  0  0  0  0  0  # atno 8008 bound_to 7997
  154.5474  140.0724  156.8643 H   0  0  0  0  0  0  0  0  0  0  0  0  # atno 8009 bound_to 7997
  155.3095  140.3366  155.4247 H   0  0  0  0  0  0  0  0  0  0  0  0  # atno 8010 bound_to 7997
  139.7046  143.9207  152.2443 H   0  0  0  0  0  0  0  0  0  0  0  0  # atno 10167 bound_to 10162
  157.6662  131.0854  150.6030 H   0  0  0  0  0  0  0  0  0  0  0  0  # atno 10718 bound_to 10713
  154.5288  135.5722  153.6742 H   0  0  0  0  0  0  0  0  0  0  0  0  # atno 10763 bound_to 10752
  152.9934  135.6199  154.2656 H   0  0  0  0  0  0  0  0  0  0  0  0  # atno 10764 bound_to 10752
  154.2581  135.2857  155.2769 H   0  0  0  0  0  0  0  0  0  0  0  0  # atno 10765 bound_to 10752
  140.4319  134.1411  155.7681 H   0  0  0  0  0  0  0  0  0  0  0  0  # atno 11005 bound_to 11000
  145.4511  139.1523  143.3918 LP  0  0  0  0  0  0  0  0  0  0  0  0  # atno 17320 bound_to 7965
  146.2780  140.4637  142.8788 LP  0  0  0  0  0  0  0  0  0  0  0  0  # atno 17321 bound_to 7965
  139.9059  144.6885  150.8615 LP  0  0  0  0  0  0  0  0  0  0  0  0  # atno 17342 bound_to 10162
  140.7718  143.3479  151.2073 LP  0  0  0  0  0  0  0  0  0  0  0  0  # atno 17343 bound_to 10162
  156.6331  130.4437  149.5779 LP  0  0  0  0  0  0  0  0  0  0  0  0  # atno 17370 bound_to 10713
  156.2267  130.6769  151.1422 LP  0  0  0  0  0  0  0  0  0  0  0  0  # atno 17371 bound_to 10713
  141.1742  133.8548  157.1475 LP  0  0  0  0  0  0  0  0  0  0  0  0  # atno 17394 bound_to 11000
  140.0128  134.9980  157.0431 LP  0  0  0  0  0  0  0  0  0  0  0  0  # atno 17395 bound_to 11000

$$$$
