AV-unprocessed.smi:2124|AV-procd|sdf|8667|dock6
  -GOLD-   2272011413D 1   1.00000     0.00000
 Structure written by MMmdl.
 46 48  0  0  0  0  0  0  0  0  2 V2000
  148.9566  133.9437  157.1216 C   0  0  0  0  0  0  0  0  0  0  0  0
  149.8174  135.1808  156.9792 C   0  0  0  0  0  0  0  0  0  0  0  0
  150.0578  135.8984  158.0099 N   0  0  0  0  0  0  0  0  0  0  0  0
  150.8540  137.0493  157.8811 C   0  0  0  0  0  0  0  0  0  0  0  0
  151.0825  137.8440  159.1550 C   0  0  0  0  0  0  0  0  0  0  0  0
  151.3761  137.4141  156.6751 C   0  0  0  0  0  0  0  0  0  0  0  0
  152.2395  138.6598  156.4750 C   0  0  0  0  0  0  0  0  0  0  0  0
  151.4955  139.9883  156.3159 C   0  0  0  0  0  0  0  0  0  0  0  0
  150.9657  140.2918  155.2464 O   0  0  0  0  0  0  0  0  0  0  0  0
  151.4735  140.7763  157.4014 N   0  0  0  0  0  0  0  0  0  0  0  0
  150.8524  142.0960  157.4853 C   0  0  1  0  0  0  0  0  0  0  0  0
  149.4120  142.0121  156.9545 C   0  0  0  0  0  0  0  0  0  0  0  0
  150.9101  142.6081  158.9437 C   0  0  2  0  0  0  0  0  0  0  0  0
  150.1365  143.9206  159.2027 C   0  0  0  0  0  0  0  0  0  0  0  0
  151.1698  144.7932  159.9403 C   0  0  2  0  0  0  0  0  0  0  0  0
  152.2276  145.2808  158.9330 C   0  0  0  0  0  0  0  0  0  0  0  0
  153.0371  144.0028  158.6489 C   0  0  0  0  0  0  0  0  0  0  0  0
  152.3150  142.9428  159.5065 C   0  0  1  0  0  0  0  0  0  0  0  0
  151.9515  143.7592  160.7426 C   0  0  0  0  0  0  0  0  0  0  0  0
  151.0858  136.5536  155.5147 C   0  0  0  0  0  0  0  0  0  0  0  0
  151.5500  136.8265  154.4083 O   0  0  0  0  0  0  0  0  0  0  0  0
  150.2982  135.4593  155.7193 N   0  5  0  0  0  0  0  0  0  0  0  0
  148.5601  133.8548  158.1339 H   0  0  0  0  0  0  0  0  0  0  0  0
  149.5418  133.0500  156.9034 H   0  0  0  0  0  0  0  0  0  0  0  0
  148.1157  133.9849  156.4285 H   0  0  0  0  0  0  0  0  0  0  0  0
  152.1481  137.9846  159.3363 H   0  0  0  0  0  0  0  0  0  0  0  0
  150.6623  137.3311  160.0207 H   0  0  0  0  0  0  0  0  0  0  0  0
  150.6097  138.8232  159.0833 H   0  0  0  0  0  0  0  0  0  0  0  0
  152.9574  138.7526  157.2910 H   0  0  0  0  0  0  0  0  0  0  0  0
  152.8526  138.5207  155.5848 H   0  0  0  0  0  0  0  0  0  0  0  0
  151.9328  140.4389  158.2348 H   0  0  0  0  0  0  0  0  0  0  0  0
  151.3951  142.7977  156.8507 H   0  0  0  0  0  0  0  0  0  0  0  0
  148.9228  142.9858  156.9757 H   0  0  0  0  0  0  0  0  0  0  0  0
  148.8089  141.3238  157.5474 H   0  0  0  0  0  0  0  0  0  0  0  0
  149.3953  141.6625  155.9216 H   0  0  0  0  0  0  0  0  0  0  0  0
  150.4840  141.8328  159.5835 H   0  0  0  0  0  0  0  0  0  0  0  0
  149.7861  144.3994  158.2875 H   0  0  0  0  0  0  0  0  0  0  0  0
  149.2642  143.7320  159.8297 H   0  0  0  0  0  0  0  0  0  0  0  0
  150.7249  145.5960  160.5287 H   0  0  0  0  0  0  0  0  0  0  0  0
  151.7796  145.6991  158.0308 H   0  0  0  0  0  0  0  0  0  0  0  0
  152.8648  146.0471  159.3764 H   0  0  0  0  0  0  0  0  0  0  0  0
  153.0747  143.7524  157.5892 H   0  0  0  0  0  0  0  0  0  0  0  0
  154.0668  144.1262  158.9867 H   0  0  0  0  0  0  0  0  0  0  0  0
  152.9245  142.0623  159.7124 H   0  0  0  0  0  0  0  0  0  0  0  0
  152.8185  144.1760  161.2584 H   0  0  0  0  0  0  0  0  0  0  0  0
  151.3367  143.2135  161.4607 H   0  0  0  0  0  0  0  0  0  0  0  0
  1  2  1  0  0  0  0
  1 23  1  0  0  0  0
  1 24  1  0  0  0  0
  1 25  1  0  0  0  0
  2 22  1  0  0  0  0
  2  3  2  0  0  0  0
  3  4  1  0  0  0  0
  4  5  1  0  0  0  0
  4  6  2  0  0  0  0
  5 26  1  0  0  0  0
  5 27  1  0  0  0  0
  5 28  1  0  0  0  0
  6  7  1  0  0  0  0
  6 20  1  0  0  0  0
  7  8  1  0  0  0  0
  7 29  1  0  0  0  0
  7 30  1  0  0  0  0
  8  9  2  0  0  0  0
  8 10  1  0  0  0  0
 10 11  1  0  0  0  0
 10 31  1  0  0  0  0
 11 12  1  0  0  0  0
 11 13  1  0  0  0  0
 11 32  1  0  0  0  0
 12 33  1  0  0  0  0
 12 34  1  0  0  0  0
 12 35  1  0  0  0  0
 13 18  1  0  0  0  0
 13 14  1  0  0  0  0
 13 36  1  0  0  0  0
 14 15  1  0  0  0  0
 14 37  1  0  0  0  0
 14 38  1  0  0  0  0
 15 19  1  0  0  0  0
 15 16  1  0  0  0  0
 15 39  1  0  0  0  0
 16 17  1  0  0  0  0
 16 40  1  0  0  0  0
 16 41  1  0  0  0  0
 17 18  1  0  0  0  0
 17 42  1  0  0  0  0
 17 43  1  0  0  0  0
 18 19  1  0  0  0  0
 18 44  1  0  0  0  0
 19 45  1  0  0  0  0
 19 46  1  0  0  0  0
 20 21  2  0  0  0  0
 20 22  1  0  0  0  0
M  CHG  1  22  -1
M  END
> <s_m_source_file>
AV-unprocessed.smi

> <i_m_source_file_index>
2124

> <i_lp_mmshare_version>
43012

> <i_f3d_flags>
0

> <s_epik_input>
W0NIM11jMW5jKFtDSDNdKWMoYyg9TylbbkhdMSlbQ0gyXUMoPU8pW05IXVtDQEhdKFtDSDNdKVtDQEhdKFtDSDJdW0NASF0yMylbQ0BIXShbQ0gyXTMpW0NIMl1bQ0gyXTI=

> <s_epik_cmdline>
J2VwaWtfcHl0aG9uJywgJy1waCcsICc3LjAnLCAnLXRuJywgJzgnLCAnLW1hJywgJzIwMCcsICctbWV0YWxfYmluZGluZycsICctaW1hZScsICc8aW5maWxlLm1hZT4nLCAnLW9tYWUnLCAnPG91dGZpbGUubWFlPic=

> <r_lp_tautomer_probability>
0.839158

> <r_epik_Ionization_Penalty>
6.63797

> <r_epik_Ionization_Penalty_Charging>
7.48558e-08

> <r_epik_Ionization_Penalty_Neutral>
6.63797

> <r_epik_State_Penalty>
4.49496

> <r_epik_Charging_Adjusted_Penalty>
4.49496

> <i_epik_Tot_Q>
-1

> <i_epik_Tot_abs_Q>
1

> <r_epik_Metal_State_Penalty>
0.841241

> <b_epik_Metal_Only>
1

> <s_lp_Force_Field>
OPLS_2005

> <r_lp_Energy>
55.4984

> <b_lp_Chiralities_Consistent>
1

> <s_lp_Variant>
AV-unprocessed.smi:2124-18

> <Gold.Version>
5.8.1

> <Gold.Id.Protein>
6NUR|6NUR_protein|mol2

> <Gold.PLP.Fitness>
46.1882

> <Gold.PLP.PLP>
-38.9933

> <Gold.PLP.part.hbond>
-3.0000

> <Gold.PLP.part.metal>
0.0000

> <Gold.PLP.part.buried>
-5.7891

> <Gold.PLP.part.nonpolar>
-31.4828

> <Gold.PLP.part.repulsive>
0.7725

> <Gold.PLP.ligand.clash>
0.0000

> <Gold.PLP.ligand.torsion>
0.6804

> <Gold.PLP.Chemscore.Hbond>
2.8406

> <Gold.PLP.Chemscore.CHOScore>
0.0000

> <Gold.PLP.Chemscore.Metal>
0.0000

> <Gold.Chemscore.Hbonds>
donor molecule, donor type, donor heavy atom, donor atom, acceptor molecule, acceptor atom, score
      P1  H  6896  6907       L1     3  0.73
      P1  H  7989  7998       L1     9  1.00
      P1  H 10752 10763       L1    21  1.00

> <Gold.PLP.Chemscore.Internal.Correction>
0.0339

> <Gold.Rescore>
     Score         DG    S(hbond)    S(metal)    S(lipo)     H(rot)  DE(clash)    DE(int)     intcor
     20.02     -22.07       2.26        0.00     112.53       1.61       0.12       1.93       ----

> <Gold.Chemscore.Fitness>
20.0193

> <Gold.Chemscore.DG>
-22.0707

> <Gold.Chemscore.ZeroCoef>
-5.4800

> <Gold.Chemscore.Hbond>
2.2555

> <Gold.Chemscore.Metal>
0.0000

> <Gold.Chemscore.Lipo>
112.5322

> <Gold.Chemscore.Internal_Hbond>
0.0000

> <Gold.Chemscore.DEClash>
0.1176

> <Gold.Chemscore.DEInternal>
1.9338

> <Gold.Chemscore.Rot>
1.6051

> <Gold.Chemscore.Internal.Correction>
   9.000000E+99

> <Gold.Chemscore.Hbonds>
donor molecule, donor type, donor heavy atom, donor atom, acceptor molecule, acceptor atom, score
      P1  H  6896  6907       L1     3  0.40
      P1  H  7989  7998       L1     9  0.96
      P1  H 10752 10763       L1    21  0.35

> <Gold.Chemscore.Hbond.Weighted>
-7.5334

> <Gold.Chemscore.Metal.Weighted>
-0.0000

> <Gold.Chemscore.Lipo.Weighted>
-13.1663

> <Gold.Chemscore.Internal_Hbond.Weighted>
0.0000

> <Gold.Chemscore.DEClash.Weighted>
0.1176

> <Gold.Chemscore.DEInternal.Weighted>
1.9338

> <Gold.Chemscore.Rot.Weighted>
4.1090

> <Gold.Chemscore.Internal.Correction.Weighted>
   9.000000E+99

> <Gold.Protein.RotatedTorsions>
[ 6907 6896 6895 6894 ] final  -55.54 input  -60.11 | X-H torsion
[ 7974 7965 7964 7962 ] final -141.28 input  175.53 | X-H torsion
[ 8008 7997 7996 7995 ] final  -11.67 input   59.86 | X-H torsion
[ 10167 10162 10161 10158 ] final   68.54 input  -65.29 | X-H torsion
[ 10718 10713 10712 10709 ] final  -25.64 input   66.30 | X-H torsion
[ 10763 10752 10751 10750 ] final   41.08 input  -60.55 | X-H torsion
[ 11005 11000 10999 10996 ] final   90.31 input  -57.11 | X-H torsion

> <Gold.Protein.ActiveResidues>
 VAL166  LYS551  ARG553  GLY616  TRP617  ASP618  TYR619  PRO620  LYS621  CYS622 
 ASP623  PHE694  ASN695  SER759  ASP760  ASP761  ALA762  ILE779  LEU786  VAL792 
 PHE793  MET794  SER795  GLU796  ALA797  LYS798  CYS799  TRP800  GLU811  SER814 

> <Gold.Protein.RotatedAtoms>
  150.8243  134.7466  159.6798 H   0  0  0  0  0  0  0  0  0  0  0  0  # atno 6907 bound_to 6896
  152.4355  134.5691  159.9926 H   0  0  0  0  0  0  0  0  0  0  0  0  # atno 6908 bound_to 6896
  151.5867  133.3334  159.3055 H   0  0  0  0  0  0  0  0  0  0  0  0  # atno 6909 bound_to 6896
  144.8531  140.6099  143.5377 H   0  0  0  0  0  0  0  0  0  0  0  0  # atno 7974 bound_to 7965
  154.5444  140.2296  155.8587 H   0  0  0  0  0  0  0  0  0  0  0  0  # atno 8008 bound_to 7997
  156.1889  140.3082  155.9255 H   0  0  0  0  0  0  0  0  0  0  0  0  # atno 8009 bound_to 7997
  155.3193  140.0439  157.3029 H   0  0  0  0  0  0  0  0  0  0  0  0  # atno 8010 bound_to 7997
  140.0776  144.5099  150.7184 H   0  0  0  0  0  0  0  0  0  0  0  0  # atno 10167 bound_to 10162
  156.4617  130.4505  149.6925 H   0  0  0  0  0  0  0  0  0  0  0  0  # atno 10718 bound_to 10713
  152.9918  135.6172  154.2730 H   0  0  0  0  0  0  0  0  0  0  0  0  # atno 10763 bound_to 10752
  154.2462  135.2787  155.2836 H   0  0  0  0  0  0  0  0  0  0  0  0  # atno 10764 bound_to 10752
  154.5327  135.5783  153.6830 H   0  0  0  0  0  0  0  0  0  0  0  0  # atno 10765 bound_to 10752
  139.8858  134.8606  156.3267 H   0  0  0  0  0  0  0  0  0  0  0  0  # atno 11005 bound_to 11000
  145.4459  139.1529  143.3945 LP  0  0  0  0  0  0  0  0  0  0  0  0  # atno 17320 bound_to 7965
  146.2801  140.4583  142.8779 LP  0  0  0  0  0  0  0  0  0  0  0  0  # atno 17321 bound_to 7965
  140.7094  143.2493  151.4627 LP  0  0  0  0  0  0  0  0  0  0  0  0  # atno 17342 bound_to 10162
  139.5798  144.1734  152.1953 LP  0  0  0  0  0  0  0  0  0  0  0  0  # atno 17343 bound_to 10162
  156.3710  130.7530  151.2513 LP  0  0  0  0  0  0  0  0  0  0  0  0  # atno 17370 bound_to 10713
  157.7497  131.0323  150.4220 LP  0  0  0  0  0  0  0  0  0  0  0  0  # atno 17371 bound_to 10713
  140.9750  133.7303  156.0589 LP  0  0  0  0  0  0  0  0  0  0  0  0  # atno 17394 bound_to 11000
  140.7822  134.3712  157.5484 LP  0  0  0  0  0  0  0  0  0  0  0  0  # atno 17395 bound_to 11000

$$$$
