AV-unprocessed.smi:1641|AV-procd|sdf|6562|dock1
  -GOLD-   22720 7243D 1   1.00000     0.00000
 Structure written by MMmdl.
 42 43  0  0  0  0  0  0  0  0  2 V2000
  153.4911  137.7475  157.0126 C   0  0  0  0  0  0  0  0  0  0  0  0
  152.5032  138.3610  156.0803 C   0  0  0  0  0  0  0  0  0  0  0  0
  152.4524  139.6774  155.8431 N   0  0  0  0  0  0  0  0  0  0  0  0
  151.4553  140.0108  154.9370 N   0  0  0  0  0  0  0  0  0  0  0  0
  150.7824  138.9314  154.5150 C   0  0  0  0  0  0  0  0  0  0  0  0
  149.7113  138.9839  153.5838 N   0  0  0  0  0  0  0  0  0  0  0  0
  148.4500  138.5448  153.7400 C   0  0  0  0  0  0  0  0  0  0  0  0
  148.0010  138.0089  154.7535 O   0  0  0  0  0  0  0  0  0  0  0  0
  147.7162  138.7662  152.6395 N   0  0  0  0  0  0  0  0  0  0  0  0
  146.3127  138.3992  152.4865 C   0  0  0  0  0  0  0  0  0  0  0  0
  146.1481  137.1386  151.6157 C   0  0  0  0  0  0  0  0  0  0  0  0
  144.7203  136.7999  151.3745 N   0  3  1  0  0  0  0  0  0  0  0  0
  144.5311  135.5791  150.5530 C   0  0  0  0  0  0  0  0  0  0  0  0
  144.7578  134.3019  151.3873 C   0  0  2  0  0  0  0  0  0  0  0  0
  144.4852  133.0287  150.5793 C   0  0  0  0  0  0  0  0  0  0  0  0
  143.8708  134.3171  152.5006 O   0  0  0  0  0  0  0  0  0  0  0  0
  144.0958  135.4198  153.3726 C   0  0  2  0  0  0  0  0  0  0  0  0
  143.1382  135.2875  154.5617 C   0  0  0  0  0  0  0  0  0  0  0  0
  143.8766  136.7362  152.5956 C   0  0  0  0  0  0  0  0  0  0  0  0
  151.3177  137.4056  155.1985 S   0  0  0  0  0  0  0  0  0  0  0  0
  153.8062  138.4705  157.7657 H   0  0  0  0  0  0  0  0  0  0  0  0
  154.3676  137.4138  156.4574 H   0  0  0  0  0  0  0  0  0  0  0  0
  153.0485  136.8893  157.5184 H   0  0  0  0  0  0  0  0  0  0  0  0
  149.9338  139.4056  152.6942 H   0  0  0  0  0  0  0  0  0  0  0  0
  148.1621  139.2094  151.8493 H   0  0  0  0  0  0  0  0  0  0  0  0
  145.9119  138.2366  153.4862 H   0  0  0  0  0  0  0  0  0  0  0  0
  145.7546  139.2344  152.0598 H   0  0  0  0  0  0  0  0  0  0  0  0
  146.6274  137.3242  150.6536 H   0  0  0  0  0  0  0  0  0  0  0  0
  146.6769  136.2953  152.0595 H   0  0  0  0  0  0  0  0  0  0  0  0
  143.5111  135.5844  150.1657 H   0  0  0  0  0  0  0  0  0  0  0  0
  145.1866  135.5982  149.6815 H   0  0  0  0  0  0  0  0  0  0  0  0
  145.7876  134.2655  151.7468 H   0  0  0  0  0  0  0  0  0  0  0  0
  145.1474  132.9627  149.7156 H   0  0  0  0  0  0  0  0  0  0  0  0
  143.4572  133.0024  150.2167 H   0  0  0  0  0  0  0  0  0  0  0  0
  144.6457  132.1390  151.1888 H   0  0  0  0  0  0  0  0  0  0  0  0
  145.1167  135.3711  153.7536 H   0  0  0  0  0  0  0  0  0  0  0  0
  143.2764  136.1045  155.2704 H   0  0  0  0  0  0  0  0  0  0  0  0
  143.3083  134.3526  155.0961 H   0  0  0  0  0  0  0  0  0  0  0  0
  142.0979  135.2993  154.2357 H   0  0  0  0  0  0  0  0  0  0  0  0
  144.0500  137.5974  153.2395 H   0  0  0  0  0  0  0  0  0  0  0  0
  142.8332  136.7996  152.2832 H   0  0  0  0  0  0  0  0  0  0  0  0
  144.3634  137.5625  150.8160 H   0  0  0  0  0  0  0  0  0  0  0  0
  1  2  1  0  0  0  0
  1 21  1  0  0  0  0
  1 22  1  0  0  0  0
  1 23  1  0  0  0  0
  2 20  1  0  0  0  0
  2  3  2  0  0  0  0
  3  4  1  0  0  0  0
  4  5  2  0  0  0  0
  5  6  1  0  0  0  0
  5 20  1  0  0  0  0
  6  7  1  0  0  0  0
  6 24  1  0  0  0  0
  7  8  2  0  0  0  0
  7  9  1  0  0  0  0
  9 10  1  0  0  0  0
  9 25  1  0  0  0  0
 10 11  1  0  0  0  0
 10 26  1  0  0  0  0
 10 27  1  0  0  0  0
 11 12  1  0  0  0  0
 11 28  1  0  0  0  0
 11 29  1  0  0  0  0
 12 19  1  0  0  0  0
 12 13  1  0  0  0  0
 12 42  1  0  0  0  0
 13 14  1  0  0  0  0
 13 30  1  0  0  0  0
 13 31  1  0  0  0  0
 14 15  1  0  0  0  0
 14 16  1  0  0  0  0
 14 32  1  0  0  0  0
 15 33  1  0  0  0  0
 15 34  1  0  0  0  0
 15 35  1  0  0  0  0
 16 17  1  0  0  0  0
 17 18  1  0  0  0  0
 17 19  1  0  0  0  0
 17 36  1  0  0  0  0
 18 37  1  0  0  0  0
 18 38  1  0  0  0  0
 18 39  1  0  0  0  0
 19 40  1  0  0  0  0
 19 41  1  0  0  0  0
M  CHG  1  12   1
M  END
> <s_m_source_file>
AV-unprocessed.smi

> <i_m_source_file_index>
1641

> <i_lp_mmshare_version>
43012

> <i_f3d_flags>
0

> <s_epik_input>
W0NIM11jMW5uYyhzMSlbTkhdQyg9TylbTkhdW0NIMl1bQ0gyXU4yW0NIMl1bQ0BASF0oW0NIM10pT1tDQEBIXShbQ0gzXSlbQ0gyXTI=

> <s_epik_cmdline>
J2VwaWtfcHl0aG9uJywgJy1waCcsICc3LjAnLCAnLXRuJywgJzgnLCAnLW1hJywgJzIwMCcsICctbWV0YWxfYmluZGluZycsICctaW1hZScsICc8aW5maWxlLm1hZT4nLCAnLW9tYWUnLCAnPG91dGZpbGUubWFlPic=

> <r_lp_tautomer_probability>
1

> <r_epik_Ionization_Penalty>
0.700114

> <r_epik_Ionization_Penalty_Charging>
0.695697

> <r_epik_Ionization_Penalty_Neutral>
0.00441638

> <r_epik_State_Penalty>
0.717972

> <r_epik_Charging_Adjusted_Penalty>
1.41367

> <i_epik_Tot_Q>
1

> <i_epik_Tot_abs_Q>
1

> <r_epik_Metal_State_Penalty>
1.06958

> <b_epik_Metal_Only>
0

> <s_lp_Force_Field>
OPLS_2005

> <r_lp_Energy>
15.6889

> <b_lp_Chiralities_Consistent>
1

> <s_lp_Variant>
AV-unprocessed.smi:1641-7

> <Gold.Version>
5.8.1

> <Gold.Id.Protein>
6NUR|6NUR_protein|mol2

> <Gold.PLP.Fitness>
45.0060

> <Gold.PLP.PLP>
-31.3395

> <Gold.PLP.part.hbond>
-6.2327

> <Gold.PLP.part.metal>
0.0000

> <Gold.PLP.part.buried>
-1.7535

> <Gold.PLP.part.nonpolar>
-24.4088

> <Gold.PLP.part.repulsive>
0.5099

> <Gold.PLP.ligand.clash>
0.0000

> <Gold.PLP.ligand.torsion>
0.6655

> <Gold.PLP.Chemscore.Hbond>
4.9920

> <Gold.PLP.Chemscore.CHOScore>
0.0000

> <Gold.PLP.Chemscore.Metal>
0.0000

> <Gold.Chemscore.Hbonds>
donor molecule, donor type, donor heavy atom, donor atom, acceptor molecule, acceptor atom, score
      L1  H     6    24       P1  7957  1.00
      L1  H     9    25       P1  7957  1.00
      L1  H    12    42       P1 10171  0.96
      P1  H  7989  7998       L1     4  1.00
      P1  H  7997  8008       L1     3  1.00

> <Gold.PLP.Chemscore.Internal.Correction>
0.0215

> <Gold.Rescore>
     Score         DG    S(hbond)    S(metal)    S(lipo)     H(rot)  DE(clash)    DE(int)     intcor
     21.99     -23.00       4.57        0.00      54.98       1.64       0.49       0.52       ----

> <Gold.Chemscore.Fitness>
21.9918

> <Gold.Chemscore.DG>
-22.9983

> <Gold.Chemscore.ZeroCoef>
-5.4800

> <Gold.Chemscore.Hbond>
4.5730

> <Gold.Chemscore.Metal>
0.0000

> <Gold.Chemscore.Lipo>
54.9764

> <Gold.Chemscore.Internal_Hbond>
0.0000

> <Gold.Chemscore.DEClash>
0.4886

> <Gold.Chemscore.DEInternal>
0.5178

> <Gold.Chemscore.Rot>
1.6358

> <Gold.Chemscore.Internal.Correction>
   9.000000E+99

> <Gold.Chemscore.Hbonds>
donor molecule, donor type, donor heavy atom, donor atom, acceptor molecule, acceptor atom, score
      L1  H     6    24       P1  7957  0.96
      L1  H     9    25       P1  7957  0.93
      L1  H    12    42       P1 10171  0.91
      P1  H  7989  7998       L1     4  0.34
      P1  H  7997  8008       L1     3  0.25

> <Gold.Chemscore.Hbond.Weighted>
-15.2739

> <Gold.Chemscore.Metal.Weighted>
-0.0000

> <Gold.Chemscore.Lipo.Weighted>
-6.4322

> <Gold.Chemscore.Internal_Hbond.Weighted>
0.0000

> <Gold.Chemscore.DEClash.Weighted>
0.4886

> <Gold.Chemscore.DEInternal.Weighted>
0.5178

> <Gold.Chemscore.Rot.Weighted>
4.1878

> <Gold.Chemscore.Internal.Correction.Weighted>
   9.000000E+99

> <Gold.Protein.RotatedTorsions>
[ 6907 6896 6895 6894 ] final  103.13 input  -60.11 | X-H torsion
[ 7974 7965 7964 7962 ] final   39.05 input  175.53 | X-H torsion
[ 8008 7997 7996 7995 ] final  -34.85 input   59.86 | X-H torsion
[ 10167 10162 10161 10158 ] final    5.96 input  -65.29 | X-H torsion
[ 10718 10713 10712 10709 ] final  -38.57 input   66.30 | X-H torsion
[ 10763 10752 10751 10750 ] final  -19.30 input  -60.55 | X-H torsion
[ 11005 11000 10999 10996 ] final  175.34 input  -57.11 | X-H torsion

> <Gold.Protein.ActiveResidues>
 VAL166  LYS551  ARG553  GLY616  TRP617  ASP618  TYR619  PRO620  LYS621  CYS622 
 ASP623  PHE694  ASN695  SER759  ASP760  ASP761  ALA762  ILE779  LEU786  VAL792 
 PHE793  MET794  SER795  GLU796  ALA797  LYS798  CYS799  TRP800  GLU811  SER814 

> <Gold.Protein.RotatedAtoms>
  152.5304  133.9871  159.7833 H   0  0  0  0  0  0  0  0  0  0  0  0  # atno 6907 bound_to 6896
  151.0114  133.5954  159.2689 H   0  0  0  0  0  0  0  0  0  0  0  0  # atno 6908 bound_to 6896
  151.3027  135.0779  159.9297 H   0  0  0  0  0  0  0  0  0  0  0  0  # atno 6909 bound_to 6896
  146.1015  139.5698  142.9411 H   0  0  0  0  0  0  0  0  0  0  0  0  # atno 7974 bound_to 7965
  154.4110  140.1673  156.2117 H   0  0  0  0  0  0  0  0  0  0  0  0  # atno 8008 bound_to 7997
  155.9439  140.3406  155.6327 H   0  0  0  0  0  0  0  0  0  0  0  0  # atno 8009 bound_to 7997
  155.6955  140.0739  157.2422 H   0  0  0  0  0  0  0  0  0  0  0  0  # atno 8010 bound_to 7997
  140.6454  143.7675  150.7491 H   0  0  0  0  0  0  0  0  0  0  0  0  # atno 10167 bound_to 10162
  156.3023  130.4241  149.8131 H   0  0  0  0  0  0  0  0  0  0  0  0  # atno 10718 bound_to 10713
  153.6027  135.6999  153.5378 H   0  0  0  0  0  0  0  0  0  0  0  0  # atno 10763 bound_to 10752
  153.3083  135.4108  155.1313 H   0  0  0  0  0  0  0  0  0  0  0  0  # atno 10764 bound_to 10752
  154.8579  135.3666  154.5563 H   0  0  0  0  0  0  0  0  0  0  0  0  # atno 10765 bound_to 10752
  140.3612  134.7111  157.4332 H   0  0  0  0  0  0  0  0  0  0  0  0  # atno 11005 bound_to 11000
  145.5846  141.0378  143.2103 LP  0  0  0  0  0  0  0  0  0  0  0  0  # atno 17320 bound_to 7965
  144.7436  139.7380  143.7301 LP  0  0  0  0  0  0  0  0  0  0  0  0  # atno 17321 bound_to 7965
  140.1315  143.4522  152.2251 LP  0  0  0  0  0  0  0  0  0  0  0  0  # atno 17342 bound_to 10162
  139.5664  144.7438  151.4010 LP  0  0  0  0  0  0  0  0  0  0  0  0  # atno 17343 bound_to 10162
  156.5505  130.8340  151.3298 LP  0  0  0  0  0  0  0  0  0  0  0  0  # atno 17370 bound_to 10713
  157.7371  130.9790  150.2173 LP  0  0  0  0  0  0  0  0  0  0  0  0  # atno 17371 bound_to 10713
  140.0625  134.5975  155.8732 LP  0  0  0  0  0  0  0  0  0  0  0  0  # atno 17394 bound_to 11000
  141.1983  133.6601  156.5787 LP  0  0  0  0  0  0  0  0  0  0  0  0  # atno 17395 bound_to 11000

$$$$
