AV-unprocessed.smi:3009|AV-procd|sdf|11450|dock6
  -GOLD-   2272016383D 1   1.00000     0.00000
 Structure written by MMmdl.
 44 45  0  0  0  0  0  0  0  0  2 V2000
  150.9783  142.9885  157.0665 C   0  0  0  0  0  0  0  0  0  0  0  0
  150.5149  141.5315  156.9163 C   0  0  0  0  0  0  0  0  0  0  0  0
  151.6325  140.5671  157.3482 C   0  0  0  0  0  0  0  0  0  0  0  0
  150.0434  141.2601  155.4707 C   0  0  0  0  0  0  0  0  0  0  0  0
  148.6971  141.8226  155.1746 N   0  3  2  0  0  0  0  0  0  0  0  0
  147.7137  141.6034  156.2628 C   0  0  0  0  0  0  0  0  0  0  0  0
  147.1753  140.1620  156.2407 C   0  0  0  0  0  0  0  0  0  0  0  0
  146.6064  139.8921  154.9662 O   0  0  0  0  0  0  0  0  0  0  0  0
  147.5569  139.9774  153.9083 C   0  0  1  0  0  0  0  0  0  0  0  0
  146.8628  139.6038  152.5862 C   0  0  0  0  0  0  0  0  0  0  0  0
  146.9226  138.1691  152.3269 N   0  0  0  0  0  0  0  0  0  0  0  0
  145.9032  137.3119  152.4762 C   0  0  0  0  0  0  0  0  0  0  0  0
  144.7833  137.6456  152.8632 O   0  0  0  0  0  0  0  0  0  0  0  0
  146.2683  136.0611  152.1509 N   0  0  0  0  0  0  0  0  0  0  0  0
  145.4631  134.8946  152.1747 C   0  0  0  0  0  0  0  0  0  0  0  0
  145.3060  133.9988  151.0824 C   0  0  0  0  0  0  0  0  0  0  0  0
  144.4942  132.9977  151.3907 N   0  0  0  0  0  0  0  0  0  0  0  0
  144.1312  133.2462  152.6693 N   0  0  0  0  0  0  0  0  0  0  0  0
  144.6971  134.3900  153.1879 C   0  0  0  0  0  0  0  0  0  0  0  0
  148.1180  141.4167  153.8674 C   0  0  0  0  0  0  0  0  0  0  0  0
  143.5029  132.6328  153.1690 H   0  0  0  0  0  0  0  0  0  0  0  0
  151.8308  143.2033  156.4210 H   0  0  0  0  0  0  0  0  0  0  0  0
  151.2767  143.2024  158.0932 H   0  0  0  0  0  0  0  0  0  0  0  0
  150.1807  143.6851  156.8063 H   0  0  0  0  0  0  0  0  0  0  0  0
  149.6767  141.4003  157.5997 H   0  0  0  0  0  0  0  0  0  0  0  0
  152.5079  140.6596  156.7046 H   0  0  0  0  0  0  0  0  0  0  0  0
  151.3018  139.5290  157.3138 H   0  0  0  0  0  0  0  0  0  0  0  0
  151.9506  140.7710  158.3710 H   0  0  0  0  0  0  0  0  0  0  0  0
  150.7725  141.6418  154.7562 H   0  0  0  0  0  0  0  0  0  0  0  0
  150.0201  140.1795  155.3224 H   0  0  0  0  0  0  0  0  0  0  0  0
  148.1494  141.8424  157.2335 H   0  0  0  0  0  0  0  0  0  0  0  0
  146.8849  142.2985  156.1214 H   0  0  0  0  0  0  0  0  0  0  0  0
  147.9603  139.4391  156.4666 H   0  0  0  0  0  0  0  0  0  0  0  0
  146.4042  140.0399  157.0015 H   0  0  0  0  0  0  0  0  0  0  0  0
  148.3646  139.2661  154.0871 H   0  0  0  0  0  0  0  0  0  0  0  0
  145.8310  139.9595  152.5755 H   0  0  0  0  0  0  0  0  0  0  0  0
  147.3662  140.0998  151.7559 H   0  0  0  0  0  0  0  0  0  0  0  0
  147.8051  137.8027  152.0012 H   0  0  0  0  0  0  0  0  0  0  0  0
  147.2217  135.9297  151.8461 H   0  0  0  0  0  0  0  0  0  0  0  0
  145.7449  134.0413  150.0962 H   0  0  0  0  0  0  0  0  0  0  0  0
  144.5051  134.7237  154.1968 H   0  0  0  0  0  0  0  0  0  0  0  0
  147.3095  142.1100  153.6310 H   0  0  0  0  0  0  0  0  0  0  0  0
  148.8462  141.5230  153.0648 H   0  0  0  0  0  0  0  0  0  0  0  0
  148.8373  142.8219  155.1293 H   0  0  0  0  0  0  0  0  0  0  0  0
  1  2  1  0  0  0  0
  1 22  1  0  0  0  0
  1 23  1  0  0  0  0
  1 24  1  0  0  0  0
  2  3  1  0  0  0  0
  2  4  1  0  0  0  0
  2 25  1  0  0  0  0
  3 26  1  0  0  0  0
  3 27  1  0  0  0  0
  3 28  1  0  0  0  0
  4  5  1  0  0  0  0
  4 29  1  0  0  0  0
  4 30  1  0  0  0  0
  5 20  1  0  0  0  0
  5  6  1  0  0  0  0
  5 44  1  0  0  0  0
  6  7  1  0  0  0  0
  6 31  1  0  0  0  0
  6 32  1  0  0  0  0
  7  8  1  0  0  0  0
  7 33  1  0  0  0  0
  7 34  1  0  0  0  0
  8  9  1  0  0  0  0
  9 10  1  0  0  0  0
  9 20  1  0  0  0  0
  9 35  1  0  0  0  0
 10 11  1  0  0  0  0
 10 36  1  0  0  0  0
 10 37  1  0  0  0  0
 11 12  1  0  0  0  0
 11 38  1  0  0  0  0
 12 13  2  0  0  0  0
 12 14  1  0  0  0  0
 14 15  1  0  0  0  0
 14 39  1  0  0  0  0
 15 19  2  0  0  0  0
 15 16  1  0  0  0  0
 16 17  2  0  0  0  0
 16 40  1  0  0  0  0
 17 18  1  0  0  0  0
 18 21  1  0  0  0  0
 18 19  1  0  0  0  0
 19 41  1  0  0  0  0
 20 42  1  0  0  0  0
 20 43  1  0  0  0  0
M  CHG  1   5   1
M  END
> <s_m_source_file>
AV-unprocessed.smi

> <i_m_source_file_index>
3009

> <i_lp_mmshare_version>
43012

> <i_f3d_flags>
0

> <s_epik_input>
W0NIM11bQ0hdKFtDSDNdKVtDSDJdTjFbQ0gyXVtDSDJdT1tDQEhdKFtDSDJdMSlbQ0gyXVtOSF1DKD1PKVtOSF1jMltjSF1uW25IXVtjSF0y

> <s_epik_cmdline>
J2VwaWtfcHl0aG9uJywgJy1waCcsICc3LjAnLCAnLXRuJywgJzgnLCAnLW1hJywgJzIwMCcsICctbWV0YWxfYmluZGluZycsICctaW1hZScsICc8aW5maWxlLm1hZT4nLCAnLW9tYWUnLCAnPG91dGZpbGUubWFlPic=

> <r_lp_tautomer_probability>
0.5

> <r_epik_Ionization_Penalty>
0.0974064

> <r_epik_Ionization_Penalty_Charging>
0.0973651

> <r_epik_Ionization_Penalty_Neutral>
4.13573e-05

> <r_epik_State_Penalty>
0.0874853

> <r_epik_Charging_Adjusted_Penalty>
0.18485

> <i_epik_Tot_Q>
1

> <i_epik_Tot_abs_Q>
1

> <r_epik_Metal_State_Penalty>
0.0874855

> <b_epik_Metal_Only>
0

> <s_lp_Force_Field>
OPLS_2005

> <r_lp_Energy>
22.9615

> <b_lp_Chiralities_Consistent>
1

> <s_lp_Variant>
AV-unprocessed.smi:3009-2

> <Gold.Version>
5.8.1

> <Gold.Id.Protein>
6NUR|6NUR_protein|mol2

> <Gold.PLP.Fitness>
42.9336

> <Gold.PLP.PLP>
-27.4096

> <Gold.PLP.part.hbond>
-4.0000

> <Gold.PLP.part.metal>
0.0000

> <Gold.PLP.part.buried>
-4.1290

> <Gold.PLP.part.nonpolar>
-21.6803

> <Gold.PLP.part.repulsive>
1.5253

> <Gold.PLP.ligand.clash>
0.0000

> <Gold.PLP.ligand.torsion>
1.1637

> <Gold.PLP.Chemscore.Hbond>
4.9350

> <Gold.PLP.Chemscore.CHOScore>
0.9993

> <Gold.PLP.Chemscore.Metal>
0.0000

> <Gold.Chemscore.Hbonds>
donor molecule, donor type, donor heavy atom, donor atom, acceptor molecule, acceptor atom, score
      L1  H     5    44       P1  8028  2.00
      L1  H    11    38       P1  7948  0.94
      L1  H    14    39       P1  7948  1.00
      L1  H    18    21       P1 10957  1.00
      L1  C    16    40       P1  7921  0.82

> <Gold.PLP.Chemscore.Internal.Correction>
0.0486

> <Gold.Rescore>
     Score         DG    S(hbond)    S(metal)    S(lipo)     H(rot)  DE(clash)    DE(int)     intcor
     20.39     -21.38       3.87        0.00      64.60       1.80       0.10       0.89       ----

> <Gold.Chemscore.Fitness>
20.3923

> <Gold.Chemscore.DG>
-21.3785

> <Gold.Chemscore.ZeroCoef>
-5.4800

> <Gold.Chemscore.Hbond>
3.8738

> <Gold.Chemscore.Metal>
0.0000

> <Gold.Chemscore.Lipo>
64.6026

> <Gold.Chemscore.Internal_Hbond>
0.0000

> <Gold.Chemscore.DEClash>
0.0985

> <Gold.Chemscore.DEInternal>
0.8877

> <Gold.Chemscore.Rot>
1.7963

> <Gold.Chemscore.Internal.Correction>
   9.000000E+99

> <Gold.Chemscore.Hbonds>
donor molecule, donor type, donor heavy atom, donor atom, acceptor molecule, acceptor atom, score
      L1  H     5    44       P1  8028  0.98
      L1  H    11    38       P1  7948  0.91
      L1  H    14    39       P1  7948  0.99
      L1  H    18    21       P1 10957  0.24

> <Gold.Chemscore.Hbond.Weighted>
-12.9385

> <Gold.Chemscore.Metal.Weighted>
-0.0000

> <Gold.Chemscore.Lipo.Weighted>
-7.5585

> <Gold.Chemscore.Internal_Hbond.Weighted>
0.0000

> <Gold.Chemscore.DEClash.Weighted>
0.0985

> <Gold.Chemscore.DEInternal.Weighted>
0.8877

> <Gold.Chemscore.Rot.Weighted>
4.5985

> <Gold.Chemscore.Internal.Correction.Weighted>
   9.000000E+99

> <Gold.Protein.RotatedTorsions>
[ 6907 6896 6895 6894 ] final   70.43 input  -60.11 | X-H torsion
[ 7974 7965 7964 7962 ] final -157.16 input  175.53 | X-H torsion
[ 8008 7997 7996 7995 ] final -110.39 input   59.86 | X-H torsion
[ 10167 10162 10161 10158 ] final  116.54 input  -65.29 | X-H torsion
[ 10718 10713 10712 10709 ] final   74.16 input   66.30 | X-H torsion
[ 10763 10752 10751 10750 ] final   66.23 input  -60.55 | X-H torsion
[ 11005 11000 10999 10996 ] final   90.34 input  -57.11 | X-H torsion

> <Gold.Protein.ActiveResidues>
 VAL166  LYS551  ARG553  GLY616  TRP617  ASP618  TYR619  PRO620  LYS621  CYS622 
 ASP623  PHE694  ASN695  SER759  ASP760  ASP761  ALA762  ILE779  LEU786  VAL792 
 PHE793  MET794  SER795  GLU796  ALA797  LYS798  CYS799  TRP800  GLU811  SER814 

> <Gold.Protein.RotatedAtoms>
  152.4748  134.4870  159.9683 H   0  0  0  0  0  0  0  0  0  0  0  0  # atno 6907 bound_to 6896
  151.4889  133.3523  159.2858 H   0  0  0  0  0  0  0  0  0  0  0  0  # atno 6908 bound_to 6896
  150.8780  134.8194  159.7265 H   0  0  0  0  0  0  0  0  0  0  0  0  # atno 6909 bound_to 6896
  144.7560  140.4008  143.6012 H   0  0  0  0  0  0  0  0  0  0  0  0  # atno 7974 bound_to 7965
  154.9738  140.0397  157.2246 H   0  0  0  0  0  0  0  0  0  0  0  0  # atno 8008 bound_to 7997
  154.7777  140.2813  155.6066 H   0  0  0  0  0  0  0  0  0  0  0  0  # atno 8009 bound_to 7997
  156.2931  140.2598  156.2594 H   0  0  0  0  0  0  0  0  0  0  0  0  # atno 8010 bound_to 7997
  139.6240  144.7105  151.2573 H   0  0  0  0  0  0  0  0  0  0  0  0  # atno 10167 bound_to 10162
  157.6580  130.9664  150.1172 H   0  0  0  0  0  0  0  0  0  0  0  0  # atno 10718 bound_to 10713
  153.0131  135.5328  154.6792 H   0  0  0  0  0  0  0  0  0  0  0  0  # atno 10763 bound_to 10752
  154.5956  135.2863  155.0592 H   0  0  0  0  0  0  0  0  0  0  0  0  # atno 10764 bound_to 10752
  154.1668  135.6538  153.5052 H   0  0  0  0  0  0  0  0  0  0  0  0  # atno 10765 bound_to 10752
  139.8858  134.8608  156.3271 H   0  0  0  0  0  0  0  0  0  0  0  0  # atno 11005 bound_to 11000
  145.6777  139.1612  143.2719 LP  0  0  0  0  0  0  0  0  0  0  0  0  # atno 17320 bound_to 7965
  146.1571  140.6842  142.9295 LP  0  0  0  0  0  0  0  0  0  0  0  0  # atno 17321 bound_to 7965
  140.7399  143.6602  150.8171 LP  0  0  0  0  0  0  0  0  0  0  0  0  # atno 17342 bound_to 10162
  140.0217  143.5535  152.2797 LP  0  0  0  0  0  0  0  0  0  0  0  0  # atno 17343 bound_to 10162
  156.2053  130.3663  149.8737 LP  0  0  0  0  0  0  0  0  0  0  0  0  # atno 17370 bound_to 10713
  156.6630  130.8790  151.3550 LP  0  0  0  0  0  0  0  0  0  0  0  0  # atno 17371 bound_to 10713
  140.9748  133.7304  156.0586 LP  0  0  0  0  0  0  0  0  0  0  0  0  # atno 17394 bound_to 11000
  140.7825  134.3709  157.5484 LP  0  0  0  0  0  0  0  0  0  0  0  0  # atno 17395 bound_to 11000

$$$$
