AV-unprocessed.smi:2942|AV-procd|sdf|11266|dock7
  -GOLD-   2272016153D 1   1.00000     0.00000
 Structure written by MMmdl.
 45 48  0  0  0  0  0  0  0  0  1 V2000
  154.1432  141.2949  160.6829 O   0  0  0  0  0  0  0  0  0  0  0  0
  153.3965  142.1702  161.1229 C   0  0  0  0  0  0  0  0  0  0  0  0
  153.3401  142.4734  162.4299 N   0  0  0  0  0  0  0  0  0  0  0  0
  154.1665  141.8779  163.4747 C   0  0  0  0  0  0  0  0  0  0  0  0
  154.5958  142.8860  164.5618 C   0  0  0  0  0  0  0  0  0  0  0  0
  154.9943  142.2393  165.8792 C   0  0  0  0  0  0  0  0  0  0  0  0
  155.7078  141.0220  165.8940 C   0  0  0  0  0  0  0  0  0  0  0  0
  156.0267  140.4460  167.1391 C   0  0  0  0  0  0  0  0  0  0  0  0
  155.6224  141.1052  168.3159 C   0  0  0  0  0  0  0  0  0  0  0  0
  154.9143  142.3173  168.1949 C   0  0  0  0  0  0  0  0  0  0  0  0
  154.6028  142.8768  167.0063 N   0  0  0  0  0  0  0  0  0  0  0  0
  152.5022  142.9968  160.1697 C   0  0  0  0  0  0  0  0  0  0  0  0
  153.4012  143.7279  159.1373 C   0  0  0  0  0  0  0  0  0  0  0  0
  152.5349  144.5538  158.1621 C   0  0  1  0  0  0  0  0  0  0  0  0
  151.5732  143.6163  157.4032 C   0  0  0  0  0  0  0  0  0  0  0  0
  150.6576  142.8988  158.4168 C   0  0  2  0  0  0  0  0  0  0  0  0
  149.8378  143.9398  159.2059 C   0  0  0  0  0  0  0  0  0  0  0  0
  150.8018  144.8775  159.9604 C   0  0  2  0  0  0  0  0  0  0  0  0
  151.7203  145.6002  158.9520 C   0  0  0  0  0  0  0  0  0  0  0  0
  151.6624  144.0555  160.9433 C   0  0  0  0  0  0  0  0  0  0  0  0
  151.5200  142.0715  159.3936 C   0  0  0  0  0  0  0  0  0  0  0  0
  152.7041  143.2039  162.7154 H   0  0  0  0  0  0  0  0  0  0  0  0
  153.5750  141.0866  163.9357 H   0  0  0  0  0  0  0  0  0  0  0  0
  155.0400  141.3924  163.0372 H   0  0  0  0  0  0  0  0  0  0  0  0
  155.4298  143.4855  164.1954 H   0  0  0  0  0  0  0  0  0  0  0  0
  153.7830  143.5900  164.7472 H   0  0  0  0  0  0  0  0  0  0  0  0
  155.9977  140.5365  164.9740 H   0  0  0  0  0  0  0  0  0  0  0  0
  156.5692  139.5136  167.1903 H   0  0  0  0  0  0  0  0  0  0  0  0
  155.8487  140.6921  169.2877 H   0  0  0  0  0  0  0  0  0  0  0  0
  154.5864  142.8498  169.0754 H   0  0  0  0  0  0  0  0  0  0  0  0
  154.1038  144.3898  159.6459 H   0  0  0  0  0  0  0  0  0  0  0  0
  154.0067  143.0112  158.5797 H   0  0  0  0  0  0  0  0  0  0  0  0
  153.1825  145.0633  157.4479 H   0  0  0  0  0  0  0  0  0  0  0  0
  150.9755  144.1852  156.6899 H   0  0  0  0  0  0  0  0  0  0  0  0
  152.1378  142.8871  156.8207 H   0  0  0  0  0  0  0  0  0  0  0  0
  149.9784  142.2340  157.8824 H   0  0  0  0  0  0  0  0  0  0  0  0
  149.2035  144.5140  158.5293 H   0  0  0  0  0  0  0  0  0  0  0  0
  149.1687  143.4408  159.9081 H   0  0  0  0  0  0  0  0  0  0  0  0
  150.2246  145.6161  160.5173 H   0  0  0  0  0  0  0  0  0  0  0  0
  152.3900  146.2854  159.4732 H   0  0  0  0  0  0  0  0  0  0  0  0
  151.1264  146.2095  158.2697 H   0  0  0  0  0  0  0  0  0  0  0  0
  151.0219  143.5687  161.6804 H   0  0  0  0  0  0  0  0  0  0  0  0
  152.3053  144.7396  161.4990 H   0  0  0  0  0  0  0  0  0  0  0  0
  152.0651  141.3122  158.8303 H   0  0  0  0  0  0  0  0  0  0  0  0
  150.8747  141.5325  160.0892 H   0  0  0  0  0  0  0  0  0  0  0  0
  1  2  2  0  0  0  0
  2  3  1  0  0  0  0
  2 12  1  0  0  0  0
  3  4  1  0  0  0  0
  3 22  1  0  0  0  0
  4  5  1  0  0  0  0
  4 23  1  0  0  0  0
  4 24  1  0  0  0  0
  5  6  1  0  0  0  0
  5 25  1  0  0  0  0
  5 26  1  0  0  0  0
  6 11  1  0  0  0  0
  6  7  2  0  0  0  0
  7  8  1  0  0  0  0
  7 27  1  0  0  0  0
  8  9  2  0  0  0  0
  8 28  1  0  0  0  0
  9 10  1  0  0  0  0
  9 29  1  0  0  0  0
 10 11  2  0  0  0  0
 10 30  1  0  0  0  0
 12 20  1  0  0  0  0
 12 21  1  0  0  0  0
 12 13  1  0  0  0  0
 13 14  1  0  0  0  0
 13 31  1  0  0  0  0
 13 32  1  0  0  0  0
 14 19  1  0  0  0  0
 14 15  1  0  0  0  0
 14 33  1  0  0  0  0
 15 16  1  0  0  0  0
 15 34  1  0  0  0  0
 15 35  1  0  0  0  0
 16 17  1  0  0  0  0
 16 21  1  0  0  0  0
 16 36  1  0  0  0  0
 17 18  1  0  0  0  0
 17 37  1  0  0  0  0
 17 38  1  0  0  0  0
 18 19  1  0  0  0  0
 18 20  1  0  0  0  0
 18 39  1  0  0  0  0
 19 40  1  0  0  0  0
 19 41  1  0  0  0  0
 20 42  1  0  0  0  0
 20 43  1  0  0  0  0
 21 44  1  0  0  0  0
 21 45  1  0  0  0  0
M  END
> <s_m_source_file>
AV-unprocessed.smi

> <i_m_source_file_index>
2942

> <i_lp_mmshare_version>
43012

> <i_f3d_flags>
0

> <s_epik_input>
W0NIMl0xW0NASF0oW0NIMl0yKVtDSDJdW0NASF0oW0NIMl0zKVtDSDJdW0NAQEhdMVtDSDJdQzIzQyg9TylbTkhdW0NIMl1bQ0gyXWM0W2NIXVtjSF1bY0hdW2NIXW40

> <s_epik_cmdline>
J2VwaWtfcHl0aG9uJywgJy1waCcsICc3LjAnLCAnLXRuJywgJzgnLCAnLW1hJywgJzIwMCcsICctbWV0YWxfYmluZGluZycsICctaW1hZScsICc8aW5maWxlLm1hZT4nLCAnLW9tYWUnLCAnPG91dGZpbGUubWFlPic=

> <r_epik_Ionization_Penalty>
0.0283659

> <r_epik_Ionization_Penalty_Charging>
0

> <r_epik_Ionization_Penalty_Neutral>
0.0283659

> <r_epik_State_Penalty>
0.0232723

> <r_epik_Charging_Adjusted_Penalty>
0.0232723

> <i_epik_Tot_Q>
0

> <i_epik_Tot_abs_Q>
0

> <r_epik_Metal_State_Penalty>
0.0222054

> <b_epik_Metal_Only>
0

> <s_lp_Force_Field>
OPLS_2005

> <r_lp_Energy>
35.5919

> <b_lp_Chiralities_Consistent>
1

> <s_lp_Variant>
AV-unprocessed.smi:2942-1

> <Gold.Version>
5.8.1

> <Gold.Id.Protein>
6NUR|6NUR_protein|mol2

> <Gold.PLP.Fitness>
50.1725

> <Gold.PLP.PLP>
-51.5313

> <Gold.PLP.part.hbond>
-1.0000

> <Gold.PLP.part.metal>
0.0000

> <Gold.PLP.part.buried>
-6.3610

> <Gold.PLP.part.nonpolar>
-44.4328

> <Gold.PLP.part.repulsive>
0.1470

> <Gold.PLP.ligand.clash>
0.2305

> <Gold.PLP.ligand.torsion>
0.5707

> <Gold.PLP.Chemscore.Hbond>
0.0000

> <Gold.PLP.Chemscore.CHOScore>
0.0000

> <Gold.PLP.Chemscore.Metal>
0.0000

> <Gold.PLP.Chemscore.Internal.Correction>
0.0132

> <Gold.Rescore>
     Score         DG    S(hbond)    S(metal)    S(lipo)     H(rot)  DE(clash)    DE(int)     intcor
     19.51     -20.17       0.00        0.00     154.55       1.32       0.10       0.56       ----

> <Gold.Chemscore.Fitness>
19.5109

> <Gold.Chemscore.DG>
-20.1708

> <Gold.Chemscore.ZeroCoef>
-5.4800

> <Gold.Chemscore.Hbond>
0.0000

> <Gold.Chemscore.Metal>
0.0000

> <Gold.Chemscore.Lipo>
154.5536

> <Gold.Chemscore.Internal_Hbond>
0.0000

> <Gold.Chemscore.DEClash>
0.0956

> <Gold.Chemscore.DEInternal>
0.5643

> <Gold.Chemscore.Rot>
1.3250

> <Gold.Chemscore.Internal.Correction>
   9.000000E+99

> <Gold.Chemscore.Hbond.Weighted>
-0.0000

> <Gold.Chemscore.Metal.Weighted>
-0.0000

> <Gold.Chemscore.Lipo.Weighted>
-18.0828

> <Gold.Chemscore.Internal_Hbond.Weighted>
0.0000

> <Gold.Chemscore.DEClash.Weighted>
0.0956

> <Gold.Chemscore.DEInternal.Weighted>
0.5643

> <Gold.Chemscore.Rot.Weighted>
3.3920

> <Gold.Chemscore.Internal.Correction.Weighted>
   9.000000E+99

> <Gold.Protein.RotatedTorsions>
[ 6907 6896 6895 6894 ] final  146.50 input  -60.11 | X-H torsion
[ 7974 7965 7964 7962 ] final  121.06 input  175.53 | X-H torsion
[ 8008 7997 7996 7995 ] final -135.99 input   59.86 | X-H torsion
[ 10167 10162 10161 10158 ] final -118.97 input  -65.29 | X-H torsion
[ 10718 10713 10712 10709 ] final  129.99 input   66.30 | X-H torsion
[ 10763 10752 10751 10750 ] final -114.44 input  -60.55 | X-H torsion
[ 11005 11000 10999 10996 ] final  107.52 input  -57.11 | X-H torsion

> <Gold.Protein.ActiveResidues>
 VAL166  LYS551  ARG553  GLY616  TRP617  ASP618  TYR619  PRO620  LYS621  CYS622 
 ASP623  PHE694  ASN695  SER759  ASP760  ASP761  ALA762  ILE779  LEU786  VAL792 
 PHE793  MET794  SER795  GLU796  ALA797  LYS798  CYS799  TRP800  GLU811  SER814 

> <Gold.Protein.RotatedAtoms>
  152.1670  133.4619  159.4889 H   0  0  0  0  0  0  0  0  0  0  0  0  # atno 6907 bound_to 6896
  150.6914  134.2000  159.4327 H   0  0  0  0  0  0  0  0  0  0  0  0  # atno 6908 bound_to 6896
  151.9905  134.9981  160.0612 H   0  0  0  0  0  0  0  0  0  0  0  0  # atno 6909 bound_to 6896
  145.1237  139.3372  143.4701 H   0  0  0  0  0  0  0  0  0  0  0  0  # atno 7974 bound_to 7965
  155.3879  140.0498  157.3041 H   0  0  0  0  0  0  0  0  0  0  0  0  # atno 8008 bound_to 7997
  154.5050  140.2171  155.9230 H   0  0  0  0  0  0  0  0  0  0  0  0  # atno 8009 bound_to 7997
  156.1515  140.3135  155.8661 H   0  0  0  0  0  0  0  0  0  0  0  0  # atno 8010 bound_to 7997
  140.0518  143.5053  152.2078 H   0  0  0  0  0  0  0  0  0  0  0  0  # atno 10167 bound_to 10162
  157.5103  131.1096  150.9302 H   0  0  0  0  0  0  0  0  0  0  0  0  # atno 10718 bound_to 10713
  154.8440  135.4417  154.1507 H   0  0  0  0  0  0  0  0  0  0  0  0  # atno 10763 bound_to 10752
  153.2668  135.6941  153.7527 H   0  0  0  0  0  0  0  0  0  0  0  0  # atno 10764 bound_to 10752
  153.6783  135.3407  155.3147 H   0  0  0  0  0  0  0  0  0  0  0  0  # atno 10765 bound_to 10752
  139.8829  134.9403  156.5831 H   0  0  0  0  0  0  0  0  0  0  0  0  # atno 11005 bound_to 11000
  146.3519  140.1207  142.8600 LP  0  0  0  0  0  0  0  0  0  0  0  0  # atno 17320 bound_to 7965
  145.0711  140.9156  143.4881 LP  0  0  0  0  0  0  0  0  0  0  0  0  # atno 17321 bound_to 7965
  139.5948  144.7563  151.3312 LP  0  0  0  0  0  0  0  0  0  0  0  0  # atno 17342 bound_to 10162
  140.7213  143.7127  150.7757 LP  0  0  0  0  0  0  0  0  0  0  0  0  # atno 17343 bound_to 10162
  156.9944  130.5576  149.5306 LP  0  0  0  0  0  0  0  0  0  0  0  0  # atno 17370 bound_to 10713
  156.0285  130.5377  150.8471 LP  0  0  0  0  0  0  0  0  0  0  0  0  # atno 17371 bound_to 10713
  140.8012  133.8504  155.8728 LP  0  0  0  0  0  0  0  0  0  0  0  0  # atno 17394 bound_to 11000
  140.9591  134.1679  157.4668 LP  0  0  0  0  0  0  0  0  0  0  0  0  # atno 17395 bound_to 11000

$$$$
