AV-unprocessed.smi:1420|AV-procd|sdf|5787|dock2
  -GOLD-   22720 5433D 1   1.00000     0.00000
 Structure written by MMmdl.
 38 39  0  0  0  0  0  0  0  0  1 V2000
  152.1276  145.2216  159.1495 C   0  0  0  0  0  0  0  0  0  0  0  0
  151.1117  144.4607  160.0395 C   0  0  1  0  0  0  0  0  0  0  0  0
  149.9065  144.0187  159.1586 C   0  0  0  0  0  0  0  0  0  0  0  0
  150.2814  143.6843  157.7876 N   0  0  0  0  0  0  0  0  0  0  0  0
  150.4261  142.4388  157.3088 C   0  0  0  0  0  0  0  0  0  0  0  0
  150.2580  141.4266  157.9885 O   0  0  0  0  0  0  0  0  0  0  0  0
  150.8135  142.3141  155.8346 C   0  0  0  0  0  0  0  0  0  0  0  0
  149.7797  141.6350  155.0740 N   0  0  0  0  0  0  0  0  0  0  0  0
  148.4341  141.9312  155.0024 C   0  0  0  0  0  0  0  0  0  0  0  0
  147.8606  141.0173  154.1654 C   0  0  0  0  0  0  0  0  0  0  0  0
  148.9496  140.1913  153.7693 C   0  0  0  0  0  0  0  0  0  0  0  0
  150.0967  140.5629  154.3145 N   0  0  0  0  0  0  0  0  0  0  0  0
  151.7315  143.3433  160.7898 N   0  0  0  0  0  0  0  0  0  0  0  0
  152.6763  142.5737  159.9719 C   0  0  0  0  0  0  0  0  0  0  0  0
  153.3473  141.4285  160.7499 C   0  0  0  0  0  0  0  0  0  0  0  0
  154.0091  141.9512  161.8932 O   0  0  0  0  0  0  0  0  0  0  0  0
  153.1159  142.6399  162.7568 C   0  0  0  0  0  0  0  0  0  0  0  0
  152.4401  143.7929  161.9939 C   0  0  0  0  0  0  0  0  0  0  0  0
  151.6578  146.0072  158.5589 H   0  0  0  0  0  0  0  0  0  0  0  0
  152.6278  144.5452  158.4556 H   0  0  0  0  0  0  0  0  0  0  0  0
  152.8918  145.7290  159.7365 H   0  0  0  0  0  0  0  0  0  0  0  0
  150.7309  145.1779  160.7682 H   0  0  0  0  0  0  0  0  0  0  0  0
  149.4249  143.1459  159.6005 H   0  0  0  0  0  0  0  0  0  0  0  0
  149.1408  144.7901  159.0920 H   0  0  0  0  0  0  0  0  0  0  0  0
  150.4436  144.4563  157.1568 H   0  0  0  0  0  0  0  0  0  0  0  0
  150.9693  143.3043  155.4044 H   0  0  0  0  0  0  0  0  0  0  0  0
  151.7561  141.7721  155.7414 H   0  0  0  0  0  0  0  0  0  0  0  0
  148.0028  142.7575  155.5483 H   0  0  0  0  0  0  0  0  0  0  0  0
  146.8214  140.9491  153.8796 H   0  0  0  0  0  0  0  0  0  0  0  0
  148.9403  139.3388  153.1062 H   0  0  0  0  0  0  0  0  0  0  0  0
  152.1695  142.1245  159.1200 H   0  0  0  0  0  0  0  0  0  0  0  0
  153.4445  143.2369  159.5714 H   0  0  0  0  0  0  0  0  0  0  0  0
  152.6105  140.6833  161.0540 H   0  0  0  0  0  0  0  0  0  0  0  0
  154.0761  140.9191  160.1194 H   0  0  0  0  0  0  0  0  0  0  0  0
  152.3700  141.9473  163.1502 H   0  0  0  0  0  0  0  0  0  0  0  0
  153.6741  143.0267  163.6094 H   0  0  0  0  0  0  0  0  0  0  0  0
  153.1905  144.5382  161.7254 H   0  0  0  0  0  0  0  0  0  0  0  0
  151.7548  144.2696  162.6912 H   0  0  0  0  0  0  0  0  0  0  0  0
  1  2  1  0  0  0  0
  1 19  1  0  0  0  0
  1 20  1  0  0  0  0
  1 21  1  0  0  0  0
  2  3  1  0  0  0  0
  2 13  1  0  0  0  0
  2 22  1  0  0  0  0
  3  4  1  0  0  0  0
  3 23  1  0  0  0  0
  3 24  1  0  0  0  0
  4  5  1  0  0  0  0
  4 25  1  0  0  0  0
  5  6  2  0  0  0  0
  5  7  1  0  0  0  0
  7  8  1  0  0  0  0
  7 26  1  0  0  0  0
  7 27  1  0  0  0  0
  8 12  1  0  0  0  0
  8  9  1  0  0  0  0
  9 10  2  0  0  0  0
  9 28  1  0  0  0  0
 10 11  1  0  0  0  0
 10 29  1  0  0  0  0
 11 12  2  0  0  0  0
 11 30  1  0  0  0  0
 13 18  1  0  0  0  0
 13 14  1  0  0  0  0
 14 15  1  0  0  0  0
 14 31  1  0  0  0  0
 14 32  1  0  0  0  0
 15 16  1  0  0  0  0
 15 33  1  0  0  0  0
 15 34  1  0  0  0  0
 16 17  1  0  0  0  0
 17 18  1  0  0  0  0
 17 35  1  0  0  0  0
 17 36  1  0  0  0  0
 18 37  1  0  0  0  0
 18 38  1  0  0  0  0
M  END
> <s_m_source_file>
AV-unprocessed.smi

> <i_m_source_file_index>
1420

> <i_lp_mmshare_version>
43012

> <i_f3d_flags>
0

> <s_epik_input>
W0NIMl0xW0NIMl1PW0NIMl1bQ0gyXU4xW0NASF0oW0NIM10pW0NIMl1bTkhdQyg9TylbQ0gyXW4yW2NIXVtjSF1bY0hdbjI=

> <s_epik_cmdline>
J2VwaWtfcHl0aG9uJywgJy1waCcsICc3LjAnLCAnLXRuJywgJzgnLCAnLW1hJywgJzIwMCcsICctbWV0YWxfYmluZGluZycsICctaW1hZScsICc8aW5maWxlLm1hZT4nLCAnLW9tYWUnLCAnPG91dGZpbGUubWFlPic=

> <r_lp_tautomer_probability>
1

> <r_epik_Ionization_Penalty>
0.196927

> <r_epik_Ionization_Penalty_Charging>
0

> <r_epik_Ionization_Penalty_Neutral>
0.196927

> <r_epik_State_Penalty>
0.186684

> <r_epik_Charging_Adjusted_Penalty>
0.186684

> <i_epik_Tot_Q>
0

> <i_epik_Tot_abs_Q>
0

> <r_epik_Metal_State_Penalty>
0.186682

> <b_epik_Metal_Only>
0

> <s_lp_Force_Field>
OPLS_2005

> <r_lp_Energy>
28.9216

> <b_lp_Chiralities_Consistent>
1

> <s_lp_Variant>
AV-unprocessed.smi:1420-2

> <Gold.Version>
5.8.1

> <Gold.Id.Protein>
6NUR|6NUR_protein|mol2

> <Gold.PLP.Fitness>
49.0741

> <Gold.PLP.PLP>
-43.2096

> <Gold.PLP.part.hbond>
-3.1656

> <Gold.PLP.part.metal>
0.0000

> <Gold.PLP.part.buried>
-3.3123

> <Gold.PLP.part.nonpolar>
-35.7283

> <Gold.PLP.part.repulsive>
0.2436

> <Gold.PLP.ligand.clash>
0.0000

> <Gold.PLP.ligand.torsion>
0.9584

> <Gold.PLP.Chemscore.Hbond>
1.2535

> <Gold.PLP.Chemscore.CHOScore>
1.3167

> <Gold.PLP.Chemscore.Metal>
0.0000

> <Gold.Chemscore.Hbonds>
donor molecule, donor type, donor heavy atom, donor atom, acceptor molecule, acceptor atom, score
      L1  H     4    25       P1  8028  0.22
      P1  H  7989  7998       L1    12  0.82
      L1  C     9    28       P1  8028  0.89
      L1  C    11    30       P1  7957  0.55

> <Gold.PLP.Chemscore.Internal.Correction>
0.0706

> <Gold.Rescore>
     Score         DG    S(hbond)    S(metal)    S(lipo)     H(rot)  DE(clash)    DE(int)     intcor
     13.15     -14.24       0.62        0.00      98.11       1.87       0.15       0.94       ----

> <Gold.Chemscore.Fitness>
13.1501

> <Gold.Chemscore.DG>
-14.2432

> <Gold.Chemscore.ZeroCoef>
-5.4800

> <Gold.Chemscore.Hbond>
0.6178

> <Gold.Chemscore.Metal>
0.0000

> <Gold.Chemscore.Lipo>
98.1111

> <Gold.Chemscore.Internal_Hbond>
0.0000

> <Gold.Chemscore.DEClash>
0.1511

> <Gold.Chemscore.DEInternal>
0.9420

> <Gold.Chemscore.Rot>
1.8669

> <Gold.Chemscore.Internal.Correction>
   9.000000E+99

> <Gold.Chemscore.Hbonds>
donor molecule, donor type, donor heavy atom, donor atom, acceptor molecule, acceptor atom, score
      L1  H     4    25       P1  8028  0.17
      P1  H  7989  7998       L1    12  0.57

> <Gold.Chemscore.Hbond.Weighted>
-2.0634

> <Gold.Chemscore.Metal.Weighted>
-0.0000

> <Gold.Chemscore.Lipo.Weighted>
-11.4790

> <Gold.Chemscore.Internal_Hbond.Weighted>
0.0000

> <Gold.Chemscore.DEClash.Weighted>
0.1511

> <Gold.Chemscore.DEInternal.Weighted>
0.9420

> <Gold.Chemscore.Rot.Weighted>
4.7792

> <Gold.Chemscore.Internal.Correction.Weighted>
   9.000000E+99

> <Gold.Protein.RotatedTorsions>
[ 6907 6896 6895 6894 ] final   82.07 input  -60.11 | X-H torsion
[ 7974 7965 7964 7962 ] final   77.51 input  175.53 | X-H torsion
[ 8008 7997 7996 7995 ] final  153.60 input   59.86 | X-H torsion
[ 10167 10162 10161 10158 ] final -179.65 input  -65.29 | X-H torsion
[ 10718 10713 10712 10709 ] final -120.22 input   66.30 | X-H torsion
[ 10763 10752 10751 10750 ] final  142.19 input  -60.55 | X-H torsion
[ 11005 11000 10999 10996 ] final  -13.16 input  -57.11 | X-H torsion

> <Gold.Protein.ActiveResidues>
 VAL166  LYS551  ARG553  GLY616  TRP617  ASP618  TYR619  PRO620  LYS621  CYS622 
 ASP623  PHE694  ASN695  SER759  ASP760  ASP761  ALA762  ILE779  LEU786  VAL792 
 PHE793  MET794  SER795  GLU796  ALA797  LYS798  CYS799  TRP800  GLU811  SER814 

> <Gold.Protein.RotatedAtoms>
  152.5288  134.3106  159.9111 H   0  0  0  0  0  0  0  0  0  0  0  0  # atno 6907 bound_to 6896
  151.3056  133.4097  159.2650 H   0  0  0  0  0  0  0  0  0  0  0  0  # atno 6908 bound_to 6896
  151.0082  134.9392  159.8049 H   0  0  0  0  0  0  0  0  0  0  0  0  # atno 6909 bound_to 6896
  145.6891  139.2547  143.1770 H   0  0  0  0  0  0  0  0  0  0  0  0  # atno 7974 bound_to 7965
  156.2573  140.1989  156.6515 H   0  0  0  0  0  0  0  0  0  0  0  0  # atno 8008 bound_to 7997
  154.6533  140.0569  157.0005 H   0  0  0  0  0  0  0  0  0  0  0  0  # atno 8009 bound_to 7997
  155.1386  140.3240  155.4460 H   0  0  0  0  0  0  0  0  0  0  0  0  # atno 8010 bound_to 7997
  139.5377  144.2452  152.0829 H   0  0  0  0  0  0  0  0  0  0  0  0  # atno 10167 bound_to 10162
  156.1241  130.6346  150.9514 H   0  0  0  0  0  0  0  0  0  0  0  0  # atno 10718 bound_to 10713
  153.9516  135.2969  155.3438 H   0  0  0  0  0  0  0  0  0  0  0  0  # atno 10763 bound_to 10752
  154.7423  135.5019  153.9147 H   0  0  0  0  0  0  0  0  0  0  0  0  # atno 10764 bound_to 10752
  153.0991  135.6729  153.9815 H   0  0  0  0  0  0  0  0  0  0  0  0  # atno 10765 bound_to 10752
  140.7732  133.8421  155.9226 H   0  0  0  0  0  0  0  0  0  0  0  0  # atno 11005 bound_to 11000
  146.0898  140.7669  142.9601 LP  0  0  0  0  0  0  0  0  0  0  0  0  # atno 17320 bound_to 7965
  144.7002  140.3619  143.7162 LP  0  0  0  0  0  0  0  0  0  0  0  0  # atno 17321 bound_to 7965
  140.1925  144.4738  150.6472 LP  0  0  0  0  0  0  0  0  0  0  0  0  # atno 17342 bound_to 10162
  140.6591  143.2246  151.5898 LP  0  0  0  0  0  0  0  0  0  0  0  0  # atno 17343 bound_to 10162
  157.6424  131.0908  150.8224 LP  0  0  0  0  0  0  0  0  0  0  0  0  # atno 17370 bound_to 10713
  156.8317  130.5018  149.5331 LP  0  0  0  0  0  0  0  0  0  0  0  0  # atno 17371 bound_to 10713
  140.9553  134.1725  157.4696 LP  0  0  0  0  0  0  0  0  0  0  0  0  # atno 17394 bound_to 11000
  139.8753  134.9925  156.5598 LP  0  0  0  0  0  0  0  0  0  0  0  0  # atno 17395 bound_to 11000

$$$$
