AV-unprocessed.smi:1627|AV-procd|sdf|6516|dock3
  -GOLD-   22720 7183D 1   1.00000     0.00000
 Structure written by MMmdl.
 43 44  0  0  0  0  0  0  0  0  1 V2000
  146.6227  139.5424  151.1103 C   0  0  0  0  0  0  0  0  0  0  0  0
  146.9103  138.7268  152.3794 C   0  0  2  0  0  0  0  0  0  0  0  0
  145.6926  138.0941  152.7653 O   0  0  0  0  0  0  0  0  0  0  0  0
  145.3339  136.9407  152.0108 C   0  0  0  0  0  0  0  0  0  0  0  0
  143.9916  136.4007  152.5190 C   0  0  0  0  0  0  0  0  0  0  0  0
  143.0863  137.3783  152.4943 F   0  0  0  0  0  0  0  0  0  0  0  0
  143.5699  135.4071  151.7372 F   0  0  0  0  0  0  0  0  0  0  0  0
  144.1148  135.9638  153.7720 F   0  0  0  0  0  0  0  0  0  0  0  0
  147.4285  139.6255  153.5141 C   0  0  0  0  0  0  0  0  0  0  0  0
  146.6343  140.3087  154.1601 O   0  0  0  0  0  0  0  0  0  0  0  0
  148.7584  139.6007  153.7197 N   0  0  0  0  0  0  0  0  0  0  0  0
  149.5116  140.2840  154.7119 C   0  0  0  0  0  0  0  0  0  0  0  0
  150.7659  139.7541  155.0757 C   0  0  0  0  0  0  0  0  0  0  0  0
  151.5190  140.3965  156.0766 C   0  0  0  0  0  0  0  0  0  0  0  0
  150.9867  141.5487  156.6903 C   0  0  0  0  0  0  0  0  0  0  0  0
  151.7284  142.1933  157.6904 N   0  0  0  0  0  0  0  0  0  0  0  0
  151.9369  141.3638  158.8749 C   0  0  0  0  0  0  0  0  0  0  0  0
  152.9253  142.0345  159.8447 C   0  0  0  0  0  0  0  0  0  0  0  0
  152.4652  143.4576  160.2003 C   0  0  0  0  0  0  0  0  0  0  0  0
  152.2296  144.2756  158.9203 C   0  0  0  0  0  0  0  0  0  0  0  0
  151.2590  143.5474  157.9741 C   0  0  0  0  0  0  0  0  0  0  0  0
  149.7771  142.0581  156.3585 N   0  0  0  0  0  0  0  0  0  0  0  0
  149.0598  141.4378  155.3974 C   0  0  0  0  0  0  0  0  0  0  0  0
  147.5134  140.0710  150.7685 H   0  0  0  0  0  0  0  0  0  0  0  0
  145.8369  140.2804  151.2757 H   0  0  0  0  0  0  0  0  0  0  0  0
  146.2953  138.8913  150.2996 H   0  0  0  0  0  0  0  0  0  0  0  0
  147.6531  137.9644  152.1368 H   0  0  0  0  0  0  0  0  0  0  0  0
  145.2516  137.1999  150.9543 H   0  0  0  0  0  0  0  0  0  0  0  0
  146.0935  136.1628  152.0967 H   0  0  0  0  0  0  0  0  0  0  0  0
  149.2995  139.0696  153.0529 H   0  0  0  0  0  0  0  0  0  0  0  0
  151.1508  138.8671  154.5940 H   0  0  0  0  0  0  0  0  0  0  0  0
  152.4845  140.0094  156.3681 H   0  0  0  0  0  0  0  0  0  0  0  0
  150.9821  141.1981  159.3764 H   0  0  0  0  0  0  0  0  0  0  0  0
  152.3156  140.3852  158.5770 H   0  0  0  0  0  0  0  0  0  0  0  0
  153.0255  141.4349  160.7498 H   0  0  0  0  0  0  0  0  0  0  0  0
  153.9146  142.0745  159.3871 H   0  0  0  0  0  0  0  0  0  0  0  0
  151.5425  143.4104  160.7799 H   0  0  0  0  0  0  0  0  0  0  0  0
  153.2071  143.9479  160.8310 H   0  0  0  0  0  0  0  0  0  0  0  0
  151.8374  145.2615  159.1713 H   0  0  0  0  0  0  0  0  0  0  0  0
  153.1805  144.4394  158.4117 H   0  0  0  0  0  0  0  0  0  0  0  0
  151.1600  144.1060  157.0424 H   0  0  0  0  0  0  0  0  0  0  0  0
  150.2671  143.5022  158.4263 H   0  0  0  0  0  0  0  0  0  0  0  0
  148.0933  141.8755  155.2029 H   0  0  0  0  0  0  0  0  0  0  0  0
  1  2  1  0  0  0  0
  1 24  1  0  0  0  0
  1 25  1  0  0  0  0
  1 26  1  0  0  0  0
  2  3  1  0  0  0  0
  2  9  1  0  0  0  0
  2 27  1  0  0  0  0
  3  4  1  0  0  0  0
  4  5  1  0  0  0  0
  4 28  1  0  0  0  0
  4 29  1  0  0  0  0
  5  6  1  0  0  0  0
  5  7  1  0  0  0  0
  5  8  1  0  0  0  0
  9 10  2  0  0  0  0
  9 11  1  0  0  0  0
 11 12  1  0  0  0  0
 11 30  1  0  0  0  0
 12 23  1  0  0  0  0
 12 13  2  0  0  0  0
 13 14  1  0  0  0  0
 13 31  1  0  0  0  0
 14 15  2  0  0  0  0
 14 32  1  0  0  0  0
 15 16  1  0  0  0  0
 15 22  1  0  0  0  0
 16 21  1  0  0  0  0
 16 17  1  0  0  0  0
 17 18  1  0  0  0  0
 17 33  1  0  0  0  0
 17 34  1  0  0  0  0
 18 19  1  0  0  0  0
 18 35  1  0  0  0  0
 18 36  1  0  0  0  0
 19 20  1  0  0  0  0
 19 37  1  0  0  0  0
 19 38  1  0  0  0  0
 20 21  1  0  0  0  0
 20 39  1  0  0  0  0
 20 40  1  0  0  0  0
 21 41  1  0  0  0  0
 21 42  1  0  0  0  0
 22 23  2  0  0  0  0
 23 43  1  0  0  0  0
M  END
> <s_m_source_file>
AV-unprocessed.smi

> <i_m_source_file_index>
1627

> <i_lp_mmshare_version>
43012

> <i_f3d_flags>
0

> <s_epik_input>
RkMoRikoRilbQ0gyXU9bQ0BASF0oW0NIM10pQyg9TylbTkhdYzFbY0hdW2NIXWMobltjSF0xKU4yW0NIMl1bQ0gyXVtDSDJdW0NIMl1bQ0gyXTI=

> <s_epik_cmdline>
J2VwaWtfcHl0aG9uJywgJy1waCcsICc3LjAnLCAnLXRuJywgJzgnLCAnLW1hJywgJzIwMCcsICctbWV0YWxfYmluZGluZycsICctaW1hZScsICc8aW5maWxlLm1hZT4nLCAnLW9tYWUnLCAnPG91dGZpbGUubWFlPic=

> <r_lp_tautomer_probability>
1

> <r_epik_Ionization_Penalty>
0.0254771

> <r_epik_Ionization_Penalty_Charging>
0

> <r_epik_Ionization_Penalty_Neutral>
0.0254771

> <r_epik_State_Penalty>
0.0187406

> <r_epik_Charging_Adjusted_Penalty>
0.0187406

> <i_epik_Tot_Q>
0

> <i_epik_Tot_abs_Q>
0

> <r_epik_Metal_State_Penalty>
0.017939

> <b_epik_Metal_Only>
0

> <s_lp_Force_Field>
OPLS_2005

> <r_lp_Energy>
26.2479

> <b_lp_Chiralities_Consistent>
1

> <s_lp_Variant>
AV-unprocessed.smi:1627-1

> <Gold.Version>
5.8.1

> <Gold.Id.Protein>
6NUR|6NUR_protein|mol2

> <Gold.PLP.Fitness>
43.2034

> <Gold.PLP.PLP>
-43.6983

> <Gold.PLP.part.hbond>
-1.0000

> <Gold.PLP.part.metal>
0.0000

> <Gold.PLP.part.buried>
1.4340

> <Gold.PLP.part.nonpolar>
-44.2961

> <Gold.PLP.part.repulsive>
1.7278

> <Gold.PLP.ligand.clash>
0.0000

> <Gold.PLP.ligand.torsion>
1.0571

> <Gold.PLP.Chemscore.Hbond>
0.4599

> <Gold.PLP.Chemscore.CHOScore>
0.0000

> <Gold.PLP.Chemscore.Metal>
0.0000

> <Gold.Chemscore.Hbonds>
donor molecule, donor type, donor heavy atom, donor atom, acceptor molecule, acceptor atom, score
      L1  H    11    30       P1  7957  0.23

> <Gold.PLP.Chemscore.Internal.Correction>
0.2394

> <Gold.Rescore>
     Score         DG    S(hbond)    S(metal)    S(lipo)     H(rot)  DE(clash)    DE(int)     intcor
     12.86     -15.89       0.82        0.00     106.40       1.87       0.73       2.30       ----

> <Gold.Chemscore.Fitness>
12.8645

> <Gold.Chemscore.DG>
-15.8894

> <Gold.Chemscore.ZeroCoef>
-5.4800

> <Gold.Chemscore.Hbond>
0.8201

> <Gold.Chemscore.Metal>
0.0000

> <Gold.Chemscore.Lipo>
106.3982

> <Gold.Chemscore.Internal_Hbond>
0.0000

> <Gold.Chemscore.DEClash>
0.7289

> <Gold.Chemscore.DEInternal>
2.2960

> <Gold.Chemscore.Rot>
1.8665

> <Gold.Chemscore.Internal.Correction>
   9.000000E+99

> <Gold.Chemscore.Hbonds>
donor molecule, donor type, donor heavy atom, donor atom, acceptor molecule, acceptor atom, score
      L1  H    11    30       P1  7957  0.23

> <Gold.Chemscore.Hbond.Weighted>
-2.7391

> <Gold.Chemscore.Metal.Weighted>
-0.0000

> <Gold.Chemscore.Lipo.Weighted>
-12.4486

> <Gold.Chemscore.Internal_Hbond.Weighted>
0.0000

> <Gold.Chemscore.DEClash.Weighted>
0.7289

> <Gold.Chemscore.DEInternal.Weighted>
2.2960

> <Gold.Chemscore.Rot.Weighted>
4.7783

> <Gold.Chemscore.Internal.Correction.Weighted>
   9.000000E+99

> <Gold.Protein.RotatedTorsions>
[ 6907 6896 6895 6894 ] final   49.68 input  -60.11 | X-H torsion
[ 7974 7965 7964 7962 ] final -156.10 input  175.53 | X-H torsion
[ 8008 7997 7996 7995 ] final  136.91 input   59.86 | X-H torsion
[ 10167 10162 10161 10158 ] final   65.34 input  -65.29 | X-H torsion
[ 10718 10713 10712 10709 ] final  120.44 input   66.30 | X-H torsion
[ 10763 10752 10751 10750 ] final -149.75 input  -60.55 | X-H torsion
[ 11005 11000 10999 10996 ] final -149.96 input  -57.11 | X-H torsion

> <Gold.Protein.ActiveResidues>
 VAL166  LYS551  ARG553  GLY616  TRP617  ASP618  TYR619  PRO620  LYS621  CYS622 
 ASP623  PHE694  ASN695  SER759  ASP760  ASP761  ALA762  ILE779  LEU786  VAL792 
 PHE793  MET794  SER795  GLU796  ALA797  LYS798  CYS799  TRP800  GLU811  SER814 

> <Gold.Protein.RotatedAtoms>
  152.2935  134.7694  160.0372 H   0  0  0  0  0  0  0  0  0  0  0  0  # atno 6907 bound_to 6896
  151.8232  133.3392  159.3599 H   0  0  0  0  0  0  0  0  0  0  0  0  # atno 6908 bound_to 6896
  150.7241  134.5483  159.5826 H   0  0  0  0  0  0  0  0  0  0  0  0  # atno 6909 bound_to 6896
  144.7609  140.4157  143.5977 H   0  0  0  0  0  0  0  0  0  0  0  0  # atno 7974 bound_to 7965
  156.3003  140.2433  156.3823 H   0  0  0  0  0  0  0  0  0  0  0  0  # atno 8008 bound_to 7997
  154.8690  140.0417  157.1732 H   0  0  0  0  0  0  0  0  0  0  0  0  # atno 8009 bound_to 7997
  154.8816  140.2950  155.5426 H   0  0  0  0  0  0  0  0  0  0  0  0  # atno 8010 bound_to 7997
  140.1123  144.4807  150.6970 H   0  0  0  0  0  0  0  0  0  0  0  0  # atno 10167 bound_to 10162
  157.5890  131.1066  150.8036 H   0  0  0  0  0  0  0  0  0  0  0  0  # atno 10718 bound_to 10713
  154.8159  135.3301  154.7177 H   0  0  0  0  0  0  0  0  0  0  0  0  # atno 10763 bound_to 10752
  153.7818  135.6918  153.4891 H   0  0  0  0  0  0  0  0  0  0  0  0  # atno 10764 bound_to 10752
  153.1975  135.4528  155.0173 H   0  0  0  0  0  0  0  0  0  0  0  0  # atno 10765 bound_to 10752
  140.7453  134.3468  157.5138 H   0  0  0  0  0  0  0  0  0  0  0  0  # atno 11005 bound_to 11000
  145.6623  139.1583  143.2801 LP  0  0  0  0  0  0  0  0  0  0  0  0  # atno 17320 bound_to 7965
  146.1670  140.6702  142.9251 LP  0  0  0  0  0  0  0  0  0  0  0  0  # atno 17321 bound_to 7965
  140.6918  143.2380  151.5109 LP  0  0  0  0  0  0  0  0  0  0  0  0  # atno 17342 bound_to 10162
  139.5612  144.2151  152.1694 LP  0  0  0  0  0  0  0  0  0  0  0  0  # atno 17343 bound_to 10162
  156.8462  130.5065  149.5316 LP  0  0  0  0  0  0  0  0  0  0  0  0  # atno 17370 bound_to 10713
  156.0943  130.5920  150.9786 LP  0  0  0  0  0  0  0  0  0  0  0  0  # atno 17371 bound_to 10713
  139.8798  134.9107  156.3019 LP  0  0  0  0  0  0  0  0  0  0  0  0  # atno 17394 bound_to 11000
  140.9800  133.7273  156.0658 LP  0  0  0  0  0  0  0  0  0  0  0  0  # atno 17395 bound_to 11000

$$$$
