AV-unprocessed.smi:189|AV-procd|sdf|1475|dock2
  -GOLD-   2262019293D 1   1.00000     0.00000
 Structure written by MMmdl.
 53 57  0  0  0  0  0  0  0  0  1 V2000
  151.9169  138.2523  156.5639 C   0  0  0  0  0  0  0  0  0  0  0  0
  151.9794  139.7045  157.0796 C   0  0  2  0  0  0  0  0  0  0  0  0
  152.7972  139.8745  158.3752 C   0  0  0  0  0  0  0  0  0  0  0  0
  151.9407  140.7833  159.2656 C   0  0  1  0  0  0  0  0  0  0  0  0
  152.6937  141.7779  160.1723 C   0  0  0  0  0  0  0  0  0  0  0  0
  153.2076  143.0142  159.4208 C   0  0  0  0  0  0  0  0  0  0  0  0
  152.0740  143.6848  158.6343 C   0  0  0  0  0  0  0  0  0  0  0  0
  151.4836  142.7033  157.6153 C   0  0  0  0  0  0  0  0  0  0  0  0
  150.9365  141.4235  158.2891 C   0  0  1  0  0  0  0  0  0  0  0  0
  150.6918  140.3804  157.2964 N   0  0  0  0  0  0  0  0  0  0  0  0
  149.5804  139.6177  157.4498 C   0  0  0  0  0  0  0  0  0  0  0  0
  148.4554  139.8736  156.7308 N   0  0  0  0  0  0  0  0  0  0  0  0
  147.3623  139.1249  156.9057 C   0  0  0  0  0  0  0  0  0  0  0  0
  147.1808  138.0930  157.7326 N   0  0  0  0  0  0  0  0  0  0  0  0
  148.3087  137.8333  158.4545 C   0  0  0  0  0  0  0  0  0  0  0  0
  149.5413  138.5390  158.3730 C   0  0  0  0  0  0  0  0  0  0  0  0
  150.4648  137.9890  159.2526 N   0  0  0  0  0  0  0  0  0  0  0  0
  149.8128  137.0144  159.8262 C   0  0  0  0  0  0  0  0  0  0  0  0
  148.5083  136.8564  159.4142 N   0  0  0  0  0  0  0  0  0  0  0  0
  147.5591  135.8587  159.8841 C   0  0  0  0  0  0  0  0  0  0  0  0
  146.9267  136.1880  161.2603 C   0  0  1  0  0  0  0  0  0  0  0  0
  146.5224  137.5449  161.2723 O   0  0  0  0  0  0  0  0  0  0  0  0
  145.7330  135.3056  161.6281 C   0  0  0  0  0  0  0  0  0  0  0  0
  146.3719  134.2175  162.4773 C   0  0  0  0  0  0  0  0  0  0  0  0
  147.3048  134.9491  163.2533 O   0  0  0  0  0  0  0  0  0  0  0  0
  147.9154  135.9245  162.4148 C   0  0  0  0  0  0  0  0  0  0  0  0
  152.9214  137.8621  156.3989 H   0  0  0  0  0  0  0  0  0  0  0  0
  151.3862  138.1880  155.6140 H   0  0  0  0  0  0  0  0  0  0  0  0
  151.4239  137.5890  157.2755 H   0  0  0  0  0  0  0  0  0  0  0  0
  152.4792  140.2794  156.2997 H   0  0  0  0  0  0  0  0  0  0  0  0
  152.9897  138.9223  158.8711 H   0  0  0  0  0  0  0  0  0  0  0  0
  153.7632  140.3264  158.1489 H   0  0  0  0  0  0  0  0  0  0  0  0
  151.3829  140.1202  159.9277 H   0  0  0  0  0  0  0  0  0  0  0  0
  152.0149  142.1123  160.9578 H   0  0  0  0  0  0  0  0  0  0  0  0
  153.5171  141.2744  160.6798 H   0  0  0  0  0  0  0  0  0  0  0  0
  153.6387  143.7229  160.1286 H   0  0  0  0  0  0  0  0  0  0  0  0
  154.0112  142.7300  158.7405 H   0  0  0  0  0  0  0  0  0  0  0  0
  151.2959  144.0292  159.3166 H   0  0  0  0  0  0  0  0  0  0  0  0
  152.4524  144.5688  158.1199 H   0  0  0  0  0  0  0  0  0  0  0  0
  150.6864  143.1881  157.0512 H   0  0  0  0  0  0  0  0  0  0  0  0
  152.2594  142.4588  156.8894 H   0  0  0  0  0  0  0  0  0  0  0  0
  150.0227  141.6846  158.8254 H   0  0  0  0  0  0  0  0  0  0  0  0
  146.5109  139.3924  156.2974 H   0  0  0  0  0  0  0  0  0  0  0  0
  150.2672  136.3818  160.5748 H   0  0  0  0  0  0  0  0  0  0  0  0
  146.7784  135.7505  159.1301 H   0  0  0  0  0  0  0  0  0  0  0  0
  148.0732  134.8975  159.9278 H   0  0  0  0  0  0  0  0  0  0  0  0
  145.6294  137.5930  160.9663 H   0  0  0  0  0  0  0  0  0  0  0  0
  145.0227  135.8564  162.2470 H   0  0  0  0  0  0  0  0  0  0  0  0
  145.1798  134.9092  160.7781 H   0  0  0  0  0  0  0  0  0  0  0  0
  145.6515  133.6909  163.1033 H   0  0  0  0  0  0  0  0  0  0  0  0
  146.8935  133.4877  161.8559 H   0  0  0  0  0  0  0  0  0  0  0  0
  148.8629  135.5283  162.0466 H   0  0  0  0  0  0  0  0  0  0  0  0
  148.1419  136.8191  162.9966 H   0  0  0  0  0  0  0  0  0  0  0  0
  1  2  1  0  0  0  0
  1 27  1  0  0  0  0
  1 28  1  0  0  0  0
  1 29  1  0  0  0  0
  2 10  1  0  0  0  0
  2  3  1  0  0  0  0
  2 30  1  0  0  0  0
  3  4  1  0  0  0  0
  3 31  1  0  0  0  0
  3 32  1  0  0  0  0
  4  9  1  0  0  0  0
  4  5  1  0  0  0  0
  4 33  1  0  0  0  0
  5  6  1  0  0  0  0
  5 34  1  0  0  0  0
  5 35  1  0  0  0  0
  6  7  1  0  0  0  0
  6 36  1  0  0  0  0
  6 37  1  0  0  0  0
  7  8  1  0  0  0  0
  7 38  1  0  0  0  0
  7 39  1  0  0  0  0
  8  9  1  0  0  0  0
  8 40  1  0  0  0  0
  8 41  1  0  0  0  0
  9 10  1  0  0  0  0
  9 42  1  0  0  0  0
 10 11  1  0  0  0  0
 11 16  1  0  0  0  0
 11 12  2  0  0  0  0
 12 13  1  0  0  0  0
 13 14  2  0  0  0  0
 13 43  1  0  0  0  0
 14 15  1  0  0  0  0
 15 19  1  0  0  0  0
 15 16  2  0  0  0  0
 16 17  1  0  0  0  0
 17 18  2  0  0  0  0
 18 19  1  0  0  0  0
 18 44  1  0  0  0  0
 19 20  1  0  0  0  0
 20 21  1  0  0  0  0
 20 45  1  0  0  0  0
 20 46  1  0  0  0  0
 21 26  1  0  0  0  0
 21 22  1  0  0  0  0
 21 23  1  0  0  0  0
 22 47  1  0  0  0  0
 23 24  1  0  0  0  0
 23 48  1  0  0  0  0
 23 49  1  0  0  0  0
 24 25  1  0  0  0  0
 24 50  1  0  0  0  0
 24 51  1  0  0  0  0
 25 26  1  0  0  0  0
 26 52  1  0  0  0  0
 26 53  1  0  0  0  0
M  END
> <s_m_source_file>
AV-unprocessed.smi

> <i_m_source_file_index>
189

> <i_lp_mmshare_version>
43012

> <i_f3d_flags>
0

> <s_epik_input>
W0NIMl0xW0NIMl1bQ0gyXVtDSDJdW0NASF0oW0NASF0xMilOKFtDQEhdKFtDSDNdKVtDSDJdMiljKG5bY0hdbjMpYyhjMzQpbltjSF1uNFtDSDJdW0NAQF01KFtPSF0pW0NIMl1bQ0gyXU9bQ0gyXTU=

> <s_epik_cmdline>
J2VwaWtfcHl0aG9uJywgJy1waCcsICc3LjAnLCAnLXRuJywgJzgnLCAnLW1hJywgJzIwMCcsICctbWV0YWxfYmluZGluZycsICctaW1hZScsICc8aW5maWxlLm1hZT4nLCAnLW9tYWUnLCAnPG91dGZpbGUubWFlPic=

> <r_lp_tautomer_probability>
1

> <r_epik_Ionization_Penalty>
0.00594261

> <r_epik_Ionization_Penalty_Charging>
0

> <r_epik_Ionization_Penalty_Neutral>
0.00594261

> <r_epik_State_Penalty>
0.00429776

> <r_epik_Charging_Adjusted_Penalty>
0.00429776

> <i_epik_Tot_Q>
0

> <i_epik_Tot_abs_Q>
0

> <r_epik_Metal_State_Penalty>
-0

> <b_epik_Metal_Only>
0

> <s_lp_Force_Field>
OPLS_2005

> <r_lp_Energy>
62.973

> <b_lp_Chiralities_Consistent>
1

> <s_lp_Variant>
AV-unprocessed.smi:189-1

> <Gold.Version>
5.8.1

> <Gold.Id.Protein>
6NUR|6NUR_protein|mol2

> <Gold.PLP.Fitness>
44.2520

> <Gold.PLP.PLP>
-42.6674

> <Gold.PLP.part.hbond>
-1.9413

> <Gold.PLP.part.metal>
0.0000

> <Gold.PLP.part.buried>
-4.9059

> <Gold.PLP.part.nonpolar>
-35.7306

> <Gold.PLP.part.repulsive>
0.0178

> <Gold.PLP.ligand.clash>
0.0056

> <Gold.PLP.ligand.torsion>
0.7602

> <Gold.PLP.Chemscore.Hbond>
1.0000

> <Gold.PLP.Chemscore.CHOScore>
0.0000

> <Gold.PLP.Chemscore.Metal>
0.0000

> <Gold.Chemscore.Hbonds>
donor molecule, donor type, donor heavy atom, donor atom, acceptor molecule, acceptor atom, score
      P1  H  6934  6947       L1    22  1.00

> <Gold.PLP.Chemscore.Internal.Correction>
0.1105

> <Gold.Rescore>
     Score         DG    S(hbond)    S(metal)    S(lipo)     H(rot)  DE(clash)    DE(int)     intcor
     14.83     -16.29       0.97        0.00     109.23       2.03       0.22       1.24       ----

> <Gold.Chemscore.Fitness>
14.8349

> <Gold.Chemscore.DG>
-16.2941

> <Gold.Chemscore.ZeroCoef>
-5.4800

> <Gold.Chemscore.Hbond>
0.9670

> <Gold.Chemscore.Metal>
0.0000

> <Gold.Chemscore.Lipo>
109.2344

> <Gold.Chemscore.Internal_Hbond>
0.0000

> <Gold.Chemscore.DEClash>
0.2213

> <Gold.Chemscore.DEInternal>
1.2380

> <Gold.Chemscore.Rot>
2.0297

> <Gold.Chemscore.Internal.Correction>
   9.000000E+99

> <Gold.Chemscore.Hbonds>
donor molecule, donor type, donor heavy atom, donor atom, acceptor molecule, acceptor atom, score
      P1  H  6934  6947       L1    22  0.50

> <Gold.Chemscore.Hbond.Weighted>
-3.2297

> <Gold.Chemscore.Metal.Weighted>
-0.0000

> <Gold.Chemscore.Lipo.Weighted>
-12.7804

> <Gold.Chemscore.Internal_Hbond.Weighted>
0.0000

> <Gold.Chemscore.DEClash.Weighted>
0.2213

> <Gold.Chemscore.DEInternal.Weighted>
1.2380

> <Gold.Chemscore.Rot.Weighted>
5.1960

> <Gold.Chemscore.Internal.Correction.Weighted>
   9.000000E+99

> <Gold.Protein.RotatedTorsions>
[ 6907 6896 6895 6894 ] final   96.13 input  -60.11 | X-H torsion
[ 7974 7965 7964 7962 ] final -115.93 input  175.53 | X-H torsion
[ 8008 7997 7996 7995 ] final  -12.05 input   59.86 | X-H torsion
[ 10167 10162 10161 10158 ] final -129.96 input  -65.29 | X-H torsion
[ 10718 10713 10712 10709 ] final -165.99 input   66.30 | X-H torsion
[ 10763 10752 10751 10750 ] final   45.08 input  -60.55 | X-H torsion
[ 11005 11000 10999 10996 ] final  123.63 input  -57.11 | X-H torsion

> <Gold.Protein.ActiveResidues>
 VAL166  LYS551  ARG553  GLY616  TRP617  ASP618  TYR619  PRO620  LYS621  CYS622 
 ASP623  PHE694  ASN695  SER759  ASP760  ASP761  ALA762  ILE779  LEU786  VAL792 
 PHE793  MET794  SER795  GLU796  ALA797  LYS798  CYS799  TRP800  GLU811  SER814 

> <Gold.Protein.RotatedAtoms>
  152.5438  134.0933  159.8285 H   0  0  0  0  0  0  0  0  0  0  0  0  # atno 6907 bound_to 6896
  151.1020  133.5229  159.2617 H   0  0  0  0  0  0  0  0  0  0  0  0  # atno 6908 bound_to 6896
  151.1981  135.0440  159.8915 H   0  0  0  0  0  0  0  0  0  0  0  0  # atno 6909 bound_to 6896
  145.1027  140.8562  143.3917 H   0  0  0  0  0  0  0  0  0  0  0  0  # atno 7974 bound_to 7965
  154.5411  140.2286  155.8640 H   0  0  0  0  0  0  0  0  0  0  0  0  # atno 8008 bound_to 7997
  156.1859  140.3089  155.9199 H   0  0  0  0  0  0  0  0  0  0  0  0  # atno 8009 bound_to 7997
  155.3257  140.0443  157.3031 H   0  0  0  0  0  0  0  0  0  0  0  0  # atno 8010 bound_to 7997
  139.9343  143.6235  152.2521 H   0  0  0  0  0  0  0  0  0  0  0  0  # atno 10167 bound_to 10162
  156.6613  130.9047  151.3029 H   0  0  0  0  0  0  0  0  0  0  0  0  # atno 10718 bound_to 10713
  152.9830  135.6050  154.3379 H   0  0  0  0  0  0  0  0  0  0  0  0  # atno 10763 bound_to 10752
  154.3078  135.2771  155.2582 H   0  0  0  0  0  0  0  0  0  0  0  0  # atno 10764 bound_to 10752
  154.4806  135.5918  153.6442 H   0  0  0  0  0  0  0  0  0  0  0  0  # atno 10765 bound_to 10752
  139.9321  134.9641  156.8288 H   0  0  0  0  0  0  0  0  0  0  0  0  # atno 11005 bound_to 11000
  145.0937  139.2872  143.5722 LP  0  0  0  0  0  0  0  0  0  0  0  0  # atno 17320 bound_to 7965
  146.3529  140.0482  142.8638 LP  0  0  0  0  0  0  0  0  0  0  0  0  # atno 17321 bound_to 7965
  139.6756  144.7659  151.1702 LP  0  0  0  0  0  0  0  0  0  0  0  0  # atno 17342 bound_to 10162
  140.7629  143.5800  150.8905 LP  0  0  0  0  0  0  0  0  0  0  0  0  # atno 17343 bound_to 10162
  157.7108  130.9438  150.1084 LP  0  0  0  0  0  0  0  0  0  0  0  0  # atno 17370 bound_to 10713
  156.2008  130.3660  149.8790 LP  0  0  0  0  0  0  0  0  0  0  0  0  # atno 17371 bound_to 10713
  140.6173  134.0026  155.7603 LP  0  0  0  0  0  0  0  0  0  0  0  0  # atno 17394 bound_to 11000
  141.0916  133.9908  157.3228 LP  0  0  0  0  0  0  0  0  0  0  0  0  # atno 17395 bound_to 11000

$$$$
