AV-unprocessed.smi:636|AV-procd|sdf|3140|dock1
  -GOLD-   22720 0 63D 1   1.00000     0.00000
 Structure written by MMmdl.
 39 41  0  0  0  0  0  0  0  0  1 V2000
  147.1876  132.9284  154.4910 O   0  0  0  0  0  0  0  0  0  0  0  0
  147.8714  132.4742  153.5747 C   0  0  0  0  0  0  0  0  0  0  0  0
  149.3186  132.0421  153.8692 C   0  0  0  0  0  0  0  0  0  0  0  0
  149.5085  130.5909  154.0480 N   0  0  0  0  0  0  0  0  0  0  0  0
  148.8952  129.7485  153.1015 C   0  0  0  0  0  0  0  0  0  0  0  0
  148.9876  128.4068  153.1475 C   0  0  0  0  0  0  0  0  0  0  0  0
  148.2571  127.5199  152.1516 C   0  0  0  0  0  0  0  0  0  0  0  0
  148.2480  126.2616  152.5881 F   0  0  0  0  0  0  0  0  0  0  0  0
  146.9936  127.9148  151.9949 F   0  0  0  0  0  0  0  0  0  0  0  0
  148.8536  127.5418  150.9591 F   0  0  0  0  0  0  0  0  0  0  0  0
  149.7397  127.8507  154.2541 C   0  0  0  0  0  0  0  0  0  0  0  0
  150.3238  128.6367  155.1808 C   0  0  0  0  0  0  0  0  0  0  0  0
  151.2082  127.9195  156.4798 Cl  0  0  0  0  0  0  0  0  0  0  0  0
  150.2210  130.0997  155.1062 C   0  0  0  0  0  0  0  0  0  0  0  0
  150.7344  130.8420  155.9443 O   0  0  0  0  0  0  0  0  0  0  0  0
  147.4119  132.3384  152.3188 N   0  0  0  0  0  0  0  0  0  0  0  0
  146.0773  132.6893  151.8487 C   0  0  0  0  0  0  0  0  0  0  0  0
  145.9799  132.7021  150.3320 C   0  0  0  0  0  0  0  0  0  0  0  0
  144.6842  132.3827  149.6238 C   0  0  0  0  0  0  0  0  0  0  0  0
  145.8481  131.4224  149.5403 C   0  0  0  0  0  0  0  0  0  0  0  0
  145.6275  134.0226  152.4168 C   0  0  0  0  0  0  0  0  0  0  0  0
  144.2245  134.5318  152.1902 C   0  0  0  0  0  0  0  0  0  0  0  0
  145.3965  135.2221  151.5287 C   0  0  0  0  0  0  0  0  0  0  0  0
  149.9483  132.4001  153.0534 H   0  0  0  0  0  0  0  0  0  0  0  0
  149.6693  132.5851  154.7486 H   0  0  0  0  0  0  0  0  0  0  0  0
  148.3303  130.2667  152.3401 H   0  0  0  0  0  0  0  0  0  0  0  0
  149.8392  126.7785  154.3393 H   0  0  0  0  0  0  0  0  0  0  0  0
  148.0434  131.9587  151.6288 H   0  0  0  0  0  0  0  0  0  0  0  0
  145.3783  131.9362  152.2181 H   0  0  0  0  0  0  0  0  0  0  0  0
  146.5825  133.4815  149.8690 H   0  0  0  0  0  0  0  0  0  0  0  0
  143.8317  132.0794  150.2278 H   0  0  0  0  0  0  0  0  0  0  0  0
  144.4435  132.9606  148.7339 H   0  0  0  0  0  0  0  0  0  0  0  0
  146.3849  131.3602  148.5960 H   0  0  0  0  0  0  0  0  0  0  0  0
  145.7648  130.4877  150.0912 H   0  0  0  0  0  0  0  0  0  0  0  0
  146.0520  134.2396  153.3956 H   0  0  0  0  0  0  0  0  0  0  0  0
  143.5669  133.9413  151.5553 H   0  0  0  0  0  0  0  0  0  0  0  0
  143.7376  135.0454  153.0166 H   0  0  0  0  0  0  0  0  0  0  0  0
  145.6914  136.1957  151.9145 H   0  0  0  0  0  0  0  0  0  0  0  0
  145.5090  135.0926  150.4543 H   0  0  0  0  0  0  0  0  0  0  0  0
  1  2  2  0  0  0  0
  2  3  1  0  0  0  0
  2 16  1  0  0  0  0
  3  4  1  0  0  0  0
  3 24  1  0  0  0  0
  3 25  1  0  0  0  0
  4 14  1  0  0  0  0
  4  5  1  0  0  0  0
  5  6  2  0  0  0  0
  5 26  1  0  0  0  0
  6  7  1  0  0  0  0
  6 11  1  0  0  0  0
  7  8  1  0  0  0  0
  7  9  1  0  0  0  0
  7 10  1  0  0  0  0
 11 12  2  0  0  0  0
 11 27  1  0  0  0  0
 12 13  1  0  0  0  0
 12 14  1  0  0  0  0
 14 15  2  0  0  0  0
 16 17  1  0  0  0  0
 16 28  1  0  0  0  0
 17 18  1  0  0  0  0
 17 21  1  0  0  0  0
 17 29  1  0  0  0  0
 18 20  1  0  0  0  0
 18 19  1  0  0  0  0
 18 30  1  0  0  0  0
 19 20  1  0  0  0  0
 19 31  1  0  0  0  0
 19 32  1  0  0  0  0
 20 33  1  0  0  0  0
 20 34  1  0  0  0  0
 21 23  1  0  0  0  0
 21 22  1  0  0  0  0
 21 35  1  0  0  0  0
 22 23  1  0  0  0  0
 22 36  1  0  0  0  0
 22 37  1  0  0  0  0
 23 38  1  0  0  0  0
 23 39  1  0  0  0  0
M  END
> <s_m_source_file>
AV-unprocessed.smi

> <i_m_source_file_index>
636

> <i_lp_mmshare_version>
43012

> <i_f3d_flags>
0

> <s_epik_input>
W0NIMl0xW0NIMl1bQ0hdMVtDSF0oW0NIXTJbQ0gyXVtDSDJdMilbTkhdQyg9TylbQ0gyXW4zW2NIXWMoQyhGKShGKUYpW2NIXWMoQ2wpYzM9Tw==

> <s_epik_cmdline>
J2VwaWtfcHl0aG9uJywgJy1waCcsICc3LjAnLCAnLXRuJywgJzgnLCAnLW1hJywgJzIwMCcsICctbWV0YWxfYmluZGluZycsICctaW1hZScsICc8aW5maWxlLm1hZT4nLCAnLW9tYWUnLCAnPG91dGZpbGUubWFlPic=

> <r_lp_tautomer_probability>
1

> <r_epik_Ionization_Penalty>
2.07964e-08

> <r_epik_Ionization_Penalty_Charging>
3.83819e-10

> <r_epik_Ionization_Penalty_Neutral>
2.04126e-08

> <r_epik_State_Penalty>
-0

> <r_epik_Charging_Adjusted_Penalty>
3.83819e-10

> <i_epik_Tot_Q>
0

> <i_epik_Tot_abs_Q>
0

> <r_epik_Metal_State_Penalty>
-0

> <b_epik_Metal_Only>
0

> <s_lp_Force_Field>
OPLS_2005

> <r_lp_Energy>
34.6708

> <b_lp_Chiralities_Consistent>
1

> <s_lp_Variant>
AV-unprocessed.smi:636-1

> <Gold.Version>
5.8.1

> <Gold.Id.Protein>
6NUR|6NUR_protein|mol2

> <Gold.PLP.Fitness>
44.0229

> <Gold.PLP.PLP>
-40.7199

> <Gold.PLP.part.hbond>
-1.0000

> <Gold.PLP.part.metal>
0.0000

> <Gold.PLP.part.buried>
-3.3513

> <Gold.PLP.part.nonpolar>
-35.6838

> <Gold.PLP.part.repulsive>
0.0452

> <Gold.PLP.ligand.clash>
0.2417

> <Gold.PLP.ligand.torsion>
2.2695

> <Gold.PLP.Chemscore.Hbond>
1.0000

> <Gold.PLP.Chemscore.CHOScore>
0.9359

> <Gold.PLP.Chemscore.Metal>
0.0000

> <Gold.Chemscore.Hbonds>
donor molecule, donor type, donor heavy atom, donor atom, acceptor molecule, acceptor atom, score
      L1  H    16    28       P1 10747  1.00
      L1  C     5    26       P1 10747  0.95

> <Gold.PLP.Chemscore.Internal.Correction>
2.2761

> <Gold.Rescore>
     Score         DG    S(hbond)    S(metal)    S(lipo)     H(rot)  DE(clash)    DE(int)     intcor
     10.61     -14.17       1.00        0.00      87.34       1.90       0.45       3.12       ----

> <Gold.Chemscore.Fitness>
10.6063

> <Gold.Chemscore.DG>
-14.1750

> <Gold.Chemscore.ZeroCoef>
-5.4800

> <Gold.Chemscore.Hbond>
0.9983

> <Gold.Chemscore.Metal>
0.0000

> <Gold.Chemscore.Lipo>
87.3432

> <Gold.Chemscore.Internal_Hbond>
0.0000

> <Gold.Chemscore.DEClash>
0.4457

> <Gold.Chemscore.DEInternal>
3.1230

> <Gold.Chemscore.Rot>
1.8979

> <Gold.Chemscore.Internal.Correction>
   9.000000E+99

> <Gold.Chemscore.Hbonds>
donor molecule, donor type, donor heavy atom, donor atom, acceptor molecule, acceptor atom, score
      L1  H    16    28       P1 10747  0.98

> <Gold.Chemscore.Hbond.Weighted>
-3.3344

> <Gold.Chemscore.Metal.Weighted>
-0.0000

> <Gold.Chemscore.Lipo.Weighted>
-10.2192

> <Gold.Chemscore.Internal_Hbond.Weighted>
0.0000

> <Gold.Chemscore.DEClash.Weighted>
0.4457

> <Gold.Chemscore.DEInternal.Weighted>
3.1230

> <Gold.Chemscore.Rot.Weighted>
4.8586

> <Gold.Chemscore.Internal.Correction.Weighted>
   9.000000E+99

> <Gold.Protein.RotatedTorsions>
[ 6907 6896 6895 6894 ] final  178.74 input  -60.11 | X-H torsion
[ 7974 7965 7964 7962 ] final   46.00 input  175.53 | X-H torsion
[ 8008 7997 7996 7995 ] final   56.63 input   59.86 | X-H torsion
[ 10167 10162 10161 10158 ] final  -31.04 input  -65.29 | X-H torsion
[ 10718 10713 10712 10709 ] final  -13.03 input   66.30 | X-H torsion
[ 10763 10752 10751 10750 ] final  145.63 input  -60.55 | X-H torsion
[ 11005 11000 10999 10996 ] final    1.97 input  -57.11 | X-H torsion

> <Gold.Protein.ActiveResidues>
 VAL166  LYS551  ARG553  GLY616  TRP617  ASP618  TYR619  PRO620  LYS621  CYS622 
 ASP623  PHE694  ASN695  SER759  ASP760  ASP761  ALA762  ILE779  LEU786  VAL792 
 PHE793  MET794  SER795  GLU796  ALA797  LYS798  CYS799  TRP800  GLU811  SER814 

> <Gold.Protein.RotatedAtoms>
  151.6829  133.3312  159.3223 H   0  0  0  0  0  0  0  0  0  0  0  0  # atno 6907 bound_to 6896
  150.7814  134.6765  159.6430 H   0  0  0  0  0  0  0  0  0  0  0  0  # atno 6908 bound_to 6896
  152.3873  134.6500  160.0173 H   0  0  0  0  0  0  0  0  0  0  0  0  # atno 6909 bound_to 6896
  146.0429  139.4903  142.9766 H   0  0  0  0  0  0  0  0  0  0  0  0  # atno 7974 bound_to 7965
  155.5207  140.3479  155.4406 H   0  0  0  0  0  0  0  0  0  0  0  0  # atno 8008 bound_to 7997
  156.0786  140.1381  156.9767 H   0  0  0  0  0  0  0  0  0  0  0  0  # atno 8009 bound_to 7997
  154.4567  140.0950  156.6754 H   0  0  0  0  0  0  0  0  0  0  0  0  # atno 8010 bound_to 7997
  140.7241  143.3802  151.1615 H   0  0  0  0  0  0  0  0  0  0  0  0  # atno 10167 bound_to 10162
  156.6361  130.4915  149.6111 H   0  0  0  0  0  0  0  0  0  0  0  0  # atno 10718 bound_to 10713
  154.0085  135.2916  155.3395 H   0  0  0  0  0  0  0  0  0  0  0  0  # atno 10763 bound_to 10752
  154.7117  135.5146  153.8680 H   0  0  0  0  0  0  0  0  0  0  0  0  # atno 10764 bound_to 10752
  153.0733  135.6655  154.0319 H   0  0  0  0  0  0  0  0  0  0  0  0  # atno 10765 bound_to 10752
  140.6095  133.9761  155.8170 H   0  0  0  0  0  0  0  0  0  0  0  0  # atno 11005 bound_to 11000
  145.6853  141.0179  143.1584 LP  0  0  0  0  0  0  0  0  0  0  0  0  # atno 17320 bound_to 7965
  144.7083  139.8469  143.7423 LP  0  0  0  0  0  0  0  0  0  0  0  0  # atno 17321 bound_to 7965
  139.7389  143.8955  152.3044 LP  0  0  0  0  0  0  0  0  0  0  0  0  # atno 17342 bound_to 10162
  139.8769  144.7038  150.8922 LP  0  0  0  0  0  0  0  0  0  0  0  0  # atno 17343 bound_to 10162
  156.2196  130.6729  151.1354 LP  0  0  0  0  0  0  0  0  0  0  0  0  # atno 17370 bound_to 10713
  157.7185  131.0695  150.6231 LP  0  0  0  0  0  0  0  0  0  0  0  0  # atno 17371 bound_to 10713
  141.0818  134.0051  157.3375 LP  0  0  0  0  0  0  0  0  0  0  0  0  # atno 17394 bound_to 11000
  139.9198  135.0200  156.8021 LP  0  0  0  0  0  0  0  0  0  0  0  0  # atno 17395 bound_to 11000

$$$$
