AV-unprocessed.smi:1376|AV-procd|sdf|5593|dock7
  -GOLD-   22720 5193D 1   1.00000     0.00000
 Structure written by MMmdl.
 42 43  0  0  0  0  0  0  0  0  1 V2000
  151.4389  141.0463  156.8856 O   0  0  0  0  0  0  0  0  0  0  0  0
  150.9517  142.1672  156.7289 C   0  0  0  0  0  0  0  0  0  0  0  0
  151.7084  143.4311  157.1635 C   0  0  0  0  0  0  0  0  0  0  0  0
  152.0300  143.4627  158.6002 N   0  0  0  0  0  0  0  0  0  0  0  0
  152.6810  142.3319  159.1328 C   0  0  0  0  0  0  0  0  0  0  0  0
  153.0148  142.2500  160.4304 C   0  0  0  0  0  0  0  0  0  0  0  0
  152.6894  143.3633  161.2901 C   0  0  0  0  0  0  0  0  0  0  0  0
  152.0646  144.4487  160.7916 C   0  0  0  0  0  0  0  0  0  0  0  0
  151.6952  144.5413  159.3741 C   0  0  0  0  0  0  0  0  0  0  0  0
  151.1193  145.5264  158.9118 O   0  0  0  0  0  0  0  0  0  0  0  0
  149.7488  142.3718  156.1707 N   0  0  0  0  0  0  0  0  0  0  0  0
  148.8539  141.3229  155.6910 C   0  0  1  0  0  0  0  0  0  0  0  0
  147.6145  141.9577  155.0339 C   0  0  0  0  0  0  0  0  0  0  0  0
  146.6653  140.8870  154.4723 C   0  0  0  0  0  0  0  0  0  0  0  0
  147.3923  139.9414  153.5003 C   0  0  0  0  0  0  0  0  0  0  0  0
  148.6322  139.2994  154.1484 C   0  0  2  0  0  0  0  0  0  0  0  0
  148.1730  138.4278  155.1766 O   0  0  0  0  0  0  0  0  0  0  0  0
  149.1815  137.6562  155.8145 C   0  0  0  0  0  0  0  0  0  0  0  0
  149.0296  137.7930  157.3340 C   0  0  0  0  0  0  0  0  0  0  0  0
  149.9424  137.0334  157.9384 F   0  0  0  0  0  0  0  0  0  0  0  0
  149.2147  139.0603  157.7026 F   0  0  0  0  0  0  0  0  0  0  0  0
  147.8178  137.3885  157.7143 F   0  0  0  0  0  0  0  0  0  0  0  0
  149.5765  140.3918  154.6940 C   0  0  0  0  0  0  0  0  0  0  0  0
  152.6229  143.5054  156.5732 H   0  0  0  0  0  0  0  0  0  0  0  0
  151.1190  144.3065  156.8845 H   0  0  0  0  0  0  0  0  0  0  0  0
  152.8822  141.5413  158.4245 H   0  0  0  0  0  0  0  0  0  0  0  0
  153.5103  141.3737  160.8213 H   0  0  0  0  0  0  0  0  0  0  0  0
  152.9469  143.3250  162.3384 H   0  0  0  0  0  0  0  0  0  0  0  0
  151.8282  145.2715  161.4504 H   0  0  0  0  0  0  0  0  0  0  0  0
  149.4243  143.3237  156.0799 H   0  0  0  0  0  0  0  0  0  0  0  0
  148.5209  140.7348  156.5484 H   0  0  0  0  0  0  0  0  0  0  0  0
  147.0814  142.5753  155.7577 H   0  0  0  0  0  0  0  0  0  0  0  0
  147.9239  142.6242  154.2273 H   0  0  0  0  0  0  0  0  0  0  0  0
  146.2402  140.3104  155.2949 H   0  0  0  0  0  0  0  0  0  0  0  0
  145.8256  141.3643  153.9668 H   0  0  0  0  0  0  0  0  0  0  0  0
  146.7084  139.1662  153.1527 H   0  0  0  0  0  0  0  0  0  0  0  0
  147.6959  140.5010  152.6145 H   0  0  0  0  0  0  0  0  0  0  0  0
  149.1507  138.7119  153.3890 H   0  0  0  0  0  0  0  0  0  0  0  0
  149.0929  136.6076  155.5268 H   0  0  0  0  0  0  0  0  0  0  0  0
  150.1738  137.9962  155.5191 H   0  0  0  0  0  0  0  0  0  0  0  0
  149.9517  140.9833  153.8577 H   0  0  0  0  0  0  0  0  0  0  0  0
  150.4579  139.9449  155.1521 H   0  0  0  0  0  0  0  0  0  0  0  0
  1  2  2  0  0  0  0
  2  3  1  0  0  0  0
  2 11  1  0  0  0  0
  3  4  1  0  0  0  0
  3 24  1  0  0  0  0
  3 25  1  0  0  0  0
  4  9  1  0  0  0  0
  4  5  1  0  0  0  0
  5  6  2  0  0  0  0
  5 26  1  0  0  0  0
  6  7  1  0  0  0  0
  6 27  1  0  0  0  0
  7  8  2  0  0  0  0
  7 28  1  0  0  0  0
  8  9  1  0  0  0  0
  8 29  1  0  0  0  0
  9 10  2  0  0  0  0
 11 12  1  0  0  0  0
 11 30  1  0  0  0  0
 12 23  1  0  0  0  0
 12 13  1  0  0  0  0
 12 31  1  0  0  0  0
 13 14  1  0  0  0  0
 13 32  1  0  0  0  0
 13 33  1  0  0  0  0
 14 15  1  0  0  0  0
 14 34  1  0  0  0  0
 14 35  1  0  0  0  0
 15 16  1  0  0  0  0
 15 36  1  0  0  0  0
 15 37  1  0  0  0  0
 16 17  1  0  0  0  0
 16 23  1  0  0  0  0
 16 38  1  0  0  0  0
 17 18  1  0  0  0  0
 18 19  1  0  0  0  0
 18 39  1  0  0  0  0
 18 40  1  0  0  0  0
 19 20  1  0  0  0  0
 19 21  1  0  0  0  0
 19 22  1  0  0  0  0
 23 41  1  0  0  0  0
 23 42  1  0  0  0  0
M  END
> <s_m_source_file>
AV-unprocessed.smi

> <i_m_source_file_index>
1376

> <i_lp_mmshare_version>
43012

> <i_f3d_flags>
0

> <s_epik_input>
Tz1jMVtjSF1bY0hdW2NIXVtjSF1uMVtDSDJdQyg9TylbTkhdW0NAQEhdMltDSDJdW0NIMl1bQ0gyXVtDQEhdKFtDSDJdMilPW0NIMl1DKEYpKEYpRg==

> <s_epik_cmdline>
J2VwaWtfcHl0aG9uJywgJy1waCcsICc3LjAnLCAnLXRuJywgJzgnLCAnLW1hJywgJzIwMCcsICctbWV0YWxfYmluZGluZycsICctaW1hZScsICc8aW5maWxlLm1hZT4nLCAnLW9tYWUnLCAnPG91dGZpbGUubWFlPic=

> <r_lp_tautomer_probability>
1

> <r_epik_Ionization_Penalty>
4.08567e-07

> <r_epik_Ionization_Penalty_Charging>
3.90028e-07

> <r_epik_Ionization_Penalty_Neutral>
1.85393e-08

> <r_epik_State_Penalty>
-0

> <r_epik_Charging_Adjusted_Penalty>
3.90028e-07

> <i_epik_Tot_Q>
0

> <i_epik_Tot_abs_Q>
0

> <r_epik_Metal_State_Penalty>
-0

> <b_epik_Metal_Only>
0

> <s_lp_Force_Field>
OPLS_2005

> <r_lp_Energy>
20.214

> <b_lp_Chiralities_Consistent>
1

> <s_lp_Variant>
AV-unprocessed.smi:1376-4

> <Gold.Version>
5.8.1

> <Gold.Id.Protein>
6NUR|6NUR_protein|mol2

> <Gold.PLP.Fitness>
45.6315

> <Gold.PLP.PLP>
-43.5385

> <Gold.PLP.part.hbond>
-1.9873

> <Gold.PLP.part.metal>
0.0000

> <Gold.PLP.part.buried>
-4.1709

> <Gold.PLP.part.nonpolar>
-37.7483

> <Gold.PLP.part.repulsive>
0.3481

> <Gold.PLP.ligand.clash>
0.0000

> <Gold.PLP.ligand.torsion>
0.4552

> <Gold.PLP.Chemscore.Hbond>
0.9913

> <Gold.PLP.Chemscore.CHOScore>
0.0000

> <Gold.PLP.Chemscore.Metal>
0.0000

> <Gold.Chemscore.Hbonds>
donor molecule, donor type, donor heavy atom, donor atom, acceptor molecule, acceptor atom, score
      L1  H    11    30       P1  8028  1.00

> <Gold.PLP.Chemscore.Internal.Correction>
0.0297

> <Gold.Rescore>
     Score         DG    S(hbond)    S(metal)    S(lipo)     H(rot)  DE(clash)    DE(int)     intcor
     11.59     -14.48       1.00        0.00      96.10       2.18       0.08       2.80       ----

> <Gold.Chemscore.Fitness>
11.5925

> <Gold.Chemscore.DG>
-14.4754

> <Gold.Chemscore.ZeroCoef>
-5.4800

> <Gold.Chemscore.Hbond>
0.9975

> <Gold.Chemscore.Metal>
0.0000

> <Gold.Chemscore.Lipo>
96.1005

> <Gold.Chemscore.Internal_Hbond>
0.0000

> <Gold.Chemscore.DEClash>
0.0790

> <Gold.Chemscore.DEInternal>
2.8038

> <Gold.Chemscore.Rot>
2.1797

> <Gold.Chemscore.Internal.Correction>
   9.000000E+99

> <Gold.Chemscore.Hbonds>
donor molecule, donor type, donor heavy atom, donor atom, acceptor molecule, acceptor atom, score
      L1  H    11    30       P1  8028  0.95

> <Gold.Chemscore.Hbond.Weighted>
-3.3318

> <Gold.Chemscore.Metal.Weighted>
-0.0000

> <Gold.Chemscore.Lipo.Weighted>
-11.2438

> <Gold.Chemscore.Internal_Hbond.Weighted>
0.0000

> <Gold.Chemscore.DEClash.Weighted>
0.0790

> <Gold.Chemscore.DEInternal.Weighted>
2.8038

> <Gold.Chemscore.Rot.Weighted>
5.5802

> <Gold.Chemscore.Internal.Correction.Weighted>
   9.000000E+99

> <Gold.Protein.RotatedTorsions>
[ 6907 6896 6895 6894 ] final   61.56 input  -60.11 | X-H torsion
[ 7974 7965 7964 7962 ] final  179.65 input  175.53 | X-H torsion
[ 8008 7997 7996 7995 ] final -179.80 input   59.86 | X-H torsion
[ 10167 10162 10161 10158 ] final   26.34 input  -65.29 | X-H torsion
[ 10718 10713 10712 10709 ] final   65.61 input   66.30 | X-H torsion
[ 10763 10752 10751 10750 ] final   75.64 input  -60.55 | X-H torsion
[ 11005 11000 10999 10996 ] final  -89.59 input  -57.11 | X-H torsion

> <Gold.Protein.ActiveResidues>
 VAL166  LYS551  ARG553  GLY616  TRP617  ASP618  TYR619  PRO620  LYS621  CYS622 
 ASP623  PHE694  ASN695  SER759  ASP760  ASP761  ALA762  ILE779  LEU786  VAL792 
 PHE793  MET794  SER795  GLU796  ALA797  LYS798  CYS799  TRP800  GLU811  SER814 

> <Gold.Protein.RotatedAtoms>
  152.4098  134.6143  160.0033 H   0  0  0  0  0  0  0  0  0  0  0  0  # atno 6907 bound_to 6896
  151.6324  133.3325  159.3119 H   0  0  0  0  0  0  0  0  0  0  0  0  # atno 6908 bound_to 6896
  150.7990  134.7111  159.6649 H   0  0  0  0  0  0  0  0  0  0  0  0  # atno 6909 bound_to 6896
  144.7144  140.0580  143.6433 H   0  0  0  0  0  0  0  0  0  0  0  0  # atno 7974 bound_to 7965
  156.0347  140.1290  157.0221 H   0  0  0  0  0  0  0  0  0  0  0  0  # atno 8008 bound_to 7997
  154.4365  140.1042  156.6220 H   0  0  0  0  0  0  0  0  0  0  0  0  # atno 8009 bound_to 7997
  155.5756  140.3467  155.4529 H   0  0  0  0  0  0  0  0  0  0  0  0  # atno 8010 bound_to 7997
  140.5031  144.0283  150.6341 H   0  0  0  0  0  0  0  0  0  0  0  0  # atno 10167 bound_to 10162
  157.6116  130.9223  149.9999 H   0  0  0  0  0  0  0  0  0  0  0  0  # atno 10718 bound_to 10713
  153.0669  135.4981  154.8219 H   0  0  0  0  0  0  0  0  0  0  0  0  # atno 10763 bound_to 10752
  154.6966  135.2994  154.9404 H   0  0  0  0  0  0  0  0  0  0  0  0  # atno 10764 bound_to 10752
  154.0142  135.6750  153.4820 H   0  0  0  0  0  0  0  0  0  0  0  0  # atno 10765 bound_to 10752
  141.1582  133.7639  156.9616 H   0  0  0  0  0  0  0  0  0  0  0  0  # atno 11005 bound_to 11000
  145.9888  139.2998  143.0997 LP  0  0  0  0  0  0  0  0  0  0  0  0  # atno 17320 bound_to 7965
  145.8926  140.9294  143.0544 LP  0  0  0  0  0  0  0  0  0  0  0  0  # atno 17321 bound_to 7965
  140.3585  143.2922  152.0410 LP  0  0  0  0  0  0  0  0  0  0  0  0  # atno 17342 bound_to 10162
  139.4877  144.6321  151.7049 LP  0  0  0  0  0  0  0  0  0  0  0  0  # atno 17343 bound_to 10162
  156.1221  130.3645  149.9869 LP  0  0  0  0  0  0  0  0  0  0  0  0  # atno 17370 bound_to 10713
  156.7947  130.9269  151.3646 LP  0  0  0  0  0  0  0  0  0  0  0  0  # atno 17371 bound_to 10713
  140.1189  134.9429  157.2175 LP  0  0  0  0  0  0  0  0  0  0  0  0  # atno 17394 bound_to 11000
  140.3097  134.3037  155.7270 LP  0  0  0  0  0  0  0  0  0  0  0  0  # atno 17395 bound_to 11000

$$$$
