AV-unprocessed.smi:1196|AV-procd|sdf|4999|dock1
  -GOLD-   22720 4 03D 1   1.00000     0.00000
 Structure written by MMmdl.
 37 38  0  0  0  0  0  0  0  0  1 V2000
  150.8887  140.9574  158.3889 C   0  0  0  0  0  0  0  0  0  0  0  0
  150.3753  142.3046  157.8576 C   0  0  1  0  0  0  0  0  0  0  0  0
  151.5231  143.3179  157.6832 C   0  0  0  0  0  0  0  0  0  0  0  0
  151.7254  144.1297  158.8707 N   0  0  0  0  0  0  0  0  0  0  0  0
  152.0069  143.7117  160.1542 C   0  0  0  0  0  0  0  0  0  0  0  0
  152.0971  144.8286  160.9344 C   0  0  0  0  0  0  0  0  0  0  0  0
  151.8510  145.8961  160.0263 C   0  0  0  0  0  0  0  0  0  0  0  0
  151.6305  145.4750  158.7914 N   0  0  0  0  0  0  0  0  0  0  0  0
  149.6837  142.1092  156.5851 N   0  0  0  0  0  0  0  0  0  0  0  0
  150.1195  141.3530  155.5665 C   0  0  0  0  0  0  0  0  0  0  0  0
  151.1996  140.7617  155.5773 O   0  0  0  0  0  0  0  0  0  0  0  0
  149.1837  141.2586  154.3577 C   0  0  0  0  0  0  0  0  0  0  0  0
  148.4538  139.9052  154.2518 C   0  0  0  0  0  0  0  0  0  0  0  0
  147.2274  139.9560  153.3201 C   0  0  1  0  0  0  0  0  0  0  0  0
  147.4980  139.4023  152.0043 N   0  0  0  0  0  0  0  0  0  0  0  0
  146.7031  138.3642  151.7118 C   0  0  0  0  0  0  0  0  0  0  0  0
  146.7166  137.7167  150.6678 O   0  0  0  0  0  0  0  0  0  0  0  0
  145.8936  138.1569  152.7562 N   0  0  0  0  0  0  0  0  0  0  0  0
  146.1173  139.0137  153.7511 C   0  0  0  0  0  0  0  0  0  0  0  0
  145.5412  139.0546  154.8365 O   0  0  0  0  0  0  0  0  0  0  0  0
  151.3903  141.0815  159.3490 H   0  0  0  0  0  0  0  0  0  0  0  0
  151.6000  140.5028  157.6985 H   0  0  0  0  0  0  0  0  0  0  0  0
  150.0697  140.2527  158.5370 H   0  0  0  0  0  0  0  0  0  0  0  0
  149.6751  142.7127  158.5889 H   0  0  0  0  0  0  0  0  0  0  0  0
  152.4565  142.7938  157.4748 H   0  0  0  0  0  0  0  0  0  0  0  0
  151.3368  143.9711  156.8288 H   0  0  0  0  0  0  0  0  0  0  0  0
  152.1152  142.6662  160.4029 H   0  0  0  0  0  0  0  0  0  0  0  0
  152.3052  144.8754  161.9931 H   0  0  0  0  0  0  0  0  0  0  0  0
  151.8261  146.9571  160.2260 H   0  0  0  0  0  0  0  0  0  0  0  0
  148.7838  142.5566  156.4880 H   0  0  0  0  0  0  0  0  0  0  0  0
  148.4471  142.0611  154.4229 H   0  0  0  0  0  0  0  0  0  0  0  0
  149.7704  141.4428  153.4572 H   0  0  0  0  0  0  0  0  0  0  0  0
  149.1498  139.1396  153.9038 H   0  0  0  0  0  0  0  0  0  0  0  0
  148.1295  139.5928  155.2460 H   0  0  0  0  0  0  0  0  0  0  0  0
  146.8401  140.9713  153.2260 H   0  0  0  0  0  0  0  0  0  0  0  0
  148.2070  139.7717  151.3875 H   0  0  0  0  0  0  0  0  0  0  0  0
  145.1980  137.4262  152.7904 H   0  0  0  0  0  0  0  0  0  0  0  0
  1  2  1  0  0  0  0
  1 21  1  0  0  0  0
  1 22  1  0  0  0  0
  1 23  1  0  0  0  0
  2  3  1  0  0  0  0
  2  9  1  0  0  0  0
  2 24  1  0  0  0  0
  3  4  1  0  0  0  0
  3 25  1  0  0  0  0
  3 26  1  0  0  0  0
  4  8  1  0  0  0  0
  4  5  1  0  0  0  0
  5  6  2  0  0  0  0
  5 27  1  0  0  0  0
  6  7  1  0  0  0  0
  6 28  1  0  0  0  0
  7  8  2  0  0  0  0
  7 29  1  0  0  0  0
  9 10  1  0  0  0  0
  9 30  1  0  0  0  0
 10 11  2  0  0  0  0
 10 12  1  0  0  0  0
 12 13  1  0  0  0  0
 12 31  1  0  0  0  0
 12 32  1  0  0  0  0
 13 14  1  0  0  0  0
 13 33  1  0  0  0  0
 13 34  1  0  0  0  0
 14 19  1  0  0  0  0
 14 15  1  0  0  0  0
 14 35  1  0  0  0  0
 15 16  1  0  0  0  0
 15 36  1  0  0  0  0
 16 17  2  0  0  0  0
 16 18  1  0  0  0  0
 18 19  1  0  0  0  0
 18 37  1  0  0  0  0
 19 20  2  0  0  0  0
M  END
> <s_m_source_file>
AV-unprocessed.smi

> <i_m_source_file_index>
1196

> <i_lp_mmshare_version>
43012

> <i_f3d_flags>
0

> <s_epik_input>
bjFbY0hdW2NIXVtjSF1uMVtDSDJdW0NAQEhdKFtDSDNdKVtOSF1DKD1PKVtDSDJdW0NIMl1bQ0BASF0yW05IXUMoPU8pW05IXUMyPU8=

> <s_epik_cmdline>
J2VwaWtfcHl0aG9uJywgJy1waCcsICc3LjAnLCAnLXRuJywgJzgnLCAnLW1hJywgJzIwMCcsICctbWV0YWxfYmluZGluZycsICctaW1hZScsICc8aW5maWxlLm1hZT4nLCAnLW9tYWUnLCAnPG91dGZpbGUubWFlPic=

> <r_lp_tautomer_probability>
1

> <r_epik_Ionization_Penalty>
0.00815973

> <r_epik_Ionization_Penalty_Charging>
0

> <r_epik_Ionization_Penalty_Neutral>
0.00815973

> <r_epik_State_Penalty>
0.00583796

> <r_epik_Charging_Adjusted_Penalty>
0.00583796

> <i_epik_Tot_Q>
0

> <i_epik_Tot_abs_Q>
0

> <r_epik_Metal_State_Penalty>
0.409204

> <b_epik_Metal_Only>
0

> <s_lp_Force_Field>
OPLS_2005

> <r_lp_Energy>
17.2443

> <b_lp_Chiralities_Consistent>
1

> <s_lp_Variant>
AV-unprocessed.smi:1196-4

> <Gold.Version>
5.8.1

> <Gold.Id.Protein>
6NUR|6NUR_protein|mol2

> <Gold.PLP.Fitness>
45.7976

> <Gold.PLP.PLP>
-40.5427

> <Gold.PLP.part.hbond>
-5.1356

> <Gold.PLP.part.metal>
0.0000

> <Gold.PLP.part.buried>
-4.0911

> <Gold.PLP.part.nonpolar>
-33.9719

> <Gold.PLP.part.repulsive>
2.3986

> <Gold.PLP.ligand.clash>
0.0000

> <Gold.PLP.ligand.torsion>
1.3933

> <Gold.PLP.Chemscore.Hbond>
2.6596

> <Gold.PLP.Chemscore.CHOScore>
0.0000

> <Gold.PLP.Chemscore.Metal>
0.0000

> <Gold.Chemscore.Hbonds>
donor molecule, donor type, donor heavy atom, donor atom, acceptor molecule, acceptor atom, score
      L1  H     9    30       P1  8028  0.08
      L1  H    15    36       P1  7957  0.68
      P1  H  7954  7966       L1    17  1.00
      P1  H  7989  7998       L1    11  0.54

> <Gold.PLP.Chemscore.Internal.Correction>
0.0626

> <Gold.Rescore>
     Score         DG    S(hbond)    S(metal)    S(lipo)     H(rot)  DE(clash)    DE(int)     intcor
     10.67     -14.98       2.49        0.00      74.79       2.96       1.62       2.70       ----

> <Gold.Chemscore.Fitness>
10.6681

> <Gold.Chemscore.DG>
-14.9804

> <Gold.Chemscore.ZeroCoef>
-5.4800

> <Gold.Chemscore.Hbond>
2.4913

> <Gold.Chemscore.Metal>
0.0000

> <Gold.Chemscore.Lipo>
74.7931

> <Gold.Chemscore.Internal_Hbond>
0.0000

> <Gold.Chemscore.DEClash>
1.6154

> <Gold.Chemscore.DEInternal>
2.6968

> <Gold.Chemscore.Rot>
2.9575

> <Gold.Chemscore.Internal.Correction>
   9.000000E+99

> <Gold.Chemscore.Hbonds>
donor molecule, donor type, donor heavy atom, donor atom, acceptor molecule, acceptor atom, score
      L1  H     9    30       P1  8028  0.09
      L1  H    15    36       P1  7957  0.63
      P1  H  7954  7966       L1    17  0.80
      P1  H  7989  7998       L1    11  0.11

> <Gold.Chemscore.Hbond.Weighted>
-8.3209

> <Gold.Chemscore.Metal.Weighted>
-0.0000

> <Gold.Chemscore.Lipo.Weighted>
-8.7508

> <Gold.Chemscore.Internal_Hbond.Weighted>
0.0000

> <Gold.Chemscore.DEClash.Weighted>
1.6154

> <Gold.Chemscore.DEInternal.Weighted>
2.6968

> <Gold.Chemscore.Rot.Weighted>
7.5713

> <Gold.Chemscore.Internal.Correction.Weighted>
   9.000000E+99

> <Gold.Protein.RotatedTorsions>
[ 6907 6896 6895 6894 ] final  -87.17 input  -60.11 | X-H torsion
[ 7974 7965 7964 7962 ] final -176.66 input  175.53 | X-H torsion
[ 8008 7997 7996 7995 ] final -129.86 input   59.86 | X-H torsion
[ 10167 10162 10161 10158 ] final  -95.46 input  -65.29 | X-H torsion
[ 10718 10713 10712 10709 ] final  126.53 input   66.30 | X-H torsion
[ 10763 10752 10751 10750 ] final   83.95 input  -60.55 | X-H torsion
[ 11005 11000 10999 10996 ] final   28.78 input  -57.11 | X-H torsion

> <Gold.Protein.ActiveResidues>
 VAL166  LYS551  ARG553  GLY616  TRP617  ASP618  TYR619  PRO620  LYS621  CYS622 
 ASP623  PHE694  ASN695  SER759  ASP760  ASP761  ALA762  ILE779  LEU786  VAL792 
 PHE793  MET794  SER795  GLU796  ALA797  LYS798  CYS799  TRP800  GLU811  SER814 

> <Gold.Protein.RotatedAtoms>
  150.6866  134.2937  159.4677 H   0  0  0  0  0  0  0  0  0  0  0  0  # atno 6907 bound_to 6896
  152.0840  134.9450  160.0582 H   0  0  0  0  0  0  0  0  0  0  0  0  # atno 6908 bound_to 6896
  152.0791  133.4109  159.4530 H   0  0  0  0  0  0  0  0  0  0  0  0  # atno 6909 bound_to 6896
  144.7127  140.1137  143.6409 H   0  0  0  0  0  0  0  0  0  0  0  0  # atno 7974 bound_to 7965
  155.2863  140.0446  157.3019 H   0  0  0  0  0  0  0  0  0  0  0  0  # atno 8008 bound_to 7997
  154.5567  140.2334  155.8366 H   0  0  0  0  0  0  0  0  0  0  0  0  # atno 8009 bound_to 7997
  156.2013  140.3024  155.9540 H   0  0  0  0  0  0  0  0  0  0  0  0  # atno 8010 bound_to 7997
  140.3040  143.3145  152.0219 H   0  0  0  0  0  0  0  0  0  0  0  0  # atno 10167 bound_to 10162
  157.5411  131.1097  150.8857 H   0  0  0  0  0  0  0  0  0  0  0  0  # atno 10718 bound_to 10713
  153.1338  135.4672  154.9390 H   0  0  0  0  0  0  0  0  0  0  0  0  # atno 10763 bound_to 10752
  154.7687  135.3152  154.8235 H   0  0  0  0  0  0  0  0  0  0  0  0  # atno 10764 bound_to 10752
  153.8772  135.6898  153.4823 H   0  0  0  0  0  0  0  0  0  0  0  0  # atno 10765 bound_to 10752
  140.3120  134.2639  155.7732 H   0  0  0  0  0  0  0  0  0  0  0  0  # atno 11005 bound_to 11000
  145.9432  139.2683  143.1256 LP  0  0  0  0  0  0  0  0  0  0  0  0  # atno 17320 bound_to 7965
  145.9401  140.8986  143.0312 LP  0  0  0  0  0  0  0  0  0  0  0  0  # atno 17321 bound_to 7965
  139.4908  144.6435  151.6828 LP  0  0  0  0  0  0  0  0  0  0  0  0  # atno 17342 bound_to 10162
  140.5627  144.0242  150.6177 LP  0  0  0  0  0  0  0  0  0  0  0  0  # atno 17343 bound_to 10162
  156.9409  130.5384  149.5280 LP  0  0  0  0  0  0  0  0  0  0  0  0  # atno 17370 bound_to 10713
  156.0498  130.5569  150.8963 LP  0  0  0  0  0  0  0  0  0  0  0  0  # atno 17371 bound_to 10713
  141.2106  133.7714  156.9921 LP  0  0  0  0  0  0  0  0  0  0  0  0  # atno 17394 bound_to 11000
  140.1016  134.9531  157.1932 LP  0  0  0  0  0  0  0  0  0  0  0  0  # atno 17395 bound_to 11000

$$$$
