AV-unprocessed.smi:189|AV-procd|sdf|1476|dock7
  -GOLD-   2262019293D 1   1.00000     0.00000
 Structure written by MMmdl.
 53 57  0  0  0  0  0  0  0  0  1 V2000
  147.3143  141.9322  154.5502 C   0  0  0  0  0  0  0  0  0  0  0  0
  148.7646  141.4123  154.5769 C   0  0  1  0  0  0  0  0  0  0  0  0
  149.4484  141.4202  155.9488 C   0  0  0  0  0  0  0  0  0  0  0  0
  150.6583  140.4980  155.7352 C   0  0  1  0  0  0  0  0  0  0  0  0
  150.9440  139.5272  156.8943 C   0  0  0  0  0  0  0  0  0  0  0  0
  152.1058  138.5636  156.5684 C   0  0  0  0  0  0  0  0  0  0  0  0
  152.1503  138.1153  155.0894 C   0  0  0  0  0  0  0  0  0  0  0  0
  150.7908  138.2725  154.3942 C   0  0  0  0  0  0  0  0  0  0  0  0
  150.3623  139.7639  154.4061 C   0  0  1  0  0  0  0  0  0  0  0  0
  148.9752  140.0682  154.0369 N   0  0  0  0  0  0  0  0  0  0  0  0
  148.0584  139.1005  154.2964 C   0  0  0  0  0  0  0  0  0  0  0  0
  147.9578  138.5359  155.5294 N   0  0  0  0  0  0  0  0  0  0  0  0
  147.0766  137.5554  155.7481 C   0  0  0  0  0  0  0  0  0  0  0  0
  146.2274  136.9896  154.8878 N   0  0  0  0  0  0  0  0  0  0  0  0
  146.3389  137.5422  153.6456 C   0  0  0  0  0  0  0  0  0  0  0  0
  147.2163  138.5972  153.2707 C   0  0  0  0  0  0  0  0  0  0  0  0
  147.0517  138.9019  151.9258 N   0  0  0  0  0  0  0  0  0  0  0  0
  146.1279  138.0713  151.5260 C   0  0  0  0  0  0  0  0  0  0  0  0
  145.6552  137.2080  152.4894 N   0  0  0  0  0  0  0  0  0  0  0  0
  144.6422  136.1794  152.3135 C   0  0  0  0  0  0  0  0  0  0  0  0
  144.9368  135.2006  151.1472 C   0  0  1  0  0  0  0  0  0  0  0  0
  144.8509  135.8877  149.9131 O   0  0  0  0  0  0  0  0  0  0  0  0
  146.3083  134.5576  151.2720 C   0  0  0  0  0  0  0  0  0  0  0  0
  146.0411  133.3625  152.1842 C   0  0  0  0  0  0  0  0  0  0  0  0
  144.6826  132.9954  151.9628 O   0  0  0  0  0  0  0  0  0  0  0  0
  144.0434  133.9526  151.1241 C   0  0  0  0  0  0  0  0  0  0  0  0
  147.2788  142.9776  154.8566 H   0  0  0  0  0  0  0  0  0  0  0  0
  146.6584  141.3798  155.2221 H   0  0  0  0  0  0  0  0  0  0  0  0
  146.8959  141.8708  153.5453 H   0  0  0  0  0  0  0  0  0  0  0  0
  149.3365  142.0750  153.9251 H   0  0  0  0  0  0  0  0  0  0  0  0
  149.7387  142.4237  156.2609 H   0  0  0  0  0  0  0  0  0  0  0  0
  148.7830  141.0186  156.7138 H   0  0  0  0  0  0  0  0  0  0  0  0
  151.5452  141.1158  155.5855 H   0  0  0  0  0  0  0  0  0  0  0  0
  151.1604  140.0776  157.8103 H   0  0  0  0  0  0  0  0  0  0  0  0
  150.0461  138.9424  157.0983 H   0  0  0  0  0  0  0  0  0  0  0  0
  153.0568  139.0341  156.8208 H   0  0  0  0  0  0  0  0  0  0  0  0
  152.0246  137.6898  157.2158 H   0  0  0  0  0  0  0  0  0  0  0  0
  152.8875  138.7142  154.5532 H   0  0  0  0  0  0  0  0  0  0  0  0
  152.4942  137.0826  155.0237 H   0  0  0  0  0  0  0  0  0  0  0  0
  150.8374  137.9044  153.3689 H   0  0  0  0  0  0  0  0  0  0  0  0
  150.0780  137.6363  154.9197 H   0  0  0  0  0  0  0  0  0  0  0  0
  150.9654  140.2545  153.6404 H   0  0  0  0  0  0  0  0  0  0  0  0
  147.0537  137.1644  156.7544 H   0  0  0  0  0  0  0  0  0  0  0  0
  145.7714  138.0575  150.5061 H   0  0  0  0  0  0  0  0  0  0  0  0
  144.5497  135.6294  153.2509 H   0  0  0  0  0  0  0  0  0  0  0  0
  143.6843  136.6774  152.1595 H   0  0  0  0  0  0  0  0  0  0  0  0
  145.4054  135.4501  149.2855 H   0  0  0  0  0  0  0  0  0  0  0  0
  146.6489  134.1935  150.3011 H   0  0  0  0  0  0  0  0  0  0  0  0
  147.0735  135.2304  151.6612 H   0  0  0  0  0  0  0  0  0  0  0  0
  146.7147  132.5296  151.9815 H   0  0  0  0  0  0  0  0  0  0  0  0
  146.1592  133.6432  153.2312 H   0  0  0  0  0  0  0  0  0  0  0  0
  143.0138  134.1328  151.4290 H   0  0  0  0  0  0  0  0  0  0  0  0
  144.0097  133.5279  150.1193 H   0  0  0  0  0  0  0  0  0  0  0  0
  1  2  1  0  0  0  0
  1 27  1  0  0  0  0
  1 28  1  0  0  0  0
  1 29  1  0  0  0  0
  2 10  1  0  0  0  0
  2  3  1  0  0  0  0
  2 30  1  0  0  0  0
  3  4  1  0  0  0  0
  3 31  1  0  0  0  0
  3 32  1  0  0  0  0
  4  9  1  0  0  0  0
  4  5  1  0  0  0  0
  4 33  1  0  0  0  0
  5  6  1  0  0  0  0
  5 34  1  0  0  0  0
  5 35  1  0  0  0  0
  6  7  1  0  0  0  0
  6 36  1  0  0  0  0
  6 37  1  0  0  0  0
  7  8  1  0  0  0  0
  7 38  1  0  0  0  0
  7 39  1  0  0  0  0
  8  9  1  0  0  0  0
  8 40  1  0  0  0  0
  8 41  1  0  0  0  0
  9 10  1  0  0  0  0
  9 42  1  0  0  0  0
 10 11  1  0  0  0  0
 11 16  1  0  0  0  0
 11 12  2  0  0  0  0
 12 13  1  0  0  0  0
 13 14  2  0  0  0  0
 13 43  1  0  0  0  0
 14 15  1  0  0  0  0
 15 19  1  0  0  0  0
 15 16  2  0  0  0  0
 16 17  1  0  0  0  0
 17 18  2  0  0  0  0
 18 19  1  0  0  0  0
 18 44  1  0  0  0  0
 19 20  1  0  0  0  0
 20 21  1  0  0  0  0
 20 45  1  0  0  0  0
 20 46  1  0  0  0  0
 21 26  1  0  0  0  0
 21 22  1  0  0  0  0
 21 23  1  0  0  0  0
 22 47  1  0  0  0  0
 23 24  1  0  0  0  0
 23 48  1  0  0  0  0
 23 49  1  0  0  0  0
 24 25  1  0  0  0  0
 24 50  1  0  0  0  0
 24 51  1  0  0  0  0
 25 26  1  0  0  0  0
 26 52  1  0  0  0  0
 26 53  1  0  0  0  0
M  END
> <s_m_source_file>
AV-unprocessed.smi

> <i_m_source_file_index>
189

> <i_lp_mmshare_version>
43012

> <i_f3d_flags>
0

> <s_epik_input>
W0NIMl0xW0NIMl1bQ0gyXVtDSDJdW0NASF0oW0NASF0xMilOKFtDQEhdKFtDSDNdKVtDSDJdMiljKG5bY0hdbjMpYyhjMzQpbltjSF1uNFtDSDJdW0NAQF01KFtPSF0pW0NIMl1bQ0gyXU9bQ0gyXTU=

> <s_epik_cmdline>
J2VwaWtfcHl0aG9uJywgJy1waCcsICc3LjAnLCAnLXRuJywgJzgnLCAnLW1hJywgJzIwMCcsICctbWV0YWxfYmluZGluZycsICctaW1hZScsICc8aW5maWxlLm1hZT4nLCAnLW9tYWUnLCAnPG91dGZpbGUubWFlPic=

> <r_lp_tautomer_probability>
1

> <r_epik_Ionization_Penalty>
0.00594261

> <r_epik_Ionization_Penalty_Charging>
0

> <r_epik_Ionization_Penalty_Neutral>
0.00594261

> <r_epik_State_Penalty>
0.00429776

> <r_epik_Charging_Adjusted_Penalty>
0.00429776

> <i_epik_Tot_Q>
0

> <i_epik_Tot_abs_Q>
0

> <r_epik_Metal_State_Penalty>
-0

> <b_epik_Metal_Only>
0

> <s_lp_Force_Field>
OPLS_2005

> <r_lp_Energy>
67.8884

> <b_lp_Chiralities_Consistent>
1

> <s_lp_Variant>
AV-unprocessed.smi:189-2

> <Gold.Version>
5.8.1

> <Gold.Id.Protein>
6NUR|6NUR_protein|mol2

> <Gold.PLP.Fitness>
44.0497

> <Gold.PLP.PLP>
-38.5984

> <Gold.PLP.part.hbond>
-2.0000

> <Gold.PLP.part.metal>
0.0000

> <Gold.PLP.part.buried>
-3.8267

> <Gold.PLP.part.nonpolar>
-37.5490

> <Gold.PLP.part.repulsive>
3.3917

> <Gold.PLP.ligand.clash>
0.0000

> <Gold.PLP.ligand.torsion>
0.2720

> <Gold.PLP.Chemscore.Hbond>
1.0000

> <Gold.PLP.Chemscore.CHOScore>
0.9818

> <Gold.PLP.Chemscore.Metal>
0.0000

> <Gold.Chemscore.Hbonds>
donor molecule, donor type, donor heavy atom, donor atom, acceptor molecule, acceptor atom, score
      L1  H    22    47       P1  7921  1.00
      L1  C    18    44       P1 10171  0.97

> <Gold.PLP.Chemscore.Internal.Correction>
0.0500

> <Gold.Rescore>
     Score         DG    S(hbond)    S(metal)    S(lipo)     H(rot)  DE(clash)    DE(int)     intcor
     10.94     -14.06       1.00        0.00      89.22       2.03       2.06       1.06       ----

> <Gold.Chemscore.Fitness>
10.9407

> <Gold.Chemscore.DG>
-14.0574

> <Gold.Chemscore.ZeroCoef>
-5.4800

> <Gold.Chemscore.Hbond>
0.9983

> <Gold.Chemscore.Metal>
0.0000

> <Gold.Chemscore.Lipo>
89.2236

> <Gold.Chemscore.Internal_Hbond>
0.0000

> <Gold.Chemscore.DEClash>
2.0613

> <Gold.Chemscore.DEInternal>
1.0554

> <Gold.Chemscore.Rot>
2.0297

> <Gold.Chemscore.Internal.Correction>
   9.000000E+99

> <Gold.Chemscore.Hbonds>
donor molecule, donor type, donor heavy atom, donor atom, acceptor molecule, acceptor atom, score
      L1  H    22    47       P1  7921  1.00

> <Gold.Chemscore.Hbond.Weighted>
-3.3342

> <Gold.Chemscore.Metal.Weighted>
-0.0000

> <Gold.Chemscore.Lipo.Weighted>
-10.4392

> <Gold.Chemscore.Internal_Hbond.Weighted>
0.0000

> <Gold.Chemscore.DEClash.Weighted>
2.0613

> <Gold.Chemscore.DEInternal.Weighted>
1.0554

> <Gold.Chemscore.Rot.Weighted>
5.1960

> <Gold.Chemscore.Internal.Correction.Weighted>
   9.000000E+99

> <Gold.Protein.RotatedTorsions>
[ 6907 6896 6895 6894 ] final  150.87 input  -60.11 | X-H torsion
[ 7974 7965 7964 7962 ] final  -24.71 input  175.53 | X-H torsion
[ 8008 7997 7996 7995 ] final -161.62 input   59.86 | X-H torsion
[ 10167 10162 10161 10158 ] final  113.82 input  -65.29 | X-H torsion
[ 10718 10713 10712 10709 ] final  -13.22 input   66.30 | X-H torsion
[ 10763 10752 10751 10750 ] final  150.64 input  -60.55 | X-H torsion
[ 11005 11000 10999 10996 ] final  -70.49 input  -57.11 | X-H torsion

> <Gold.Protein.ActiveResidues>
 VAL166  LYS551  ARG553  GLY616  TRP617  ASP618  TYR619  PRO620  LYS621  CYS622 
 ASP623  PHE694  ASN695  SER759  ASP760  ASP761  ALA762  ILE779  LEU786  VAL792 
 PHE793  MET794  SER795  GLU796  ALA797  LYS798  CYS799  TRP800  GLU811  SER814 

> <Gold.Protein.RotatedAtoms>
  152.1085  133.4288  159.4619 H   0  0  0  0  0  0  0  0  0  0  0  0  # atno 6907 bound_to 6896
  150.6866  134.2676  159.4584 H   0  0  0  0  0  0  0  0  0  0  0  0  # atno 6908 bound_to 6896
  152.0543  134.9634  160.0625 H   0  0  0  0  0  0  0  0  0  0  0  0  # atno 6909 bound_to 6896
  146.1538  140.4788  142.8600 H   0  0  0  0  0  0  0  0  0  0  0  0  # atno 7974 bound_to 7965
  155.7948  140.0883  157.1989 H   0  0  0  0  0  0  0  0  0  0  0  0  # atno 8008 bound_to 7997
  154.3984  140.1483  156.3263 H   0  0  0  0  0  0  0  0  0  0  0  0  # atno 8009 bound_to 7997
  155.8522  140.3434  155.5703 H   0  0  0  0  0  0  0  0  0  0  0  0  # atno 8010 bound_to 7997
  139.6433  144.7125  151.2193 H   0  0  0  0  0  0  0  0  0  0  0  0  # atno 10167 bound_to 10162
  156.6334  130.4908  149.6121 H   0  0  0  0  0  0  0  0  0  0  0  0  # atno 10718 bound_to 10713
  154.0908  135.2852  155.3272 H   0  0  0  0  0  0  0  0  0  0  0  0  # atno 10763 bound_to 10752
  154.6621  135.5330  153.8035 H   0  0  0  0  0  0  0  0  0  0  0  0  # atno 10764 bound_to 10752
  153.0414  135.6536  154.1077 H   0  0  0  0  0  0  0  0  0  0  0  0  # atno 10765 bound_to 10752
  141.1575  133.6791  156.6761 H   0  0  0  0  0  0  0  0  0  0  0  0  # atno 11005 bound_to 11000
  144.7937  140.6081  143.6524 LP  0  0  0  0  0  0  0  0  0  0  0  0  # atno 17320 bound_to 7965
  145.4759  139.1499  143.3788 LP  0  0  0  0  0  0  0  0  0  0  0  0  # atno 17321 bound_to 7965
  140.7502  143.6274  150.8455 LP  0  0  0  0  0  0  0  0  0  0  0  0  # atno 17342 bound_to 10162
  139.9914  143.5843  152.2909 LP  0  0  0  0  0  0  0  0  0  0  0  0  # atno 17343 bound_to 10162
  156.2216  130.6741  151.1374 LP  0  0  0  0  0  0  0  0  0  0  0  0  # atno 17370 bound_to 10713
  157.7193  131.0691  150.6201 LP  0  0  0  0  0  0  0  0  0  0  0  0  # atno 17371 bound_to 10713
  140.3138  134.8064  157.4197 LP  0  0  0  0  0  0  0  0  0  0  0  0  # atno 17394 bound_to 11000
  140.1156  134.5288  155.8228 LP  0  0  0  0  0  0  0  0  0  0  0  0  # atno 17395 bound_to 11000

$$$$
