AV-unprocessed.smi:2345|AV-procd|sdf|9362|dock5
  -GOLD-   2272012583D 1   1.00000     0.00000
 Structure written by MMmdl.
 37 38  0  0  0  0  0  0  0  0  1 V2000
  145.8394  131.7652  151.1236 C   0  0  0  0  0  0  0  0  0  0  0  0
  145.6754  133.1640  150.5247 C   0  0  0  0  0  0  0  0  0  0  0  0
  146.2752  134.4452  151.6607 S   0  0  0  0  0  0  0  0  0  0  0  0
  145.0459  135.7638  151.3617 C   0  0  1  0  0  0  0  0  0  0  0  0
  143.6522  135.2724  151.7585 C   0  0  0  0  0  0  0  0  0  0  0  0
  143.5641  135.5368  153.2603 C   0  0  0  0  0  0  0  0  0  0  0  0
  144.3647  136.8231  153.4891 C   0  0  0  0  0  0  0  0  0  0  0  0
  145.2477  137.0228  152.2413 C   0  0  1  0  0  0  0  0  0  0  0  0
  146.6389  137.2783  152.6119 N   0  0  0  0  0  0  0  0  0  0  0  0
  147.0647  138.3087  153.3557 C   0  0  0  0  0  0  0  0  0  0  0  0
  146.3128  139.1617  153.8267 O   0  0  0  0  0  0  0  0  0  0  0  0
  148.4024  138.2937  153.4810 N   0  0  0  0  0  0  0  0  0  0  0  0
  149.2423  139.2169  154.1613 C   0  0  0  0  0  0  0  0  0  0  0  0
  148.8853  140.5586  154.4403 C   0  0  0  0  0  0  0  0  0  0  0  0
  149.8024  141.3695  155.1390 C   0  0  0  0  0  0  0  0  0  0  0  0
  151.0061  140.9333  155.5670 N   0  0  0  0  0  0  0  0  0  0  0  0
  151.3370  139.6497  155.3118 C   0  0  0  0  0  0  0  0  0  0  0  0
  150.4941  138.7557  154.6213 C   0  0  0  0  0  0  0  0  0  0  0  0
  150.8866  137.4775  154.4015 F   0  0  0  0  0  0  0  0  0  0  0  0
  145.4773  131.0024  150.4340 H   0  0  0  0  0  0  0  0  0  0  0  0
  145.2801  131.6668  152.0544 H   0  0  0  0  0  0  0  0  0  0  0  0
  146.8873  131.5513  151.3362 H   0  0  0  0  0  0  0  0  0  0  0  0
  146.2234  133.2261  149.5855 H   0  0  0  0  0  0  0  0  0  0  0  0
  144.6271  133.3581  150.2962 H   0  0  0  0  0  0  0  0  0  0  0  0
  145.0674  136.0168  150.3011 H   0  0  0  0  0  0  0  0  0  0  0  0
  142.8968  135.8657  151.2414 H   0  0  0  0  0  0  0  0  0  0  0  0
  143.4763  134.2266  151.5039 H   0  0  0  0  0  0  0  0  0  0  0  0
  142.5344  135.6181  153.6093 H   0  0  0  0  0  0  0  0  0  0  0  0
  144.0309  134.7139  153.8033 H   0  0  0  0  0  0  0  0  0  0  0  0
  143.6928  137.6740  153.6074 H   0  0  0  0  0  0  0  0  0  0  0  0
  144.9483  136.7476  154.4077 H   0  0  0  0  0  0  0  0  0  0  0  0
  144.8506  137.8834  151.6994 H   0  0  0  0  0  0  0  0  0  0  0  0
  147.3276  136.6329  152.2536 H   0  0  0  0  0  0  0  0  0  0  0  0
  148.8867  137.5730  152.9660 H   0  0  0  0  0  0  0  0  0  0  0  0
  147.9337  140.9748  154.1475 H   0  0  0  0  0  0  0  0  0  0  0  0
  149.5588  142.3969  155.3661 H   0  0  0  0  0  0  0  0  0  0  0  0
  152.3024  139.3244  155.6699 H   0  0  0  0  0  0  0  0  0  0  0  0
  1  2  1  0  0  0  0
  1 20  1  0  0  0  0
  1 21  1  0  0  0  0
  1 22  1  0  0  0  0
  2  3  1  0  0  0  0
  2 23  1  0  0  0  0
  2 24  1  0  0  0  0
  3  4  1  0  0  0  0
  4  8  1  0  0  0  0
  4  5  1  0  0  0  0
  4 25  1  0  0  0  0
  5  6  1  0  0  0  0
  5 26  1  0  0  0  0
  5 27  1  0  0  0  0
  6  7  1  0  0  0  0
  6 28  1  0  0  0  0
  6 29  1  0  0  0  0
  7  8  1  0  0  0  0
  7 30  1  0  0  0  0
  7 31  1  0  0  0  0
  8  9  1  0  0  0  0
  8 32  1  0  0  0  0
  9 10  1  0  0  0  0
  9 33  1  0  0  0  0
 10 11  2  0  0  0  0
 10 12  1  0  0  0  0
 12 13  1  0  0  0  0
 12 34  1  0  0  0  0
 13 18  1  0  0  0  0
 13 14  2  0  0  0  0
 14 15  1  0  0  0  0
 14 35  1  0  0  0  0
 15 16  2  0  0  0  0
 15 36  1  0  0  0  0
 16 17  1  0  0  0  0
 17 18  2  0  0  0  0
 17 37  1  0  0  0  0
 18 19  1  0  0  0  0
M  END
> <s_m_source_file>
AV-unprocessed.smi

> <i_m_source_file_index>
2345

> <i_lp_mmshare_version>
43012

> <i_f3d_flags>
0

> <s_epik_input>
W0NIM11bQ0gyXVNbQ0BASF0xW0NIMl1bQ0gyXVtDSDJdW0NASF0xW05IXUMoPU8pW05IXWMyW2NIXVtjSF1uW2NIXWMyRg==

> <s_epik_cmdline>
J2VwaWtfcHl0aG9uJywgJy1waCcsICc3LjAnLCAnLXRuJywgJzgnLCAnLW1hJywgJzIwMCcsICctbWV0YWxfYmluZGluZycsICctaW1hZScsICc8aW5maWxlLm1hZT4nLCAnLW9tYWUnLCAnPG91dGZpbGUubWFlPic=

> <r_epik_Ionization_Penalty>
0.00333745

> <r_epik_Ionization_Penalty_Charging>
0

> <r_epik_Ionization_Penalty_Neutral>
0.00333745

> <r_epik_State_Penalty>
0.00233401

> <r_epik_Charging_Adjusted_Penalty>
0.00233401

> <i_epik_Tot_Q>
0

> <i_epik_Tot_abs_Q>
0

> <r_epik_Metal_State_Penalty>
-0

> <b_epik_Metal_Only>
0

> <s_lp_Force_Field>
OPLS_2005

> <r_lp_Energy>
24.8038

> <b_lp_Chiralities_Consistent>
1

> <s_lp_Variant>
AV-unprocessed.smi:2345-2

> <Gold.Version>
5.8.1

> <Gold.Id.Protein>
6NUR|6NUR_protein|mol2

> <Gold.PLP.Fitness>
43.6594

> <Gold.PLP.PLP>
-35.4177

> <Gold.PLP.part.hbond>
-3.7108

> <Gold.PLP.part.metal>
0.0000

> <Gold.PLP.part.buried>
-0.8546

> <Gold.PLP.part.nonpolar>
-31.0073

> <Gold.PLP.part.repulsive>
0.2945

> <Gold.PLP.ligand.clash>
0.0000

> <Gold.PLP.ligand.torsion>
0.3861

> <Gold.PLP.Chemscore.Hbond>
2.0000

> <Gold.PLP.Chemscore.CHOScore>
1.0000

> <Gold.PLP.Chemscore.Metal>
0.0000

> <Gold.Chemscore.Hbonds>
donor molecule, donor type, donor heavy atom, donor atom, acceptor molecule, acceptor atom, score
      L1  H     9    33       P1  7948  1.00
      L1  H    12    34       P1  7948  1.00
      L1  C    15    36       P1  8028  1.00

> <Gold.PLP.Chemscore.Internal.Correction>
0.0140

> <Gold.Rescore>
     Score         DG    S(hbond)    S(metal)    S(lipo)     H(rot)  DE(clash)    DE(int)     intcor
     16.31     -17.79       1.90        0.00      80.40       1.35       0.11       1.37       ----

> <Gold.Chemscore.Fitness>
16.3059

> <Gold.Chemscore.DG>
-17.7920

> <Gold.Chemscore.ZeroCoef>
-5.4800

> <Gold.Chemscore.Hbond>
1.9025

> <Gold.Chemscore.Metal>
0.0000

> <Gold.Chemscore.Lipo>
80.4048

> <Gold.Chemscore.Internal_Hbond>
0.0000

> <Gold.Chemscore.DEClash>
0.1129

> <Gold.Chemscore.DEInternal>
1.3731

> <Gold.Chemscore.Rot>
1.3475

> <Gold.Chemscore.Internal.Correction>
   9.000000E+99

> <Gold.Chemscore.Hbonds>
donor molecule, donor type, donor heavy atom, donor atom, acceptor molecule, acceptor atom, score
      L1  H     9    33       P1  7948  0.96
      L1  H    12    34       P1  7948  0.98

> <Gold.Chemscore.Hbond.Weighted>
-6.3543

> <Gold.Chemscore.Metal.Weighted>
-0.0000

> <Gold.Chemscore.Lipo.Weighted>
-9.4074

> <Gold.Chemscore.Internal_Hbond.Weighted>
0.0000

> <Gold.Chemscore.DEClash.Weighted>
0.1129

> <Gold.Chemscore.DEInternal.Weighted>
1.3731

> <Gold.Chemscore.Rot.Weighted>
3.4496

> <Gold.Chemscore.Internal.Correction.Weighted>
   9.000000E+99

> <Gold.Protein.RotatedTorsions>
[ 6907 6896 6895 6894 ] final  -94.35 input  -60.11 | X-H torsion
[ 7974 7965 7964 7962 ] final  -50.16 input  175.53 | X-H torsion
[ 8008 7997 7996 7995 ] final  149.12 input   59.86 | X-H torsion
[ 10167 10162 10161 10158 ] final  103.33 input  -65.29 | X-H torsion
[ 10718 10713 10712 10709 ] final  153.90 input   66.30 | X-H torsion
[ 10763 10752 10751 10750 ] final  101.49 input  -60.55 | X-H torsion
[ 11005 11000 10999 10996 ] final   16.22 input  -57.11 | X-H torsion

> <Gold.Protein.ActiveResidues>
 VAL166  LYS551  ARG553  GLY616  TRP617  ASP618  TYR619  PRO620  LYS621  CYS622 
 ASP623  PHE694  ASN695  SER759  ASP760  ASP761  ALA762  ILE779  LEU786  VAL792 
 PHE793  MET794  SER795  GLU796  ALA797  LYS798  CYS799  TRP800  GLU811  SER814 

> <Gold.Protein.RotatedAtoms>
  150.6940  134.1826  159.4253 H   0  0  0  0  0  0  0  0  0  0  0  0  # atno 6907 bound_to 6896
  151.9799  135.0031  160.0566 H   0  0  0  0  0  0  0  0  0  0  0  0  # atno 6908 bound_to 6896
  152.1764  133.4643  159.4972 H   0  0  0  0  0  0  0  0  0  0  0  0  # atno 6909 bound_to 6896
  145.9329  140.7733  142.9591 H   0  0  0  0  0  0  0  0  0  0  0  0  # atno 7974 bound_to 7965
  156.2766  140.2110  156.5807 H   0  0  0  0  0  0  0  0  0  0  0  0  # atno 8008 bound_to 7997
  154.7061  140.0516  157.0528 H   0  0  0  0  0  0  0  0  0  0  0  0  # atno 8009 bound_to 7997
  155.0669  140.3172  155.4646 H   0  0  0  0  0  0  0  0  0  0  0  0  # atno 8010 bound_to 7997
  139.7272  144.7044  151.0778 H   0  0  0  0  0  0  0  0  0  0  0  0  # atno 10167 bound_to 10162
  157.2386  131.0754  151.1807 H   0  0  0  0  0  0  0  0  0  0  0  0  # atno 10718 bound_to 10713
  153.3273  135.4043  155.1467 H   0  0  0  0  0  0  0  0  0  0  0  0  # atno 10763 bound_to 10752
  154.8615  135.3602  154.5517 H   0  0  0  0  0  0  0  0  0  0  0  0  # atno 10764 bound_to 10752
  153.5953  135.7072  153.5465 H   0  0  0  0  0  0  0  0  0  0  0  0  # atno 10765 bound_to 10752
  140.4495  134.1239  155.7700 H   0  0  0  0  0  0  0  0  0  0  0  0  # atno 11005 bound_to 11000
  144.6767  140.2156  143.7372 LP  0  0  0  0  0  0  0  0  0  0  0  0  # atno 17320 bound_to 7965
  145.8402  139.2126  143.1831 LP  0  0  0  0  0  0  0  0  0  0  0  0  # atno 17321 bound_to 7965
  140.7765  143.5089  150.9677 LP  0  0  0  0  0  0  0  0  0  0  0  0  # atno 17342 bound_to 10162
  139.8777  143.7112  152.3160 LP  0  0  0  0  0  0  0  0  0  0  0  0  # atno 17343 bound_to 10162
  157.3402  130.7029  149.6377 LP  0  0  0  0  0  0  0  0  0  0  0  0  # atno 17370 bound_to 10713
  155.9671  130.4282  150.4777 LP  0  0  0  0  0  0  0  0  0  0  0  0  # atno 17371 bound_to 10713
  141.1670  133.8683  157.1684 LP  0  0  0  0  0  0  0  0  0  0  0  0  # atno 17394 bound_to 11000
  140.0016  135.0025  157.0202 LP  0  0  0  0  0  0  0  0  0  0  0  0  # atno 17395 bound_to 11000

$$$$
