AV-unprocessed.smi:2144|AV-procd|sdf|8731|dock2
  -GOLD-   2272011503D 1   1.00000     0.00000
 Structure written by MMmdl.
 40 42  0  0  0  0  0  0  0  0  1 V2000
  150.4003  139.6995  154.6017 O   0  0  0  0  0  0  0  0  0  0  0  0
  149.7451  140.7508  155.2825 C   0  0  0  0  0  0  0  0  0  0  0  0
  150.5179  141.3002  156.4486 C   0  0  0  0  0  0  0  0  0  0  0  0
  151.0247  142.5354  156.4708 N   0  0  0  0  0  0  0  0  0  0  0  0
  151.6231  142.5994  157.7136 C   0  0  0  0  0  0  0  0  0  0  0  0
  152.3316  143.6507  158.3386 C   0  0  0  0  0  0  0  0  0  0  0  0
  152.8599  143.4834  159.6355 C   0  0  0  0  0  0  0  0  0  0  0  0
  152.6877  142.2653  160.3243 C   0  0  0  0  0  0  0  0  0  0  0  0
  151.9845  141.2055  159.7199 C   0  0  0  0  0  0  0  0  0  0  0  0
  151.4590  141.3776  158.4250 C   0  0  0  0  0  0  0  0  0  0  0  0
  150.7349  140.5581  157.5637 N   0  0  0  0  0  0  0  0  0  0  0  0
  150.3048  139.1913  157.8292 C   0  0  0  0  0  0  0  0  0  0  0  0
  149.0956  139.1173  158.7848 C   0  0  1  0  0  0  0  0  0  0  0  0
  147.9420  139.6329  158.1502 O   0  0  0  0  0  0  0  0  0  0  0  0
  148.7959  137.6825  159.2424 C   0  0  0  0  0  0  0  0  0  0  0  0
  148.0167  137.7309  160.4301 O   0  0  0  0  0  0  0  0  0  0  0  0
  147.5285  136.5471  160.9417 C   0  0  0  0  0  0  0  0  0  0  0  0
  147.5759  135.3056  160.2575 C   0  0  0  0  0  0  0  0  0  0  0  0
  147.0491  134.1426  160.8522 C   0  0  0  0  0  0  0  0  0  0  0  0
  146.4703  134.2037  162.1332 C   0  0  0  0  0  0  0  0  0  0  0  0
  146.4202  135.4306  162.8202 C   0  0  0  0  0  0  0  0  0  0  0  0
  146.9468  136.5942  162.2266 C   0  0  0  0  0  0  0  0  0  0  0  0
  146.8936  137.7691  162.8989 F   0  0  0  0  0  0  0  0  0  0  0  0
  149.8070  139.3415  153.9596 H   0  0  0  0  0  0  0  0  0  0  0  0
  149.5531  141.5555  154.5724 H   0  0  0  0  0  0  0  0  0  0  0  0
  148.7797  140.3831  155.6288 H   0  0  0  0  0  0  0  0  0  0  0  0
  152.4689  144.5874  157.8192 H   0  0  0  0  0  0  0  0  0  0  0  0
  153.3998  144.2933  160.1039 H   0  0  0  0  0  0  0  0  0  0  0  0
  153.0961  142.1451  161.3170 H   0  0  0  0  0  0  0  0  0  0  0  0
  151.8523  140.2714  160.2449 H   0  0  0  0  0  0  0  0  0  0  0  0
  150.0640  138.7135  156.8789 H   0  0  0  0  0  0  0  0  0  0  0  0
  151.1473  138.6326  158.2373 H   0  0  0  0  0  0  0  0  0  0  0  0
  149.2825  139.7334  159.6644 H   0  0  0  0  0  0  0  0  0  0  0  0
  147.2855  139.7998  158.8089 H   0  0  0  0  0  0  0  0  0  0  0  0
  148.2372  137.1606  158.4633 H   0  0  0  0  0  0  0  0  0  0  0  0
  149.7276  137.1402  159.4133 H   0  0  0  0  0  0  0  0  0  0  0  0
  148.0103  135.2179  159.2733 H   0  0  0  0  0  0  0  0  0  0  0  0
  147.0885  133.2018  160.3232 H   0  0  0  0  0  0  0  0  0  0  0  0
  146.0655  133.3115  162.5875 H   0  0  0  0  0  0  0  0  0  0  0  0
  145.9769  135.4795  163.8037 H   0  0  0  0  0  0  0  0  0  0  0  0
  1  2  1  0  0  0  0
  1 24  1  0  0  0  0
  2  3  1  0  0  0  0
  2 25  1  0  0  0  0
  2 26  1  0  0  0  0
  3 11  1  0  0  0  0
  3  4  2  0  0  0  0
  4  5  1  0  0  0  0
  5 10  2  0  0  0  0
  5  6  1  0  0  0  0
  6  7  2  0  0  0  0
  6 27  1  0  0  0  0
  7  8  1  0  0  0  0
  7 28  1  0  0  0  0
  8  9  2  0  0  0  0
  8 29  1  0  0  0  0
  9 10  1  0  0  0  0
  9 30  1  0  0  0  0
 10 11  1  0  0  0  0
 11 12  1  0  0  0  0
 12 13  1  0  0  0  0
 12 31  1  0  0  0  0
 12 32  1  0  0  0  0
 13 14  1  0  0  0  0
 13 15  1  0  0  0  0
 13 33  1  0  0  0  0
 14 34  1  0  0  0  0
 15 16  1  0  0  0  0
 15 35  1  0  0  0  0
 15 36  1  0  0  0  0
 16 17  1  0  0  0  0
 17 22  1  0  0  0  0
 17 18  2  0  0  0  0
 18 19  1  0  0  0  0
 18 37  1  0  0  0  0
 19 20  2  0  0  0  0
 19 38  1  0  0  0  0
 20 21  1  0  0  0  0
 20 39  1  0  0  0  0
 21 22  2  0  0  0  0
 21 40  1  0  0  0  0
 22 23  1  0  0  0  0
M  END
> <s_m_source_file>
AV-unprocessed.smi

> <i_m_source_file_index>
2144

> <i_lp_mmshare_version>
43012

> <i_f3d_flags>
0

> <s_epik_input>
W2NIXTFbY0hdW2NIXVtjSF1jKGMxMiluKGMobjIpW0NIMl1bT0hdKVtDSDJdW0NASF0oW09IXSlbQ0gyXU9jM1tjSF1bY0hdW2NIXVtjSF1jM0Y=

> <s_epik_cmdline>
J2VwaWtfcHl0aG9uJywgJy1waCcsICc3LjAnLCAnLXRuJywgJzgnLCAnLW1hJywgJzIwMCcsICctbWV0YWxfYmluZGluZycsICctaW1hZScsICc8aW5maWxlLm1hZT4nLCAnLW9tYWUnLCAnPG91dGZpbGUubWFlPic=

> <r_lp_tautomer_probability>
1

> <r_epik_Ionization_Penalty>
0.0547315

> <r_epik_Ionization_Penalty_Charging>
0

> <r_epik_Ionization_Penalty_Neutral>
0.0547315

> <r_epik_State_Penalty>
0.047032

> <r_epik_Charging_Adjusted_Penalty>
0.047032

> <i_epik_Tot_Q>
0

> <i_epik_Tot_abs_Q>
0

> <r_epik_Metal_State_Penalty>
4.89471e-05

> <b_epik_Metal_Only>
0

> <s_lp_Force_Field>
OPLS_2005

> <r_lp_Energy>
15.6378

> <b_lp_Chiralities_Consistent>
1

> <s_lp_Variant>
AV-unprocessed.smi:2144-2

> <Gold.Version>
5.8.1

> <Gold.Id.Protein>
6NUR|6NUR_protein|mol2

> <Gold.PLP.Fitness>
53.5576

> <Gold.PLP.PLP>
-49.3259

> <Gold.PLP.part.hbond>
-3.6041

> <Gold.PLP.part.metal>
0.0000

> <Gold.PLP.part.buried>
-2.6729

> <Gold.PLP.part.nonpolar>
-42.5838

> <Gold.PLP.part.repulsive>
0.3645

> <Gold.PLP.ligand.clash>
0.0000

> <Gold.PLP.ligand.torsion>
0.5821

> <Gold.PLP.Chemscore.Hbond>
1.7566

> <Gold.PLP.Chemscore.CHOScore>
0.0000

> <Gold.PLP.Chemscore.Metal>
0.0000

> <Gold.Chemscore.Hbonds>
donor molecule, donor type, donor heavy atom, donor atom, acceptor molecule, acceptor atom, score
      P1  H  6931  6943       L1    16  0.46
      P1  H  6934  6947       L1    16  0.59
      P1  H  7989  7998       L1     1  0.85

> <Gold.PLP.Chemscore.Internal.Correction>
0.1260

> <Gold.Rescore>
     Score         DG    S(hbond)    S(metal)    S(lipo)     H(rot)  DE(clash)    DE(int)     intcor
     13.24     -14.57       0.98        0.00     120.06       3.22       0.75       0.58       ----

> <Gold.Chemscore.Fitness>
13.2367

> <Gold.Chemscore.DG>
-14.5656

> <Gold.Chemscore.ZeroCoef>
-5.4800

> <Gold.Chemscore.Hbond>
0.9822

> <Gold.Chemscore.Metal>
0.0000

> <Gold.Chemscore.Lipo>
120.0621

> <Gold.Chemscore.Internal_Hbond>
0.0000

> <Gold.Chemscore.DEClash>
0.7464

> <Gold.Chemscore.DEInternal>
0.5825

> <Gold.Chemscore.Rot>
3.2196

> <Gold.Chemscore.Internal.Correction>
   9.000000E+99

> <Gold.Chemscore.Hbonds>
donor molecule, donor type, donor heavy atom, donor atom, acceptor molecule, acceptor atom, score
      P1  H  6931  6943       L1    16  0.08
      P1  H  6934  6947       L1    16  0.52
      P1  H  7989  7998       L1     1  0.05

> <Gold.Chemscore.Hbond.Weighted>
-3.2806

> <Gold.Chemscore.Metal.Weighted>
-0.0000

> <Gold.Chemscore.Lipo.Weighted>
-14.0473

> <Gold.Chemscore.Internal_Hbond.Weighted>
0.0000

> <Gold.Chemscore.DEClash.Weighted>
0.7464

> <Gold.Chemscore.DEInternal.Weighted>
0.5825

> <Gold.Chemscore.Rot.Weighted>
8.2422

> <Gold.Chemscore.Internal.Correction.Weighted>
   9.000000E+99

> <Gold.Protein.RotatedTorsions>
[ 6907 6896 6895 6894 ] final   -8.42 input  -60.11 | X-H torsion
[ 7974 7965 7964 7962 ] final    9.15 input  175.53 | X-H torsion
[ 8008 7997 7996 7995 ] final   42.83 input   59.86 | X-H torsion
[ 10167 10162 10161 10158 ] final   80.88 input  -65.29 | X-H torsion
[ 10718 10713 10712 10709 ] final  179.19 input   66.30 | X-H torsion
[ 10763 10752 10751 10750 ] final  100.73 input  -60.55 | X-H torsion
[ 11005 11000 10999 10996 ] final  161.67 input  -57.11 | X-H torsion

> <Gold.Protein.ActiveResidues>
 VAL166  LYS551  ARG553  GLY616  TRP617  ASP618  TYR619  PRO620  LYS621  CYS622 
 ASP623  PHE694  ASN695  SER759  ASP760  ASP761  ALA762  ILE779  LEU786  VAL792 
 PHE793  MET794  SER795  GLU796  ALA797  LYS798  CYS799  TRP800  GLU811  SER814 

> <Gold.Protein.RotatedAtoms>
  151.4339  135.1013  159.9650 H   0  0  0  0  0  0  0  0  0  0  0  0  # atno 6907 bound_to 6896
  152.4946  133.8591  159.7251 H   0  0  0  0  0  0  0  0  0  0  0  0  # atno 6908 bound_to 6896
  150.9135  133.6909  159.2876 H   0  0  0  0  0  0  0  0  0  0  0  0  # atno 6909 bound_to 6896
  146.2407  139.9826  142.8434 H   0  0  0  0  0  0  0  0  0  0  0  0  # atno 7974 bound_to 7965
  155.2926  140.3380  155.4251 H   0  0  0  0  0  0  0  0  0  0  0  0  # atno 8008 bound_to 7997
  156.2039  140.1743  156.7881 H   0  0  0  0  0  0  0  0  0  0  0  0  # atno 8009 bound_to 7997
  154.5595  140.0690  156.8780 H   0  0  0  0  0  0  0  0  0  0  0  0  # atno 8010 bound_to 7997
  139.9451  144.6063  150.8214 H   0  0  0  0  0  0  0  0  0  0  0  0  # atno 10167 bound_to 10162
  156.8795  130.9811  151.3063 H   0  0  0  0  0  0  0  0  0  0  0  0  # atno 10718 bound_to 10713
  153.3176  135.4069  155.1390 H   0  0  0  0  0  0  0  0  0  0  0  0  # atno 10763 bound_to 10752
  154.8592  135.3580  154.5639 H   0  0  0  0  0  0  0  0  0  0  0  0  # atno 10764 bound_to 10752
  153.6071  135.7069  153.5420 H   0  0  0  0  0  0  0  0  0  0  0  0  # atno 10765 bound_to 10752
  140.2181  134.8217  157.3192 H   0  0  0  0  0  0  0  0  0  0  0  0  # atno 11005 bound_to 11000
  145.1577  140.9656  143.4395 LP  0  0  0  0  0  0  0  0  0  0  0  0  # atno 17320 bound_to 7965
  145.0145  139.3480  143.6103 LP  0  0  0  0  0  0  0  0  0  0  0  0  # atno 17321 bound_to 7965
  140.7599  143.3140  151.2777 LP  0  0  0  0  0  0  0  0  0  0  0  0  # atno 17342 bound_to 10162
  139.6673  144.0083  152.2731 LP  0  0  0  0  0  0  0  0  0  0  0  0  # atno 17343 bound_to 10162
  157.6149  130.8610  149.9011 LP  0  0  0  0  0  0  0  0  0  0  0  0  # atno 17370 bound_to 10713
  156.0684  130.3688  150.0827 LP  0  0  0  0  0  0  0  0  0  0  0  0  # atno 17371 bound_to 10713
  140.1879  134.4409  155.7733 LP  0  0  0  0  0  0  0  0  0  0  0  0  # atno 17394 bound_to 11000
  141.2224  133.7013  156.7977 LP  0  0  0  0  0  0  0  0  0  0  0  0  # atno 17395 bound_to 11000

$$$$
