AV-unprocessed.smi:2895|AV-procd|sdf|11129|dock4
  -GOLD-   2272016 03D 1   1.00000     0.00000
 Structure written by MMmdl.
 53 56  0  0  0  0  0  0  0  0  2 V2000
  146.9122  138.6923  151.4135 O   0  0  0  0  0  0  0  0  0  0  0  0
  146.5462  138.8275  152.5823 C   0  0  0  0  0  0  0  0  0  0  0  0
  145.6404  138.0036  153.1392 N   0  0  0  0  0  0  0  0  0  0  0  0
  144.9905  136.8850  152.4659 C   0  0  0  0  0  0  0  0  0  0  0  0
  145.5359  135.5363  152.9602 C   0  0  0  0  0  0  0  0  0  0  0  0
  145.2002  134.4032  152.0105 C   0  0  0  0  0  0  0  0  0  0  0  0
  146.2051  133.5298  151.5465 C   0  0  0  0  0  0  0  0  0  0  0  0
  145.8382  132.4912  150.6673 C   0  0  0  0  0  0  0  0  0  0  0  0
  144.5710  132.2877  150.2467 N   0  0  0  0  0  0  0  0  0  0  0  0
  143.6139  133.1271  150.6973 C   0  0  0  0  0  0  0  0  0  0  0  0
  143.8742  134.1967  151.5773 C   0  0  0  0  0  0  0  0  0  0  0  0
  147.0355  139.7910  153.4091 N   0  0  0  0  0  0  0  0  0  0  0  0
  146.4781  140.0589  154.7559 C   0  0  0  0  0  0  0  0  0  0  0  0
  146.7853  141.4623  155.3056 C   0  0  0  0  0  0  0  0  0  0  0  0
  148.2099  141.8321  155.1439 N   0  3  0  0  0  0  0  0  0  0  0  0
  149.1804  141.0437  155.9677 C   0  0  1  0  0  0  0  0  0  0  0  0
  150.6354  141.5641  155.8243 C   0  0  0  0  0  0  0  0  0  0  0  0
  151.0812  141.7992  157.2767 C   0  0  2  0  0  0  0  0  0  0  0  0
  151.2271  140.4501  158.0013 C   0  0  0  0  0  0  0  0  0  0  0  0
  149.7642  140.0105  158.1859 C   0  0  0  0  0  0  0  0  0  0  0  0
  148.9743  141.1459  157.5050 C   0  0  1  0  0  0  0  0  0  0  0  0
  149.8076  142.3629  157.8907 C   0  0  0  0  0  0  0  0  0  0  0  0
  148.5248  141.8449  153.6959 C   0  0  0  0  0  0  0  0  0  0  0  0
  148.2872  140.4786  153.0241 C   0  0  0  0  0  0  0  0  0  0  0  0
  145.3883  138.1599  154.1043 H   0  0  0  0  0  0  0  0  0  0  0  0
  143.9092  136.9357  152.6062 H   0  0  0  0  0  0  0  0  0  0  0  0
  145.1683  136.9881  151.3951 H   0  0  0  0  0  0  0  0  0  0  0  0
  146.6192  135.5898  153.0767 H   0  0  0  0  0  0  0  0  0  0  0  0
  145.1321  135.3028  153.9464 H   0  0  0  0  0  0  0  0  0  0  0  0
  147.2332  133.6495  151.8553 H   0  0  0  0  0  0  0  0  0  0  0  0
  146.5829  131.8050  150.2918 H   0  0  0  0  0  0  0  0  0  0  0  0
  142.6096  132.9408  150.3463 H   0  0  0  0  0  0  0  0  0  0  0  0
  143.0732  134.8399  151.9109 H   0  0  0  0  0  0  0  0  0  0  0  0
  145.3927  139.9510  154.7701 H   0  0  0  0  0  0  0  0  0  0  0  0
  146.8699  139.3040  155.4390 H   0  0  0  0  0  0  0  0  0  0  0  0
  146.1861  142.1905  154.7569 H   0  0  0  0  0  0  0  0  0  0  0  0
  146.4491  141.5564  156.3357 H   0  0  0  0  0  0  0  0  0  0  0  0
  149.1271  139.9971  155.6662 H   0  0  0  0  0  0  0  0  0  0  0  0
  151.2796  140.8575  155.2995 H   0  0  0  0  0  0  0  0  0  0  0  0
  150.6796  142.5125  155.2873 H   0  0  0  0  0  0  0  0  0  0  0  0
  151.9583  142.4408  157.3655 H   0  0  0  0  0  0  0  0  0  0  0  0
  151.8096  139.7312  157.4237 H   0  0  0  0  0  0  0  0  0  0  0  0
  151.7144  140.5772  158.9690 H   0  0  0  0  0  0  0  0  0  0  0  0
  149.5620  139.0338  157.7447 H   0  0  0  0  0  0  0  0  0  0  0  0
  149.5161  139.9513  159.2464 H   0  0  0  0  0  0  0  0  0  0  0  0
  147.9440  141.1732  157.8519 H   0  0  0  0  0  0  0  0  0  0  0  0
  149.8786  142.5152  158.9691 H   0  0  0  0  0  0  0  0  0  0  0  0
  149.4697  143.2874  157.4197 H   0  0  0  0  0  0  0  0  0  0  0  0
  147.8868  142.5898  153.2179 H   0  0  0  0  0  0  0  0  0  0  0  0
  149.5447  142.1793  153.5092 H   0  0  0  0  0  0  0  0  0  0  0  0
  149.1157  139.8104  153.2629 H   0  0  0  0  0  0  0  0  0  0  0  0
  148.3343  140.6376  151.9453 H   0  0  0  0  0  0  0  0  0  0  0  0
  148.2924  142.7866  155.4640 H   0  0  0  0  0  0  0  0  0  0  0  0
  1  2  2  0  0  0  0
  2  3  1  0  0  0  0
  2 12  1  0  0  0  0
  3  4  1  0  0  0  0
  3 25  1  0  0  0  0
  4  5  1  0  0  0  0
  4 26  1  0  0  0  0
  4 27  1  0  0  0  0
  5  6  1  0  0  0  0
  5 28  1  0  0  0  0
  5 29  1  0  0  0  0
  6 11  1  0  0  0  0
  6  7  2  0  0  0  0
  7  8  1  0  0  0  0
  7 30  1  0  0  0  0
  8  9  2  0  0  0  0
  8 31  1  0  0  0  0
  9 10  1  0  0  0  0
 10 11  2  0  0  0  0
 10 32  1  0  0  0  0
 11 33  1  0  0  0  0
 12 24  1  0  0  0  0
 12 13  1  0  0  0  0
 13 14  1  0  0  0  0
 13 34  1  0  0  0  0
 13 35  1  0  0  0  0
 14 15  1  0  0  0  0
 14 36  1  0  0  0  0
 14 37  1  0  0  0  0
 15 16  1  0  0  0  0
 15 23  1  0  0  0  0
 15 53  1  0  0  0  0
 16 21  1  0  0  0  0
 16 17  1  0  0  0  0
 16 38  1  0  0  0  0
 17 18  1  0  0  0  0
 17 39  1  0  0  0  0
 17 40  1  0  0  0  0
 18 22  1  0  0  0  0
 18 19  1  0  0  0  0
 18 41  1  0  0  0  0
 19 20  1  0  0  0  0
 19 42  1  0  0  0  0
 19 43  1  0  0  0  0
 20 21  1  0  0  0  0
 20 44  1  0  0  0  0
 20 45  1  0  0  0  0
 21 22  1  0  0  0  0
 21 46  1  0  0  0  0
 22 47  1  0  0  0  0
 22 48  1  0  0  0  0
 23 24  1  0  0  0  0
 23 49  1  0  0  0  0
 23 50  1  0  0  0  0
 24 51  1  0  0  0  0
 24 52  1  0  0  0  0
M  CHG  1  15   1
M  END
> <s_m_source_file>
AV-unprocessed.smi

> <i_m_source_file_index>
2895

> <i_lp_mmshare_version>
43012

> <i_f3d_flags>
0

> <s_epik_input>
W0NIMl0xW0NIMl1bQ0BASF0oW0NIMl0yKVtDQEBIXShbQ0gyXVtDQEhdMTIpTihbQ0gyXVtDSDJdMylbQ0gyXVtDSDJdTjNDKD1PKVtOSF1bQ0gyXVtDSDJdYzRbY0hdW2NIXW5bY0hdW2NIXTQ=

> <s_epik_cmdline>
J2VwaWtfcHl0aG9uJywgJy1waCcsICc3LjAnLCAnLXRuJywgJzgnLCAnLW1hJywgJzIwMCcsICctbWV0YWxfYmluZGluZycsICctaW1hZScsICc8aW5maWxlLm1hZT4nLCAnLW9tYWUnLCAnPG91dGZpbGUubWFlPic=

> <r_epik_Ionization_Penalty>
0.0566172

> <r_epik_Ionization_Penalty_Charging>
0.00262064

> <r_epik_Ionization_Penalty_Neutral>
0.0539965

> <r_epik_State_Penalty>
0.0463959

> <r_epik_Charging_Adjusted_Penalty>
0.0490165

> <i_epik_Tot_Q>
1

> <i_epik_Tot_abs_Q>
1

> <r_epik_Metal_State_Penalty>
0.0424856

> <b_epik_Metal_Only>
0

> <s_lp_Force_Field>
OPLS_2005

> <r_lp_Energy>
101.263

> <b_lp_Chiralities_Consistent>
1

> <s_lp_Variant>
AV-unprocessed.smi:2895-2

> <Gold.Version>
5.8.1

> <Gold.Id.Protein>
6NUR|6NUR_protein|mol2

> <Gold.PLP.Fitness>
48.4116

> <Gold.PLP.PLP>
-34.4653

> <Gold.PLP.part.hbond>
-2.1523

> <Gold.PLP.part.metal>
0.0000

> <Gold.PLP.part.buried>
0.1308

> <Gold.PLP.part.nonpolar>
-34.8363

> <Gold.PLP.part.repulsive>
2.6515

> <Gold.PLP.ligand.clash>
0.1520

> <Gold.PLP.ligand.torsion>
0.3121

> <Gold.PLP.Chemscore.Hbond>
2.8580

> <Gold.PLP.Chemscore.CHOScore>
2.0000

> <Gold.PLP.Chemscore.Metal>
0.0000

> <Gold.Chemscore.Hbonds>
donor molecule, donor type, donor heavy atom, donor atom, acceptor molecule, acceptor atom, score
      L1  H    15    53       P1  8028  2.00
      P1  H  7954  7966       L1     1  0.75
      L1  C     8    31       P1 10747  0.91
      L1  C    10    32       P1 10186  1.00

> <Gold.PLP.Chemscore.Internal.Correction>
0.1485

> <Gold.Rescore>
     Score         DG    S(hbond)    S(metal)    S(lipo)     H(rot)  DE(clash)    DE(int)     intcor
     14.62     -19.61       1.72        0.00     101.58       1.37       4.73       0.26       ----

> <Gold.Chemscore.Fitness>
14.6186

> <Gold.Chemscore.DG>
-19.6068

> <Gold.Chemscore.ZeroCoef>
-5.4800

> <Gold.Chemscore.Hbond>
1.7236

> <Gold.Chemscore.Metal>
0.0000

> <Gold.Chemscore.Lipo>
101.5831

> <Gold.Chemscore.Internal_Hbond>
0.0000

> <Gold.Chemscore.DEClash>
4.7303

> <Gold.Chemscore.DEInternal>
0.2579

> <Gold.Chemscore.Rot>
1.3731

> <Gold.Chemscore.Internal.Correction>
   9.000000E+99

> <Gold.Chemscore.Hbonds>
donor molecule, donor type, donor heavy atom, donor atom, acceptor molecule, acceptor atom, score
      L1  H    15    53       P1  8028  0.93
      P1  H  7954  7966       L1     1  0.72

> <Gold.Chemscore.Hbond.Weighted>
-5.7568

> <Gold.Chemscore.Metal.Weighted>
-0.0000

> <Gold.Chemscore.Lipo.Weighted>
-11.8852

> <Gold.Chemscore.Internal_Hbond.Weighted>
0.0000

> <Gold.Chemscore.DEClash.Weighted>
4.7303

> <Gold.Chemscore.DEInternal.Weighted>
0.2579

> <Gold.Chemscore.Rot.Weighted>
3.5152

> <Gold.Chemscore.Internal.Correction.Weighted>
   9.000000E+99

> <Gold.Protein.RotatedTorsions>
[ 6907 6896 6895 6894 ] final   43.31 input  -60.11 | X-H torsion
[ 7974 7965 7964 7962 ] final  106.51 input  175.53 | X-H torsion
[ 8008 7997 7996 7995 ] final  132.04 input   59.86 | X-H torsion
[ 10167 10162 10161 10158 ] final  -97.39 input  -65.29 | X-H torsion
[ 10718 10713 10712 10709 ] final  -71.63 input   66.30 | X-H torsion
[ 10763 10752 10751 10750 ] final  125.48 input  -60.55 | X-H torsion
[ 11005 11000 10999 10996 ] final   13.51 input  -57.11 | X-H torsion

> <Gold.Protein.ActiveResidues>
 VAL166  LYS551  ARG553  GLY616  TRP617  ASP618  TYR619  PRO620  LYS621  CYS622 
 ASP623  PHE694  ASN695  SER759  ASP760  ASP761  ALA762  ILE779  LEU786  VAL792 
 PHE793  MET794  SER795  GLU796  ALA797  LYS798  CYS799  TRP800  GLU811  SER814 

> <Gold.Protein.RotatedAtoms>
  152.2187  134.8433  160.0488 H   0  0  0  0  0  0  0  0  0  0  0  0  # atno 6907 bound_to 6896
  151.9225  133.3584  159.3910 H   0  0  0  0  0  0  0  0  0  0  0  0  # atno 6908 bound_to 6896
  150.6994  134.4545  159.5396 H   0  0  0  0  0  0  0  0  0  0  0  0  # atno 6909 bound_to 6896
  145.3057  139.2555  143.3790 H   0  0  0  0  0  0  0  0  0  0  0  0  # atno 7974 bound_to 7965
  156.2978  140.2556  156.3024 H   0  0  0  0  0  0  0  0  0  0  0  0  # atno 8008 bound_to 7997
  154.9404  140.0396  157.2113 H   0  0  0  0  0  0  0  0  0  0  0  0  # atno 8009 bound_to 7997
  154.8132  140.2847  155.5843 H   0  0  0  0  0  0  0  0  0  0  0  0  # atno 8010 bound_to 7997
  140.2839  143.3264  152.0414 H   0  0  0  0  0  0  0  0  0  0  0  0  # atno 10167 bound_to 10162
  156.0354  130.4355  150.2473 H   0  0  0  0  0  0  0  0  0  0  0  0  # atno 10718 bound_to 10713
  153.6779  135.3319  155.3170 H   0  0  0  0  0  0  0  0  0  0  0  0  # atno 10763 bound_to 10752
  154.8473  135.4402  154.1636 H   0  0  0  0  0  0  0  0  0  0  0  0  # atno 10764 bound_to 10752
  153.2645  135.6994  153.7620 H   0  0  0  0  0  0  0  0  0  0  0  0  # atno 10765 bound_to 10752
  140.4800  134.0945  155.7749 H   0  0  0  0  0  0  0  0  0  0  0  0  # atno 11005 bound_to 11000
  146.3136  140.3581  142.8662 LP  0  0  0  0  0  0  0  0  0  0  0  0  # atno 17320 bound_to 7965
  144.9057  140.7697  143.5839 LP  0  0  0  0  0  0  0  0  0  0  0  0  # atno 17321 bound_to 7965
  139.4955  144.6572  151.6545 LP  0  0  0  0  0  0  0  0  0  0  0  0  # atno 17342 bound_to 10162
  140.5789  143.9981  150.6257 LP  0  0  0  0  0  0  0  0  0  0  0  0  # atno 17343 bound_to 10162
  157.0572  131.0079  151.3234 LP  0  0  0  0  0  0  0  0  0  0  0  0  # atno 17370 bound_to 10713
  157.5097  130.7931  149.7691 LP  0  0  0  0  0  0  0  0  0  0  0  0  # atno 17371 bound_to 10713
  141.1536  133.8924  157.2035 LP  0  0  0  0  0  0  0  0  0  0  0  0  # atno 17394 bound_to 11000
  139.9832  135.0091  156.9801 LP  0  0  0  0  0  0  0  0  0  0  0  0  # atno 17395 bound_to 11000

$$$$
