AV-unprocessed.smi:21|AV-procd|sdf|133|dock7
  -GOLD-   2262015323D 1   1.00000     0.00000
 Structure written by MMmdl.
 62 65  0  0  0  0  0  0  0  0  2 V2000
  145.2036  132.0360  149.5282 C   0  0  0  0  0  0  0  0  0  0  0  0
  146.0949  132.0553  150.6314 O   0  0  0  0  0  0  0  0  0  0  0  0
  145.7296  132.9910  151.6344 C   0  0  1  0  0  0  0  0  0  0  0  0
  146.6392  132.8580  152.8480 C   0  0  0  0  0  0  0  0  0  0  0  0
  146.4914  134.2198  153.5303 C   0  0  1  0  0  0  0  0  0  0  0  0
  147.6711  134.5740  154.4633 C   0  0  0  0  0  0  0  0  0  0  0  0
  147.4562  135.7895  155.2477 N   0  0  0  0  0  0  0  0  0  0  0  0
  146.3327  135.7871  156.1731 C   0  0  0  0  0  0  0  0  0  0  0  0
  148.5400  136.4204  155.7575 C   0  0  0  0  0  0  0  0  0  0  0  0
  149.7449  135.8317  155.5554 N   0  0  0  0  0  0  0  0  0  0  0  0
  150.8528  136.3776  156.0652 C   0  0  0  0  0  0  0  0  0  0  0  0
  150.9754  137.4870  156.7970 N   0  0  0  0  0  0  0  0  0  0  0  0
  149.7682  138.0915  156.9872 C   0  0  0  0  0  0  0  0  0  0  0  0
  148.5104  137.6361  156.5006 C   0  0  0  0  0  0  0  0  0  0  0  0
  147.5071  138.5159  156.8929 N   0  0  0  0  0  0  0  0  0  0  0  0
  148.1327  139.4293  157.5834 C   0  0  0  0  0  0  0  0  0  0  0  0
  149.4900  139.2407  157.7059 N   0  0  0  0  0  0  0  0  0  0  0  0
  150.4159  140.0821  158.4420 C   0  0  0  0  0  0  0  0  0  0  0  0
  151.5329  140.7018  157.5595 C   0  0  1  0  0  0  0  0  0  0  0  0
  150.9817  141.3168  156.2463 C   0  0  0  0  0  0  0  0  0  0  0  0
  150.7608  140.3365  155.2523 O   0  0  0  0  0  0  0  0  0  0  0  0
  152.3388  141.7521  158.3678 C   0  0  1  0  0  0  0  0  0  0  0  0
  151.5188  142.9113  158.9106 C   0  0  0  0  0  0  0  0  0  0  0  0
  152.4278  143.4656  159.9993 C   0  0  0  0  0  0  0  0  0  0  0  0
  153.0685  142.3279  160.5601 O   0  0  0  0  0  0  0  0  0  0  0  0
  152.9718  141.2240  159.6640 C   0  0  0  0  0  0  0  0  0  0  0  0
  146.3592  135.1927  152.4212 N   0  3  2  0  0  0  0  0  0  0  0  0
  145.5023  136.3562  152.7392 C   0  0  0  0  0  0  0  0  0  0  0  0
  145.9379  134.4509  151.2086 C   0  0  0  0  0  0  0  0  0  0  0  0
  144.6970  132.8358  151.9546 H   0  0  0  0  0  0  0  0  0  0  0  0
  145.5475  134.2169  154.0774 H   0  0  0  0  0  0  0  0  0  0  0  0
  145.5356  131.2911  148.8052 H   0  0  0  0  0  0  0  0  0  0  0  0
  145.1700  133.0015  149.0220 H   0  0  0  0  0  0  0  0  0  0  0  0
  144.1934  131.7701  149.8423 H   0  0  0  0  0  0  0  0  0  0  0  0
  146.3611  132.0258  153.4955 H   0  0  0  0  0  0  0  0  0  0  0  0
  147.6710  132.7052  152.5268 H   0  0  0  0  0  0  0  0  0  0  0  0
  147.8411  133.7463  155.1530 H   0  0  0  0  0  0  0  0  0  0  0  0
  148.5939  134.6748  153.8927 H   0  0  0  0  0  0  0  0  0  0  0  0
  146.0859  136.7997  156.4949 H   0  0  0  0  0  0  0  0  0  0  0  0
  146.5644  135.1915  157.0570 H   0  0  0  0  0  0  0  0  0  0  0  0
  145.4466  135.3638  155.6993 H   0  0  0  0  0  0  0  0  0  0  0  0
  151.7711  135.8453  155.8645 H   0  0  0  0  0  0  0  0  0  0  0  0
  147.6174  140.2625  158.0392 H   0  0  0  0  0  0  0  0  0  0  0  0
  149.8508  140.8711  158.9396 H   0  0  0  0  0  0  0  0  0  0  0  0
  150.8458  139.4679  159.2331 H   0  0  0  0  0  0  0  0  0  0  0  0
  152.2276  139.9052  157.2881 H   0  0  0  0  0  0  0  0  0  0  0  0
  150.0570  141.8638  156.4329 H   0  0  0  0  0  0  0  0  0  0  0  0
  151.6844  142.0300  155.8178 H   0  0  0  0  0  0  0  0  0  0  0  0
  151.0156  139.4973  155.6041 H   0  0  0  0  0  0  0  0  0  0  0  0
  153.1309  142.1618  157.7384 H   0  0  0  0  0  0  0  0  0  0  0  0
  151.2770  143.6601  158.1559 H   0  0  0  0  0  0  0  0  0  0  0  0
  150.5870  142.5503  159.3490 H   0  0  0  0  0  0  0  0  0  0  0  0
  153.1868  144.1181  159.5660 H   0  0  0  0  0  0  0  0  0  0  0  0
  151.8826  144.0321  160.7547 H   0  0  0  0  0  0  0  0  0  0  0  0
  152.3391  140.4661  160.1278 H   0  0  0  0  0  0  0  0  0  0  0  0
  153.9541  140.7824  159.4939 H   0  0  0  0  0  0  0  0  0  0  0  0
  144.4754  136.0469  152.9387 H   0  0  0  0  0  0  0  0  0  0  0  0
  145.4924  137.0602  151.9067 H   0  0  0  0  0  0  0  0  0  0  0  0
  145.8775  136.8817  153.6176 H   0  0  0  0  0  0  0  0  0  0  0  0
  146.7463  134.5235  150.4803 H   0  0  0  0  0  0  0  0  0  0  0  0
  145.0412  134.8653  150.7452 H   0  0  0  0  0  0  0  0  0  0  0  0
  147.2863  135.5446  152.2283 H   0  0  0  0  0  0  0  0  0  0  0  0
  1  2  1  0  0  0  0
  1 32  1  0  0  0  0
  1 33  1  0  0  0  0
  1 34  1  0  0  0  0
  2  3  1  0  0  0  0
  3 30  1  0  0  0  0
  3 29  1  0  0  0  0
  3  4  1  0  0  0  0
  4  5  1  0  0  0  0
  4 35  1  0  0  0  0
  4 36  1  0  0  0  0
  5 31  1  0  0  0  0
  5  6  1  0  0  0  0
  5 27  1  0  0  0  0
  6  7  1  0  0  0  0
  6 37  1  0  0  0  0
  6 38  1  0  0  0  0
  7  8  1  0  0  0  0
  7  9  1  0  0  0  0
  8 39  1  0  0  0  0
  8 40  1  0  0  0  0
  8 41  1  0  0  0  0
  9 14  1  0  0  0  0
  9 10  2  0  0  0  0
 10 11  1  0  0  0  0
 11 12  2  0  0  0  0
 11 42  1  0  0  0  0
 12 13  1  0  0  0  0
 13 17  1  0  0  0  0
 13 14  2  0  0  0  0
 14 15  1  0  0  0  0
 15 16  2  0  0  0  0
 16 17  1  0  0  0  0
 16 43  1  0  0  0  0
 17 18  1  0  0  0  0
 18 19  1  0  0  0  0
 18 44  1  0  0  0  0
 18 45  1  0  0  0  0
 19 20  1  0  0  0  0
 19 22  1  0  0  0  0
 19 46  1  0  0  0  0
 20 21  1  0  0  0  0
 20 47  1  0  0  0  0
 20 48  1  0  0  0  0
 21 49  1  0  0  0  0
 22 26  1  0  0  0  0
 22 23  1  0  0  0  0
 22 50  1  0  0  0  0
 23 24  1  0  0  0  0
 23 51  1  0  0  0  0
 23 52  1  0  0  0  0
 24 25  1  0  0  0  0
 24 53  1  0  0  0  0
 24 54  1  0  0  0  0
 25 26  1  0  0  0  0
 26 55  1  0  0  0  0
 26 56  1  0  0  0  0
 27 28  1  0  0  0  0
 27 29  1  0  0  0  0
 27 62  1  0  0  0  0
 28 57  1  0  0  0  0
 28 58  1  0  0  0  0
 28 59  1  0  0  0  0
 29 60  1  0  0  0  0
 29 61  1  0  0  0  0
M  CHG  1  27   1
M  END
> <s_m_source_file>
AV-unprocessed.smi

> <i_m_source_file_index>
21

> <i_lp_mmshare_version>
43012

> <i_f3d_flags>
0

> <s_epik_input>
W0NIM11PW0NASF0xW0NIMl1bQ0BIXShOKFtDSDNdKVtDSDJdMSlbQ0gyXU4oW0NIM10pYyhuW2NIXW4yKWMoYzIzKW5bY0hdbjNbQ0gyXVtDQEhdKFtDSDJdW09IXSlbQ0BASF00W0NIMl1bQ0gyXU9bQ0gyXTQ=

> <s_epik_cmdline>
J2VwaWtfcHl0aG9uJywgJy1waCcsICc3LjAnLCAnLXRuJywgJzgnLCAnLW1hJywgJzIwMCcsICctbWV0YWxfYmluZGluZycsICctaW1hZScsICc8aW5maWxlLm1hZT4nLCAnLW9tYWUnLCAnPG91dGZpbGUubWFlPic=

> <r_lp_tautomer_probability>
1

> <r_epik_Ionization_Penalty>
0.0157465

> <r_epik_Ionization_Penalty_Charging>
0.015354

> <r_epik_Ionization_Penalty_Neutral>
0.000392529

> <r_epik_State_Penalty>
0.0120612

> <r_epik_Charging_Adjusted_Penalty>
0.0274152

> <i_epik_Tot_Q>
1

> <i_epik_Tot_abs_Q>
1

> <r_epik_Metal_State_Penalty>
0.0121253

> <b_epik_Metal_Only>
0

> <s_lp_Force_Field>
OPLS_2005

> <r_lp_Energy>
58.1484

> <b_lp_Chiralities_Consistent>
1

> <s_lp_Variant>
AV-unprocessed.smi:21-13

> <Gold.Version>
5.8.1

> <Gold.Id.Protein>
6NUR|6NUR_protein|mol2

> <Gold.PLP.Fitness>
44.0277

> <Gold.PLP.PLP>
-35.8305

> <Gold.PLP.part.hbond>
-2.0000

> <Gold.PLP.part.metal>
0.0000

> <Gold.PLP.part.buried>
-7.7662

> <Gold.PLP.part.nonpolar>
-26.1333

> <Gold.PLP.part.repulsive>
0.7580

> <Gold.PLP.ligand.clash>
0.0000

> <Gold.PLP.ligand.torsion>
0.7495

> <Gold.PLP.Chemscore.Hbond>
3.0000

> <Gold.PLP.Chemscore.CHOScore>
0.0000

> <Gold.PLP.Chemscore.Metal>
0.0000

> <Gold.Chemscore.Hbonds>
donor molecule, donor type, donor heavy atom, donor atom, acceptor molecule, acceptor atom, score
      L1  H    27    62       P1  7948  2.00
      P1  H  7989  7998       L1    21  1.00

> <Gold.PLP.Chemscore.Internal.Correction>
0.6962

> <Gold.Rescore>
     Score         DG    S(hbond)    S(metal)    S(lipo)     H(rot)  DE(clash)    DE(int)     intcor
     13.61     -14.49       1.90        0.00      95.86       3.35       0.02       0.85       ----

> <Gold.Chemscore.Fitness>
13.6127

> <Gold.Chemscore.DG>
-14.4897

> <Gold.Chemscore.ZeroCoef>
-5.4800

> <Gold.Chemscore.Hbond>
1.9036

> <Gold.Chemscore.Metal>
0.0000

> <Gold.Chemscore.Lipo>
95.8572

> <Gold.Chemscore.Internal_Hbond>
0.0000

> <Gold.Chemscore.DEClash>
0.0239

> <Gold.Chemscore.DEInternal>
0.8532

> <Gold.Chemscore.Rot>
3.3452

> <Gold.Chemscore.Internal.Correction>
   9.000000E+99

> <Gold.Chemscore.Hbonds>
donor molecule, donor type, donor heavy atom, donor atom, acceptor molecule, acceptor atom, score
      L1  H    27    62       P1  7948  1.00
      P1  H  7989  7998       L1    21  0.66

> <Gold.Chemscore.Hbond.Weighted>
-6.3581

> <Gold.Chemscore.Metal.Weighted>
-0.0000

> <Gold.Chemscore.Lipo.Weighted>
-11.2153

> <Gold.Chemscore.Internal_Hbond.Weighted>
0.0000

> <Gold.Chemscore.DEClash.Weighted>
0.0239

> <Gold.Chemscore.DEInternal.Weighted>
0.8532

> <Gold.Chemscore.Rot.Weighted>
8.5636

> <Gold.Chemscore.Internal.Correction.Weighted>
   9.000000E+99

> <Gold.Protein.RotatedTorsions>
[ 6907 6896 6895 6894 ] final   74.30 input  -60.11 | X-H torsion
[ 7974 7965 7964 7962 ] final   31.09 input  175.53 | X-H torsion
[ 8008 7997 7996 7995 ] final   88.53 input   59.86 | X-H torsion
[ 10167 10162 10161 10158 ] final   57.72 input  -65.29 | X-H torsion
[ 10718 10713 10712 10709 ] final  156.93 input   66.30 | X-H torsion
[ 10763 10752 10751 10750 ] final  166.22 input  -60.55 | X-H torsion
[ 11005 11000 10999 10996 ] final -137.80 input  -57.11 | X-H torsion

> <Gold.Protein.ActiveResidues>
 VAL166  LYS551  ARG553  GLY616  TRP617  ASP618  TYR619  PRO620  LYS621  CYS622 
 ASP623  PHE694  ASN695  SER759  ASP760  ASP761  ALA762  ILE779  LEU786  VAL792 
 PHE793  MET794  SER795  GLU796  ALA797  LYS798  CYS799  TRP800  GLU811  SER814 

> <Gold.Protein.RotatedAtoms>
  152.4968  134.4292  159.9506 H   0  0  0  0  0  0  0  0  0  0  0  0  # atno 6907 bound_to 6896
  151.4270  133.3675  159.2771 H   0  0  0  0  0  0  0  0  0  0  0  0  # atno 6908 bound_to 6896
  150.9182  134.8622  159.7531 H   0  0  0  0  0  0  0  0  0  0  0  0  # atno 6909 bound_to 6896
  146.1571  139.6702  142.9059 H   0  0  0  0  0  0  0  0  0  0  0  0  # atno 7974 bound_to 7965
  155.9889  140.3370  155.6734 H   0  0  0  0  0  0  0  0  0  0  0  0  # atno 8008 bound_to 7997
  155.6447  140.0699  157.2625 H   0  0  0  0  0  0  0  0  0  0  0  0  # atno 8009 bound_to 7997
  154.4213  140.1736  156.1598 H   0  0  0  0  0  0  0  0  0  0  0  0  # atno 8010 bound_to 7997
  140.1949  144.4048  150.6554 H   0  0  0  0  0  0  0  0  0  0  0  0  # atno 10167 bound_to 10162
  157.1983  131.0670  151.2040 H   0  0  0  0  0  0  0  0  0  0  0  0  # atno 10718 bound_to 10713
  154.3358  135.2754  155.2448 H   0  0  0  0  0  0  0  0  0  0  0  0  # atno 10763 bound_to 10752
  154.4740  135.5875  153.6345 H   0  0  0  0  0  0  0  0  0  0  0  0  # atno 10764 bound_to 10752
  152.9862  135.6095  154.3554 H   0  0  0  0  0  0  0  0  0  0  0  0  # atno 10765 bound_to 10752
  140.8676  134.2090  157.4670 H   0  0  0  0  0  0  0  0  0  0  0  0  # atno 11005 bound_to 11000
  145.4680  141.0435  143.2714 LP  0  0  0  0  0  0  0  0  0  0  0  0  # atno 17320 bound_to 7965
  144.7978  139.6200  143.7085 LP  0  0  0  0  0  0  0  0  0  0  0  0  # atno 17321 bound_to 7965
  140.6430  143.2207  151.6248 LP  0  0  0  0  0  0  0  0  0  0  0  0  # atno 17342 bound_to 10162
  139.5241  144.3115  152.0989 LP  0  0  0  0  0  0  0  0  0  0  0  0  # atno 17343 bound_to 10162
  157.3793  130.7222  149.6619 LP  0  0  0  0  0  0  0  0  0  0  0  0  # atno 17370 bound_to 10713
  155.9703  130.4177  150.4292 LP  0  0  0  0  0  0  0  0  0  0  0  0  # atno 17371 bound_to 10713
  139.8710  134.9759  156.4901 LP  0  0  0  0  0  0  0  0  0  0  0  0  # atno 17394 bound_to 11000
  140.8610  133.8060  155.9265 LP  0  0  0  0  0  0  0  0  0  0  0  0  # atno 17395 bound_to 11000

$$$$
