AV-unprocessed.smi:895|AV-procd|sdf|4074|dock10
  -GOLD-   22720 1563D 1   1.00000     0.00000
 Structure written by MMmdl.
 44 45  0  0  0  0  0  0  0  0  1 V2000
  147.3033  131.3168  153.8611 C   0  0  0  0  0  0  0  0  0  0  0  0
  148.0562  132.6337  153.5897 C   0  0  0  0  0  0  0  0  0  0  0  0
  149.5015  132.5415  154.1068 C   0  0  0  0  0  0  0  0  0  0  0  0
  148.1463  132.8136  152.1898 O   0  0  0  0  0  0  0  0  0  0  0  0
  147.3564  133.8760  154.1861 C   0  0  0  0  0  0  0  0  0  0  0  0
  148.1246  135.0984  153.9829 N   0  0  0  0  0  0  0  0  0  0  0  0
  148.8240  135.7201  154.9396 C   0  0  0  0  0  0  0  0  0  0  0  0
  148.8982  135.3278  156.1041 O   0  0  0  0  0  0  0  0  0  0  0  0
  149.4306  136.8194  154.4728 N   0  0  0  0  0  0  0  0  0  0  0  0
  150.2721  137.7252  155.2531 C   0  0  1  0  0  0  0  0  0  0  0  0
  151.4943  138.1840  154.4291 C   0  0  0  0  0  0  0  0  0  0  0  0
  152.3725  139.1587  155.2286 C   0  0  0  0  0  0  0  0  0  0  0  0
  151.5677  140.3697  155.7242 C   0  0  0  0  0  0  0  0  0  0  0  0
  150.3395  139.9319  156.5440 C   0  0  0  0  0  0  0  0  0  0  0  0
  149.4374  138.9077  155.8161 C   0  0  1  0  0  0  0  0  0  0  0  0
  148.5489  139.5343  154.8343 N   0  0  0  0  0  0  0  0  0  0  0  0
  148.6469  140.8093  154.3132 C   0  0  0  0  0  0  0  0  0  0  0  0
  147.6083  140.9847  153.4447 C   0  0  0  0  0  0  0  0  0  0  0  0
  146.9144  139.7453  153.4975 C   0  0  0  0  0  0  0  0  0  0  0  0
  147.4770  138.8837  154.3277 N   0  0  0  0  0  0  0  0  0  0  0  0
  147.1739  131.1530  154.9313 H   0  0  0  0  0  0  0  0  0  0  0  0
  147.8488  130.4612  153.4615 H   0  0  0  0  0  0  0  0  0  0  0  0
  146.3141  131.3081  153.4023 H   0  0  0  0  0  0  0  0  0  0  0  0
  149.5237  132.3919  155.1868 H   0  0  0  0  0  0  0  0  0  0  0  0
  150.0619  133.4518  153.8902 H   0  0  0  0  0  0  0  0  0  0  0  0
  150.0369  131.7081  153.6500 H   0  0  0  0  0  0  0  0  0  0  0  0
  148.5545  132.0485  151.8142 H   0  0  0  0  0  0  0  0  0  0  0  0
  146.3853  134.0091  153.7062 H   0  0  0  0  0  0  0  0  0  0  0  0
  147.1606  133.7340  155.2506 H   0  0  0  0  0  0  0  0  0  0  0  0
  148.1250  135.4892  153.0523 H   0  0  0  0  0  0  0  0  0  0  0  0
  149.3093  137.0481  153.4970 H   0  0  0  0  0  0  0  0  0  0  0  0
  150.6541  137.1775  156.1171 H   0  0  0  0  0  0  0  0  0  0  0  0
  152.0920  137.3188  154.1402 H   0  0  0  0  0  0  0  0  0  0  0  0
  151.1780  138.6524  153.4974 H   0  0  0  0  0  0  0  0  0  0  0  0
  152.8077  138.6381  156.0824 H   0  0  0  0  0  0  0  0  0  0  0  0
  153.2080  139.4946  154.6138 H   0  0  0  0  0  0  0  0  0  0  0  0
  152.2062  141.0066  156.3367 H   0  0  0  0  0  0  0  0  0  0  0  0
  151.2632  140.9822  154.8763 H   0  0  0  0  0  0  0  0  0  0  0  0
  150.6926  139.4821  157.4727 H   0  0  0  0  0  0  0  0  0  0  0  0
  149.7563  140.8049  156.8394 H   0  0  0  0  0  0  0  0  0  0  0  0
  148.7771  138.4872  156.5764 H   0  0  0  0  0  0  0  0  0  0  0  0
  149.4401  141.4827  154.6032 H   0  0  0  0  0  0  0  0  0  0  0  0
  147.3793  141.8642  152.8617 H   0  0  0  0  0  0  0  0  0  0  0  0
  146.0244  139.4484  152.9624 H   0  0  0  0  0  0  0  0  0  0  0  0
  1  2  1  0  0  0  0
  1 21  1  0  0  0  0
  1 22  1  0  0  0  0
  1 23  1  0  0  0  0
  2  3  1  0  0  0  0
  2  4  1  0  0  0  0
  2  5  1  0  0  0  0
  3 24  1  0  0  0  0
  3 25  1  0  0  0  0
  3 26  1  0  0  0  0
  4 27  1  0  0  0  0
  5  6  1  0  0  0  0
  5 28  1  0  0  0  0
  5 29  1  0  0  0  0
  6  7  1  0  0  0  0
  6 30  1  0  0  0  0
  7  8  2  0  0  0  0
  7  9  1  0  0  0  0
  9 10  1  0  0  0  0
  9 31  1  0  0  0  0
 10 15  1  0  0  0  0
 10 11  1  0  0  0  0
 10 32  1  0  0  0  0
 11 12  1  0  0  0  0
 11 33  1  0  0  0  0
 11 34  1  0  0  0  0
 12 13  1  0  0  0  0
 12 35  1  0  0  0  0
 12 36  1  0  0  0  0
 13 14  1  0  0  0  0
 13 37  1  0  0  0  0
 13 38  1  0  0  0  0
 14 15  1  0  0  0  0
 14 39  1  0  0  0  0
 14 40  1  0  0  0  0
 15 16  1  0  0  0  0
 15 41  1  0  0  0  0
 16 20  1  0  0  0  0
 16 17  1  0  0  0  0
 17 18  2  0  0  0  0
 17 42  1  0  0  0  0
 18 19  1  0  0  0  0
 18 43  1  0  0  0  0
 19 20  2  0  0  0  0
 19 44  1  0  0  0  0
M  END
> <s_m_source_file>
AV-unprocessed.smi

> <i_m_source_file_index>
895

> <i_lp_mmshare_version>
43012

> <i_f3d_flags>
0

> <s_epik_input>
W0NIM11DKFtDSDNdKShbT0hdKVtDSDJdW05IXUMoPU8pW05IXVtDQEBIXTFbQ0gyXVtDSDJdW0NIMl1bQ0gyXVtDQEhdMW4yW2NIXVtjSF1bY0hdbjI=

> <s_epik_cmdline>
J2VwaWtfcHl0aG9uJywgJy1waCcsICc3LjAnLCAnLXRuJywgJzgnLCAnLW1hJywgJzIwMCcsICctbWV0YWxfYmluZGluZycsICctaW1hZScsICc8aW5maWxlLm1hZT4nLCAnLW9tYWUnLCAnPG91dGZpbGUubWFlPic=

> <r_lp_tautomer_probability>
1

> <r_epik_Ionization_Penalty>
0.000440451

> <r_epik_Ionization_Penalty_Charging>
0

> <r_epik_Ionization_Penalty_Neutral>
0.000440451

> <r_epik_State_Penalty>
-0

> <r_epik_Charging_Adjusted_Penalty>
0

> <i_epik_Tot_Q>
0

> <i_epik_Tot_abs_Q>
0

> <r_epik_Metal_State_Penalty>
-0

> <b_epik_Metal_Only>
0

> <s_lp_Force_Field>
OPLS_2005

> <r_lp_Energy>
15.0391

> <b_lp_Chiralities_Consistent>
1

> <s_lp_Variant>
AV-unprocessed.smi:895-2

> <Gold.Version>
5.8.1

> <Gold.Id.Protein>
6NUR|6NUR_protein|mol2

> <Gold.PLP.Fitness>
40.0880

> <Gold.PLP.PLP>
-30.7194

> <Gold.PLP.part.hbond>
-2.7425

> <Gold.PLP.part.metal>
0.0000

> <Gold.PLP.part.buried>
-2.1773

> <Gold.PLP.part.nonpolar>
-25.8689

> <Gold.PLP.part.repulsive>
0.1839

> <Gold.PLP.ligand.clash>
0.0000

> <Gold.PLP.ligand.torsion>
0.6910

> <Gold.PLP.Chemscore.Hbond>
2.6480

> <Gold.PLP.Chemscore.CHOScore>
0.9028

> <Gold.PLP.Chemscore.Metal>
0.0000

> <Gold.Chemscore.Hbonds>
donor molecule, donor type, donor heavy atom, donor atom, acceptor molecule, acceptor atom, score
      L1  H     4    27       P1 10747  1.00
      L1  H     6    30       P1  7948  0.96
      L1  H     9    31       P1  7948  0.82
      L1  C    19    44       P1 10175  0.82

> <Gold.PLP.Chemscore.Internal.Correction>
0.0984

> <Gold.Rescore>
     Score         DG    S(hbond)    S(metal)    S(lipo)     H(rot)  DE(clash)    DE(int)     intcor
     16.16     -18.08       2.72        0.00      77.89       2.19       0.03       1.89       ----

> <Gold.Chemscore.Fitness>
16.1622

> <Gold.Chemscore.DG>
-18.0803

> <Gold.Chemscore.ZeroCoef>
-5.4800

> <Gold.Chemscore.Hbond>
2.7240

> <Gold.Chemscore.Metal>
0.0000

> <Gold.Chemscore.Lipo>
77.8920

> <Gold.Chemscore.Internal_Hbond>
0.0000

> <Gold.Chemscore.DEClash>
0.0280

> <Gold.Chemscore.DEInternal>
1.8901

> <Gold.Chemscore.Rot>
2.1919

> <Gold.Chemscore.Internal.Correction>
   9.000000E+99

> <Gold.Chemscore.Hbonds>
donor molecule, donor type, donor heavy atom, donor atom, acceptor molecule, acceptor atom, score
      L1  H     4    27       P1 10747  0.95
      L1  H     6    30       P1  7948  0.91
      L1  H     9    31       P1  7948  0.79

> <Gold.Chemscore.Hbond.Weighted>
-9.0983

> <Gold.Chemscore.Metal.Weighted>
-0.0000

> <Gold.Chemscore.Lipo.Weighted>
-9.1134

> <Gold.Chemscore.Internal_Hbond.Weighted>
0.0000

> <Gold.Chemscore.DEClash.Weighted>
0.0280

> <Gold.Chemscore.DEInternal.Weighted>
1.8901

> <Gold.Chemscore.Rot.Weighted>
5.6113

> <Gold.Chemscore.Internal.Correction.Weighted>
   9.000000E+99

> <Gold.Protein.RotatedTorsions>
[ 6907 6896 6895 6894 ] final   52.94 input  -60.11 | X-H torsion
[ 7974 7965 7964 7962 ] final   24.91 input  175.53 | X-H torsion
[ 8008 7997 7996 7995 ] final   72.74 input   59.86 | X-H torsion
[ 10167 10162 10161 10158 ] final   37.79 input  -65.29 | X-H torsion
[ 10718 10713 10712 10709 ] final  -19.98 input   66.30 | X-H torsion
[ 10763 10752 10751 10750 ] final  -56.98 input  -60.55 | X-H torsion
[ 11005 11000 10999 10996 ] final   60.02 input  -57.11 | X-H torsion

> <Gold.Protein.ActiveResidues>
 VAL166  LYS551  ARG553  GLY616  TRP617  ASP618  TYR619  PRO620  LYS621  CYS622 
 ASP623  PHE694  ASN695  SER759  ASP760  ASP761  ALA762  ILE779  LEU786  VAL792 
 PHE793  MET794  SER795  GLU796  ALA797  LYS798  CYS799  TRP800  GLU811  SER814 

> <Gold.Protein.RotatedAtoms>
  152.3286  134.7289  160.0295 H   0  0  0  0  0  0  0  0  0  0  0  0  # atno 6907 bound_to 6896
  151.7714  133.3336  159.3453 H   0  0  0  0  0  0  0  0  0  0  0  0  # atno 6908 bound_to 6896
  150.7410  134.5947  159.6050 H   0  0  0  0  0  0  0  0  0  0  0  0  # atno 6909 bound_to 6896
  146.1915  139.7539  142.8829 H   0  0  0  0  0  0  0  0  0  0  0  0  # atno 7974 bound_to 7965
  155.7734  140.3484  155.5259 H   0  0  0  0  0  0  0  0  0  0  0  0  # atno 8008 bound_to 7997
  155.8800  140.1000  157.1513 H   0  0  0  0  0  0  0  0  0  0  0  0  # atno 8009 bound_to 7997
  154.4024  140.1324  156.4171 H   0  0  0  0  0  0  0  0  0  0  0  0  # atno 8010 bound_to 7997
  140.3999  144.1738  150.6133 H   0  0  0  0  0  0  0  0  0  0  0  0  # atno 10167 bound_to 10162
  156.5382  130.4671  149.6512 H   0  0  0  0  0  0  0  0  0  0  0  0  # atno 10718 bound_to 10713
  154.2152  135.6387  153.5127 H   0  0  0  0  0  0  0  0  0  0  0  0  # atno 10763 bound_to 10752
  152.9981  135.5483  154.6172 H   0  0  0  0  0  0  0  0  0  0  0  0  # atno 10764 bound_to 10752
  154.5619  135.2909  155.0885 H   0  0  0  0  0  0  0  0  0  0  0  0  # atno 10765 bound_to 10752
  140.0262  134.6080  155.9570 H   0  0  0  0  0  0  0  0  0  0  0  0  # atno 11005 bound_to 11000
  145.3779  141.0353  143.3194 LP  0  0  0  0  0  0  0  0  0  0  0  0  # atno 17320 bound_to 7965
  144.8495  139.5344  143.6863 LP  0  0  0  0  0  0  0  0  0  0  0  0  # atno 17321 bound_to 7965
  140.4751  143.2399  151.9035 LP  0  0  0  0  0  0  0  0  0  0  0  0  # atno 17342 bound_to 10162
  139.4785  144.5329  151.8640 LP  0  0  0  0  0  0  0  0  0  0  0  0  # atno 17343 bound_to 10162
  156.2996  130.7169  151.2038 LP  0  0  0  0  0  0  0  0  0  0  0  0  # atno 17370 bound_to 10713
  157.7410  131.0510  150.5128 LP  0  0  0  0  0  0  0  0  0  0  0  0  # atno 17371 bound_to 10713
  141.1804  133.6545  156.4996 LP  0  0  0  0  0  0  0  0  0  0  0  0  # atno 17394 bound_to 11000
  140.4303  134.7107  157.4938 LP  0  0  0  0  0  0  0  0  0  0  0  0  # atno 17395 bound_to 11000

$$$$
