AV-unprocessed.smi:994|AV-procd|sdf|4340|dock1
  -GOLD-   22720 2233D 1   1.00000     0.00000
 Structure written by MMmdl.
 38 39  0  0  0  0  0  0  0  0  3 V2000
  151.4941  140.1682  158.1772 O   0  0  0  0  0  0  0  0  0  0  0  0
  151.2805  141.2676  157.6653 C   0  0  0  0  0  0  0  0  0  0  0  0
  150.6569  141.4238  156.4872 N   0  0  0  0  0  0  0  0  0  0  0  0
  150.1946  140.3408  155.6185 C   0  0  1  0  0  0  0  0  0  0  0  0
  149.6710  140.9425  154.2965 C   0  0  0  0  0  0  0  0  0  0  0  0
  148.2030  141.3025  154.2906 C   0  0  0  0  0  0  0  0  0  0  0  0
  147.1048  140.6724  153.7307 C   0  0  0  0  0  0  0  0  0  0  0  0
  145.9895  141.4391  154.0248 N   0  0  0  0  0  0  0  0  0  0  0  0
  146.4180  142.4862  154.7263 C   0  0  0  0  0  0  0  0  0  0  0  0
  147.7365  142.4515  154.9105 N   0  3  0  0  0  0  0  0  0  0  0  0
  151.3751  139.4143  155.2966 C   0  0  0  0  0  0  0  0  0  0  0  0
  151.1257  138.3966  154.6152 O   0  0  0  0  0  0  0  0  0  0  0  0
  152.5047  139.7411  155.7254 O   0  5  0  0  0  0  0  0  0  0  0  0
  151.7157  142.5526  158.3817 C   0  0  0  0  0  0  0  0  0  0  0  0
  152.4130  142.2325  159.7215 C   0  0  0  0  0  0  0  0  0  0  0  0
  152.8306  143.5165  160.4575 C   0  0  0  0  0  0  0  0  0  0  0  0
  151.6289  144.4492  160.6767 C   0  0  0  0  0  0  0  0  0  0  0  0
  150.9261  144.7710  159.3482 C   0  0  0  0  0  0  0  0  0  0  0  0
  150.5086  143.4866  158.6133 C   0  0  0  0  0  0  0  0  0  0  0  0
  145.0360  141.2425  153.7551 H   0  0  0  0  0  0  0  0  0  0  0  0
  150.5433  142.3628  156.1343 H   0  0  0  0  0  0  0  0  0  0  0  0
  149.4015  139.7611  156.0952 H   0  0  0  0  0  0  0  0  0  0  0  0
  150.2385  141.8379  154.0369 H   0  0  0  0  0  0  0  0  0  0  0  0
  149.8287  140.2332  153.4825 H   0  0  0  0  0  0  0  0  0  0  0  0
  147.0156  139.7599  153.1591 H   0  0  0  0  0  0  0  0  0  0  0  0
  145.7748  143.2693  155.1007 H   0  0  0  0  0  0  0  0  0  0  0  0
  152.4321  143.0750  157.7447 H   0  0  0  0  0  0  0  0  0  0  0  0
  151.7486  141.6522  160.3640 H   0  0  0  0  0  0  0  0  0  0  0  0
  153.2924  141.6108  159.5478 H   0  0  0  0  0  0  0  0  0  0  0  0
  153.2840  143.2639  161.4162 H   0  0  0  0  0  0  0  0  0  0  0  0
  153.5966  144.0360  159.8805 H   0  0  0  0  0  0  0  0  0  0  0  0
  150.9208  143.9779  161.3596 H   0  0  0  0  0  0  0  0  0  0  0  0
  151.9558  145.3714  161.1577 H   0  0  0  0  0  0  0  0  0  0  0  0
  150.0511  145.3951  159.5325 H   0  0  0  0  0  0  0  0  0  0  0  0
  151.5945  145.3543  158.7134 H   0  0  0  0  0  0  0  0  0  0  0  0
  150.0475  143.7470  157.6597 H   0  0  0  0  0  0  0  0  0  0  0  0
  149.7417  142.9738  159.1964 H   0  0  0  0  0  0  0  0  0  0  0  0
  148.2931  143.1319  155.4086 H   0  0  0  0  0  0  0  0  0  0  0  0
  1  2  2  0  0  0  0
  2  3  1  0  0  0  0
  2 14  1  0  0  0  0
  3  4  1  0  0  0  0
  3 21  1  0  0  0  0
  4  5  1  0  0  0  0
  4 11  1  0  0  0  0
  4 22  1  0  0  0  0
  5  6  1  0  0  0  0
  5 23  1  0  0  0  0
  5 24  1  0  0  0  0
  6 10  1  0  0  0  0
  6  7  2  0  0  0  0
  7  8  1  0  0  0  0
  7 25  1  0  0  0  0
  8 20  1  0  0  0  0
  8  9  1  0  0  0  0
  9 10  2  0  0  0  0
  9 26  1  0  0  0  0
 10 38  1  0  0  0  0
 11 12  2  0  0  0  0
 11 13  1  0  0  0  0
 14 19  1  0  0  0  0
 14 15  1  0  0  0  0
 14 27  1  0  0  0  0
 15 16  1  0  0  0  0
 15 28  1  0  0  0  0
 15 29  1  0  0  0  0
 16 17  1  0  0  0  0
 16 30  1  0  0  0  0
 16 31  1  0  0  0  0
 17 18  1  0  0  0  0
 17 32  1  0  0  0  0
 17 33  1  0  0  0  0
 18 19  1  0  0  0  0
 18 34  1  0  0  0  0
 18 35  1  0  0  0  0
 19 36  1  0  0  0  0
 19 37  1  0  0  0  0
M  CHG  1  10   1
M  CHG  1  13  -1
M  END
> <s_m_source_file>
AV-unprocessed.smi

> <i_m_source_file_index>
994

> <i_lp_mmshare_version>
43012

> <i_f3d_flags>
0

> <s_epik_input>
W0NIMl0xW0NIMl1bQ0gyXVtDSDJdW0NIMl1bQ0hdMUMoPU8pW05IXVtDQEBIXShDKD1PKVtPSF0pW0NIMl1jMltjSF1bbkhdW2NIXW4y

> <s_epik_cmdline>
J2VwaWtfcHl0aG9uJywgJy1waCcsICc3LjAnLCAnLXRuJywgJzgnLCAnLW1hJywgJzIwMCcsICctbWV0YWxfYmluZGluZycsICctaW1hZScsICc8aW5maWxlLm1hZT4nLCAnLW9tYWUnLCAnPG91dGZpbGUubWFlPic=

> <r_lp_tautomer_probability>
1

> <r_epik_Ionization_Penalty>
0.469853

> <r_epik_Ionization_Penalty_Charging>
5.5863e-05

> <r_epik_Ionization_Penalty_Neutral>
0.469797

> <r_epik_State_Penalty>
0.377582

> <r_epik_Charging_Adjusted_Penalty>
0.377638

> <i_epik_Tot_Q>
0

> <i_epik_Tot_abs_Q>
2

> <r_epik_Metal_State_Penalty>
0.796804

> <b_epik_Metal_Only>
0

> <s_lp_Force_Field>
OPLS_2005

> <r_lp_Energy>
8.41083

> <b_lp_Chiralities_Consistent>
1

> <s_lp_Variant>
AV-unprocessed.smi:994-2

> <Gold.Version>
5.8.1

> <Gold.Id.Protein>
6NUR|6NUR_protein|mol2

> <Gold.PLP.Fitness>
55.5711

> <Gold.PLP.PLP>
-38.7292

> <Gold.PLP.part.hbond>
-3.0000

> <Gold.PLP.part.metal>
0.0000

> <Gold.PLP.part.buried>
-3.9141

> <Gold.PLP.part.nonpolar>
-32.8234

> <Gold.PLP.part.repulsive>
0.4111

> <Gold.PLP.ligand.clash>
0.0000

> <Gold.PLP.ligand.torsion>
0.6615

> <Gold.PLP.Chemscore.Hbond>
6.0000

> <Gold.PLP.Chemscore.CHOScore>
0.0000

> <Gold.PLP.Chemscore.Metal>
0.0000

> <Gold.Chemscore.Hbonds>
donor molecule, donor type, donor heavy atom, donor atom, acceptor molecule, acceptor atom, score
      L1  H     8    20       P1 10175  2.00
      L1  H    10    38       P1  8028  2.00
      P1  H  7997  8009       L1    13  2.00

> <Gold.PLP.Chemscore.Internal.Correction>
0.1649

> <Gold.Rescore>
     Score         DG    S(hbond)    S(metal)    S(lipo)     H(rot)  DE(clash)    DE(int)     intcor
     13.91     -18.60       2.87        0.00      89.79       2.72       0.50       4.19       ----

> <Gold.Chemscore.Fitness>
13.9112

> <Gold.Chemscore.DG>
-18.6004

> <Gold.Chemscore.ZeroCoef>
-5.4800

> <Gold.Chemscore.Hbond>
2.8682

> <Gold.Chemscore.Metal>
0.0000

> <Gold.Chemscore.Lipo>
89.7923

> <Gold.Chemscore.Internal_Hbond>
0.0000

> <Gold.Chemscore.DEClash>
0.4988

> <Gold.Chemscore.DEInternal>
4.1904

> <Gold.Chemscore.Rot>
2.7208

> <Gold.Chemscore.Internal.Correction>
   9.000000E+99

> <Gold.Chemscore.Hbonds>
donor molecule, donor type, donor heavy atom, donor atom, acceptor molecule, acceptor atom, score
      L1  H     8    20       P1 10175  0.47
      L1  H    10    38       P1  8028  0.92
      P1  H  7997  8009       L1    13  0.97

> <Gold.Chemscore.Hbond.Weighted>
-9.5799

> <Gold.Chemscore.Metal.Weighted>
-0.0000

> <Gold.Chemscore.Lipo.Weighted>
-10.5057

> <Gold.Chemscore.Internal_Hbond.Weighted>
0.0000

> <Gold.Chemscore.DEClash.Weighted>
0.4988

> <Gold.Chemscore.DEInternal.Weighted>
4.1904

> <Gold.Chemscore.Rot.Weighted>
6.9652

> <Gold.Chemscore.Internal.Correction.Weighted>
   9.000000E+99

> <Gold.Protein.RotatedTorsions>
[ 6907 6896 6895 6894 ] final  142.64 input  -60.11 | X-H torsion
[ 7974 7965 7964 7962 ] final  178.81 input  175.53 | X-H torsion
[ 8008 7997 7996 7995 ] final -138.78 input   59.86 | X-H torsion
[ 10167 10162 10161 10158 ] final  -37.90 input  -65.29 | X-H torsion
[ 10718 10713 10712 10709 ] final  -57.63 input   66.30 | X-H torsion
[ 10763 10752 10751 10750 ] final   62.69 input  -60.55 | X-H torsion
[ 11005 11000 10999 10996 ] final  161.01 input  -57.11 | X-H torsion

> <Gold.Protein.ActiveResidues>
 VAL166  LYS551  ARG553  GLY616  TRP617  ASP618  TYR619  PRO620  LYS621  CYS622 
 ASP623  PHE694  ASN695  SER759  ASP760  ASP761  ALA762  ILE779  LEU786  VAL792 
 PHE793  MET794  SER795  GLU796  ALA797  LYS798  CYS799  TRP800  GLU811  SER814 

> <Gold.Protein.RotatedAtoms>
  152.2162  133.4948  159.5136 H   0  0  0  0  0  0  0  0  0  0  0  0  # atno 6907 bound_to 6896
  150.7001  134.1403  159.4111 H   0  0  0  0  0  0  0  0  0  0  0  0  # atno 6908 bound_to 6896
  151.9323  135.0251  160.0581 H   0  0  0  0  0  0  0  0  0  0  0  0  # atno 6909 bound_to 6896
  144.7152  140.0454  143.6436 H   0  0  0  0  0  0  0  0  0  0  0  0  # atno 7974 bound_to 7965
  155.4339  140.0527  157.3016 H   0  0  0  0  0  0  0  0  0  0  0  0  # atno 8008 bound_to 7997
  154.4847  140.2096  155.9639 H   0  0  0  0  0  0  0  0  0  0  0  0  # atno 8009 bound_to 7997
  156.1258  140.3180  155.8280 H   0  0  0  0  0  0  0  0  0  0  0  0  # atno 8010 bound_to 7997
  140.7106  143.3312  151.2565 H   0  0  0  0  0  0  0  0  0  0  0  0  # atno 10167 bound_to 10162
  156.1196  130.4167  150.0467 H   0  0  0  0  0  0  0  0  0  0  0  0  # atno 10718 bound_to 10713
  152.9991  135.5456  154.6232 H   0  0  0  0  0  0  0  0  0  0  0  0  # atno 10763 bound_to 10752
  154.5527  135.2828  155.0996 H   0  0  0  0  0  0  0  0  0  0  0  0  # atno 10764 bound_to 10752
  154.2229  135.6447  153.5203 H   0  0  0  0  0  0  0  0  0  0  0  0  # atno 10765 bound_to 10752
  140.2115  134.8263  157.3126 H   0  0  0  0  0  0  0  0  0  0  0  0  # atno 11005 bound_to 11000
  145.9989  139.3074  143.0940 LP  0  0  0  0  0  0  0  0  0  0  0  0  # atno 17320 bound_to 7965
  145.8817  140.9359  143.0598 LP  0  0  0  0  0  0  0  0  0  0  0  0  # atno 17321 bound_to 7965
  139.6794  143.9880  152.2800 LP  0  0  0  0  0  0  0  0  0  0  0  0  # atno 17342 bound_to 10162
  139.9505  144.6623  150.8176 LP  0  0  0  0  0  0  0  0  0  0  0  0  # atno 17343 bound_to 10162
  156.8409  130.9425  151.3632 LP  0  0  0  0  0  0  0  0  0  0  0  0  # atno 17370 bound_to 10713
  157.6379  130.8782  149.9393 LP  0  0  0  0  0  0  0  0  0  0  0  0  # atno 17371 bound_to 10713
  140.1945  134.4330  155.7697 LP  0  0  0  0  0  0  0  0  0  0  0  0  # atno 17394 bound_to 11000
  141.2226  133.7043  156.8083 LP  0  0  0  0  0  0  0  0  0  0  0  0  # atno 17395 bound_to 11000

$$$$
