AV-unprocessed.smi:243|AV-procd|sdf|1862|dock10
  -GOLD-   2262020493D 1   1.00000     0.00000
 Structure written by MMmdl.
 58 61  0  0  0  0  0  0  0  0  2 V2000
  144.9293  131.3907  151.3889 C   0  0  0  0  0  0  0  0  0  0  0  0
  143.8586  131.9825  150.4605 C   0  0  0  0  0  0  0  0  0  0  0  0
  143.5458  133.3995  150.7768 N   0  3  2  0  0  0  0  0  0  0  0  0
  144.6774  134.3205  150.5031 C   0  0  0  0  0  0  0  0  0  0  0  0
  144.2788  135.7908  150.7364 C   0  0  0  0  0  0  0  0  0  0  0  0
  143.6691  136.0670  152.1290 C   0  0  2  0  0  0  0  0  0  0  0  0
  144.6605  136.3344  153.1887 N   0  0  0  0  0  0  0  0  0  0  0  0
  145.1749  135.2317  153.9947 C   0  0  0  0  0  0  0  0  0  0  0  0
  145.5054  137.3866  153.1032 C   0  0  0  0  0  0  0  0  0  0  0  0
  145.9766  137.7657  151.8876 N   0  0  0  0  0  0  0  0  0  0  0  0
  146.8110  138.8047  151.7877 C   0  0  0  0  0  0  0  0  0  0  0  0
  147.2981  139.5799  152.7590 N   0  0  0  0  0  0  0  0  0  0  0  0
  146.8530  139.1790  153.9843 C   0  0  0  0  0  0  0  0  0  0  0  0
  145.9668  138.0966  154.2442 C   0  0  0  0  0  0  0  0  0  0  0  0
  145.7395  137.9850  155.6096 N   0  0  0  0  0  0  0  0  0  0  0  0
  146.4429  138.9542  156.1282 C   0  0  0  0  0  0  0  0  0  0  0  0
  147.1466  139.7184  155.2244 N   0  0  0  0  0  0  0  0  0  0  0  0
  148.0054  140.8538  155.5241 C   0  0  0  0  0  0  0  0  0  0  0  0
  149.4443  140.6992  154.9794 C   0  0  2  0  0  0  0  0  0  0  0  0
  149.4686  141.0905  153.6178 O   0  0  0  0  0  0  0  0  0  0  0  0
  150.0040  139.2830  155.0862 C   0  0  0  0  0  0  0  0  0  0  0  0
  151.4905  139.5204  155.3127 C   0  0  0  0  0  0  0  0  0  0  0  0
  151.4926  140.6411  156.1796 O   0  0  0  0  0  0  0  0  0  0  0  0
  150.4795  141.5441  155.7489 C   0  0  0  0  0  0  0  0  0  0  0  0
  142.5735  135.0060  152.4379 C   0  0  2  0  0  0  0  0  0  0  0  0
  141.9019  135.1428  153.8135 C   0  0  0  0  0  0  0  0  0  0  0  0
  143.0338  133.5591  152.1612 C   0  0  0  0  0  0  0  0  0  0  0  0
  145.2021  130.3859  151.0653 H   0  0  0  0  0  0  0  0  0  0  0  0
  144.5836  131.3126  152.4191 H   0  0  0  0  0  0  0  0  0  0  0  0
  145.8361  131.9963  151.3811 H   0  0  0  0  0  0  0  0  0  0  0  0
  144.2361  131.9181  149.4391 H   0  0  0  0  0  0  0  0  0  0  0  0
  142.9479  131.3823  150.4895 H   0  0  0  0  0  0  0  0  0  0  0  0
  145.5278  134.0329  151.1179 H   0  0  0  0  0  0  0  0  0  0  0  0
  145.0033  134.2168  149.4691 H   0  0  0  0  0  0  0  0  0  0  0  0
  145.1214  136.4550  150.5460 H   0  0  0  0  0  0  0  0  0  0  0  0
  143.5332  136.0532  149.9846 H   0  0  0  0  0  0  0  0  0  0  0  0
  143.1446  137.0179  152.0271 H   0  0  0  0  0  0  0  0  0  0  0  0
  146.1198  134.8505  153.6079 H   0  0  0  0  0  0  0  0  0  0  0  0
  144.4653  134.4050  154.0272 H   0  0  0  0  0  0  0  0  0  0  0  0
  145.3415  135.5647  155.0197 H   0  0  0  0  0  0  0  0  0  0  0  0
  147.1349  139.0503  150.7871 H   0  0  0  0  0  0  0  0  0  0  0  0
  146.4689  139.1376  157.1925 H   0  0  0  0  0  0  0  0  0  0  0  0
  147.5419  141.7544  155.1190 H   0  0  0  0  0  0  0  0  0  0  0  0
  148.0271  140.9834  156.6070 H   0  0  0  0  0  0  0  0  0  0  0  0
  149.3099  140.3275  153.0835 H   0  0  0  0  0  0  0  0  0  0  0  0
  149.5947  138.7804  155.9634 H   0  0  0  0  0  0  0  0  0  0  0  0
  149.7943  138.6579  154.2170 H   0  0  0  0  0  0  0  0  0  0  0  0
  151.9928  138.6627  155.7604 H   0  0  0  0  0  0  0  0  0  0  0  0
  151.9969  139.7726  154.3798 H   0  0  0  0  0  0  0  0  0  0  0  0
  150.9252  142.3185  155.1225 H   0  0  0  0  0  0  0  0  0  0  0  0
  150.0483  142.0392  156.6196 H   0  0  0  0  0  0  0  0  0  0  0  0
  141.7794  135.1989  151.7146 H   0  0  0  0  0  0  0  0  0  0  0  0
  142.5767  134.8609  154.6212 H   0  0  0  0  0  0  0  0  0  0  0  0
  141.0275  134.4955  153.8846 H   0  0  0  0  0  0  0  0  0  0  0  0
  141.5645  136.1644  153.9897 H   0  0  0  0  0  0  0  0  0  0  0  0
  142.1836  132.8901  152.3009 H   0  0  0  0  0  0  0  0  0  0  0  0
  143.7921  133.2360  152.8711 H   0  0  0  0  0  0  0  0  0  0  0  0
  142.7893  133.6703  150.1646 H   0  0  0  0  0  0  0  0  0  0  0  0
  1  2  1  0  0  0  0
  1 28  1  0  0  0  0
  1 29  1  0  0  0  0
  1 30  1  0  0  0  0
  2  3  1  0  0  0  0
  2 31  1  0  0  0  0
  2 32  1  0  0  0  0
  3 27  1  0  0  0  0
  3  4  1  0  0  0  0
  3 58  1  0  0  0  0
  4  5  1  0  0  0  0
  4 33  1  0  0  0  0
  4 34  1  0  0  0  0
  5  6  1  0  0  0  0
  5 35  1  0  0  0  0
  5 36  1  0  0  0  0
  6  7  1  0  0  0  0
  6 25  1  0  0  0  0
  6 37  1  0  0  0  0
  7  8  1  0  0  0  0
  7  9  1  0  0  0  0
  8 38  1  0  0  0  0
  8 39  1  0  0  0  0
  8 40  1  0  0  0  0
  9 14  1  0  0  0  0
  9 10  2  0  0  0  0
 10 11  1  0  0  0  0
 11 12  2  0  0  0  0
 11 41  1  0  0  0  0
 12 13  1  0  0  0  0
 13 17  1  0  0  0  0
 13 14  2  0  0  0  0
 14 15  1  0  0  0  0
 15 16  2  0  0  0  0
 16 17  1  0  0  0  0
 16 42  1  0  0  0  0
 17 18  1  0  0  0  0
 18 19  1  0  0  0  0
 18 43  1  0  0  0  0
 18 44  1  0  0  0  0
 19 24  1  0  0  0  0
 19 20  1  0  0  0  0
 19 21  1  0  0  0  0
 20 45  1  0  0  0  0
 21 22  1  0  0  0  0
 21 46  1  0  0  0  0
 21 47  1  0  0  0  0
 22 23  1  0  0  0  0
 22 48  1  0  0  0  0
 22 49  1  0  0  0  0
 23 24  1  0  0  0  0
 24 50  1  0  0  0  0
 24 51  1  0  0  0  0
 25 26  1  0  0  0  0
 25 27  1  0  0  0  0
 25 52  1  0  0  0  0
 26 53  1  0  0  0  0
 26 54  1  0  0  0  0
 26 55  1  0  0  0  0
 27 56  1  0  0  0  0
 27 57  1  0  0  0  0
M  CHG  1   3   1
M  END
> <s_m_source_file>
AV-unprocessed.smi

> <i_m_source_file_index>
243

> <i_lp_mmshare_version>
43012

> <i_f3d_flags>
0

> <s_epik_input>
W0NIM11bQ0gyXU4xW0NIMl1bQ0gyXVtDQEhdKFtDQEBIXShbQ0gzXSlbQ0gyXTEpTihbQ0gzXSljKG5bY0hdbjIpYyhjMjMpbltjSF1uM1tDSDJdW0NAQF00KFtPSF0pW0NIMl1bQ0gyXU9bQ0gyXTQ=

> <s_epik_cmdline>
J2VwaWtfcHl0aG9uJywgJy1waCcsICc3LjAnLCAnLXRuJywgJzgnLCAnLW1hJywgJzIwMCcsICctbWV0YWxfYmluZGluZycsICctaW1hZScsICc8aW5maWxlLm1hZT4nLCAnLW9tYWUnLCAnPG91dGZpbGUubWFlPic=

> <r_lp_tautomer_probability>
1

> <r_epik_Ionization_Penalty>
0.00253099

> <r_epik_Ionization_Penalty_Charging>
0.00137877

> <r_epik_Ionization_Penalty_Neutral>
0.00115221

> <r_epik_State_Penalty>
-0

> <r_epik_Charging_Adjusted_Penalty>
0.00137877

> <i_epik_Tot_Q>
1

> <i_epik_Tot_abs_Q>
1

> <r_epik_Metal_State_Penalty>
-0

> <b_epik_Metal_Only>
0

> <s_lp_Force_Field>
OPLS_2005

> <r_lp_Energy>
52.4668

> <b_lp_Chiralities_Consistent>
1

> <s_lp_Variant>
AV-unprocessed.smi:243-15

> <Gold.Version>
5.8.1

> <Gold.Id.Protein>
6NUR|6NUR_protein|mol2

> <Gold.PLP.Fitness>
49.2976

> <Gold.PLP.PLP>
-39.3843

> <Gold.PLP.part.hbond>
-4.0000

> <Gold.PLP.part.metal>
0.0000

> <Gold.PLP.part.buried>
-4.2388

> <Gold.PLP.part.nonpolar>
-33.7685

> <Gold.PLP.part.repulsive>
2.9029

> <Gold.PLP.ligand.clash>
0.0000

> <Gold.PLP.ligand.torsion>
1.5758

> <Gold.PLP.Chemscore.Hbond>
3.6833

> <Gold.PLP.Chemscore.CHOScore>
0.3725

> <Gold.PLP.Chemscore.Metal>
0.0000

> <Gold.Chemscore.Hbonds>
donor molecule, donor type, donor heavy atom, donor atom, acceptor molecule, acceptor atom, score
      L1  H     3    58       P1 10186  2.00
      L1  H    20    45       P1  7957  0.59
      P1  H  7989  7998       L1    20  0.09
      P1  H  8011  8017       L1    20  0.99
      L1  C    11    41       P1  7957  0.38

> <Gold.PLP.Chemscore.Internal.Correction>
0.8974

> <Gold.Rescore>
     Score         DG    S(hbond)    S(metal)    S(lipo)     H(rot)  DE(clash)    DE(int)     intcor
     12.50     -17.00       2.06        0.00      88.55       2.24       1.70       2.81       ----

> <Gold.Chemscore.Fitness>
12.4958

> <Gold.Chemscore.DG>
-17.0050

> <Gold.Chemscore.ZeroCoef>
-5.4800

> <Gold.Chemscore.Hbond>
2.0638

> <Gold.Chemscore.Metal>
0.0000

> <Gold.Chemscore.Lipo>
88.5547

> <Gold.Chemscore.Internal_Hbond>
0.0000

> <Gold.Chemscore.DEClash>
1.7002

> <Gold.Chemscore.DEInternal>
2.8089

> <Gold.Chemscore.Rot>
2.2379

> <Gold.Chemscore.Internal.Correction>
   9.000000E+99

> <Gold.Chemscore.Hbonds>
donor molecule, donor type, donor heavy atom, donor atom, acceptor molecule, acceptor atom, score
      L1  H     3    58       P1 10186  0.93
      L1  H    20    45       P1  7957  0.59
      P1  H  8011  8017       L1    20  0.33

> <Gold.Chemscore.Hbond.Weighted>
-6.8932

> <Gold.Chemscore.Metal.Weighted>
-0.0000

> <Gold.Chemscore.Lipo.Weighted>
-10.3609

> <Gold.Chemscore.Internal_Hbond.Weighted>
0.0000

> <Gold.Chemscore.DEClash.Weighted>
1.7002

> <Gold.Chemscore.DEInternal.Weighted>
2.8089

> <Gold.Chemscore.Rot.Weighted>
5.7291

> <Gold.Chemscore.Internal.Correction.Weighted>
   9.000000E+99

> <Gold.Protein.RotatedTorsions>
[ 6907 6896 6895 6894 ] final  139.18 input  -60.11 | X-H torsion
[ 7974 7965 7964 7962 ] final  -43.73 input  175.53 | X-H torsion
[ 8008 7997 7996 7995 ] final   86.38 input   59.86 | X-H torsion
[ 10167 10162 10161 10158 ] final  -89.50 input  -65.29 | X-H torsion
[ 10718 10713 10712 10709 ] final -132.27 input   66.30 | X-H torsion
[ 10763 10752 10751 10750 ] final  -14.98 input  -60.55 | X-H torsion
[ 11005 11000 10999 10996 ] final   82.38 input  -57.11 | X-H torsion

> <Gold.Protein.ActiveResidues>
 VAL166  LYS551  ARG553  GLY616  TRP617  ASP618  TYR619  PRO620  LYS621  CYS622 
 ASP623  PHE694  ASN695  SER759  ASP760  ASP761  ALA762  ILE779  LEU786  VAL792 
 PHE793  MET794  SER795  GLU796  ALA797  LYS798  CYS799  TRP800  GLU811  SER814 

> <Gold.Protein.RotatedAtoms>
  152.2580  133.5272  159.5364 H   0  0  0  0  0  0  0  0  0  0  0  0  # atno 6907 bound_to 6896
  150.7115  134.0869  159.3927 H   0  0  0  0  0  0  0  0  0  0  0  0  # atno 6908 bound_to 6896
  151.8788  135.0461  160.0537 H   0  0  0  0  0  0  0  0  0  0  0  0  # atno 6909 bound_to 6896
  145.9990  140.7096  142.9280 H   0  0  0  0  0  0  0  0  0  0  0  0  # atno 7974 bound_to 7965
  155.9620  140.3392  155.6499 H   0  0  0  0  0  0  0  0  0  0  0  0  # atno 8008 bound_to 7997
  155.6786  140.0735  157.2511 H   0  0  0  0  0  0  0  0  0  0  0  0  # atno 8009 bound_to 7997
  154.4145  140.1678  156.1945 H   0  0  0  0  0  0  0  0  0  0  0  0  # atno 8010 bound_to 7997
  140.3642  143.2826  151.9578 H   0  0  0  0  0  0  0  0  0  0  0  0  # atno 10167 bound_to 10162
  156.2329  130.7048  151.0877 H   0  0  0  0  0  0  0  0  0  0  0  0  # atno 10718 bound_to 10713
  153.5365  135.7014  153.5658 H   0  0  0  0  0  0  0  0  0  0  0  0  # atno 10763 bound_to 10752
  153.3642  135.3961  155.1741 H   0  0  0  0  0  0  0  0  0  0  0  0  # atno 10764 bound_to 10752
  154.8679  135.3796  154.4866 H   0  0  0  0  0  0  0  0  0  0  0  0  # atno 10765 bound_to 10752
  139.9065  134.8067  156.2167 H   0  0  0  0  0  0  0  0  0  0  0  0  # atno 11005 bound_to 11000
  144.6913  140.3200  143.7234 LP  0  0  0  0  0  0  0  0  0  0  0  0  # atno 17320 bound_to 7965
  145.7516  139.1795  143.2318 LP  0  0  0  0  0  0  0  0  0  0  0  0  # atno 17321 bound_to 7965
  139.4810  144.5965  151.7681 LP  0  0  0  0  0  0  0  0  0  0  0  0  # atno 17342 bound_to 10162
  140.5097  144.1044  150.5992 LP  0  0  0  0  0  0  0  0  0  0  0  0  # atno 17343 bound_to 10162
  157.7141  131.0719  150.6393 LP  0  0  0  0  0  0  0  0  0  0  0  0  # atno 17370 bound_to 10713
  156.6461  130.4472  149.5735 LP  0  0  0  0  0  0  0  0  0  0  0  0  # atno 17371 bound_to 10713
  141.0431  133.6927  156.1634 LP  0  0  0  0  0  0  0  0  0  0  0  0  # atno 17394 bound_to 11000
  140.6925  134.4651  157.5588 LP  0  0  0  0  0  0  0  0  0  0  0  0  # atno 17395 bound_to 11000

$$$$
