AV-unprocessed.smi:3051|AV-procd|sdf|11634|dock8
  -GOLD-   2272017 23D 1   1.00000     0.00000
 Structure written by MMmdl.
 37 37  0  0  0  0  0  0  0  0  1 V2000
  151.8145  144.8661  159.0899 C   0  0  0  0  0  0  0  0  0  0  0  0
  152.1622  143.8683  157.9775 C   0  0  0  0  0  0  0  0  0  0  0  0
  150.9651  143.3615  157.3182 N   0  0  0  0  0  0  0  0  0  0  0  0
  150.6083  142.0694  157.2466 C   0  0  0  0  0  0  0  0  0  0  0  0
  151.2601  141.1555  157.7513 O   0  0  0  0  0  0  0  0  0  0  0  0
  149.3155  141.7590  156.4899 C   0  0  0  0  0  0  0  0  0  0  0  0
  149.5051  140.6621  155.5577 N   0  0  0  0  0  0  0  0  0  0  0  0
  150.6444  139.9139  155.3340 C   0  0  0  0  0  0  0  0  0  0  0  0
  150.3552  139.0092  154.3520 C   0  0  0  0  0  0  0  0  0  0  0  0
  148.9985  139.2933  154.0369 C   0  0  0  0  0  0  0  0  0  0  0  0
  148.3027  138.5876  153.0477 N   0  0  0  0  0  0  0  0  0  0  0  0
  146.9106  138.9013  152.7459 C   0  0  1  0  0  0  0  0  0  0  0  0
  146.7993  139.6921  151.4311 C   0  0  0  0  0  0  0  0  0  0  0  0
  146.0789  137.6112  152.6788 C   0  0  0  0  0  0  0  0  0  0  0  0
  146.1141  137.0972  151.3572 O   0  0  0  0  0  0  0  0  0  0  0  0
  145.3387  135.9205  151.2119 C   0  0  0  0  0  0  0  0  0  0  0  0
  148.4843  140.2754  154.7611 N   0  0  0  0  0  0  0  0  0  0  0  0
  152.7197  145.2610  159.5513 H   0  0  0  0  0  0  0  0  0  0  0  0
  151.2217  144.3957  159.8751 H   0  0  0  0  0  0  0  0  0  0  0  0
  151.2454  145.7101  158.6990 H   0  0  0  0  0  0  0  0  0  0  0  0
  152.7819  144.3574  157.2258 H   0  0  0  0  0  0  0  0  0  0  0  0
  152.7533  143.0432  158.3780 H   0  0  0  0  0  0  0  0  0  0  0  0
  150.3682  144.0417  156.8693 H   0  0  0  0  0  0  0  0  0  0  0  0
  148.5261  141.4895  157.1930 H   0  0  0  0  0  0  0  0  0  0  0  0
  148.9758  142.6440  155.9492 H   0  0  0  0  0  0  0  0  0  0  0  0
  151.5573  140.0900  155.8839 H   0  0  0  0  0  0  0  0  0  0  0  0
  151.0131  138.2674  153.9239 H   0  0  0  0  0  0  0  0  0  0  0  0
  148.7659  137.8583  152.5249 H   0  0  0  0  0  0  0  0  0  0  0  0
  146.5078  139.5173  153.5510 H   0  0  0  0  0  0  0  0  0  0  0  0
  145.7612  139.9455  151.2146 H   0  0  0  0  0  0  0  0  0  0  0  0
  147.1830  139.1161  150.5884 H   0  0  0  0  0  0  0  0  0  0  0  0
  147.3573  140.6275  151.4750 H   0  0  0  0  0  0  0  0  0  0  0  0
  146.4962  136.8667  153.3588 H   0  0  0  0  0  0  0  0  0  0  0  0
  145.0505  137.7983  152.9936 H   0  0  0  0  0  0  0  0  0  0  0  0
  145.3927  135.5708  150.1810 H   0  0  0  0  0  0  0  0  0  0  0  0
  144.2905  136.1065  151.4494 H   0  0  0  0  0  0  0  0  0  0  0  0
  145.7081  135.1227  151.8576 H   0  0  0  0  0  0  0  0  0  0  0  0
  1  2  1  0  0  0  0
  1 18  1  0  0  0  0
  1 19  1  0  0  0  0
  1 20  1  0  0  0  0
  2  3  1  0  0  0  0
  2 21  1  0  0  0  0
  2 22  1  0  0  0  0
  3  4  1  0  0  0  0
  3 23  1  0  0  0  0
  4  5  2  0  0  0  0
  4  6  1  0  0  0  0
  6  7  1  0  0  0  0
  6 24  1  0  0  0  0
  6 25  1  0  0  0  0
  7 17  1  0  0  0  0
  7  8  1  0  0  0  0
  8  9  2  0  0  0  0
  8 26  1  0  0  0  0
  9 10  1  0  0  0  0
  9 27  1  0  0  0  0
 10 11  1  0  0  0  0
 10 17  2  0  0  0  0
 11 12  1  0  0  0  0
 11 28  1  0  0  0  0
 12 13  1  0  0  0  0
 12 14  1  0  0  0  0
 12 29  1  0  0  0  0
 13 30  1  0  0  0  0
 13 31  1  0  0  0  0
 13 32  1  0  0  0  0
 14 15  1  0  0  0  0
 14 33  1  0  0  0  0
 14 34  1  0  0  0  0
 15 16  1  0  0  0  0
 16 35  1  0  0  0  0
 16 36  1  0  0  0  0
 16 37  1  0  0  0  0
M  END
> <s_m_source_file>
AV-unprocessed.smi

> <i_m_source_file_index>
3051

> <i_lp_mmshare_version>
43012

> <i_f3d_flags>
0

> <s_epik_input>
W0NIM11bQ0gyXVtOSF1DKD1PKVtDSDJdbjFbY0hdW2NIXWMobjEpW05IXVtDQEhdKFtDSDNdKVtDSDJdT1tDSDNd

> <s_epik_cmdline>
J2VwaWtfcHl0aG9uJywgJy1waCcsICc3LjAnLCAnLXRuJywgJzgnLCAnLW1hJywgJzIwMCcsICctbWV0YWxfYmluZGluZycsICctaW1hZScsICc8aW5maWxlLm1hZT4nLCAnLW9tYWUnLCAnPG91dGZpbGUubWFlPic=

> <r_lp_tautomer_probability>
1

> <r_epik_Ionization_Penalty>
0.00023157

> <r_epik_Ionization_Penalty_Charging>
0

> <r_epik_Ionization_Penalty_Neutral>
0.00023157

> <r_epik_State_Penalty>
-0

> <r_epik_Charging_Adjusted_Penalty>
0

> <i_epik_Tot_Q>
0

> <i_epik_Tot_abs_Q>
0

> <r_epik_Metal_State_Penalty>
-0

> <b_epik_Metal_Only>
0

> <s_lp_Force_Field>
OPLS_2005

> <r_lp_Energy>
3.21547

> <b_lp_Chiralities_Consistent>
1

> <s_lp_Variant>
AV-unprocessed.smi:3051-2

> <Gold.Version>
5.8.1

> <Gold.Id.Protein>
6NUR|6NUR_protein|mol2

> <Gold.PLP.Fitness>
38.7951

> <Gold.PLP.PLP>
-34.0299

> <Gold.PLP.part.hbond>
-3.0000

> <Gold.PLP.part.metal>
0.0000

> <Gold.PLP.part.buried>
-0.2860

> <Gold.PLP.part.nonpolar>
-32.2056

> <Gold.PLP.part.repulsive>
1.4331

> <Gold.PLP.ligand.clash>
0.0000

> <Gold.PLP.ligand.torsion>
0.6371

> <Gold.PLP.Chemscore.Hbond>
2.0000

> <Gold.PLP.Chemscore.CHOScore>
0.0000

> <Gold.PLP.Chemscore.Metal>
0.0000

> <Gold.Chemscore.Hbonds>
donor molecule, donor type, donor heavy atom, donor atom, acceptor molecule, acceptor atom, score
      L1  H     3    23       P1  8028  1.00
      L1  H    11    28       P1  7948  1.00

> <Gold.PLP.Chemscore.Internal.Correction>
0.0395

> <Gold.Rescore>
     Score         DG    S(hbond)    S(metal)    S(lipo)     H(rot)  DE(clash)    DE(int)     intcor
     12.98     -15.12       1.99        0.00      73.53       2.19       0.39       1.75       ----

> <Gold.Chemscore.Fitness>
12.9791

> <Gold.Chemscore.DG>
-15.1161

> <Gold.Chemscore.ZeroCoef>
-5.4800

> <Gold.Chemscore.Hbond>
1.9870

> <Gold.Chemscore.Metal>
0.0000

> <Gold.Chemscore.Lipo>
73.5329

> <Gold.Chemscore.Internal_Hbond>
0.0000

> <Gold.Chemscore.DEClash>
0.3911

> <Gold.Chemscore.DEInternal>
1.7459

> <Gold.Chemscore.Rot>
2.1890

> <Gold.Chemscore.Internal.Correction>
   9.000000E+99

> <Gold.Chemscore.Hbonds>
donor molecule, donor type, donor heavy atom, donor atom, acceptor molecule, acceptor atom, score
      L1  H     3    23       P1  8028  0.94
      L1  H    11    28       P1  7948  0.99

> <Gold.Chemscore.Hbond.Weighted>
-6.6366

> <Gold.Chemscore.Metal.Weighted>
-0.0000

> <Gold.Chemscore.Lipo.Weighted>
-8.6034

> <Gold.Chemscore.Internal_Hbond.Weighted>
0.0000

> <Gold.Chemscore.DEClash.Weighted>
0.3911

> <Gold.Chemscore.DEInternal.Weighted>
1.7459

> <Gold.Chemscore.Rot.Weighted>
5.6039

> <Gold.Chemscore.Internal.Correction.Weighted>
   9.000000E+99

> <Gold.Protein.RotatedTorsions>
[ 6907 6896 6895 6894 ] final -168.32 input  -60.11 | X-H torsion
[ 7974 7965 7964 7962 ] final    2.44 input  175.53 | X-H torsion
[ 8008 7997 7996 7995 ] final -147.59 input   59.86 | X-H torsion
[ 10167 10162 10161 10158 ] final -162.18 input  -65.29 | X-H torsion
[ 10718 10713 10712 10709 ] final    9.43 input   66.30 | X-H torsion
[ 10763 10752 10751 10750 ] final  142.78 input  -60.55 | X-H torsion
[ 11005 11000 10999 10996 ] final -174.79 input  -57.11 | X-H torsion

> <Gold.Protein.ActiveResidues>
 VAL166  LYS551  ARG553  GLY616  TRP617  ASP618  TYR619  PRO620  LYS621  CYS622 
 ASP623  PHE694  ASN695  SER759  ASP760  ASP761  ALA762  ILE779  LEU786  VAL792 
 PHE793  MET794  SER795  GLU796  ALA797  LYS798  CYS799  TRP800  GLU811  SER814 

> <Gold.Protein.RotatedAtoms>
  151.4737  133.3563  159.2827 H   0  0  0  0  0  0  0  0  0  0  0  0  # atno 6907 bound_to 6896
  150.8944  134.8352  159.7327 H   0  0  0  0  0  0  0  0  0  0  0  0  # atno 6908 bound_to 6896
  152.4842  134.4650  159.9669 H   0  0  0  0  0  0  0  0  0  0  0  0  # atno 6909 bound_to 6896
  146.2444  140.0836  142.8355 H   0  0  0  0  0  0  0  0  0  0  0  0  # atno 7974 bound_to 7965
  155.5780  140.0640  157.2790 H   0  0  0  0  0  0  0  0  0  0  0  0  # atno 8008 bound_to 7997
  154.4341  140.1857  156.0994 H   0  0  0  0  0  0  0  0  0  0  0  0  # atno 8009 bound_to 7997
  156.0326  140.3304  155.7160 H   0  0  0  0  0  0  0  0  0  0  0  0  # atno 8010 bound_to 7997
  139.6411  144.0259  152.2092 H   0  0  0  0  0  0  0  0  0  0  0  0  # atno 10167 bound_to 10162
  156.9662  130.5951  149.5665 H   0  0  0  0  0  0  0  0  0  0  0  0  # atno 10718 bound_to 10713
  153.9614  135.2960  155.3433 H   0  0  0  0  0  0  0  0  0  0  0  0  # atno 10763 bound_to 10752
  154.7372  135.5041  153.9065 H   0  0  0  0  0  0  0  0  0  0  0  0  # atno 10764 bound_to 10752
  153.0944  135.6717  153.9901 H   0  0  0  0  0  0  0  0  0  0  0  0  # atno 10765 bound_to 10752
  140.4706  134.6169  157.4880 H   0  0  0  0  0  0  0  0  0  0  0  0  # atno 11005 bound_to 11000
  145.0711  140.9156  143.4881 LP  0  0  0  0  0  0  0  0  0  0  0  0  # atno 17320 bound_to 7965
  145.0970  139.2849  143.5705 LP  0  0  0  0  0  0  0  0  0  0  0  0  # atno 17321 bound_to 7965
  139.9948  144.6335  150.7782 LP  0  0  0  0  0  0  0  0  0  0  0  0  # atno 17342 bound_to 10162
  140.7491  143.2933  151.3272 LP  0  0  0  0  0  0  0  0  0  0  0  0  # atno 17343 bound_to 10162
  156.0301  130.5393  150.8513 LP  0  0  0  0  0  0  0  0  0  0  0  0  # atno 17370 bound_to 10713
  157.5624  131.0946  150.9540 LP  0  0  0  0  0  0  0  0  0  0  0  0  # atno 17371 bound_to 10713
  139.9888  134.7019  155.9727 LP  0  0  0  0  0  0  0  0  0  0  0  0  # atno 17394 bound_to 11000
  141.1579  133.6541  156.4221 LP  0  0  0  0  0  0  0  0  0  0  0  0  # atno 17395 bound_to 11000

$$$$
