AV-unprocessed.smi:2|AV-procd|sdf|25|dock3
  -GOLD-   2262015133D 1   1.00000     0.00000
 Structure written by MMmdl.
 52 54  0  0  0  0  0  0  0  0  3 V2000
  150.7994  145.1510  159.1195 C   0  0  0  0  0  0  0  0  0  0  0  0
  151.6483  144.2448  158.2170 C   0  0  0  0  0  0  0  0  0  0  0  0
  152.1347  142.9893  158.9486 C   0  0  0  0  0  0  0  0  0  0  0  0
  152.7978  143.1342  159.9752 O   0  0  0  0  0  0  0  0  0  0  0  0
  151.7809  141.6506  158.3892 C   0  0  0  0  0  0  0  0  0  0  0  0
  150.9018  141.4973  157.2918 C   0  0  0  0  0  0  0  0  0  0  0  0
  150.5910  140.2158  156.7977 C   0  0  0  0  0  0  0  0  0  0  0  0
  151.1440  139.0596  157.3816 C   0  0  0  0  0  0  0  0  0  0  0  0
  150.7803  137.8464  156.8377 O   0  0  0  0  0  0  0  0  0  0  0  0
  151.5400  136.6972  157.1881 C   0  0  0  0  0  0  0  0  0  0  0  0
  151.1888  135.5540  156.2230 C   0  0  2  0  0  0  0  0  0  0  0  0
  151.1910  136.0695  154.9073 O   0  0  0  0  0  0  0  0  0  0  0  0
  149.8057  134.9389  156.5419 C   0  0  0  0  0  0  0  0  0  0  0  0
  149.5472  133.6874  155.8205 N   0  0  0  0  0  0  0  0  0  0  0  0
  150.2623  132.5248  155.9088 C   0  0  0  0  0  0  0  0  0  0  0  0
  151.4454  132.2790  156.7223 N   0  3  0  0  0  0  0  0  0  0  0  0
  151.8420  133.1487  157.4879 O   0  0  0  0  0  0  0  0  0  0  0  0
  152.0168  131.2035  156.5713 O   0  5  0  0  0  0  0  0  0  0  0  0
  149.8019  131.5417  155.1361 N   0  0  0  0  0  0  0  0  0  0  0  0
  148.7219  132.1083  154.4907 C   0  0  0  0  0  0  0  0  0  0  0  0
  147.8361  131.5149  153.4707 C   0  0  0  0  0  0  0  0  0  0  0  0
  147.9602  130.3380  153.1285 O   0  0  0  0  0  0  0  0  0  0  0  0
  146.9188  132.3882  152.9515 N   0  0  0  0  0  0  0  0  0  0  0  0
  146.0363  131.9093  151.8701 C   0  0  0  0  0  0  0  0  0  0  0  0
  146.7409  133.6961  153.3630 C   0  0  0  0  0  0  0  0  0  0  0  0
  145.9066  134.4170  152.8071 O   0  0  0  0  0  0  0  0  0  0  0  0
  147.5040  134.1715  154.4064 N   0  0  0  0  0  0  0  0  0  0  0  0
  147.1833  135.4980  154.9534 C   0  0  0  0  0  0  0  0  0  0  0  0
  148.5205  133.3908  154.8932 C   0  0  0  0  0  0  0  0  0  0  0  0
  152.0288  139.2101  158.4770 C   0  0  0  0  0  0  0  0  0  0  0  0
  152.3415  140.4911  158.9714 C   0  0  0  0  0  0  0  0  0  0  0  0
  150.4409  146.0173  158.5637 H   0  0  0  0  0  0  0  0  0  0  0  0
  151.3679  145.5198  159.9734 H   0  0  0  0  0  0  0  0  0  0  0  0
  149.9264  144.6211  159.5023 H   0  0  0  0  0  0  0  0  0  0  0  0
  151.0510  143.9308  157.3604 H   0  0  0  0  0  0  0  0  0  0  0  0
  152.4964  144.7917  157.8058 H   0  0  0  0  0  0  0  0  0  0  0  0
  150.4505  142.3491  156.8067 H   0  0  0  0  0  0  0  0  0  0  0  0
  149.9161  140.1200  155.9597 H   0  0  0  0  0  0  0  0  0  0  0  0
  152.5978  136.9447  157.0859 H   0  0  0  0  0  0  0  0  0  0  0  0
  151.3659  136.3958  158.2227 H   0  0  0  0  0  0  0  0  0  0  0  0
  151.9562  134.7828  156.2775 H   0  0  0  0  0  0  0  0  0  0  0  0
  150.5578  135.5900  154.3947 H   0  0  0  0  0  0  0  0  0  0  0  0
  149.6894  134.7720  157.6069 H   0  0  0  0  0  0  0  0  0  0  0  0
  149.0146  135.6570  156.3446 H   0  0  0  0  0  0  0  0  0  0  0  0
  144.9928  131.9524  152.1864 H   0  0  0  0  0  0  0  0  0  0  0  0
  146.2215  130.8853  151.5439 H   0  0  0  0  0  0  0  0  0  0  0  0
  146.1438  132.5356  150.9829 H   0  0  0  0  0  0  0  0  0  0  0  0
  147.8508  136.2539  154.5396 H   0  0  0  0  0  0  0  0  0  0  0  0
  147.2430  135.5108  156.0369 H   0  0  0  0  0  0  0  0  0  0  0  0
  146.1645  135.8254  154.7419 H   0  0  0  0  0  0  0  0  0  0  0  0
  152.4834  138.3575  158.9581 H   0  0  0  0  0  0  0  0  0  0  0  0
  153.0193  140.5694  159.8093 H   0  0  0  0  0  0  0  0  0  0  0  0
  1  2  1  0  0  0  0
  1 32  1  0  0  0  0
  1 33  1  0  0  0  0
  1 34  1  0  0  0  0
  2  3  1  0  0  0  0
  2 35  1  0  0  0  0
  2 36  1  0  0  0  0
  3  4  2  0  0  0  0
  3  5  1  0  0  0  0
  5 31  1  0  0  0  0
  5  6  2  0  0  0  0
  6  7  1  0  0  0  0
  6 37  1  0  0  0  0
  7  8  2  0  0  0  0
  7 38  1  0  0  0  0
  8  9  1  0  0  0  0
  8 30  1  0  0  0  0
  9 10  1  0  0  0  0
 10 11  1  0  0  0  0
 10 39  1  0  0  0  0
 10 40  1  0  0  0  0
 11 12  1  0  0  0  0
 11 13  1  0  0  0  0
 11 41  1  0  0  0  0
 12 42  1  0  0  0  0
 13 14  1  0  0  0  0
 13 43  1  0  0  0  0
 13 44  1  0  0  0  0
 14 29  1  0  0  0  0
 14 15  1  0  0  0  0
 15 16  1  0  0  0  0
 15 19  2  0  0  0  0
 16 17  2  0  0  0  0
 16 18  1  0  0  0  0
 19 20  1  0  0  0  0
 20 29  2  0  0  0  0
 20 21  1  0  0  0  0
 21 22  2  0  0  0  0
 21 23  1  0  0  0  0
 23 24  1  0  0  0  0
 23 25  1  0  0  0  0
 24 45  1  0  0  0  0
 24 46  1  0  0  0  0
 24 47  1  0  0  0  0
 25 26  2  0  0  0  0
 25 27  1  0  0  0  0
 27 28  1  0  0  0  0
 27 29  1  0  0  0  0
 28 48  1  0  0  0  0
 28 49  1  0  0  0  0
 28 50  1  0  0  0  0
 30 31  2  0  0  0  0
 30 51  1  0  0  0  0
 31 52  1  0  0  0  0
M  CHG  1  16   1
M  CHG  1  18  -1
M  END
> <s_m_source_file>
AV-unprocessed.smi

> <i_m_source_file_index>
2

> <i_lp_mmshare_version>
43012

> <i_f3d_flags>
0

> <s_epik_input>
W0NIM11bQ0gyXUMoPU8pYzFbY0hdW2NIXWMoW2NIXVtjSF0xKU9bQ0gyXVtDQEhdKFtPSF0pW0NIMl1uKGMobjIpW04rXSg9TylbTy1dKWMoYzIzKW4oW0NIM10pYyg9TyluKGMzPU8pW0NIM10=

> <s_epik_cmdline>
J2VwaWtfcHl0aG9uJywgJy1waCcsICc3LjAnLCAnLXRuJywgJzgnLCAnLW1hJywgJzIwMCcsICctbWV0YWxfYmluZGluZycsICctaW1hZScsICc8aW5maWxlLm1hZT4nLCAnLW9tYWUnLCAnPG91dGZpbGUubWFlPic=

> <r_lp_tautomer_probability>
1

> <r_epik_Ionization_Penalty>
1.02275e-06

> <r_epik_Ionization_Penalty_Charging>
4.46226e-11

> <r_epik_Ionization_Penalty_Neutral>
1.02271e-06

> <r_epik_State_Penalty>
-0

> <r_epik_Charging_Adjusted_Penalty>
4.46226e-11

> <i_epik_Tot_Q>
0

> <i_epik_Tot_abs_Q>
2

> <r_epik_Metal_State_Penalty>
-0

> <b_epik_Metal_Only>
0

> <s_lp_Force_Field>
OPLS_2005

> <r_lp_Energy>
60.0216

> <b_lp_Chiralities_Consistent>
1

> <s_lp_Variant>
AV-unprocessed.smi:2-1

> <Gold.Version>
5.8.1

> <Gold.Id.Protein>
6NUR|6NUR_protein|mol2

> <Gold.PLP.Fitness>
50.4945

> <Gold.PLP.PLP>
-45.5832

> <Gold.PLP.part.hbond>
-2.0117

> <Gold.PLP.part.metal>
0.0000

> <Gold.PLP.part.buried>
-7.0001

> <Gold.PLP.part.nonpolar>
-38.6941

> <Gold.PLP.part.repulsive>
1.8944

> <Gold.PLP.ligand.clash>
0.0000

> <Gold.PLP.ligand.torsion>
0.4243

> <Gold.PLP.Chemscore.Hbond>
1.7200

> <Gold.PLP.Chemscore.CHOScore>
0.0000

> <Gold.PLP.Chemscore.Metal>
0.0000

> <Gold.Chemscore.Hbonds>
donor molecule, donor type, donor heavy atom, donor atom, acceptor molecule, acceptor atom, score
      P1  H  6896  6907       L1    17  0.74
      P1  H 10752 10763       L1    12  1.00

> <Gold.PLP.Chemscore.Internal.Correction>
0.5999

> <Gold.Rescore>
     Score         DG    S(hbond)    S(metal)    S(lipo)     H(rot)  DE(clash)    DE(int)     intcor
      9.79     -12.90       1.78        0.00      81.82       3.16       0.03       3.08       ----

> <Gold.Chemscore.Fitness>
9.7880

> <Gold.Chemscore.DG>
-12.8957

> <Gold.Chemscore.ZeroCoef>
-5.4800

> <Gold.Chemscore.Hbond>
1.7760

> <Gold.Chemscore.Metal>
0.0000

> <Gold.Chemscore.Lipo>
81.8183

> <Gold.Chemscore.Internal_Hbond>
0.0000

> <Gold.Chemscore.DEClash>
0.0279

> <Gold.Chemscore.DEInternal>
3.0798

> <Gold.Chemscore.Rot>
3.1597

> <Gold.Chemscore.Internal.Correction>
   9.000000E+99

> <Gold.Chemscore.Hbonds>
donor molecule, donor type, donor heavy atom, donor atom, acceptor molecule, acceptor atom, score
      P1  H  6896  6907       L1    17  0.74
      P1  H 10752 10763       L1    12  0.19

> <Gold.Chemscore.Hbond.Weighted>
-5.9318

> <Gold.Chemscore.Metal.Weighted>
-0.0000

> <Gold.Chemscore.Lipo.Weighted>
-9.5727

> <Gold.Chemscore.Internal_Hbond.Weighted>
0.0000

> <Gold.Chemscore.DEClash.Weighted>
0.0279

> <Gold.Chemscore.DEInternal.Weighted>
3.0798

> <Gold.Chemscore.Rot.Weighted>
8.0888

> <Gold.Chemscore.Internal.Correction.Weighted>
   9.000000E+99

> <Gold.Protein.RotatedTorsions>
[ 6907 6896 6895 6894 ] final -176.49 input  -60.11 | X-H torsion
[ 7974 7965 7964 7962 ] final   48.32 input  175.53 | X-H torsion
[ 8008 7997 7996 7995 ] final   93.64 input   59.86 | X-H torsion
[ 10167 10162 10161 10158 ] final   26.55 input  -65.29 | X-H torsion
[ 10718 10713 10712 10709 ] final -108.78 input   66.30 | X-H torsion
[ 10763 10752 10751 10750 ] final   45.83 input  -60.55 | X-H torsion
[ 11005 11000 10999 10996 ] final  -42.16 input  -57.11 | X-H torsion

> <Gold.Protein.ActiveResidues>
 VAL166  LYS551  ARG553  GLY616  TRP617  ASP618  TYR619  PRO620  LYS621  CYS622 
 ASP623  PHE694  ASN695  SER759  ASP760  ASP761  ALA762  ILE779  LEU786  VAL792 
 PHE793  MET794  SER795  GLU796  ALA797  LYS798  CYS799  TRP800  GLU811  SER814 

> <Gold.Protein.RotatedAtoms>
  151.6056  133.3352  159.3056 H   0  0  0  0  0  0  0  0  0  0  0  0  # atno 6907 bound_to 6896
  150.8184  134.7382  159.6762 H   0  0  0  0  0  0  0  0  0  0  0  0  # atno 6908 bound_to 6896
  152.4279  134.5839  160.0007 H   0  0  0  0  0  0  0  0  0  0  0  0  # atno 6909 bound_to 6896
  146.0215  139.4656  142.9894 H   0  0  0  0  0  0  0  0  0  0  0  0  # atno 7974 bound_to 7965
  156.0491  140.3310  155.7330 H   0  0  0  0  0  0  0  0  0  0  0  0  # atno 8008 bound_to 7997
  155.5629  140.0620  157.2842 H   0  0  0  0  0  0  0  0  0  0  0  0  # atno 8009 bound_to 7997
  154.4427  140.1874  156.0789 H   0  0  0  0  0  0  0  0  0  0  0  0  # atno 8010 bound_to 7997
  140.5013  144.0310  150.6334 H   0  0  0  0  0  0  0  0  0  0  0  0  # atno 10167 bound_to 10162
  156.0503  130.5730  150.8009 H   0  0  0  0  0  0  0  0  0  0  0  0  # atno 10718 bound_to 10713
  152.9819  135.6027  154.3500 H   0  0  0  0  0  0  0  0  0  0  0  0  # atno 10763 bound_to 10752
  154.3190  135.2770  155.2530 H   0  0  0  0  0  0  0  0  0  0  0  0  # atno 10764 bound_to 10752
  154.4705  135.5943  153.6374 H   0  0  0  0  0  0  0  0  0  0  0  0  # atno 10765 bound_to 10752
  141.0296  133.6826  156.2556 H   0  0  0  0  0  0  0  0  0  0  0  0  # atno 11005 bound_to 11000
  145.7186  141.0083  143.1415 LP  0  0  0  0  0  0  0  0  0  0  0  0  # atno 17320 bound_to 7965
  144.6992  139.8843  143.7449 LP  0  0  0  0  0  0  0  0  0  0  0  0  # atno 17321 bound_to 7965
  140.3607  143.2910  152.0387 LP  0  0  0  0  0  0  0  0  0  0  0  0  # atno 17342 bound_to 10162
  139.4873  144.6305  151.7080 LP  0  0  0  0  0  0  0  0  0  0  0  0  # atno 17343 bound_to 10162
  157.5422  131.0941  150.9811 LP  0  0  0  0  0  0  0  0  0  0  0  0  # atno 17370 bound_to 10713
  157.0091  130.5630  149.5319 LP  0  0  0  0  0  0  0  0  0  0  0  0  # atno 17371 bound_to 10713
  140.6430  134.5146  157.5571 LP  0  0  0  0  0  0  0  0  0  0  0  0  # atno 17394 bound_to 11000
  139.9199  134.8170  156.1245 LP  0  0  0  0  0  0  0  0  0  0  0  0  # atno 17395 bound_to 11000

$$$$
