AV-unprocessed.smi:2237|AV-procd|sdf|9049|dock1
  -GOLD-   2272012253D 1   1.00000     0.00000
 Structure written by MMmdl.
 55 57  0  0  0  0  0  0  0  0  3 V2000
  153.8671  142.1479  160.6430 C   0  0  0  0  0  0  0  0  0  0  0  0
  152.8727  143.1165  160.0381 C   0  0  0  0  0  0  0  0  0  0  0  0
  152.6558  144.3855  160.6103 C   0  0  0  0  0  0  0  0  0  0  0  0
  151.7144  145.2347  160.0017 C   0  0  0  0  0  0  0  0  0  0  0  0
  151.0346  144.7844  158.8538 C   0  0  0  0  0  0  0  0  0  0  0  0
  151.3113  143.4964  158.3428 C   0  0  0  0  0  0  0  0  0  0  0  0
  150.5753  143.1382  157.1821 N   0  0  0  0  0  0  0  0  0  0  0  0
  150.4794  141.9301  156.5995 C   0  0  0  0  0  0  0  0  0  0  0  0
  151.0237  140.8998  156.9973 O   0  0  0  0  0  0  0  0  0  0  0  0
  149.6993  141.9765  155.5092 N   0  0  0  0  0  0  0  0  0  0  0  0
  149.3975  140.8395  154.6445 C   0  0  2  0  0  0  0  0  0  0  0  0
  148.2485  140.0151  155.2509 C   0  0  0  0  0  0  0  0  0  0  0  0
  147.9866  138.7471  154.4183 C   0  0  0  0  0  0  0  0  0  0  0  0
  149.2019  137.8885  154.3234 N   0  3  2  0  0  0  0  0  0  0  0  0
  149.6040  137.1654  155.5805 C   0  0  2  0  0  0  0  0  0  0  0  0
  150.9693  136.4495  155.4402 C   0  0  0  0  0  0  0  0  0  0  0  0
  150.8918  135.2370  154.4932 C   0  0  0  0  0  0  0  0  0  0  0  0
  149.8713  134.2630  154.9541 N   0  3  2  0  0  0  0  0  0  0  0  0
  149.8349  133.0442  154.1170 C   0  0  0  0  0  0  0  0  0  0  0  0
  148.5327  134.8842  155.1080 C   0  0  0  0  0  0  0  0  0  0  0  0
  148.5931  136.0937  156.0593 C   0  0  0  0  0  0  0  0  0  0  0  0
  150.3004  138.6612  153.6735 C   0  0  0  0  0  0  0  0  0  0  0  0
  150.6435  139.9537  154.4427 C   0  0  0  0  0  0  0  0  0  0  0  0
  152.2204  142.6842  158.9375 N   0  0  0  0  0  0  0  0  0  0  0  0
  154.4372  142.6160  161.4459 H   0  0  0  0  0  0  0  0  0  0  0  0
  154.5704  141.8003  159.8855 H   0  0  0  0  0  0  0  0  0  0  0  0
  153.3477  141.2813  161.0530 H   0  0  0  0  0  0  0  0  0  0  0  0
  153.1933  144.7017  161.4921 H   0  0  0  0  0  0  0  0  0  0  0  0
  151.5159  146.2156  160.4075 H   0  0  0  0  0  0  0  0  0  0  0  0
  150.3085  145.4251  158.3746 H   0  0  0  0  0  0  0  0  0  0  0  0
  150.0650  143.8908  156.7445 H   0  0  0  0  0  0  0  0  0  0  0  0
  149.2934  142.8652  155.2546 H   0  0  0  0  0  0  0  0  0  0  0  0
  149.0694  141.2101  153.6712 H   0  0  0  0  0  0  0  0  0  0  0  0
  148.4804  139.7431  156.2814 H   0  0  0  0  0  0  0  0  0  0  0  0
  147.3419  140.6201  155.2910 H   0  0  0  0  0  0  0  0  0  0  0  0
  147.1229  138.2000  154.7906 H   0  0  0  0  0  0  0  0  0  0  0  0
  147.7033  139.0431  153.4071 H   0  0  0  0  0  0  0  0  0  0  0  0
  149.6861  137.9020  156.3791 H   0  0  0  0  0  0  0  0  0  0  0  0
  151.7622  137.1238  155.1233 H   0  0  0  0  0  0  0  0  0  0  0  0
  151.2833  136.0988  156.4246 H   0  0  0  0  0  0  0  0  0  0  0  0
  150.6592  135.5623  153.4782 H   0  0  0  0  0  0  0  0  0  0  0  0
  151.8653  134.7467  154.4521 H   0  0  0  0  0  0  0  0  0  0  0  0
  149.5364  133.2789  153.0943 H   0  0  0  0  0  0  0  0  0  0  0  0
  149.1275  132.3193  154.5215 H   0  0  0  0  0  0  0  0  0  0  0  0
  150.8157  132.5685  154.0867 H   0  0  0  0  0  0  0  0  0  0  0  0
  148.1515  135.1841  154.1307 H   0  0  0  0  0  0  0  0  0  0  0  0
  147.8356  134.1454  155.5053 H   0  0  0  0  0  0  0  0  0  0  0  0
  148.9068  135.7378  157.0419 H   0  0  0  0  0  0  0  0  0  0  0  0
  147.6006  136.5077  156.2306 H   0  0  0  0  0  0  0  0  0  0  0  0
  151.1946  138.0595  153.5288 H   0  0  0  0  0  0  0  0  0  0  0  0
  149.9747  138.9277  152.6669 H   0  0  0  0  0  0  0  0  0  0  0  0
  151.4062  140.5069  153.8931 H   0  0  0  0  0  0  0  0  0  0  0  0
  151.0909  139.7100  155.4066 H   0  0  0  0  0  0  0  0  0  0  0  0
  148.9564  137.1590  153.6694 H   0  0  0  0  0  0  0  0  0  0  0  0
  150.1559  133.9638  155.8764 H   0  0  0  0  0  0  0  0  0  0  0  0
  1  2  1  0  0  0  0
  1 25  1  0  0  0  0
  1 26  1  0  0  0  0
  1 27  1  0  0  0  0
  2 24  1  0  0  0  0
  2  3  2  0  0  0  0
  3  4  1  0  0  0  0
  3 28  1  0  0  0  0
  4  5  2  0  0  0  0
  4 29  1  0  0  0  0
  5  6  1  0  0  0  0
  5 30  1  0  0  0  0
  6  7  1  0  0  0  0
  6 24  2  0  0  0  0
  7  8  1  0  0  0  0
  7 31  1  0  0  0  0
  8  9  2  0  0  0  0
  8 10  1  0  0  0  0
 10 11  1  0  0  0  0
 10 32  1  0  0  0  0
 11 23  1  0  0  0  0
 11 12  1  0  0  0  0
 11 33  1  0  0  0  0
 12 13  1  0  0  0  0
 12 34  1  0  0  0  0
 12 35  1  0  0  0  0
 13 14  1  0  0  0  0
 13 36  1  0  0  0  0
 13 37  1  0  0  0  0
 14 15  1  0  0  0  0
 14 22  1  0  0  0  0
 14 54  1  0  0  0  0
 15 21  1  0  0  0  0
 15 16  1  0  0  0  0
 15 38  1  0  0  0  0
 16 17  1  0  0  0  0
 16 39  1  0  0  0  0
 16 40  1  0  0  0  0
 17 18  1  0  0  0  0
 17 41  1  0  0  0  0
 17 42  1  0  0  0  0
 18 19  1  0  0  0  0
 18 20  1  0  0  0  0
 18 55  1  0  0  0  0
 19 43  1  0  0  0  0
 19 44  1  0  0  0  0
 19 45  1  0  0  0  0
 20 21  1  0  0  0  0
 20 46  1  0  0  0  0
 20 47  1  0  0  0  0
 21 48  1  0  0  0  0
 21 49  1  0  0  0  0
 22 23  1  0  0  0  0
 22 50  1  0  0  0  0
 22 51  1  0  0  0  0
 23 52  1  0  0  0  0
 23 53  1  0  0  0  0
M  CHG  1  14   1
M  CHG  1  18   1
M  END
> <s_m_source_file>
AV-unprocessed.smi

> <i_m_source_file_index>
2237

> <i_lp_mmshare_version>
43012

> <i_f3d_flags>
0

> <s_epik_input>
W0NIM11jMVtjSF1bY0hdW2NIXWMobjEpW05IXUMoPU8pW05IXVtDSF0yW0NIMl1bQ0gyXU4oW0NIMl1bQ0gyXTIpW0NIXTNbQ0gyXVtDSDJdTihbQ0gzXSlbQ0gyXVtDSDJdMw==

> <s_epik_cmdline>
J2VwaWtfcHl0aG9uJywgJy1waCcsICc3LjAnLCAnLXRuJywgJzgnLCAnLW1hJywgJzIwMCcsICctbWV0YWxfYmluZGluZycsICctaW1hZScsICc8aW5maWxlLm1hZT4nLCAnLW9tYWUnLCAnPG91dGZpbGUubWFlPic=

> <r_epik_Ionization_Penalty>
0.180851

> <r_epik_Ionization_Penalty_Charging>
0.180787

> <r_epik_Ionization_Penalty_Neutral>
6.38624e-05

> <r_epik_State_Penalty>
0.153592

> <r_epik_Charging_Adjusted_Penalty>
0.334379

> <i_epik_Tot_Q>
2

> <i_epik_Tot_abs_Q>
2

> <r_epik_Metal_State_Penalty>
0.153595

> <b_epik_Metal_Only>
0

> <s_lp_Force_Field>
OPLS_2005

> <r_lp_Energy>
48.731

> <b_lp_Chiralities_Consistent>
1

> <s_lp_Variant>
AV-unprocessed.smi:2237-4

> <Gold.Version>
5.8.1

> <Gold.Id.Protein>
6NUR|6NUR_protein|mol2

> <Gold.PLP.Fitness>
54.5364

> <Gold.PLP.PLP>
-43.6850

> <Gold.PLP.part.hbond>
-3.0000

> <Gold.PLP.part.metal>
0.0000

> <Gold.PLP.part.buried>
-3.6610

> <Gold.PLP.part.nonpolar>
-37.5258

> <Gold.PLP.part.repulsive>
0.2125

> <Gold.PLP.ligand.clash>
0.0000

> <Gold.PLP.ligand.torsion>
0.4695

> <Gold.PLP.Chemscore.Hbond>
3.9120

> <Gold.PLP.Chemscore.CHOScore>
0.0000

> <Gold.PLP.Chemscore.Metal>
0.0000

> <Gold.Chemscore.Hbonds>
donor molecule, donor type, donor heavy atom, donor atom, acceptor molecule, acceptor atom, score
      L1  H     7    31       P1  8028  1.00
      L1  H    10    32       P1  8028  1.00
      L1  H    14    54       P1  7948  2.00

> <Gold.PLP.Chemscore.Internal.Correction>
0.0544

> <Gold.Rescore>
     Score         DG    S(hbond)    S(metal)    S(lipo)     H(rot)  DE(clash)    DE(int)     intcor
     20.67     -25.44       2.95        0.00     113.20       1.23       1.43       3.35       ----

> <Gold.Chemscore.Fitness>
20.6661

> <Gold.Chemscore.DG>
-25.4409

> <Gold.Chemscore.ZeroCoef>
-5.4800

> <Gold.Chemscore.Hbond>
2.9532

> <Gold.Chemscore.Metal>
0.0000

> <Gold.Chemscore.Lipo>
113.2033

> <Gold.Chemscore.Internal_Hbond>
0.0000

> <Gold.Chemscore.DEClash>
1.4257

> <Gold.Chemscore.DEInternal>
3.3491

> <Gold.Chemscore.Rot>
1.2295

> <Gold.Chemscore.Internal.Correction>
   9.000000E+99

> <Gold.Chemscore.Hbonds>
donor molecule, donor type, donor heavy atom, donor atom, acceptor molecule, acceptor atom, score
      L1  H     7    31       P1  8028  0.99
      L1  H    10    32       P1  8028  0.96
      L1  H    14    54       P1  7948  0.92

> <Gold.Chemscore.Hbond.Weighted>
-9.8636

> <Gold.Chemscore.Metal.Weighted>
-0.0000

> <Gold.Chemscore.Lipo.Weighted>
-13.2448

> <Gold.Chemscore.Internal_Hbond.Weighted>
0.0000

> <Gold.Chemscore.DEClash.Weighted>
1.4257

> <Gold.Chemscore.DEInternal.Weighted>
3.3491

> <Gold.Chemscore.Rot.Weighted>
3.1474

> <Gold.Chemscore.Internal.Correction.Weighted>
   9.000000E+99

> <Gold.Protein.RotatedTorsions>
[ 6907 6896 6895 6894 ] final   38.30 input  -60.11 | X-H torsion
[ 7974 7965 7964 7962 ] final  -16.51 input  175.53 | X-H torsion
[ 8008 7997 7996 7995 ] final  176.21 input   59.86 | X-H torsion
[ 10167 10162 10161 10158 ] final  -63.14 input  -65.29 | X-H torsion
[ 10718 10713 10712 10709 ] final  -50.42 input   66.30 | X-H torsion
[ 10763 10752 10751 10750 ] final  136.51 input  -60.55 | X-H torsion
[ 11005 11000 10999 10996 ] final   49.06 input  -57.11 | X-H torsion

> <Gold.Protein.ActiveResidues>
 VAL166  LYS551  ARG553  GLY616  TRP617  ASP618  TYR619  PRO620  LYS621  CYS622 
 ASP623  PHE694  ASN695  SER759  ASP760  ASP761  ALA762  ILE779  LEU786  VAL792 
 PHE793  MET794  SER795  GLU796  ALA797  LYS798  CYS799  TRP800  GLU811  SER814 

> <Gold.Protein.RotatedAtoms>
  152.1546  134.8961  160.0545 H   0  0  0  0  0  0  0  0  0  0  0  0  # atno 6907 bound_to 6896
  151.9980  133.3810  159.4178 H   0  0  0  0  0  0  0  0  0  0  0  0  # atno 6908 bound_to 6896
  150.6880  134.3787  159.5068 H   0  0  0  0  0  0  0  0  0  0  0  0  # atno 6909 bound_to 6896
  146.1984  140.3646  142.8432 H   0  0  0  0  0  0  0  0  0  0  0  0  # atno 7974 bound_to 7965
  156.0789  140.1389  156.9737 H   0  0  0  0  0  0  0  0  0  0  0  0  # atno 8008 bound_to 7997
  154.4574  140.0956  156.6845 H   0  0  0  0  0  0  0  0  0  0  0  0  # atno 8009 bound_to 7997
  155.5107  140.3453  155.4390 H   0  0  0  0  0  0  0  0  0  0  0  0  # atno 8010 bound_to 7997
  140.5891  143.2338  151.6178 H   0  0  0  0  0  0  0  0  0  0  0  0  # atno 10167 bound_to 10162
  156.1802  130.4150  149.9518 H   0  0  0  0  0  0  0  0  0  0  0  0  # atno 10718 bound_to 10713
  153.8577  135.3071  155.3436 H   0  0  0  0  0  0  0  0  0  0  0  0  # atno 10763 bound_to 10752
  154.7863  135.4808  153.9956 H   0  0  0  0  0  0  0  0  0  0  0  0  # atno 10764 bound_to 10752
  153.1480  135.6837  153.9019 H   0  0  0  0  0  0  0  0  0  0  0  0  # atno 10765 bound_to 10752
  140.1136  134.4922  155.8657 H   0  0  0  0  0  0  0  0  0  0  0  0  # atno 11005 bound_to 11000
  144.8630  140.7166  143.6095 LP  0  0  0  0  0  0  0  0  0  0  0  0  # atno 17320 bound_to 7965
  145.3566  139.1692  143.4406 LP  0  0  0  0  0  0  0  0  0  0  0  0  # atno 17321 bound_to 7965
  139.5216  144.3187  152.0929 LP  0  0  0  0  0  0  0  0  0  0  0  0  # atno 17342 bound_to 10162
  140.2349  144.4330  150.6284 LP  0  0  0  0  0  0  0  0  0  0  0  0  # atno 17343 bound_to 10162
  156.7291  130.9036  151.3624 LP  0  0  0  0  0  0  0  0  0  0  0  0  # atno 17370 bound_to 10713
  157.6863  130.9188  150.0395 LP  0  0  0  0  0  0  0  0  0  0  0  0  # atno 17371 bound_to 10713
  141.2136  133.6735  156.6752 LP  0  0  0  0  0  0  0  0  0  0  0  0  # atno 17394 bound_to 11000
  140.3058  134.8126  157.4136 LP  0  0  0  0  0  0  0  0  0  0  0  0  # atno 17395 bound_to 11000

$$$$
