AV-unprocessed.smi:21|AV-procd|sdf|153|dock10
  -GOLD-   2262015383D 1   1.00000     0.00000
 Structure written by MMmdl.
 61 64  0  0  0  0  0  0  0  0  1 V2000
  152.9103  142.9129  161.7967 C   0  0  0  0  0  0  0  0  0  0  0  0
  151.9632  142.9318  160.7405 O   0  0  0  0  0  0  0  0  0  0  0  0
  152.5018  142.5195  159.4916 C   0  0  1  0  0  0  0  0  0  0  0  0
  152.5796  140.9873  159.3766 C   0  0  0  0  0  0  0  0  0  0  0  0
  151.9248  140.6811  158.0253 C   0  0  1  0  0  0  0  0  0  0  0  0
  151.3996  139.2336  157.9157 C   0  0  0  0  0  0  0  0  0  0  0  0
  151.4688  138.7030  156.5539 N   0  0  0  0  0  0  0  0  0  0  0  0
  152.1222  139.5261  155.5387 C   0  0  0  0  0  0  0  0  0  0  0  0
  150.4082  137.9507  156.1573 C   0  0  0  0  0  0  0  0  0  0  0  0
  149.1947  138.5401  155.9814 N   0  0  0  0  0  0  0  0  0  0  0  0
  148.1389  137.8170  155.5987 C   0  0  0  0  0  0  0  0  0  0  0  0
  148.0747  136.5116  155.3341 N   0  0  0  0  0  0  0  0  0  0  0  0
  149.2883  135.9122  155.4942 C   0  0  0  0  0  0  0  0  0  0  0  0
  150.4938  136.5508  155.9053 C   0  0  0  0  0  0  0  0  0  0  0  0
  151.5230  135.6194  155.9569 N   0  0  0  0  0  0  0  0  0  0  0  0
  150.9586  134.4964  155.6097 C   0  0  0  0  0  0  0  0  0  0  0  0
  149.6213  134.5825  155.2943 N   0  0  0  0  0  0  0  0  0  0  0  0
  148.7607  133.4866  154.8694 C   0  0  0  0  0  0  0  0  0  0  0  0
  149.5173  132.2678  154.2710 C   0  0  2  0  0  0  0  0  0  0  0  0
  148.5667  131.2650  153.5741 C   0  0  0  0  0  0  0  0  0  0  0  0
  147.7338  131.9204  152.6400 O   0  0  0  0  0  0  0  0  0  0  0  0
  150.4123  131.5583  155.3205 C   0  0  2  0  0  0  0  0  0  0  0  0
  151.2385  130.4054  154.7731 C   0  0  0  0  0  0  0  0  0  0  0  0
  151.6273  129.6558  156.0419 C   0  0  0  0  0  0  0  0  0  0  0  0
  150.5381  129.8344  156.9395 O   0  0  0  0  0  0  0  0  0  0  0  0
  149.6527  130.8290  156.4349 C   0  0  0  0  0  0  0  0  0  0  0  0
  150.9040  141.7070  157.8917 N   0  0  0  0  0  0  0  0  0  0  0  0
  150.3762  141.8447  156.5407 C   0  0  0  0  0  0  0  0  0  0  0  0
  151.5532  142.9219  158.3539 C   0  0  0  0  0  0  0  0  0  0  0  0
  153.4765  142.9815  159.3243 H   0  0  0  0  0  0  0  0  0  0  0  0
  152.6730  140.8481  157.2491 H   0  0  0  0  0  0  0  0  0  0  0  0
  152.4355  143.2486  162.7186 H   0  0  0  0  0  0  0  0  0  0  0  0
  153.7460  143.5821  161.5879 H   0  0  0  0  0  0  0  0  0  0  0  0
  153.3013  141.9098  161.9697 H   0  0  0  0  0  0  0  0  0  0  0  0
  153.6010  140.6115  159.4428 H   0  0  0  0  0  0  0  0  0  0  0  0
  152.0012  140.5300  160.1788 H   0  0  0  0  0  0  0  0  0  0  0  0
  151.9332  138.5984  158.6229 H   0  0  0  0  0  0  0  0  0  0  0  0
  150.3538  139.1979  158.2209 H   0  0  0  0  0  0  0  0  0  0  0  0
  152.2473  138.9739  154.6062 H   0  0  0  0  0  0  0  0  0  0  0  0
  153.1142  139.8363  155.8648 H   0  0  0  0  0  0  0  0  0  0  0  0
  151.5358  140.4228  155.3346 H   0  0  0  0  0  0  0  0  0  0  0  0
  147.2135  138.3626  155.4877 H   0  0  0  0  0  0  0  0  0  0  0  0
  151.5105  133.5689  155.5638 H   0  0  0  0  0  0  0  0  0  0  0  0
  148.1805  133.1675  155.7358 H   0  0  0  0  0  0  0  0  0  0  0  0
  148.0278  133.8752  154.1626 H   0  0  0  0  0  0  0  0  0  0  0  0
  150.1836  132.6592  153.5006 H   0  0  0  0  0  0  0  0  0  0  0  0
  149.1305  130.5133  153.0226 H   0  0  0  0  0  0  0  0  0  0  0  0
  147.9541  130.7265  154.2971 H   0  0  0  0  0  0  0  0  0  0  0  0
  147.9562  131.6158  151.7734 H   0  0  0  0  0  0  0  0  0  0  0  0
  151.0809  132.2835  155.7863 H   0  0  0  0  0  0  0  0  0  0  0  0
  150.6250  129.7658  154.1368 H   0  0  0  0  0  0  0  0  0  0  0  0
  152.1076  130.7186  154.1964 H   0  0  0  0  0  0  0  0  0  0  0  0
  151.8255  128.5997  155.8589 H   0  0  0  0  0  0  0  0  0  0  0  0
  152.5201  130.0979  156.4863 H   0  0  0  0  0  0  0  0  0  0  0  0
  149.3310  131.5004  157.2312 H   0  0  0  0  0  0  0  0  0  0  0  0
  148.7688  130.3282  156.0373 H   0  0  0  0  0  0  0  0  0  0  0  0
  149.6560  142.6620  156.4922 H   0  0  0  0  0  0  0  0  0  0  0  0
  149.8624  140.9366  156.2263 H   0  0  0  0  0  0  0  0  0  0  0  0
  151.1717  142.0516  155.8233 H   0  0  0  0  0  0  0  0  0  0  0  0
  150.8221  143.6707  158.6606 H   0  0  0  0  0  0  0  0  0  0  0  0
  152.1443  143.3565  157.5461 H   0  0  0  0  0  0  0  0  0  0  0  0
  1  2  1  0  0  0  0
  1 32  1  0  0  0  0
  1 33  1  0  0  0  0
  1 34  1  0  0  0  0
  2  3  1  0  0  0  0
  3 30  1  0  0  0  0
  3 29  1  0  0  0  0
  3  4  1  0  0  0  0
  4  5  1  0  0  0  0
  4 35  1  0  0  0  0
  4 36  1  0  0  0  0
  5 31  1  0  0  0  0
  5  6  1  0  0  0  0
  5 27  1  0  0  0  0
  6  7  1  0  0  0  0
  6 37  1  0  0  0  0
  6 38  1  0  0  0  0
  7  8  1  0  0  0  0
  7  9  1  0  0  0  0
  8 39  1  0  0  0  0
  8 40  1  0  0  0  0
  8 41  1  0  0  0  0
  9 14  1  0  0  0  0
  9 10  2  0  0  0  0
 10 11  1  0  0  0  0
 11 12  2  0  0  0  0
 11 42  1  0  0  0  0
 12 13  1  0  0  0  0
 13 17  1  0  0  0  0
 13 14  2  0  0  0  0
 14 15  1  0  0  0  0
 15 16  2  0  0  0  0
 16 17  1  0  0  0  0
 16 43  1  0  0  0  0
 17 18  1  0  0  0  0
 18 19  1  0  0  0  0
 18 44  1  0  0  0  0
 18 45  1  0  0  0  0
 19 20  1  0  0  0  0
 19 22  1  0  0  0  0
 19 46  1  0  0  0  0
 20 21  1  0  0  0  0
 20 47  1  0  0  0  0
 20 48  1  0  0  0  0
 21 49  1  0  0  0  0
 22 26  1  0  0  0  0
 22 23  1  0  0  0  0
 22 50  1  0  0  0  0
 23 24  1  0  0  0  0
 23 51  1  0  0  0  0
 23 52  1  0  0  0  0
 24 25  1  0  0  0  0
 24 53  1  0  0  0  0
 24 54  1  0  0  0  0
 25 26  1  0  0  0  0
 26 55  1  0  0  0  0
 26 56  1  0  0  0  0
 27 28  1  0  0  0  0
 27 29  1  0  0  0  0
 28 57  1  0  0  0  0
 28 58  1  0  0  0  0
 28 59  1  0  0  0  0
 29 60  1  0  0  0  0
 29 61  1  0  0  0  0
M  END
> <s_m_source_file>
AV-unprocessed.smi

> <i_m_source_file_index>
21

> <i_lp_mmshare_version>
43012

> <i_f3d_flags>
0

> <s_epik_input>
W0NIM11PW0NASF0xW0NIMl1bQ0BIXShOKFtDSDNdKVtDSDJdMSlbQ0gyXU4oW0NIM10pYyhuW2NIXW4yKWMoYzIzKW5bY0hdbjNbQ0gyXVtDQEhdKFtDSDJdW09IXSlbQ0BASF00W0NIMl1bQ0gyXU9bQ0gyXTQ=

> <s_epik_cmdline>
J2VwaWtfcHl0aG9uJywgJy1waCcsICc3LjAnLCAnLXRuJywgJzgnLCAnLW1hJywgJzIwMCcsICctbWV0YWxfYmluZGluZycsICctaW1hZScsICc8aW5maWxlLm1hZT4nLCAnLW9tYWUnLCAnPG91dGZpbGUubWFlPic=

> <r_lp_tautomer_probability>
1

> <r_epik_Ionization_Penalty>
2.17574

> <r_epik_Ionization_Penalty_Charging>
0

> <r_epik_Ionization_Penalty_Neutral>
2.17574

> <r_epik_State_Penalty>
2.31336

> <r_epik_Charging_Adjusted_Penalty>
2.31336

> <i_epik_Tot_Q>
0

> <i_epik_Tot_abs_Q>
0

> <r_epik_Metal_State_Penalty>
2.31025

> <b_epik_Metal_Only>
0

> <s_lp_Force_Field>
OPLS_2005

> <r_lp_Energy>
70.2261

> <b_lp_Chiralities_Consistent>
1

> <s_lp_Variant>
AV-unprocessed.smi:21-33

> <Gold.Version>
5.8.1

> <Gold.Id.Protein>
6NUR|6NUR_protein|mol2

> <Gold.PLP.Fitness>
45.3902

> <Gold.PLP.PLP>
-43.5891

> <Gold.PLP.part.hbond>
-2.3604

> <Gold.PLP.part.metal>
0.0000

> <Gold.PLP.part.buried>
-5.2728

> <Gold.PLP.part.nonpolar>
-36.1970

> <Gold.PLP.part.repulsive>
0.2621

> <Gold.PLP.ligand.clash>
0.0438

> <Gold.PLP.ligand.torsion>
2.4793

> <Gold.PLP.Chemscore.Hbond>
2.0000

> <Gold.PLP.Chemscore.CHOScore>
0.0000

> <Gold.PLP.Chemscore.Metal>
0.0000

> <Gold.Chemscore.Hbonds>
donor molecule, donor type, donor heavy atom, donor atom, acceptor molecule, acceptor atom, score
      L1  H    21    49       P1 10747  1.00
      P1  H 10752 10763       L1    15  0.95

> <Gold.PLP.Chemscore.Internal.Correction>
0.8034

> <Gold.Rescore>
     Score         DG    S(hbond)    S(metal)    S(lipo)     H(rot)  DE(clash)    DE(int)     intcor
     13.43     -15.99       1.86        0.00     102.47       3.00       0.05       2.52       ----

> <Gold.Chemscore.Fitness>
13.4279

> <Gold.Chemscore.DG>
-15.9920

> <Gold.Chemscore.ZeroCoef>
-5.4800

> <Gold.Chemscore.Hbond>
1.8597

> <Gold.Chemscore.Metal>
0.0000

> <Gold.Chemscore.Lipo>
102.4669

> <Gold.Chemscore.Internal_Hbond>
0.0000

> <Gold.Chemscore.DEClash>
0.0490

> <Gold.Chemscore.DEInternal>
2.5151

> <Gold.Chemscore.Rot>
3.0031

> <Gold.Chemscore.Internal.Correction>
   9.000000E+99

> <Gold.Chemscore.Hbonds>
donor molecule, donor type, donor heavy atom, donor atom, acceptor molecule, acceptor atom, score
      L1  H    21    49       P1 10747  0.98
      P1  H 10752 10763       L1    15  0.22

> <Gold.Chemscore.Hbond.Weighted>
-6.2113

> <Gold.Chemscore.Metal.Weighted>
-0.0000

> <Gold.Chemscore.Lipo.Weighted>
-11.9886

> <Gold.Chemscore.Internal_Hbond.Weighted>
0.0000

> <Gold.Chemscore.DEClash.Weighted>
0.0490

> <Gold.Chemscore.DEInternal.Weighted>
2.5151

> <Gold.Chemscore.Rot.Weighted>
7.6880

> <Gold.Chemscore.Internal.Correction.Weighted>
   9.000000E+99

> <Gold.Protein.RotatedTorsions>
[ 6907 6896 6895 6894 ] final  -45.62 input  -60.11 | X-H torsion
[ 7974 7965 7964 7962 ] final  123.30 input  175.53 | X-H torsion
[ 8008 7997 7996 7995 ] final   93.81 input   59.86 | X-H torsion
[ 10167 10162 10161 10158 ] final  100.29 input  -65.29 | X-H torsion
[ 10718 10713 10712 10709 ] final   43.59 input   66.30 | X-H torsion
[ 10763 10752 10751 10750 ] final   82.58 input  -60.55 | X-H torsion
[ 11005 11000 10999 10996 ] final  -94.40 input  -57.11 | X-H torsion

> <Gold.Protein.ActiveResidues>
 VAL166  LYS551  ARG553  GLY616  TRP617  ASP618  TYR619  PRO620  LYS621  CYS622 
 ASP623  PHE694  ASN695  SER759  ASP760  ASP761  ALA762  ILE779  LEU786  VAL792 
 PHE793  MET794  SER795  GLU796  ALA797  LYS798  CYS799  TRP800  GLU811  SER814 

> <Gold.Protein.RotatedAtoms>
  150.9200  134.8618  159.7482 H   0  0  0  0  0  0  0  0  0  0  0  0  # atno 6907 bound_to 6896
  152.4988  134.4232  159.9497 H   0  0  0  0  0  0  0  0  0  0  0  0  # atno 6908 bound_to 6896
  151.4267  133.3642  159.2798 H   0  0  0  0  0  0  0  0  0  0  0  0  # atno 6909 bound_to 6896
  145.0975  139.3542  143.4829 H   0  0  0  0  0  0  0  0  0  0  0  0  # atno 7974 bound_to 7965
  156.0510  140.3308  155.7351 H   0  0  0  0  0  0  0  0  0  0  0  0  # atno 8008 bound_to 7997
  155.5601  140.0618  157.2848 H   0  0  0  0  0  0  0  0  0  0  0  0  # atno 8009 bound_to 7997
  154.4435  140.1879  156.0762 H   0  0  0  0  0  0  0  0  0  0  0  0  # atno 8010 bound_to 7997
  139.7541  144.6975  151.0389 H   0  0  0  0  0  0  0  0  0  0  0  0  # atno 10167 bound_to 10162
  157.4176  130.7950  149.7486 H   0  0  0  0  0  0  0  0  0  0  0  0  # atno 10718 bound_to 10713
  153.1215  135.4723  154.9204 H   0  0  0  0  0  0  0  0  0  0  0  0  # atno 10763 bound_to 10752
  154.7580  135.3124  154.8435 H   0  0  0  0  0  0  0  0  0  0  0  0  # atno 10764 bound_to 10752
  153.8998  135.6876  153.4809 H   0  0  0  0  0  0  0  0  0  0  0  0  # atno 10765 bound_to 10752
  141.1471  133.7953  157.0292 H   0  0  0  0  0  0  0  0  0  0  0  0  # atno 11005 bound_to 11000
  146.3530  140.0838  142.8616 LP  0  0  0  0  0  0  0  0  0  0  0  0  # atno 17320 bound_to 7965
  145.0993  140.9336  143.4722 LP  0  0  0  0  0  0  0  0  0  0  0  0  # atno 17321 bound_to 7965
  140.7801  143.4774  151.0064 LP  0  0  0  0  0  0  0  0  0  0  0  0  # atno 17342 bound_to 10162
  139.8461  143.7499  152.3179 LP  0  0  0  0  0  0  0  0  0  0  0  0  # atno 17343 bound_to 10162
  155.9870  130.3970  150.3185 LP  0  0  0  0  0  0  0  0  0  0  0  0  # atno 17370 bound_to 10713
  157.1330  131.0276  151.2961 LP  0  0  0  0  0  0  0  0  0  0  0  0  # atno 17371 bound_to 10713
  140.0765  134.9673  157.1553 LP  0  0  0  0  0  0  0  0  0  0  0  0  # atno 17394 bound_to 11000
  140.3637  134.2466  155.7184 LP  0  0  0  0  0  0  0  0  0  0  0  0  # atno 17395 bound_to 11000

$$$$
