AV-unprocessed.smi:2418|AV-procd|sdf|9551|dock7
  -GOLD-   2272013183D 1   1.00000     0.00000
 Structure written by MMmdl.
 34 35  0  0  0  0  0  0  0  0  1 V2000
  145.6282  141.1089  155.8551 C   0  0  0  0  0  0  0  0  0  0  0  0
  147.1463  141.0871  155.8698 C   0  0  0  0  0  0  0  0  0  0  0  0
  147.7490  141.7152  156.9636 N   0  0  0  0  0  0  0  0  0  0  0  0
  149.0382  141.7513  157.0567 C   0  0  0  0  0  0  0  0  0  0  0  0
  149.8648  141.1665  156.0835 N   0  0  0  0  0  0  0  0  0  0  0  0
  151.3162  141.2846  156.3028 C   0  0  0  0  0  0  0  0  0  0  0  0
  151.7659  140.6049  157.6153 C   0  0  1  0  0  0  0  0  0  0  0  0
  152.8436  139.7346  157.3263 O   0  0  0  0  0  0  0  0  0  0  0  0
  152.1506  141.6434  158.6616 C   0  0  0  0  0  0  0  0  0  0  0  0
  151.8016  143.0016  158.4847 C   0  0  0  0  0  0  0  0  0  0  0  0
  152.1519  143.9598  159.4554 C   0  0  0  0  0  0  0  0  0  0  0  0
  151.8162  145.2591  159.2760 F   0  0  0  0  0  0  0  0  0  0  0  0
  152.8494  143.5670  160.6130 C   0  0  0  0  0  0  0  0  0  0  0  0
  153.1930  142.2148  160.8004 C   0  0  0  0  0  0  0  0  0  0  0  0
  152.8438  141.2544  159.8308 C   0  0  0  0  0  0  0  0  0  0  0  0
  153.1766  139.9568  160.0329 F   0  0  0  0  0  0  0  0  0  0  0  0
  149.3590  140.5342  154.9852 C   0  0  0  0  0  0  0  0  0  0  0  0
  150.0937  140.0298  154.1336 O   0  0  0  0  0  0  0  0  0  0  0  0
  147.8906  140.5046  154.8905 C   0  0  0  0  0  0  0  0  0  0  0  0
  147.2903  139.8115  153.6737 C   0  0  0  0  0  0  0  0  0  0  0  0
  145.2306  140.0939  155.8382 H   0  0  0  0  0  0  0  0  0  0  0  0
  145.2638  141.6415  154.9761 H   0  0  0  0  0  0  0  0  0  0  0  0
  145.2288  141.6087  156.7386 H   0  0  0  0  0  0  0  0  0  0  0  0
  149.5578  142.2367  157.8847 H   0  0  0  0  0  0  0  0  0  0  0  0
  151.8984  140.9113  155.4576 H   0  0  0  0  0  0  0  0  0  0  0  0
  151.5617  142.3476  156.3478 H   0  0  0  0  0  0  0  0  0  0  0  0
  150.9597  139.9909  158.0175 H   0  0  0  0  0  0  0  0  0  0  0  0
  152.4951  138.8720  157.1597 H   0  0  0  0  0  0  0  0  0  0  0  0
  151.2611  143.3144  157.6032 H   0  0  0  0  0  0  0  0  0  0  0  0
  153.1185  144.3011  161.3581 H   0  0  0  0  0  0  0  0  0  0  0  0
  153.7241  141.9124  161.6910 H   0  0  0  0  0  0  0  0  0  0  0  0
  147.6373  140.2925  152.7584 H   0  0  0  0  0  0  0  0  0  0  0  0
  146.2018  139.8310  153.6610 H   0  0  0  0  0  0  0  0  0  0  0  0
  147.6005  138.7664  153.6451 H   0  0  0  0  0  0  0  0  0  0  0  0
  1  2  1  0  0  0  0
  1 21  1  0  0  0  0
  1 22  1  0  0  0  0
  1 23  1  0  0  0  0
  2 19  2  0  0  0  0
  2  3  1  0  0  0  0
  3  4  2  0  0  0  0
  4  5  1  0  0  0  0
  4 24  1  0  0  0  0
  5  6  1  0  0  0  0
  5 17  1  0  0  0  0
  6  7  1  0  0  0  0
  6 25  1  0  0  0  0
  6 26  1  0  0  0  0
  7  8  1  0  0  0  0
  7  9  1  0  0  0  0
  7 27  1  0  0  0  0
  8 28  1  0  0  0  0
  9 15  1  0  0  0  0
  9 10  2  0  0  0  0
 10 11  1  0  0  0  0
 10 29  1  0  0  0  0
 11 12  1  0  0  0  0
 11 13  2  0  0  0  0
 13 14  1  0  0  0  0
 13 30  1  0  0  0  0
 14 15  2  0  0  0  0
 14 31  1  0  0  0  0
 15 16  1  0  0  0  0
 17 18  2  0  0  0  0
 17 19  1  0  0  0  0
 19 20  1  0  0  0  0
 20 32  1  0  0  0  0
 20 33  1  0  0  0  0
 20 34  1  0  0  0  0
M  END
> <s_m_source_file>
AV-unprocessed.smi

> <i_m_source_file_index>
2418

> <i_lp_mmshare_version>
43012

> <i_f3d_flags>
0

> <s_epik_input>
W0NIM11jMW5bY0hdbihjKD1PKWMxW0NIM10pW0NIMl1bQ0BIXShbT0hdKWMyW2NIXWMoRilbY0hdW2NIXWMyRg==

> <s_epik_cmdline>
J2VwaWtfcHl0aG9uJywgJy1waCcsICc3LjAnLCAnLXRuJywgJzgnLCAnLW1hJywgJzIwMCcsICctbWV0YWxfYmluZGluZycsICctaW1hZScsICc8aW5maWxlLm1hZT4nLCAnLW9tYWUnLCAnPG91dGZpbGUubWFlPic=

> <r_lp_tautomer_probability>
1

> <r_epik_Ionization_Penalty>
5.08222e-05

> <r_epik_Ionization_Penalty_Charging>
7.56727e-08

> <r_epik_Ionization_Penalty_Neutral>
5.07465e-05

> <r_epik_State_Penalty>
-0

> <r_epik_Charging_Adjusted_Penalty>
7.56727e-08

> <i_epik_Tot_Q>
0

> <i_epik_Tot_abs_Q>
0

> <r_epik_Metal_State_Penalty>
-0

> <b_epik_Metal_Only>
0

> <s_lp_Force_Field>
OPLS_2005

> <r_lp_Energy>
18.8119

> <b_lp_Chiralities_Consistent>
1

> <s_lp_Variant>
AV-unprocessed.smi:2418-2

> <Gold.Version>
5.8.1

> <Gold.Id.Protein>
6NUR|6NUR_protein|mol2

> <Gold.PLP.Fitness>
44.2800

> <Gold.PLP.PLP>
-40.7899

> <Gold.PLP.part.hbond>
-2.0000

> <Gold.PLP.part.metal>
0.0000

> <Gold.PLP.part.buried>
-5.1562

> <Gold.PLP.part.nonpolar>
-34.8557

> <Gold.PLP.part.repulsive>
1.8767

> <Gold.PLP.ligand.clash>
0.0000

> <Gold.PLP.ligand.torsion>
1.0309

> <Gold.PLP.Chemscore.Hbond>
1.8480

> <Gold.PLP.Chemscore.CHOScore>
0.0000

> <Gold.PLP.Chemscore.Metal>
0.0000

> <Gold.Chemscore.Hbonds>
donor molecule, donor type, donor heavy atom, donor atom, acceptor molecule, acceptor atom, score
      P1  H  7989  7998       L1    18  0.98
      P1  H  7997  8010       L1     8  1.00

> <Gold.PLP.Chemscore.Internal.Correction>
0.0080

> <Gold.Rescore>
     Score         DG    S(hbond)    S(metal)    S(lipo)     H(rot)  DE(clash)    DE(int)     intcor
     14.14     -17.21       1.87        0.00      93.14       2.11       0.90       2.17       ----

> <Gold.Chemscore.Fitness>
14.1364

> <Gold.Chemscore.DG>
-17.2122

> <Gold.Chemscore.ZeroCoef>
-5.4800

> <Gold.Chemscore.Hbond>
1.8668

> <Gold.Chemscore.Metal>
0.0000

> <Gold.Chemscore.Lipo>
93.1450

> <Gold.Chemscore.Internal_Hbond>
0.0000

> <Gold.Chemscore.DEClash>
0.9017

> <Gold.Chemscore.DEInternal>
2.1742

> <Gold.Chemscore.Rot>
2.1097

> <Gold.Chemscore.Internal.Correction>
   9.000000E+99

> <Gold.Chemscore.Hbonds>
donor molecule, donor type, donor heavy atom, donor atom, acceptor molecule, acceptor atom, score
      P1  H  7989  7998       L1    18  0.93
      P1  H  7997  8010       L1     8  0.94

> <Gold.Chemscore.Hbond.Weighted>
-6.2352

> <Gold.Chemscore.Metal.Weighted>
-0.0000

> <Gold.Chemscore.Lipo.Weighted>
-10.8980

> <Gold.Chemscore.Internal_Hbond.Weighted>
0.0000

> <Gold.Chemscore.DEClash.Weighted>
0.9017

> <Gold.Chemscore.DEInternal.Weighted>
2.1742

> <Gold.Chemscore.Rot.Weighted>
5.4009

> <Gold.Chemscore.Internal.Correction.Weighted>
   9.000000E+99

> <Gold.Protein.RotatedTorsions>
[ 6907 6896 6895 6894 ] final  -51.07 input  -60.11 | X-H torsion
[ 7974 7965 7964 7962 ] final -150.83 input  175.53 | X-H torsion
[ 8008 7997 7996 7995 ] final   61.09 input   59.86 | X-H torsion
[ 10167 10162 10161 10158 ] final -170.13 input  -65.29 | X-H torsion
[ 10718 10713 10712 10709 ] final   39.20 input   66.30 | X-H torsion
[ 10763 10752 10751 10750 ] final  -19.73 input  -60.55 | X-H torsion
[ 11005 11000 10999 10996 ] final   38.74 input  -57.11 | X-H torsion

> <Gold.Protein.ActiveResidues>
 VAL166  LYS551  ARG553  GLY616  TRP617  ASP618  TYR619  PRO620  LYS621  CYS622 
 ASP623  PHE694  ASN695  SER759  ASP760  ASP761  ALA762  ILE779  LEU786  VAL792 
 PHE793  MET794  SER795  GLU796  ALA797  LYS798  CYS799  TRP800  GLU811  SER814 

> <Gold.Protein.RotatedAtoms>
  150.8646  134.8007  159.7108 H   0  0  0  0  0  0  0  0  0  0  0  0  # atno 6907 bound_to 6896
  152.4672  134.5044  159.9744 H   0  0  0  0  0  0  0  0  0  0  0  0  # atno 6908 bound_to 6896
  151.5142  133.3440  159.2926 H   0  0  0  0  0  0  0  0  0  0  0  0  # atno 6909 bound_to 6896
  144.7885  140.4879  143.5789 H   0  0  0  0  0  0  0  0  0  0  0  0  # atno 7974 bound_to 7965
  155.5929  140.3493  155.4571 H   0  0  0  0  0  0  0  0  0  0  0  0  # atno 8008 bound_to 7997
  156.0288  140.1270  157.0305 H   0  0  0  0  0  0  0  0  0  0  0  0  # atno 8009 bound_to 7997
  154.4344  140.1047  156.6055 H   0  0  0  0  0  0  0  0  0  0  0  0  # atno 8010 bound_to 7997
  139.5880  144.1274  152.1600 H   0  0  0  0  0  0  0  0  0  0  0  0  # atno 10167 bound_to 10162
  157.3677  130.7684  149.7095 H   0  0  0  0  0  0  0  0  0  0  0  0  # atno 10718 bound_to 10713
  153.6093  135.6997  153.5353 H   0  0  0  0  0  0  0  0  0  0  0  0  # atno 10763 bound_to 10752
  153.3030  135.4123  155.1269 H   0  0  0  0  0  0  0  0  0  0  0  0  # atno 10764 bound_to 10752
  154.8566  135.3653  154.5631 H   0  0  0  0  0  0  0  0  0  0  0  0  # atno 10765 bound_to 10752
  140.2097  134.3770  155.8055 H   0  0  0  0  0  0  0  0  0  0  0  0  # atno 11005 bound_to 11000
  145.5858  139.1492  143.3210 LP  0  0  0  0  0  0  0  0  0  0  0  0  # atno 17320 bound_to 7965
  146.2127  140.5986  142.9052 LP  0  0  0  0  0  0  0  0  0  0  0  0  # atno 17321 bound_to 7965
  140.0843  144.5675  150.7100 LP  0  0  0  0  0  0  0  0  0  0  0  0  # atno 17342 bound_to 10162
  140.7149  143.2536  151.4466 LP  0  0  0  0  0  0  0  0  0  0  0  0  # atno 17343 bound_to 10162
  155.9749  130.4096  150.3886 LP  0  0  0  0  0  0  0  0  0  0  0  0  # atno 17370 bound_to 10713
  157.1973  131.0429  151.2669 LP  0  0  0  0  0  0  0  0  0  0  0  0  # atno 17371 bound_to 10713
  141.2226  133.7136  156.8397 LP  0  0  0  0  0  0  0  0  0  0  0  0  # atno 17394 bound_to 11000
  140.1964  134.8928  157.3119 LP  0  0  0  0  0  0  0  0  0  0  0  0  # atno 17395 bound_to 11000

$$$$
