AV-unprocessed.smi:630|AV-procd|sdf|3119|dock9
  -GOLD-   22720 0 43D 1   1.00000     0.00000
 Structure written by MMmdl.
 37 38  0  0  0  0  0  0  0  0  1 V2000
  148.6057  134.0884  153.4674 N   0  0  0  0  0  0  0  0  0  0  0  0
  147.5846  133.2618  153.7091 C   0  0  0  0  0  0  0  0  0  0  0  0
  147.6471  132.3874  154.5725 O   0  0  0  0  0  0  0  0  0  0  0  0
  146.3044  133.4561  152.8697 C   0  0  2  0  0  0  0  0  0  0  0  0
  146.5362  133.0711  151.3877 C   0  0  0  0  0  0  0  0  0  0  0  0
  145.3292  132.3378  150.7732 C   0  0  0  0  0  0  0  0  0  0  0  0
  144.1065  133.2266  150.4936 C   0  0  0  0  0  0  0  0  0  0  0  0
  143.5849  134.0216  151.7044 C   0  0  0  0  0  0  0  0  0  0  0  0
  144.5057  135.1941  152.0831 C   0  0  0  0  0  0  0  0  0  0  0  0
  145.6588  134.8618  153.0600 C   0  0  2  0  0  0  0  0  0  0  0  0
  146.6462  135.9438  153.0050 N   0  0  0  0  0  0  0  0  0  0  0  0
  146.4773  137.1814  153.4925 C   0  0  0  0  0  0  0  0  0  0  0  0
  145.4423  137.5607  154.0405 O   0  0  0  0  0  0  0  0  0  0  0  0
  147.5747  137.9310  153.3017 N   0  0  0  0  0  0  0  0  0  0  0  0
  147.7744  139.2850  153.6677 C   0  0  0  0  0  0  0  0  0  0  0  0
  146.8075  140.1700  153.4189 N   0  0  0  0  0  0  0  0  0  0  0  0
  147.1538  141.4576  153.8389 C   0  0  0  0  0  0  0  0  0  0  0  0
  148.3999  141.5356  154.4098 C   0  0  0  0  0  0  0  0  0  0  0  0
  149.1961  139.9855  154.4457 S   0  0  0  0  0  0  0  0  0  0  0  0
  149.4630  133.9915  153.9922 H   0  0  0  0  0  0  0  0  0  0  0  0
  148.5204  134.8035  152.7597 H   0  0  0  0  0  0  0  0  0  0  0  0
  145.5947  132.7316  153.2728 H   0  0  0  0  0  0  0  0  0  0  0  0
  146.7960  133.9476  150.7929 H   0  0  0  0  0  0  0  0  0  0  0  0
  147.3918  132.3988  151.3044 H   0  0  0  0  0  0  0  0  0  0  0  0
  145.6401  131.8848  149.8313 H   0  0  0  0  0  0  0  0  0  0  0  0
  145.0383  131.5045  151.4139 H   0  0  0  0  0  0  0  0  0  0  0  0
  144.3355  133.9133  149.6777 H   0  0  0  0  0  0  0  0  0  0  0  0
  143.3025  132.5905  150.1219 H   0  0  0  0  0  0  0  0  0  0  0  0
  142.6139  134.4353  151.4302 H   0  0  0  0  0  0  0  0  0  0  0  0
  143.3976  133.3710  152.5592 H   0  0  0  0  0  0  0  0  0  0  0  0
  144.9029  135.6400  151.1698 H   0  0  0  0  0  0  0  0  0  0  0  0
  143.8974  135.9774  152.5376 H   0  0  0  0  0  0  0  0  0  0  0  0
  145.2324  134.8509  154.0654 H   0  0  0  0  0  0  0  0  0  0  0  0
  147.5328  135.7217  152.5759 H   0  0  0  0  0  0  0  0  0  0  0  0
  148.3534  137.4855  152.8389 H   0  0  0  0  0  0  0  0  0  0  0  0
  146.4505  142.2637  153.6918 H   0  0  0  0  0  0  0  0  0  0  0  0
  148.8960  142.4072  154.8100 H   0  0  0  0  0  0  0  0  0  0  0  0
  1  2  1  0  0  0  0
  1 20  1  0  0  0  0
  1 21  1  0  0  0  0
  2  3  2  0  0  0  0
  2  4  1  0  0  0  0
  4 10  1  0  0  0  0
  4  5  1  0  0  0  0
  4 22  1  0  0  0  0
  5  6  1  0  0  0  0
  5 23  1  0  0  0  0
  5 24  1  0  0  0  0
  6  7  1  0  0  0  0
  6 25  1  0  0  0  0
  6 26  1  0  0  0  0
  7  8  1  0  0  0  0
  7 27  1  0  0  0  0
  7 28  1  0  0  0  0
  8  9  1  0  0  0  0
  8 29  1  0  0  0  0
  8 30  1  0  0  0  0
  9 10  1  0  0  0  0
  9 31  1  0  0  0  0
  9 32  1  0  0  0  0
 10 11  1  0  0  0  0
 10 33  1  0  0  0  0
 11 12  1  0  0  0  0
 11 34  1  0  0  0  0
 12 13  2  0  0  0  0
 12 14  1  0  0  0  0
 14 15  1  0  0  0  0
 14 35  1  0  0  0  0
 15 19  1  0  0  0  0
 15 16  2  0  0  0  0
 16 17  1  0  0  0  0
 17 18  2  0  0  0  0
 17 36  1  0  0  0  0
 18 19  1  0  0  0  0
 18 37  1  0  0  0  0
M  END
> <s_m_source_file>
AV-unprocessed.smi

> <i_m_source_file_index>
630

> <i_lp_mmshare_version>
43012

> <i_f3d_flags>
0

> <s_epik_input>
W05IMl1DKD1PKVtDQEBIXTFbQ0gyXVtDSDJdW0NIMl1bQ0gyXVtDSDJdW0NASF0xW05IXUMoPU8pW05IXWMybltjSF1bY0hdczI=

> <s_epik_cmdline>
J2VwaWtfcHl0aG9uJywgJy1waCcsICc3LjAnLCAnLXRuJywgJzgnLCAnLW1hJywgJzIwMCcsICctbWV0YWxfYmluZGluZycsICctaW1hZScsICc8aW5maWxlLm1hZT4nLCAnLW9tYWUnLCAnPG91dGZpbGUubWFlPic=

> <r_lp_tautomer_probability>
0.999

> <r_epik_Ionization_Penalty>
0.000342689

> <r_epik_Ionization_Penalty_Charging>
0

> <r_epik_Ionization_Penalty_Neutral>
0.000342689

> <r_epik_State_Penalty>
0.000177984

> <r_epik_Charging_Adjusted_Penalty>
0.000177984

> <i_epik_Tot_Q>
0

> <i_epik_Tot_abs_Q>
0

> <r_epik_Metal_State_Penalty>
0.00743087

> <b_epik_Metal_Only>
0

> <s_lp_Force_Field>
OPLS_2005

> <r_lp_Energy>
11.6017

> <b_lp_Chiralities_Consistent>
1

> <s_lp_Variant>
AV-unprocessed.smi:630-3

> <Gold.Version>
5.8.1

> <Gold.Id.Protein>
6NUR|6NUR_protein|mol2

> <Gold.PLP.Fitness>
40.0949

> <Gold.PLP.PLP>
-29.2387

> <Gold.PLP.part.hbond>
-3.0000

> <Gold.PLP.part.metal>
0.0000

> <Gold.PLP.part.buried>
-2.7706

> <Gold.PLP.part.nonpolar>
-23.3069

> <Gold.PLP.part.repulsive>
0.3613

> <Gold.PLP.ligand.clash>
0.0000

> <Gold.PLP.ligand.torsion>
0.6379

> <Gold.PLP.Chemscore.Hbond>
3.0000

> <Gold.PLP.Chemscore.CHOScore>
1.0000

> <Gold.PLP.Chemscore.Metal>
0.0000

> <Gold.Chemscore.Hbonds>
donor molecule, donor type, donor heavy atom, donor atom, acceptor molecule, acceptor atom, score
      L1  H     1    21       P1  7948  1.00
      L1  H    11    34       P1  7948  1.00
      L1  H    14    35       P1  7948  1.00
      L1  C    18    37       P1  8028  1.00

> <Gold.PLP.Chemscore.Internal.Correction>
0.1320

> <Gold.Rescore>
     Score         DG    S(hbond)    S(metal)    S(lipo)     H(rot)  DE(clash)    DE(int)     intcor
     15.35     -17.96       2.78        0.00      60.44       1.52       0.02       2.59       ----

> <Gold.Chemscore.Fitness>
15.3455

> <Gold.Chemscore.DG>
-17.9596

> <Gold.Chemscore.ZeroCoef>
-5.4800

> <Gold.Chemscore.Hbond>
2.7832

> <Gold.Chemscore.Metal>
0.0000

> <Gold.Chemscore.Lipo>
60.4359

> <Gold.Chemscore.Internal_Hbond>
0.0000

> <Gold.Chemscore.DEClash>
0.0195

> <Gold.Chemscore.DEInternal>
2.5945

> <Gold.Chemscore.Rot>
1.5184

> <Gold.Chemscore.Internal.Correction>
   9.000000E+99

> <Gold.Chemscore.Hbonds>
donor molecule, donor type, donor heavy atom, donor atom, acceptor molecule, acceptor atom, score
      L1  H     1    21       P1  7948  0.30
      L1  H    11    34       P1  7948  0.95
      L1  H    14    35       P1  7948  0.94

> <Gold.Chemscore.Hbond.Weighted>
-9.2957

> <Gold.Chemscore.Metal.Weighted>
-0.0000

> <Gold.Chemscore.Lipo.Weighted>
-7.0710

> <Gold.Chemscore.Internal_Hbond.Weighted>
0.0000

> <Gold.Chemscore.DEClash.Weighted>
0.0195

> <Gold.Chemscore.DEInternal.Weighted>
2.5945

> <Gold.Chemscore.Rot.Weighted>
3.8872

> <Gold.Chemscore.Internal.Correction.Weighted>
   9.000000E+99

> <Gold.Protein.RotatedTorsions>
[ 6907 6896 6895 6894 ] final   53.95 input  -60.11 | X-H torsion
[ 7974 7965 7964 7962 ] final  -95.49 input  175.53 | X-H torsion
[ 8008 7997 7996 7995 ] final   37.60 input   59.86 | X-H torsion
[ 10167 10162 10161 10158 ] final  -96.06 input  -65.29 | X-H torsion
[ 10718 10713 10712 10709 ] final  115.64 input   66.30 | X-H torsion
[ 10763 10752 10751 10750 ] final   72.87 input  -60.55 | X-H torsion
[ 11005 11000 10999 10996 ] final   73.35 input  -57.11 | X-H torsion

> <Gold.Protein.ActiveResidues>
 VAL166  LYS551  ARG553  GLY616  TRP617  ASP618  TYR619  PRO620  LYS621  CYS622 
 ASP623  PHE694  ASN695  SER759  ASP760  ASP761  ALA762  ILE779  LEU786  VAL792 
 PHE793  MET794  SER795  GLU796  ALA797  LYS798  CYS799  TRP800  GLU811  SER814 

> <Gold.Protein.RotatedAtoms>
  152.3389  134.7161  160.0268 H   0  0  0  0  0  0  0  0  0  0  0  0  # atno 6907 bound_to 6896
  151.7552  133.3324  159.3410 H   0  0  0  0  0  0  0  0  0  0  0  0  # atno 6908 bound_to 6896
  150.7467  134.6088  159.6120 H   0  0  0  0  0  0  0  0  0  0  0  0  # atno 6909 bound_to 6896
  145.3594  140.9489  143.2509 H   0  0  0  0  0  0  0  0  0  0  0  0  # atno 7974 bound_to 7965
  155.2065  140.3320  155.4335 H   0  0  0  0  0  0  0  0  0  0  0  0  # atno 8008 bound_to 7997
  156.2387  140.1884  156.7098 H   0  0  0  0  0  0  0  0  0  0  0  0  # atno 8009 bound_to 7997
  154.6106  140.0609  156.9475 H   0  0  0  0  0  0  0  0  0  0  0  0  # atno 8010 bound_to 7997
  140.2977  143.3181  152.0280 H   0  0  0  0  0  0  0  0  0  0  0  0  # atno 10167 bound_to 10162
  157.6209  131.1015  150.7359 H   0  0  0  0  0  0  0  0  0  0  0  0  # atno 10718 bound_to 10713
  153.0485  135.5084  154.7808 H   0  0  0  0  0  0  0  0  0  0  0  0  # atno 10763 bound_to 10752
  154.6689  135.2950  154.9771 H   0  0  0  0  0  0  0  0  0  0  0  0  # atno 10764 bound_to 10752
  154.0596  135.6692  153.4863 H   0  0  0  0  0  0  0  0  0  0  0  0  # atno 10765 bound_to 10752
  139.9444  134.7339  156.1016 H   0  0  0  0  0  0  0  0  0  0  0  0  # atno 11005 bound_to 11000
  144.8658  139.5110  143.6791 LP  0  0  0  0  0  0  0  0  0  0  0  0  # atno 17320 bound_to 7965
  146.2934  139.7205  142.9144 LP  0  0  0  0  0  0  0  0  0  0  0  0  # atno 17321 bound_to 7965
  139.4922  144.6478  151.6740 LP  0  0  0  0  0  0  0  0  0  0  0  0  # atno 17342 bound_to 10162
  140.5678  144.0161  150.6201 LP  0  0  0  0  0  0  0  0  0  0  0  0  # atno 17343 bound_to 10162
  156.7716  130.4831  149.5417 LP  0  0  0  0  0  0  0  0  0  0  0  0  # atno 17370 bound_to 10713
  156.1355  130.6208  151.0394 LP  0  0  0  0  0  0  0  0  0  0  0  0  # atno 17371 bound_to 10713
  141.1090  133.6650  156.2932 LP  0  0  0  0  0  0  0  0  0  0  0  0  # atno 17394 bound_to 11000
  140.5871  134.5688  157.5492 LP  0  0  0  0  0  0  0  0  0  0  0  0  # atno 17395 bound_to 11000

$$$$
