AV-unprocessed.smi:2925|AV-procd|sdf|11225|dock9
  -GOLD-   2272016113D 1   1.00000     0.00000
 Structure written by MMmdl.
 44 45  0  0  0  0  0  0  0  0  1 V2000
  149.6704  136.2304  157.7369 C   0  0  0  0  0  0  0  0  0  0  0  0
  148.9443  135.9686  156.4089 C   0  0  0  0  0  0  0  0  0  0  0  0
  149.8626  135.4238  155.2947 C   0  0  1  0  0  0  0  0  0  0  0  0
  149.0517  135.0535  154.1350 N   0  0  0  0  0  0  0  0  0  0  0  0
  148.2404  133.9892  154.0573 C   0  0  0  0  0  0  0  0  0  0  0  0
  148.0658  133.1881  154.9766 O   0  0  0  0  0  0  0  0  0  0  0  0
  147.6723  133.8964  152.8421 N   0  0  0  0  0  0  0  0  0  0  0  0
  146.8211  132.8692  152.4073 C   0  0  0  0  0  0  0  0  0  0  0  0
  145.7057  133.1919  151.7010 C   0  0  0  0  0  0  0  0  0  0  0  0
  145.3782  134.6310  151.3358 C   0  0  0  0  0  0  0  0  0  0  0  0
  144.8198  132.1334  151.2627 C   0  0  0  0  0  0  0  0  0  0  0  0
  145.1118  130.8616  151.5662 C   0  0  0  0  0  0  0  0  0  0  0  0
  146.2493  130.5252  152.3144 N   0  0  0  0  0  0  0  0  0  0  0  0
  146.4713  129.1072  152.6102 C   0  0  0  0  0  0  0  0  0  0  0  0
  147.1137  131.4670  152.7906 C   0  0  0  0  0  0  0  0  0  0  0  0
  148.0633  131.1472  153.5094 O   0  0  0  0  0  0  0  0  0  0  0  0
  150.9357  136.4475  154.8644 C   0  0  1  0  0  0  0  0  0  0  0  0
  150.4185  137.8764  154.6774 C   0  0  0  0  0  0  0  0  0  0  0  0
  151.6624  138.6961  154.9300 C   0  0  0  0  0  0  0  0  0  0  0  0
  152.3079  137.9212  156.0720 C   0  0  0  0  0  0  0  0  0  0  0  0
  151.9567  136.5580  155.8573 O   0  0  0  0  0  0  0  0  0  0  0  0
  148.9893  136.6622  158.4704 H   0  0  0  0  0  0  0  0  0  0  0  0
  150.4969  136.9282  157.6008 H   0  0  0  0  0  0  0  0  0  0  0  0
  150.0734  135.3121  158.1645 H   0  0  0  0  0  0  0  0  0  0  0  0
  148.1193  135.2760  156.5796 H   0  0  0  0  0  0  0  0  0  0  0  0
  148.4902  136.9046  156.0830 H   0  0  0  0  0  0  0  0  0  0  0  0
  150.3693  134.5396  155.6864 H   0  0  0  0  0  0  0  0  0  0  0  0
  149.1304  135.6473  153.3228 H   0  0  0  0  0  0  0  0  0  0  0  0
  147.9841  134.5424  152.1321 H   0  0  0  0  0  0  0  0  0  0  0  0
  144.4627  134.6907  150.7465 H   0  0  0  0  0  0  0  0  0  0  0  0
  146.1849  135.0690  150.7469 H   0  0  0  0  0  0  0  0  0  0  0  0
  145.2390  135.2320  152.2349 H   0  0  0  0  0  0  0  0  0  0  0  0
  143.9333  132.3602  150.6885 H   0  0  0  0  0  0  0  0  0  0  0  0
  144.4915  130.0304  151.2644 H   0  0  0  0  0  0  0  0  0  0  0  0
  147.4769  128.8028  152.3162 H   0  0  0  0  0  0  0  0  0  0  0  0
  145.7732  128.4539  152.0857 H   0  0  0  0  0  0  0  0  0  0  0  0
  146.3584  128.9199  153.6789 H   0  0  0  0  0  0  0  0  0  0  0  0
  151.4164  136.1215  153.9404 H   0  0  0  0  0  0  0  0  0  0  0  0
  149.9906  138.0482  153.6893 H   0  0  0  0  0  0  0  0  0  0  0  0
  149.6600  138.1136  155.4250 H   0  0  0  0  0  0  0  0  0  0  0  0
  152.3076  138.6806  154.0506 H   0  0  0  0  0  0  0  0  0  0  0  0
  151.4509  139.7349  155.1843 H   0  0  0  0  0  0  0  0  0  0  0  0
  153.3893  138.0540  156.1094 H   0  0  0  0  0  0  0  0  0  0  0  0
  151.8933  138.2382  157.0298 H   0  0  0  0  0  0  0  0  0  0  0  0
  1  2  1  0  0  0  0
  1 22  1  0  0  0  0
  1 23  1  0  0  0  0
  1 24  1  0  0  0  0
  2  3  1  0  0  0  0
  2 25  1  0  0  0  0
  2 26  1  0  0  0  0
  3  4  1  0  0  0  0
  3 17  1  0  0  0  0
  3 27  1  0  0  0  0
  4  5  1  0  0  0  0
  4 28  1  0  0  0  0
  5  6  2  0  0  0  0
  5  7  1  0  0  0  0
  7  8  1  0  0  0  0
  7 29  1  0  0  0  0
  8 15  1  0  0  0  0
  8  9  2  0  0  0  0
  9 10  1  0  0  0  0
  9 11  1  0  0  0  0
 10 30  1  0  0  0  0
 10 31  1  0  0  0  0
 10 32  1  0  0  0  0
 11 12  2  0  0  0  0
 11 33  1  0  0  0  0
 12 13  1  0  0  0  0
 12 34  1  0  0  0  0
 13 14  1  0  0  0  0
 13 15  1  0  0  0  0
 14 35  1  0  0  0  0
 14 36  1  0  0  0  0
 14 37  1  0  0  0  0
 15 16  2  0  0  0  0
 17 21  1  0  0  0  0
 17 18  1  0  0  0  0
 17 38  1  0  0  0  0
 18 19  1  0  0  0  0
 18 39  1  0  0  0  0
 18 40  1  0  0  0  0
 19 20  1  0  0  0  0
 19 41  1  0  0  0  0
 19 42  1  0  0  0  0
 20 21  1  0  0  0  0
 20 43  1  0  0  0  0
 20 44  1  0  0  0  0
M  END
> <s_m_source_file>
AV-unprocessed.smi

> <i_m_source_file_index>
2925

> <i_lp_mmshare_version>
43012

> <i_f3d_flags>
0

> <s_epik_input>
TzFbQ0gyXVtDSDJdW0NIMl1bQ0BIXTFbQ0BIXShbQ0gyXVtDSDNdKVtOSF1DKD1PKVtOSF1jMmMoW0NIM10pW2NIXVtjSF1uKFtDSDNdKWMyPU8=

> <s_epik_cmdline>
J2VwaWtfcHl0aG9uJywgJy1waCcsICc3LjAnLCAnLXRuJywgJzgnLCAnLW1hJywgJzIwMCcsICctbWV0YWxfYmluZGluZycsICctaW1hZScsICc8aW5maWxlLm1hZT4nLCAnLW9tYWUnLCAnPG91dGZpbGUubWFlPic=

> <r_lp_tautomer_probability>
1

> <r_epik_Ionization_Penalty>
2.58789e-05

> <r_epik_Ionization_Penalty_Charging>
6.72534e-06

> <r_epik_Ionization_Penalty_Neutral>
1.91535e-05

> <r_epik_State_Penalty>
-0

> <r_epik_Charging_Adjusted_Penalty>
6.72534e-06

> <i_epik_Tot_Q>
0

> <i_epik_Tot_abs_Q>
0

> <r_epik_Metal_State_Penalty>
-0

> <b_epik_Metal_Only>
0

> <s_lp_Force_Field>
OPLS_2005

> <r_lp_Energy>
35.3317

> <b_lp_Chiralities_Consistent>
1

> <s_lp_Variant>
AV-unprocessed.smi:2925-4

> <Gold.Version>
5.8.1

> <Gold.Id.Protein>
6NUR|6NUR_protein|mol2

> <Gold.PLP.Fitness>
40.5778

> <Gold.PLP.PLP>
-32.8367

> <Gold.PLP.part.hbond>
-2.9364

> <Gold.PLP.part.metal>
0.0000

> <Gold.PLP.part.buried>
-3.4621

> <Gold.PLP.part.nonpolar>
-26.6202

> <Gold.PLP.part.repulsive>
0.1496

> <Gold.PLP.ligand.clash>
0.0000

> <Gold.PLP.ligand.torsion>
0.7575

> <Gold.PLP.Chemscore.Hbond>
2.8800

> <Gold.PLP.Chemscore.CHOScore>
0.0000

> <Gold.PLP.Chemscore.Metal>
0.0000

> <Gold.Chemscore.Hbonds>
donor molecule, donor type, donor heavy atom, donor atom, acceptor molecule, acceptor atom, score
      L1  H     4    28       P1  7948  1.00
      L1  H     7    29       P1  7948  0.88
      P1  H 10752 10765       L1    21  1.00

> <Gold.PLP.Chemscore.Internal.Correction>
0.6162

> <Gold.Rescore>
     Score         DG    S(hbond)    S(metal)    S(lipo)     H(rot)  DE(clash)    DE(int)     intcor
     13.56     -18.48       2.59        0.00      66.97       1.36       0.01       4.91       ----

> <Gold.Chemscore.Fitness>
13.5647

> <Gold.Chemscore.DG>
-18.4832

> <Gold.Chemscore.ZeroCoef>
-5.4800

> <Gold.Chemscore.Hbond>
2.5879

> <Gold.Chemscore.Metal>
0.0000

> <Gold.Chemscore.Lipo>
66.9741

> <Gold.Chemscore.Internal_Hbond>
0.0000

> <Gold.Chemscore.DEClash>
0.0064

> <Gold.Chemscore.DEInternal>
4.9121

> <Gold.Chemscore.Rot>
1.3579

> <Gold.Chemscore.Internal.Correction>
   9.000000E+99

> <Gold.Chemscore.Hbonds>
donor molecule, donor type, donor heavy atom, donor atom, acceptor molecule, acceptor atom, score
      L1  H     4    28       P1  7948  0.57
      L1  H     7    29       P1  7948  0.22
      P1  H 10752 10765       L1    21  0.23

> <Gold.Chemscore.Hbond.Weighted>
-8.6435

> <Gold.Chemscore.Metal.Weighted>
-0.0000

> <Gold.Chemscore.Lipo.Weighted>
-7.8360

> <Gold.Chemscore.Internal_Hbond.Weighted>
0.0000

> <Gold.Chemscore.DEClash.Weighted>
0.0064

> <Gold.Chemscore.DEInternal.Weighted>
4.9121

> <Gold.Chemscore.Rot.Weighted>
3.4763

> <Gold.Chemscore.Internal.Correction.Weighted>
   9.000000E+99

> <Gold.Protein.RotatedTorsions>
[ 6907 6896 6895 6894 ] final -144.77 input  -60.11 | X-H torsion
[ 7974 7965 7964 7962 ] final  -34.10 input  175.53 | X-H torsion
[ 8008 7997 7996 7995 ] final   85.53 input   59.86 | X-H torsion
[ 10167 10162 10161 10158 ] final   61.34 input  -65.29 | X-H torsion
[ 10718 10713 10712 10709 ] final -113.61 input   66.30 | X-H torsion
[ 10763 10752 10751 10750 ] final -143.65 input  -60.55 | X-H torsion
[ 11005 11000 10999 10996 ] final  166.33 input  -57.11 | X-H torsion

> <Gold.Protein.ActiveResidues>
 VAL166  LYS551  ARG553  GLY616  TRP617  ASP618  TYR619  PRO620  LYS621  CYS622 
 ASP623  PHE694  ASN695  SER759  ASP760  ASP761  ALA762  ILE779  LEU786  VAL792 
 PHE793  MET794  SER795  GLU796  ALA797  LYS798  CYS799  TRP800  GLU811  SER814 

> <Gold.Protein.RotatedAtoms>
  151.1185  133.5121  159.2602 H   0  0  0  0  0  0  0  0  0  0  0  0  # atno 6907 bound_to 6896
  151.1887  135.0392  159.8833 H   0  0  0  0  0  0  0  0  0  0  0  0  # atno 6908 bound_to 6896
  152.5454  134.1028  159.8378 H   0  0  0  0  0  0  0  0  0  0  0  0  # atno 6909 bound_to 6896
  146.0857  140.5997  142.8888 H   0  0  0  0  0  0  0  0  0  0  0  0  # atno 7974 bound_to 7965
  155.9512  140.3401  155.6409 H   0  0  0  0  0  0  0  0  0  0  0  0  # atno 8008 bound_to 7997
  155.6918  140.0750  157.2463 H   0  0  0  0  0  0  0  0  0  0  0  0  # atno 8009 bound_to 7997
  154.4122  140.1656  156.2082 H   0  0  0  0  0  0  0  0  0  0  0  0  # atno 8010 bound_to 7997
  140.1558  144.4418  150.6735 H   0  0  0  0  0  0  0  0  0  0  0  0  # atno 10167 bound_to 10162
  156.0777  130.5982  150.8665 H   0  0  0  0  0  0  0  0  0  0  0  0  # atno 10718 bound_to 10713
  154.8461  135.3462  154.6221 H   0  0  0  0  0  0  0  0  0  0  0  0  # atno 10763 bound_to 10752
  153.6830  135.6979  153.5117 H   0  0  0  0  0  0  0  0  0  0  0  0  # atno 10764 bound_to 10752
  153.2654  135.4310  155.0891 H   0  0  0  0  0  0  0  0  0  0  0  0  # atno 10765 bound_to 10752
  140.2653  134.7870  157.3627 H   0  0  0  0  0  0  0  0  0  0  0  0  # atno 11005 bound_to 11000
  144.7324  140.4710  143.6928 LP  0  0  0  0  0  0  0  0  0  0  0  0  # atno 17320 bound_to 7965
  145.6135  139.1516  143.3063 LP  0  0  0  0  0  0  0  0  0  0  0  0  # atno 17321 bound_to 7965
  140.6674  143.2273  151.5710 LP  0  0  0  0  0  0  0  0  0  0  0  0  # atno 17342 bound_to 10162
  139.5404  144.2663  152.1339 LP  0  0  0  0  0  0  0  0  0  0  0  0  # atno 17343 bound_to 10162
  157.5881  131.0945  150.9164 LP  0  0  0  0  0  0  0  0  0  0  0  0  # atno 17370 bound_to 10713
  156.9346  130.5362  149.5279 LP  0  0  0  0  0  0  0  0  0  0  0  0  # atno 17371 bound_to 10713
  140.1425  134.4954  155.8021 LP  0  0  0  0  0  0  0  0  0  0  0  0  # atno 17394 bound_to 11000
  141.2185  133.6831  156.7235 LP  0  0  0  0  0  0  0  0  0  0  0  0  # atno 17395 bound_to 11000

$$$$
