AV-unprocessed.smi:2852|AV-procd|sdf|10972|dock3
  -GOLD-   2272015423D 1   1.00000     0.00000
 Structure written by MMmdl.
 28 29  0  0  0  0  0  0  0  0  1 V2000
  148.7951  136.6146  155.1252 C   0  0  0  0  0  0  0  0  0  0  0  0
  149.8969  137.5449  154.9333 N   0  0  0  0  0  0  0  0  0  0  0  0
  151.1773  137.2698  155.2231 C   0  0  0  0  0  0  0  0  0  0  0  0
  151.5518  136.1858  155.6706 O   0  0  0  0  0  0  0  0  0  0  0  0
  152.1928  138.3851  154.9681 C   0  0  0  0  0  0  0  0  0  0  0  0
  151.7920  139.6360  155.6829 C   0  0  0  0  0  0  0  0  0  0  0  0
  150.9031  140.4747  155.1629 N   0  0  0  0  0  0  0  0  0  0  0  0
  150.8169  141.4928  156.1236 O   0  0  0  0  0  0  0  0  0  0  0  0
  151.6676  141.1395  157.1168 C   0  0  0  0  0  0  0  0  0  0  0  0
  151.7939  142.0350  158.2612 C   0  0  0  0  0  0  0  0  0  0  0  0
  152.6344  141.8583  159.2962 C   0  0  0  0  0  0  0  0  0  0  0  0
  152.8687  142.7004  160.5270 C   0  0  0  0  0  0  0  0  0  0  0  0
  153.9000  141.6147  160.8889 C   0  0  0  0  0  0  0  0  0  0  0  0
  153.6459  140.7819  159.6186 C   0  0  0  0  0  0  0  0  0  0  0  0
  152.2975  139.9863  156.8984 N   0  0  0  0  0  0  0  0  0  0  0  0
  147.8624  137.0692  154.7916 H   0  0  0  0  0  0  0  0  0  0  0  0
  148.6889  136.3536  156.1788 H   0  0  0  0  0  0  0  0  0  0  0  0
  148.9527  135.6994  154.5532 H   0  0  0  0  0  0  0  0  0  0  0  0
  149.6719  138.4595  154.5686 H   0  0  0  0  0  0  0  0  0  0  0  0
  153.1808  138.0667  155.3038 H   0  0  0  0  0  0  0  0  0  0  0  0
  152.2708  138.5821  153.8980 H   0  0  0  0  0  0  0  0  0  0  0  0
  151.1551  142.9062  158.2583 H   0  0  0  0  0  0  0  0  0  0  0  0
  153.3300  143.6777  160.3819 H   0  0  0  0  0  0  0  0  0  0  0  0
  152.0578  142.7609  161.2533 H   0  0  0  0  0  0  0  0  0  0  0  0
  154.9190  142.0002  160.9456 H   0  0  0  0  0  0  0  0  0  0  0  0
  153.6464  141.0784  161.8045 H   0  0  0  0  0  0  0  0  0  0  0  0
  153.2617  139.7868  159.8448 H   0  0  0  0  0  0  0  0  0  0  0  0
  154.5277  140.7188  158.9804 H   0  0  0  0  0  0  0  0  0  0  0  0
  1  2  1  0  0  0  0
  1 16  1  0  0  0  0
  1 17  1  0  0  0  0
  1 18  1  0  0  0  0
  2  3  1  0  0  0  0
  2 19  1  0  0  0  0
  3  4  2  0  0  0  0
  3  5  1  0  0  0  0
  5  6  1  0  0  0  0
  5 20  1  0  0  0  0
  5 21  1  0  0  0  0
  6 15  1  0  0  0  0
  6  7  2  0  0  0  0
  7  8  1  0  0  0  0
  8  9  1  0  0  0  0
  9 10  1  0  0  0  0
  9 15  2  0  0  0  0
 10 11  2  0  0  0  0
 10 22  1  0  0  0  0
 11 14  1  0  0  0  0
 11 12  1  0  0  0  0
 12 13  1  0  0  0  0
 12 23  1  0  0  0  0
 12 24  1  0  0  0  0
 13 14  1  0  0  0  0
 13 25  1  0  0  0  0
 13 26  1  0  0  0  0
 14 27  1  0  0  0  0
 14 28  1  0  0  0  0
M  END
> <s_m_source_file>
AV-unprocessed.smi

> <i_m_source_file_index>
2852

> <i_lp_mmshare_version>
43012

> <i_f3d_flags>
0

> <s_epik_input>
W0NIM11bTkhdQyg9TylbQ0gyXWMxbm9jKG4xKVtDSF09QzJbQ0gyXVtDSDJdW0NIMl0y

> <s_epik_cmdline>
J2VwaWtfcHl0aG9uJywgJy1waCcsICc3LjAnLCAnLXRuJywgJzgnLCAnLW1hJywgJzIwMCcsICctbWV0YWxfYmluZGluZycsICctaW1hZScsICc8aW5maWxlLm1hZT4nLCAnLW9tYWUnLCAnPG91dGZpbGUubWFlPic=

> <r_lp_tautomer_probability>
1

> <r_epik_Ionization_Penalty>
1.02917e-07

> <r_epik_Ionization_Penalty_Charging>
0

> <r_epik_Ionization_Penalty_Neutral>
1.02917e-07

> <r_epik_State_Penalty>
-0

> <r_epik_Charging_Adjusted_Penalty>
0

> <i_epik_Tot_Q>
0

> <i_epik_Tot_abs_Q>
0

> <r_epik_Metal_State_Penalty>
-0

> <b_epik_Metal_Only>
0

> <s_lp_Force_Field>
OPLS_2005

> <r_lp_Energy>
12.6474

> <b_lp_Chiralities_Consistent>
1

> <s_lp_Variant>
AV-unprocessed.smi:2852-1

> <Gold.Version>
5.8.1

> <Gold.Id.Protein>
6NUR|6NUR_protein|mol2

> <Gold.PLP.Fitness>
37.8782

> <Gold.PLP.PLP>
-29.6117

> <Gold.PLP.part.hbond>
-3.0000

> <Gold.PLP.part.metal>
0.0000

> <Gold.PLP.part.buried>
-4.4095

> <Gold.PLP.part.nonpolar>
-22.3370

> <Gold.PLP.part.repulsive>
0.1986

> <Gold.PLP.ligand.clash>
0.0000

> <Gold.PLP.ligand.torsion>
0.3539

> <Gold.PLP.Chemscore.Hbond>
2.9913

> <Gold.PLP.Chemscore.CHOScore>
0.0000

> <Gold.PLP.Chemscore.Metal>
0.0000

> <Gold.Chemscore.Hbonds>
donor molecule, donor type, donor heavy atom, donor atom, acceptor molecule, acceptor atom, score
      P1  H  7989  7998       L1     7  1.00
      P1  H  7997  8009       L1    15  0.84
      P1  H 10752 10764       L1     4  1.00

> <Gold.PLP.Chemscore.Internal.Correction>
0.0006

> <Gold.Rescore>
     Score         DG    S(hbond)    S(metal)    S(lipo)     H(rot)  DE(clash)    DE(int)     intcor
     16.05     -16.41       2.20        0.00      60.31       1.35       0.02       0.35       ----

> <Gold.Chemscore.Fitness>
16.0462

> <Gold.Chemscore.DG>
-16.4094

> <Gold.Chemscore.ZeroCoef>
-5.4800

> <Gold.Chemscore.Hbond>
2.1957

> <Gold.Chemscore.Metal>
0.0000

> <Gold.Chemscore.Lipo>
60.3145

> <Gold.Chemscore.Internal_Hbond>
0.0000

> <Gold.Chemscore.DEClash>
0.0174

> <Gold.Chemscore.DEInternal>
0.3458

> <Gold.Chemscore.Rot>
1.3519

> <Gold.Chemscore.Internal.Correction>
   9.000000E+99

> <Gold.Chemscore.Hbonds>
donor molecule, donor type, donor heavy atom, donor atom, acceptor molecule, acceptor atom, score
      P1  H  7989  7998       L1     7  0.36
      P1  H  7997  8009       L1    15  0.42
      P1  H 10752 10764       L1     4  0.95

> <Gold.Chemscore.Hbond.Weighted>
-7.3336

> <Gold.Chemscore.Metal.Weighted>
-0.0000

> <Gold.Chemscore.Lipo.Weighted>
-7.0568

> <Gold.Chemscore.Internal_Hbond.Weighted>
0.0000

> <Gold.Chemscore.DEClash.Weighted>
0.0174

> <Gold.Chemscore.DEInternal.Weighted>
0.3458

> <Gold.Chemscore.Rot.Weighted>
3.4610

> <Gold.Chemscore.Internal.Correction.Weighted>
   9.000000E+99

> <Gold.Protein.RotatedTorsions>
[ 6907 6896 6895 6894 ] final   63.85 input  -60.11 | X-H torsion
[ 7974 7965 7964 7962 ] final -179.69 input  175.53 | X-H torsion
[ 8008 7997 7996 7995 ] final  178.59 input   59.86 | X-H torsion
[ 10167 10162 10161 10158 ] final  160.14 input  -65.29 | X-H torsion
[ 10718 10713 10712 10709 ] final -156.52 input   66.30 | X-H torsion
[ 10763 10752 10751 10750 ] final  -27.62 input  -60.55 | X-H torsion
[ 11005 11000 10999 10996 ] final   16.86 input  -57.11 | X-H torsion

> <Gold.Protein.ActiveResidues>
 VAL166  LYS551  ARG553  GLY616  TRP617  ASP618  TYR619  PRO620  LYS621  CYS622 
 ASP623  PHE694  ASN695  SER759  ASP760  ASP761  ALA762  ILE779  LEU786  VAL792 
 PHE793  MET794  SER795  GLU796  ALA797  LYS798  CYS799  TRP800  GLU811  SER814 

> <Gold.Protein.RotatedAtoms>
  152.4285  134.5822  159.9950 H   0  0  0  0  0  0  0  0  0  0  0  0  # atno 6907 bound_to 6896
  151.5951  133.3356  159.3044 H   0  0  0  0  0  0  0  0  0  0  0  0  # atno 6908 bound_to 6896
  150.8177  134.7404  159.6809 H   0  0  0  0  0  0  0  0  0  0  0  0  # atno 6909 bound_to 6896
  144.7138  140.0679  143.6430 H   0  0  0  0  0  0  0  0  0  0  0  0  # atno 7974 bound_to 7965
  156.0529  140.1329  157.0029 H   0  0  0  0  0  0  0  0  0  0  0  0  # atno 8008 bound_to 7997
  154.4444  140.1007  156.6474 H   0  0  0  0  0  0  0  0  0  0  0  0  # atno 8009 bound_to 7997
  155.5495  140.3462  155.4467 H   0  0  0  0  0  0  0  0  0  0  0  0  # atno 8010 bound_to 7997
  139.4837  144.4662  151.8638 H   0  0  0  0  0  0  0  0  0  0  0  0  # atno 10167 bound_to 10162
  156.5277  130.8507  151.2705 H   0  0  0  0  0  0  0  0  0  0  0  0  # atno 10718 bound_to 10713
  153.7351  135.6936  153.4980 H   0  0  0  0  0  0  0  0  0  0  0  0  # atno 10763 bound_to 10752
  153.2108  135.4403  155.0376 H   0  0  0  0  0  0  0  0  0  0  0  0  # atno 10764 bound_to 10752
  154.8240  135.3436  154.6879 H   0  0  0  0  0  0  0  0  0  0  0  0  # atno 10765 bound_to 10752
  140.4423  134.1309  155.7692 H   0  0  0  0  0  0  0  0  0  0  0  0  # atno 11005 bound_to 11000
  145.9808  139.2940  143.1043 LP  0  0  0  0  0  0  0  0  0  0  0  0  # atno 17320 bound_to 7965
  145.9013  140.9241  143.0502 LP  0  0  0  0  0  0  0  0  0  0  0  0  # atno 17321 bound_to 7965
  140.4128  144.2346  150.5888 LP  0  0  0  0  0  0  0  0  0  0  0  0  # atno 17342 bound_to 10162
  140.4950  143.2335  151.8763 LP  0  0  0  0  0  0  0  0  0  0  0  0  # atno 17343 bound_to 10162
  157.7427  130.9895  150.2534 LP  0  0  0  0  0  0  0  0  0  0  0  0  # atno 17370 bound_to 10713
  156.3089  130.3769  149.7680 LP  0  0  0  0  0  0  0  0  0  0  0  0  # atno 17371 bound_to 10713
  141.1700  133.8628  157.1600 LP  0  0  0  0  0  0  0  0  0  0  0  0  # atno 17394 bound_to 11000
  140.0061  135.0008  157.0296 LP  0  0  0  0  0  0  0  0  0  0  0  0  # atno 17395 bound_to 11000

$$$$
