AV-unprocessed.smi:3278|AV-procd|sdf|12542|dock1
  -GOLD-   2272018453D 1   1.00000     0.00000
 Structure written by MMmdl.
 39 40  0  0  0  0  0  0  0  0  2 V2000
  144.9702  143.9490  153.6038 C   0  0  0  0  0  0  0  0  0  0  0  0
  145.8015  142.9059  154.1652 N   0  0  0  0  0  0  0  0  0  0  0  0
  147.0395  142.4715  153.7447 C   0  0  0  0  0  0  0  0  0  0  0  0
  147.4353  141.4674  154.5859 C   0  0  0  0  0  0  0  0  0  0  0  0
  148.7109  140.6521  154.5494 C   0  0  1  0  0  0  0  0  0  0  0  0
  148.3877  139.1742  154.2677 C   0  0  0  0  0  0  0  0  0  0  0  0
  149.5713  141.0654  153.5040 O   0  0  0  0  0  0  0  0  0  0  0  0
  149.4961  140.7914  155.8714 C   0  0  0  0  0  0  0  0  0  0  0  0
  150.0965  142.1375  156.0144 N   0  3  0  0  0  0  0  0  0  0  0  0
  150.6340  142.4578  157.3549 C   0  0  1  0  0  0  0  0  0  0  0  0
  151.6336  141.3778  157.8253 C   0  0  0  0  0  0  0  0  0  0  0  0
  152.1826  141.6459  159.2364 C   0  0  0  0  0  0  0  0  0  0  0  0
  152.9421  142.9758  159.3285 C   0  0  0  0  0  0  0  0  0  0  0  0
  151.8504  144.3739  158.9585 S   0  0  0  0  0  0  0  0  0  0  0  0
  151.2927  143.8485  157.3148 C   0  0  0  0  0  0  0  0  0  0  0  0
  146.3473  141.3685  155.5034 C   0  0  0  0  0  0  0  0  0  0  0  0
  145.3729  142.2244  155.2460 N   0  0  0  0  0  0  0  0  0  0  0  0
  145.4531  144.3819  152.7271 H   0  0  0  0  0  0  0  0  0  0  0  0
  144.8116  144.7334  154.3446 H   0  0  0  0  0  0  0  0  0  0  0  0
  144.0058  143.5343  153.3084 H   0  0  0  0  0  0  0  0  0  0  0  0
  147.5331  142.9081  152.8887 H   0  0  0  0  0  0  0  0  0  0  0  0
  147.7507  138.7498  155.0444 H   0  0  0  0  0  0  0  0  0  0  0  0
  149.2934  138.5678  154.2239 H   0  0  0  0  0  0  0  0  0  0  0  0
  147.8668  139.0568  153.3164 H   0  0  0  0  0  0  0  0  0  0  0  0
  149.6610  140.3558  152.8857 H   0  0  0  0  0  0  0  0  0  0  0  0
  148.8266  140.6202  156.7157 H   0  0  0  0  0  0  0  0  0  0  0  0
  150.2717  140.0273  155.9263 H   0  0  0  0  0  0  0  0  0  0  0  0
  150.8302  142.2472  155.3289 H   0  0  0  0  0  0  0  0  0  0  0  0
  149.7961  142.5029  158.0529 H   0  0  0  0  0  0  0  0  0  0  0  0
  151.1569  140.3982  157.8286 H   0  0  0  0  0  0  0  0  0  0  0  0
  152.4630  141.3088  157.1199 H   0  0  0  0  0  0  0  0  0  0  0  0
  151.3656  141.6377  159.9591 H   0  0  0  0  0  0  0  0  0  0  0  0
  152.8500  140.8322  159.5222 H   0  0  0  0  0  0  0  0  0  0  0  0
  153.3539  143.1074  160.3293 H   0  0  0  0  0  0  0  0  0  0  0  0
  153.7818  142.9845  158.6327 H   0  0  0  0  0  0  0  0  0  0  0  0
  152.1458  143.8510  156.6351 H   0  0  0  0  0  0  0  0  0  0  0  0
  150.5878  144.5934  156.9436 H   0  0  0  0  0  0  0  0  0  0  0  0
  146.2350  140.6977  156.3426 H   0  0  0  0  0  0  0  0  0  0  0  0
  149.3685  142.8067  155.8073 H   0  0  0  0  0  0  0  0  0  0  0  0
  1  2  1  0  0  0  0
  1 18  1  0  0  0  0
  1 19  1  0  0  0  0
  1 20  1  0  0  0  0
  2 17  1  0  0  0  0
  2  3  1  0  0  0  0
  3  4  2  0  0  0  0
  3 21  1  0  0  0  0
  4  5  1  0  0  0  0
  4 16  1  0  0  0  0
  5  6  1  0  0  0  0
  5  7  1  0  0  0  0
  5  8  1  0  0  0  0
  6 22  1  0  0  0  0
  6 23  1  0  0  0  0
  6 24  1  0  0  0  0
  7 25  1  0  0  0  0
  8  9  1  0  0  0  0
  8 26  1  0  0  0  0
  8 27  1  0  0  0  0
  9 10  1  0  0  0  0
  9 28  1  0  0  0  0
  9 39  1  0  0  0  0
 10 15  1  0  0  0  0
 10 11  1  0  0  0  0
 10 29  1  0  0  0  0
 11 12  1  0  0  0  0
 11 30  1  0  0  0  0
 11 31  1  0  0  0  0
 12 13  1  0  0  0  0
 12 32  1  0  0  0  0
 12 33  1  0  0  0  0
 13 14  1  0  0  0  0
 13 34  1  0  0  0  0
 13 35  1  0  0  0  0
 14 15  1  0  0  0  0
 15 36  1  0  0  0  0
 15 37  1  0  0  0  0
 16 17  2  0  0  0  0
 16 38  1  0  0  0  0
M  CHG  1   9   1
M  END
> <s_m_source_file>
AV-unprocessed.smi

> <i_m_source_file_index>
3278

> <i_lp_mmshare_version>
43012

> <i_f3d_flags>
0

> <s_epik_input>
W0NIM11uMVtjSF1jKFtjSF1uMSlbQ0BAXShbQ0gzXSkoW09IXSlbQ0gyXVtOSF1bQ0BASF0yW0NIMl1bQ0gyXVtDSDJdU1tDSDJdMg==

> <s_epik_cmdline>
J2VwaWtfcHl0aG9uJywgJy1waCcsICc3LjAnLCAnLXRuJywgJzgnLCAnLW1hJywgJzIwMCcsICctbWV0YWxfYmluZGluZycsICctaW1hZScsICc8aW5maWxlLm1hZT4nLCAnLW9tYWUnLCAnPG91dGZpbGUubWFlPic=

> <r_lp_tautomer_probability>
1

> <r_epik_Ionization_Penalty>
0.0185703

> <r_epik_Ionization_Penalty_Charging>
0.0185619

> <r_epik_Ionization_Penalty_Neutral>
8.47286e-06

> <r_epik_State_Penalty>
0.0147768

> <r_epik_Charging_Adjusted_Penalty>
0.0333386

> <i_epik_Tot_Q>
1

> <i_epik_Tot_abs_Q>
1

> <r_epik_Metal_State_Penalty>
0.0147782

> <b_epik_Metal_Only>
0

> <s_lp_Force_Field>
OPLS_2005

> <r_lp_Energy>
8.69556

> <b_lp_Chiralities_Consistent>
1

> <s_lp_Variant>
AV-unprocessed.smi:3278-3

> <Gold.Version>
5.8.1

> <Gold.Id.Protein>
6NUR|6NUR_protein|mol2

> <Gold.PLP.Fitness>
50.7781

> <Gold.PLP.PLP>
-39.6802

> <Gold.PLP.part.hbond>
-3.9982

> <Gold.PLP.part.metal>
0.0000

> <Gold.PLP.part.buried>
-5.1927

> <Gold.PLP.part.nonpolar>
-31.7224

> <Gold.PLP.part.repulsive>
0.2878

> <Gold.PLP.ligand.clash>
0.0000

> <Gold.PLP.ligand.torsion>
0.1650

> <Gold.PLP.Chemscore.Hbond>
3.7960

> <Gold.PLP.Chemscore.CHOScore>
0.0000

> <Gold.PLP.Chemscore.Metal>
0.0000

> <Gold.Chemscore.Hbonds>
donor molecule, donor type, donor heavy atom, donor atom, acceptor molecule, acceptor atom, score
      L1  H     7    25       P1  7957  0.82
      L1  H     9    39       P1  8028  1.86
      P1  H  8011  8017       L1     7  0.85

> <Gold.PLP.Chemscore.Internal.Correction>
0.0399

> <Gold.Rescore>
     Score         DG    S(hbond)    S(metal)    S(lipo)     H(rot)  DE(clash)    DE(int)     intcor
     18.29     -18.58       1.92        0.00     100.95       2.00       0.04       0.26       ----

> <Gold.Chemscore.Fitness>
18.2864

> <Gold.Chemscore.DG>
-18.5843

> <Gold.Chemscore.ZeroCoef>
-5.4800

> <Gold.Chemscore.Hbond>
1.9229

> <Gold.Chemscore.Metal>
0.0000

> <Gold.Chemscore.Lipo>
100.9525

> <Gold.Chemscore.Internal_Hbond>
0.0000

> <Gold.Chemscore.DEClash>
0.0366

> <Gold.Chemscore.DEInternal>
0.2612

> <Gold.Chemscore.Rot>
2.0038

> <Gold.Chemscore.Internal.Correction>
   9.000000E+99

> <Gold.Chemscore.Hbonds>
donor molecule, donor type, donor heavy atom, donor atom, acceptor molecule, acceptor atom, score
      L1  H     7    25       P1  7957  0.81
      L1  H     9    39       P1  8028  0.89
      P1  H  8011  8017       L1     7  0.14

> <Gold.Chemscore.Hbond.Weighted>
-6.4224

> <Gold.Chemscore.Metal.Weighted>
-0.0000

> <Gold.Chemscore.Lipo.Weighted>
-11.8114

> <Gold.Chemscore.Internal_Hbond.Weighted>
0.0000

> <Gold.Chemscore.DEClash.Weighted>
0.0366

> <Gold.Chemscore.DEInternal.Weighted>
0.2612

> <Gold.Chemscore.Rot.Weighted>
5.1296

> <Gold.Chemscore.Internal.Correction.Weighted>
   9.000000E+99

> <Gold.Protein.RotatedTorsions>
[ 6907 6896 6895 6894 ] final   31.74 input  -60.11 | X-H torsion
[ 7974 7965 7964 7962 ] final -130.75 input  175.53 | X-H torsion
[ 8008 7997 7996 7995 ] final  102.33 input   59.86 | X-H torsion
[ 10167 10162 10161 10158 ] final  -27.67 input  -65.29 | X-H torsion
[ 10718 10713 10712 10709 ] final  144.14 input   66.30 | X-H torsion
[ 10763 10752 10751 10750 ] final   76.75 input  -60.55 | X-H torsion
[ 11005 11000 10999 10996 ] final -175.56 input  -57.11 | X-H torsion

> <Gold.Protein.ActiveResidues>
 VAL166  LYS551  ARG553  GLY616  TRP617  ASP618  TYR619  PRO620  LYS621  CYS622 
 ASP623  PHE694  ASN695  SER759  ASP760  ASP761  ALA762  ILE779  LEU786  VAL792 
 PHE793  MET794  SER795  GLU796  ALA797  LYS798  CYS799  TRP800  GLU811  SER814 

> <Gold.Protein.RotatedAtoms>
  152.0645  134.9573  160.0574 H   0  0  0  0  0  0  0  0  0  0  0  0  # atno 6907 bound_to 6896
  152.0923  133.4202  159.4557 H   0  0  0  0  0  0  0  0  0  0  0  0  # atno 6908 bound_to 6896
  150.6837  134.2777  159.4657 H   0  0  0  0  0  0  0  0  0  0  0  0  # atno 6909 bound_to 6896
  144.9444  140.7275  143.4826 H   0  0  0  0  0  0  0  0  0  0  0  0  # atno 7974 bound_to 7965
  156.1383  140.3183  155.8455 H   0  0  0  0  0  0  0  0  0  0  0  0  # atno 8008 bound_to 7997
  155.4202  140.0512  157.3043 H   0  0  0  0  0  0  0  0  0  0  0  0  # atno 8009 bound_to 7997
  154.4955  140.2109  155.9469 H   0  0  0  0  0  0  0  0  0  0  0  0  # atno 8010 bound_to 7997
  140.7275  143.4074  151.1162 H   0  0  0  0  0  0  0  0  0  0  0  0  # atno 10167 bound_to 10162
  157.3607  131.0964  151.0918 H   0  0  0  0  0  0  0  0  0  0  0  0  # atno 10718 bound_to 10713
  153.0748  135.4940  154.8380 H   0  0  0  0  0  0  0  0  0  0  0  0  # atno 10763 bound_to 10752
  154.7072  135.3013  154.9255 H   0  0  0  0  0  0  0  0  0  0  0  0  # atno 10764 bound_to 10752
  153.9960  135.6772  153.4809 H   0  0  0  0  0  0  0  0  0  0  0  0  # atno 10765 bound_to 10752
  140.4619  134.6246  157.4846 H   0  0  0  0  0  0  0  0  0  0  0  0  # atno 11005 bound_to 11000
  145.2940  139.1873  143.4725 LP  0  0  0  0  0  0  0  0  0  0  0  0  # atno 17320 bound_to 7965
  146.3298  140.2921  142.8616 LP  0  0  0  0  0  0  0  0  0  0  0  0  # atno 17321 bound_to 7965
  139.7703  143.8505  152.3119 LP  0  0  0  0  0  0  0  0  0  0  0  0  # atno 17342 bound_to 10162
  139.8421  144.7205  150.9318 LP  0  0  0  0  0  0  0  0  0  0  0  0  # atno 17343 bound_to 10162
  157.2059  130.6416  149.5756 LP  0  0  0  0  0  0  0  0  0  0  0  0  # atno 17370 bound_to 10713
  155.9737  130.4675  150.6329 LP  0  0  0  0  0  0  0  0  0  0  0  0  # atno 17371 bound_to 10713
  139.9940  134.6941  155.9641 LP  0  0  0  0  0  0  0  0  0  0  0  0  # atno 17394 bound_to 11000
  141.1617  133.6538  156.4342 LP  0  0  0  0  0  0  0  0  0  0  0  0  # atno 17395 bound_to 11000

$$$$
