AV-unprocessed.smi:2606|AV-procd|sdf|10197|dock4
  -GOLD-   2272014203D 1   1.00000     0.00000
 Structure written by MMmdl.
 42 43  0  0  0  0  0  0  0  0  1 V2000
  152.3316  137.2385  157.9354 O   0  0  0  0  0  0  0  0  0  0  0  0
  151.5487  138.1900  157.9153 C   0  0  0  0  0  0  0  0  0  0  0  0
  152.0206  139.5327  157.3478 C   0  0  0  0  0  0  0  0  0  0  0  0
  152.4685  140.4426  158.4137 N   0  0  0  0  0  0  0  0  0  0  0  0
  151.9923  141.7675  158.3616 C   0  0  0  0  0  0  0  0  0  0  0  0
  152.3341  142.7059  159.2652 C   0  0  0  0  0  0  0  0  0  0  0  0
  151.7624  144.1141  159.2106 C   0  0  0  0  0  0  0  0  0  0  0  0
  152.1781  144.7592  158.1203 F   0  0  0  0  0  0  0  0  0  0  0  0
  150.4317  144.0615  159.1798 F   0  0  0  0  0  0  0  0  0  0  0  0
  152.1252  144.8228  160.2805 F   0  0  0  0  0  0  0  0  0  0  0  0
  153.2063  142.2778  160.3410 C   0  0  0  0  0  0  0  0  0  0  0  0
  153.6661  141.0132  160.4091 C   0  0  0  0  0  0  0  0  0  0  0  0
  153.3070  140.0111  159.4030 C   0  0  0  0  0  0  0  0  0  0  0  0
  153.7355  138.8575  159.4456 O   0  0  0  0  0  0  0  0  0  0  0  0
  150.2769  138.1611  158.3635 N   0  0  0  0  0  0  0  0  0  0  0  0
  149.6238  137.1223  158.9173 C   0  0  0  0  0  0  0  0  0  0  0  0
  150.0119  135.9519  158.9283 O   0  0  0  0  0  0  0  0  0  0  0  0
  148.4694  137.5223  159.4707 N   0  0  0  0  0  0  0  0  0  0  0  0
  147.5580  136.6720  160.2310 C   0  0  0  0  0  0  0  0  0  0  0  0
  146.1771  137.3451  160.3747 C   0  0  0  0  0  0  0  0  0  0  0  0
  145.2274  136.5016  161.2408 C   0  0  0  0  0  0  0  0  0  0  0  0
  145.8417  136.2062  162.6178 C   0  0  0  0  0  0  0  0  0  0  0  0
  147.2141  135.5291  162.4781 C   0  0  0  0  0  0  0  0  0  0  0  0
  148.1662  136.3725  161.6143 C   0  0  0  0  0  0  0  0  0  0  0  0
  152.8323  139.3517  156.6414 H   0  0  0  0  0  0  0  0  0  0  0  0
  151.2244  139.9797  156.7493 H   0  0  0  0  0  0  0  0  0  0  0  0
  151.3312  141.9733  157.5319 H   0  0  0  0  0  0  0  0  0  0  0  0
  153.5003  142.9839  161.1036 H   0  0  0  0  0  0  0  0  0  0  0  0
  154.3167  140.7302  161.2237 H   0  0  0  0  0  0  0  0  0  0  0  0
  149.7586  139.0238  158.2827 H   0  0  0  0  0  0  0  0  0  0  0  0
  148.2002  138.4892  159.3616 H   0  0  0  0  0  0  0  0  0  0  0  0
  147.4350  135.7237  159.7040 H   0  0  0  0  0  0  0  0  0  0  0  0
  146.2920  138.3334  160.8224 H   0  0  0  0  0  0  0  0  0  0  0  0
  145.7292  137.5022  159.3926 H   0  0  0  0  0  0  0  0  0  0  0  0
  144.2756  137.0196  161.3611 H   0  0  0  0  0  0  0  0  0  0  0  0
  145.0065  135.5631  160.7308 H   0  0  0  0  0  0  0  0  0  0  0  0
  145.9481  137.1360  163.1783 H   0  0  0  0  0  0  0  0  0  0  0  0
  145.1704  135.5711  163.1963 H   0  0  0  0  0  0  0  0  0  0  0  0
  147.6511  135.3682  163.4640 H   0  0  0  0  0  0  0  0  0  0  0  0
  147.0909  134.5425  162.0295 H   0  0  0  0  0  0  0  0  0  0  0  0
  149.1169  135.8498  161.5001 H   0  0  0  0  0  0  0  0  0  0  0  0
  148.3883  137.3074  162.1314 H   0  0  0  0  0  0  0  0  0  0  0  0
  1  2  2  0  0  0  0
  2  3  1  0  0  0  0
  2 15  1  0  0  0  0
  3  4  1  0  0  0  0
  3 25  1  0  0  0  0
  3 26  1  0  0  0  0
  4 13  1  0  0  0  0
  4  5  1  0  0  0  0
  5  6  2  0  0  0  0
  5 27  1  0  0  0  0
  6  7  1  0  0  0  0
  6 11  1  0  0  0  0
  7  8  1  0  0  0  0
  7  9  1  0  0  0  0
  7 10  1  0  0  0  0
 11 12  2  0  0  0  0
 11 28  1  0  0  0  0
 12 13  1  0  0  0  0
 12 29  1  0  0  0  0
 13 14  2  0  0  0  0
 15 16  1  0  0  0  0
 15 30  1  0  0  0  0
 16 17  2  0  0  0  0
 16 18  1  0  0  0  0
 18 19  1  0  0  0  0
 18 31  1  0  0  0  0
 19 24  1  0  0  0  0
 19 20  1  0  0  0  0
 19 32  1  0  0  0  0
 20 21  1  0  0  0  0
 20 33  1  0  0  0  0
 20 34  1  0  0  0  0
 21 22  1  0  0  0  0
 21 35  1  0  0  0  0
 21 36  1  0  0  0  0
 22 23  1  0  0  0  0
 22 37  1  0  0  0  0
 22 38  1  0  0  0  0
 23 24  1  0  0  0  0
 23 39  1  0  0  0  0
 23 40  1  0  0  0  0
 24 41  1  0  0  0  0
 24 42  1  0  0  0  0
M  END
> <s_m_source_file>
AV-unprocessed.smi

> <i_m_source_file_index>
2606

> <i_lp_mmshare_version>
43012

> <i_f3d_flags>
0

> <s_epik_input>
Tz1jMVtjSF1bY0hdYyhDKEYpKEYpRilbY0hdbjFbQ0gyXUMoPU8pW05IXUMoPU8pW05IXVtDSF0yW0NIMl1bQ0gyXVtDSDJdW0NIMl1bQ0gyXTI=

> <s_epik_cmdline>
J2VwaWtfcHl0aG9uJywgJy1waCcsICc3LjAnLCAnLXRuJywgJzgnLCAnLW1hJywgJzIwMCcsICctbWV0YWxfYmluZGluZycsICctaW1hZScsICc8aW5maWxlLm1hZT4nLCAnLW9tYWUnLCAnPG91dGZpbGUubWFlPic=

> <r_lp_tautomer_probability>
1

> <r_epik_Ionization_Penalty>
3.27177e-05

> <r_epik_Ionization_Penalty_Charging>
1.42456e-08

> <r_epik_Ionization_Penalty_Neutral>
3.27035e-05

> <r_epik_State_Penalty>
-0

> <r_epik_Charging_Adjusted_Penalty>
1.42456e-08

> <i_epik_Tot_Q>
0

> <i_epik_Tot_abs_Q>
0

> <r_epik_Metal_State_Penalty>
-0

> <b_epik_Metal_Only>
0

> <s_lp_Force_Field>
OPLS_2005

> <r_lp_Energy>
22.0809

> <b_lp_Chiralities_Consistent>
1

> <s_lp_Variant>
AV-unprocessed.smi:2606-1

> <Gold.Version>
5.8.1

> <Gold.Id.Protein>
6NUR|6NUR_protein|mol2

> <Gold.PLP.Fitness>
47.9529

> <Gold.PLP.PLP>
-46.4195

> <Gold.PLP.part.hbond>
-0.9176

> <Gold.PLP.part.metal>
0.0000

> <Gold.PLP.part.buried>
-6.1745

> <Gold.PLP.part.nonpolar>
-39.6216

> <Gold.PLP.part.repulsive>
0.3254

> <Gold.PLP.ligand.clash>
0.0000

> <Gold.PLP.ligand.torsion>
0.7660

> <Gold.PLP.Chemscore.Hbond>
1.0000

> <Gold.PLP.Chemscore.CHOScore>
0.0000

> <Gold.PLP.Chemscore.Metal>
0.0000

> <Gold.Chemscore.Hbonds>
donor molecule, donor type, donor heavy atom, donor atom, acceptor molecule, acceptor atom, score
      P1  H  6896  6909       L1    17  1.00

> <Gold.PLP.Chemscore.Internal.Correction>
0.0654

> <Gold.Rescore>
     Score         DG    S(hbond)    S(metal)    S(lipo)     H(rot)  DE(clash)    DE(int)     intcor
     10.60     -15.40       0.99        0.00      92.46       1.65       0.08       4.71       ----

> <Gold.Chemscore.Fitness>
10.5961

> <Gold.Chemscore.DG>
-15.3953

> <Gold.Chemscore.ZeroCoef>
-5.4800

> <Gold.Chemscore.Hbond>
0.9936

> <Gold.Chemscore.Metal>
0.0000

> <Gold.Chemscore.Lipo>
92.4650

> <Gold.Chemscore.Internal_Hbond>
0.0000

> <Gold.Chemscore.DEClash>
0.0849

> <Gold.Chemscore.DEInternal>
4.7142

> <Gold.Chemscore.Rot>
1.6491

> <Gold.Chemscore.Internal.Correction>
   9.000000E+99

> <Gold.Chemscore.Hbonds>
donor molecule, donor type, donor heavy atom, donor atom, acceptor molecule, acceptor atom, score
      P1  H  6896  6909       L1    17  0.97

> <Gold.Chemscore.Hbond.Weighted>
-3.3185

> <Gold.Chemscore.Metal.Weighted>
-0.0000

> <Gold.Chemscore.Lipo.Weighted>
-10.8184

> <Gold.Chemscore.Internal_Hbond.Weighted>
0.0000

> <Gold.Chemscore.DEClash.Weighted>
0.0849

> <Gold.Chemscore.DEInternal.Weighted>
4.7142

> <Gold.Chemscore.Rot.Weighted>
4.2216

> <Gold.Chemscore.Internal.Correction.Weighted>
   9.000000E+99

> <Gold.Protein.RotatedTorsions>
[ 6907 6896 6895 6894 ] final   73.72 input  -60.11 | X-H torsion
[ 7974 7965 7964 7962 ] final -123.80 input  175.53 | X-H torsion
[ 8008 7997 7996 7995 ] final -163.98 input   59.86 | X-H torsion
[ 10167 10162 10161 10158 ] final  150.61 input  -65.29 | X-H torsion
[ 10718 10713 10712 10709 ] final  -17.27 input   66.30 | X-H torsion
[ 10763 10752 10751 10750 ] final   -7.75 input  -60.55 | X-H torsion
[ 11005 11000 10999 10996 ] final  142.95 input  -57.11 | X-H torsion

> <Gold.Protein.ActiveResidues>
 VAL166  LYS551  ARG553  GLY616  TRP617  ASP618  TYR619  PRO620  LYS621  CYS622 
 ASP623  PHE694  ASN695  SER759  ASP760  ASP761  ALA762  ILE779  LEU786  VAL792 
 PHE793  MET794  SER795  GLU796  ALA797  LYS798  CYS799  TRP800  GLU811  SER814 

> <Gold.Protein.RotatedAtoms>
  152.4938  134.4380  159.9533 H   0  0  0  0  0  0  0  0  0  0  0  0  # atno 6907 bound_to 6896
  151.4362  133.3650  159.2783 H   0  0  0  0  0  0  0  0  0  0  0  0  # atno 6908 bound_to 6896
  150.9120  134.8560  159.7491 H   0  0  0  0  0  0  0  0  0  0  0  0  # atno 6909 bound_to 6896
  145.0148  140.7937  143.4416 H   0  0  0  0  0  0  0  0  0  0  0  0  # atno 7974 bound_to 7965
  155.8290  140.0931  157.1804 H   0  0  0  0  0  0  0  0  0  0  0  0  # atno 8008 bound_to 7997
  154.3979  140.1422  156.3652 H   0  0  0  0  0  0  0  0  0  0  0  0  # atno 8009 bound_to 7997
  155.8186  140.3447  155.5503 H   0  0  0  0  0  0  0  0  0  0  0  0  # atno 8010 bound_to 7997
  139.4848  144.5508  151.7403 H   0  0  0  0  0  0  0  0  0  0  0  0  # atno 10167 bound_to 10162
  156.5759  130.4761  149.6342 H   0  0  0  0  0  0  0  0  0  0  0  0  # atno 10718 bound_to 10713
  153.4308  135.7012  153.6232 H   0  0  0  0  0  0  0  0  0  0  0  0  # atno 10763 bound_to 10752
  153.4648  135.3728  155.2358 H   0  0  0  0  0  0  0  0  0  0  0  0  # atno 10764 bound_to 10752
  154.8725  135.4028  154.3691 H   0  0  0  0  0  0  0  0  0  0  0  0  # atno 10765 bound_to 10752
  140.0516  134.9252  157.1027 H   0  0  0  0  0  0  0  0  0  0  0  0  # atno 11005 bound_to 11000
  145.1974  139.2269  143.5211 LP  0  0  0  0  0  0  0  0  0  0  0  0  # atno 17320 bound_to 7965
  146.3476  140.1784  142.8589 LP  0  0  0  0  0  0  0  0  0  0  0  0  # atno 17321 bound_to 7965
  140.5062  144.1094  150.5983 LP  0  0  0  0  0  0  0  0  0  0  0  0  # atno 17342 bound_to 10162
  140.4004  143.2706  151.9954 LP  0  0  0  0  0  0  0  0  0  0  0  0  # atno 17343 bound_to 10162
  156.2674  130.6997  151.1784 LP  0  0  0  0  0  0  0  0  0  0  0  0  # atno 17370 bound_to 10713
  157.7338  131.0588  150.5560 LP  0  0  0  0  0  0  0  0  0  0  0  0  # atno 17371 bound_to 10713
  140.3908  134.2186  155.7166 LP  0  0  0  0  0  0  0  0  0  0  0  0  # atno 17394 bound_to 11000
  141.1933  133.8154  157.0805 LP  0  0  0  0  0  0  0  0  0  0  0  0  # atno 17395 bound_to 11000

$$$$
