AV-unprocessed.smi:1510|AV-procd|sdf|6095|dock2
  -GOLD-   22720 6223D 1   1.00000     0.00000
 Structure written by MMmdl.
 32 33  0  0  0  0  0  0  0  0  2 V2000
  143.0463  139.4052  160.9391 O   0  0  0  0  0  0  0  0  0  0  0  0
  144.0519  139.5011  160.2332 C   0  0  0  0  0  0  0  0  0  0  0  0
  144.4385  140.8309  159.5664 C   0  0  0  0  0  0  0  0  0  0  0  0
  144.7069  141.9259  160.5103 N   0  0  0  0  0  0  0  0  0  0  0  0
  146.0814  142.4175  160.4671 N   0  5  0  0  0  0  0  0  0  0  0  0
  146.4479  143.4332  161.2929 C   0  0  0  0  0  0  0  0  0  0  0  0
  147.5817  143.9070  161.3041 O   0  0  0  0  0  0  0  0  0  0  0  0
  145.4483  143.9717  162.2007 C   0  0  0  0  0  0  0  0  0  0  0  0
  144.1916  143.4863  162.2317 C   0  0  0  0  0  0  0  0  0  0  0  0
  143.7535  142.4014  161.3618 C   0  0  0  0  0  0  0  0  0  0  0  0
  142.6097  141.9471  161.3910 O   0  0  0  0  0  0  0  0  0  0  0  0
  144.8727  138.4694  159.9853 N   0  0  0  0  0  0  0  0  0  0  0  0
  144.7086  137.1189  160.5093 C   0  0  0  0  0  0  0  0  0  0  0  0
  145.7004  136.8286  161.6481 C   0  0  1  0  0  0  0  0  0  0  0  0
  145.8101  135.3465  162.0113 C   0  0  0  0  0  0  0  0  0  0  0  0
  147.2464  135.1871  162.4922 C   0  0  0  0  0  0  0  0  0  0  0  0
  147.8914  136.5441  162.2049 C   0  0  0  0  0  0  0  0  0  0  0  0
  147.0264  137.1527  161.2593 O   0  0  0  0  0  0  0  0  0  0  0  0
  145.3159  140.6701  158.9376 H   0  0  0  0  0  0  0  0  0  0  0  0
  143.6360  141.1098  158.8810 H   0  0  0  0  0  0  0  0  0  0  0  0
  145.7208  144.7770  162.8669 H   0  0  0  0  0  0  0  0  0  0  0  0
  143.4827  143.9153  162.9241 H   0  0  0  0  0  0  0  0  0  0  0  0
  145.6750  138.6355  159.3960 H   0  0  0  0  0  0  0  0  0  0  0  0
  143.6833  136.9792  160.8559 H   0  0  0  0  0  0  0  0  0  0  0  0
  144.8579  136.4132  159.6917 H   0  0  0  0  0  0  0  0  0  0  0  0
  145.4427  137.4034  162.5400 H   0  0  0  0  0  0  0  0  0  0  0  0
  145.0784  135.0531  162.7647 H   0  0  0  0  0  0  0  0  0  0  0  0
  145.6503  134.7226  161.1308 H   0  0  0  0  0  0  0  0  0  0  0  0
  147.3020  134.9394  163.5526 H   0  0  0  0  0  0  0  0  0  0  0  0
  147.7446  134.3924  161.9355 H   0  0  0  0  0  0  0  0  0  0  0  0
  147.9216  137.1546  163.1087 H   0  0  0  0  0  0  0  0  0  0  0  0
  148.9072  136.4554  161.8194 H   0  0  0  0  0  0  0  0  0  0  0  0
  1  2  2  0  0  0  0
  2  3  1  0  0  0  0
  2 12  1  0  0  0  0
  3 19  1  0  0  0  0
  3 20  1  0  0  0  0
  3  4  1  0  0  0  0
  4  5  1  0  0  0  0
  4 10  1  0  0  0  0
  5  6  1  0  0  0  0
  6  7  2  0  0  0  0
  6  8  1  0  0  0  0
  8 21  1  0  0  0  0
  8  9  2  0  0  0  0
  9 22  1  0  0  0  0
  9 10  1  0  0  0  0
 10 11  2  0  0  0  0
 12 13  1  0  0  0  0
 12 23  1  0  0  0  0
 13 14  1  0  0  0  0
 13 24  1  0  0  0  0
 13 25  1  0  0  0  0
 14 18  1  0  0  0  0
 14 15  1  0  0  0  0
 14 26  1  0  0  0  0
 15 16  1  0  0  0  0
 15 27  1  0  0  0  0
 15 28  1  0  0  0  0
 16 17  1  0  0  0  0
 16 29  1  0  0  0  0
 16 30  1  0  0  0  0
 17 18  1  0  0  0  0
 17 31  1  0  0  0  0
 17 32  1  0  0  0  0
M  CHG  1   5  -1
M  END
> <s_m_source_file>
AV-unprocessed.smi

> <i_m_source_file_index>
1510

> <i_lp_mmshare_version>
43012

> <i_f3d_flags>
0

> <s_epik_input>
TzFbQ0gyXVtDSDJdW0NIMl1bQ0BIXTFbQ0gyXVtOSF1DKD1PKVtDSDJdbjJbbkhdYyg9TylbY0hdW2NIXWMyPU8=

> <s_epik_cmdline>
J2VwaWtfcHl0aG9uJywgJy1waCcsICc3LjAnLCAnLXRuJywgJzgnLCAnLW1hJywgJzIwMCcsICctbWV0YWxfYmluZGluZycsICctaW1hZScsICc8aW5maWxlLm1hZT4nLCAnLW9tYWUnLCAnPG91dGZpbGUubWFlPic=

> <r_lp_tautomer_probability>
1

> <r_epik_Ionization_Penalty>
0.0970799

> <r_epik_Ionization_Penalty_Charging>
0.0970799

> <r_epik_Ionization_Penalty_Neutral>
2.6859e-08

> <r_epik_State_Penalty>
0.0341592

> <r_epik_Charging_Adjusted_Penalty>
0.131239

> <i_epik_Tot_Q>
-1

> <i_epik_Tot_abs_Q>
1

> <r_epik_Metal_State_Penalty>
0.0341592

> <b_epik_Metal_Only>
0

> <s_lp_Force_Field>
OPLS_2005

> <r_lp_Energy>
32.1041

> <b_lp_Chiralities_Consistent>
1

> <s_lp_Variant>
AV-unprocessed.smi:1510-2

> <Gold.Version>
5.8.1

> <Gold.Id.Protein>
6NUR|6NUR_protein|mol2

> <Gold.PLP.Fitness>
44.7629

> <Gold.PLP.PLP>
-33.0987

> <Gold.PLP.part.hbond>
-5.3506

> <Gold.PLP.part.metal>
0.0000

> <Gold.PLP.part.buried>
-4.7232

> <Gold.PLP.part.nonpolar>
-23.6559

> <Gold.PLP.part.repulsive>
0.2574

> <Gold.PLP.ligand.clash>
0.0000

> <Gold.PLP.ligand.torsion>
0.1728

> <Gold.PLP.Chemscore.Hbond>
4.0000

> <Gold.PLP.Chemscore.CHOScore>
0.0000

> <Gold.PLP.Chemscore.Metal>
0.0000

> <Gold.Chemscore.Hbonds>
donor molecule, donor type, donor heavy atom, donor atom, acceptor molecule, acceptor atom, score
      P1  H  6933  6944       L1     7  0.90
      P1  H  6934  6946       L1     5  1.80
      P1  H  6934  6947       L1    18  1.00

> <Gold.PLP.Chemscore.Internal.Correction>
0.0099

> <Gold.Rescore>
     Score         DG    S(hbond)    S(metal)    S(lipo)     H(rot)  DE(clash)    DE(int)     intcor
     12.56     -14.50       2.53        0.00      49.49       2.05       0.06       1.87       ----

> <Gold.Chemscore.Fitness>
12.5593

> <Gold.Chemscore.DG>
-14.4953

> <Gold.Chemscore.ZeroCoef>
-5.4800

> <Gold.Chemscore.Hbond>
2.5339

> <Gold.Chemscore.Metal>
0.0000

> <Gold.Chemscore.Lipo>
49.4922

> <Gold.Chemscore.Internal_Hbond>
0.0000

> <Gold.Chemscore.DEClash>
0.0618

> <Gold.Chemscore.DEInternal>
1.8743

> <Gold.Chemscore.Rot>
2.0463

> <Gold.Chemscore.Internal.Correction>
   9.000000E+99

> <Gold.Chemscore.Hbonds>
donor molecule, donor type, donor heavy atom, donor atom, acceptor molecule, acceptor atom, score
      P1  H  6933  6944       L1     7  0.18
      P1  H  6934  6946       L1     5  0.17
      P1  H  6934  6947       L1    18  0.71

> <Gold.Chemscore.Hbond.Weighted>
-8.4633

> <Gold.Chemscore.Metal.Weighted>
-0.0000

> <Gold.Chemscore.Lipo.Weighted>
-5.7906

> <Gold.Chemscore.Internal_Hbond.Weighted>
0.0000

> <Gold.Chemscore.DEClash.Weighted>
0.0618

> <Gold.Chemscore.DEInternal.Weighted>
1.8743

> <Gold.Chemscore.Rot.Weighted>
5.2386

> <Gold.Chemscore.Internal.Correction.Weighted>
   9.000000E+99

> <Gold.Protein.RotatedTorsions>
[ 6907 6896 6895 6894 ] final  160.17 input  -60.11 | X-H torsion
[ 7974 7965 7964 7962 ] final -112.41 input  175.53 | X-H torsion
[ 8008 7997 7996 7995 ] final   44.35 input   59.86 | X-H torsion
[ 10167 10162 10161 10158 ] final   50.07 input  -65.29 | X-H torsion
[ 10718 10713 10712 10709 ] final    6.94 input   66.30 | X-H torsion
[ 10763 10752 10751 10750 ] final  -50.97 input  -60.55 | X-H torsion
[ 11005 11000 10999 10996 ] final  -46.76 input  -57.11 | X-H torsion

> <Gold.Protein.ActiveResidues>
 VAL166  LYS551  ARG553  GLY616  TRP617  ASP618  TYR619  PRO620  LYS621  CYS622 
 ASP623  PHE694  ASN695  SER759  ASP760  ASP761  ALA762  ILE779  LEU786  VAL792 
 PHE793  MET794  SER795  GLU796  ALA797  LYS798  CYS799  TRP800  GLU811  SER814 

> <Gold.Protein.RotatedAtoms>
  151.9747  133.3737  159.4084 H   0  0  0  0  0  0  0  0  0  0  0  0  # atno 6907 bound_to 6896
  150.6943  134.4102  159.5168 H   0  0  0  0  0  0  0  0  0  0  0  0  # atno 6908 bound_to 6896
  152.1812  134.8752  160.0577 H   0  0  0  0  0  0  0  0  0  0  0  0  # atno 6909 bound_to 6896
  145.1443  140.8795  143.3683 H   0  0  0  0  0  0  0  0  0  0  0  0  # atno 7974 bound_to 7965
  155.3179  140.3395  155.4242 H   0  0  0  0  0  0  0  0  0  0  0  0  # atno 8008 bound_to 7997
  156.1923  140.1702  156.8104 H   0  0  0  0  0  0  0  0  0  0  0  0  # atno 8009 bound_to 7997
  154.5457  140.0715  156.8568 H   0  0  0  0  0  0  0  0  0  0  0  0  # atno 8010 bound_to 7997
  140.2763  144.3208  150.6276 H   0  0  0  0  0  0  0  0  0  0  0  0  # atno 10167 bound_to 10162
  156.9296  130.5821  149.5649 H   0  0  0  0  0  0  0  0  0  0  0  0  # atno 10718 bound_to 10713
  154.1191  135.6537  153.4899 H   0  0  0  0  0  0  0  0  0  0  0  0  # atno 10763 bound_to 10752
  153.0231  135.5266  154.7115 H   0  0  0  0  0  0  0  0  0  0  0  0  # atno 10764 bound_to 10752
  154.6317  135.2977  155.0178 H   0  0  0  0  0  0  0  0  0  0  0  0  # atno 10765 bound_to 10752
  141.0599  133.6713  156.3201 H   0  0  0  0  0  0  0  0  0  0  0  0  # atno 11005 bound_to 11000
  145.0498  139.3190  143.5934 LP  0  0  0  0  0  0  0  0  0  0  0  0  # atno 17320 bound_to 7965
  146.3502  139.9903  142.8686 LP  0  0  0  0  0  0  0  0  0  0  0  0  # atno 17321 bound_to 7965
  140.5849  143.2170  151.7361 LP  0  0  0  0  0  0  0  0  0  0  0  0  # atno 17342 bound_to 10162
  139.4975  144.4026  152.0165 LP  0  0  0  0  0  0  0  0  0  0  0  0  # atno 17343 bound_to 10162
  156.0453  130.5530  150.8867 LP  0  0  0  0  0  0  0  0  0  0  0  0  # atno 17370 bound_to 10713
  157.5856  131.0945  150.9202 LP  0  0  0  0  0  0  0  0  0  0  0  0  # atno 17371 bound_to 10713
  140.5890  134.5670  157.5495 LP  0  0  0  0  0  0  0  0  0  0  0  0  # atno 17394 bound_to 11000
  139.9423  134.7764  156.0647 LP  0  0  0  0  0  0  0  0  0  0  0  0  # atno 17395 bound_to 11000

$$$$
