AV-unprocessed.smi:2022|AV-procd|sdf|8187|dock7
  -GOLD-   2272010443D 1   1.00000     0.00000
 Structure written by MMmdl.
 34 35  0  0  0  0  0  0  0  0  1 V2000
  153.5561  142.0554  160.6137 C   0  0  0  0  0  0  0  0  0  0  0  0
  152.7369  142.5817  159.4855 C   0  0  0  0  0  0  0  0  0  0  0  0
  151.8792  141.9867  158.6037 C   0  0  0  0  0  0  0  0  0  0  0  0
  151.4511  143.0714  157.7930 C   0  0  0  0  0  0  0  0  0  0  0  0
  150.5350  142.8665  156.7300 N   0  0  0  0  0  0  0  0  0  0  0  0
  149.9532  141.7131  156.3602 C   0  0  0  0  0  0  0  0  0  0  0  0
  150.1418  140.6198  156.8944 O   0  0  0  0  0  0  0  0  0  0  0  0
  149.1253  141.8989  155.3217 N   0  0  0  0  0  0  0  0  0  0  0  0
  148.2961  140.8693  154.6953 C   0  0  2  0  0  0  0  0  0  0  0  0
  147.2562  140.3132  155.7021 C   0  0  0  0  0  0  0  0  0  0  0  0
  146.7335  138.8890  155.4198 C   0  0  0  0  0  0  0  0  0  0  0  0
  146.1614  138.6605  154.0060 C   0  0  0  0  0  0  0  0  0  0  0  0
  147.0897  139.0013  152.8158 C   0  0  0  0  0  0  0  0  0  0  0  0
  148.5169  138.9672  153.1331 N   0  0  0  0  0  0  0  0  0  0  0  0
  149.1472  139.8089  153.9703 C   0  0  0  0  0  0  0  0  0  0  0  0
  150.3585  139.7276  154.1712 O   0  0  0  0  0  0  0  0  0  0  0  0
  151.9962  144.2247  158.1488 N   0  0  0  0  0  0  0  0  0  0  0  0
  152.8236  143.9165  159.2352 O   0  0  0  0  0  0  0  0  0  0  0  0
  153.2196  141.0612  160.9079 H   0  0  0  0  0  0  0  0  0  0  0  0
  153.4831  142.7074  161.4844 H   0  0  0  0  0  0  0  0  0  0  0  0
  154.6060  141.9870  160.3282 H   0  0  0  0  0  0  0  0  0  0  0  0
  151.6067  140.9432  158.5485 H   0  0  0  0  0  0  0  0  0  0  0  0
  150.2860  143.6896  156.2017 H   0  0  0  0  0  0  0  0  0  0  0  0
  149.0316  142.8329  154.9498 H   0  0  0  0  0  0  0  0  0  0  0  0
  147.7427  141.3751  153.9028 H   0  0  0  0  0  0  0  0  0  0  0  0
  147.6888  140.3098  156.7038 H   0  0  0  0  0  0  0  0  0  0  0  0
  146.4114  141.0014  155.7509 H   0  0  0  0  0  0  0  0  0  0  0  0
  147.5296  138.1672  155.6076 H   0  0  0  0  0  0  0  0  0  0  0  0
  145.9606  138.6508  156.1512 H   0  0  0  0  0  0  0  0  0  0  0  0
  145.8824  137.6088  153.9320 H   0  0  0  0  0  0  0  0  0  0  0  0
  145.2293  139.2161  153.8962 H   0  0  0  0  0  0  0  0  0  0  0  0
  146.9030  138.3040  151.9989 H   0  0  0  0  0  0  0  0  0  0  0  0
  146.8380  139.9840  152.4154 H   0  0  0  0  0  0  0  0  0  0  0  0
  149.0715  138.2639  152.6666 H   0  0  0  0  0  0  0  0  0  0  0  0
  1  2  1  0  0  0  0
  1 19  1  0  0  0  0
  1 20  1  0  0  0  0
  1 21  1  0  0  0  0
  2 18  1  0  0  0  0
  2  3  2  0  0  0  0
  3  4  1  0  0  0  0
  3 22  1  0  0  0  0
  4  5  1  0  0  0  0
  4 17  2  0  0  0  0
  5  6  1  0  0  0  0
  5 23  1  0  0  0  0
  6  7  2  0  0  0  0
  6  8  1  0  0  0  0
  8  9  1  0  0  0  0
  8 24  1  0  0  0  0
  9 15  1  0  0  0  0
  9 10  1  0  0  0  0
  9 25  1  0  0  0  0
 10 11  1  0  0  0  0
 10 26  1  0  0  0  0
 10 27  1  0  0  0  0
 11 12  1  0  0  0  0
 11 28  1  0  0  0  0
 11 29  1  0  0  0  0
 12 13  1  0  0  0  0
 12 30  1  0  0  0  0
 12 31  1  0  0  0  0
 13 14  1  0  0  0  0
 13 32  1  0  0  0  0
 13 33  1  0  0  0  0
 14 15  1  0  0  0  0
 14 34  1  0  0  0  0
 15 16  2  0  0  0  0
 17 18  1  0  0  0  0
M  END
> <s_m_source_file>
AV-unprocessed.smi

> <i_m_source_file_index>
2022

> <i_lp_mmshare_version>
43012

> <i_f3d_flags>
0

> <s_epik_input>
W0NIM11jMVtjSF1jKG5vMSlbTkhdQyg9TylbTkhdW0NAQEhdMltDSDJdW0NIMl1bQ0gyXVtDSDJdW05IXUMyPU8=

> <s_epik_cmdline>
J2VwaWtfcHl0aG9uJywgJy1waCcsICc3LjAnLCAnLXRuJywgJzgnLCAnLW1hJywgJzIwMCcsICctbWV0YWxfYmluZGluZycsICctaW1hZScsICc8aW5maWxlLm1hZT4nLCAnLW9tYWUnLCAnPG91dGZpbGUubWFlPic=

> <r_lp_tautomer_probability>
1

> <r_epik_Ionization_Penalty>
2.27343e-05

> <r_epik_Ionization_Penalty_Charging>
0

> <r_epik_Ionization_Penalty_Neutral>
2.27343e-05

> <r_epik_State_Penalty>
-0

> <r_epik_Charging_Adjusted_Penalty>
0

> <i_epik_Tot_Q>
0

> <i_epik_Tot_abs_Q>
0

> <r_epik_Metal_State_Penalty>
-0

> <b_epik_Metal_Only>
0

> <s_lp_Force_Field>
OPLS_2005

> <r_lp_Energy>
12.0489

> <b_lp_Chiralities_Consistent>
1

> <s_lp_Variant>
AV-unprocessed.smi:2022-1

> <Gold.Version>
5.8.1

> <Gold.Id.Protein>
6NUR|6NUR_protein|mol2

> <Gold.PLP.Fitness>
39.7329

> <Gold.PLP.PLP>
-30.0450

> <Gold.PLP.part.hbond>
-5.0000

> <Gold.PLP.part.metal>
0.0000

> <Gold.PLP.part.buried>
-4.9904

> <Gold.PLP.part.nonpolar>
-21.2317

> <Gold.PLP.part.repulsive>
0.5409

> <Gold.PLP.ligand.clash>
0.0000

> <Gold.PLP.ligand.torsion>
0.0314

> <Gold.PLP.Chemscore.Hbond>
3.2325

> <Gold.PLP.Chemscore.CHOScore>
0.0000

> <Gold.PLP.Chemscore.Metal>
0.0000

> <Gold.Chemscore.Hbonds>
donor molecule, donor type, donor heavy atom, donor atom, acceptor molecule, acceptor atom, score
      L1  H     5    23       P1  8028  0.90
      L1  H     8    24       P1  8028  0.78
      L1  H    14    34       P1  7948  0.60
      P1  H  7989  7998       L1    16  1.00

> <Gold.PLP.Chemscore.Internal.Correction>
0.0533

> <Gold.Rescore>
     Score         DG    S(hbond)    S(metal)    S(lipo)     H(rot)  DE(clash)    DE(int)     intcor
     15.71     -19.45       3.28        0.00      47.71       1.00       0.07       3.67       ----

> <Gold.Chemscore.Fitness>
15.7118

> <Gold.Chemscore.DG>
-19.4537

> <Gold.Chemscore.ZeroCoef>
-5.4800

> <Gold.Chemscore.Hbond>
3.2788

> <Gold.Chemscore.Metal>
0.0000

> <Gold.Chemscore.Lipo>
47.7129

> <Gold.Chemscore.Internal_Hbond>
0.0000

> <Gold.Chemscore.DEClash>
0.0727

> <Gold.Chemscore.DEInternal>
3.6691

> <Gold.Chemscore.Rot>
1.0000

> <Gold.Chemscore.Internal.Correction>
   9.000000E+99

> <Gold.Chemscore.Hbonds>
donor molecule, donor type, donor heavy atom, donor atom, acceptor molecule, acceptor atom, score
      L1  H     5    23       P1  8028  0.88
      L1  H     8    24       P1  8028  0.74
      L1  H    14    34       P1  7948  0.57
      P1  H  7989  7998       L1    16  0.99

> <Gold.Chemscore.Hbond.Weighted>
-10.9513

> <Gold.Chemscore.Metal.Weighted>
-0.0000

> <Gold.Chemscore.Lipo.Weighted>
-5.5824

> <Gold.Chemscore.Internal_Hbond.Weighted>
0.0000

> <Gold.Chemscore.DEClash.Weighted>
0.0727

> <Gold.Chemscore.DEInternal.Weighted>
3.6691

> <Gold.Chemscore.Rot.Weighted>
2.5600

> <Gold.Chemscore.Internal.Correction.Weighted>
   9.000000E+99

> <Gold.Protein.RotatedTorsions>
[ 6907 6896 6895 6894 ] final  -53.89 input  -60.11 | X-H torsion
[ 7974 7965 7964 7962 ] final  153.37 input  175.53 | X-H torsion
[ 8008 7997 7996 7995 ] final   99.49 input   59.86 | X-H torsion
[ 10167 10162 10161 10158 ] final  -26.85 input  -65.29 | X-H torsion
[ 10718 10713 10712 10709 ] final  -59.47 input   66.30 | X-H torsion
[ 10763 10752 10751 10750 ] final  143.58 input  -60.55 | X-H torsion
[ 11005 11000 10999 10996 ] final   88.52 input  -57.11 | X-H torsion

> <Gold.Protein.ActiveResidues>
 VAL166  LYS551  ARG553  GLY616  TRP617  ASP618  TYR619  PRO620  LYS621  CYS622 
 ASP623  PHE694  ASN695  SER759  ASP760  ASP761  ALA762  ILE779  LEU786  VAL792 
 PHE793  MET794  SER795  GLU796  ALA797  LYS798  CYS799  TRP800  GLU811  SER814 

> <Gold.Protein.RotatedAtoms>
  150.8386  134.7670  159.6913 H   0  0  0  0  0  0  0  0  0  0  0  0  # atno 6907 bound_to 6896
  152.4478  134.5454  159.9861 H   0  0  0  0  0  0  0  0  0  0  0  0  # atno 6908 bound_to 6896
  151.5599  133.3367  159.3005 H   0  0  0  0  0  0  0  0  0  0  0  0  # atno 6909 bound_to 6896
  144.8159  139.6792  143.6121 H   0  0  0  0  0  0  0  0  0  0  0  0  # atno 7974 bound_to 7965
  156.1110  140.3228  155.8073 H   0  0  0  0  0  0  0  0  0  0  0  0  # atno 8008 bound_to 7997
  155.4672  140.0544  157.3001 H   0  0  0  0  0  0  0  0  0  0  0  0  # atno 8009 bound_to 7997
  154.4760  140.2032  155.9891 H   0  0  0  0  0  0  0  0  0  0  0  0  # atno 8010 bound_to 7997
  140.7280  143.4143  151.1054 H   0  0  0  0  0  0  0  0  0  0  0  0  # atno 10167 bound_to 10162
  156.1059  130.4180  150.0720 H   0  0  0  0  0  0  0  0  0  0  0  0  # atno 10718 bound_to 10713
  153.9746  135.2947  155.3425 H   0  0  0  0  0  0  0  0  0  0  0  0  # atno 10763 bound_to 10752
  154.7303  135.5070  153.8956 H   0  0  0  0  0  0  0  0  0  0  0  0  # atno 10764 bound_to 10752
  153.0883  135.6700  154.0017 H   0  0  0  0  0  0  0  0  0  0  0  0  # atno 10765 bound_to 10752
  139.8895  134.8493  156.3012 H   0  0  0  0  0  0  0  0  0  0  0  0  # atno 11005 bound_to 11000
  146.2462  139.6102  142.9458 LP  0  0  0  0  0  0  0  0  0  0  0  0  # atno 17320 bound_to 7965
  145.5216  141.0431  143.2432 LP  0  0  0  0  0  0  0  0  0  0  0  0  # atno 17321 bound_to 7965
  139.7780  143.8396  152.3133 LP  0  0  0  0  0  0  0  0  0  0  0  0  # atno 17342 bound_to 10162
  139.8338  144.7242  150.9417 LP  0  0  0  0  0  0  0  0  0  0  0  0  # atno 17343 bound_to 10162
  156.8696  130.9519  151.3610 LP  0  0  0  0  0  0  0  0  0  0  0  0  # atno 17370 bound_to 10713
  157.6236  130.8674  149.9150 LP  0  0  0  0  0  0  0  0  0  0  0  0  # atno 17371 bound_to 10713
  140.9912  133.7208  156.0817 LP  0  0  0  0  0  0  0  0  0  0  0  0  # atno 17394 bound_to 11000
  140.7623  134.3926  157.5523 LP  0  0  0  0  0  0  0  0  0  0  0  0  # atno 17395 bound_to 11000

$$$$
