AV-unprocessed.smi:2735|AV-procd|sdf|10543|dock8
  -GOLD-   2272014593D 1   1.00000     0.00000
 Structure written by MMmdl.
 42 42  0  0  0  0  0  0  0  0  2 V2000
  150.7146  141.9631  158.1151 C   0  0  0  0  0  0  0  0  0  0  0  0
  150.5602  140.7351  157.2675 C   0  0  0  0  0  0  0  0  0  0  0  0
  151.1872  140.4349  156.0271 C   0  0  0  0  0  0  0  0  0  0  0  0
  150.7108  139.1972  155.6985 C   0  0  0  0  0  0  0  0  0  0  0  0
  151.0218  138.3382  154.5163 C   0  0  0  0  0  0  0  0  0  0  0  0
  149.8354  138.8180  156.7041 N   0  0  0  0  0  0  0  0  0  0  0  0
  149.1090  137.5568  156.8653 C   0  0  2  0  0  0  0  0  0  0  0  0
  147.5972  137.7230  156.6049 C   0  0  0  0  0  0  0  0  0  0  0  0
  149.4208  136.9365  158.2387 C   0  0  0  0  0  0  0  0  0  0  0  0
  150.5651  136.9430  158.6943 O   0  0  0  0  0  0  0  0  0  0  0  0
  148.3769  136.3910  158.8818 N   0  0  0  0  0  0  0  0  0  0  0  0
  148.4229  135.6839  160.1586 C   0  0  2  0  0  0  0  0  0  0  0  0
  147.6849  134.3319  160.0021 C   0  0  0  0  0  0  0  0  0  0  0  0
  148.0138  133.2705  161.0794 C   0  0  0  0  0  0  0  0  0  0  0  0
  147.1972  131.9911  160.8430 C   0  0  0  0  0  0  0  0  0  0  0  0
  147.7993  133.7911  162.5102 C   0  0  0  0  0  0  0  0  0  0  0  0
  147.6998  136.5108  161.2338 C   0  0  0  0  0  0  0  0  0  0  0  0
  148.3257  136.7310  162.2935 O   0  0  0  0  0  0  0  0  0  0  0  0
  146.5362  136.9026  160.9870 O   0  5  0  0  0  0  0  0  0  0  0  0
  149.7573  139.7650  157.6684 N   0  0  0  0  0  0  0  0  0  0  0  0
  149.4555  135.5151  160.4687 H   0  0  0  0  0  0  0  0  0  0  0  0
  151.5316  142.5893  157.7561 H   0  0  0  0  0  0  0  0  0  0  0  0
  150.9295  141.7017  159.1517 H   0  0  0  0  0  0  0  0  0  0  0  0
  149.8049  142.5639  158.1031 H   0  0  0  0  0  0  0  0  0  0  0  0
  151.8905  141.0337  155.4678 H   0  0  0  0  0  0  0  0  0  0  0  0
  151.7410  138.8265  153.8588 H   0  0  0  0  0  0  0  0  0  0  0  0
  150.1222  138.1355  153.9351 H   0  0  0  0  0  0  0  0  0  0  0  0
  151.4490  137.3851  154.8274 H   0  0  0  0  0  0  0  0  0  0  0  0
  149.4831  136.8580  156.1170 H   0  0  0  0  0  0  0  0  0  0  0  0
  147.0837  136.7614  156.6429 H   0  0  0  0  0  0  0  0  0  0  0  0
  147.4180  138.1481  155.6171 H   0  0  0  0  0  0  0  0  0  0  0  0
  147.1247  138.3787  157.3376 H   0  0  0  0  0  0  0  0  0  0  0  0
  147.4713  136.4515  158.4405 H   0  0  0  0  0  0  0  0  0  0  0  0
  146.6085  134.5119  160.0010 H   0  0  0  0  0  0  0  0  0  0  0  0
  147.9146  133.9057  159.0235 H   0  0  0  0  0  0  0  0  0  0  0  0
  149.0641  132.9920  160.9853 H   0  0  0  0  0  0  0  0  0  0  0  0
  146.1271  132.1827  160.9294 H   0  0  0  0  0  0  0  0  0  0  0  0
  147.4573  131.2185  161.5671 H   0  0  0  0  0  0  0  0  0  0  0  0
  147.3837  131.5837  159.8489 H   0  0  0  0  0  0  0  0  0  0  0  0
  146.7761  134.1381  162.6572 H   0  0  0  0  0  0  0  0  0  0  0  0
  148.4707  134.6185  162.7396 H   0  0  0  0  0  0  0  0  0  0  0  0
  147.9951  133.0094  163.2445 H   0  0  0  0  0  0  0  0  0  0  0  0
  1  2  1  0  0  0  0
  1 22  1  0  0  0  0
  1 23  1  0  0  0  0
  1 24  1  0  0  0  0
  2 20  2  0  0  0  0
  2  3  1  0  0  0  0
  3  4  2  0  0  0  0
  3 25  1  0  0  0  0
  4  5  1  0  0  0  0
  4  6  1  0  0  0  0
  5 26  1  0  0  0  0
  5 27  1  0  0  0  0
  5 28  1  0  0  0  0
  6  7  1  0  0  0  0
  6 20  1  0  0  0  0
  7  8  1  0  0  0  0
  7  9  1  0  0  0  0
  7 29  1  0  0  0  0
  8 30  1  0  0  0  0
  8 31  1  0  0  0  0
  8 32  1  0  0  0  0
  9 10  2  0  0  0  0
  9 11  1  0  0  0  0
 11 12  1  0  0  0  0
 11 33  1  0  0  0  0
 12 21  1  0  0  0  0
 12 13  1  0  0  0  0
 12 17  1  0  0  0  0
 13 14  1  0  0  0  0
 13 34  1  0  0  0  0
 13 35  1  0  0  0  0
 14 15  1  0  0  0  0
 14 16  1  0  0  0  0
 14 36  1  0  0  0  0
 15 37  1  0  0  0  0
 15 38  1  0  0  0  0
 15 39  1  0  0  0  0
 16 40  1  0  0  0  0
 16 41  1  0  0  0  0
 16 42  1  0  0  0  0
 17 18  2  0  0  0  0
 17 19  1  0  0  0  0
M  CHG  1  19  -1
M  END
> <s_m_source_file>
AV-unprocessed.smi

> <i_m_source_file_index>
2735

> <i_lp_mmshare_version>
43012

> <i_f3d_flags>
0

> <s_epik_input>
W0NIM11jMVtjSF1jKFtDSDNdKW4objEpW0NASF0oW0NIM10pQyg9TylbTkhdW0NASF0oQyg9TylbT0hdKVtDSDJdW0NIXShbQ0gzXSlbQ0gzXQ==

> <s_epik_cmdline>
J2VwaWtfcHl0aG9uJywgJy1waCcsICc3LjAnLCAnLXRuJywgJzgnLCAnLW1hJywgJzIwMCcsICctbWV0YWxfYmluZGluZycsICctaW1hZScsICc8aW5maWxlLm1hZT4nLCAnLW9tYWUnLCAnPG91dGZpbGUubWFlPic=

> <r_lp_tautomer_probability>
1

> <r_epik_Ionization_Penalty>
0.0012303

> <r_epik_Ionization_Penalty_Charging>
0.000186407

> <r_epik_Ionization_Penalty_Neutral>
0.0010439

> <r_epik_State_Penalty>
-0

> <r_epik_Charging_Adjusted_Penalty>
0.000186407

> <i_epik_Tot_Q>
-1

> <i_epik_Tot_abs_Q>
1

> <r_epik_Metal_State_Penalty>
-0

> <b_epik_Metal_Only>
0

> <s_lp_Force_Field>
OPLS_2005

> <r_lp_Energy>
6.45659

> <b_lp_Chiralities_Consistent>
1

> <s_lp_Variant>
AV-unprocessed.smi:2735-3

> <Gold.Version>
5.8.1

> <Gold.Id.Protein>
6NUR|6NUR_protein|mol2

> <Gold.PLP.Fitness>
42.6112

> <Gold.PLP.PLP>
-29.4042

> <Gold.PLP.part.hbond>
-3.0000

> <Gold.PLP.part.metal>
0.0000

> <Gold.PLP.part.buried>
-4.1119

> <Gold.PLP.part.nonpolar>
-22.9320

> <Gold.PLP.part.repulsive>
0.1211

> <Gold.PLP.ligand.clash>
0.0000

> <Gold.PLP.ligand.torsion>
0.9849

> <Gold.PLP.Chemscore.Hbond>
4.9920

> <Gold.PLP.Chemscore.CHOScore>
0.0000

> <Gold.PLP.Chemscore.Metal>
0.0000

> <Gold.Chemscore.Hbonds>
donor molecule, donor type, donor heavy atom, donor atom, acceptor molecule, acceptor atom, score
      P1  H  6896  6908       L1    10  0.41
      P1  H  6931  6943       L1    18  2.00
      P1  H  6934  6947       L1    19  0.66

> <Gold.PLP.Chemscore.Internal.Correction>
0.2008

> <Gold.Rescore>
     Score         DG    S(hbond)    S(metal)    S(lipo)     H(rot)  DE(clash)    DE(int)     intcor
     12.55     -13.08       1.86        0.00      60.99       2.24       0.03       0.50       ----

> <Gold.Chemscore.Fitness>
12.5473

> <Gold.Chemscore.DG>
-13.0834

> <Gold.Chemscore.ZeroCoef>
-5.4800

> <Gold.Chemscore.Hbond>
1.8560

> <Gold.Chemscore.Metal>
0.0000

> <Gold.Chemscore.Lipo>
60.9891

> <Gold.Chemscore.Internal_Hbond>
0.0000

> <Gold.Chemscore.DEClash>
0.0318

> <Gold.Chemscore.DEInternal>
0.5043

> <Gold.Chemscore.Rot>
2.2388

> <Gold.Chemscore.Internal.Correction>
   9.000000E+99

> <Gold.Chemscore.Hbonds>
donor molecule, donor type, donor heavy atom, donor atom, acceptor molecule, acceptor atom, score
      P1  H  6896  6908       L1    10  0.26
      P1  H  6931  6943       L1    18  0.30
      P1  H  6934  6947       L1    19  0.02

> <Gold.Chemscore.Hbond.Weighted>
-6.1991

> <Gold.Chemscore.Metal.Weighted>
-0.0000

> <Gold.Chemscore.Lipo.Weighted>
-7.1357

> <Gold.Chemscore.Internal_Hbond.Weighted>
0.0000

> <Gold.Chemscore.DEClash.Weighted>
0.0318

> <Gold.Chemscore.DEInternal.Weighted>
0.5043

> <Gold.Chemscore.Rot.Weighted>
5.7314

> <Gold.Chemscore.Internal.Correction.Weighted>
   9.000000E+99

> <Gold.Protein.RotatedTorsions>
[ 6907 6896 6895 6894 ] final -160.74 input  -60.11 | X-H torsion
[ 7974 7965 7964 7962 ] final  -14.11 input  175.53 | X-H torsion
[ 8008 7997 7996 7995 ] final -122.83 input   59.86 | X-H torsion
[ 10167 10162 10161 10158 ] final -127.60 input  -65.29 | X-H torsion
[ 10718 10713 10712 10709 ] final  -69.48 input   66.30 | X-H torsion
[ 10763 10752 10751 10750 ] final  152.21 input  -60.55 | X-H torsion
[ 11005 11000 10999 10996 ] final -178.38 input  -57.11 | X-H torsion

> <Gold.Protein.ActiveResidues>
 VAL166  LYS551  ARG553  GLY616  TRP617  ASP618  TYR619  PRO620  LYS621  CYS622 
 ASP623  PHE694  ASN695  SER759  ASP760  ASP761  ALA762  ILE779  LEU786  VAL792 
 PHE793  MET794  SER795  GLU796  ALA797  LYS798  CYS799  TRP800  GLU811  SER814 

> <Gold.Protein.RotatedAtoms>
  151.3539  133.3915  159.2682 H   0  0  0  0  0  0  0  0  0  0  0  0  # atno 6907 bound_to 6896
  150.9779  134.9141  159.7837 H   0  0  0  0  0  0  0  0  0  0  0  0  # atno 6908 bound_to 6896
  152.5207  134.3502  159.9300 H   0  0  0  0  0  0  0  0  0  0  0  0  # atno 6909 bound_to 6896
  146.2087  140.3301  142.8398 H   0  0  0  0  0  0  0  0  0  0  0  0  # atno 7974 bound_to 7965
  155.1706  140.0408  157.2862 H   0  0  0  0  0  0  0  0  0  0  0  0  # atno 8008 bound_to 7997
  154.6272  140.2515  155.7450 H   0  0  0  0  0  0  0  0  0  0  0  0  # atno 8009 bound_to 7997
  156.2465  140.2883  156.0607 H   0  0  0  0  0  0  0  0  0  0  0  0  # atno 8010 bound_to 7997
  139.9591  143.5969  152.2451 H   0  0  0  0  0  0  0  0  0  0  0  0  # atno 10167 bound_to 10162
  156.0453  130.4313  150.2153 H   0  0  0  0  0  0  0  0  0  0  0  0  # atno 10718 bound_to 10713
  154.1164  135.2835  155.3219 H   0  0  0  0  0  0  0  0  0  0  0  0  # atno 10763 bound_to 10752
  154.6454  135.5388  153.7841 H   0  0  0  0  0  0  0  0  0  0  0  0  # atno 10764 bound_to 10752
  153.0328  135.6497  154.1320 H   0  0  0  0  0  0  0  0  0  0  0  0  # atno 10765 bound_to 10752
  140.4304  134.6524  157.4709 H   0  0  0  0  0  0  0  0  0  0  0  0  # atno 11005 bound_to 11000
  144.8858  140.7460  143.5958 LP  0  0  0  0  0  0  0  0  0  0  0  0  # atno 17320 bound_to 7965
  145.3223  139.1785  143.4581 LP  0  0  0  0  0  0  0  0  0  0  0  0  # atno 17321 bound_to 7965
  139.6568  144.7662  151.2041 LP  0  0  0  0  0  0  0  0  0  0  0  0  # atno 17342 bound_to 10162
  140.7559  143.6073  150.8640 LP  0  0  0  0  0  0  0  0  0  0  0  0  # atno 17343 bound_to 10162
  157.0244  130.9989  151.3330 LP  0  0  0  0  0  0  0  0  0  0  0  0  # atno 17370 bound_to 10713
  157.5322  130.8065  149.7930 LP  0  0  0  0  0  0  0  0  0  0  0  0  # atno 17371 bound_to 10713
  140.0138  134.6650  155.9340 LP  0  0  0  0  0  0  0  0  0  0  0  0  # atno 17394 bound_to 11000
  141.1748  133.6539  156.4787 LP  0  0  0  0  0  0  0  0  0  0  0  0  # atno 17395 bound_to 11000

$$$$
