AV-unprocessed.smi:14|AV-procd|sdf|77|dock5
  -GOLD-   2262015203D 1   1.00000     0.00000
 Structure written by MMmdl.
 57 60  0  0  0  0  0  0  0  0  1 V2000
  155.7178  140.7977  161.1934 N   0  0  0  0  0  0  0  0  0  0  0  0
  154.8006  140.3820  160.6238 C   0  0  0  0  0  0  0  0  0  0  0  0
  153.6343  139.8534  159.9000 C   0  0  0  0  0  0  0  0  0  0  0  0
  152.4753  140.8560  159.7609 C   0  0  0  0  0  0  0  0  0  0  0  0
  152.2333  141.2886  158.3850 N   0  0  0  0  0  0  0  0  0  0  0  0
  151.8342  142.6801  158.1620 C   0  0  0  0  0  0  0  0  0  0  0  0
  152.7563  143.7022  158.8648 C   0  0  2  0  0  0  0  0  0  0  0  0
  152.4851  143.8346  160.3538 C   0  0  0  0  0  0  0  0  0  0  0  0
  151.3247  144.8266  160.4100 C   0  0  0  0  0  0  0  0  0  0  0  0
  151.3951  145.5894  159.2085 O   0  0  0  0  0  0  0  0  0  0  0  0
  152.4764  145.1319  158.4043 C   0  0  0  0  0  0  0  0  0  0  0  0
  151.7057  140.3282  157.5837 C   0  0  0  0  0  0  0  0  0  0  0  0
  152.5282  139.4958  156.8912 N   0  0  0  0  0  0  0  0  0  0  0  0
  152.0170  138.5567  156.0900 C   0  0  0  0  0  0  0  0  0  0  0  0
  150.7356  138.2840  155.8361 N   0  0  0  0  0  0  0  0  0  0  0  0
  149.9056  139.1174  156.5265 C   0  0  0  0  0  0  0  0  0  0  0  0
  150.3040  140.1548  157.4157 C   0  0  0  0  0  0  0  0  0  0  0  0
  149.1829  140.7778  157.9494 N   0  0  0  0  0  0  0  0  0  0  0  0
  148.1793  140.1486  157.4027 C   0  0  0  0  0  0  0  0  0  0  0  0
  148.5211  139.1482  156.5200 N   0  0  0  0  0  0  0  0  0  0  0  0
  147.6071  138.2899  155.7792 C   0  0  0  0  0  0  0  0  0  0  0  0
  146.7179  139.0210  154.7238 C   0  0  0  0  0  0  0  0  0  0  0  0
  147.6482  139.7874  153.7425 C   0  0  0  0  0  0  0  0  0  0  0  0
  148.6690  138.9809  153.1884 O   0  0  0  0  0  0  0  0  0  0  0  0
  145.8789  137.9675  153.9547 C   0  0  0  0  0  0  0  0  0  0  0  0
  144.7579  137.3547  154.8168 C   0  0  0  0  0  0  0  0  0  0  0  0
  143.9274  138.3813  155.3460 O   0  0  0  0  0  0  0  0  0  0  0  0
  144.6282  139.2863  156.1902 C   0  0  0  0  0  0  0  0  0  0  0  0
  145.7225  140.0093  155.3848 C   0  0  0  0  0  0  0  0  0  0  0  0
  153.9839  139.5644  158.9087 H   0  0  0  0  0  0  0  0  0  0  0  0
  153.3071  138.9391  160.3956 H   0  0  0  0  0  0  0  0  0  0  0  0
  151.5610  140.4140  160.1582 H   0  0  0  0  0  0  0  0  0  0  0  0
  152.6743  141.7244  160.3878 H   0  0  0  0  0  0  0  0  0  0  0  0
  151.8128  142.8832  157.0908 H   0  0  0  0  0  0  0  0  0  0  0  0
  150.8090  142.8137  158.5092 H   0  0  0  0  0  0  0  0  0  0  0  0
  153.8007  143.4496  158.6807 H   0  0  0  0  0  0  0  0  0  0  0  0
  152.2617  142.8895  160.8496 H   0  0  0  0  0  0  0  0  0  0  0  0
  153.3586  144.2656  160.8450 H   0  0  0  0  0  0  0  0  0  0  0  0
  150.3697  144.3008  160.4319 H   0  0  0  0  0  0  0  0  0  0  0  0
  151.3769  145.4681  161.2900 H   0  0  0  0  0  0  0  0  0  0  0  0
  153.3426  145.7655  158.5996 H   0  0  0  0  0  0  0  0  0  0  0  0
  152.2439  145.2032  157.3413 H   0  0  0  0  0  0  0  0  0  0  0  0
  152.7381  137.9361  155.5788 H   0  0  0  0  0  0  0  0  0  0  0  0
  147.1540  140.4030  157.6277 H   0  0  0  0  0  0  0  0  0  0  0  0
  148.1995  137.5165  155.2884 H   0  0  0  0  0  0  0  0  0  0  0  0
  147.0008  137.7619  156.5133 H   0  0  0  0  0  0  0  0  0  0  0  0
  147.0782  140.1990  152.9100 H   0  0  0  0  0  0  0  0  0  0  0  0
  148.1221  140.6290  154.2488 H   0  0  0  0  0  0  0  0  0  0  0  0
  148.8912  139.3213  152.3353 H   0  0  0  0  0  0  0  0  0  0  0  0
  145.4046  138.4244  153.0858 H   0  0  0  0  0  0  0  0  0  0  0  0
  146.5220  137.1786  153.5632 H   0  0  0  0  0  0  0  0  0  0  0  0
  144.1426  136.6948  154.2051 H   0  0  0  0  0  0  0  0  0  0  0  0
  145.1567  136.7406  155.6241 H   0  0  0  0  0  0  0  0  0  0  0  0
  143.9179  140.0134  156.5838 H   0  0  0  0  0  0  0  0  0  0  0  0
  145.0411  138.7583  157.0501 H   0  0  0  0  0  0  0  0  0  0  0  0
  146.2408  140.7333  156.0123 H   0  0  0  0  0  0  0  0  0  0  0  0
  145.2228  140.5992  154.6159 H   0  0  0  0  0  0  0  0  0  0  0  0
  1  2  3  0  0  0  0
  2  3  1  0  0  0  0
  3  4  1  0  0  0  0
  3 30  1  0  0  0  0
  3 31  1  0  0  0  0
  4  5  1  0  0  0  0
  4 32  1  0  0  0  0
  4 33  1  0  0  0  0
  5  6  1  0  0  0  0
  5 12  1  0  0  0  0
  6  7  1  0  0  0  0
  6 34  1  0  0  0  0
  6 35  1  0  0  0  0
  7 11  1  0  0  0  0
  7  8  1  0  0  0  0
  7 36  1  0  0  0  0
  8  9  1  0  0  0  0
  8 37  1  0  0  0  0
  8 38  1  0  0  0  0
  9 10  1  0  0  0  0
  9 39  1  0  0  0  0
  9 40  1  0  0  0  0
 10 11  1  0  0  0  0
 11 41  1  0  0  0  0
 11 42  1  0  0  0  0
 12 17  1  0  0  0  0
 12 13  2  0  0  0  0
 13 14  1  0  0  0  0
 14 15  2  0  0  0  0
 14 43  1  0  0  0  0
 15 16  1  0  0  0  0
 16 20  1  0  0  0  0
 16 17  2  0  0  0  0
 17 18  1  0  0  0  0
 18 19  2  0  0  0  0
 19 20  1  0  0  0  0
 19 44  1  0  0  0  0
 20 21  1  0  0  0  0
 21 22  1  0  0  0  0
 21 45  1  0  0  0  0
 21 46  1  0  0  0  0
 22 29  1  0  0  0  0
 22 23  1  0  0  0  0
 22 25  1  0  0  0  0
 23 24  1  0  0  0  0
 23 47  1  0  0  0  0
 23 48  1  0  0  0  0
 24 49  1  0  0  0  0
 25 26  1  0  0  0  0
 25 50  1  0  0  0  0
 25 51  1  0  0  0  0
 26 27  1  0  0  0  0
 26 52  1  0  0  0  0
 26 53  1  0  0  0  0
 27 28  1  0  0  0  0
 28 29  1  0  0  0  0
 28 54  1  0  0  0  0
 28 55  1  0  0  0  0
 29 56  1  0  0  0  0
 29 57  1  0  0  0  0
M  END
> <s_m_source_file>
AV-unprocessed.smi

> <i_m_source_file_index>
14

> <i_lp_mmshare_version>
43012

> <i_f3d_flags>
0

> <s_epik_input>
W0NIMl0xT1tDSDJdW0NIMl1bQ0BIXTFbQ0gyXU4oW0NIMl1bQ0gyXUMjTiljKG5bY0hdbjIpYyhjMjMpbltjSF1uM1tDSDJdQzQoW0NIMl1bT0hdKVtDSDJdW0NIMl1PW0NIMl1bQ0gyXTQ=

> <s_epik_cmdline>
J2VwaWtfcHl0aG9uJywgJy1waCcsICc3LjAnLCAnLXRuJywgJzgnLCAnLW1hJywgJzIwMCcsICctbWV0YWxfYmluZGluZycsICctaW1hZScsICc8aW5maWxlLm1hZT4nLCAnLW9tYWUnLCAnPG91dGZpbGUubWFlPic=

> <r_lp_tautomer_probability>
1

> <r_epik_Ionization_Penalty>
0.000542547

> <r_epik_Ionization_Penalty_Charging>
0

> <r_epik_Ionization_Penalty_Neutral>
0.000542547

> <r_epik_State_Penalty>
0.000265709

> <r_epik_Charging_Adjusted_Penalty>
0.000265709

> <i_epik_Tot_Q>
0

> <i_epik_Tot_abs_Q>
0

> <r_epik_Metal_State_Penalty>
-0

> <b_epik_Metal_Only>
0

> <s_lp_Force_Field>
OPLS_2005

> <r_lp_Energy>
44.4286

> <b_lp_Chiralities_Consistent>
1

> <s_lp_Variant>
AV-unprocessed.smi:14-1

> <Gold.Version>
5.8.1

> <Gold.Id.Protein>
6NUR|6NUR_protein|mol2

> <Gold.PLP.Fitness>
43.5374

> <Gold.PLP.PLP>
-40.5981

> <Gold.PLP.part.hbond>
-4.7266

> <Gold.PLP.part.metal>
0.0000

> <Gold.PLP.part.buried>
-7.6271

> <Gold.PLP.part.nonpolar>
-28.4890

> <Gold.PLP.part.repulsive>
0.2598

> <Gold.PLP.ligand.clash>
0.0000

> <Gold.PLP.ligand.torsion>
2.1528

> <Gold.PLP.Chemscore.Hbond>
2.0000

> <Gold.PLP.Chemscore.CHOScore>
0.0000

> <Gold.PLP.Chemscore.Metal>
0.0000

> <Gold.Chemscore.Hbonds>
donor molecule, donor type, donor heavy atom, donor atom, acceptor molecule, acceptor atom, score
      L1  H    24    49       P1  7957  1.00
      P1  H  7997  8008       L1    13  1.00

> <Gold.PLP.Chemscore.Internal.Correction>
1.2449

> <Gold.Rescore>
     Score         DG    S(hbond)    S(metal)    S(lipo)     H(rot)  DE(clash)    DE(int)     intcor
     12.19     -14.29       1.82        0.00      94.69       3.26       0.02       2.09       ----

> <Gold.Chemscore.Fitness>
12.1858

> <Gold.Chemscore.DG>
-14.2942

> <Gold.Chemscore.ZeroCoef>
-5.4800

> <Gold.Chemscore.Hbond>
1.8171

> <Gold.Chemscore.Metal>
0.0000

> <Gold.Chemscore.Lipo>
94.6892

> <Gold.Chemscore.Internal_Hbond>
0.0000

> <Gold.Chemscore.DEClash>
0.0169

> <Gold.Chemscore.DEInternal>
2.0915

> <Gold.Chemscore.Rot>
3.2553

> <Gold.Chemscore.Internal.Correction>
   9.000000E+99

> <Gold.Chemscore.Hbonds>
donor molecule, donor type, donor heavy atom, donor atom, acceptor molecule, acceptor atom, score
      L1  H    24    49       P1  7957  0.94
      P1  H  7997  8008       L1    13  0.91

> <Gold.Chemscore.Hbond.Weighted>
-6.0691

> <Gold.Chemscore.Metal.Weighted>
-0.0000

> <Gold.Chemscore.Lipo.Weighted>
-11.0786

> <Gold.Chemscore.Internal_Hbond.Weighted>
0.0000

> <Gold.Chemscore.DEClash.Weighted>
0.0169

> <Gold.Chemscore.DEInternal.Weighted>
2.0915

> <Gold.Chemscore.Rot.Weighted>
8.3336

> <Gold.Chemscore.Internal.Correction.Weighted>
   9.000000E+99

> <Gold.Protein.RotatedTorsions>
[ 6907 6896 6895 6894 ] final   46.99 input  -60.11 | X-H torsion
[ 7974 7965 7964 7962 ] final  -64.14 input  175.53 | X-H torsion
[ 8008 7997 7996 7995 ] final  -54.99 input   59.86 | X-H torsion
[ 10167 10162 10161 10158 ] final  100.04 input  -65.29 | X-H torsion
[ 10718 10713 10712 10709 ] final  -55.38 input   66.30 | X-H torsion
[ 10763 10752 10751 10750 ] final   -4.83 input  -60.55 | X-H torsion
[ 11005 11000 10999 10996 ] final  -42.46 input  -57.11 | X-H torsion

> <Gold.Protein.ActiveResidues>
 VAL166  LYS551  ARG553  GLY616  TRP617  ASP618  TYR619  PRO620  LYS621  CYS622 
 ASP623  PHE694  ASN695  SER759  ASP760  ASP761  ALA762  ILE779  LEU786  VAL792 
 PHE793  MET794  SER795  GLU796  ALA797  LYS798  CYS799  TRP800  GLU811  SER814 

> <Gold.Protein.RotatedAtoms>
  152.2628  134.8016  160.0427 H   0  0  0  0  0  0  0  0  0  0  0  0  # atno 6907 bound_to 6896
  151.8656  133.3460  159.3726 H   0  0  0  0  0  0  0  0  0  0  0  0  # atno 6908 bound_to 6896
  150.7123  134.5091  159.5642 H   0  0  0  0  0  0  0  0  0  0  0  0  # atno 6909 bound_to 6896
  145.7704  140.8815  143.0383 H   0  0  0  0  0  0  0  0  0  0  0  0  # atno 7974 bound_to 7965
  154.4180  140.1163  156.5405 H   0  0  0  0  0  0  0  0  0  0  0  0  # atno 8008 bound_to 7997
  155.6513  140.3496  155.4730 H   0  0  0  0  0  0  0  0  0  0  0  0  # atno 8009 bound_to 7997
  155.9790  140.1156  157.0733 H   0  0  0  0  0  0  0  0  0  0  0  0  # atno 8010 bound_to 7997
  139.7562  144.6968  151.0358 H   0  0  0  0  0  0  0  0  0  0  0  0  # atno 10167 bound_to 10162
  156.1374  130.4156  150.0163 H   0  0  0  0  0  0  0  0  0  0  0  0  # atno 10718 bound_to 10713
  153.3902  135.7001  153.6500 H   0  0  0  0  0  0  0  0  0  0  0  0  # atno 10763 bound_to 10752
  153.5076  135.3639  155.2571 H   0  0  0  0  0  0  0  0  0  0  0  0  # atno 10764 bound_to 10752
  154.8701  135.4127  154.3217 H   0  0  0  0  0  0  0  0  0  0  0  0  # atno 10765 bound_to 10752
  141.0317  133.6817  156.2597 H   0  0  0  0  0  0  0  0  0  0  0  0  # atno 11005 bound_to 11000
  144.6814  139.9847  143.7484 LP  0  0  0  0  0  0  0  0  0  0  0  0  # atno 17320 bound_to 7965
  146.0175  139.3222  143.0833 LP  0  0  0  0  0  0  0  0  0  0  0  0  # atno 17321 bound_to 7965
  140.7803  143.4750  151.0095 LP  0  0  0  0  0  0  0  0  0  0  0  0  # atno 17342 bound_to 10162
  139.8437  143.7530  152.3180 LP  0  0  0  0  0  0  0  0  0  0  0  0  # atno 17343 bound_to 10162
  156.8058  130.9307  151.3645 LP  0  0  0  0  0  0  0  0  0  0  0  0  # atno 17370 bound_to 10713
  157.6544  130.8912  149.9699 LP  0  0  0  0  0  0  0  0  0  0  0  0  # atno 17371 bound_to 10713
  140.6395  134.5180  157.5568 LP  0  0  0  0  0  0  0  0  0  0  0  0  # atno 17394 bound_to 11000
  139.9212  134.8145  156.1205 LP  0  0  0  0  0  0  0  0  0  0  0  0  # atno 17395 bound_to 11000

$$$$
