AV-unprocessed.smi:810|AV-procd|sdf|3810|dock5
  -GOLD-   22720 1253D 1   1.00000     0.00000
 Structure written by MMmdl.
 34 35  0  0  0  0  0  0  0  0  1 V2000
  150.8839  141.0168  157.5537 O   0  0  0  0  0  0  0  0  0  0  0  0
  150.3356  141.9728  157.0063 C   0  0  0  0  0  0  0  0  0  0  0  0
  150.3743  143.2439  157.4409 N   0  0  0  0  0  0  0  0  0  0  0  0
  150.9849  143.7572  158.6168 C   0  0  0  0  0  0  0  0  0  0  0  0
  151.9866  142.9806  159.2348 C   0  0  0  0  0  0  0  0  0  0  0  0
  152.6225  143.4736  160.3899 C   0  0  0  0  0  0  0  0  0  0  0  0
  152.2362  144.7363  160.8793 C   0  0  0  0  0  0  0  0  0  0  0  0
  151.2911  145.4998  160.2919 N   0  0  0  0  0  0  0  0  0  0  0  0
  150.6833  145.0199  159.1854 C   0  0  0  0  0  0  0  0  0  0  0  0
  149.6305  141.8725  155.8706 N   0  0  0  0  0  0  0  0  0  0  0  0
  149.3897  140.6377  155.1277 C   0  0  1  0  0  0  0  0  0  0  0  0
  148.2836  140.8724  154.0803 C   0  0  0  0  0  0  0  0  0  0  0  0
  147.2126  141.8823  154.5262 C   0  0  0  0  0  0  0  0  0  0  0  0
  147.5804  143.1816  154.1166 O   0  0  0  0  0  0  0  0  0  0  0  0
  150.6452  140.0872  154.4725 C   0  0  0  0  0  0  0  0  0  0  0  0
  150.8458  138.5997  154.3040 C   0  0  0  0  0  0  0  0  0  0  0  0
  151.7032  139.3725  155.2796 C   0  0  0  0  0  0  0  0  0  0  0  0
  149.9536  143.9339  156.8358 H   0  0  0  0  0  0  0  0  0  0  0  0
  152.2638  142.0167  158.8333 H   0  0  0  0  0  0  0  0  0  0  0  0
  153.3887  142.8987  160.8885 H   0  0  0  0  0  0  0  0  0  0  0  0
  152.7031  145.1462  161.7627 H   0  0  0  0  0  0  0  0  0  0  0  0
  149.9571  145.6864  158.7471 H   0  0  0  0  0  0  0  0  0  0  0  0
  149.2242  142.7147  155.4902 H   0  0  0  0  0  0  0  0  0  0  0  0
  149.0196  139.8794  155.8209 H   0  0  0  0  0  0  0  0  0  0  0  0
  148.7321  141.2038  153.1426 H   0  0  0  0  0  0  0  0  0  0  0  0
  147.7954  139.9214  153.8619 H   0  0  0  0  0  0  0  0  0  0  0  0
  146.2451  141.6346  154.0886 H   0  0  0  0  0  0  0  0  0  0  0  0
  147.0918  141.8787  155.6097 H   0  0  0  0  0  0  0  0  0  0  0  0
  148.0936  143.5804  154.8027 H   0  0  0  0  0  0  0  0  0  0  0  0
  151.0106  140.7015  153.6516 H   0  0  0  0  0  0  0  0  0  0  0  0
  150.0899  137.9354  154.7183 H   0  0  0  0  0  0  0  0  0  0  0  0
  151.3135  138.2575  153.3830 H   0  0  0  0  0  0  0  0  0  0  0  0
  152.7427  139.5463  155.0098 H   0  0  0  0  0  0  0  0  0  0  0  0
  151.5167  139.2191  156.3406 H   0  0  0  0  0  0  0  0  0  0  0  0
  1  2  2  0  0  0  0
  2  3  1  0  0  0  0
  2 10  1  0  0  0  0
  3  4  1  0  0  0  0
  3 18  1  0  0  0  0
  4  9  1  0  0  0  0
  4  5  2  0  0  0  0
  5  6  1  0  0  0  0
  5 19  1  0  0  0  0
  6  7  2  0  0  0  0
  6 20  1  0  0  0  0
  7  8  1  0  0  0  0
  7 21  1  0  0  0  0
  8  9  2  0  0  0  0
  9 22  1  0  0  0  0
 10 11  1  0  0  0  0
 10 23  1  0  0  0  0
 11 12  1  0  0  0  0
 11 15  1  0  0  0  0
 11 24  1  0  0  0  0
 12 13  1  0  0  0  0
 12 25  1  0  0  0  0
 12 26  1  0  0  0  0
 13 14  1  0  0  0  0
 13 27  1  0  0  0  0
 13 28  1  0  0  0  0
 14 29  1  0  0  0  0
 15 17  1  0  0  0  0
 15 16  1  0  0  0  0
 15 30  1  0  0  0  0
 16 17  1  0  0  0  0
 16 31  1  0  0  0  0
 16 32  1  0  0  0  0
 17 33  1  0  0  0  0
 17 34  1  0  0  0  0
M  END
> <s_m_source_file>
AV-unprocessed.smi

> <i_m_source_file_index>
810

> <i_lp_mmshare_version>
43012

> <i_f3d_flags>
0

> <s_epik_input>
W09IXVtDSDJdW0NIMl1bQ0BIXShbQ0hdMVtDSDJdW0NIMl0xKVtOSF1DKD1PKVtOSF1jMltjSF1bY0hdW2NIXW5bY0hdMg==

> <s_epik_cmdline>
J2VwaWtfcHl0aG9uJywgJy1waCcsICc3LjAnLCAnLXRuJywgJzgnLCAnLW1hJywgJzIwMCcsICctbWV0YWxfYmluZGluZycsICctaW1hZScsICc8aW5maWxlLm1hZT4nLCAnLW9tYWUnLCAnPG91dGZpbGUubWFlPic=

> <r_epik_Ionization_Penalty>
0.00486911

> <r_epik_Ionization_Penalty_Charging>
0

> <r_epik_Ionization_Penalty_Neutral>
0.00486911

> <r_epik_State_Penalty>
0.00350304

> <r_epik_Charging_Adjusted_Penalty>
0.00350304

> <i_epik_Tot_Q>
0

> <i_epik_Tot_abs_Q>
0

> <r_epik_Metal_State_Penalty>
-0

> <b_epik_Metal_Only>
0

> <s_lp_Force_Field>
OPLS_2005

> <r_lp_Energy>
17.3052

> <b_lp_Chiralities_Consistent>
1

> <s_lp_Variant>
AV-unprocessed.smi:810-2

> <Gold.Version>
5.8.1

> <Gold.Id.Protein>
6NUR|6NUR_protein|mol2

> <Gold.PLP.Fitness>
46.6185

> <Gold.PLP.PLP>
-35.9640

> <Gold.PLP.part.hbond>
-4.5432

> <Gold.PLP.part.metal>
0.0000

> <Gold.PLP.part.buried>
-0.6776

> <Gold.PLP.part.nonpolar>
-31.4638

> <Gold.PLP.part.repulsive>
0.3587

> <Gold.PLP.ligand.clash>
0.0000

> <Gold.PLP.ligand.torsion>
1.1919

> <Gold.PLP.Chemscore.Hbond>
2.9833

> <Gold.PLP.Chemscore.CHOScore>
1.0000

> <Gold.PLP.Chemscore.Metal>
0.0000

> <Gold.Chemscore.Hbonds>
donor molecule, donor type, donor heavy atom, donor atom, acceptor molecule, acceptor atom, score
      L1  H     3    18       P1  8028  1.00
      L1  H    10    23       P1  8028  0.98
      L1  H    14    29       P1  8028  1.00
      L1  C     9    22       P1  8029  1.00

> <Gold.PLP.Chemscore.Internal.Correction>
1.0883

> <Gold.Rescore>
     Score         DG    S(hbond)    S(metal)    S(lipo)     H(rot)  DE(clash)    DE(int)     intcor
     14.74     -20.31       2.76        0.00      98.65       2.31       1.92       3.65       ----

> <Gold.Chemscore.Fitness>
14.7445

> <Gold.Chemscore.DG>
-20.3148

> <Gold.Chemscore.ZeroCoef>
-5.4800

> <Gold.Chemscore.Hbond>
2.7561

> <Gold.Chemscore.Metal>
0.0000

> <Gold.Chemscore.Lipo>
98.6503

> <Gold.Chemscore.Internal_Hbond>
0.0000

> <Gold.Chemscore.DEClash>
1.9225

> <Gold.Chemscore.DEInternal>
3.6478

> <Gold.Chemscore.Rot>
2.3097

> <Gold.Chemscore.Internal.Correction>
   9.000000E+99

> <Gold.Chemscore.Hbonds>
donor molecule, donor type, donor heavy atom, donor atom, acceptor molecule, acceptor atom, score
      L1  H     3    18       P1  8028  0.98
      L1  H    10    23       P1  8028  0.86
      L1  H    14    29       P1  8028  0.80

> <Gold.Chemscore.Hbond.Weighted>
-9.2055

> <Gold.Chemscore.Metal.Weighted>
-0.0000

> <Gold.Chemscore.Lipo.Weighted>
-11.5421

> <Gold.Chemscore.Internal_Hbond.Weighted>
0.0000

> <Gold.Chemscore.DEClash.Weighted>
1.9225

> <Gold.Chemscore.DEInternal.Weighted>
3.6478

> <Gold.Chemscore.Rot.Weighted>
5.9127

> <Gold.Chemscore.Internal.Correction.Weighted>
   9.000000E+99

> <Gold.Protein.RotatedTorsions>
[ 6907 6896 6895 6894 ] final   97.70 input  -60.11 | X-H torsion
[ 7974 7965 7964 7962 ] final  121.05 input  175.53 | X-H torsion
[ 8008 7997 7996 7995 ] final  -76.26 input   59.86 | X-H torsion
[ 10167 10162 10161 10158 ] final  -10.53 input  -65.29 | X-H torsion
[ 10718 10713 10712 10709 ] final   41.20 input   66.30 | X-H torsion
[ 10763 10752 10751 10750 ] final  -70.12 input  -60.55 | X-H torsion
[ 11005 11000 10999 10996 ] final -112.27 input  -57.11 | X-H torsion

> <Gold.Protein.ActiveResidues>
 VAL166  LYS551  ARG553  GLY616  TRP617  ASP618  TYR619  PRO620  LYS621  CYS622 
 ASP623  PHE694  ASN695  SER759  ASP760  ASP761  ALA762  ILE779  LEU786  VAL792 
 PHE793  MET794  SER795  GLU796  ALA797  LYS798  CYS799  TRP800  GLU811  SER814 

> <Gold.Protein.RotatedAtoms>
  152.5420  134.0693  159.8186 H   0  0  0  0  0  0  0  0  0  0  0  0  # atno 6907 bound_to 6896
  151.0810  133.5383  159.2628 H   0  0  0  0  0  0  0  0  0  0  0  0  # atno 6908 bound_to 6896
  151.2210  135.0527  159.9004 H   0  0  0  0  0  0  0  0  0  0  0  0  # atno 6909 bound_to 6896
  145.1238  139.3371  143.4700 H   0  0  0  0  0  0  0  0  0  0  0  0  # atno 7974 bound_to 7965
  154.5490  140.0730  156.8636 H   0  0  0  0  0  0  0  0  0  0  0  0  # atno 8008 bound_to 7997
  155.3031  140.3385  155.4228 H   0  0  0  0  0  0  0  0  0  0  0  0  # atno 8009 bound_to 7997
  156.1944  140.1698  156.8014 H   0  0  0  0  0  0  0  0  0  0  0  0  # atno 8010 bound_to 7997
  140.7116  143.5738  150.9064 H   0  0  0  0  0  0  0  0  0  0  0  0  # atno 10167 bound_to 10162
  157.3908  130.7805  149.7268 H   0  0  0  0  0  0  0  0  0  0  0  0  # atno 10718 bound_to 10713
  154.4131  135.6004  153.5964 H   0  0  0  0  0  0  0  0  0  0  0  0  # atno 10763 bound_to 10752
  152.9791  135.5934  154.4046 H   0  0  0  0  0  0  0  0  0  0  0  0  # atno 10764 bound_to 10752
  154.3861  135.2841  155.2161 H   0  0  0  0  0  0  0  0  0  0  0  0  # atno 10765 bound_to 10752
  141.0685  133.9419  157.2532 H   0  0  0  0  0  0  0  0  0  0  0  0  # atno 11005 bound_to 11000
  146.3519  140.1209  142.8600 LP  0  0  0  0  0  0  0  0  0  0  0  0  # atno 17320 bound_to 7965
  145.0710  140.9155  143.4882 LP  0  0  0  0  0  0  0  0  0  0  0  0  # atno 17321 bound_to 7965
  139.9464  143.6323  152.3040 LP  0  0  0  0  0  0  0  0  0  0  0  0  # atno 17342 bound_to 10162
  139.6826  144.7654  151.1582 LP  0  0  0  0  0  0  0  0  0  0  0  0  # atno 17343 bound_to 10162
  155.9798  130.4036  150.3566 LP  0  0  0  0  0  0  0  0  0  0  0  0  # atno 17370 bound_to 10713
  157.1682  131.0362  151.2808 LP  0  0  0  0  0  0  0  0  0  0  0  0  # atno 17371 bound_to 10713
  139.9500  135.0177  156.8965 LP  0  0  0  0  0  0  0  0  0  0  0  0  # atno 17394 bound_to 11000
  140.5723  134.0431  155.7435 LP  0  0  0  0  0  0  0  0  0  0  0  0  # atno 17395 bound_to 11000

$$$$
