AV-unprocessed.smi:553|AV-procd|sdf|2905|dock5
  -GOLD-   2262023393D 1   1.00000     0.00000
 Structure written by MMmdl.
 43 45  0  0  0  0  0  0  0  0  1 V2000
  149.3428  135.9376  156.7704 O   0  0  0  0  0  0  0  0  0  0  0  0
  149.6420  136.1932  155.6063 C   0  0  0  0  0  0  0  0  0  0  0  0
  150.2043  137.3454  155.1912 N   0  0  0  0  0  0  0  0  0  0  0  0
  150.6087  138.4730  155.9561 C   0  0  0  0  0  0  0  0  0  0  0  0
  149.9145  138.9695  157.0854 C   0  0  0  0  0  0  0  0  0  0  0  0
  150.4348  140.0867  157.7667 C   0  0  0  0  0  0  0  0  0  0  0  0
  151.6334  140.6688  157.3061 C   0  0  0  0  0  0  0  0  0  0  0  0
  152.1535  141.7819  157.9818 N   0  0  0  0  0  0  0  0  0  0  0  0
  152.3926  141.5391  159.3989 C   0  0  0  0  0  0  0  0  0  0  0  0
  153.0814  142.7603  160.0326 C   0  0  0  0  0  0  0  0  0  0  0  0
  152.2919  143.9251  159.8076 O   0  0  0  0  0  0  0  0  0  0  0  0
  152.1218  144.1967  158.4190 C   0  0  0  0  0  0  0  0  0  0  0  0
  151.4075  143.0119  157.7458 C   0  0  0  0  0  0  0  0  0  0  0  0
  152.3083  140.1930  156.2331 N   0  0  0  0  0  0  0  0  0  0  0  0
  151.8042  139.1221  155.5845 C   0  0  0  0  0  0  0  0  0  0  0  0
  149.3938  135.3147  154.6181 N   0  0  0  0  0  0  0  0  0  0  0  0
  148.7961  133.9823  154.7179 C   0  0  1  0  0  0  0  0  0  0  0  0
  148.6759  133.3256  153.3300 C   0  0  0  0  0  0  0  0  0  0  0  0
  148.3808  131.8320  153.5169 C   0  0  0  0  0  0  0  0  0  0  0  0
  149.1934  131.3463  155.0868 S   0  0  0  0  0  0  0  0  0  0  0  0
  148.1762  130.8053  156.0010 O   0  0  0  0  0  0  0  0  0  0  0  0
  150.4261  130.5987  154.7960 O   0  0  0  0  0  0  0  0  0  0  0  0
  149.6334  133.0469  155.6054 C   0  0  0  0  0  0  0  0  0  0  0  0
  150.3206  137.4412  154.1931 H   0  0  0  0  0  0  0  0  0  0  0  0
  149.0076  138.5154  157.4521 H   0  0  0  0  0  0  0  0  0  0  0  0
  149.9229  140.4841  158.6310 H   0  0  0  0  0  0  0  0  0  0  0  0
  151.4458  141.3451  159.9053 H   0  0  0  0  0  0  0  0  0  0  0  0
  153.0138  140.6512  159.5229 H   0  0  0  0  0  0  0  0  0  0  0  0
  153.1979  142.6116  161.1062 H   0  0  0  0  0  0  0  0  0  0  0  0
  154.0814  142.9011  159.6193 H   0  0  0  0  0  0  0  0  0  0  0  0
  151.5327  145.1065  158.3038 H   0  0  0  0  0  0  0  0  0  0  0  0
  153.0910  144.3826  157.9529 H   0  0  0  0  0  0  0  0  0  0  0  0
  151.3154  143.1888  156.6734 H   0  0  0  0  0  0  0  0  0  0  0  0
  150.3970  142.9151  158.1461 H   0  0  0  0  0  0  0  0  0  0  0  0
  152.3756  138.7737  154.7363 H   0  0  0  0  0  0  0  0  0  0  0  0
  149.6311  135.6171  153.6842 H   0  0  0  0  0  0  0  0  0  0  0  0
  147.7882  134.0539  155.1310 H   0  0  0  0  0  0  0  0  0  0  0  0
  147.9150  133.8088  152.7163 H   0  0  0  0  0  0  0  0  0  0  0  0
  149.6244  133.4288  152.8007 H   0  0  0  0  0  0  0  0  0  0  0  0
  147.3098  131.6606  153.6265 H   0  0  0  0  0  0  0  0  0  0  0  0
  148.7493  131.2184  152.6946 H   0  0  0  0  0  0  0  0  0  0  0  0
  150.7003  133.1827  155.4243 H   0  0  0  0  0  0  0  0  0  0  0  0
  149.4425  133.1752  156.6709 H   0  0  0  0  0  0  0  0  0  0  0  0
  1  2  2  0  0  0  0
  2  3  1  0  0  0  0
  2 16  1  0  0  0  0
  3  4  1  0  0  0  0
  3 24  1  0  0  0  0
  4 15  1  0  0  0  0
  4  5  2  0  0  0  0
  5  6  1  0  0  0  0
  5 25  1  0  0  0  0
  6  7  2  0  0  0  0
  6 26  1  0  0  0  0
  7  8  1  0  0  0  0
  7 14  1  0  0  0  0
  8 13  1  0  0  0  0
  8  9  1  0  0  0  0
  9 10  1  0  0  0  0
  9 27  1  0  0  0  0
  9 28  1  0  0  0  0
 10 11  1  0  0  0  0
 10 29  1  0  0  0  0
 10 30  1  0  0  0  0
 11 12  1  0  0  0  0
 12 13  1  0  0  0  0
 12 31  1  0  0  0  0
 12 32  1  0  0  0  0
 13 33  1  0  0  0  0
 13 34  1  0  0  0  0
 14 15  2  0  0  0  0
 15 35  1  0  0  0  0
 16 17  1  0  0  0  0
 16 36  1  0  0  0  0
 17 23  1  0  0  0  0
 17 18  1  0  0  0  0
 17 37  1  0  0  0  0
 18 19  1  0  0  0  0
 18 38  1  0  0  0  0
 18 39  1  0  0  0  0
 19 20  1  0  0  0  0
 19 40  1  0  0  0  0
 19 41  1  0  0  0  0
 20 21  2  0  0  0  0
 20 22  2  0  0  0  0
 20 23  1  0  0  0  0
 23 42  1  0  0  0  0
 23 43  1  0  0  0  0
M  END
> <s_m_source_file>
AV-unprocessed.smi

> <i_m_source_file_index>
553

> <i_lp_mmshare_version>
43012

> <i_f3d_flags>
0

> <s_epik_input>
Tz1TMSg9TylbQ0gyXVtDSDJdW0NASF0oW0NIMl0xKVtOSF1DKD1PKVtOSF1jMltjSF1bY0hdYyhuW2NIXTIpTjNbQ0gyXVtDSDJdT1tDSDJdW0NIMl0z

> <s_epik_cmdline>
J2VwaWtfcHl0aG9uJywgJy1waCcsICc3LjAnLCAnLXRuJywgJzgnLCAnLW1hJywgJzIwMCcsICctbWV0YWxfYmluZGluZycsICctaW1hZScsICc8aW5maWxlLm1hZT4nLCAnLW9tYWUnLCAnPG91dGZpbGUubWFlPic=

> <r_lp_tautomer_probability>
1

> <r_epik_Ionization_Penalty>
0.00171806

> <r_epik_Ionization_Penalty_Charging>
0

> <r_epik_Ionization_Penalty_Neutral>
0.00171806

> <r_epik_State_Penalty>
0.00114322

> <r_epik_Charging_Adjusted_Penalty>
0.00114322

> <i_epik_Tot_Q>
0

> <i_epik_Tot_abs_Q>
0

> <r_epik_Metal_State_Penalty>
-0

> <b_epik_Metal_Only>
0

> <s_lp_Force_Field>
OPLS_2005

> <r_lp_Energy>
34.1165

> <b_lp_Chiralities_Consistent>
1

> <s_lp_Variant>
AV-unprocessed.smi:553-2

> <Gold.Version>
5.8.1

> <Gold.Id.Protein>
6NUR|6NUR_protein|mol2

> <Gold.PLP.Fitness>
39.5685

> <Gold.PLP.PLP>
-34.8608

> <Gold.PLP.part.hbond>
-2.0000

> <Gold.PLP.part.metal>
0.0000

> <Gold.PLP.part.buried>
-2.2039

> <Gold.PLP.part.nonpolar>
-30.1121

> <Gold.PLP.part.repulsive>
0.1290

> <Gold.PLP.ligand.clash>
0.0000

> <Gold.PLP.ligand.torsion>
0.4499

> <Gold.PLP.Chemscore.Hbond>
1.8345

> <Gold.PLP.Chemscore.CHOScore>
0.0000

> <Gold.PLP.Chemscore.Metal>
0.0000

> <Gold.Chemscore.Hbonds>
donor molecule, donor type, donor heavy atom, donor atom, acceptor molecule, acceptor atom, score
      L1  H    16    36       P1  7948  0.83
      P1  H  7997  8008       L1    14  1.00

> <Gold.PLP.Chemscore.Internal.Correction>
0.1041

> <Gold.Rescore>
     Score         DG    S(hbond)    S(metal)    S(lipo)     H(rot)  DE(clash)    DE(int)     intcor
     16.27     -17.13       1.77        0.00      76.74       1.27       0.01       0.85       ----

> <Gold.Chemscore.Fitness>
16.2664

> <Gold.Chemscore.DG>
-17.1264

> <Gold.Chemscore.ZeroCoef>
-5.4800

> <Gold.Chemscore.Hbond>
1.7723

> <Gold.Chemscore.Metal>
0.0000

> <Gold.Chemscore.Lipo>
76.7440

> <Gold.Chemscore.Internal_Hbond>
0.0000

> <Gold.Chemscore.DEClash>
0.0132

> <Gold.Chemscore.DEInternal>
0.8468

> <Gold.Chemscore.Rot>
1.2703

> <Gold.Chemscore.Internal.Correction>
   9.000000E+99

> <Gold.Chemscore.Hbonds>
donor molecule, donor type, donor heavy atom, donor atom, acceptor molecule, acceptor atom, score
      L1  H    16    36       P1  7948  0.13
      P1  H  7997  8008       L1    14  0.73

> <Gold.Chemscore.Hbond.Weighted>
-5.9194

> <Gold.Chemscore.Metal.Weighted>
-0.0000

> <Gold.Chemscore.Lipo.Weighted>
-8.9790

> <Gold.Chemscore.Internal_Hbond.Weighted>
0.0000

> <Gold.Chemscore.DEClash.Weighted>
0.0132

> <Gold.Chemscore.DEInternal.Weighted>
0.8468

> <Gold.Chemscore.Rot.Weighted>
3.2520

> <Gold.Chemscore.Internal.Correction.Weighted>
   9.000000E+99

> <Gold.Protein.RotatedTorsions>
[ 6907 6896 6895 6894 ] final   62.58 input  -60.11 | X-H torsion
[ 7974 7965 7964 7962 ] final   79.93 input  175.53 | X-H torsion
[ 8008 7997 7996 7995 ] final  -39.20 input   59.86 | X-H torsion
[ 10167 10162 10161 10158 ] final  -78.29 input  -65.29 | X-H torsion
[ 10718 10713 10712 10709 ] final  161.90 input   66.30 | X-H torsion
[ 10763 10752 10751 10750 ] final  -77.25 input  -60.55 | X-H torsion
[ 11005 11000 10999 10996 ] final  140.70 input  -57.11 | X-H torsion

> <Gold.Protein.ActiveResidues>
 VAL166  LYS551  ARG553  GLY616  TRP617  ASP618  TYR619  PRO620  LYS621  CYS622 
 ASP623  PHE694  ASN695  SER759  ASP760  ASP761  ALA762  ILE779  LEU786  VAL792 
 PHE793  MET794  SER795  GLU796  ALA797  LYS798  CYS799  TRP800  GLU811  SER814 

> <Gold.Protein.RotatedAtoms>
  152.4183  134.6001  159.9997 H   0  0  0  0  0  0  0  0  0  0  0  0  # atno 6907 bound_to 6896
  151.6158  133.3337  159.3085 H   0  0  0  0  0  0  0  0  0  0  0  0  # atno 6908 bound_to 6896
  150.8072  134.7243  159.6721 H   0  0  0  0  0  0  0  0  0  0  0  0  # atno 6909 bound_to 6896
  145.6578  139.2464  143.1940 H   0  0  0  0  0  0  0  0  0  0  0  0  # atno 7974 bound_to 7965
  154.4026  140.1558  156.2824 H   0  0  0  0  0  0  0  0  0  0  0  0  # atno 8008 bound_to 7997
  155.8858  140.3441  155.5898 H   0  0  0  0  0  0  0  0  0  0  0  0  # atno 8009 bound_to 7997
  155.7615  140.0818  157.2143 H   0  0  0  0  0  0  0  0  0  0  0  0  # atno 8010 bound_to 7997
  140.4695  143.2430  151.8227 H   0  0  0  0  0  0  0  0  0  0  0  0  # atno 10167 bound_to 10162
  157.1301  131.0514  151.2375 H   0  0  0  0  0  0  0  0  0  0  0  0  # atno 10718 bound_to 10713
  154.5105  135.5770  153.6601 H   0  0  0  0  0  0  0  0  0  0  0  0  # atno 10763 bound_to 10752
  152.9896  135.6157  154.2885 H   0  0  0  0  0  0  0  0  0  0  0  0  # atno 10764 bound_to 10752
  154.2799  135.2851  155.2681 H   0  0  0  0  0  0  0  0  0  0  0  0  # atno 10765 bound_to 10752
  140.0347  134.9335  157.0730 H   0  0  0  0  0  0  0  0  0  0  0  0  # atno 11005 bound_to 11000
  146.1150  140.7381  142.9485 LP  0  0  0  0  0  0  0  0  0  0  0  0  # atno 17320 bound_to 7965
  144.7099  140.4000  143.7088 LP  0  0  0  0  0  0  0  0  0  0  0  0  # atno 17321 bound_to 7965
  139.4816  144.4909  151.9186 LP  0  0  0  0  0  0  0  0  0  0  0  0  # atno 17342 bound_to 10162
  140.3994  144.2512  150.5894 LP  0  0  0  0  0  0  0  0  0  0  0  0  # atno 17343 bound_to 10162
  157.4400  130.7539  149.7061 LP  0  0  0  0  0  0  0  0  0  0  0  0  # atno 17370 bound_to 10713
  155.9810  130.4024  150.3497 LP  0  0  0  0  0  0  0  0  0  0  0  0  # atno 17371 bound_to 10713
  140.4167  134.1923  155.7163 LP  0  0  0  0  0  0  0  0  0  0  0  0  # atno 17394 bound_to 11000
  141.1850  133.8331  157.1118 LP  0  0  0  0  0  0  0  0  0  0  0  0  # atno 17395 bound_to 11000

$$$$
