AV-unprocessed.smi:498|AV-procd|sdf|2730|dock3
  -GOLD-   2262023183D 1   1.00000     0.00000
 Structure written by MMmdl.
 41 43  0  0  0  0  0  0  0  0  2 V2000
  150.6857  137.4094  155.1835 C   0  0  0  0  0  0  0  0  0  0  0  0
  151.4337  138.6736  154.7560 C   0  0  0  0  0  0  0  0  0  0  0  0
  150.6166  139.7985  155.0267 O   0  0  0  0  0  0  0  0  0  0  0  0
  150.6145  140.1594  156.3981 C   0  0  0  0  0  0  0  0  0  0  0  0
  151.2591  141.5434  156.5755 C   0  0  0  0  0  0  0  0  0  0  0  0
  151.6925  141.7906  157.9548 N   0  0  0  0  0  0  0  0  0  0  0  0
  152.2203  140.9387  158.8881 C   0  0  0  0  0  0  0  0  0  0  0  0
  152.4692  139.4657  158.6602 C   0  0  0  0  0  0  0  0  0  0  0  0
  153.8788  139.1291  158.8384 N   0  5  0  0  0  0  0  0  0  0  0  0
  154.6158  139.4756  159.9290 C   0  0  0  0  0  0  0  0  0  0  0  0
  155.3703  140.4388  160.1015 O   0  0  0  0  0  0  0  0  0  0  0  0
  154.4148  138.5315  161.0515 C   0  0  0  0  0  0  0  0  0  0  0  0
  153.6154  137.4243  161.1843 C   0  0  0  0  0  0  0  0  0  0  0  0
  153.8662  136.8891  162.4778 C   0  0  0  0  0  0  0  0  0  0  0  0
  154.8080  137.7001  163.0417 C   0  0  0  0  0  0  0  0  0  0  0  0
  155.1587  138.6971  162.1847 O   0  0  0  0  0  0  0  0  0  0  0  0
  152.5118  141.4953  160.0669 N   0  0  0  0  0  0  0  0  0  0  0  0
  152.1376  142.8117  159.8953 C   0  0  0  0  0  0  0  0  0  0  0  0
  152.1952  143.9047  160.7895 C   0  0  0  0  0  0  0  0  0  0  0  0
  151.7467  145.1797  160.3879 C   0  0  0  0  0  0  0  0  0  0  0  0
  151.2357  145.3789  159.0895 C   0  0  0  0  0  0  0  0  0  0  0  0
  151.1719  144.3029  158.1835 C   0  0  0  0  0  0  0  0  0  0  0  0
  151.6218  143.0309  158.5882 C   0  0  0  0  0  0  0  0  0  0  0  0
  151.2865  136.5192  154.9972 H   0  0  0  0  0  0  0  0  0  0  0  0
  149.7504  137.3041  154.6337 H   0  0  0  0  0  0  0  0  0  0  0  0
  150.4478  137.4374  156.2470 H   0  0  0  0  0  0  0  0  0  0  0  0
  152.3740  138.7512  155.3035 H   0  0  0  0  0  0  0  0  0  0  0  0
  151.6717  138.6270  153.6924 H   0  0  0  0  0  0  0  0  0  0  0  0
  149.5936  140.1690  156.7785 H   0  0  0  0  0  0  0  0  0  0  0  0
  151.1644  139.4170  156.9776 H   0  0  0  0  0  0  0  0  0  0  0  0
  152.0958  141.6668  155.8881 H   0  0  0  0  0  0  0  0  0  0  0  0
  150.5408  142.3155  156.2997 H   0  0  0  0  0  0  0  0  0  0  0  0
  151.8190  138.9118  159.3386 H   0  0  0  0  0  0  0  0  0  0  0  0
  152.1242  139.2061  157.6585 H   0  0  0  0  0  0  0  0  0  0  0  0
  152.9327  137.0451  160.4381 H   0  0  0  0  0  0  0  0  0  0  0  0
  153.4174  136.0199  162.9349 H   0  0  0  0  0  0  0  0  0  0  0  0
  155.3174  137.7103  163.9939 H   0  0  0  0  0  0  0  0  0  0  0  0
  152.5836  143.7597  161.7864 H   0  0  0  0  0  0  0  0  0  0  0  0
  151.7939  146.0079  161.0796 H   0  0  0  0  0  0  0  0  0  0  0  0
  150.8916  146.3577  158.7893 H   0  0  0  0  0  0  0  0  0  0  0  0
  150.7764  144.4519  157.1899 H   0  0  0  0  0  0  0  0  0  0  0  0
  1  2  1  0  0  0  0
  1 24  1  0  0  0  0
  1 25  1  0  0  0  0
  1 26  1  0  0  0  0
  2  3  1  0  0  0  0
  2 27  1  0  0  0  0
  2 28  1  0  0  0  0
  3  4  1  0  0  0  0
  4  5  1  0  0  0  0
  4 29  1  0  0  0  0
  4 30  1  0  0  0  0
  5  6  1  0  0  0  0
  5 31  1  0  0  0  0
  5 32  1  0  0  0  0
  6 23  1  0  0  0  0
  6  7  1  0  0  0  0
  7  8  1  0  0  0  0
  7 17  2  0  0  0  0
  8  9  1  0  0  0  0
  8 33  1  0  0  0  0
  8 34  1  0  0  0  0
  9 10  1  0  0  0  0
 10 11  2  0  0  0  0
 10 12  1  0  0  0  0
 12 16  1  0  0  0  0
 12 13  2  0  0  0  0
 13 14  1  0  0  0  0
 13 35  1  0  0  0  0
 14 15  2  0  0  0  0
 14 36  1  0  0  0  0
 15 16  1  0  0  0  0
 15 37  1  0  0  0  0
 17 18  1  0  0  0  0
 18 23  2  0  0  0  0
 18 19  1  0  0  0  0
 19 20  2  0  0  0  0
 19 38  1  0  0  0  0
 20 21  1  0  0  0  0
 20 39  1  0  0  0  0
 21 22  2  0  0  0  0
 21 40  1  0  0  0  0
 22 23  1  0  0  0  0
 22 41  1  0  0  0  0
M  CHG  1   9  -1
M  END
> <s_m_source_file>
AV-unprocessed.smi

> <i_m_source_file_index>
498

> <i_lp_mmshare_version>
43012

> <i_f3d_flags>
0

> <s_epik_input>
W0NIM11bQ0gyXU9bQ0gyXVtDSDJdbihjKGMxMilbY0hdW2NIXVtjSF1bY0hdMiljKG4xKVtDSDJdW05IXUMoPU8pYzNbY0hdW2NIXVtjSF1vMw==

> <s_epik_cmdline>
J2VwaWtfcHl0aG9uJywgJy1waCcsICc3LjAnLCAnLXRuJywgJzgnLCAnLW1hJywgJzIwMCcsICctbWV0YWxfYmluZGluZycsICctaW1hZScsICc8aW5maWxlLm1hZT4nLCAnLW9tYWUnLCAnPG91dGZpbGUubWFlPic=

> <r_epik_Ionization_Penalty>
7.14443

> <r_epik_Ionization_Penalty_Charging>
6.27046

> <r_epik_Ionization_Penalty_Neutral>
0.873973

> <r_epik_State_Penalty>
6.33192

> <r_epik_Charging_Adjusted_Penalty>
12.6024

> <i_epik_Tot_Q>
-1

> <i_epik_Tot_abs_Q>
1

> <r_epik_Metal_State_Penalty>
2.32923

> <b_epik_Metal_Only>
1

> <s_lp_Force_Field>
OPLS_2005

> <r_lp_Energy>
15.7295

> <b_lp_Chiralities_Consistent>
1

> <s_lp_Variant>
AV-unprocessed.smi:498-3

> <Gold.Version>
5.8.1

> <Gold.Id.Protein>
6NUR|6NUR_protein|mol2

> <Gold.PLP.Fitness>
54.3132

> <Gold.PLP.PLP>
-48.4661

> <Gold.PLP.part.hbond>
-2.0195

> <Gold.PLP.part.metal>
0.0000

> <Gold.PLP.part.buried>
-7.6891

> <Gold.PLP.part.nonpolar>
-39.1154

> <Gold.PLP.part.repulsive>
0.0496

> <Gold.PLP.ligand.clash>
0.0000

> <Gold.PLP.ligand.torsion>
1.6553

> <Gold.PLP.Chemscore.Hbond>
3.0000

> <Gold.PLP.Chemscore.CHOScore>
0.0000

> <Gold.PLP.Chemscore.Metal>
0.0000

> <Gold.Chemscore.Hbonds>
donor molecule, donor type, donor heavy atom, donor atom, acceptor molecule, acceptor atom, score
      P1  H  7989  7998       L1     3  0.34
      P1  H  7997  8008       L1     9  1.59

> <Gold.PLP.Chemscore.Internal.Correction>
0.1576

> <Gold.Rescore>
     Score         DG    S(hbond)    S(metal)    S(lipo)     H(rot)  DE(clash)    DE(int)     intcor
     17.05     -20.26       1.54        0.00     123.81       1.90       0.39       2.82       ----

> <Gold.Chemscore.Fitness>
17.0474

> <Gold.Chemscore.DG>
-20.2579

> <Gold.Chemscore.ZeroCoef>
-5.4800

> <Gold.Chemscore.Hbond>
1.5431

> <Gold.Chemscore.Metal>
0.0000

> <Gold.Chemscore.Lipo>
123.8118

> <Gold.Chemscore.Internal_Hbond>
0.0000

> <Gold.Chemscore.DEClash>
0.3927

> <Gold.Chemscore.DEInternal>
2.8179

> <Gold.Chemscore.Rot>
1.8992

> <Gold.Chemscore.Internal.Correction>
   9.000000E+99

> <Gold.Chemscore.Hbonds>
donor molecule, donor type, donor heavy atom, donor atom, acceptor molecule, acceptor atom, score
      P1  H  7989  7998       L1     3  0.01
      P1  H  7997  8008       L1     9  0.16

> <Gold.Chemscore.Hbond.Weighted>
-5.1540

> <Gold.Chemscore.Metal.Weighted>
-0.0000

> <Gold.Chemscore.Lipo.Weighted>
-14.4860

> <Gold.Chemscore.Internal_Hbond.Weighted>
0.0000

> <Gold.Chemscore.DEClash.Weighted>
0.3927

> <Gold.Chemscore.DEInternal.Weighted>
2.8179

> <Gold.Chemscore.Rot.Weighted>
4.8621

> <Gold.Chemscore.Internal.Correction.Weighted>
   9.000000E+99

> <Gold.Protein.RotatedTorsions>
[ 6907 6896 6895 6894 ] final    6.94 input  -60.11 | X-H torsion
[ 7974 7965 7964 7962 ] final  105.77 input  175.53 | X-H torsion
[ 8008 7997 7996 7995 ] final -117.99 input   59.86 | X-H torsion
[ 10167 10162 10161 10158 ] final  -64.54 input  -65.29 | X-H torsion
[ 10718 10713 10712 10709 ] final  -23.42 input   66.30 | X-H torsion
[ 10763 10752 10751 10750 ] final  -40.00 input  -60.55 | X-H torsion
[ 11005 11000 10999 10996 ] final  100.56 input  -57.11 | X-H torsion

> <Gold.Protein.ActiveResidues>
 VAL166  LYS551  ARG553  GLY616  TRP617  ASP618  TYR619  PRO620  LYS621  CYS622 
 ASP623  PHE694  ASN695  SER759  ASP760  ASP761  ALA762  ILE779  LEU786  VAL792 
 PHE793  MET794  SER795  GLU796  ALA797  LYS798  CYS799  TRP800  GLU811  SER814 

> <Gold.Protein.RotatedAtoms>
  151.6819  135.0960  160.0217 H   0  0  0  0  0  0  0  0  0  0  0  0  # atno 6907 bound_to 6896
  152.3830  133.6568  159.6185 H   0  0  0  0  0  0  0  0  0  0  0  0  # atno 6908 bound_to 6896
  150.7762  133.8998  159.3379 H   0  0  0  0  0  0  0  0  0  0  0  0  # atno 6909 bound_to 6896
  145.3153  139.2528  143.3741 H   0  0  0  0  0  0  0  0  0  0  0  0  # atno 7974 bound_to 7965
  155.0926  140.0395  157.2673 H   0  0  0  0  0  0  0  0  0  0  0  0  # atno 8008 bound_to 7997
  154.6820  140.2635  155.6873 H   0  0  0  0  0  0  0  0  0  0  0  0  # atno 8009 bound_to 7997
  156.2698  140.2776  156.1368 H   0  0  0  0  0  0  0  0  0  0  0  0  # atno 8010 bound_to 7997
  140.5793  143.2325  151.6375 H   0  0  0  0  0  0  0  0  0  0  0  0  # atno 10167 bound_to 10162
  156.4913  130.4567  149.6754 H   0  0  0  0  0  0  0  0  0  0  0  0  # atno 10718 bound_to 10713
  153.9387  135.6764  153.4744 H   0  0  0  0  0  0  0  0  0  0  0  0  # atno 10763 bound_to 10752
  153.0942  135.4859  154.8745 H   0  0  0  0  0  0  0  0  0  0  0  0  # atno 10764 bound_to 10752
  154.7389  135.3156  154.8721 H   0  0  0  0  0  0  0  0  0  0  0  0  # atno 10765 bound_to 10752
  139.8771  134.9145  156.4775 H   0  0  0  0  0  0  0  0  0  0  0  0  # atno 11005 bound_to 11000
  146.3102  140.3698  142.8673 LP  0  0  0  0  0  0  0  0  0  0  0  0  # atno 17320 bound_to 7965
  144.8983  140.7610  143.5883 LP  0  0  0  0  0  0  0  0  0  0  0  0  # atno 17321 bound_to 7965
  139.5161  144.3358  152.0785 LP  0  0  0  0  0  0  0  0  0  0  0  0  # atno 17342 bound_to 10162
  140.2506  144.4173  150.6223 LP  0  0  0  0  0  0  0  0  0  0  0  0  # atno 17343 bound_to 10162
  156.3424  130.7389  151.2336 LP  0  0  0  0  0  0  0  0  0  0  0  0  # atno 17370 bound_to 10713
  157.7473  131.0400  150.4576 LP  0  0  0  0  0  0  0  0  0  0  0  0  # atno 17371 bound_to 10713
  140.8751  133.7959  155.9406 LP  0  0  0  0  0  0  0  0  0  0  0  0  # atno 17394 bound_to 11000
  140.8912  134.2493  157.5093 LP  0  0  0  0  0  0  0  0  0  0  0  0  # atno 17395 bound_to 11000

$$$$
