AV-unprocessed.smi:3105|AV-procd|sdf|11821|dock7
  -GOLD-   2272017193D 1   1.00000     0.00000
 Structure written by MMmdl.
 34 34  0  0  0  0  0  0  0  0  2 V2000
  145.6096  136.2714  151.7075 C   0  0  0  0  0  0  0  0  0  0  0  0
  146.0890  135.1083  152.6019 C   0  0  2  0  0  0  0  0  0  0  0  0
  147.1565  135.5778  153.5146 N   0  3  0  0  0  0  0  0  0  0  0  0
  146.7627  136.6497  154.4567 C   0  0  0  0  0  0  0  0  0  0  0  0
  147.9865  137.3847  155.0394 C   0  0  0  0  0  0  0  0  0  0  0  0
  148.3817  138.6622  154.2859 C   0  0  0  0  0  0  0  0  0  0  0  0
  148.6320  138.5327  152.9811 N   0  0  0  0  0  0  0  0  0  0  0  0
  148.4610  139.7472  154.8599 O   0  0  0  0  0  0  0  0  0  0  0  0
  146.5995  133.8911  151.7843 C   0  0  1  0  0  0  0  0  0  0  0  0
  147.4914  132.9509  152.6188 C   0  0  0  0  0  0  0  0  0  0  0  0
  145.5106  133.1367  151.1755 N   0  0  0  0  0  0  0  0  0  0  0  0
  145.1867  131.8078  151.3575 C   0  0  0  0  0  0  0  0  0  0  0  0
  144.0945  131.5431  150.5821 C   0  0  0  0  0  0  0  0  0  0  0  0
  143.8158  132.7886  149.9539 C   0  0  0  0  0  0  0  0  0  0  0  0
  144.6641  133.7397  150.3095 N   0  0  0  0  0  0  0  0  0  0  0  0
  144.7752  135.9767  151.0711 H   0  0  0  0  0  0  0  0  0  0  0  0
  146.4120  136.6248  151.0590 H   0  0  0  0  0  0  0  0  0  0  0  0
  145.2630  137.1208  152.2951 H   0  0  0  0  0  0  0  0  0  0  0  0
  145.2457  134.7742  153.2087 H   0  0  0  0  0  0  0  0  0  0  0  0
  147.4561  134.7881  154.0686 H   0  0  0  0  0  0  0  0  0  0  0  0
  146.1025  137.3653  153.9660 H   0  0  0  0  0  0  0  0  0  0  0  0
  146.1890  136.2050  155.2707 H   0  0  0  0  0  0  0  0  0  0  0  0
  147.7728  137.6580  156.0734 H   0  0  0  0  0  0  0  0  0  0  0  0
  148.8451  136.7126  155.0699 H   0  0  0  0  0  0  0  0  0  0  0  0
  148.8910  139.3386  152.4301 H   0  0  0  0  0  0  0  0  0  0  0  0
  148.5556  137.6249  152.5444 H   0  0  0  0  0  0  0  0  0  0  0  0
  147.2072  134.2730  150.9622 H   0  0  0  0  0  0  0  0  0  0  0  0
  148.3826  133.4612  152.9837 H   0  0  0  0  0  0  0  0  0  0  0  0
  147.8278  132.1017  152.0228 H   0  0  0  0  0  0  0  0  0  0  0  0
  146.9587  132.5561  153.4846 H   0  0  0  0  0  0  0  0  0  0  0  0
  145.7548  131.1662  152.0152 H   0  0  0  0  0  0  0  0  0  0  0  0
  143.5735  130.6027  150.4794 H   0  0  0  0  0  0  0  0  0  0  0  0
  143.0283  133.0280  149.2544 H   0  0  0  0  0  0  0  0  0  0  0  0
  147.9397  135.8957  152.9611 H   0  0  0  0  0  0  0  0  0  0  0  0
  1  2  1  0  0  0  0
  1 16  1  0  0  0  0
  1 17  1  0  0  0  0
  1 18  1  0  0  0  0
  2  3  1  0  0  0  0
  2  9  1  0  0  0  0
  2 19  1  0  0  0  0
  3  4  1  0  0  0  0
  3 20  1  0  0  0  0
  3 34  1  0  0  0  0
  4  5  1  0  0  0  0
  4 21  1  0  0  0  0
  4 22  1  0  0  0  0
  5  6  1  0  0  0  0
  5 23  1  0  0  0  0
  5 24  1  0  0  0  0
  6  7  1  0  0  0  0
  6  8  2  0  0  0  0
  7 25  1  0  0  0  0
  7 26  1  0  0  0  0
  9 10  1  0  0  0  0
  9 11  1  0  0  0  0
  9 27  1  0  0  0  0
 10 28  1  0  0  0  0
 10 29  1  0  0  0  0
 10 30  1  0  0  0  0
 11 15  1  0  0  0  0
 11 12  1  0  0  0  0
 12 13  2  0  0  0  0
 12 31  1  0  0  0  0
 13 14  1  0  0  0  0
 13 32  1  0  0  0  0
 14 15  2  0  0  0  0
 14 33  1  0  0  0  0
M  CHG  1   3   1
M  END
> <s_m_source_file>
AV-unprocessed.smi

> <i_m_source_file_index>
3105

> <i_lp_mmshare_version>
43012

> <i_f3d_flags>
0

> <s_epik_input>
W05IMl1DKD1PKVtDSDJdW0NIMl1bTkhdW0NAQEhdKFtDSDNdKVtDQEhdKFtDSDNdKW4xW2NIXVtjSF1bY0hdbjE=

> <s_epik_cmdline>
J2VwaWtfcHl0aG9uJywgJy1waCcsICc3LjAnLCAnLXRuJywgJzgnLCAnLW1hJywgJzIwMCcsICctbWV0YWxfYmluZGluZycsICctaW1hZScsICc8aW5maWxlLm1hZT4nLCAnLW9tYWUnLCAnPG91dGZpbGUubWFlPic=

> <r_lp_tautomer_probability>
1

> <r_epik_Ionization_Penalty>
0.00475669

> <r_epik_Ionization_Penalty_Charging>
0.00474654

> <r_epik_Ionization_Penalty_Neutral>
1.01546e-05

> <r_epik_State_Penalty>
-0

> <r_epik_Charging_Adjusted_Penalty>
0.00474654

> <i_epik_Tot_Q>
1

> <i_epik_Tot_abs_Q>
1

> <r_epik_Metal_State_Penalty>
-0

> <b_epik_Metal_Only>
0

> <s_lp_Force_Field>
OPLS_2005

> <r_lp_Energy>
6.92169

> <b_lp_Chiralities_Consistent>
1

> <s_lp_Variant>
AV-unprocessed.smi:3105-3

> <Gold.Version>
5.8.1

> <Gold.Id.Protein>
6NUR|6NUR_protein|mol2

> <Gold.PLP.Fitness>
38.2343

> <Gold.PLP.PLP>
-24.4702

> <Gold.PLP.part.hbond>
-2.8211

> <Gold.PLP.part.metal>
0.0000

> <Gold.PLP.part.buried>
-4.0627

> <Gold.PLP.part.nonpolar>
-18.7169

> <Gold.PLP.part.repulsive>
0.3143

> <Gold.PLP.ligand.clash>
0.0000

> <Gold.PLP.ligand.torsion>
0.6835

> <Gold.PLP.Chemscore.Hbond>
4.0000

> <Gold.PLP.Chemscore.CHOScore>
1.0000

> <Gold.PLP.Chemscore.Metal>
0.0000

> <Gold.Chemscore.Hbonds>
donor molecule, donor type, donor heavy atom, donor atom, acceptor molecule, acceptor atom, score
      L1  H     3    34       P1  7948  1.98
      L1  H     7    25       P1  7957  1.00
      L1  H     7    26       P1  7948  1.00
      L1  C    14    33       P1 10186  1.00

> <Gold.PLP.Chemscore.Internal.Correction>
0.1310

> <Gold.Rescore>
     Score         DG    S(hbond)    S(metal)    S(lipo)     H(rot)  DE(clash)    DE(int)     intcor
     13.28     -14.14       2.95        0.00      52.05       2.85       0.00       0.85       ----

> <Gold.Chemscore.Fitness>
13.2833

> <Gold.Chemscore.DG>
-14.1389

> <Gold.Chemscore.ZeroCoef>
-5.4800

> <Gold.Chemscore.Hbond>
2.9517

> <Gold.Chemscore.Metal>
0.0000

> <Gold.Chemscore.Lipo>
52.0458

> <Gold.Chemscore.Internal_Hbond>
0.0000

> <Gold.Chemscore.DEClash>
0.0036

> <Gold.Chemscore.DEInternal>
0.8520

> <Gold.Chemscore.Rot>
2.8473

> <Gold.Chemscore.Internal.Correction>
   9.000000E+99

> <Gold.Chemscore.Hbonds>
donor molecule, donor type, donor heavy atom, donor atom, acceptor molecule, acceptor atom, score
      L1  H     3    34       P1  7948  0.92
      L1  H     7    25       P1  7957  0.95
      L1  H     7    26       P1  7948  0.97

> <Gold.Chemscore.Hbond.Weighted>
-9.8587

> <Gold.Chemscore.Metal.Weighted>
-0.0000

> <Gold.Chemscore.Lipo.Weighted>
-6.0894

> <Gold.Chemscore.Internal_Hbond.Weighted>
0.0000

> <Gold.Chemscore.DEClash.Weighted>
0.0036

> <Gold.Chemscore.DEInternal.Weighted>
0.8520

> <Gold.Chemscore.Rot.Weighted>
7.2892

> <Gold.Chemscore.Internal.Correction.Weighted>
   9.000000E+99

> <Gold.Protein.RotatedTorsions>
[ 6907 6896 6895 6894 ] final  -99.17 input  -60.11 | X-H torsion
[ 7974 7965 7964 7962 ] final   57.71 input  175.53 | X-H torsion
[ 8008 7997 7996 7995 ] final  119.73 input   59.86 | X-H torsion
[ 10167 10162 10161 10158 ] final -155.40 input  -65.29 | X-H torsion
[ 10718 10713 10712 10709 ] final  101.38 input   66.30 | X-H torsion
[ 10763 10752 10751 10750 ] final   93.97 input  -60.55 | X-H torsion
[ 11005 11000 10999 10996 ] final   81.45 input  -57.11 | X-H torsion

> <Gold.Protein.ActiveResidues>
 VAL166  LYS551  ARG553  GLY616  TRP617  ASP618  TYR619  PRO620  LYS621  CYS622 
 ASP623  PHE694  ASN695  SER759  ASP760  ASP761  ALA762  ILE779  LEU786  VAL792 
 PHE793  MET794  SER795  GLU796  ALA797  LYS798  CYS799  TRP800  GLU811  SER814 

> <Gold.Protein.RotatedAtoms>
  150.7071  134.1082  159.3990 H   0  0  0  0  0  0  0  0  0  0  0  0  # atno 6907 bound_to 6896
  151.9068  135.0353  160.0520 H   0  0  0  0  0  0  0  0  0  0  0  0  # atno 6908 bound_to 6896
  152.2368  133.5067  159.5284 H   0  0  0  0  0  0  0  0  0  0  0  0  # atno 6909 bound_to 6896
  145.9261  139.3768  143.0449 H   0  0  0  0  0  0  0  0  0  0  0  0  # atno 7974 bound_to 7965
  156.2609  140.2846  156.1037 H   0  0  0  0  0  0  0  0  0  0  0  0  # atno 8008 bound_to 7997
  155.1332  140.0394  157.2797 H   0  0  0  0  0  0  0  0  0  0  0  0  # atno 8009 bound_to 7997
  154.6584  140.2561  155.7142 H   0  0  0  0  0  0  0  0  0  0  0  0  # atno 8010 bound_to 7997
  139.6934  143.9382  152.2396 H   0  0  0  0  0  0  0  0  0  0  0  0  # atno 10167 bound_to 10162
  157.6831  131.0724  150.5244 H   0  0  0  0  0  0  0  0  0  0  0  0  # atno 10718 bound_to 10713
  153.2363  135.4306  155.0650 H   0  0  0  0  0  0  0  0  0  0  0  0  # atno 10763 bound_to 10752
  154.8320  135.3392  154.6714 H   0  0  0  0  0  0  0  0  0  0  0  0  # atno 10764 bound_to 10752
  153.7139  135.7021  153.5086 H   0  0  0  0  0  0  0  0  0  0  0  0  # atno 10765 bound_to 10752
  139.9098  134.7997  156.2043 H   0  0  0  0  0  0  0  0  0  0  0  0  # atno 11005 bound_to 11000
  145.8487  140.9540  143.0761 LP  0  0  0  0  0  0  0  0  0  0  0  0  # atno 17320 bound_to 7965
  144.6759  140.0379  143.7481 LP  0  0  0  0  0  0  0  0  0  0  0  0  # atno 17321 bound_to 7965
  139.9204  144.6803  150.8467 LP  0  0  0  0  0  0  0  0  0  0  0  0  # atno 17342 bound_to 10162
  140.7689  143.3379  151.2270 LP  0  0  0  0  0  0  0  0  0  0  0  0  # atno 17343 bound_to 10162
  156.5556  130.4242  149.6087 LP  0  0  0  0  0  0  0  0  0  0  0  0  # atno 17370 bound_to 10713
  156.2865  130.7100  151.1938 LP  0  0  0  0  0  0  0  0  0  0  0  0  # atno 17371 bound_to 10713
  141.0505  133.6891  156.1763 LP  0  0  0  0  0  0  0  0  0  0  0  0  # atno 17394 bound_to 11000
  140.6817  134.4760  157.5589 LP  0  0  0  0  0  0  0  0  0  0  0  0  # atno 17395 bound_to 11000

$$$$
