AV-unprocessed.smi:1836|AV-procd|sdf|7479|dock9
  -GOLD-   22720 9173D 1   1.00000     0.00000
 Structure written by MMmdl.
 32 33  0  0  0  0  0  0  0  0  2 V2000
  152.0265  139.2615  156.9263 C   0  0  0  0  0  0  0  0  0  0  0  0
  151.0442  139.4583  158.0891 C   0  0  2  0  0  0  0  0  0  0  0  0
  151.6442  140.3831  159.1735 C   0  0  0  0  0  0  0  0  0  0  0  0
  151.7634  141.7703  158.7260 N   0  0  0  0  0  0  0  0  0  0  0  0
  152.8064  142.6346  159.2546 C   0  0  0  0  0  0  0  0  0  0  0  0
  152.4026  144.0480  158.8153 C   0  0  0  0  0  0  0  0  0  0  0  0
  151.3826  143.8510  157.6889 C   0  0  0  0  0  0  0  0  0  0  0  0
  150.9826  142.3922  157.8343 C   0  0  0  0  0  0  0  0  0  0  0  0
  150.0524  141.8887  157.2059 O   0  0  0  0  0  0  0  0  0  0  0  0
  150.7272  138.1469  158.6550 N   0  0  0  0  0  0  0  0  0  0  0  0
  149.5008  137.6611  158.9005 C   0  0  0  0  0  0  0  0  0  0  0  0
  148.5028  138.3201  158.5998 O   0  0  0  0  0  0  0  0  0  0  0  0
  149.5057  136.4500  159.5016 N   0  5  0  0  0  0  0  0  0  0  0  0
  148.5243  136.1281  160.3603 C   0  0  0  0  0  0  0  0  0  0  0  0
  147.8557  137.0525  161.0680 N   0  0  0  0  0  0  0  0  0  0  0  0
  146.8824  136.5075  161.8949 N   0  0  0  0  0  0  0  0  0  0  0  0
  146.8369  135.1803  161.7827 C   0  0  0  0  0  0  0  0  0  0  0  0
  147.9757  134.4752  160.6551 S   0  0  0  0  0  0  0  0  0  0  0  0
  152.2703  140.2135  156.4543 H   0  0  0  0  0  0  0  0  0  0  0  0
  151.6013  138.6142  156.1586 H   0  0  0  0  0  0  0  0  0  0  0  0
  152.9592  138.8093  157.2653 H   0  0  0  0  0  0  0  0  0  0  0  0
  150.1455  139.9154  157.6718 H   0  0  0  0  0  0  0  0  0  0  0  0
  151.0450  140.3385  160.0843 H   0  0  0  0  0  0  0  0  0  0  0  0
  152.6390  140.0309  159.4507 H   0  0  0  0  0  0  0  0  0  0  0  0
  152.8887  142.5566  160.3395 H   0  0  0  0  0  0  0  0  0  0  0  0
  153.7636  142.3474  158.8182 H   0  0  0  0  0  0  0  0  0  0  0  0
  151.9331  144.5739  159.6481 H   0  0  0  0  0  0  0  0  0  0  0  0
  153.2634  144.6363  158.4961 H   0  0  0  0  0  0  0  0  0  0  0  0
  150.5228  144.5138  157.7904 H   0  0  0  0  0  0  0  0  0  0  0  0
  151.8349  144.0066  156.7092 H   0  0  0  0  0  0  0  0  0  0  0  0
  151.5104  137.5656  158.9156 H   0  0  0  0  0  0  0  0  0  0  0  0
  146.1264  134.6132  162.3653 H   0  0  0  0  0  0  0  0  0  0  0  0
  1  2  1  0  0  0  0
  1 19  1  0  0  0  0
  1 20  1  0  0  0  0
  1 21  1  0  0  0  0
  2  3  1  0  0  0  0
  2 10  1  0  0  0  0
  2 22  1  0  0  0  0
  3  4  1  0  0  0  0
  3 23  1  0  0  0  0
  3 24  1  0  0  0  0
  4  8  1  0  0  0  0
  4  5  1  0  0  0  0
  5  6  1  0  0  0  0
  5 25  1  0  0  0  0
  5 26  1  0  0  0  0
  6  7  1  0  0  0  0
  6 27  1  0  0  0  0
  6 28  1  0  0  0  0
  7  8  1  0  0  0  0
  7 29  1  0  0  0  0
  7 30  1  0  0  0  0
  8  9  2  0  0  0  0
 10 11  1  0  0  0  0
 10 31  1  0  0  0  0
 11 12  2  0  0  0  0
 11 13  1  0  0  0  0
 13 14  1  0  0  0  0
 14 18  1  0  0  0  0
 14 15  2  0  0  0  0
 15 16  1  0  0  0  0
 16 17  2  0  0  0  0
 17 18  1  0  0  0  0
 17 32  1  0  0  0  0
M  CHG  1  13  -1
M  END
> <s_m_source_file>
AV-unprocessed.smi

> <i_m_source_file_index>
1836

> <i_lp_mmshare_version>
43012

> <i_f3d_flags>
0

> <s_epik_input>
Tz1DMVtDSDJdW0NIMl1bQ0gyXU4xW0NIMl1bQ0BASF0oW0NIM10pW05IXUMoPU8pW05IXWMybm5bY0hdczI=

> <s_epik_cmdline>
J2VwaWtfcHl0aG9uJywgJy1waCcsICc3LjAnLCAnLXRuJywgJzgnLCAnLW1hJywgJzIwMCcsICctbWV0YWxfYmluZGluZycsICctaW1hZScsICc8aW5maWxlLm1hZT4nLCAnLW9tYWUnLCAnPG91dGZpbGUubWFlPic=

> <r_lp_tautomer_probability>
1

> <r_epik_Ionization_Penalty>
3.44722

> <r_epik_Ionization_Penalty_Charging>
3.40341

> <r_epik_Ionization_Penalty_Neutral>
0.0438099

> <r_epik_State_Penalty>
3.40151

> <r_epik_Charging_Adjusted_Penalty>
6.80491

> <i_epik_Tot_Q>
-1

> <i_epik_Tot_abs_Q>
1

> <r_epik_Metal_State_Penalty>
0.49534

> <b_epik_Metal_Only>
1

> <s_lp_Force_Field>
OPLS_2005

> <r_lp_Energy>
15.5322

> <b_lp_Chiralities_Consistent>
1

> <s_lp_Variant>
AV-unprocessed.smi:1836-3

> <Gold.Version>
5.8.1

> <Gold.Id.Protein>
6NUR|6NUR_protein|mol2

> <Gold.PLP.Fitness>
42.5934

> <Gold.PLP.PLP>
-33.4039

> <Gold.PLP.part.hbond>
-3.6147

> <Gold.PLP.part.metal>
0.0000

> <Gold.PLP.part.buried>
-5.2559

> <Gold.PLP.part.nonpolar>
-25.2644

> <Gold.PLP.part.repulsive>
0.2265

> <Gold.PLP.ligand.clash>
0.0000

> <Gold.PLP.ligand.torsion>
0.9028

> <Gold.PLP.Chemscore.Hbond>
3.6395

> <Gold.PLP.Chemscore.CHOScore>
0.0000

> <Gold.PLP.Chemscore.Metal>
0.0000

> <Gold.Chemscore.Hbonds>
donor molecule, donor type, donor heavy atom, donor atom, acceptor molecule, acceptor atom, score
      P1  H  6896  6907       L1    13  1.79
      P1  H  6931  6943       L1    15  1.00
      P1  H  6934  6947       L1    15  0.72

> <Gold.PLP.Chemscore.Internal.Correction>
0.0766

> <Gold.Rescore>
     Score         DG    S(hbond)    S(metal)    S(lipo)     H(rot)  DE(clash)    DE(int)     intcor
     11.67     -15.03       1.89        0.00      65.56       1.73       0.00       3.36       ----

> <Gold.Chemscore.Fitness>
11.6719

> <Gold.Chemscore.DG>
-15.0305

> <Gold.Chemscore.ZeroCoef>
-5.4800

> <Gold.Chemscore.Hbond>
1.8890

> <Gold.Chemscore.Metal>
0.0000

> <Gold.Chemscore.Lipo>
65.5613

> <Gold.Chemscore.Internal_Hbond>
0.0000

> <Gold.Chemscore.DEClash>
0.0000

> <Gold.Chemscore.DEInternal>
3.3586

> <Gold.Chemscore.Rot>
1.7302

> <Gold.Chemscore.Internal.Correction>
   9.000000E+99

> <Gold.Chemscore.Hbonds>
donor molecule, donor type, donor heavy atom, donor atom, acceptor molecule, acceptor atom, score
      P1  H  6896  6907       L1    13  0.34
      P1  H  6931  6943       L1    15  0.67
      P1  H  6934  6947       L1    15  0.21

> <Gold.Chemscore.Hbond.Weighted>
-6.3092

> <Gold.Chemscore.Metal.Weighted>
-0.0000

> <Gold.Chemscore.Lipo.Weighted>
-7.6707

> <Gold.Chemscore.Internal_Hbond.Weighted>
0.0000

> <Gold.Chemscore.DEClash.Weighted>
0.0000

> <Gold.Chemscore.DEInternal.Weighted>
3.3586

> <Gold.Chemscore.Rot.Weighted>
4.4294

> <Gold.Chemscore.Internal.Correction.Weighted>
   9.000000E+99

> <Gold.Protein.RotatedTorsions>
[ 6907 6896 6895 6894 ] final  -50.22 input  -60.11 | X-H torsion
[ 7974 7965 7964 7962 ] final -121.92 input  175.53 | X-H torsion
[ 8008 7997 7996 7995 ] final -101.48 input   59.86 | X-H torsion
[ 10167 10162 10161 10158 ] final  -12.59 input  -65.29 | X-H torsion
[ 10718 10713 10712 10709 ] final  103.55 input   66.30 | X-H torsion
[ 10763 10752 10751 10750 ] final    4.62 input  -60.55 | X-H torsion
[ 11005 11000 10999 10996 ] final  145.18 input  -57.11 | X-H torsion

> <Gold.Protein.ActiveResidues>
 VAL166  LYS551  ARG553  GLY616  TRP617  ASP618  TYR619  PRO620  LYS621  CYS622 
 ASP623  PHE694  ASN695  SER759  ASP760  ASP761  ALA762  ILE779  LEU786  VAL792 
 PHE793  MET794  SER795  GLU796  ALA797  LYS798  CYS799  TRP800  GLU811  SER814 

> <Gold.Protein.RotatedAtoms>
  150.8728  134.8105  159.7167 H   0  0  0  0  0  0  0  0  0  0  0  0  # atno 6907 bound_to 6896
  152.4726  134.4920  159.9708 H   0  0  0  0  0  0  0  0  0  0  0  0  # atno 6908 bound_to 6896
  151.5006  133.3467  159.2904 H   0  0  0  0  0  0  0  0  0  0  0  0  # atno 6909 bound_to 6896
  145.0351  140.8099  143.4300 H   0  0  0  0  0  0  0  0  0  0  0  0  # atno 7974 bound_to 7965
  154.8431  140.0434  157.1554 H   0  0  0  0  0  0  0  0  0  0  0  0  # atno 8008 bound_to 7997
  154.9025  140.3002  155.5289 H   0  0  0  0  0  0  0  0  0  0  0  0  # atno 8009 bound_to 7997
  156.2993  140.2373  156.4054 H   0  0  0  0  0  0  0  0  0  0  0  0  # atno 8010 bound_to 7997
  140.7164  143.5516  150.9295 H   0  0  0  0  0  0  0  0  0  0  0  0  # atno 10167 bound_to 10162
  157.6769  131.0782  150.5573 H   0  0  0  0  0  0  0  0  0  0  0  0  # atno 10718 bound_to 10713
  153.2691  135.6930  153.7499 H   0  0  0  0  0  0  0  0  0  0  0  0  # atno 10763 bound_to 10752
  153.6530  135.3373  155.3106 H   0  0  0  0  0  0  0  0  0  0  0  0  # atno 10764 bound_to 10752
  154.8457  135.4459  154.1707 H   0  0  0  0  0  0  0  0  0  0  0  0  # atno 10765 bound_to 10752
  140.0691  134.9162  157.1315 H   0  0  0  0  0  0  0  0  0  0  0  0  # atno 11005 bound_to 11000
  145.1720  139.2399  143.5337 LP  0  0  0  0  0  0  0  0  0  0  0  0  # atno 17320 bound_to 7965
  146.3503  140.1473  142.8593 LP  0  0  0  0  0  0  0  0  0  0  0  0  # atno 17321 bound_to 7965
  139.9240  143.6572  152.3091 LP  0  0  0  0  0  0  0  0  0  0  0  0  # atno 17342 bound_to 10162
  139.6999  144.7636  151.1292 LP  0  0  0  0  0  0  0  0  0  0  0  0  # atno 17343 bound_to 10162
  156.5876  130.4321  149.5950 LP  0  0  0  0  0  0  0  0  0  0  0  0  # atno 17370 bound_to 10713
  156.2609  130.6962  151.1730 LP  0  0  0  0  0  0  0  0  0  0  0  0  # atno 17371 bound_to 10713
  140.3654  134.2448  155.7183 LP  0  0  0  0  0  0  0  0  0  0  0  0  # atno 17394 bound_to 11000
  141.2005  133.7987  157.0488 LP  0  0  0  0  0  0  0  0  0  0  0  0  # atno 17395 bound_to 11000

$$$$
