AV-unprocessed.smi:1485|AV-procd|sdf|6001|dock3
  -GOLD-   22720 6 93D 1   1.00000     0.00000
 Structure written by MMmdl.
 44 45  0  0  0  0  0  0  0  0  1 V2000
  150.9938  138.6503  154.5911 C   0  0  0  0  0  0  0  0  0  0  0  0
  151.2482  139.9536  155.0834 O   0  0  0  0  0  0  0  0  0  0  0  0
  151.9047  139.9447  156.3411 C   0  0  0  0  0  0  0  0  0  0  0  0
  151.6364  141.2735  157.0655 C   0  0  0  0  0  0  0  0  0  0  0  0
  152.3189  141.3314  158.3630 N   0  0  0  0  0  0  0  0  0  0  0  0
  153.0333  140.1865  158.6698 N   0  0  0  0  0  0  0  0  0  0  0  0
  153.6750  140.0986  159.7894 C   0  0  0  0  0  0  0  0  0  0  0  0
  154.4262  138.8698  160.1654 C   0  0  0  0  0  0  0  0  0  0  0  0
  154.5360  137.9114  159.3990 O   0  0  0  0  0  0  0  0  0  0  0  0
  154.9732  138.8935  161.3936 N   0  0  0  0  0  0  0  0  0  0  0  0
  155.7658  137.8305  162.0068 C   0  0  2  0  0  0  0  0  0  0  0  0
  154.9090  136.5714  162.2492 C   0  0  0  0  0  0  0  0  0  0  0  0
  153.8614  136.7893  163.3550 C   0  0  0  0  0  0  0  0  0  0  0  0
  154.5135  137.2821  164.6569 C   0  0  0  0  0  0  0  0  0  0  0  0
  155.3406  138.5617  164.4286 C   0  0  1  0  0  0  0  0  0  0  0  0
  155.9936  139.0492  165.7294 C   0  0  0  0  0  0  0  0  0  0  0  0
  156.3923  138.3325  163.3228 C   0  0  0  0  0  0  0  0  0  0  0  0
  153.6773  141.2027  160.7338 C   0  0  0  0  0  0  0  0  0  0  0  0
  152.9605  142.3071  160.4297 C   0  0  0  0  0  0  0  0  0  0  0  0
  152.2004  142.4191  159.1831 C   0  0  0  0  0  0  0  0  0  0  0  0
  151.5138  143.4003  158.8997 O   0  0  0  0  0  0  0  0  0  0  0  0
  150.4799  138.7161  153.6323 H   0  0  0  0  0  0  0  0  0  0  0  0
  150.3583  138.0870  155.2756 H   0  0  0  0  0  0  0  0  0  0  0  0
  151.9221  138.0983  154.4392 H   0  0  0  0  0  0  0  0  0  0  0  0
  151.5214  139.1194  156.9425 H   0  0  0  0  0  0  0  0  0  0  0  0
  152.9769  139.7848  156.2156 H   0  0  0  0  0  0  0  0  0  0  0  0
  151.9544  142.1071  156.4366 H   0  0  0  0  0  0  0  0  0  0  0  0
  150.5611  141.4083  157.1940 H   0  0  0  0  0  0  0  0  0  0  0  0
  154.8318  139.7253  161.9489 H   0  0  0  0  0  0  0  0  0  0  0  0
  156.5814  137.5710  161.3298 H   0  0  0  0  0  0  0  0  0  0  0  0
  154.4193  136.2604  161.3254 H   0  0  0  0  0  0  0  0  0  0  0  0
  155.5621  135.7467  162.5369 H   0  0  0  0  0  0  0  0  0  0  0  0
  153.1170  137.5134  163.0213 H   0  0  0  0  0  0  0  0  0  0  0  0
  153.3224  135.8600  163.5409 H   0  0  0  0  0  0  0  0  0  0  0  0
  153.7410  137.4660  165.4043 H   0  0  0  0  0  0  0  0  0  0  0  0
  155.1536  136.4970  165.0619 H   0  0  0  0  0  0  0  0  0  0  0  0
  154.6603  139.3469  164.0961 H   0  0  0  0  0  0  0  0  0  0  0  0
  156.6934  138.3116  166.1232 H   0  0  0  0  0  0  0  0  0  0  0  0
  155.2439  139.2406  166.4973 H   0  0  0  0  0  0  0  0  0  0  0  0
  156.5430  139.9771  165.5678 H   0  0  0  0  0  0  0  0  0  0  0  0
  157.1222  137.5991  163.6690 H   0  0  0  0  0  0  0  0  0  0  0  0
  156.9515  139.2512  163.1403 H   0  0  0  0  0  0  0  0  0  0  0  0
  154.2294  141.1461  161.6606 H   0  0  0  0  0  0  0  0  0  0  0  0
  152.9486  143.1336  161.1251 H   0  0  0  0  0  0  0  0  0  0  0  0
  1  2  1  0  0  0  0
  1 22  1  0  0  0  0
  1 23  1  0  0  0  0
  1 24  1  0  0  0  0
  2  3  1  0  0  0  0
  3  4  1  0  0  0  0
  3 25  1  0  0  0  0
  3 26  1  0  0  0  0
  4  5  1  0  0  0  0
  4 27  1  0  0  0  0
  4 28  1  0  0  0  0
  5 20  1  0  0  0  0
  5  6  1  0  0  0  0
  6  7  2  0  0  0  0
  7  8  1  0  0  0  0
  7 18  1  0  0  0  0
  8  9  2  0  0  0  0
  8 10  1  0  0  0  0
 10 11  1  0  0  0  0
 10 29  1  0  0  0  0
 11 17  1  0  0  0  0
 11 12  1  0  0  0  0
 11 30  1  0  0  0  0
 12 13  1  0  0  0  0
 12 31  1  0  0  0  0
 12 32  1  0  0  0  0
 13 14  1  0  0  0  0
 13 33  1  0  0  0  0
 13 34  1  0  0  0  0
 14 15  1  0  0  0  0
 14 35  1  0  0  0  0
 14 36  1  0  0  0  0
 15 16  1  0  0  0  0
 15 17  1  0  0  0  0
 15 37  1  0  0  0  0
 16 38  1  0  0  0  0
 16 39  1  0  0  0  0
 16 40  1  0  0  0  0
 17 41  1  0  0  0  0
 17 42  1  0  0  0  0
 18 19  2  0  0  0  0
 18 43  1  0  0  0  0
 19 20  1  0  0  0  0
 19 44  1  0  0  0  0
 20 21  2  0  0  0  0
M  END
> <s_m_source_file>
AV-unprocessed.smi

> <i_m_source_file_index>
1485

> <i_lp_mmshare_version>
43012

> <i_f3d_flags>
0

> <s_epik_input>
W0NIM11PW0NIMl1bQ0gyXW4xbmMoW2NIXVtjSF1jMT1PKUMoPU8pW05IXVtDQEBIXTJbQ0gyXVtDSDJdW0NIMl1bQ0BASF0oW0NIM10pW0NIMl0y

> <s_epik_cmdline>
J2VwaWtfcHl0aG9uJywgJy1waCcsICc3LjAnLCAnLXRuJywgJzgnLCAnLW1hJywgJzIwMCcsICctbWV0YWxfYmluZGluZycsICctaW1hZScsICc8aW5maWxlLm1hZT4nLCAnLW9tYWUnLCAnPG91dGZpbGUubWFlPic=

> <r_lp_tautomer_probability>
1

> <r_epik_Ionization_Penalty>
6.4688e-07

> <r_epik_Ionization_Penalty_Charging>
6.63567e-09

> <r_epik_Ionization_Penalty_Neutral>
6.40245e-07

> <r_epik_State_Penalty>
-0

> <r_epik_Charging_Adjusted_Penalty>
6.63567e-09

> <i_epik_Tot_Q>
0

> <i_epik_Tot_abs_Q>
0

> <r_epik_Metal_State_Penalty>
-0

> <b_epik_Metal_Only>
0

> <s_lp_Force_Field>
OPLS_2005

> <r_lp_Energy>
29.3151

> <b_lp_Chiralities_Consistent>
1

> <s_lp_Variant>
AV-unprocessed.smi:1485-1

> <Gold.Version>
5.8.1

> <Gold.Id.Protein>
6NUR|6NUR_protein|mol2

> <Gold.PLP.Fitness>
42.3316

> <Gold.PLP.PLP>
-39.1779

> <Gold.PLP.part.hbond>
-1.5795

> <Gold.PLP.part.metal>
0.0000

> <Gold.PLP.part.buried>
-6.1154

> <Gold.PLP.part.nonpolar>
-30.7447

> <Gold.PLP.part.repulsive>
0.0953

> <Gold.PLP.ligand.clash>
0.7641

> <Gold.PLP.ligand.torsion>
0.1866

> <Gold.PLP.Chemscore.Hbond>
1.4212

> <Gold.PLP.Chemscore.CHOScore>
0.0000

> <Gold.PLP.Chemscore.Metal>
0.0000

> <Gold.Chemscore.Hbonds>
donor molecule, donor type, donor heavy atom, donor atom, acceptor molecule, acceptor atom, score
      P1  H  7989  7998       L1     2  1.00
      P1  H  7997  8010       L1     6  0.39

> <Gold.PLP.Chemscore.Internal.Correction>
0.0274

> <Gold.Rescore>
     Score         DG    S(hbond)    S(metal)    S(lipo)     H(rot)  DE(clash)    DE(int)     intcor
     15.36     -15.89       1.20        0.00      88.63       1.55       0.26       0.28       ----

> <Gold.Chemscore.Fitness>
15.3564

> <Gold.Chemscore.DG>
-15.8883

> <Gold.Chemscore.ZeroCoef>
-5.4800

> <Gold.Chemscore.Hbond>
1.1978

> <Gold.Chemscore.Metal>
0.0000

> <Gold.Chemscore.Lipo>
88.6307

> <Gold.Chemscore.Internal_Hbond>
0.0000

> <Gold.Chemscore.DEClash>
0.2550

> <Gold.Chemscore.DEInternal>
0.2768

> <Gold.Chemscore.Rot>
1.5478

> <Gold.Chemscore.Internal.Correction>
   9.000000E+99

> <Gold.Chemscore.Hbonds>
donor molecule, donor type, donor heavy atom, donor atom, acceptor molecule, acceptor atom, score
      P1  H  7989  7998       L1     2  0.30
      P1  H  7997  8010       L1     6  0.08

> <Gold.Chemscore.Hbond.Weighted>
-4.0007

> <Gold.Chemscore.Metal.Weighted>
-0.0000

> <Gold.Chemscore.Lipo.Weighted>
-10.3698

> <Gold.Chemscore.Internal_Hbond.Weighted>
0.0000

> <Gold.Chemscore.DEClash.Weighted>
0.2550

> <Gold.Chemscore.DEInternal.Weighted>
0.2768

> <Gold.Chemscore.Rot.Weighted>
3.9623

> <Gold.Chemscore.Internal.Correction.Weighted>
   9.000000E+99

> <Gold.Protein.RotatedTorsions>
[ 6907 6896 6895 6894 ] final -146.40 input  -60.11 | X-H torsion
[ 7974 7965 7964 7962 ] final   -4.89 input  175.53 | X-H torsion
[ 8008 7997 7996 7995 ] final   26.73 input   59.86 | X-H torsion
[ 10167 10162 10161 10158 ] final -112.05 input  -65.29 | X-H torsion
[ 10718 10713 10712 10709 ] final    9.46 input   66.30 | X-H torsion
[ 10763 10752 10751 10750 ] final  -38.14 input  -60.55 | X-H torsion
[ 11005 11000 10999 10996 ] final  165.64 input  -57.11 | X-H torsion

> <Gold.Protein.ActiveResidues>
 VAL166  LYS551  ARG553  GLY616  TRP617  ASP618  TYR619  PRO620  LYS621  CYS622 
 ASP623  PHE694  ASN695  SER759  ASP760  ASP761  ALA762  ILE779  LEU786  VAL792 
 PHE793  MET794  SER795  GLU796  ALA797  LYS798  CYS799  TRP800  GLU811  SER814 

> <Gold.Protein.RotatedAtoms>
  151.1411  133.4971  159.2596 H   0  0  0  0  0  0  0  0  0  0  0  0  # atno 6907 bound_to 6896
  151.1654  135.0293  159.8738 H   0  0  0  0  0  0  0  0  0  0  0  0  # atno 6908 bound_to 6896
  152.5462  134.1280  159.8480 H   0  0  0  0  0  0  0  0  0  0  0  0  # atno 6909 bound_to 6896
  146.2364  140.1939  142.8333 H   0  0  0  0  0  0  0  0  0  0  0  0  # atno 7974 bound_to 7965
  155.0318  140.3159  155.4755 H   0  0  0  0  0  0  0  0  0  0  0  0  # atno 8008 bound_to 7997
  156.2872  140.2179  156.5382 H   0  0  0  0  0  0  0  0  0  0  0  0  # atno 8009 bound_to 7997
  154.7364  140.0477  157.0760 H   0  0  0  0  0  0  0  0  0  0  0  0  # atno 8010 bound_to 7997
  140.1270  143.4394  152.1653 H   0  0  0  0  0  0  0  0  0  0  0  0  # atno 10167 bound_to 10162
  156.9667  130.5953  149.5666 H   0  0  0  0  0  0  0  0  0  0  0  0  # atno 10718 bound_to 10713
  153.9079  135.6795  153.4752 H   0  0  0  0  0  0  0  0  0  0  0  0  # atno 10763 bound_to 10752
  153.1094  135.4790  154.9006 H   0  0  0  0  0  0  0  0  0  0  0  0  # atno 10764 bound_to 10752
  154.7542  135.3193  154.8456 H   0  0  0  0  0  0  0  0  0  0  0  0  # atno 10765 bound_to 10752
  140.2582  134.7923  157.3565 H   0  0  0  0  0  0  0  0  0  0  0  0  # atno 11005 bound_to 11000
  144.9836  140.8482  143.5382 LP  0  0  0  0  0  0  0  0  0  0  0  0  # atno 17320 bound_to 7965
  145.1935  139.2289  143.5230 LP  0  0  0  0  0  0  0  0  0  0  0  0  # atno 17321 bound_to 7965
  139.5539  144.7358  151.4352 LP  0  0  0  0  0  0  0  0  0  0  0  0  # atno 17342 bound_to 10162
  140.6839  143.8018  150.7159 LP  0  0  0  0  0  0  0  0  0  0  0  0  # atno 17343 bound_to 10162
  156.0300  130.5391  150.8508 LP  0  0  0  0  0  0  0  0  0  0  0  0  # atno 17370 bound_to 10713
  157.5621  131.0946  150.9544 LP  0  0  0  0  0  0  0  0  0  0  0  0  # atno 17371 bound_to 10713
  140.1490  134.4873  155.7975 LP  0  0  0  0  0  0  0  0  0  0  0  0  # atno 17394 bound_to 11000
  141.2193  133.6855  156.7346 LP  0  0  0  0  0  0  0  0  0  0  0  0  # atno 17395 bound_to 11000

$$$$
