AV-unprocessed.smi:614|AV-procd|sdf|3069|dock8
  -GOLD-   2262023593D 1   1.00000     0.00000
 Structure written by MMmdl.
 44 45  0  0  0  0  0  0  0  0  1 V2000
  144.9822  131.0890  151.1506 C   0  0  0  0  0  0  0  0  0  0  0  0
  145.0139  132.5323  151.2475 N   0  0  0  0  0  0  0  0  0  0  0  0
  144.1074  133.4483  150.7536 C   0  0  0  0  0  0  0  0  0  0  0  0
  144.5590  134.6933  151.0886 C   0  0  0  0  0  0  0  0  0  0  0  0
  145.7638  134.4250  151.7956 C   0  0  0  0  0  0  0  0  0  0  0  0
  146.5497  135.4864  152.3136 N   0  0  0  0  0  0  0  0  0  0  0  0
  146.2681  136.2821  153.3593 C   0  0  0  0  0  0  0  0  0  0  0  0
  145.2329  136.2324  154.0225 O   0  0  0  0  0  0  0  0  0  0  0  0
  147.2699  137.1500  153.5824 N   0  0  0  0  0  0  0  0  0  0  0  0
  147.3878  138.1783  154.6279 C   0  0  2  0  0  0  0  0  0  0  0  0
  147.1827  137.3985  155.9479 C   0  0  0  0  0  0  0  0  0  0  0  0
  146.1928  139.1729  154.5062 C   0  0  0  0  0  0  0  0  0  0  0  0
  146.1667  139.9067  153.2982 O   0  0  0  0  0  0  0  0  0  0  0  0
  148.7970  138.8761  154.6054 C   0  0  0  0  0  0  0  0  0  0  0  0
  149.9967  137.8959  154.6830 C   0  0  0  0  0  0  0  0  0  0  0  0
  151.3402  138.6290  154.5346 C   0  0  0  0  0  0  0  0  0  0  0  0
  151.4921  139.7368  155.5869 C   0  0  0  0  0  0  0  0  0  0  0  0
  150.3106  140.7157  155.5290 C   0  0  0  0  0  0  0  0  0  0  0  0
  148.9697  139.9792  155.6805 C   0  0  0  0  0  0  0  0  0  0  0  0
  146.0374  133.1310  151.8919 N   0  0  0  0  0  0  0  0  0  0  0  0
  144.0866  130.7690  150.6172 H   0  0  0  0  0  0  0  0  0  0  0  0
  144.9754  130.6521  152.1495 H   0  0  0  0  0  0  0  0  0  0  0  0
  145.8615  130.7366  150.6105 H   0  0  0  0  0  0  0  0  0  0  0  0
  143.2263  133.1411  150.2096 H   0  0  0  0  0  0  0  0  0  0  0  0
  144.0991  135.6437  150.8622 H   0  0  0  0  0  0  0  0  0  0  0  0
  147.4285  135.6487  151.8452 H   0  0  0  0  0  0  0  0  0  0  0  0
  148.0587  137.0895  152.9556 H   0  0  0  0  0  0  0  0  0  0  0  0
  147.2119  138.0488  156.8217 H   0  0  0  0  0  0  0  0  0  0  0  0
  147.9332  136.6211  156.0901 H   0  0  0  0  0  0  0  0  0  0  0  0
  146.2109  136.9028  155.9618 H   0  0  0  0  0  0  0  0  0  0  0  0
  145.2394  138.6580  154.6325 H   0  0  0  0  0  0  0  0  0  0  0  0
  146.2403  139.9138  155.3051 H   0  0  0  0  0  0  0  0  0  0  0  0
  145.2664  140.0332  153.0417 H   0  0  0  0  0  0  0  0  0  0  0  0
  148.8926  139.3786  153.6428 H   0  0  0  0  0  0  0  0  0  0  0  0
  149.9911  137.3641  155.6342 H   0  0  0  0  0  0  0  0  0  0  0  0
  149.9302  137.1362  153.9047 H   0  0  0  0  0  0  0  0  0  0  0  0
  152.1625  137.9187  154.6235 H   0  0  0  0  0  0  0  0  0  0  0  0
  151.4117  139.0608  153.5357 H   0  0  0  0  0  0  0  0  0  0  0  0
  151.5507  139.2922  156.5812 H   0  0  0  0  0  0  0  0  0  0  0  0
  152.4286  140.2730  155.4308 H   0  0  0  0  0  0  0  0  0  0  0  0
  150.4125  141.4662  156.3134 H   0  0  0  0  0  0  0  0  0  0  0  0
  150.3271  141.2551  154.5812 H   0  0  0  0  0  0  0  0  0  0  0  0
  148.1617  140.7078  155.6208 H   0  0  0  0  0  0  0  0  0  0  0  0
  148.9214  139.5470  156.6796 H   0  0  0  0  0  0  0  0  0  0  0  0
  1  2  1  0  0  0  0
  1 21  1  0  0  0  0
  1 22  1  0  0  0  0
  1 23  1  0  0  0  0
  2 20  1  0  0  0  0
  2  3  1  0  0  0  0
  3  4  2  0  0  0  0
  3 24  1  0  0  0  0
  4  5  1  0  0  0  0
  4 25  1  0  0  0  0
  5  6  1  0  0  0  0
  5 20  2  0  0  0  0
  6  7  1  0  0  0  0
  6 26  1  0  0  0  0
  7  8  2  0  0  0  0
  7  9  1  0  0  0  0
  9 10  1  0  0  0  0
  9 27  1  0  0  0  0
 10 11  1  0  0  0  0
 10 12  1  0  0  0  0
 10 14  1  0  0  0  0
 11 28  1  0  0  0  0
 11 29  1  0  0  0  0
 11 30  1  0  0  0  0
 12 13  1  0  0  0  0
 12 31  1  0  0  0  0
 12 32  1  0  0  0  0
 13 33  1  0  0  0  0
 14 19  1  0  0  0  0
 14 15  1  0  0  0  0
 14 34  1  0  0  0  0
 15 16  1  0  0  0  0
 15 35  1  0  0  0  0
 15 36  1  0  0  0  0
 16 17  1  0  0  0  0
 16 37  1  0  0  0  0
 16 38  1  0  0  0  0
 17 18  1  0  0  0  0
 17 39  1  0  0  0  0
 17 40  1  0  0  0  0
 18 19  1  0  0  0  0
 18 41  1  0  0  0  0
 18 42  1  0  0  0  0
 19 43  1  0  0  0  0
 19 44  1  0  0  0  0
M  END
> <s_m_source_file>
AV-unprocessed.smi

> <i_m_source_file_index>
614

> <i_lp_mmshare_version>
43012

> <i_f3d_flags>
0

> <s_epik_input>
W0NIM11uMVtjSF1bY0hdYyhuMSlbTkhdQyg9TylbTkhdW0NAQF0oW0NIM10pKFtDSDJdW09IXSlbQ0hdMltDSDJdW0NIMl1bQ0gyXVtDSDJdW0NIMl0y

> <s_epik_cmdline>
J2VwaWtfcHl0aG9uJywgJy1waCcsICc3LjAnLCAnLXRuJywgJzgnLCAnLW1hJywgJzIwMCcsICctbWV0YWxfYmluZGluZycsICctaW1hZScsICc8aW5maWxlLm1hZT4nLCAnLW9tYWUnLCAnPG91dGZpbGUubWFlPic=

> <r_lp_tautomer_probability>
1

> <r_epik_Ionization_Penalty>
3.66621e-05

> <r_epik_Ionization_Penalty_Charging>
0

> <r_epik_Ionization_Penalty_Neutral>
3.66621e-05

> <r_epik_State_Penalty>
-0

> <r_epik_Charging_Adjusted_Penalty>
0

> <i_epik_Tot_Q>
0

> <i_epik_Tot_abs_Q>
0

> <r_epik_Metal_State_Penalty>
-0

> <b_epik_Metal_Only>
0

> <s_lp_Force_Field>
OPLS_2005

> <r_lp_Energy>
19.716

> <b_lp_Chiralities_Consistent>
1

> <s_lp_Variant>
AV-unprocessed.smi:614-2

> <Gold.Version>
5.8.1

> <Gold.Id.Protein>
6NUR|6NUR_protein|mol2

> <Gold.PLP.Fitness>
40.2076

> <Gold.PLP.PLP>
-29.5704

> <Gold.PLP.part.hbond>
-2.5716

> <Gold.PLP.part.metal>
0.0000

> <Gold.PLP.part.buried>
-4.1594

> <Gold.PLP.part.nonpolar>
-23.9883

> <Gold.PLP.part.repulsive>
0.2410

> <Gold.PLP.ligand.clash>
0.0000

> <Gold.PLP.ligand.torsion>
0.7378

> <Gold.PLP.Chemscore.Hbond>
3.0000

> <Gold.PLP.Chemscore.CHOScore>
1.0000

> <Gold.PLP.Chemscore.Metal>
0.0000

> <Gold.Chemscore.Hbonds>
donor molecule, donor type, donor heavy atom, donor atom, acceptor molecule, acceptor atom, score
      L1  H     6    26       P1  7948  1.00
      L1  H     9    27       P1  7948  1.00
      L1  H    13    33       P1 10175  1.00
      L1  C     3    24       P1 10186  0.71

> <Gold.PLP.Chemscore.Internal.Correction>
0.1128

> <Gold.Rescore>
     Score         DG    S(hbond)    S(metal)    S(lipo)     H(rot)  DE(clash)    DE(int)     intcor
     14.99     -17.20       2.93        0.00      61.80       2.07       0.06       2.14       ----

> <Gold.Chemscore.Fitness>
14.9937

> <Gold.Chemscore.DG>
-17.1967

> <Gold.Chemscore.ZeroCoef>
-5.4800

> <Gold.Chemscore.Hbond>
2.9303

> <Gold.Chemscore.Metal>
0.0000

> <Gold.Chemscore.Lipo>
61.8043

> <Gold.Chemscore.Internal_Hbond>
0.0000

> <Gold.Chemscore.DEClash>
0.0588

> <Gold.Chemscore.DEInternal>
2.1441

> <Gold.Chemscore.Rot>
2.0710

> <Gold.Chemscore.Internal.Correction>
   9.000000E+99

> <Gold.Chemscore.Hbonds>
donor molecule, donor type, donor heavy atom, donor atom, acceptor molecule, acceptor atom, score
      L1  H     6    26       P1  7948  0.95
      L1  H     9    27       P1  7948  0.95
      L1  H    13    33       P1 10175  1.00

> <Gold.Chemscore.Hbond.Weighted>
-9.7873

> <Gold.Chemscore.Metal.Weighted>
-0.0000

> <Gold.Chemscore.Lipo.Weighted>
-7.2311

> <Gold.Chemscore.Internal_Hbond.Weighted>
0.0000

> <Gold.Chemscore.DEClash.Weighted>
0.0588

> <Gold.Chemscore.DEInternal.Weighted>
2.1441

> <Gold.Chemscore.Rot.Weighted>
5.3017

> <Gold.Chemscore.Internal.Correction.Weighted>
   9.000000E+99

> <Gold.Protein.RotatedTorsions>
[ 6907 6896 6895 6894 ] final   80.42 input  -60.11 | X-H torsion
[ 7974 7965 7964 7962 ] final -170.78 input  175.53 | X-H torsion
[ 8008 7997 7996 7995 ] final   81.29 input   59.86 | X-H torsion
[ 10167 10162 10161 10158 ] final -162.06 input  -65.29 | X-H torsion
[ 10718 10713 10712 10709 ] final   38.56 input   66.30 | X-H torsion
[ 10763 10752 10751 10750 ] final  -81.41 input  -60.55 | X-H torsion
[ 11005 11000 10999 10996 ] final   31.58 input  -57.11 | X-H torsion

> <Gold.Protein.ActiveResidues>
 VAL166  LYS551  ARG553  GLY616  TRP617  ASP618  TYR619  PRO620  LYS621  CYS622 
 ASP623  PHE694  ASN695  SER759  ASP760  ASP761  ALA762  ILE779  LEU786  VAL792 
 PHE793  MET794  SER795  GLU796  ALA797  LYS798  CYS799  TRP800  GLU811  SER814 

> <Gold.Protein.RotatedAtoms>
  152.5234  134.3361  159.9199 H   0  0  0  0  0  0  0  0  0  0  0  0  # atno 6907 bound_to 6896
  151.3310  133.3994  159.2670 H   0  0  0  0  0  0  0  0  0  0  0  0  # atno 6908 bound_to 6896
  150.9881  134.9239  159.7941 H   0  0  0  0  0  0  0  0  0  0  0  0  # atno 6909 bound_to 6896
  144.7165  140.2020  143.6337 H   0  0  0  0  0  0  0  0  0  0  0  0  # atno 7974 bound_to 7965
  155.8952  140.3436  155.5985 H   0  0  0  0  0  0  0  0  0  0  0  0  # atno 8008 bound_to 7997
  155.7565  140.0827  157.2195 H   0  0  0  0  0  0  0  0  0  0  0  0  # atno 8009 bound_to 7997
  154.4037  140.1544  156.2770 H   0  0  0  0  0  0  0  0  0  0  0  0  # atno 8010 bound_to 7997
  139.6419  144.0243  152.2098 H   0  0  0  0  0  0  0  0  0  0  0  0  # atno 10167 bound_to 10162
  157.3603  130.7646  149.7043 H   0  0  0  0  0  0  0  0  0  0  0  0  # atno 10718 bound_to 10713
  154.5632  135.5627  153.7026 H   0  0  0  0  0  0  0  0  0  0  0  0  # atno 10763 bound_to 10752
  153.0024  135.6279  154.2216 H   0  0  0  0  0  0  0  0  0  0  0  0  # atno 10764 bound_to 10752
  154.2154  135.2872  155.2923 H   0  0  0  0  0  0  0  0  0  0  0  0  # atno 10765 bound_to 10752
  140.2824  134.2957  155.7797 H   0  0  0  0  0  0  0  0  0  0  0  0  # atno 11005 bound_to 11000
  145.8671  139.2252  143.1683 LP  0  0  0  0  0  0  0  0  0  0  0  0  # atno 17320 bound_to 7965
  146.0119  140.8427  142.9966 LP  0  0  0  0  0  0  0  0  0  0  0  0  # atno 17321 bound_to 7965
  139.9935  144.6345  150.7793 LP  0  0  0  0  0  0  0  0  0  0  0  0  # atno 17342 bound_to 10162
  140.7495  143.2940  151.3254 LP  0  0  0  0  0  0  0  0  0  0  0  0  # atno 17343 bound_to 10162
  155.9736  130.4115  150.3987 LP  0  0  0  0  0  0  0  0  0  0  0  0  # atno 17370 bound_to 10713
  157.2063  131.0450  151.2623 LP  0  0  0  0  0  0  0  0  0  0  0  0  # atno 17371 bound_to 10713
  141.2160  133.7534  156.9501 LP  0  0  0  0  0  0  0  0  0  0  0  0  # atno 17394 bound_to 11000
  140.1271  134.9380  157.2285 LP  0  0  0  0  0  0  0  0  0  0  0  0  # atno 17395 bound_to 11000

$$$$
