AV-unprocessed.smi:1751|AV-procd|sdf|7056|dock1
  -GOLD-   22720 8273D 1   1.00000     0.00000
 Structure written by MMmdl.
 35 36  0  0  0  0  0  0  0  0  1 V2000
  146.5039  138.4489  152.0524 C   0  0  0  0  0  0  0  0  0  0  0  0
  147.5653  138.1929  152.9657 O   0  0  0  0  0  0  0  0  0  0  0  0
  148.1296  139.2625  153.6304 C   0  0  0  0  0  0  0  0  0  0  0  0
  149.3053  139.0481  154.3766 C   0  0  0  0  0  0  0  0  0  0  0  0
  149.8828  140.1354  155.0587 C   0  0  0  0  0  0  0  0  0  0  0  0
  149.2657  141.4001  154.9846 C   0  0  0  0  0  0  0  0  0  0  0  0
  149.8777  142.4831  155.6710 N   0  0  0  0  0  0  0  0  0  0  0  0
  150.8392  142.4383  156.6089 C   0  0  0  0  0  0  0  0  0  0  0  0
  151.3731  141.4138  157.0337 O   0  0  0  0  0  0  0  0  0  0  0  0
  151.1739  143.6695  157.0184 N   0  0  0  0  0  0  0  0  0  0  0  0
  152.2175  143.9723  157.9912 C   0  0  0  0  0  0  0  0  0  0  0  0
  151.8337  143.4875  159.3991 C   0  0  2  0  0  0  0  0  0  0  0  0
  152.1847  144.4774  160.5081 C   0  0  0  0  0  0  0  0  0  0  0  0
  152.2915  143.5629  161.7065 C   0  0  0  0  0  0  0  0  0  0  0  0
  152.9545  142.3307  161.0981 C   0  0  0  0  0  0  0  0  0  0  0  0
  152.5452  142.2974  159.7328 O   0  0  0  0  0  0  0  0  0  0  0  0
  148.0945  141.5171  154.1972 C   0  0  0  0  0  0  0  0  0  0  0  0
  147.5370  140.4787  153.5387 N   0  0  0  0  0  0  0  0  0  0  0  0
  146.1696  137.5083  151.6150 H   0  0  0  0  0  0  0  0  0  0  0  0
  146.8273  139.0963  151.2360 H   0  0  0  0  0  0  0  0  0  0  0  0
  145.6476  138.9034  152.5529 H   0  0  0  0  0  0  0  0  0  0  0  0
  149.7551  138.0675  154.4250 H   0  0  0  0  0  0  0  0  0  0  0  0
  150.7854  139.9952  155.6356 H   0  0  0  0  0  0  0  0  0  0  0  0
  149.5992  143.4038  155.3643 H   0  0  0  0  0  0  0  0  0  0  0  0
  150.6903  144.4566  156.6114 H   0  0  0  0  0  0  0  0  0  0  0  0
  153.1408  143.4907  157.6678 H   0  0  0  0  0  0  0  0  0  0  0  0
  152.4150  145.0456  158.0013 H   0  0  0  0  0  0  0  0  0  0  0  0
  150.7664  143.2665  159.4518 H   0  0  0  0  0  0  0  0  0  0  0  0
  153.1480  144.9513  160.3140 H   0  0  0  0  0  0  0  0  0  0  0  0
  151.4357  145.2601  160.6320 H   0  0  0  0  0  0  0  0  0  0  0  0
  152.8633  143.9938  162.5286 H   0  0  0  0  0  0  0  0  0  0  0  0
  151.2960  143.3119  162.0751 H   0  0  0  0  0  0  0  0  0  0  0  0
  154.0404  142.4276  161.1294 H   0  0  0  0  0  0  0  0  0  0  0  0
  152.6810  141.4130  161.6191 H   0  0  0  0  0  0  0  0  0  0  0  0
  147.5887  142.4603  154.0620 H   0  0  0  0  0  0  0  0  0  0  0  0
  1  2  1  0  0  0  0
  1 19  1  0  0  0  0
  1 20  1  0  0  0  0
  1 21  1  0  0  0  0
  2  3  1  0  0  0  0
  3 18  1  0  0  0  0
  3  4  2  0  0  0  0
  4  5  1  0  0  0  0
  4 22  1  0  0  0  0
  5  6  2  0  0  0  0
  5 23  1  0  0  0  0
  6  7  1  0  0  0  0
  6 17  1  0  0  0  0
  7  8  1  0  0  0  0
  7 24  1  0  0  0  0
  8  9  2  0  0  0  0
  8 10  1  0  0  0  0
 10 11  1  0  0  0  0
 10 25  1  0  0  0  0
 11 12  1  0  0  0  0
 11 26  1  0  0  0  0
 11 27  1  0  0  0  0
 12 16  1  0  0  0  0
 12 13  1  0  0  0  0
 12 28  1  0  0  0  0
 13 14  1  0  0  0  0
 13 29  1  0  0  0  0
 13 30  1  0  0  0  0
 14 15  1  0  0  0  0
 14 31  1  0  0  0  0
 14 32  1  0  0  0  0
 15 16  1  0  0  0  0
 15 33  1  0  0  0  0
 15 34  1  0  0  0  0
 17 18  2  0  0  0  0
 17 35  1  0  0  0  0
M  END
> <s_m_source_file>
AV-unprocessed.smi

> <i_m_source_file_index>
1751

> <i_lp_mmshare_version>
43012

> <i_f3d_flags>
0

> <s_epik_input>
W0NIM11PYzFbY0hdW2NIXWMoW2NIXW4xKVtOSF1DKD1PKVtOSF1bQ0gyXVtDQEBIXTJbQ0gyXVtDSDJdW0NIMl1PMg==

> <s_epik_cmdline>
J2VwaWtfcHl0aG9uJywgJy1waCcsICc3LjAnLCAnLXRuJywgJzgnLCAnLW1hJywgJzIwMCcsICctbWV0YWxfYmluZGluZycsICctaW1hZScsICc8aW5maWxlLm1hZT4nLCAnLW9tYWUnLCAnPG91dGZpbGUubWFlPic=

> <r_lp_tautomer_probability>
1

> <r_epik_Ionization_Penalty>
9.01694e-05

> <r_epik_Ionization_Penalty_Charging>
0

> <r_epik_Ionization_Penalty_Neutral>
9.01694e-05

> <r_epik_State_Penalty>
-0

> <r_epik_Charging_Adjusted_Penalty>
0

> <i_epik_Tot_Q>
0

> <i_epik_Tot_abs_Q>
0

> <r_epik_Metal_State_Penalty>
-0

> <b_epik_Metal_Only>
0

> <s_lp_Force_Field>
OPLS_2005

> <r_lp_Energy>
19.4373

> <b_lp_Chiralities_Consistent>
1

> <s_lp_Variant>
AV-unprocessed.smi:1751-1

> <Gold.Version>
5.8.1

> <Gold.Id.Protein>
6NUR|6NUR_protein|mol2

> <Gold.PLP.Fitness>
41.9412

> <Gold.PLP.PLP>
-38.3020

> <Gold.PLP.part.hbond>
-1.7217

> <Gold.PLP.part.metal>
0.0000

> <Gold.PLP.part.buried>
-4.8938

> <Gold.PLP.part.nonpolar>
-36.2836

> <Gold.PLP.part.repulsive>
3.6810

> <Gold.PLP.ligand.clash>
0.0000

> <Gold.PLP.ligand.torsion>
0.7653

> <Gold.PLP.Chemscore.Hbond>
1.7193

> <Gold.PLP.Chemscore.CHOScore>
0.0000

> <Gold.PLP.Chemscore.Metal>
0.0000

> <Gold.Chemscore.Hbonds>
donor molecule, donor type, donor heavy atom, donor atom, acceptor molecule, acceptor atom, score
      L1  H     7    24       P1  8028  0.98
      L1  H    10    25       P1  8028  0.74

> <Gold.PLP.Chemscore.Internal.Correction>
0.0120

> <Gold.Rescore>
     Score         DG    S(hbond)    S(metal)    S(lipo)     H(rot)  DE(clash)    DE(int)     intcor
     15.48     -17.92       1.94        0.00      83.71       1.50       0.28       2.16       ----

> <Gold.Chemscore.Fitness>
15.4804

> <Gold.Chemscore.DG>
-17.9153

> <Gold.Chemscore.ZeroCoef>
-5.4800

> <Gold.Chemscore.Hbond>
1.9383

> <Gold.Chemscore.Metal>
0.0000

> <Gold.Chemscore.Lipo>
83.7101

> <Gold.Chemscore.Internal_Hbond>
0.0000

> <Gold.Chemscore.DEClash>
0.2757

> <Gold.Chemscore.DEInternal>
2.1592

> <Gold.Chemscore.Rot>
1.4971

> <Gold.Chemscore.Internal.Correction>
   9.000000E+99

> <Gold.Chemscore.Hbonds>
donor molecule, donor type, donor heavy atom, donor atom, acceptor molecule, acceptor atom, score
      L1  H     7    24       P1  8028  0.86
      L1  H    10    25       P1  8028  0.68

> <Gold.Chemscore.Hbond.Weighted>
-6.4738

> <Gold.Chemscore.Metal.Weighted>
-0.0000

> <Gold.Chemscore.Lipo.Weighted>
-9.7941

> <Gold.Chemscore.Internal_Hbond.Weighted>
0.0000

> <Gold.Chemscore.DEClash.Weighted>
0.2757

> <Gold.Chemscore.DEInternal.Weighted>
2.1592

> <Gold.Chemscore.Rot.Weighted>
3.8326

> <Gold.Chemscore.Internal.Correction.Weighted>
   9.000000E+99

> <Gold.Protein.RotatedTorsions>
[ 6907 6896 6895 6894 ] final  168.48 input  -60.11 | X-H torsion
[ 7974 7965 7964 7962 ] final    3.92 input  175.53 | X-H torsion
[ 8008 7997 7996 7995 ] final -128.30 input   59.86 | X-H torsion
[ 10167 10162 10161 10158 ] final -164.41 input  -65.29 | X-H torsion
[ 10718 10713 10712 10709 ] final    9.77 input   66.30 | X-H torsion
[ 10763 10752 10751 10750 ] final   59.24 input  -60.55 | X-H torsion
[ 11005 11000 10999 10996 ] final   74.94 input  -57.11 | X-H torsion

> <Gold.Protein.ActiveResidues>
 VAL166  LYS551  ARG553  GLY616  TRP617  ASP618  TYR619  PRO620  LYS621  CYS622 
 ASP623  PHE694  ASN695  SER759  ASP760  ASP761  ALA762  ILE779  LEU786  VAL792 
 PHE793  MET794  SER795  GLU796  ALA797  LYS798  CYS799  TRP800  GLU811  SER814 

> <Gold.Protein.RotatedAtoms>
  151.8470  133.3433  159.3660 H   0  0  0  0  0  0  0  0  0  0  0  0  # atno 6907 bound_to 6896
  150.7217  134.5336  159.5721 H   0  0  0  0  0  0  0  0  0  0  0  0  # atno 6908 bound_to 6896
  152.2821  134.7817  160.0445 H   0  0  0  0  0  0  0  0  0  0  0  0  # atno 6909 bound_to 6896
  146.2445  140.0612  142.8368 H   0  0  0  0  0  0  0  0  0  0  0  0  # atno 7974 bound_to 7965
  155.2604  140.0436  157.2996 H   0  0  0  0  0  0  0  0  0  0  0  0  # atno 8008 bound_to 7997
  154.5714  140.2375  155.8155 H   0  0  0  0  0  0  0  0  0  0  0  0  # atno 8009 bound_to 7997
  156.2125  140.2994  155.9773 H   0  0  0  0  0  0  0  0  0  0  0  0  # atno 8010 bound_to 7997
  139.6252  144.0545  152.1969 H   0  0  0  0  0  0  0  0  0  0  0  0  # atno 10167 bound_to 10162
  156.9712  130.5970  149.5669 H   0  0  0  0  0  0  0  0  0  0  0  0  # atno 10718 bound_to 10713
  152.9889  135.5579  154.5681 H   0  0  0  0  0  0  0  0  0  0  0  0  # atno 10763 bound_to 10752
  154.5086  135.2801  155.1363 H   0  0  0  0  0  0  0  0  0  0  0  0  # atno 10764 bound_to 10752
  154.2764  135.6353  153.5383 H   0  0  0  0  0  0  0  0  0  0  0  0  # atno 10765 bound_to 10752
  139.9367  134.7475  156.1209 H   0  0  0  0  0  0  0  0  0  0  0  0  # atno 11005 bound_to 11000
  145.0898  140.9277  143.4776 LP  0  0  0  0  0  0  0  0  0  0  0  0  # atno 17320 bound_to 7965
  145.0782  139.2979  143.5797 LP  0  0  0  0  0  0  0  0  0  0  0  0  # atno 17321 bound_to 7965
  140.0197  144.6162  150.7577 LP  0  0  0  0  0  0  0  0  0  0  0  0  # atno 17342 bound_to 10162
  140.7407  143.2808  151.3605 LP  0  0  0  0  0  0  0  0  0  0  0  0  # atno 17343 bound_to 10162
  156.0282  130.5375  150.8464 LP  0  0  0  0  0  0  0  0  0  0  0  0  # atno 17370 bound_to 10713
  157.5591  131.0945  150.9585 LP  0  0  0  0  0  0  0  0  0  0  0  0  # atno 17371 bound_to 10713
  141.0984  133.6686  156.2698 LP  0  0  0  0  0  0  0  0  0  0  0  0  # atno 17394 bound_to 11000
  140.6057  134.5509  157.5525 LP  0  0  0  0  0  0  0  0  0  0  0  0  # atno 17395 bound_to 11000

$$$$
