AV-unprocessed.smi:541|AV-procd|sdf|2872|dock2
  -GOLD-   2262023363D 1   1.00000     0.00000
 Structure written by MMmdl.
 42 44  0  0  0  0  0  0  0  0  2 V2000
  148.7189  141.1595  153.9300 C   0  0  0  0  0  0  0  0  0  0  0  0
  149.7622  141.4540  155.0100 C   0  0  0  0  0  0  0  0  0  0  0  0
  150.7519  140.4399  154.9817 O   0  0  0  0  0  0  0  0  0  0  0  0
  151.6504  140.5222  156.0749 C   0  0  0  0  0  0  0  0  0  0  0  0
  150.8884  140.1973  157.3676 C   0  0  0  0  0  0  0  0  0  0  0  0
  151.7602  140.2359  158.5390 N   0  0  0  0  0  0  0  0  0  0  0  0
  152.3198  141.3081  159.1786 C   0  0  0  0  0  0  0  0  0  0  0  0
  152.1226  142.6532  158.8222 N   0  0  0  0  0  0  0  0  0  0  0  0
  151.3837  143.2653  157.7167 C   0  0  0  0  0  0  0  0  0  0  0  0
  151.1456  144.7331  158.0551 C   0  0  0  0  0  0  0  0  0  0  0  0
  152.3869  145.0686  158.8504 C   0  0  0  0  0  0  0  0  0  0  0  0
  152.6222  143.7733  159.6213 C   0  0  0  0  0  0  0  0  0  0  0  0
  153.0997  140.9729  160.2106 N   0  0  0  0  0  0  0  0  0  0  0  0
  153.0180  139.5927  160.2505 C   0  0  0  0  0  0  0  0  0  0  0  0
  152.2123  139.1237  159.2629 C   0  0  0  0  0  0  0  0  0  0  0  0
  151.9194  137.6846  159.0620 C   0  0  0  0  0  0  0  0  0  0  0  0
  151.1654  137.3055  158.1682 O   0  0  0  0  0  0  0  0  0  0  0  0
  152.5700  136.8904  159.9703 N   0  5  0  0  0  0  0  0  0  0  0  0
  153.3992  137.3265  160.9806 C   0  0  0  0  0  0  0  0  0  0  0  0
  153.9482  136.5423  161.7557 O   0  0  0  0  0  0  0  0  0  0  0  0
  153.6289  138.6673  161.1398 N   0  0  0  0  0  0  0  0  0  0  0  0
  154.5005  139.1618  162.2095 C   0  0  0  0  0  0  0  0  0  0  0  0
  147.9410  141.9231  153.9211 H   0  0  0  0  0  0  0  0  0  0  0  0
  148.2394  140.1957  154.1025 H   0  0  0  0  0  0  0  0  0  0  0  0
  149.1760  141.1349  152.9404 H   0  0  0  0  0  0  0  0  0  0  0  0
  150.2177  142.4291  154.8309 H   0  0  0  0  0  0  0  0  0  0  0  0
  149.2836  141.4865  155.9899 H   0  0  0  0  0  0  0  0  0  0  0  0
  152.4777  139.8265  155.9311 H   0  0  0  0  0  0  0  0  0  0  0  0
  152.0802  141.5232  156.1309 H   0  0  0  0  0  0  0  0  0  0  0  0
  150.0691  140.9007  157.5082 H   0  0  0  0  0  0  0  0  0  0  0  0
  150.3895  139.2360  157.3026 H   0  0  0  0  0  0  0  0  0  0  0  0
  151.9892  143.1973  156.8125 H   0  0  0  0  0  0  0  0  0  0  0  0
  150.4352  142.7645  157.5337 H   0  0  0  0  0  0  0  0  0  0  0  0
  151.0173  145.3593  157.1719 H   0  0  0  0  0  0  0  0  0  0  0  0
  150.2584  144.8362  158.6818 H   0  0  0  0  0  0  0  0  0  0  0  0
  153.2226  145.2618  158.1763 H   0  0  0  0  0  0  0  0  0  0  0  0
  152.2619  145.9355  159.4998 H   0  0  0  0  0  0  0  0  0  0  0  0
  152.0739  143.7924  160.5641 H   0  0  0  0  0  0  0  0  0  0  0  0
  153.6792  143.6452  159.8581 H   0  0  0  0  0  0  0  0  0  0  0  0
  154.1267  138.8455  163.1844 H   0  0  0  0  0  0  0  0  0  0  0  0
  154.5711  140.2492  162.2265 H   0  0  0  0  0  0  0  0  0  0  0  0
  155.5117  138.7713  162.0884 H   0  0  0  0  0  0  0  0  0  0  0  0
  1  2  1  0  0  0  0
  1 23  1  0  0  0  0
  1 24  1  0  0  0  0
  1 25  1  0  0  0  0
  2  3  1  0  0  0  0
  2 26  1  0  0  0  0
  2 27  1  0  0  0  0
  3  4  1  0  0  0  0
  4  5  1  0  0  0  0
  4 28  1  0  0  0  0
  4 29  1  0  0  0  0
  5  6  1  0  0  0  0
  5 30  1  0  0  0  0
  5 31  1  0  0  0  0
  6 15  1  0  0  0  0
  6  7  1  0  0  0  0
  7  8  1  0  0  0  0
  7 13  2  0  0  0  0
  8 12  1  0  0  0  0
  8  9  1  0  0  0  0
  9 10  1  0  0  0  0
  9 32  1  0  0  0  0
  9 33  1  0  0  0  0
 10 11  1  0  0  0  0
 10 34  1  0  0  0  0
 10 35  1  0  0  0  0
 11 12  1  0  0  0  0
 11 36  1  0  0  0  0
 11 37  1  0  0  0  0
 12 38  1  0  0  0  0
 12 39  1  0  0  0  0
 13 14  1  0  0  0  0
 14 21  1  0  0  0  0
 14 15  2  0  0  0  0
 15 16  1  0  0  0  0
 16 17  2  0  0  0  0
 16 18  1  0  0  0  0
 18 19  1  0  0  0  0
 19 20  2  0  0  0  0
 19 21  1  0  0  0  0
 21 22  1  0  0  0  0
 22 40  1  0  0  0  0
 22 41  1  0  0  0  0
 22 42  1  0  0  0  0
M  CHG  1  18  -1
M  END
> <s_m_source_file>
AV-unprocessed.smi

> <i_m_source_file_index>
541

> <i_lp_mmshare_version>
43012

> <i_f3d_flags>
0

> <s_epik_input>
W0NIM11uMWMoPU8pW25IXWMoPU8pYyhjMTIpbihbQ0gyXVtDSDJdT1tDSDJdW0NIM10pYyhuMilOM1tDSDJdW0NIMl1bQ0gyXVtDSDJdMw==

> <s_epik_cmdline>
J2VwaWtfcHl0aG9uJywgJy1waCcsICc3LjAnLCAnLXRuJywgJzgnLCAnLW1hJywgJzIwMCcsICctbWV0YWxfYmluZGluZycsICctaW1hZScsICc8aW5maWxlLm1hZT4nLCAnLW9tYWUnLCAnPG91dGZpbGUubWFlPic=

> <r_lp_tautomer_probability>
1

> <r_epik_Ionization_Penalty>
6.1404

> <r_epik_Ionization_Penalty_Charging>
0.0734613

> <r_epik_Ionization_Penalty_Neutral>
6.06694

> <r_epik_State_Penalty>
6.06401

> <r_epik_Charging_Adjusted_Penalty>
6.13747

> <i_epik_Tot_Q>
-1

> <i_epik_Tot_abs_Q>
1

> <r_epik_Metal_State_Penalty>
2.01234

> <b_epik_Metal_Only>
1

> <s_lp_Force_Field>
OPLS_2005

> <r_lp_Energy>
49.972

> <b_lp_Chiralities_Consistent>
1

> <s_lp_Variant>
AV-unprocessed.smi:541-2

> <Gold.Version>
5.8.1

> <Gold.Id.Protein>
6NUR|6NUR_protein|mol2

> <Gold.PLP.Fitness>
53.6765

> <Gold.PLP.PLP>
-45.0206

> <Gold.PLP.part.hbond>
-2.0000

> <Gold.PLP.part.metal>
0.0000

> <Gold.PLP.part.buried>
-6.4427

> <Gold.PLP.part.nonpolar>
-36.0408

> <Gold.PLP.part.repulsive>
0.0620

> <Gold.PLP.ligand.clash>
0.0000

> <Gold.PLP.ligand.torsion>
0.1883

> <Gold.PLP.Chemscore.Hbond>
3.0000

> <Gold.PLP.Chemscore.CHOScore>
0.0000

> <Gold.PLP.Chemscore.Metal>
0.0000

> <Gold.Chemscore.Hbonds>
donor molecule, donor type, donor heavy atom, donor atom, acceptor molecule, acceptor atom, score
      P1  H  6896  6909       L1    18  2.00
      P1  H  7989  7998       L1     3  1.00

> <Gold.PLP.Chemscore.Internal.Correction>
0.0325

> <Gold.Rescore>
     Score         DG    S(hbond)    S(metal)    S(lipo)     H(rot)  DE(clash)    DE(int)     intcor
     16.54     -16.81       1.60        0.00      86.85       1.64       0.18       0.09       ----

> <Gold.Chemscore.Fitness>
16.5360

> <Gold.Chemscore.DG>
-16.8055

> <Gold.Chemscore.ZeroCoef>
-5.4800

> <Gold.Chemscore.Hbond>
1.6042

> <Gold.Chemscore.Metal>
0.0000

> <Gold.Chemscore.Lipo>
86.8459

> <Gold.Chemscore.Internal_Hbond>
0.0000

> <Gold.Chemscore.DEClash>
0.1790

> <Gold.Chemscore.DEInternal>
0.0905

> <Gold.Chemscore.Rot>
1.6380

> <Gold.Chemscore.Internal.Correction>
   9.000000E+99

> <Gold.Chemscore.Hbonds>
donor molecule, donor type, donor heavy atom, donor atom, acceptor molecule, acceptor atom, score
      P1  H  6896  6909       L1    18  0.87
      P1  H  7989  7998       L1     3  0.16

> <Gold.Chemscore.Hbond.Weighted>
-5.3579

> <Gold.Chemscore.Metal.Weighted>
-0.0000

> <Gold.Chemscore.Lipo.Weighted>
-10.1610

> <Gold.Chemscore.Internal_Hbond.Weighted>
0.0000

> <Gold.Chemscore.DEClash.Weighted>
0.1790

> <Gold.Chemscore.DEInternal.Weighted>
0.0905

> <Gold.Chemscore.Rot.Weighted>
4.1934

> <Gold.Chemscore.Internal.Correction.Weighted>
   9.000000E+99

> <Gold.Protein.RotatedTorsions>
[ 6907 6896 6895 6894 ] final  148.62 input  -60.11 | X-H torsion
[ 7974 7965 7964 7962 ] final   10.41 input  175.53 | X-H torsion
[ 8008 7997 7996 7995 ] final -149.70 input   59.86 | X-H torsion
[ 10167 10162 10161 10158 ] final  162.47 input  -65.29 | X-H torsion
[ 10718 10713 10712 10709 ] final  -48.57 input   66.30 | X-H torsion
[ 10763 10752 10751 10750 ] final  -41.53 input  -60.55 | X-H torsion
[ 11005 11000 10999 10996 ] final  -51.50 input  -57.11 | X-H torsion

> <Gold.Protein.ActiveResidues>
 VAL166  LYS551  ARG553  GLY616  TRP617  ASP618  TYR619  PRO620  LYS621  CYS622 
 ASP623  PHE694  ASN695  SER759  ASP760  ASP761  ALA762  ILE779  LEU786  VAL792 
 PHE793  MET794  SER795  GLU796  ALA797  LYS798  CYS799  TRP800  GLU811  SER814 

> <Gold.Protein.RotatedAtoms>
  152.1390  133.4452  159.4757 H   0  0  0  0  0  0  0  0  0  0  0  0  # atno 6907 bound_to 6896
  150.6884  134.2329  159.4450 H   0  0  0  0  0  0  0  0  0  0  0  0  # atno 6908 bound_to 6896
  152.0218  134.9818  160.0621 H   0  0  0  0  0  0  0  0  0  0  0  0  # atno 6909 bound_to 6896
  146.2389  139.9638  142.8455 H   0  0  0  0  0  0  0  0  0  0  0  0  # atno 7974 bound_to 7965
  155.6118  140.0672  157.2704 H   0  0  0  0  0  0  0  0  0  0  0  0  # atno 8008 bound_to 7997
  154.4251  140.1800  156.1328 H   0  0  0  0  0  0  0  0  0  0  0  0  # atno 8009 bound_to 7997
  156.0078  140.3329  155.6914 H   0  0  0  0  0  0  0  0  0  0  0  0  # atno 8010 bound_to 7997
  139.4861  144.4434  151.8922 H   0  0  0  0  0  0  0  0  0  0  0  0  # atno 10167 bound_to 10162
  156.1975  130.4155  149.9286 H   0  0  0  0  0  0  0  0  0  0  0  0  # atno 10718 bound_to 10713
  153.9640  135.6736  153.4745 H   0  0  0  0  0  0  0  0  0  0  0  0  # atno 10763 bound_to 10752
  153.0824  135.4916  154.8527 H   0  0  0  0  0  0  0  0  0  0  0  0  # atno 10764 bound_to 10752
  154.7256  135.3127  154.8936 H   0  0  0  0  0  0  0  0  0  0  0  0  # atno 10765 bound_to 10752
  141.0874  133.6639  156.3886 H   0  0  0  0  0  0  0  0  0  0  0  0  # atno 11005 bound_to 11000
  145.1746  140.9737  143.4302 LP  0  0  0  0  0  0  0  0  0  0  0  0  # atno 17320 bound_to 7965
  144.9997  139.3610  143.6173 LP  0  0  0  0  0  0  0  0  0  0  0  0  # atno 17321 bound_to 7965
  140.3887  144.2643  150.5901 LP  0  0  0  0  0  0  0  0  0  0  0  0  # atno 17342 bound_to 10162
  140.5166  143.2276  151.8454 LP  0  0  0  0  0  0  0  0  0  0  0  0  # atno 17343 bound_to 10162
  156.7006  130.8931  151.3599 LP  0  0  0  0  0  0  0  0  0  0  0  0  # atno 17370 bound_to 10713
  157.6966  130.9289  150.0663 LP  0  0  0  0  0  0  0  0  0  0  0  0  # atno 17371 bound_to 10713
  140.5331  134.6193  157.5356 LP  0  0  0  0  0  0  0  0  0  0  0  0  # atno 17394 bound_to 11000
  139.9694  134.7318  156.0071 LP  0  0  0  0  0  0  0  0  0  0  0  0  # atno 17395 bound_to 11000

$$$$
