AV-unprocessed.smi:2158|AV-procd|sdf|8789|dock9
  -GOLD-   2272011573D 1   1.00000     0.00000
 Structure written by MMmdl.
 30 30  0  0  0  0  0  0  0  0  2 V2000
  152.4967  143.5869  161.8522 C   0  0  0  0  0  0  0  0  0  0  0  0
  152.1818  142.9668  160.4828 C   0  0  0  0  0  0  0  0  0  0  0  0
  152.1854  143.9856  159.3275 C   0  0  2  0  0  0  0  0  0  0  0  0
  151.1321  145.0848  159.5353 C   0  0  0  0  0  0  0  0  0  0  0  0
  151.9518  143.3055  158.0560 N   0  0  0  0  0  0  0  0  0  0  0  0
  150.9024  142.5185  157.7732 C   0  0  0  0  0  0  0  0  0  0  0  0
  150.0199  142.2466  158.5884 O   0  0  0  0  0  0  0  0  0  0  0  0
  150.8641  141.9259  156.3590 C   0  0  0  0  0  0  0  0  0  0  0  0
  151.1806  140.4892  156.3426 N   0  0  0  0  0  0  0  0  0  0  0  0
  151.8539  139.9533  157.4546 C   0  0  0  0  0  0  0  0  0  0  0  0
  152.1772  138.6480  157.5276 C   0  0  0  0  0  0  0  0  0  0  0  0
  151.8113  137.7826  156.4131 C   0  0  0  0  0  0  0  0  0  0  0  0
  152.1028  136.5890  156.4610 O   0  0  0  0  0  0  0  0  0  0  0  0
  151.1553  138.3492  155.3583 N   0  5  0  0  0  0  0  0  0  0  0  0
  150.8301  139.6779  155.2990 C   0  0  0  0  0  0  0  0  0  0  0  0
  150.2343  140.1685  154.3389 O   0  0  0  0  0  0  0  0  0  0  0  0
  152.4368  142.8356  162.6396 H   0  0  0  0  0  0  0  0  0  0  0  0
  151.7900  144.3805  162.0958 H   0  0  0  0  0  0  0  0  0  0  0  0
  153.4999  144.0132  161.8799 H   0  0  0  0  0  0  0  0  0  0  0  0
  152.8970  142.1697  160.2759 H   0  0  0  0  0  0  0  0  0  0  0  0
  151.2029  142.4889  160.5351 H   0  0  0  0  0  0  0  0  0  0  0  0
  153.1693  144.4582  159.3066 H   0  0  0  0  0  0  0  0  0  0  0  0
  151.3022  145.6191  160.4703 H   0  0  0  0  0  0  0  0  0  0  0  0
  150.1249  144.6682  159.5686 H   0  0  0  0  0  0  0  0  0  0  0  0
  151.1631  145.8188  158.7292 H   0  0  0  0  0  0  0  0  0  0  0  0
  152.6273  143.4685  157.3233 H   0  0  0  0  0  0  0  0  0  0  0  0
  149.8872  142.1006  155.9033 H   0  0  0  0  0  0  0  0  0  0  0  0
  151.5710  142.4798  155.7404 H   0  0  0  0  0  0  0  0  0  0  0  0
  152.0818  140.6599  158.2390 H   0  0  0  0  0  0  0  0  0  0  0  0
  152.6912  138.2510  158.3905 H   0  0  0  0  0  0  0  0  0  0  0  0
  1  2  1  0  0  0  0
  1 17  1  0  0  0  0
  1 18  1  0  0  0  0
  1 19  1  0  0  0  0
  2  3  1  0  0  0  0
  2 20  1  0  0  0  0
  2 21  1  0  0  0  0
  3  4  1  0  0  0  0
  3  5  1  0  0  0  0
  3 22  1  0  0  0  0
  4 23  1  0  0  0  0
  4 24  1  0  0  0  0
  4 25  1  0  0  0  0
  5  6  1  0  0  0  0
  5 26  1  0  0  0  0
  6  7  2  0  0  0  0
  6  8  1  0  0  0  0
  8  9  1  0  0  0  0
  8 27  1  0  0  0  0
  8 28  1  0  0  0  0
  9 15  1  0  0  0  0
  9 10  1  0  0  0  0
 10 11  2  0  0  0  0
 10 29  1  0  0  0  0
 11 12  1  0  0  0  0
 11 30  1  0  0  0  0
 12 13  2  0  0  0  0
 12 14  1  0  0  0  0
 14 15  1  0  0  0  0
 15 16  2  0  0  0  0
M  CHG  1  14  -1
M  END
> <s_m_source_file>
AV-unprocessed.smi

> <i_m_source_file_index>
2158

> <i_lp_mmshare_version>
43012

> <i_f3d_flags>
0

> <s_epik_input>
W0NIM11bQ0gyXVtDQEhdKFtDSDNdKVtOSF1DKD1PKVtDSDJdbjFbY0hdW2NIXWMoPU8pW25IXWMxPU8=

> <s_epik_cmdline>
J2VwaWtfcHl0aG9uJywgJy1waCcsICc3LjAnLCAnLXRuJywgJzgnLCAnLW1hJywgJzIwMCcsICctbWV0YWxfYmluZGluZycsICctaW1hZScsICc8aW5maWxlLm1hZT4nLCAnLW9tYWUnLCAnPG91dGZpbGUubWFlPic=

> <r_lp_tautomer_probability>
0.999537

> <r_epik_Ionization_Penalty>
3.08395

> <r_epik_Ionization_Penalty_Charging>
2.76809e-08

> <r_epik_Ionization_Penalty_Neutral>
3.08395

> <r_epik_State_Penalty>
3.08299

> <r_epik_Charging_Adjusted_Penalty>
3.08299

> <i_epik_Tot_Q>
-1

> <i_epik_Tot_abs_Q>
1

> <r_epik_Metal_State_Penalty>
0.460296

> <b_epik_Metal_Only>
1

> <s_lp_Force_Field>
OPLS_2005

> <r_lp_Energy>
12.2606

> <b_lp_Chiralities_Consistent>
1

> <s_lp_Variant>
AV-unprocessed.smi:2158-3

> <Gold.Version>
5.8.1

> <Gold.Id.Protein>
6NUR|6NUR_protein|mol2

> <Gold.PLP.Fitness>
38.8919

> <Gold.PLP.PLP>
-33.7955

> <Gold.PLP.part.hbond>
-2.0458

> <Gold.PLP.part.metal>
0.0000

> <Gold.PLP.part.buried>
-4.9380

> <Gold.PLP.part.nonpolar>
-26.4394

> <Gold.PLP.part.repulsive>
0.2251

> <Gold.PLP.ligand.clash>
0.0000

> <Gold.PLP.ligand.torsion>
0.4588

> <Gold.PLP.Chemscore.Hbond>
2.0000

> <Gold.PLP.Chemscore.CHOScore>
0.0000

> <Gold.PLP.Chemscore.Metal>
0.0000

> <Gold.Chemscore.Hbonds>
donor molecule, donor type, donor heavy atom, donor atom, acceptor molecule, acceptor atom, score
      P1  H  7989  7998       L1    16  0.95
      P1  H 10752 10764       L1    13  0.89

> <Gold.PLP.Chemscore.Internal.Correction>
0.0140

> <Gold.Rescore>
     Score         DG    S(hbond)    S(metal)    S(lipo)     H(rot)  DE(clash)    DE(int)     intcor
     12.45     -14.38       1.96        0.00      62.57       1.94       0.00       1.92       ----

> <Gold.Chemscore.Fitness>
12.4547

> <Gold.Chemscore.DG>
-14.3773

> <Gold.Chemscore.ZeroCoef>
-5.4800

> <Gold.Chemscore.Hbond>
1.9628

> <Gold.Chemscore.Metal>
0.0000

> <Gold.Chemscore.Lipo>
62.5688

> <Gold.Chemscore.Internal_Hbond>
0.0000

> <Gold.Chemscore.DEClash>
0.0029

> <Gold.Chemscore.DEInternal>
1.9197

> <Gold.Chemscore.Rot>
1.9449

> <Gold.Chemscore.Internal.Correction>
   9.000000E+99

> <Gold.Chemscore.Hbonds>
donor molecule, donor type, donor heavy atom, donor atom, acceptor molecule, acceptor atom, score
      P1  H  7989  7998       L1    16  0.21
      P1  H 10752 10764       L1    13  0.87

> <Gold.Chemscore.Hbond.Weighted>
-6.5558

> <Gold.Chemscore.Metal.Weighted>
-0.0000

> <Gold.Chemscore.Lipo.Weighted>
-7.3206

> <Gold.Chemscore.Internal_Hbond.Weighted>
0.0000

> <Gold.Chemscore.DEClash.Weighted>
0.0029

> <Gold.Chemscore.DEInternal.Weighted>
1.9197

> <Gold.Chemscore.Rot.Weighted>
4.9791

> <Gold.Chemscore.Internal.Correction.Weighted>
   9.000000E+99

> <Gold.Protein.RotatedTorsions>
[ 6907 6896 6895 6894 ] final -170.41 input  -60.11 | X-H torsion
[ 7974 7965 7964 7962 ] final  -87.93 input  175.53 | X-H torsion
[ 8008 7997 7996 7995 ] final  -38.47 input   59.86 | X-H torsion
[ 10167 10162 10161 10158 ] final -165.94 input  -65.29 | X-H torsion
[ 10718 10713 10712 10709 ] final   59.14 input   66.30 | X-H torsion
[ 10763 10752 10751 10750 ] final  -21.70 input  -60.55 | X-H torsion
[ 11005 11000 10999 10996 ] final   27.20 input  -57.11 | X-H torsion

> <Gold.Protein.ActiveResidues>
 VAL166  LYS551  ARG553  GLY616  TRP617  ASP618  TYR619  PRO620  LYS621  CYS622 
 ASP623  PHE694  ASN695  SER759  ASP760  ASP761  ALA762  ILE779  LEU786  VAL792 
 PHE793  MET794  SER795  GLU796  ALA797  LYS798  CYS799  TRP800  GLU811  SER814 

> <Gold.Protein.RotatedAtoms>
  151.5072  133.3492  159.2878 H   0  0  0  0  0  0  0  0  0  0  0  0  # atno 6907 bound_to 6896
  150.8735  134.8116  159.7183 H   0  0  0  0  0  0  0  0  0  0  0  0  # atno 6908 bound_to 6896
  152.4715  134.4960  159.9762 H   0  0  0  0  0  0  0  0  0  0  0  0  # atno 6909 bound_to 6896
  145.4600  140.9561  143.1975 H   0  0  0  0  0  0  0  0  0  0  0  0  # atno 7974 bound_to 7965
  154.4036  140.1577  156.2705 H   0  0  0  0  0  0  0  0  0  0  0  0  # atno 8008 bound_to 7997
  155.8957  140.3436  155.5967 H   0  0  0  0  0  0  0  0  0  0  0  0  # atno 8009 bound_to 7997
  155.7506  140.0804  157.2193 H   0  0  0  0  0  0  0  0  0  0  0  0  # atno 8010 bound_to 7997
  139.6148  144.0741  152.1877 H   0  0  0  0  0  0  0  0  0  0  0  0  # atno 10167 bound_to 10162
  157.5652  130.8865  149.9175 H   0  0  0  0  0  0  0  0  0  0  0  0  # atno 10718 bound_to 10713
  153.6402  135.6985  153.5244 H   0  0  0  0  0  0  0  0  0  0  0  0  # atno 10763 bound_to 10752
  153.2788  135.4192  155.1058 H   0  0  0  0  0  0  0  0  0  0  0  0  # atno 10764 bound_to 10752
  154.8501  135.3597  154.5946 H   0  0  0  0  0  0  0  0  0  0  0  0  # atno 10765 bound_to 10752
  140.3288  134.2461  155.7705 H   0  0  0  0  0  0  0  0  0  0  0  0  # atno 11005 bound_to 11000
  144.8008  139.6144  143.7072 LP  0  0  0  0  0  0  0  0  0  0  0  0  # atno 17320 bound_to 7965
  146.2456  139.6092  142.9462 LP  0  0  0  0  0  0  0  0  0  0  0  0  # atno 17321 bound_to 7965
  140.0369  144.6038  150.7442 LP  0  0  0  0  0  0  0  0  0  0  0  0  # atno 17342 bound_to 10162
  140.7344  143.2728  151.3835 LP  0  0  0  0  0  0  0  0  0  0  0  0  # atno 17343 bound_to 10162
  156.0701  130.3686  150.0795 LP  0  0  0  0  0  0  0  0  0  0  0  0  # atno 17370 bound_to 10713
  156.8954  130.9602  151.3583 LP  0  0  0  0  0  0  0  0  0  0  0  0  # atno 17371 bound_to 10713
  141.2068  133.7822  157.0153 LP  0  0  0  0  0  0  0  0  0  0  0  0  # atno 17394 bound_to 11000
  140.0878  134.9610  157.1729 LP  0  0  0  0  0  0  0  0  0  0  0  0  # atno 17395 bound_to 11000

$$$$
