AV-unprocessed.smi:3166|AV-procd|sdf|12095|dock5
  -GOLD-   2272017533D 1   1.00000     0.00000
 Structure written by MMmdl.
 40 41  0  0  0  0  0  0  0  0  1 V2000
  144.1844  136.0295  152.5848 C   0  0  0  0  0  0  0  0  0  0  0  0
  145.5668  135.9390  151.9055 C   0  0  2  0  0  0  0  0  0  0  0  0
  146.1546  134.5132  151.9521 C   0  0  0  0  0  0  0  0  0  0  0  0
  145.3837  133.5560  151.1773 N   0  0  0  0  0  0  0  0  0  0  0  0
  145.7768  132.3195  150.7094 C   0  0  0  0  0  0  0  0  0  0  0  0
  144.7158  131.7820  150.0388 C   0  0  0  0  0  0  0  0  0  0  0  0
  143.7027  132.7740  150.1593 C   0  0  0  0  0  0  0  0  0  0  0  0
  144.1046  133.8334  150.8428 N   0  0  0  0  0  0  0  0  0  0  0  0
  146.5289  136.8724  152.4995 N   0  0  0  0  0  0  0  0  0  0  0  0
  146.2780  138.2935  152.2402 C   0  0  0  0  0  0  0  0  0  0  0  0
  147.0756  139.2179  153.1880 C   0  0  0  0  0  0  0  0  0  0  0  0
  148.4187  138.7688  153.1669 O   0  0  0  0  0  0  0  0  0  0  0  0
  147.0103  140.7083  152.7651 C   0  0  0  0  0  0  0  0  0  0  0  0
  147.6788  141.6520  153.7812 C   0  0  0  0  0  0  0  0  0  0  0  0
  147.1025  141.4613  155.1908 C   0  0  0  0  0  0  0  0  0  0  0  0
  147.2278  139.9987  155.6380 C   0  0  0  0  0  0  0  0  0  0  0  0
  146.5501  139.0492  154.6339 C   0  0  0  0  0  0  0  0  0  0  0  0
  143.4800  135.3170  152.1554 H   0  0  0  0  0  0  0  0  0  0  0  0
  143.7336  137.0138  152.4642 H   0  0  0  0  0  0  0  0  0  0  0  0
  144.2548  135.8202  153.6525 H   0  0  0  0  0  0  0  0  0  0  0  0
  145.4368  136.2009  150.8545 H   0  0  0  0  0  0  0  0  0  0  0  0
  147.1733  134.5128  151.5618 H   0  0  0  0  0  0  0  0  0  0  0  0
  146.2183  134.1655  152.9850 H   0  0  0  0  0  0  0  0  0  0  0  0
  146.7689  131.9316  150.8874 H   0  0  0  0  0  0  0  0  0  0  0  0
  144.6697  130.8254  149.5399 H   0  0  0  0  0  0  0  0  0  0  0  0
  142.6938  132.7554  149.7738 H   0  0  0  0  0  0  0  0  0  0  0  0
  147.4664  136.6341  152.1919 H   0  0  0  0  0  0  0  0  0  0  0  0
  146.5536  138.5221  151.2100 H   0  0  0  0  0  0  0  0  0  0  0  0
  145.2156  138.5194  152.3312 H   0  0  0  0  0  0  0  0  0  0  0  0
  148.8299  139.1000  152.3830 H   0  0  0  0  0  0  0  0  0  0  0  0
  147.4752  140.8537  151.7894 H   0  0  0  0  0  0  0  0  0  0  0  0
  145.9659  141.0014  152.6493 H   0  0  0  0  0  0  0  0  0  0  0  0
  148.7543  141.4716  153.7991 H   0  0  0  0  0  0  0  0  0  0  0  0
  147.5474  142.6872  153.4654 H   0  0  0  0  0  0  0  0  0  0  0  0
  147.6205  142.1116  155.8963 H   0  0  0  0  0  0  0  0  0  0  0  0
  146.0539  141.7613  155.2039 H   0  0  0  0  0  0  0  0  0  0  0  0
  148.2813  139.7365  155.7435 H   0  0  0  0  0  0  0  0  0  0  0  0
  146.7813  139.8740  156.6249 H   0  0  0  0  0  0  0  0  0  0  0  0
  145.4762  139.2401  154.6499 H   0  0  0  0  0  0  0  0  0  0  0  0
  146.6757  138.0172  154.9641 H   0  0  0  0  0  0  0  0  0  0  0  0
  1  2  1  0  0  0  0
  1 18  1  0  0  0  0
  1 19  1  0  0  0  0
  1 20  1  0  0  0  0
  2  3  1  0  0  0  0
  2  9  1  0  0  0  0
  2 21  1  0  0  0  0
  3  4  1  0  0  0  0
  3 22  1  0  0  0  0
  3 23  1  0  0  0  0
  4  8  1  0  0  0  0
  4  5  1  0  0  0  0
  5  6  2  0  0  0  0
  5 24  1  0  0  0  0
  6  7  1  0  0  0  0
  6 25  1  0  0  0  0
  7  8  2  0  0  0  0
  7 26  1  0  0  0  0
  9 10  1  0  0  0  0
  9 27  1  0  0  0  0
 10 11  1  0  0  0  0
 10 28  1  0  0  0  0
 10 29  1  0  0  0  0
 11 17  1  0  0  0  0
 11 12  1  0  0  0  0
 11 13  1  0  0  0  0
 12 30  1  0  0  0  0
 13 14  1  0  0  0  0
 13 31  1  0  0  0  0
 13 32  1  0  0  0  0
 14 15  1  0  0  0  0
 14 33  1  0  0  0  0
 14 34  1  0  0  0  0
 15 16  1  0  0  0  0
 15 35  1  0  0  0  0
 15 36  1  0  0  0  0
 16 17  1  0  0  0  0
 16 37  1  0  0  0  0
 16 38  1  0  0  0  0
 17 39  1  0  0  0  0
 17 40  1  0  0  0  0
M  END
> <s_m_source_file>
AV-unprocessed.smi

> <i_m_source_file_index>
3166

> <i_lp_mmshare_version>
43012

> <i_f3d_flags>
0

> <s_epik_input>
bjFbY0hdW2NIXVtjSF1uMVtDSDJdW0NAQEhdKFtDSDNdKVtOSF1bQ0gyXUMyKFtPSF0pW0NIMl1bQ0gyXVtDSDJdW0NIMl1bQ0gyXTI=

> <s_epik_cmdline>
J2VwaWtfcHl0aG9uJywgJy1waCcsICc3LjAnLCAnLXRuJywgJzgnLCAnLW1hJywgJzIwMCcsICctbWV0YWxfYmluZGluZycsICctaW1hZScsICc8aW5maWxlLm1hZT4nLCAnLW9tYWUnLCAnPG91dGZpbGUubWFlPic=

> <r_lp_tautomer_probability>
1

> <r_epik_Ionization_Penalty>
2.35964

> <r_epik_Ionization_Penalty_Charging>
0

> <r_epik_Ionization_Penalty_Neutral>
2.35964

> <r_epik_State_Penalty>
2.51455

> <r_epik_Charging_Adjusted_Penalty>
2.51455

> <i_epik_Tot_Q>
0

> <i_epik_Tot_abs_Q>
0

> <r_epik_Metal_State_Penalty>
2.51451

> <b_epik_Metal_Only>
0

> <s_lp_Force_Field>
OPLS_2005

> <r_lp_Energy>
22.8123

> <b_lp_Chiralities_Consistent>
1

> <s_lp_Variant>
AV-unprocessed.smi:3166-3

> <Gold.Version>
5.8.1

> <Gold.Id.Protein>
6NUR|6NUR_protein|mol2

> <Gold.PLP.Fitness>
43.1806

> <Gold.PLP.PLP>
-32.1390

> <Gold.PLP.part.hbond>
-3.0000

> <Gold.PLP.part.metal>
0.0000

> <Gold.PLP.part.buried>
-4.4456

> <Gold.PLP.part.nonpolar>
-25.6600

> <Gold.PLP.part.repulsive>
0.1597

> <Gold.PLP.ligand.clash>
0.0000

> <Gold.PLP.ligand.torsion>
0.4982

> <Gold.PLP.Chemscore.Hbond>
2.0000

> <Gold.PLP.Chemscore.CHOScore>
2.0000

> <Gold.PLP.Chemscore.Metal>
0.0000

> <Gold.Chemscore.Hbonds>
donor molecule, donor type, donor heavy atom, donor atom, acceptor molecule, acceptor atom, score
      L1  H     9    27       P1  7948  1.00
      L1  H    12    30       P1  7957  1.00
      L1  C     5    24       P1 10747  1.00
      L1  C     7    26       P1 10186  1.00

> <Gold.PLP.Chemscore.Internal.Correction>
0.0379

> <Gold.Rescore>
     Score         DG    S(hbond)    S(metal)    S(lipo)     H(rot)  DE(clash)    DE(int)     intcor
     14.99     -16.73       1.99        0.00      85.80       2.12       0.13       1.61       ----

> <Gold.Chemscore.Fitness>
14.9873

> <Gold.Chemscore.DG>
-16.7268

> <Gold.Chemscore.ZeroCoef>
-5.4800

> <Gold.Chemscore.Hbond>
1.9873

> <Gold.Chemscore.Metal>
0.0000

> <Gold.Chemscore.Lipo>
85.8020

> <Gold.Chemscore.Internal_Hbond>
0.0000

> <Gold.Chemscore.DEClash>
0.1284

> <Gold.Chemscore.DEInternal>
1.6112

> <Gold.Chemscore.Rot>
2.1209

> <Gold.Chemscore.Internal.Correction>
   9.000000E+99

> <Gold.Chemscore.Hbonds>
donor molecule, donor type, donor heavy atom, donor atom, acceptor molecule, acceptor atom, score
      L1  H     9    27       P1  7948  0.96
      L1  H    12    30       P1  7957  1.00

> <Gold.Chemscore.Hbond.Weighted>
-6.6376

> <Gold.Chemscore.Metal.Weighted>
-0.0000

> <Gold.Chemscore.Lipo.Weighted>
-10.0388

> <Gold.Chemscore.Internal_Hbond.Weighted>
0.0000

> <Gold.Chemscore.DEClash.Weighted>
0.1284

> <Gold.Chemscore.DEInternal.Weighted>
1.6112

> <Gold.Chemscore.Rot.Weighted>
5.4296

> <Gold.Chemscore.Internal.Correction.Weighted>
   9.000000E+99

> <Gold.Protein.RotatedTorsions>
[ 6907 6896 6895 6894 ] final  162.27 input  -60.11 | X-H torsion
[ 7974 7965 7964 7962 ] final  -92.34 input  175.53 | X-H torsion
[ 8008 7997 7996 7995 ] final  163.93 input   59.86 | X-H torsion
[ 10167 10162 10161 10158 ] final -128.94 input  -65.29 | X-H torsion
[ 10718 10713 10712 10709 ] final   -4.19 input   66.30 | X-H torsion
[ 10763 10752 10751 10750 ] final -110.00 input  -60.55 | X-H torsion
[ 11005 11000 10999 10996 ] final -132.07 input  -57.11 | X-H torsion

> <Gold.Protein.ActiveResidues>
 VAL166  LYS551  ARG553  GLY616  TRP617  ASP618  TYR619  PRO620  LYS621  CYS622 
 ASP623  PHE694  ASN695  SER759  ASP760  ASP761  ALA762  ILE779  LEU786  VAL792 
 PHE793  MET794  SER795  GLU796  ALA797  LYS798  CYS799  TRP800  GLU811  SER814 

> <Gold.Protein.RotatedAtoms>
  151.9429  133.3643  159.3971 H   0  0  0  0  0  0  0  0  0  0  0  0  # atno 6907 bound_to 6896
  150.6995  134.4420  159.5306 H   0  0  0  0  0  0  0  0  0  0  0  0  # atno 6908 bound_to 6896
  152.2080  134.8527  160.0551 H   0  0  0  0  0  0  0  0  0  0  0  0  # atno 6909 bound_to 6896
  145.4011  140.9537  143.2287 H   0  0  0  0  0  0  0  0  0  0  0  0  # atno 7974 bound_to 7965
  156.1919  140.1710  156.8075 H   0  0  0  0  0  0  0  0  0  0  0  0  # atno 8008 bound_to 7997
  154.5482  140.0723  156.8656 H   0  0  0  0  0  0  0  0  0  0  0  0  # atno 8009 bound_to 7997
  155.3080  140.3366  155.4247 H   0  0  0  0  0  0  0  0  0  0  0  0  # atno 8010 bound_to 7997
  139.9451  143.6119  152.2492 H   0  0  0  0  0  0  0  0  0  0  0  0  # atno 10167 bound_to 10162
  156.7649  130.5281  149.5778 H   0  0  0  0  0  0  0  0  0  0  0  0  # atno 10718 bound_to 10713
  154.8224  135.4580  154.0819 H   0  0  0  0  0  0  0  0  0  0  0  0  # atno 10763 bound_to 10752
  153.2161  135.6888  153.8062 H   0  0  0  0  0  0  0  0  0  0  0  0  # atno 10764 bound_to 10752
  153.7496  135.3300  155.3295 H   0  0  0  0  0  0  0  0  0  0  0  0  # atno 10765 bound_to 10752
  140.9202  134.1454  157.4320 H   0  0  0  0  0  0  0  0  0  0  0  0  # atno 11005 bound_to 11000
  144.8373  139.5529  143.6916 LP  0  0  0  0  0  0  0  0  0  0  0  0  # atno 17320 bound_to 7965
  146.2751  139.6733  142.9268 LP  0  0  0  0  0  0  0  0  0  0  0  0  # atno 17321 bound_to 7965
  139.6673  144.7662  151.1848 LP  0  0  0  0  0  0  0  0  0  0  0  0  # atno 17342 bound_to 10162
  140.7600  143.5918  150.8789 LP  0  0  0  0  0  0  0  0  0  0  0  0  # atno 17343 bound_to 10162
  156.1315  130.6181  151.0340 LP  0  0  0  0  0  0  0  0  0  0  0  0  # atno 17370 bound_to 10713
  157.6717  131.0860  150.7595 LP  0  0  0  0  0  0  0  0  0  0  0  0  # atno 17371 bound_to 10713
  139.8774  134.9969  156.5817 LP  0  0  0  0  0  0  0  0  0  0  0  0  # atno 17394 bound_to 11000
  140.7997  133.8515  155.8716 LP  0  0  0  0  0  0  0  0  0  0  0  0  # atno 17395 bound_to 11000

$$$$
