AV-unprocessed.smi:2923|AV-procd|sdf|11217|dock10
  -GOLD-   2272016103D 1   1.00000     0.00000
 Structure written by MMmdl.
 46 48  0  0  0  0  0  0  0  0  1 V2000
  152.2976  140.6830  158.0155 C   0  0  0  0  0  0  0  0  0  0  0  0
  151.4776  141.1484  156.9074 N   0  0  0  0  0  0  0  0  0  0  0  0
  150.6981  142.3535  157.1442 C   0  0  0  0  0  0  0  0  0  0  0  0
  150.7303  140.1244  156.3112 C   0  0  0  0  0  0  0  0  0  0  0  0
  149.8519  139.3180  157.0700 C   0  0  0  0  0  0  0  0  0  0  0  0
  149.1284  138.3022  156.4164 C   0  0  0  0  0  0  0  0  0  0  0  0
  149.3004  138.1292  155.0224 C   0  0  0  0  0  0  0  0  0  0  0  0
  148.6496  137.1271  154.2541 N   0  0  0  0  0  0  0  0  0  0  0  0
  147.7755  136.1929  154.6647 C   0  0  0  0  0  0  0  0  0  0  0  0
  147.3504  136.0675  155.8129 O   0  0  0  0  0  0  0  0  0  0  0  0
  147.4005  135.4052  153.6486 N   0  0  0  0  0  0  0  0  0  0  0  0
  146.4388  134.3030  153.7572 C   0  0  1  0  0  0  0  0  0  0  0  0
  145.3565  134.3625  152.6762 C   0  0  1  0  0  0  0  0  0  0  0  0
  144.8365  135.3988  151.7467 C   0  0  0  0  0  0  0  0  0  0  0  0
  144.7062  134.4889  150.4949 C   0  0  0  0  0  0  0  0  0  0  0  0
  145.3715  133.2450  150.8342 O   0  0  0  0  0  0  0  0  0  0  0  0
  146.3411  133.6278  151.7894 C   0  0  2  0  0  0  0  0  0  0  0  0
  146.8712  132.9458  153.0705 C   0  0  0  0  0  0  0  0  0  0  0  0
  148.3661  132.6076  153.0653 C   0  0  0  0  0  0  0  0  0  0  0  0
  146.1544  131.6628  153.5297 C   0  0  0  0  0  0  0  0  0  0  0  0
  150.2105  138.9809  154.3628 C   0  0  0  0  0  0  0  0  0  0  0  0
  150.9062  139.9572  154.9827 N   0  0  0  0  0  0  0  0  0  0  0  0
  152.8551  139.7879  157.7367 H   0  0  0  0  0  0  0  0  0  0  0  0
  151.6846  140.4503  158.8867 H   0  0  0  0  0  0  0  0  0  0  0  0
  153.0166  141.4517  158.2999 H   0  0  0  0  0  0  0  0  0  0  0  0
  150.1171  142.6207  156.2606 H   0  0  0  0  0  0  0  0  0  0  0  0
  151.3592  143.1887  157.3769 H   0  0  0  0  0  0  0  0  0  0  0  0
  150.0116  142.2176  157.9805 H   0  0  0  0  0  0  0  0  0  0  0  0
  149.7355  139.4682  158.1334 H   0  0  0  0  0  0  0  0  0  0  0  0
  148.4732  137.6718  156.9970 H   0  0  0  0  0  0  0  0  0  0  0  0
  148.8355  137.1551  153.2623 H   0  0  0  0  0  0  0  0  0  0  0  0
  147.7955  135.5796  152.7363 H   0  0  0  0  0  0  0  0  0  0  0  0
  146.0287  134.1709  154.7598 H   0  0  0  0  0  0  0  0  0  0  0  0
  144.5216  133.7332  152.9938 H   0  0  0  0  0  0  0  0  0  0  0  0
  143.8803  135.8151  152.0649 H   0  0  0  0  0  0  0  0  0  0  0  0
  145.5482  136.2106  151.5915 H   0  0  0  0  0  0  0  0  0  0  0  0
  143.6644  134.2892  150.2426 H   0  0  0  0  0  0  0  0  0  0  0  0
  145.1821  134.9504  149.6288 H   0  0  0  0  0  0  0  0  0  0  0  0
  147.0949  134.2735  151.3271 H   0  0  0  0  0  0  0  0  0  0  0  0
  148.5736  131.7145  152.4751 H   0  0  0  0  0  0  0  0  0  0  0  0
  148.7367  132.4292  154.0752 H   0  0  0  0  0  0  0  0  0  0  0  0
  148.9664  133.4110  152.6382 H   0  0  0  0  0  0  0  0  0  0  0  0
  146.2914  130.8564  152.8086 H   0  0  0  0  0  0  0  0  0  0  0  0
  145.0808  131.7860  153.6608 H   0  0  0  0  0  0  0  0  0  0  0  0
  146.5433  131.3130  154.4865 H   0  0  0  0  0  0  0  0  0  0  0  0
  150.3852  138.8797  153.3017 H   0  0  0  0  0  0  0  0  0  0  0  0
  1  2  1  0  0  0  0
  1 23  1  0  0  0  0
  1 24  1  0  0  0  0
  1 25  1  0  0  0  0
  2  3  1  0  0  0  0
  2  4  1  0  0  0  0
  3 26  1  0  0  0  0
  3 27  1  0  0  0  0
  3 28  1  0  0  0  0
  4 22  1  0  0  0  0
  4  5  2  0  0  0  0
  5  6  1  0  0  0  0
  5 29  1  0  0  0  0
  6  7  2  0  0  0  0
  6 30  1  0  0  0  0
  7  8  1  0  0  0  0
  7 21  1  0  0  0  0
  8  9  1  0  0  0  0
  8 31  1  0  0  0  0
  9 10  2  0  0  0  0
  9 11  1  0  0  0  0
 11 12  1  0  0  0  0
 11 32  1  0  0  0  0
 12 18  1  0  0  0  0
 12 13  1  0  0  0  0
 12 33  1  0  0  0  0
 13 17  1  0  0  0  0
 13 14  1  0  0  0  0
 13 34  1  0  0  0  0
 14 15  1  0  0  0  0
 14 35  1  0  0  0  0
 14 36  1  0  0  0  0
 15 16  1  0  0  0  0
 15 37  1  0  0  0  0
 15 38  1  0  0  0  0
 16 17  1  0  0  0  0
 17 18  1  0  0  0  0
 17 39  1  0  0  0  0
 18 19  1  0  0  0  0
 18 20  1  0  0  0  0
 19 40  1  0  0  0  0
 19 41  1  0  0  0  0
 19 42  1  0  0  0  0
 20 43  1  0  0  0  0
 20 44  1  0  0  0  0
 20 45  1  0  0  0  0
 21 22  2  0  0  0  0
 21 46  1  0  0  0  0
M  END
> <s_m_source_file>
AV-unprocessed.smi

> <i_m_source_file_index>
2923

> <i_lp_mmshare_version>
43012

> <i_f3d_flags>
0

> <s_epik_input>
W0NIM11OKFtDSDNdKWMxW2NIXVtjSF1jKFtjSF1uMSlbTkhdQyg9TylbTkhdW0NASF0yQyhbQ0gzXSkoW0NIM10pW0NAQEhdKFtDQEhdMjMpT1tDSDJdW0NIMl0z

> <s_epik_cmdline>
J2VwaWtfcHl0aG9uJywgJy1waCcsICc3LjAnLCAnLXRuJywgJzgnLCAnLW1hJywgJzIwMCcsICctbWV0YWxfYmluZGluZycsICctaW1hZScsICc8aW5maWxlLm1hZT4nLCAnLW9tYWUnLCAnPG91dGZpbGUubWFlPic=

> <r_lp_tautomer_probability>
1

> <r_epik_Ionization_Penalty>
0.628785

> <r_epik_Ionization_Penalty_Charging>
0

> <r_epik_Ionization_Penalty_Neutral>
0.628785

> <r_epik_State_Penalty>
0.644286

> <r_epik_Charging_Adjusted_Penalty>
0.644286

> <i_epik_Tot_Q>
0

> <i_epik_Tot_abs_Q>
0

> <r_epik_Metal_State_Penalty>
0.308404

> <b_epik_Metal_Only>
0

> <s_lp_Force_Field>
OPLS_2005

> <r_lp_Energy>
70.0187

> <b_lp_Chiralities_Consistent>
1

> <s_lp_Variant>
AV-unprocessed.smi:2923-16

> <Gold.Version>
5.8.1

> <Gold.Id.Protein>
6NUR|6NUR_protein|mol2

> <Gold.PLP.Fitness>
39.0303

> <Gold.PLP.PLP>
-27.6777

> <Gold.PLP.part.hbond>
-2.8960

> <Gold.PLP.part.metal>
0.0000

> <Gold.PLP.part.buried>
-3.5634

> <Gold.PLP.part.nonpolar>
-21.8086

> <Gold.PLP.part.repulsive>
0.2355

> <Gold.PLP.ligand.clash>
0.0000

> <Gold.PLP.ligand.torsion>
0.4100

> <Gold.PLP.Chemscore.Hbond>
2.9040

> <Gold.PLP.Chemscore.CHOScore>
0.9968

> <Gold.PLP.Chemscore.Metal>
0.0000

> <Gold.Chemscore.Hbonds>
donor molecule, donor type, donor heavy atom, donor atom, acceptor molecule, acceptor atom, score
      L1  H     8    31       P1  7948  0.91
      L1  H    11    32       P1  7948  0.99
      P1  H  7989  7998       L1    22  1.00
      L1  C    21    46       P1  7957  0.97

> <Gold.PLP.Chemscore.Internal.Correction>
0.4703

> <Gold.Rescore>
     Score         DG    S(hbond)    S(metal)    S(lipo)     H(rot)  DE(clash)    DE(int)     intcor
     16.37     -18.62       2.57        0.00      65.02       1.19       0.63       1.62       ----

> <Gold.Chemscore.Fitness>
16.3699

> <Gold.Chemscore.DG>
-18.6170

> <Gold.Chemscore.ZeroCoef>
-5.4800

> <Gold.Chemscore.Hbond>
2.5705

> <Gold.Chemscore.Metal>
0.0000

> <Gold.Chemscore.Lipo>
65.0197

> <Gold.Chemscore.Internal_Hbond>
0.0000

> <Gold.Chemscore.DEClash>
0.6306

> <Gold.Chemscore.DEInternal>
1.6165

> <Gold.Chemscore.Rot>
1.1937

> <Gold.Chemscore.Internal.Correction>
   9.000000E+99

> <Gold.Chemscore.Hbonds>
donor molecule, donor type, donor heavy atom, donor atom, acceptor molecule, acceptor atom, score
      L1  H     8    31       P1  7948  0.88
      L1  H    11    32       P1  7948  0.92
      P1  H  7989  7998       L1    22  0.30

> <Gold.Chemscore.Hbond.Weighted>
-8.5856

> <Gold.Chemscore.Metal.Weighted>
-0.0000

> <Gold.Chemscore.Lipo.Weighted>
-7.6073

> <Gold.Chemscore.Internal_Hbond.Weighted>
0.0000

> <Gold.Chemscore.DEClash.Weighted>
0.6306

> <Gold.Chemscore.DEInternal.Weighted>
1.6165

> <Gold.Chemscore.Rot.Weighted>
3.0559

> <Gold.Chemscore.Internal.Correction.Weighted>
   9.000000E+99

> <Gold.Protein.RotatedTorsions>
[ 6907 6896 6895 6894 ] final   78.86 input  -60.11 | X-H torsion
[ 7974 7965 7964 7962 ] final  -52.99 input  175.53 | X-H torsion
[ 8008 7997 7996 7995 ] final   -4.51 input   59.86 | X-H torsion
[ 10167 10162 10161 10158 ] final   -0.81 input  -65.29 | X-H torsion
[ 10718 10713 10712 10709 ] final  160.69 input   66.30 | X-H torsion
[ 10763 10752 10751 10750 ] final  -51.05 input  -60.55 | X-H torsion
[ 11005 11000 10999 10996 ] final   16.54 input  -57.11 | X-H torsion

> <Gold.Protein.ActiveResidues>
 VAL166  LYS551  ARG553  GLY616  TRP617  ASP618  TYR619  PRO620  LYS621  CYS622 
 ASP623  PHE694  ASN695  SER759  ASP760  ASP761  ALA762  ILE779  LEU786  VAL792 
 PHE793  MET794  SER795  GLU796  ALA797  LYS798  CYS799  TRP800  GLU811  SER814 

> <Gold.Protein.RotatedAtoms>
  152.5176  134.3599  159.9280 H   0  0  0  0  0  0  0  0  0  0  0  0  # atno 6907 bound_to 6896
  151.3551  133.3904  159.2692 H   0  0  0  0  0  0  0  0  0  0  0  0  # atno 6908 bound_to 6896
  150.9696  134.9090  159.7838 H   0  0  0  0  0  0  0  0  0  0  0  0  # atno 6909 bound_to 6896
  145.9018  140.7988  142.9739 H   0  0  0  0  0  0  0  0  0  0  0  0  # atno 7974 bound_to 7965
  154.6136  140.2482  155.7638 H   0  0  0  0  0  0  0  0  0  0  0  0  # atno 8008 bound_to 7997
  156.2385  140.2941  156.0329 H   0  0  0  0  0  0  0  0  0  0  0  0  # atno 8009 bound_to 7997
  155.2012  140.0394  157.2908 H   0  0  0  0  0  0  0  0  0  0  0  0  # atno 8010 bound_to 7997
  140.6783  143.6850  150.8074 H   0  0  0  0  0  0  0  0  0  0  0  0  # atno 10167 bound_to 10162
  157.1468  131.0554  151.2299 H   0  0  0  0  0  0  0  0  0  0  0  0  # atno 10718 bound_to 10713
  154.1203  135.6536  153.4902 H   0  0  0  0  0  0  0  0  0  0  0  0  # atno 10763 bound_to 10752
  153.0227  135.5268  154.7103 H   0  0  0  0  0  0  0  0  0  0  0  0  # atno 10764 bound_to 10752
  154.6309  135.2976  155.0187 H   0  0  0  0  0  0  0  0  0  0  0  0  # atno 10765 bound_to 10752
  140.4460  134.1273  155.7696 H   0  0  0  0  0  0  0  0  0  0  0  0  # atno 11005 bound_to 11000
  144.6736  140.1688  143.7416 LP  0  0  0  0  0  0  0  0  0  0  0  0  # atno 17320 bound_to 7965
  145.8782  139.2308  143.1621 LP  0  0  0  0  0  0  0  0  0  0  0  0  # atno 17321 bound_to 7965
  140.0547  143.5215  152.2657 LP  0  0  0  0  0  0  0  0  0  0  0  0  # atno 17342 bound_to 10162
  139.6089  144.7603  151.2997 LP  0  0  0  0  0  0  0  0  0  0  0  0  # atno 17343 bound_to 10162
  157.4257  130.7462  149.6949 LP  0  0  0  0  0  0  0  0  0  0  0  0  # atno 17370 bound_to 10713
  155.9778  130.4059  150.3690 LP  0  0  0  0  0  0  0  0  0  0  0  0  # atno 17371 bound_to 10713
  141.1685  133.8656  157.1643 LP  0  0  0  0  0  0  0  0  0  0  0  0  # atno 17394 bound_to 11000
  140.0038  135.0017  157.0248 LP  0  0  0  0  0  0  0  0  0  0  0  0  # atno 17395 bound_to 11000

$$$$
