AV-unprocessed.smi:2944|AV-procd|sdf|11273|dock4
  -GOLD-   2272016163D 1   1.00000     0.00000
 Structure written by MMmdl.
 44 46  0  0  0  0  0  0  0  0  1 V2000
  153.4056  137.3257  161.4227 C   0  0  0  0  0  0  0  0  0  0  0  0
  152.8730  137.3904  160.1119 O   0  0  0  0  0  0  0  0  0  0  0  0
  152.1074  138.5640  159.8925 C   0  0  0  0  0  0  0  0  0  0  0  0
  153.0439  139.7736  159.7631 C   0  0  0  0  0  0  0  0  0  0  0  0
  152.3516  140.9482  159.2536 N   0  0  0  0  0  0  0  0  0  0  0  0
  151.6433  141.0616  158.1027 C   0  0  0  0  0  0  0  0  0  0  0  0
  151.4526  139.6843  157.0036 S   0  0  0  0  0  0  0  0  0  0  0  0
  150.1347  140.3047  155.9052 C   0  0  1  0  0  0  0  0  0  0  0  0
  149.8630  139.2771  154.7961 C   0  0  0  0  0  0  0  0  0  0  0  0
  148.8282  140.6075  156.6746 C   0  0  0  0  0  0  0  0  0  0  0  0
  148.6898  140.0801  157.7805 O   0  0  0  0  0  0  0  0  0  0  0  0
  147.8814  141.4562  156.1894 N   0  0  0  0  0  0  0  0  0  0  0  0
  146.7768  141.9031  157.0392 C   0  0  0  0  0  0  0  0  0  0  0  0
  145.9949  142.8760  156.1652 C   0  0  0  0  0  0  0  0  0  0  0  0
  146.7110  142.7959  154.9168 N   0  0  0  0  0  0  0  0  0  0  0  0
  147.7592  141.9691  154.9412 C   0  0  0  0  0  0  0  0  0  0  0  0
  148.4513  141.7395  153.9503 O   0  0  0  0  0  0  0  0  0  0  0  0
  151.1095  142.2642  157.8781 N   0  0  0  0  0  0  0  0  0  0  0  0
  151.5168  142.9957  158.9749 C   0  0  0  0  0  0  0  0  0  0  0  0
  151.2776  144.3454  159.3188 C   0  0  0  0  0  0  0  0  0  0  0  0
  151.8092  144.8827  160.5095 C   0  0  0  0  0  0  0  0  0  0  0  0
  152.5860  144.0803  161.3702 C   0  0  0  0  0  0  0  0  0  0  0  0
  152.8349  142.7327  161.0460 C   0  0  0  0  0  0  0  0  0  0  0  0
  152.3001  142.2009  159.8570 C   0  0  0  0  0  0  0  0  0  0  0  0
  153.9946  136.4153  161.5337 H   0  0  0  0  0  0  0  0  0  0  0  0
  152.6112  137.3060  162.1698 H   0  0  0  0  0  0  0  0  0  0  0  0
  154.0577  138.1760  161.6265 H   0  0  0  0  0  0  0  0  0  0  0  0
  151.5085  138.4556  158.9868 H   0  0  0  0  0  0  0  0  0  0  0  0
  151.4163  138.7187  160.7221 H   0  0  0  0  0  0  0  0  0  0  0  0
  153.4970  140.0125  160.7255 H   0  0  0  0  0  0  0  0  0  0  0  0
  153.8681  139.5343  159.0907 H   0  0  0  0  0  0  0  0  0  0  0  0
  150.5581  141.1978  155.4529 H   0  0  0  0  0  0  0  0  0  0  0  0
  149.1091  139.6379  154.0954 H   0  0  0  0  0  0  0  0  0  0  0  0
  149.5109  138.3292  155.2054 H   0  0  0  0  0  0  0  0  0  0  0  0
  150.7687  139.0744  154.2239 H   0  0  0  0  0  0  0  0  0  0  0  0
  146.1541  141.0572  157.3369 H   0  0  0  0  0  0  0  0  0  0  0  0
  147.1473  142.3937  157.9412 H   0  0  0  0  0  0  0  0  0  0  0  0
  144.9552  142.5732  156.0377 H   0  0  0  0  0  0  0  0  0  0  0  0
  146.0256  143.8938  156.5562 H   0  0  0  0  0  0  0  0  0  0  0  0
  146.4135  143.2966  154.0918 H   0  0  0  0  0  0  0  0  0  0  0  0
  150.6852  144.9683  158.6652 H   0  0  0  0  0  0  0  0  0  0  0  0
  151.6217  145.9157  160.7631 H   0  0  0  0  0  0  0  0  0  0  0  0
  152.9916  144.4998  162.2794 H   0  0  0  0  0  0  0  0  0  0  0  0
  153.4321  142.1170  161.7019 H   0  0  0  0  0  0  0  0  0  0  0  0
  1  2  1  0  0  0  0
  1 25  1  0  0  0  0
  1 26  1  0  0  0  0
  1 27  1  0  0  0  0
  2  3  1  0  0  0  0
  3  4  1  0  0  0  0
  3 28  1  0  0  0  0
  3 29  1  0  0  0  0
  4  5  1  0  0  0  0
  4 30  1  0  0  0  0
  4 31  1  0  0  0  0
  5 24  1  0  0  0  0
  5  6  1  0  0  0  0
  6  7  1  0  0  0  0
  6 18  2  0  0  0  0
  7  8  1  0  0  0  0
  8  9  1  0  0  0  0
  8 10  1  0  0  0  0
  8 32  1  0  0  0  0
  9 33  1  0  0  0  0
  9 34  1  0  0  0  0
  9 35  1  0  0  0  0
 10 11  2  0  0  0  0
 10 12  1  0  0  0  0
 12 16  1  0  0  0  0
 12 13  1  0  0  0  0
 13 14  1  0  0  0  0
 13 36  1  0  0  0  0
 13 37  1  0  0  0  0
 14 15  1  0  0  0  0
 14 38  1  0  0  0  0
 14 39  1  0  0  0  0
 15 16  1  0  0  0  0
 15 40  1  0  0  0  0
 16 17  2  0  0  0  0
 18 19  1  0  0  0  0
 19 24  2  0  0  0  0
 19 20  1  0  0  0  0
 20 21  2  0  0  0  0
 20 41  1  0  0  0  0
 21 22  1  0  0  0  0
 21 42  1  0  0  0  0
 22 23  2  0  0  0  0
 22 43  1  0  0  0  0
 23 24  1  0  0  0  0
 23 44  1  0  0  0  0
M  END
> <s_m_source_file>
AV-unprocessed.smi

> <i_m_source_file_index>
2944

> <i_lp_mmshare_version>
43012

> <i_f3d_flags>
0

> <s_epik_input>
W2NIXTFbY0hdW2NIXVtjSF1jKGMxMiluKFtDSDJdW0NIMl1PW0NIM10pYyhuMilTW0NASF0oW0NIM10pQyg9TylOM1tDSDJdW0NIMl1bTkhdQzM9Tw==

> <s_epik_cmdline>
J2VwaWtfcHl0aG9uJywgJy1waCcsICc3LjAnLCAnLXRuJywgJzgnLCAnLW1hJywgJzIwMCcsICctbWV0YWxfYmluZGluZycsICctaW1hZScsICc8aW5maWxlLm1hZT4nLCAnLW9tYWUnLCAnPG91dGZpbGUubWFlPic=

> <r_lp_tautomer_probability>
0.9999

> <r_epik_Ionization_Penalty>
0.0250226

> <r_epik_Ionization_Penalty_Charging>
0

> <r_epik_Ionization_Penalty_Neutral>
0.0250226

> <r_epik_State_Penalty>
0.0203222

> <r_epik_Charging_Adjusted_Penalty>
0.0203222

> <i_epik_Tot_Q>
0

> <i_epik_Tot_abs_Q>
0

> <r_epik_Metal_State_Penalty>
0.0194901

> <b_epik_Metal_Only>
0

> <s_lp_Force_Field>
OPLS_2005

> <r_lp_Energy>
41.7508

> <b_lp_Chiralities_Consistent>
1

> <s_lp_Variant>
AV-unprocessed.smi:2944-2

> <Gold.Version>
5.8.1

> <Gold.Id.Protein>
6NUR|6NUR_protein|mol2

> <Gold.PLP.Fitness>
47.7193

> <Gold.PLP.PLP>
-46.7975

> <Gold.PLP.part.hbond>
-2.9798

> <Gold.PLP.part.metal>
0.0000

> <Gold.PLP.part.buried>
-6.2536

> <Gold.PLP.part.nonpolar>
-39.0031

> <Gold.PLP.part.repulsive>
1.8902

> <Gold.PLP.ligand.clash>
0.0000

> <Gold.PLP.ligand.torsion>
0.8439

> <Gold.PLP.Chemscore.Hbond>
0.8000

> <Gold.PLP.Chemscore.CHOScore>
0.0000

> <Gold.PLP.Chemscore.Metal>
0.0000

> <Gold.Chemscore.Hbonds>
donor molecule, donor type, donor heavy atom, donor atom, acceptor molecule, acceptor atom, score
      P1  H  8011  8017       L1    17  0.31

> <Gold.PLP.Chemscore.Internal.Correction>
0.2096

> <Gold.Rescore>
     Score         DG    S(hbond)    S(metal)    S(lipo)     H(rot)  DE(clash)    DE(int)     intcor
     11.84     -16.17       0.96        0.00     112.77       2.24       1.28       3.05       ----

> <Gold.Chemscore.Fitness>
11.8374

> <Gold.Chemscore.DG>
-16.1701

> <Gold.Chemscore.ZeroCoef>
-5.4800

> <Gold.Chemscore.Hbond>
0.9639

> <Gold.Chemscore.Metal>
0.0000

> <Gold.Chemscore.Lipo>
112.7697

> <Gold.Chemscore.Internal_Hbond>
0.0000

> <Gold.Chemscore.DEClash>
1.2820

> <Gold.Chemscore.DEInternal>
3.0507

> <Gold.Chemscore.Rot>
2.2357

> <Gold.Chemscore.Internal.Correction>
   9.000000E+99

> <Gold.Chemscore.Hbonds>
donor molecule, donor type, donor heavy atom, donor atom, acceptor molecule, acceptor atom, score
      P1  H  8011  8017       L1    17  0.30

> <Gold.Chemscore.Hbond.Weighted>
-3.2195

> <Gold.Chemscore.Metal.Weighted>
-0.0000

> <Gold.Chemscore.Lipo.Weighted>
-13.1941

> <Gold.Chemscore.Internal_Hbond.Weighted>
0.0000

> <Gold.Chemscore.DEClash.Weighted>
1.2820

> <Gold.Chemscore.DEInternal.Weighted>
3.0507

> <Gold.Chemscore.Rot.Weighted>
5.7234

> <Gold.Chemscore.Internal.Correction.Weighted>
   9.000000E+99

> <Gold.Protein.RotatedTorsions>
[ 6907 6896 6895 6894 ] final   33.14 input  -60.11 | X-H torsion
[ 7974 7965 7964 7962 ] final -104.77 input  175.53 | X-H torsion
[ 8008 7997 7996 7995 ] final   55.32 input   59.86 | X-H torsion
[ 10167 10162 10161 10158 ] final  -74.59 input  -65.29 | X-H torsion
[ 10718 10713 10712 10709 ] final  144.93 input   66.30 | X-H torsion
[ 10763 10752 10751 10750 ] final  150.29 input  -60.55 | X-H torsion
[ 11005 11000 10999 10996 ] final   82.29 input  -57.11 | X-H torsion

> <Gold.Protein.ActiveResidues>
 VAL166  LYS551  ARG553  GLY616  TRP617  ASP618  TYR619  PRO620  LYS621  CYS622 
 ASP623  PHE694  ASN695  SER759  ASP760  ASP761  ALA762  ILE779  LEU786  VAL792 
 PHE793  MET794  SER795  GLU796  ALA797  LYS798  CYS799  TRP800  GLU811  SER814 

> <Gold.Protein.RotatedAtoms>
  152.0843  134.9450  160.0572 H   0  0  0  0  0  0  0  0  0  0  0  0  # atno 6907 bound_to 6896
  152.0726  133.4109  159.4474 H   0  0  0  0  0  0  0  0  0  0  0  0  # atno 6908 bound_to 6896
  150.6836  134.2994  159.4743 H   0  0  0  0  0  0  0  0  0  0  0  0  # atno 6909 bound_to 6896
  145.2390  140.9198  143.3161 H   0  0  0  0  0  0  0  0  0  0  0  0  # atno 7974 bound_to 7965
  155.4992  140.3474  155.4368 H   0  0  0  0  0  0  0  0  0  0  0  0  # atno 8008 bound_to 7997
  156.0925  140.1414  156.9601 H   0  0  0  0  0  0  0  0  0  0  0  0  # atno 8009 bound_to 7997
  154.4644  140.0923  156.6957 H   0  0  0  0  0  0  0  0  0  0  0  0  # atno 8010 bound_to 7997
  140.5014  143.2360  151.7745 H   0  0  0  0  0  0  0  0  0  0  0  0  # atno 10167 bound_to 10162
  157.3514  131.0951  151.0997 H   0  0  0  0  0  0  0  0  0  0  0  0  # atno 10718 bound_to 10713
  154.0851  135.2856  155.3282 H   0  0  0  0  0  0  0  0  0  0  0  0  # atno 10763 bound_to 10752
  154.6657  135.5318  153.8078 H   0  0  0  0  0  0  0  0  0  0  0  0  # atno 10764 bound_to 10752
  153.0434  135.6545  154.1024 H   0  0  0  0  0  0  0  0  0  0  0  0  # atno 10765 bound_to 10752
  139.9068  134.8060  156.2155 H   0  0  0  0  0  0  0  0  0  0  0  0  # atno 11005 bound_to 11000
  144.9607  139.3983  143.6357 LP  0  0  0  0  0  0  0  0  0  0  0  0  # atno 17320 bound_to 7965
  146.3333  139.8658  142.8848 LP  0  0  0  0  0  0  0  0  0  0  0  0  # atno 17321 bound_to 7965
  139.4873  144.4516  151.9647 LP  0  0  0  0  0  0  0  0  0  0  0  0  # atno 17342 bound_to 10162
  140.3605  144.2978  150.5934 LP  0  0  0  0  0  0  0  0  0  0  0  0  # atno 17343 bound_to 10162
  157.2171  130.6464  149.5796 LP  0  0  0  0  0  0  0  0  0  0  0  0  # atno 17370 bound_to 10713
  155.9722  130.4641  150.6206 LP  0  0  0  0  0  0  0  0  0  0  0  0  # atno 17371 bound_to 10713
  141.0438  133.6923  156.1647 LP  0  0  0  0  0  0  0  0  0  0  0  0  # atno 17394 bound_to 11000
  140.6914  134.4661  157.5588 LP  0  0  0  0  0  0  0  0  0  0  0  0  # atno 17395 bound_to 11000

$$$$
