AV-unprocessed.smi:3250|AV-procd|sdf|12428|dock3
  -GOLD-   2272018313D 1   1.00000     0.00000
 Structure written by MMmdl.
 39 40  0  0  0  0  0  0  0  0  2 V2000
  143.9949  133.0176  150.9097 C   0  0  0  0  0  0  0  0  0  0  0  0
  144.6925  134.3313  150.5292 C   0  0  0  0  0  0  0  0  0  0  0  0
  144.8690  135.2423  151.6879 N   0  3  2  0  0  0  0  0  0  0  0  0
  143.5761  135.6103  152.3122 C   0  0  0  0  0  0  0  0  0  0  0  0
  143.8041  136.5203  153.5294 C   0  0  0  0  0  0  0  0  0  0  0  0
  144.5352  137.6709  153.1272 O   0  0  0  0  0  0  0  0  0  0  0  0
  145.8268  137.3418  152.6256 C   0  0  2  0  0  0  0  0  0  0  0  0
  146.5628  138.6489  152.3022 C   0  0  0  0  0  0  0  0  0  0  0  0
  147.9538  138.6020  152.7262 N   0  0  0  0  0  0  0  0  0  0  0  0
  148.5433  139.5495  153.5414 C   0  0  0  0  0  0  0  0  0  0  0  0
  147.8778  140.6862  153.7757 N   0  0  0  0  0  0  0  0  0  0  0  0
  148.4787  141.5937  154.5754 C   0  0  0  0  0  0  0  0  0  0  0  0
  149.7476  141.3589  155.1413 C   0  0  0  0  0  0  0  0  0  0  0  0
  150.3569  140.1266  154.8303 C   0  0  0  0  0  0  0  0  0  0  0  0
  151.5974  139.8325  155.3566 O   0  0  0  0  0  0  0  0  0  0  0  0
  152.2913  138.6994  154.8472 C   0  0  0  0  0  0  0  0  0  0  0  0
  149.7446  139.2235  154.0231 N   0  0  0  0  0  0  0  0  0  0  0  0
  145.6556  136.4609  151.3718 C   0  0  0  0  0  0  0  0  0  0  0  0
  143.7974  132.4187  150.0202 H   0  0  0  0  0  0  0  0  0  0  0  0
  143.0387  133.2055  151.3989 H   0  0  0  0  0  0  0  0  0  0  0  0
  144.6032  132.4090  151.5781 H   0  0  0  0  0  0  0  0  0  0  0  0
  145.6565  134.1319  150.0586 H   0  0  0  0  0  0  0  0  0  0  0  0
  144.0787  134.8293  149.7773 H   0  0  0  0  0  0  0  0  0  0  0  0
  142.9479  136.1195  151.5793 H   0  0  0  0  0  0  0  0  0  0  0  0
  143.0436  134.7107  152.6226 H   0  0  0  0  0  0  0  0  0  0  0  0
  142.8481  136.8378  153.9459 H   0  0  0  0  0  0  0  0  0  0  0  0
  144.3370  135.9908  154.3208 H   0  0  0  0  0  0  0  0  0  0  0  0
  146.3887  136.7917  153.3831 H   0  0  0  0  0  0  0  0  0  0  0  0
  146.5375  138.8280  151.2267 H   0  0  0  0  0  0  0  0  0  0  0  0
  146.0641  139.4928  152.7806 H   0  0  0  0  0  0  0  0  0  0  0  0
  148.4873  137.7674  152.5310 H   0  0  0  0  0  0  0  0  0  0  0  0
  147.9438  142.5125  154.7657 H   0  0  0  0  0  0  0  0  0  0  0  0
  150.2270  142.0849  155.7811 H   0  0  0  0  0  0  0  0  0  0  0  0
  153.2427  138.5945  155.3684 H   0  0  0  0  0  0  0  0  0  0  0  0
  152.5067  138.8087  153.7834 H   0  0  0  0  0  0  0  0  0  0  0  0
  151.7250  137.7803  155.0051 H   0  0  0  0  0  0  0  0  0  0  0  0
  146.6389  136.1861  150.9908 H   0  0  0  0  0  0  0  0  0  0  0  0
  145.1530  137.0240  150.5836 H   0  0  0  0  0  0  0  0  0  0  0  0
  145.3859  134.7271  152.3865 H   0  0  0  0  0  0  0  0  0  0  0  0
  1  2  1  0  0  0  0
  1 19  1  0  0  0  0
  1 20  1  0  0  0  0
  1 21  1  0  0  0  0
  2  3  1  0  0  0  0
  2 22  1  0  0  0  0
  2 23  1  0  0  0  0
  3 18  1  0  0  0  0
  3  4  1  0  0  0  0
  3 39  1  0  0  0  0
  4  5  1  0  0  0  0
  4 24  1  0  0  0  0
  4 25  1  0  0  0  0
  5  6  1  0  0  0  0
  5 26  1  0  0  0  0
  5 27  1  0  0  0  0
  6  7  1  0  0  0  0
  7  8  1  0  0  0  0
  7 18  1  0  0  0  0
  7 28  1  0  0  0  0
  8  9  1  0  0  0  0
  8 29  1  0  0  0  0
  8 30  1  0  0  0  0
  9 10  1  0  0  0  0
  9 31  1  0  0  0  0
 10 17  1  0  0  0  0
 10 11  2  0  0  0  0
 11 12  1  0  0  0  0
 12 13  2  0  0  0  0
 12 32  1  0  0  0  0
 13 14  1  0  0  0  0
 13 33  1  0  0  0  0
 14 15  1  0  0  0  0
 14 17  2  0  0  0  0
 15 16  1  0  0  0  0
 16 34  1  0  0  0  0
 16 35  1  0  0  0  0
 16 36  1  0  0  0  0
 18 37  1  0  0  0  0
 18 38  1  0  0  0  0
M  CHG  1   3   1
M  END
> <s_m_source_file>
AV-unprocessed.smi

> <i_m_source_file_index>
3250

> <i_lp_mmshare_version>
43012

> <i_f3d_flags>
0

> <s_epik_input>
W0NIM11bQ0gyXU4xW0NIMl1bQ0gyXU9bQ0BIXShbQ0gyXTEpW0NIMl1bTkhdYzJuW2NIXVtjSF1jKG4yKU9bQ0gzXQ==

> <s_epik_cmdline>
J2VwaWtfcHl0aG9uJywgJy1waCcsICc3LjAnLCAnLXRuJywgJzgnLCAnLW1hJywgJzIwMCcsICctbWV0YWxfYmluZGluZycsICctaW1hZScsICc8aW5maWxlLm1hZT4nLCAnLW9tYWUnLCAnPG91dGZpbGUubWFlPic=

> <r_lp_tautomer_probability>
1

> <r_epik_Ionization_Penalty>
0.19684

> <r_epik_Ionization_Penalty_Charging>
0.178504

> <r_epik_Ionization_Penalty_Neutral>
0.0183356

> <r_epik_State_Penalty>
0.162939

> <r_epik_Charging_Adjusted_Penalty>
0.341443

> <i_epik_Tot_Q>
1

> <i_epik_Tot_abs_Q>
1

> <r_epik_Metal_State_Penalty>
0.1608

> <b_epik_Metal_Only>
0

> <s_lp_Force_Field>
OPLS_2005

> <r_lp_Energy>
8.82404

> <b_lp_Chiralities_Consistent>
1

> <s_lp_Variant>
AV-unprocessed.smi:3250-4

> <Gold.Version>
5.8.1

> <Gold.Id.Protein>
6NUR|6NUR_protein|mol2

> <Gold.PLP.Fitness>
35.4290

> <Gold.PLP.PLP>
-31.0701

> <Gold.PLP.part.hbond>
-2.6083

> <Gold.PLP.part.metal>
0.0000

> <Gold.PLP.part.buried>
-1.6024

> <Gold.PLP.part.nonpolar>
-29.4791

> <Gold.PLP.part.repulsive>
2.4052

> <Gold.PLP.ligand.clash>
0.0000

> <Gold.PLP.ligand.torsion>
0.7696

> <Gold.PLP.Chemscore.Hbond>
1.0000

> <Gold.PLP.Chemscore.CHOScore>
0.9529

> <Gold.PLP.Chemscore.Metal>
0.0000

> <Gold.Chemscore.Hbonds>
donor molecule, donor type, donor heavy atom, donor atom, acceptor molecule, acceptor atom, score
      L1  H     9    31       P1  7948  1.00
      L1  C    12    32       P1  8028  0.97

> <Gold.PLP.Chemscore.Internal.Correction>
0.0393

> <Gold.Rescore>
     Score         DG    S(hbond)    S(metal)    S(lipo)     H(rot)  DE(clash)    DE(int)     intcor
     10.45     -11.45       0.98        0.00      60.40       1.71       0.36       0.64       ----

> <Gold.Chemscore.Fitness>
10.4457

> <Gold.Chemscore.DG>
-11.4461

> <Gold.Chemscore.ZeroCoef>
-5.4800

> <Gold.Chemscore.Hbond>
0.9833

> <Gold.Chemscore.Metal>
0.0000

> <Gold.Chemscore.Lipo>
60.3959

> <Gold.Chemscore.Internal_Hbond>
0.0000

> <Gold.Chemscore.DEClash>
0.3648

> <Gold.Chemscore.DEInternal>
0.6357

> <Gold.Chemscore.Rot>
1.7127

> <Gold.Chemscore.Internal.Correction>
   9.000000E+99

> <Gold.Chemscore.Hbonds>
donor molecule, donor type, donor heavy atom, donor atom, acceptor molecule, acceptor atom, score
      L1  H     9    31       P1  7948  1.00

> <Gold.Chemscore.Hbond.Weighted>
-3.2844

> <Gold.Chemscore.Metal.Weighted>
-0.0000

> <Gold.Chemscore.Lipo.Weighted>
-7.0663

> <Gold.Chemscore.Internal_Hbond.Weighted>
0.0000

> <Gold.Chemscore.DEClash.Weighted>
0.3648

> <Gold.Chemscore.DEInternal.Weighted>
0.6357

> <Gold.Chemscore.Rot.Weighted>
4.3846

> <Gold.Chemscore.Internal.Correction.Weighted>
   9.000000E+99

> <Gold.Protein.RotatedTorsions>
[ 6907 6896 6895 6894 ] final   34.70 input  -60.11 | X-H torsion
[ 7974 7965 7964 7962 ] final -160.27 input  175.53 | X-H torsion
[ 8008 7997 7996 7995 ] final -128.63 input   59.86 | X-H torsion
[ 10167 10162 10161 10158 ] final  174.82 input  -65.29 | X-H torsion
[ 10718 10713 10712 10709 ] final -109.66 input   66.30 | X-H torsion
[ 10763 10752 10751 10750 ] final  -52.36 input  -60.55 | X-H torsion
[ 11005 11000 10999 10996 ] final   65.27 input  -57.11 | X-H torsion

> <Gold.Protein.ActiveResidues>
 VAL166  LYS551  ARG553  GLY616  TRP617  ASP618  TYR619  PRO620  LYS621  CYS622 
 ASP623  PHE694  ASN695  SER759  ASP760  ASP761  ALA762  ILE779  LEU786  VAL792 
 PHE793  MET794  SER795  GLU796  ALA797  LYS798  CYS799  TRP800  GLU811  SER814 

> <Gold.Protein.RotatedAtoms>
  152.1060  134.9308  160.0567 H   0  0  0  0  0  0  0  0  0  0  0  0  # atno 6907 bound_to 6896
  152.0504  133.4012  159.4383 H   0  0  0  0  0  0  0  0  0  0  0  0  # atno 6908 bound_to 6896
  150.6841  134.3234  159.4840 H   0  0  0  0  0  0  0  0  0  0  0  0  # atno 6909 bound_to 6896
  144.7433  140.3565  143.6105 H   0  0  0  0  0  0  0  0  0  0  0  0  # atno 7974 bound_to 7965
  155.2659  140.0438  157.3002 H   0  0  0  0  0  0  0  0  0  0  0  0  # atno 8008 bound_to 7997
  154.5682  140.2366  155.8200 H   0  0  0  0  0  0  0  0  0  0  0  0  # atno 8009 bound_to 7997
  156.2102  140.3001  155.9723 H   0  0  0  0  0  0  0  0  0  0  0  0  # atno 8010 bound_to 7997
  139.5155  144.3102  152.0298 H   0  0  0  0  0  0  0  0  0  0  0  0  # atno 10167 bound_to 10162
  156.0549  130.5775  150.8130 H   0  0  0  0  0  0  0  0  0  0  0  0  # atno 10718 bound_to 10713
  154.1415  135.6504  153.4943 H   0  0  0  0  0  0  0  0  0  0  0  0  # atno 10763 bound_to 10752
  153.0164  135.5316  154.6900 H   0  0  0  0  0  0  0  0  0  0  0  0  # atno 10764 bound_to 10752
  154.6163  135.2959  155.0347 H   0  0  0  0  0  0  0  0  0  0  0  0  # atno 10765 bound_to 10752
  139.9905  134.6599  156.0100 H   0  0  0  0  0  0  0  0  0  0  0  0  # atno 11005 bound_to 11000
  145.7221  139.1712  143.2478 LP  0  0  0  0  0  0  0  0  0  0  0  0  # atno 17320 bound_to 7965
  146.1269  140.7236  142.9431 LP  0  0  0  0  0  0  0  0  0  0  0  0  # atno 17321 bound_to 7965
  140.2547  144.4131  150.6208 LP  0  0  0  0  0  0  0  0  0  0  0  0  # atno 17342 bound_to 10162
  140.6200  143.2175  151.6714 LP  0  0  0  0  0  0  0  0  0  0  0  0  # atno 17343 bound_to 10162
  157.5509  131.0944  150.9697 LP  0  0  0  0  0  0  0  0  0  0  0  0  # atno 17370 bound_to 10713
  156.9957  130.5580  149.5307 LP  0  0  0  0  0  0  0  0  0  0  0  0  # atno 17371 bound_to 10713
  141.1561  133.6542  156.4168 LP  0  0  0  0  0  0  0  0  0  0  0  0  # atno 17394 bound_to 11000
  140.4918  134.6568  157.5214 LP  0  0  0  0  0  0  0  0  0  0  0  0  # atno 17395 bound_to 11000

$$$$
