AV-unprocessed.smi:1696|AV-procd|sdf|6800|dock4
  -GOLD-   22720 7563D 1   1.00000     0.00000
 Structure written by MMmdl.
 39 40  0  0  0  0  0  0  0  0  2 V2000
  144.4744  137.7442  154.2712 C   0  0  0  0  0  0  0  0  0  0  0  0
  145.9817  137.9279  154.5043 C   0  0  0  0  0  0  0  0  0  0  0  0
  146.6443  139.0144  153.6143 C   0  0  1  0  0  0  0  0  0  0  0  0
  146.5228  138.6899  152.0982 C   0  0  0  0  0  0  0  0  0  0  0  0
  146.7293  137.2757  151.7869 N   0  0  0  0  0  0  0  0  0  0  0  0
  145.7609  136.3713  151.5830 C   0  0  0  0  0  0  0  0  0  0  0  0
  144.5615  136.6421  151.6162 O   0  0  0  0  0  0  0  0  0  0  0  0
  146.2759  135.1551  151.3411 N   0  0  0  0  0  0  0  0  0  0  0  0
  145.5740  133.9559  151.0642 C   0  0  0  0  0  0  0  0  0  0  0  0
  144.3394  134.0333  150.5642 N   0  0  0  0  0  0  0  0  0  0  0  0
  143.7826  132.7701  150.3435 C   0  0  0  0  0  0  0  0  0  0  0  0
  144.6138  131.7330  150.6872 C   0  0  0  0  0  0  0  0  0  0  0  0
  146.1404  132.3016  151.3075 S   0  0  0  0  0  0  0  0  0  0  0  0
  146.1047  140.3765  153.9126 N   0  3  0  0  0  0  0  0  0  0  0  0
  145.9043  140.7038  155.3416 C   0  0  0  0  0  0  0  0  0  0  0  0
  145.8376  142.2254  155.3941 C   0  0  0  0  0  0  0  0  0  0  0  0
  146.8564  142.6516  154.3445 C   0  0  0  0  0  0  0  0  0  0  0  0
  146.8785  141.5023  153.3274 C   0  0  0  0  0  0  0  0  0  0  0  0
  144.1021  136.8905  154.8378 H   0  0  0  0  0  0  0  0  0  0  0  0
  144.2573  137.5606  153.2188 H   0  0  0  0  0  0  0  0  0  0  0  0
  143.8985  138.6124  154.5887 H   0  0  0  0  0  0  0  0  0  0  0  0
  146.1687  138.1339  155.5583 H   0  0  0  0  0  0  0  0  0  0  0  0
  146.4337  136.9568  154.3077 H   0  0  0  0  0  0  0  0  0  0  0  0
  147.7063  139.0279  153.8650 H   0  0  0  0  0  0  0  0  0  0  0  0
  145.5211  138.9414  151.7503 H   0  0  0  0  0  0  0  0  0  0  0  0
  147.1807  139.3188  151.4988 H   0  0  0  0  0  0  0  0  0  0  0  0
  147.6859  136.9545  151.7516 H   0  0  0  0  0  0  0  0  0  0  0  0
  147.2816  135.0741  151.3576 H   0  0  0  0  0  0  0  0  0  0  0  0
  142.7848  132.7008  149.9358 H   0  0  0  0  0  0  0  0  0  0  0  0
  144.4216  130.6729  150.6125 H   0  0  0  0  0  0  0  0  0  0  0  0
  144.9988  140.2485  155.7435 H   0  0  0  0  0  0  0  0  0  0  0  0
  146.7566  140.3507  155.9249 H   0  0  0  0  0  0  0  0  0  0  0  0
  144.8420  142.5631  155.1030 H   0  0  0  0  0  0  0  0  0  0  0  0
  146.0539  142.6267  156.3847 H   0  0  0  0  0  0  0  0  0  0  0  0
  146.6064  143.6102  153.8888 H   0  0  0  0  0  0  0  0  0  0  0  0
  147.8395  142.7517  154.8068 H   0  0  0  0  0  0  0  0  0  0  0  0
  147.9120  141.2185  153.1237 H   0  0  0  0  0  0  0  0  0  0  0  0
  146.4235  141.7995  152.3822 H   0  0  0  0  0  0  0  0  0  0  0  0
  145.1868  140.4236  153.4937 H   0  0  0  0  0  0  0  0  0  0  0  0
  1  2  1  0  0  0  0
  1 19  1  0  0  0  0
  1 20  1  0  0  0  0
  1 21  1  0  0  0  0
  2  3  1  0  0  0  0
  2 22  1  0  0  0  0
  2 23  1  0  0  0  0
  3  4  1  0  0  0  0
  3 14  1  0  0  0  0
  3 24  1  0  0  0  0
  4  5  1  0  0  0  0
  4 25  1  0  0  0  0
  4 26  1  0  0  0  0
  5  6  1  0  0  0  0
  5 27  1  0  0  0  0
  6  7  2  0  0  0  0
  6  8  1  0  0  0  0
  8  9  1  0  0  0  0
  8 28  1  0  0  0  0
  9 13  1  0  0  0  0
  9 10  2  0  0  0  0
 10 11  1  0  0  0  0
 11 12  2  0  0  0  0
 11 29  1  0  0  0  0
 12 13  1  0  0  0  0
 12 30  1  0  0  0  0
 14 18  1  0  0  0  0
 14 15  1  0  0  0  0
 14 39  1  0  0  0  0
 15 16  1  0  0  0  0
 15 31  1  0  0  0  0
 15 32  1  0  0  0  0
 16 17  1  0  0  0  0
 16 33  1  0  0  0  0
 16 34  1  0  0  0  0
 17 18  1  0  0  0  0
 17 35  1  0  0  0  0
 17 36  1  0  0  0  0
 18 37  1  0  0  0  0
 18 38  1  0  0  0  0
M  CHG  1  14   1
M  END
> <s_m_source_file>
AV-unprocessed.smi

> <i_m_source_file_index>
1696

> <i_lp_mmshare_version>
43012

> <i_f3d_flags>
0

> <s_epik_input>
W0NIMl0xW0NIMl1bQ0gyXVtDSDJdTjFbQ0BIXShbQ0gyXVtDSDNdKVtDSDJdW05IXUMoPU8pW05IXWMybltjSF1bY0hdczI=

> <s_epik_cmdline>
J2VwaWtfcHl0aG9uJywgJy1waCcsICc3LjAnLCAnLXRuJywgJzgnLCAnLW1hJywgJzIwMCcsICctbWV0YWxfYmluZGluZycsICctaW1hZScsICc8aW5maWxlLm1hZT4nLCAnLW9tYWUnLCAnPG91dGZpbGUubWFlPic=

> <r_lp_tautomer_probability>
1

> <r_epik_Ionization_Penalty>
0.0013883

> <r_epik_Ionization_Penalty_Charging>
0.00115997

> <r_epik_Ionization_Penalty_Neutral>
0.000228323

> <r_epik_State_Penalty>
-0

> <r_epik_Charging_Adjusted_Penalty>
0.00115997

> <i_epik_Tot_Q>
1

> <i_epik_Tot_abs_Q>
1

> <r_epik_Metal_State_Penalty>
0.0131845

> <b_epik_Metal_Only>
0

> <s_lp_Force_Field>
OPLS_2005

> <r_lp_Energy>
36.9264

> <b_lp_Chiralities_Consistent>
1

> <s_lp_Variant>
AV-unprocessed.smi:1696-2

> <Gold.Version>
5.8.1

> <Gold.Id.Protein>
6NUR|6NUR_protein|mol2

> <Gold.PLP.Fitness>
41.7599

> <Gold.PLP.PLP>
-28.8602

> <Gold.PLP.part.hbond>
-2.9540

> <Gold.PLP.part.metal>
0.0000

> <Gold.PLP.part.buried>
-6.0996

> <Gold.PLP.part.nonpolar>
-23.0095

> <Gold.PLP.part.repulsive>
2.3107

> <Gold.PLP.ligand.clash>
0.0000

> <Gold.PLP.ligand.torsion>
0.5760

> <Gold.PLP.Chemscore.Hbond>
3.6537

> <Gold.PLP.Chemscore.CHOScore>
1.0000

> <Gold.PLP.Chemscore.Metal>
0.0000

> <Gold.Chemscore.Hbonds>
donor molecule, donor type, donor heavy atom, donor atom, acceptor molecule, acceptor atom, score
      L1  H     5    27       P1  7948  0.76
      L1  H     8    28       P1  7948  0.78
      L1  H    14    39       P1 10175  2.00
      L1  C    11    29       P1 10186  1.00

> <Gold.PLP.Chemscore.Internal.Correction>
0.0904

> <Gold.Rescore>
     Score         DG    S(hbond)    S(metal)    S(lipo)     H(rot)  DE(clash)    DE(int)     intcor
     13.14     -16.73       2.67        0.00      58.79       1.77       0.52       3.07       ----

> <Gold.Chemscore.Fitness>
13.1433

> <Gold.Chemscore.DG>
-16.7281

> <Gold.Chemscore.ZeroCoef>
-5.4800

> <Gold.Chemscore.Hbond>
2.6652

> <Gold.Chemscore.Metal>
0.0000

> <Gold.Chemscore.Lipo>
58.7938

> <Gold.Chemscore.Internal_Hbond>
0.0000

> <Gold.Chemscore.DEClash>
0.5156

> <Gold.Chemscore.DEInternal>
3.0691

> <Gold.Chemscore.Rot>
1.7705

> <Gold.Chemscore.Internal.Correction>
   9.000000E+99

> <Gold.Chemscore.Hbonds>
donor molecule, donor type, donor heavy atom, donor atom, acceptor molecule, acceptor atom, score
      L1  H     5    27       P1  7948  0.75
      L1  H     8    28       P1  7948  0.51
      L1  H    14    39       P1 10175  1.00

> <Gold.Chemscore.Hbond.Weighted>
-8.9016

> <Gold.Chemscore.Metal.Weighted>
-0.0000

> <Gold.Chemscore.Lipo.Weighted>
-6.8789

> <Gold.Chemscore.Internal_Hbond.Weighted>
0.0000

> <Gold.Chemscore.DEClash.Weighted>
0.5156

> <Gold.Chemscore.DEInternal.Weighted>
3.0691

> <Gold.Chemscore.Rot.Weighted>
4.5324

> <Gold.Chemscore.Internal.Correction.Weighted>
   9.000000E+99

> <Gold.Protein.RotatedTorsions>
[ 6907 6896 6895 6894 ] final -130.76 input  -60.11 | X-H torsion
[ 7974 7965 7964 7962 ] final   52.17 input  175.53 | X-H torsion
[ 8008 7997 7996 7995 ] final   46.32 input   59.86 | X-H torsion
[ 10167 10162 10161 10158 ] final  147.49 input  -65.29 | X-H torsion
[ 10718 10713 10712 10709 ] final  -16.22 input   66.30 | X-H torsion
[ 10763 10752 10751 10750 ] final -159.87 input  -60.55 | X-H torsion
[ 11005 11000 10999 10996 ] final -162.72 input  -57.11 | X-H torsion

> <Gold.Protein.ActiveResidues>
 VAL166  LYS551  ARG553  GLY616  TRP617  ASP618  TYR619  PRO620  LYS621  CYS622 
 ASP623  PHE694  ASN695  SER759  ASP760  ASP761  ALA762  ILE779  LEU786  VAL792 
 PHE793  MET794  SER795  GLU796  ALA797  LYS798  CYS799  TRP800  GLU811  SER814 

> <Gold.Protein.RotatedAtoms>
  150.9433  133.6631  159.2786 H   0  0  0  0  0  0  0  0  0  0  0  0  # atno 6907 bound_to 6896
  151.4013  135.0970  159.9566 H   0  0  0  0  0  0  0  0  0  0  0  0  # atno 6908 bound_to 6896
  152.5079  133.8926  159.7456 H   0  0  0  0  0  0  0  0  0  0  0  0  # atno 6909 bound_to 6896
  145.9840  139.4271  143.0114 H   0  0  0  0  0  0  0  0  0  0  0  0  # atno 7974 bound_to 7965
  155.3504  140.3413  155.4239 H   0  0  0  0  0  0  0  0  0  0  0  0  # atno 8008 bound_to 7997
  156.1767  140.1650  156.8386 H   0  0  0  0  0  0  0  0  0  0  0  0  # atno 8009 bound_to 7997
  154.5289  140.0750  156.8292 H   0  0  0  0  0  0  0  0  0  0  0  0  # atno 8010 bound_to 7997
  139.4889  144.5751  151.6980 H   0  0  0  0  0  0  0  0  0  0  0  0  # atno 10167 bound_to 10162
  156.5907  130.4798  149.6280 H   0  0  0  0  0  0  0  0  0  0  0  0  # atno 10718 bound_to 10713
  154.7438  135.3075  154.8681 H   0  0  0  0  0  0  0  0  0  0  0  0  # atno 10763 bound_to 10752
  153.9488  135.6766  153.4748 H   0  0  0  0  0  0  0  0  0  0  0  0  # atno 10764 bound_to 10752
  153.1035  135.4900  154.8836 H   0  0  0  0  0  0  0  0  0  0  0  0  # atno 10765 bound_to 10752
  140.6061  134.4897  157.5210 H   0  0  0  0  0  0  0  0  0  0  0  0  # atno 11005 bound_to 11000
  145.7728  140.9889  143.1140 LP  0  0  0  0  0  0  0  0  0  0  0  0  # atno 17320 bound_to 7965
  144.6869  139.9468  143.7477 LP  0  0  0  0  0  0  0  0  0  0  0  0  # atno 17321 bound_to 7965
  140.5346  144.0676  150.6066 LP  0  0  0  0  0  0  0  0  0  0  0  0  # atno 17342 bound_to 10162
  140.3678  143.2871  152.0312 LP  0  0  0  0  0  0  0  0  0  0  0  0  # atno 17343 bound_to 10162
  156.2552  130.6930  151.1681 LP  0  0  0  0  0  0  0  0  0  0  0  0  # atno 17370 bound_to 10713
  157.7304  131.0616  150.5727 LP  0  0  0  0  0  0  0  0  0  0  0  0  # atno 17371 bound_to 10713
  139.9211  134.8146  156.1207 LP  0  0  0  0  0  0  0  0  0  0  0  0  # atno 17394 bound_to 11000
  141.0839  133.6742  156.2395 LP  0  0  0  0  0  0  0  0  0  0  0  0  # atno 17395 bound_to 11000

$$$$
