AV-unprocessed.smi:630|AV-procd|sdf|3121|dock2
  -GOLD-   22720 0 43D 1   1.00000     0.00000
 Structure written by MMmdl.
 36 37  0  0  0  0  0  0  0  0  2 V2000
  150.8380  137.6424  153.8405 N   0  0  0  0  0  0  0  0  0  0  0  0
  151.0967  137.4101  155.1302 C   0  0  0  0  0  0  0  0  0  0  0  0
  151.5990  136.3554  155.5148 O   0  0  0  0  0  0  0  0  0  0  0  0
  150.7453  138.5262  156.1334 C   0  0  2  0  0  0  0  0  0  0  0  0
  151.2755  139.8780  155.5947 C   0  0  0  0  0  0  0  0  0  0  0  0
  150.6083  141.0978  156.2512 C   0  0  0  0  0  0  0  0  0  0  0  0
  151.2868  141.5976  157.5370 C   0  0  0  0  0  0  0  0  0  0  0  0
  151.8553  140.5132  158.4672 C   0  0  0  0  0  0  0  0  0  0  0  0
  150.9788  139.2608  158.6278 C   0  0  0  0  0  0  0  0  0  0  0  0
  151.2462  138.1728  157.5634 C   0  0  1  0  0  0  0  0  0  0  0  0
  150.6063  136.9337  158.0191 N   0  0  0  0  0  0  0  0  0  0  0  0
  149.3785  136.8023  158.5437 C   0  0  0  0  0  0  0  0  0  0  0  0
  148.6500  137.7883  158.6744 O   0  0  0  0  0  0  0  0  0  0  0  0
  149.0734  135.5309  158.8902 N   0  5  0  0  0  0  0  0  0  0  0  0
  148.1919  135.2982  159.8763 C   0  0  0  0  0  0  0  0  0  0  0  0
  147.6962  134.0842  160.1432 N   0  0  0  0  0  0  0  0  0  0  0  0
  146.7986  134.0743  161.2125 C   0  0  0  0  0  0  0  0  0  0  0  0
  146.6151  135.3074  161.7799 C   0  0  0  0  0  0  0  0  0  0  0  0
  147.5688  136.5256  160.9824 S   0  0  0  0  0  0  0  0  0  0  0  0
  151.0248  136.9246  153.1558 H   0  0  0  0  0  0  0  0  0  0  0  0
  150.4285  138.5212  153.5592 H   0  0  0  0  0  0  0  0  0  0  0  0
  149.6561  138.5914  156.1676 H   0  0  0  0  0  0  0  0  0  0  0  0
  152.3614  139.9394  155.6816 H   0  0  0  0  0  0  0  0  0  0  0  0
  151.0652  139.9348  154.5251 H   0  0  0  0  0  0  0  0  0  0  0  0
  150.5956  141.9226  155.5380 H   0  0  0  0  0  0  0  0  0  0  0  0
  149.5590  140.8780  156.4508 H   0  0  0  0  0  0  0  0  0  0  0  0
  152.0991  142.2756  157.2725 H   0  0  0  0  0  0  0  0  0  0  0  0
  150.5674  142.2039  158.0886 H   0  0  0  0  0  0  0  0  0  0  0  0
  152.8501  140.2205  158.1293 H   0  0  0  0  0  0  0  0  0  0  0  0
  152.0097  140.9639  159.4483 H   0  0  0  0  0  0  0  0  0  0  0  0
  151.2045  138.8354  159.6070 H   0  0  0  0  0  0  0  0  0  0  0  0
  149.9216  139.5273  158.6598 H   0  0  0  0  0  0  0  0  0  0  0  0
  152.3262  138.0241  157.5092 H   0  0  0  0  0  0  0  0  0  0  0  0
  151.1534  136.0899  157.9330 H   0  0  0  0  0  0  0  0  0  0  0  0
  146.3363  133.1427  161.5031 H   0  0  0  0  0  0  0  0  0  0  0  0
  145.9819  135.5726  162.6128 H   0  0  0  0  0  0  0  0  0  0  0  0
  1  2  1  0  0  0  0
  1 20  1  0  0  0  0
  1 21  1  0  0  0  0
  2  3  2  0  0  0  0
  2  4  1  0  0  0  0
  4 10  1  0  0  0  0
  4  5  1  0  0  0  0
  4 22  1  0  0  0  0
  5  6  1  0  0  0  0
  5 23  1  0  0  0  0
  5 24  1  0  0  0  0
  6  7  1  0  0  0  0
  6 25  1  0  0  0  0
  6 26  1  0  0  0  0
  7  8  1  0  0  0  0
  7 27  1  0  0  0  0
  7 28  1  0  0  0  0
  8  9  1  0  0  0  0
  8 29  1  0  0  0  0
  8 30  1  0  0  0  0
  9 10  1  0  0  0  0
  9 31  1  0  0  0  0
  9 32  1  0  0  0  0
 10 11  1  0  0  0  0
 10 33  1  0  0  0  0
 11 12  1  0  0  0  0
 11 34  1  0  0  0  0
 12 13  2  0  0  0  0
 12 14  1  0  0  0  0
 14 15  1  0  0  0  0
 15 19  1  0  0  0  0
 15 16  2  0  0  0  0
 16 17  1  0  0  0  0
 17 18  2  0  0  0  0
 17 35  1  0  0  0  0
 18 19  1  0  0  0  0
 18 36  1  0  0  0  0
M  CHG  1  14  -1
M  END
> <s_m_source_file>
AV-unprocessed.smi

> <i_m_source_file_index>
630

> <i_lp_mmshare_version>
43012

> <i_f3d_flags>
0

> <s_epik_input>
W05IMl1DKD1PKVtDQEBIXTFbQ0gyXVtDSDJdW0NIMl1bQ0gyXVtDSDJdW0NASF0xW05IXUMoPU8pW05IXWMybltjSF1bY0hdczI=

> <s_epik_cmdline>
J2VwaWtfcHl0aG9uJywgJy1waCcsICc3LjAnLCAnLXRuJywgJzgnLCAnLW1hJywgJzIwMCcsICctbWV0YWxfYmluZGluZycsICctaW1hZScsICc8aW5maWxlLm1hZT4nLCAnLW9tYWUnLCAnPG91dGZpbGUubWFlPic=

> <r_lp_tautomer_probability>
0.999

> <r_epik_Ionization_Penalty>
8.29606

> <r_epik_Ionization_Penalty_Charging>
6.67551

> <r_epik_Ionization_Penalty_Neutral>
1.62055

> <r_epik_State_Penalty>
6.67568

> <r_epik_Charging_Adjusted_Penalty>
13.3512

> <i_epik_Tot_Q>
-1

> <i_epik_Tot_abs_Q>
1

> <r_epik_Metal_State_Penalty>
2.59802

> <b_epik_Metal_Only>
1

> <s_lp_Force_Field>
OPLS_2005

> <r_lp_Energy>
8.76486

> <b_lp_Chiralities_Consistent>
1

> <s_lp_Variant>
AV-unprocessed.smi:630-5

> <Gold.Version>
5.8.1

> <Gold.Id.Protein>
6NUR|6NUR_protein|mol2

> <Gold.PLP.Fitness>
40.6629

> <Gold.PLP.PLP>
-29.8079

> <Gold.PLP.part.hbond>
-4.0533

> <Gold.PLP.part.metal>
0.0000

> <Gold.PLP.part.buried>
-4.4360

> <Gold.PLP.part.nonpolar>
-22.0891

> <Gold.PLP.part.repulsive>
0.2612

> <Gold.PLP.ligand.clash>
0.0000

> <Gold.PLP.ligand.torsion>
0.6154

> <Gold.PLP.Chemscore.Hbond>
4.0000

> <Gold.PLP.Chemscore.CHOScore>
0.0000

> <Gold.PLP.Chemscore.Metal>
0.0000

> <Gold.Chemscore.Hbonds>
donor molecule, donor type, donor heavy atom, donor atom, acceptor molecule, acceptor atom, score
      L1  H     1    20       P1  7949  1.00
      P1  H  6896  6907       L1    14  2.00
      P1  H 10752 10765       L1     3  1.00

> <Gold.PLP.Chemscore.Internal.Correction>
0.0857

> <Gold.Rescore>
     Score         DG    S(hbond)    S(metal)    S(lipo)     H(rot)  DE(clash)    DE(int)     intcor
     13.15     -16.13       2.41        0.00      55.00       1.50       0.00       2.98       ----

> <Gold.Chemscore.Fitness>
13.1531

> <Gold.Chemscore.DG>
-16.1286

> <Gold.Chemscore.ZeroCoef>
-5.4800

> <Gold.Chemscore.Hbond>
2.4147

> <Gold.Chemscore.Metal>
0.0000

> <Gold.Chemscore.Lipo>
54.9977

> <Gold.Chemscore.Internal_Hbond>
0.0000

> <Gold.Chemscore.DEClash>
0.0000

> <Gold.Chemscore.DEInternal>
2.9755

> <Gold.Chemscore.Rot>
1.5044

> <Gold.Chemscore.Internal.Correction>
   9.000000E+99

> <Gold.Chemscore.Hbonds>
donor molecule, donor type, donor heavy atom, donor atom, acceptor molecule, acceptor atom, score
      L1  H     1    20       P1  7949  0.30
      P1  H  6896  6907       L1    14  0.25
      P1  H 10752 10765       L1     3  1.00

> <Gold.Chemscore.Hbond.Weighted>
-8.0650

> <Gold.Chemscore.Metal.Weighted>
-0.0000

> <Gold.Chemscore.Lipo.Weighted>
-6.4347

> <Gold.Chemscore.Internal_Hbond.Weighted>
0.0000

> <Gold.Chemscore.DEClash.Weighted>
0.0000

> <Gold.Chemscore.DEInternal.Weighted>
2.9755

> <Gold.Chemscore.Rot.Weighted>
3.8512

> <Gold.Chemscore.Internal.Correction.Weighted>
   9.000000E+99

> <Gold.Protein.RotatedTorsions>
[ 6907 6896 6895 6894 ] final  -66.95 input  -60.11 | X-H torsion
[ 7974 7965 7964 7962 ] final   94.32 input  175.53 | X-H torsion
[ 8008 7997 7996 7995 ] final  114.01 input   59.86 | X-H torsion
[ 10167 10162 10161 10158 ] final   54.43 input  -65.29 | X-H torsion
[ 10718 10713 10712 10709 ] final   71.16 input   66.30 | X-H torsion
[ 10763 10752 10751 10750 ] final -163.78 input  -60.55 | X-H torsion
[ 11005 11000 10999 10996 ] final  114.52 input  -57.11 | X-H torsion

> <Gold.Protein.ActiveResidues>
 VAL166  LYS551  ARG553  GLY616  TRP617  ASP618  TYR619  PRO620  LYS621  CYS622 
 ASP623  PHE694  ASN695  SER759  ASP760  ASP761  ALA762  ILE779  LEU786  VAL792 
 PHE793  MET794  SER795  GLU796  ALA797  LYS798  CYS799  TRP800  GLU811  SER814 

> <Gold.Protein.RotatedAtoms>
  150.7436  134.5949  159.6006 H   0  0  0  0  0  0  0  0  0  0  0  0  # atno 6907 bound_to 6896
  152.3326  134.7236  160.0294 H   0  0  0  0  0  0  0  0  0  0  0  0  # atno 6908 bound_to 6896
  151.7715  133.3306  159.3482 H   0  0  0  0  0  0  0  0  0  0  0  0  # atno 6909 bound_to 6896
  145.4671  139.2284  143.2955 H   0  0  0  0  0  0  0  0  0  0  0  0  # atno 7974 bound_to 7965
  156.2294  140.2968  156.0149 H   0  0  0  0  0  0  0  0  0  0  0  0  # atno 8008 bound_to 7997
  155.2267  140.0417  157.2973 H   0  0  0  0  0  0  0  0  0  0  0  0  # atno 8009 bound_to 7997
  154.5970  140.2417  155.7851 H   0  0  0  0  0  0  0  0  0  0  0  0  # atno 8010 bound_to 7997
  140.2302  144.3694  150.6417 H   0  0  0  0  0  0  0  0  0  0  0  0  # atno 10167 bound_to 10162
  157.6437  130.9514  150.0750 H   0  0  0  0  0  0  0  0  0  0  0  0  # atno 10718 bound_to 10713
  154.7090  135.3002  154.9226 H   0  0  0  0  0  0  0  0  0  0  0  0  # atno 10763 bound_to 10752
  154.0134  135.6692  153.4771 H   0  0  0  0  0  0  0  0  0  0  0  0  # atno 10764 bound_to 10752
  153.0740  135.5045  154.8277 H   0  0  0  0  0  0  0  0  0  0  0  0  # atno 10765 bound_to 10752
  139.8983  134.9569  156.6905 H   0  0  0  0  0  0  0  0  0  0  0  0  # atno 11005 bound_to 11000
  146.2418  140.5446  142.8931 LP  0  0  0  0  0  0  0  0  0  0  0  0  # atno 17320 bound_to 7965
  144.7967  140.6137  143.6505 LP  0  0  0  0  0  0  0  0  0  0  0  0  # atno 17321 bound_to 7965
  140.6190  143.2174  151.6732 LP  0  0  0  0  0  0  0  0  0  0  0  0  # atno 17342 bound_to 10162
  139.5112  144.3515  152.0647 LP  0  0  0  0  0  0  0  0  0  0  0  0  # atno 17343 bound_to 10162
  156.1743  130.3647  149.9121 LP  0  0  0  0  0  0  0  0  0  0  0  0  # atno 17370 bound_to 10713
  156.7089  130.8962  151.3607 LP  0  0  0  0  0  0  0  0  0  0  0  0  # atno 17371 bound_to 10713
  140.7228  133.9126  155.8158 LP  0  0  0  0  0  0  0  0  0  0  0  0  # atno 17394 bound_to 11000
  141.0214  134.0884  157.4116 LP  0  0  0  0  0  0  0  0  0  0  0  0  # atno 17395 bound_to 11000

$$$$
