AV-unprocessed.smi:1203|AV-procd|sdf|5034|dock7
  -GOLD-   22720 4 53D 1   1.00000     0.00000
 Structure written by MMmdl.
 39 40  0  0  0  0  0  0  0  0  1 V2000
  146.3883  134.9554  162.4383 C   0  0  0  0  0  0  0  0  0  0  0  0
  147.1695  136.4690  161.7477 S   0  0  0  0  0  0  0  0  0  0  0  0
  146.1205  137.3766  161.2589 O   0  0  0  0  0  0  0  0  0  0  0  0
  148.1653  136.9515  162.7166 O   0  0  0  0  0  0  0  0  0  0  0  0
  148.0281  135.8623  160.3728 N   0  0  0  0  0  0  0  0  0  0  0  0
  147.8710  134.4468  160.0071 C   0  0  0  0  0  0  0  0  0  0  0  0
  148.1082  134.3801  158.4999 C   0  0  0  0  0  0  0  0  0  0  0  0
  147.6529  135.7528  158.0254 C   0  0  0  0  0  0  0  0  0  0  0  0
  148.1054  136.6942  159.1568 C   0  0  2  0  0  0  0  0  0  0  0  0
  149.5027  137.3040  158.9452 C   0  0  0  0  0  0  0  0  0  0  0  0
  150.5246  136.6705  159.2108 O   0  0  0  0  0  0  0  0  0  0  0  0
  149.5288  138.5620  158.4790 N   0  0  0  0  0  0  0  0  0  0  0  0
  150.7228  139.3869  158.3365 C   0  0  0  0  0  0  0  0  0  0  0  0
  150.4336  140.7237  157.6241 C   0  0  0  0  0  0  0  0  0  0  0  0
  151.1836  141.9041  158.2200 C   0  0  0  0  0  0  0  0  0  0  0  0
  152.0075  141.7423  159.3535 C   0  0  0  0  0  0  0  0  0  0  0  0
  152.6747  142.8676  159.8740 C   0  0  0  0  0  0  0  0  0  0  0  0
  152.4906  144.1101  159.2360 C   0  0  0  0  0  0  0  0  0  0  0  0
  151.7010  144.2780  158.1533 N   0  0  0  0  0  0  0  0  0  0  0  0
  151.0652  143.1935  157.6599 C   0  0  0  0  0  0  0  0  0  0  0  0
  145.8159  135.2172  163.3278 H   0  0  0  0  0  0  0  0  0  0  0  0
  147.1641  134.2397  162.7073 H   0  0  0  0  0  0  0  0  0  0  0  0
  145.7229  134.5119  161.6982 H   0  0  0  0  0  0  0  0  0  0  0  0
  148.5668  133.8218  160.5665 H   0  0  0  0  0  0  0  0  0  0  0  0
  146.8570  134.1200  160.2396 H   0  0  0  0  0  0  0  0  0  0  0  0
  149.1712  134.2472  158.2938 H   0  0  0  0  0  0  0  0  0  0  0  0
  147.5655  133.5643  158.0221 H   0  0  0  0  0  0  0  0  0  0  0  0
  148.0432  136.0027  157.0385 H   0  0  0  0  0  0  0  0  0  0  0  0
  146.5647  135.7731  157.9501 H   0  0  0  0  0  0  0  0  0  0  0  0
  147.3992  137.5222  159.2308 H   0  0  0  0  0  0  0  0  0  0  0  0
  148.6438  139.0039  158.2738 H   0  0  0  0  0  0  0  0  0  0  0  0
  151.1872  139.5604  159.3083 H   0  0  0  0  0  0  0  0  0  0  0  0
  151.4399  138.8125  157.7494 H   0  0  0  0  0  0  0  0  0  0  0  0
  150.6935  140.6390  156.5682 H   0  0  0  0  0  0  0  0  0  0  0  0
  149.3637  140.9322  157.6532 H   0  0  0  0  0  0  0  0  0  0  0  0
  152.1219  140.7760  159.8223 H   0  0  0  0  0  0  0  0  0  0  0  0
  153.3110  142.7803  160.7421 H   0  0  0  0  0  0  0  0  0  0  0  0
  152.9857  144.9943  159.6095 H   0  0  0  0  0  0  0  0  0  0  0  0
  150.4402  143.3603  156.7951 H   0  0  0  0  0  0  0  0  0  0  0  0
  1  2  1  0  0  0  0
  1 21  1  0  0  0  0
  1 22  1  0  0  0  0
  1 23  1  0  0  0  0
  2  3  2  0  0  0  0
  2  4  2  0  0  0  0
  2  5  1  0  0  0  0
  5  9  1  0  0  0  0
  5  6  1  0  0  0  0
  6  7  1  0  0  0  0
  6 24  1  0  0  0  0
  6 25  1  0  0  0  0
  7  8  1  0  0  0  0
  7 26  1  0  0  0  0
  7 27  1  0  0  0  0
  8  9  1  0  0  0  0
  8 28  1  0  0  0  0
  8 29  1  0  0  0  0
  9 10  1  0  0  0  0
  9 30  1  0  0  0  0
 10 11  2  0  0  0  0
 10 12  1  0  0  0  0
 12 13  1  0  0  0  0
 12 31  1  0  0  0  0
 13 14  1  0  0  0  0
 13 32  1  0  0  0  0
 13 33  1  0  0  0  0
 14 15  1  0  0  0  0
 14 34  1  0  0  0  0
 14 35  1  0  0  0  0
 15 20  1  0  0  0  0
 15 16  2  0  0  0  0
 16 17  1  0  0  0  0
 16 36  1  0  0  0  0
 17 18  2  0  0  0  0
 17 37  1  0  0  0  0
 18 19  1  0  0  0  0
 18 38  1  0  0  0  0
 19 20  2  0  0  0  0
 20 39  1  0  0  0  0
M  END
> <s_m_source_file>
AV-unprocessed.smi

> <i_m_source_file_index>
1203

> <i_lp_mmshare_version>
43012

> <i_f3d_flags>
0

> <s_epik_input>
W0NIM11TKD1PKSg9TylOMVtDSDJdW0NIMl1bQ0gyXVtDQEhdMUMoPU8pW05IXVtDSDJdW0NIMl1jMltjSF1bY0hdW2NIXW5bY0hdMg==

> <s_epik_cmdline>
J2VwaWtfcHl0aG9uJywgJy1waCcsICc3LjAnLCAnLXRuJywgJzgnLCAnLW1hJywgJzIwMCcsICctbWV0YWxfYmluZGluZycsICctaW1hZScsICc8aW5maWxlLm1hZT4nLCAnLW9tYWUnLCAnPG91dGZpbGUubWFlPic=

> <r_epik_Ionization_Penalty>
0.0126915

> <r_epik_Ionization_Penalty_Charging>
0

> <r_epik_Ionization_Penalty_Neutral>
0.0126915

> <r_epik_State_Penalty>
0.0098379

> <r_epik_Charging_Adjusted_Penalty>
0.0098379

> <i_epik_Tot_Q>
0

> <i_epik_Tot_abs_Q>
0

> <r_epik_Metal_State_Penalty>
0.00962905

> <b_epik_Metal_Only>
0

> <s_lp_Force_Field>
OPLS_2005

> <r_lp_Energy>
4.44391

> <b_lp_Chiralities_Consistent>
1

> <s_lp_Variant>
AV-unprocessed.smi:1203-2

> <Gold.Version>
5.8.1

> <Gold.Id.Protein>
6NUR|6NUR_protein|mol2

> <Gold.PLP.Fitness>
45.6240

> <Gold.PLP.PLP>
-36.3072

> <Gold.PLP.part.hbond>
-2.7965

> <Gold.PLP.part.metal>
0.0000

> <Gold.PLP.part.buried>
-6.8125

> <Gold.PLP.part.nonpolar>
-27.1575

> <Gold.PLP.part.repulsive>
0.2738

> <Gold.PLP.ligand.clash>
0.0000

> <Gold.PLP.ligand.torsion>
1.4366

> <Gold.PLP.Chemscore.Hbond>
2.8640

> <Gold.PLP.Chemscore.CHOScore>
1.0000

> <Gold.PLP.Chemscore.Metal>
0.0000

> <Gold.Chemscore.Hbonds>
donor molecule, donor type, donor heavy atom, donor atom, acceptor molecule, acceptor atom, score
      P1  H  6896  6907       L1    11  1.00
      P1  H  6931  6943       L1     4  0.93
      P1  H  6934  6947       L1     3  1.00
      L1  C    20    39       P1  8028  1.00

> <Gold.PLP.Chemscore.Internal.Correction>
0.5980

> <Gold.Rescore>
     Score         DG    S(hbond)    S(metal)    S(lipo)     H(rot)  DE(clash)    DE(int)     intcor
     16.17     -17.58       2.28        0.00      79.87       1.90       0.00       1.41       ----

> <Gold.Chemscore.Fitness>
16.1690

> <Gold.Chemscore.DG>
-17.5820

> <Gold.Chemscore.ZeroCoef>
-5.4800

> <Gold.Chemscore.Hbond>
2.2810

> <Gold.Chemscore.Metal>
0.0000

> <Gold.Chemscore.Lipo>
79.8696

> <Gold.Chemscore.Internal_Hbond>
0.0000

> <Gold.Chemscore.DEClash>
0.0000

> <Gold.Chemscore.DEInternal>
1.4131

> <Gold.Chemscore.Rot>
1.8990

> <Gold.Chemscore.Internal.Correction>
   9.000000E+99

> <Gold.Chemscore.Hbonds>
donor molecule, donor type, donor heavy atom, donor atom, acceptor molecule, acceptor atom, score
      P1  H  6896  6907       L1    11  1.00
      P1  H  6931  6943       L1     4  0.55
      P1  H  6934  6947       L1     3  0.34

> <Gold.Chemscore.Hbond.Weighted>
-7.6186

> <Gold.Chemscore.Metal.Weighted>
-0.0000

> <Gold.Chemscore.Lipo.Weighted>
-9.3447

> <Gold.Chemscore.Internal_Hbond.Weighted>
0.0000

> <Gold.Chemscore.DEClash.Weighted>
0.0000

> <Gold.Chemscore.DEInternal.Weighted>
1.4131

> <Gold.Chemscore.Rot.Weighted>
4.8613

> <Gold.Chemscore.Internal.Correction.Weighted>
   9.000000E+99

> <Gold.Protein.RotatedTorsions>
[ 6907 6896 6895 6894 ] final  -32.73 input  -60.11 | X-H torsion
[ 7974 7965 7964 7962 ] final -146.29 input  175.53 | X-H torsion
[ 8008 7997 7996 7995 ] final -163.51 input   59.86 | X-H torsion
[ 10167 10162 10161 10158 ] final  -54.32 input  -65.29 | X-H torsion
[ 10718 10713 10712 10709 ] final -130.18 input   66.30 | X-H torsion
[ 10763 10752 10751 10750 ] final   65.64 input  -60.55 | X-H torsion
[ 11005 11000 10999 10996 ] final  -63.68 input  -57.11 | X-H torsion

> <Gold.Protein.ActiveResidues>
 VAL166  LYS551  ARG553  GLY616  TRP617  ASP618  TYR619  PRO620  LYS621  CYS622 
 ASP623  PHE694  ASN695  SER759  ASP760  ASP761  ALA762  ILE779  LEU786  VAL792 
 PHE793  MET794  SER795  GLU796  ALA797  LYS798  CYS799  TRP800  GLU811  SER814 

> <Gold.Protein.RotatedAtoms>
  151.0750  134.9822  159.8327 H   0  0  0  0  0  0  0  0  0  0  0  0  # atno 6907 bound_to 6896
  152.5413  134.2252  159.8813 H   0  0  0  0  0  0  0  0  0  0  0  0  # atno 6908 bound_to 6896
  151.2279  133.4423  159.2636 H   0  0  0  0  0  0  0  0  0  0  0  0  # atno 6909 bound_to 6896
  144.8169  140.5475  143.5604 H   0  0  0  0  0  0  0  0  0  0  0  0  # atno 7974 bound_to 7965
  155.8223  140.0921  157.1841 H   0  0  0  0  0  0  0  0  0  0  0  0  # atno 8008 bound_to 7997
  154.3979  140.1434  156.3575 H   0  0  0  0  0  0  0  0  0  0  0  0  # atno 8009 bound_to 7997
  155.8253  140.3445  155.5541 H   0  0  0  0  0  0  0  0  0  0  0  0  # atno 8010 bound_to 7997
  140.6437  143.2522  151.4919 H   0  0  0  0  0  0  0  0  0  0  0  0  # atno 10167 bound_to 10162
  156.2119  130.6923  151.0659 H   0  0  0  0  0  0  0  0  0  0  0  0  # atno 10718 bound_to 10713
  153.0105  135.5349  154.6699 H   0  0  0  0  0  0  0  0  0  0  0  0  # atno 10763 bound_to 10752
  154.5886  135.2856  155.0661 H   0  0  0  0  0  0  0  0  0  0  0  0  # atno 10764 bound_to 10752
  154.1762  135.6524  153.5075 H   0  0  0  0  0  0  0  0  0  0  0  0  # atno 10765 bound_to 10752
  141.1401  133.6655  156.5717 H   0  0  0  0  0  0  0  0  0  0  0  0  # atno 11005 bound_to 11000
  145.5193  139.1477  143.3561 LP  0  0  0  0  0  0  0  0  0  0  0  0  # atno 17320 bound_to 7965
  146.2473  140.5334  142.8908 LP  0  0  0  0  0  0  0  0  0  0  0  0  # atno 17321 bound_to 7965
  139.5646  144.2072  152.1746 LP  0  0  0  0  0  0  0  0  0  0  0  0  # atno 17342 bound_to 10162
  140.1350  144.5254  150.6779 LP  0  0  0  0  0  0  0  0  0  0  0  0  # atno 17343 bound_to 10162
  157.7043  131.0763  150.6720 LP  0  0  0  0  0  0  0  0  0  0  0  0  # atno 17370 bound_to 10713
  156.6780  130.4559  149.5636 LP  0  0  0  0  0  0  0  0  0  0  0  0  # atno 17371 bound_to 10713
  140.3908  134.7442  157.4720 LP  0  0  0  0  0  0  0  0  0  0  0  0  # atno 17394 bound_to 11000
  140.0568  134.6052  155.8796 LP  0  0  0  0  0  0  0  0  0  0  0  0  # atno 17395 bound_to 11000

$$$$
