AV-unprocessed.smi:699|AV-procd|sdf|3404|dock4
  -GOLD-   22720 0383D 1   1.00000     0.00000
 Structure written by MMmdl.
 35 36  0  0  0  0  0  0  0  0  2 V2000
  149.4079  145.4544  160.9452 N   0  0  0  0  0  0  0  0  0  0  0  0
  149.9031  144.5894  160.0566 C   0  0  0  0  0  0  0  0  0  0  0  0
  149.1889  143.7710  159.4794 O   0  0  0  0  0  0  0  0  0  0  0  0
  151.4194  144.6688  159.7743 C   0  0  1  0  0  0  0  0  0  0  0  0
  152.2278  144.4355  161.0591 C   0  0  0  0  0  0  0  0  0  0  0  0
  152.4342  142.9215  161.1514 C   0  0  0  0  0  0  0  0  0  0  0  0
  152.4378  142.4104  159.7053 C   0  0  0  0  0  0  0  0  0  0  0  0
  151.9726  143.5796  158.8157 C   0  0  1  0  0  0  0  0  0  0  0  0
  151.0309  143.1234  157.7911 N   0  0  0  0  0  0  0  0  0  0  0  0
  151.1341  141.9733  157.1100 C   0  0  0  0  0  0  0  0  0  0  0  0
  152.0399  141.1596  157.2889 O   0  0  0  0  0  0  0  0  0  0  0  0
  150.1258  141.8364  156.2315 N   0  0  0  0  0  0  0  0  0  0  0  0
  149.8840  140.7809  155.3101 C   0  0  0  0  0  0  0  0  0  0  0  0
  148.6750  140.8188  154.5802 C   0  0  0  0  0  0  0  0  0  0  0  0
  148.3945  139.8031  153.6436 C   0  0  0  0  0  0  0  0  0  0  0  0
  149.2849  138.8080  153.4444 N   0  3  0  0  0  0  0  0  0  0  0  0
  150.4588  138.7358  154.1076 C   0  0  0  0  0  0  0  0  0  0  0  0
  150.7945  139.7232  155.0562 C   0  0  0  0  0  0  0  0  0  0  0  0
  148.4234  145.4348  161.1685 H   0  0  0  0  0  0  0  0  0  0  0  0
  150.0192  146.1192  161.3970 H   0  0  0  0  0  0  0  0  0  0  0  0
  151.6398  145.6590  159.3716 H   0  0  0  0  0  0  0  0  0  0  0  0
  153.1955  144.9305  160.9681 H   0  0  0  0  0  0  0  0  0  0  0  0
  151.7469  144.8375  161.9523 H   0  0  0  0  0  0  0  0  0  0  0  0
  153.3525  142.6672  161.6816 H   0  0  0  0  0  0  0  0  0  0  0  0
  151.6079  142.4672  161.6996 H   0  0  0  0  0  0  0  0  0  0  0  0
  153.4350  142.0836  159.4092 H   0  0  0  0  0  0  0  0  0  0  0  0
  151.7796  141.5445  159.6193 H   0  0  0  0  0  0  0  0  0  0  0  0
  152.8556  143.9861  158.3186 H   0  0  0  0  0  0  0  0  0  0  0  0
  150.2574  143.7377  157.5817 H   0  0  0  0  0  0  0  0  0  0  0  0
  149.4193  142.5571  156.2575 H   0  0  0  0  0  0  0  0  0  0  0  0
  147.9629  141.6163  154.7375 H   0  0  0  0  0  0  0  0  0  0  0  0
  147.4924  139.7586  153.0510 H   0  0  0  0  0  0  0  0  0  0  0  0
  151.0939  137.8985  153.8574 H   0  0  0  0  0  0  0  0  0  0  0  0
  151.7469  139.6536  155.5583 H   0  0  0  0  0  0  0  0  0  0  0  0
  149.0641  138.0831  152.7611 H   0  0  0  0  0  0  0  0  0  0  0  0
  1  2  1  0  0  0  0
  1 19  1  0  0  0  0
  1 20  1  0  0  0  0
  2  3  2  0  0  0  0
  2  4  1  0  0  0  0
  4  8  1  0  0  0  0
  4  5  1  0  0  0  0
  4 21  1  0  0  0  0
  5  6  1  0  0  0  0
  5 22  1  0  0  0  0
  5 23  1  0  0  0  0
  6  7  1  0  0  0  0
  6 24  1  0  0  0  0
  6 25  1  0  0  0  0
  7  8  1  0  0  0  0
  7 26  1  0  0  0  0
  7 27  1  0  0  0  0
  8  9  1  0  0  0  0
  8 28  1  0  0  0  0
  9 10  1  0  0  0  0
  9 29  1  0  0  0  0
 10 11  2  0  0  0  0
 10 12  1  0  0  0  0
 12 13  1  0  0  0  0
 12 30  1  0  0  0  0
 13 18  1  0  0  0  0
 13 14  2  0  0  0  0
 14 15  1  0  0  0  0
 14 31  1  0  0  0  0
 15 16  2  0  0  0  0
 15 32  1  0  0  0  0
 16 17  1  0  0  0  0
 16 35  1  0  0  0  0
 17 18  2  0  0  0  0
 17 33  1  0  0  0  0
 18 34  1  0  0  0  0
M  CHG  1  16   1
M  END
> <s_m_source_file>
AV-unprocessed.smi

> <i_m_source_file_index>
699

> <i_lp_mmshare_version>
43012

> <i_f3d_flags>
0

> <s_epik_input>
W05IMl1DKD1PKVtDQEBIXTFbQ0gyXVtDSDJdW0NIMl1bQ0BIXTFbTkhdQyg9TylbTkhdYzJbY0hdW2NIXW5bY0hdW2NIXTI=

> <s_epik_cmdline>
J2VwaWtfcHl0aG9uJywgJy1waCcsICc3LjAnLCAnLXRuJywgJzgnLCAnLW1hJywgJzIwMCcsICctbWV0YWxfYmluZGluZycsICctaW1hZScsICc8aW5maWxlLm1hZT4nLCAnLW9tYWUnLCAnPG91dGZpbGUubWFlPic=

> <r_epik_Ionization_Penalty>
1.0332

> <r_epik_Ionization_Penalty_Charging>
1.03318

> <r_epik_Ionization_Penalty_Neutral>
1.91967e-05

> <r_epik_State_Penalty>
1.08452

> <r_epik_Charging_Adjusted_Penalty>
2.11769

> <i_epik_Tot_Q>
1

> <i_epik_Tot_abs_Q>
1

> <r_epik_Metal_State_Penalty>
1.18144

> <b_epik_Metal_Only>
0

> <s_lp_Force_Field>
OPLS_2005

> <r_lp_Energy>
24.8241

> <b_lp_Chiralities_Consistent>
1

> <s_lp_Variant>
AV-unprocessed.smi:699-6

> <Gold.Version>
5.8.1

> <Gold.Id.Protein>
6NUR|6NUR_protein|mol2

> <Gold.PLP.Fitness>
44.9169

> <Gold.PLP.PLP>
-38.3814

> <Gold.PLP.part.hbond>
-3.7396

> <Gold.PLP.part.metal>
0.0000

> <Gold.PLP.part.buried>
-2.2169

> <Gold.PLP.part.nonpolar>
-33.1629

> <Gold.PLP.part.repulsive>
1.8514

> <Gold.PLP.ligand.clash>
0.0034

> <Gold.PLP.ligand.torsion>
0.3092

> <Gold.PLP.Chemscore.Hbond>
2.3806

> <Gold.PLP.Chemscore.CHOScore>
0.0000

> <Gold.PLP.Chemscore.Metal>
0.0000

> <Gold.Chemscore.Hbonds>
donor molecule, donor type, donor heavy atom, donor atom, acceptor molecule, acceptor atom, score
      L1  H    12    30       P1  8028  0.28
      L1  H    16    35       P1  7948  2.00

> <Gold.PLP.Chemscore.Internal.Correction>
0.0155

> <Gold.Rescore>
     Score         DG    S(hbond)    S(metal)    S(lipo)     H(rot)  DE(clash)    DE(int)     intcor
     11.96     -15.26       0.99        0.00      88.29       1.50       0.29       3.01       ----

> <Gold.Chemscore.Fitness>
11.9628

> <Gold.Chemscore.DG>
-15.2609

> <Gold.Chemscore.ZeroCoef>
-5.4800

> <Gold.Chemscore.Hbond>
0.9884

> <Gold.Chemscore.Metal>
0.0000

> <Gold.Chemscore.Lipo>
88.2850

> <Gold.Chemscore.Internal_Hbond>
0.0000

> <Gold.Chemscore.DEClash>
0.2871

> <Gold.Chemscore.DEInternal>
3.0110

> <Gold.Chemscore.Rot>
1.5038

> <Gold.Chemscore.Internal.Correction>
   9.000000E+99

> <Gold.Chemscore.Hbonds>
donor molecule, donor type, donor heavy atom, donor atom, acceptor molecule, acceptor atom, score
      L1  H    12    30       P1  8028  0.28
      L1  H    16    35       P1  7948  0.92

> <Gold.Chemscore.Hbond.Weighted>
-3.3012

> <Gold.Chemscore.Metal.Weighted>
-0.0000

> <Gold.Chemscore.Lipo.Weighted>
-10.3293

> <Gold.Chemscore.Internal_Hbond.Weighted>
0.0000

> <Gold.Chemscore.DEClash.Weighted>
0.2871

> <Gold.Chemscore.DEInternal.Weighted>
3.0110

> <Gold.Chemscore.Rot.Weighted>
3.8496

> <Gold.Chemscore.Internal.Correction.Weighted>
   9.000000E+99

> <Gold.Protein.RotatedTorsions>
[ 6907 6896 6895 6894 ] final -148.72 input  -60.11 | X-H torsion
[ 7974 7965 7964 7962 ] final   41.01 input  175.53 | X-H torsion
[ 8008 7997 7996 7995 ] final -174.00 input   59.86 | X-H torsion
[ 10167 10162 10161 10158 ] final   65.45 input  -65.29 | X-H torsion
[ 10718 10713 10712 10709 ] final  -89.92 input   66.30 | X-H torsion
[ 10763 10752 10751 10750 ] final -173.42 input  -60.55 | X-H torsion
[ 11005 11000 10999 10996 ] final -122.43 input  -57.11 | X-H torsion

> <Gold.Protein.ActiveResidues>
 VAL166  LYS551  ARG553  GLY616  TRP617  ASP618  TYR619  PRO620  LYS621  CYS622 
 ASP623  PHE694  ASN695  SER759  ASP760  ASP761  ALA762  ILE779  LEU786  VAL792 
 PHE793  MET794  SER795  GLU796  ALA797  LYS798  CYS799  TRP800  GLU811  SER814 

> <Gold.Protein.RotatedAtoms>
  151.1738  133.4767  159.2593 H   0  0  0  0  0  0  0  0  0  0  0  0  # atno 6907 bound_to 6896
  151.1329  135.0139  159.8600 H   0  0  0  0  0  0  0  0  0  0  0  0  # atno 6908 bound_to 6896
  152.5460  134.1639  159.8622 H   0  0  0  0  0  0  0  0  0  0  0  0  # atno 6909 bound_to 6896
  146.0859  139.5466  142.9507 H   0  0  0  0  0  0  0  0  0  0  0  0  # atno 7974 bound_to 7965
  155.9645  140.1151  157.0866 H   0  0  0  0  0  0  0  0  0  0  0  0  # atno 8008 bound_to 7997
  154.4140  140.1175  156.5291 H   0  0  0  0  0  0  0  0  0  0  0  0  # atno 8009 bound_to 7997
  155.6677  140.3473  155.4808 H   0  0  0  0  0  0  0  0  0  0  0  0  # atno 8010 bound_to 7997
  140.1112  144.4816  150.6977 H   0  0  0  0  0  0  0  0  0  0  0  0  # atno 10167 bound_to 10162
  155.9986  130.4890  150.5244 H   0  0  0  0  0  0  0  0  0  0  0  0  # atno 10718 bound_to 10713
  154.6081  135.2861  155.0463 H   0  0  0  0  0  0  0  0  0  0  0  0  # atno 10763 bound_to 10752
  154.1703  135.6473  153.5011 H   0  0  0  0  0  0  0  0  0  0  0  0  # atno 10764 bound_to 10752
  153.0183  135.5399  154.6824 H   0  0  0  0  0  0  0  0  0  0  0  0  # atno 10765 bound_to 10752
  140.9996  134.0422  157.3554 H   0  0  0  0  0  0  0  0  0  0  0  0  # atno 11005 bound_to 11000
  145.6131  141.0336  143.1955 LP  0  0  0  0  0  0  0  0  0  0  0  0  # atno 17320 bound_to 7965
  144.7325  139.7683  143.7342 LP  0  0  0  0  0  0  0  0  0  0  0  0  # atno 17321 bound_to 7965
  140.6924  143.2384  151.5093 LP  0  0  0  0  0  0  0  0  0  0  0  0  # atno 17342 bound_to 10162
  139.5618  144.2138  152.1703 LP  0  0  0  0  0  0  0  0  0  0  0  0  # atno 17343 bound_to 10162
  157.3201  131.0680  151.1938 LP  0  0  0  0  0  0  0  0  0  0  0  0  # atno 17370 bound_to 10713
  157.2854  130.6770  149.6087 LP  0  0  0  0  0  0  0  0  0  0  0  0  # atno 17371 bound_to 10713
  139.9032  135.0171  156.7365 LP  0  0  0  0  0  0  0  0  0  0  0  0  # atno 17394 bound_to 11000
  140.6911  133.9389  155.7967 LP  0  0  0  0  0  0  0  0  0  0  0  0  # atno 17395 bound_to 11000

$$$$
