AV-unprocessed.smi:1041|AV-procd|sdf|4533|dock4
  -GOLD-   22720 2553D 1   1.00000     0.00000
 Structure written by MMmdl.
 52 53  0  0  0  0  0  0  0  0  3 V2000
  143.8670  132.7408  151.4817 C   0  0  0  0  0  0  0  0  0  0  0  0
  143.9564  133.7659  150.5075 O   0  0  0  0  0  0  0  0  0  0  0  0
  144.3504  135.0106  151.0610 C   0  0  0  0  0  0  0  0  0  0  0  0
  145.7851  134.8853  151.5956 C   0  0  0  0  0  0  0  0  0  0  0  0
  146.3072  136.1705  152.1261 N   0  3  2  0  0  0  0  0  0  0  0  0
  145.8046  136.4584  153.4933 C   0  0  0  0  0  0  0  0  0  0  0  0
  146.4699  137.7148  154.0750 C   0  0  0  0  0  0  0  0  0  0  0  0
  146.2556  138.9398  153.1616 C   0  0  1  0  0  0  0  0  0  0  0  0
  146.9211  140.2234  153.7003 C   0  0  0  0  0  0  0  0  0  0  0  0
  148.3599  140.0351  153.8312 N   0  0  0  0  0  0  0  0  0  0  0  0
  149.0467  140.0191  154.9831 C   0  0  0  0  0  0  0  0  0  0  0  0
  148.5239  139.9329  156.0938 O   0  0  0  0  0  0  0  0  0  0  0  0
  150.5580  140.2013  154.8509 C   0  0  0  0  0  0  0  0  0  0  0  0
  151.2960  140.1846  156.1901 C   0  0  0  0  0  0  0  0  0  0  0  0
  151.0252  141.0539  157.2055 C   0  0  0  0  0  0  0  0  0  0  0  0
  149.9355  142.1083  157.1238 C   0  0  0  0  0  0  0  0  0  0  0  0
  151.7679  141.0324  158.3982 N   0  0  0  0  0  0  0  0  0  0  0  0
  152.7252  140.1957  158.5293 C   0  0  0  0  0  0  0  0  0  0  0  0
  153.5224  140.1797  159.8159 C   0  0  0  0  0  0  0  0  0  0  0  0
  153.0880  139.2858  157.5620 N   0  5  0  0  0  0  0  0  0  0  0  0
  152.4035  139.2305  156.3846 C   0  0  0  0  0  0  0  0  0  0  0  0
  152.6969  138.4313  155.4962 O   0  0  0  0  0  0  0  0  0  0  0  0
  146.7541  138.5974  151.7479 C   0  0  0  0  0  0  0  0  0  0  0  0
  146.0839  137.3215  151.2111 C   0  0  0  0  0  0  0  0  0  0  0  0
  143.5659  131.8081  151.0050 H   0  0  0  0  0  0  0  0  0  0  0  0
  143.1246  132.9842  152.2432 H   0  0  0  0  0  0  0  0  0  0  0  0
  144.8281  132.5739  151.9697 H   0  0  0  0  0  0  0  0  0  0  0  0
  144.2652  135.8068  150.3214 H   0  0  0  0  0  0  0  0  0  0  0  0
  143.6812  135.2682  151.8833 H   0  0  0  0  0  0  0  0  0  0  0  0
  145.8386  134.1205  152.3719 H   0  0  0  0  0  0  0  0  0  0  0  0
  146.4191  134.5370  150.7789 H   0  0  0  0  0  0  0  0  0  0  0  0
  144.7208  136.5828  153.4683 H   0  0  0  0  0  0  0  0  0  0  0  0
  146.0113  135.6123  154.1499 H   0  0  0  0  0  0  0  0  0  0  0  0
  146.0571  137.8953  155.0671 H   0  0  0  0  0  0  0  0  0  0  0  0
  147.5372  137.5369  154.2140 H   0  0  0  0  0  0  0  0  0  0  0  0
  145.1818  139.1263  153.1007 H   0  0  0  0  0  0  0  0  0  0  0  0
  146.6841  141.0717  153.0565 H   0  0  0  0  0  0  0  0  0  0  0  0
  146.5231  140.4634  154.6865 H   0  0  0  0  0  0  0  0  0  0  0  0
  148.8974  140.0857  152.9770 H   0  0  0  0  0  0  0  0  0  0  0  0
  150.9497  139.4107  154.2109 H   0  0  0  0  0  0  0  0  0  0  0  0
  150.7629  141.1252  154.3085 H   0  0  0  0  0  0  0  0  0  0  0  0
  148.9592  141.6410  156.9939 H   0  0  0  0  0  0  0  0  0  0  0  0
  150.1151  142.7809  156.2851 H   0  0  0  0  0  0  0  0  0  0  0  0
  149.8994  142.7106  158.0324 H   0  0  0  0  0  0  0  0  0  0  0  0
  153.2485  139.3118  160.4164 H   0  0  0  0  0  0  0  0  0  0  0  0
  153.3347  141.0785  160.4049 H   0  0  0  0  0  0  0  0  0  0  0  0
  154.5909  140.1307  159.6035 H   0  0  0  0  0  0  0  0  0  0  0  0
  146.5531  139.4281  151.0705 H   0  0  0  0  0  0  0  0  0  0  0  0
  147.8369  138.4636  151.7590 H   0  0  0  0  0  0  0  0  0  0  0  0
  146.4853  137.1051  150.2220 H   0  0  0  0  0  0  0  0  0  0  0  0
  145.0123  137.4863  151.0869 H   0  0  0  0  0  0  0  0  0  0  0  0
  147.3066  136.0530  152.2171 H   0  0  0  0  0  0  0  0  0  0  0  0
  1  2  1  0  0  0  0
  1 25  1  0  0  0  0
  1 26  1  0  0  0  0
  1 27  1  0  0  0  0
  2  3  1  0  0  0  0
  3  4  1  0  0  0  0
  3 28  1  0  0  0  0
  3 29  1  0  0  0  0
  4  5  1  0  0  0  0
  4 30  1  0  0  0  0
  4 31  1  0  0  0  0
  5 24  1  0  0  0  0
  5  6  1  0  0  0  0
  5 52  1  0  0  0  0
  6  7  1  0  0  0  0
  6 32  1  0  0  0  0
  6 33  1  0  0  0  0
  7  8  1  0  0  0  0
  7 34  1  0  0  0  0
  7 35  1  0  0  0  0
  8  9  1  0  0  0  0
  8 23  1  0  0  0  0
  8 36  1  0  0  0  0
  9 10  1  0  0  0  0
  9 37  1  0  0  0  0
  9 38  1  0  0  0  0
 10 11  1  0  0  0  0
 10 39  1  0  0  0  0
 11 12  2  0  0  0  0
 11 13  1  0  0  0  0
 13 14  1  0  0  0  0
 13 40  1  0  0  0  0
 13 41  1  0  0  0  0
 14 21  1  0  0  0  0
 14 15  2  0  0  0  0
 15 16  1  0  0  0  0
 15 17  1  0  0  0  0
 16 42  1  0  0  0  0
 16 43  1  0  0  0  0
 16 44  1  0  0  0  0
 17 18  2  0  0  0  0
 18 19  1  0  0  0  0
 18 20  1  0  0  0  0
 19 45  1  0  0  0  0
 19 46  1  0  0  0  0
 19 47  1  0  0  0  0
 20 21  1  0  0  0  0
 21 22  2  0  0  0  0
 23 24  1  0  0  0  0
 23 48  1  0  0  0  0
 23 49  1  0  0  0  0
 24 50  1  0  0  0  0
 24 51  1  0  0  0  0
M  CHG  1   5   1
M  CHG  1  20  -1
M  END
> <s_m_source_file>
AV-unprocessed.smi

> <i_m_source_file_index>
1041

> <i_lp_mmshare_version>
43012

> <i_f3d_flags>
0

> <s_epik_input>
W0NIM11PW0NIMl1bQ0gyXU4xW0NIMl1bQ0gyXVtDSF0oW0NIMl1bQ0gyXTEpW0NIMl1bTkhdQyg9TylbQ0gyXWMyYyhbQ0gzXSluYyhbQ0gzXSlbbkhdYzI9Tw==

> <s_epik_cmdline>
J2VwaWtfcHl0aG9uJywgJy1waCcsICc3LjAnLCAnLXRuJywgJzgnLCAnLW1hJywgJzIwMCcsICctbWV0YWxfYmluZGluZycsICctaW1hZScsICc8aW5maWxlLm1hZT4nLCAnLW9tYWUnLCAnPG91dGZpbGUubWFlPic=

> <r_lp_tautomer_probability>
0.839158

> <r_epik_Ionization_Penalty>
6.54961

> <r_epik_Ionization_Penalty_Charging>
0.00968647

> <r_epik_Ionization_Penalty_Neutral>
6.53992

> <r_epik_State_Penalty>
4.43892

> <r_epik_Charging_Adjusted_Penalty>
4.44861

> <i_epik_Tot_Q>
0

> <i_epik_Tot_abs_Q>
2

> <r_epik_Metal_State_Penalty>
0.818645

> <b_epik_Metal_Only>
1

> <s_lp_Force_Field>
OPLS_2005

> <r_lp_Energy>
18.5529

> <b_lp_Chiralities_Consistent>
1

> <s_lp_Variant>
AV-unprocessed.smi:1041-6

> <Gold.Version>
5.8.1

> <Gold.Id.Protein>
6NUR|6NUR_protein|mol2

> <Gold.PLP.Fitness>
49.4225

> <Gold.PLP.PLP>
-34.6069

> <Gold.PLP.part.hbond>
-2.9895

> <Gold.PLP.part.metal>
0.0000

> <Gold.PLP.part.buried>
4.2126

> <Gold.PLP.part.nonpolar>
-36.5055

> <Gold.PLP.part.repulsive>
0.3685

> <Gold.PLP.ligand.clash>
0.0000

> <Gold.PLP.ligand.torsion>
0.1774

> <Gold.PLP.Chemscore.Hbond>
5.0000

> <Gold.PLP.Chemscore.CHOScore>
0.0000

> <Gold.PLP.Chemscore.Metal>
0.0000

> <Gold.Chemscore.Hbonds>
donor molecule, donor type, donor heavy atom, donor atom, acceptor molecule, acceptor atom, score
      L1  H     5    52       P1  7948  2.00
      L1  H    10    39       P1  7957  1.00
      P1  H  7997  8009       L1    20  1.90

> <Gold.PLP.Chemscore.Internal.Correction>
0.1704

> <Gold.Rescore>
     Score         DG    S(hbond)    S(metal)    S(lipo)     H(rot)  DE(clash)    DE(int)     intcor
     11.34     -17.25       2.16        0.00      90.37       2.35       3.22       2.69       ----

> <Gold.Chemscore.Fitness>
11.3411

> <Gold.Chemscore.DG>
-17.2520

> <Gold.Chemscore.ZeroCoef>
-5.4800

> <Gold.Chemscore.Hbond>
2.1616

> <Gold.Chemscore.Metal>
0.0000

> <Gold.Chemscore.Lipo>
90.3703

> <Gold.Chemscore.Internal_Hbond>
0.0000

> <Gold.Chemscore.DEClash>
3.2205

> <Gold.Chemscore.DEInternal>
2.6903

> <Gold.Chemscore.Rot>
2.3520

> <Gold.Chemscore.Internal.Correction>
   9.000000E+99

> <Gold.Chemscore.Hbonds>
donor molecule, donor type, donor heavy atom, donor atom, acceptor molecule, acceptor atom, score
      L1  H     5    52       P1  7948  0.99
      L1  H    10    39       P1  7957  0.99
      P1  H  7997  8009       L1    20  0.08

> <Gold.Chemscore.Hbond.Weighted>
-7.2197

> <Gold.Chemscore.Metal.Weighted>
-0.0000

> <Gold.Chemscore.Lipo.Weighted>
-10.5733

> <Gold.Chemscore.Internal_Hbond.Weighted>
0.0000

> <Gold.Chemscore.DEClash.Weighted>
3.2205

> <Gold.Chemscore.DEInternal.Weighted>
2.6903

> <Gold.Chemscore.Rot.Weighted>
6.0211

> <Gold.Chemscore.Internal.Correction.Weighted>
   9.000000E+99

> <Gold.Protein.RotatedTorsions>
[ 6907 6896 6895 6894 ] final  -60.20 input  -60.11 | X-H torsion
[ 7974 7965 7964 7962 ] final  -16.31 input  175.53 | X-H torsion
[ 8008 7997 7996 7995 ] final  148.82 input   59.86 | X-H torsion
[ 10167 10162 10161 10158 ] final  151.52 input  -65.29 | X-H torsion
[ 10718 10713 10712 10709 ] final   -6.02 input   66.30 | X-H torsion
[ 10763 10752 10751 10750 ] final   46.98 input  -60.55 | X-H torsion
[ 11005 11000 10999 10996 ] final -157.42 input  -57.11 | X-H torsion

> <Gold.Protein.ActiveResidues>
 VAL166  LYS551  ARG553  GLY616  TRP617  ASP618  TYR619  PRO620  LYS621  CYS622 
 ASP623  PHE694  ASN695  SER759  ASP760  ASP761  ALA762  ILE779  LEU786  VAL792 
 PHE793  MET794  SER795  GLU796  ALA797  LYS798  CYS799  TRP800  GLU811  SER814 

> <Gold.Protein.RotatedAtoms>
  150.7874  134.6869  159.6474 H   0  0  0  0  0  0  0  0  0  0  0  0  # atno 6907 bound_to 6896
  152.3973  134.6341  160.0093 H   0  0  0  0  0  0  0  0  0  0  0  0  # atno 6908 bound_to 6896
  151.6624  133.3280  159.3213 H   0  0  0  0  0  0  0  0  0  0  0  0  # atno 6909 bound_to 6896
  146.1993  140.3618  142.8429 H   0  0  0  0  0  0  0  0  0  0  0  0  # atno 7974 bound_to 7965
  156.2777  140.2118  156.5760 H   0  0  0  0  0  0  0  0  0  0  0  0  # atno 8008 bound_to 7997
  154.7097  140.0513  157.0561 H   0  0  0  0  0  0  0  0  0  0  0  0  # atno 8009 bound_to 7997
  155.0622  140.3168  155.4660 H   0  0  0  0  0  0  0  0  0  0  0  0  # atno 8010 bound_to 7997
  139.4840  144.5434  151.7526 H   0  0  0  0  0  0  0  0  0  0  0  0  # atno 10167 bound_to 10162
  156.7381  130.5201  149.5830 H   0  0  0  0  0  0  0  0  0  0  0  0  # atno 10718 bound_to 10713
  152.9804  135.5991  154.3688 H   0  0  0  0  0  0  0  0  0  0  0  0  # atno 10763 bound_to 10752
  154.3363  135.2768  155.2448 H   0  0  0  0  0  0  0  0  0  0  0  0  # atno 10764 bound_to 10752
  154.4549  135.5980  153.6272 H   0  0  0  0  0  0  0  0  0  0  0  0  # atno 10765 bound_to 10752
  140.6648  134.4310  157.5233 H   0  0  0  0  0  0  0  0  0  0  0  0  # atno 11005 bound_to 11000
  144.8648  140.7190  143.6084 LP  0  0  0  0  0  0  0  0  0  0  0  0  # atno 17320 bound_to 7965
  145.3538  139.1699  143.4420 LP  0  0  0  0  0  0  0  0  0  0  0  0  # atno 17321 bound_to 7965
  140.4977  144.1216  150.5964 LP  0  0  0  0  0  0  0  0  0  0  0  0  # atno 17342 bound_to 10162
  140.4098  143.2662  151.9846 LP  0  0  0  0  0  0  0  0  0  0  0  0  # atno 17343 bound_to 10162
  156.1483  130.6292  151.0561 LP  0  0  0  0  0  0  0  0  0  0  0  0  # atno 17370 bound_to 10713
  157.6830  131.0833  150.7318 LP  0  0  0  0  0  0  0  0  0  0  0  0  # atno 17371 bound_to 10713
  139.9001  134.8577  156.1934 LP  0  0  0  0  0  0  0  0  0  0  0  0  # atno 17394 bound_to 11000
  141.0437  133.6924  156.1645 LP  0  0  0  0  0  0  0  0  0  0  0  0  # atno 17395 bound_to 11000

$$$$
