AV-unprocessed.smi:2746|AV-procd|sdf|10574|dock5
  -GOLD-   2272015 23D 1   1.00000     0.00000
 Structure written by MMmdl.
 39 40  0  0  0  0  0  0  0  0  2 V2000
  144.4650  135.3093  150.4425 C   0  0  0  0  0  0  0  0  0  0  0  0
  144.7560  135.7398  151.6792 C   0  0  0  0  0  0  0  0  0  0  0  0
  144.0531  136.8900  152.3764 C   0  0  1  0  0  0  0  0  0  0  0  0
  143.3727  136.4168  153.6670 C   0  0  0  0  0  0  0  0  0  0  0  0
  145.0027  137.9525  152.6912 N   0  0  0  0  0  0  0  0  0  0  0  0
  146.1489  137.7921  153.3736 C   0  0  0  0  0  0  0  0  0  0  0  0
  146.5188  136.7150  153.8421 O   0  0  0  0  0  0  0  0  0  0  0  0
  146.9499  139.0407  153.6028 C   0  0  0  0  0  0  0  0  0  0  0  0
  148.2757  139.0152  154.0981 C   0  0  0  0  0  0  0  0  0  0  0  0
  148.9657  140.2276  154.3147 C   0  0  0  0  0  0  0  0  0  0  0  0
  150.2801  140.1885  154.7996 N   0  0  0  0  0  0  0  0  0  0  0  0
  150.4189  140.7434  156.1402 C   0  0  0  0  0  0  0  0  0  0  0  0
  151.9027  140.7747  156.5465 C   0  0  0  0  0  0  0  0  0  0  0  0
  152.4541  139.4654  156.4390 O   0  0  0  0  0  0  0  0  0  0  0  0
  152.3855  138.9636  155.1072 C   0  0  0  0  0  0  0  0  0  0  0  0
  150.9143  138.8828  154.6640 C   0  0  0  0  0  0  0  0  0  0  0  0
  148.3072  141.4480  154.0355 C   0  0  0  0  0  0  0  0  0  0  0  0
  146.9833  141.4200  153.5556 C   0  0  0  0  0  0  0  0  0  0  0  0
  146.3628  140.2362  153.3639 N   0  3  0  0  0  0  0  0  0  0  0  0
  143.6888  135.7755  149.8537 H   0  0  0  0  0  0  0  0  0  0  0  0
  145.0022  134.4824  150.0024 H   0  0  0  0  0  0  0  0  0  0  0  0
  145.5392  135.2465  152.2366 H   0  0  0  0  0  0  0  0  0  0  0  0
  143.2814  137.2864  151.7135 H   0  0  0  0  0  0  0  0  0  0  0  0
  142.6359  135.6404  153.4581 H   0  0  0  0  0  0  0  0  0  0  0  0
  142.8528  137.2378  154.1617 H   0  0  0  0  0  0  0  0  0  0  0  0
  144.0960  136.0068  154.3727 H   0  0  0  0  0  0  0  0  0  0  0  0
  144.7687  138.8795  152.3669 H   0  0  0  0  0  0  0  0  0  0  0  0
  148.7665  138.0779  154.3180 H   0  0  0  0  0  0  0  0  0  0  0  0
  150.0024  141.7512  156.1688 H   0  0  0  0  0  0  0  0  0  0  0  0
  149.8548  140.1397  156.8523 H   0  0  0  0  0  0  0  0  0  0  0  0
  152.4637  141.4695  155.9194 H   0  0  0  0  0  0  0  0  0  0  0  0
  152.0042  141.1201  157.5753 H   0  0  0  0  0  0  0  0  0  0  0  0
  152.9609  139.6031  154.4359 H   0  0  0  0  0  0  0  0  0  0  0  0
  152.8429  137.9747  155.0756 H   0  0  0  0  0  0  0  0  0  0  0  0
  150.3875  138.1476  155.2737 H   0  0  0  0  0  0  0  0  0  0  0  0
  150.8537  138.5472  153.6279 H   0  0  0  0  0  0  0  0  0  0  0  0
  148.8047  142.3948  154.1887 H   0  0  0  0  0  0  0  0  0  0  0  0
  146.4052  142.3022  153.3228 H   0  0  0  0  0  0  0  0  0  0  0  0
  145.4015  140.2388  153.0207 H   0  0  0  0  0  0  0  0  0  0  0  0
  1  2  2  0  0  0  0
  1 20  1  0  0  0  0
  1 21  1  0  0  0  0
  2  3  1  0  0  0  0
  2 22  1  0  0  0  0
  3  4  1  0  0  0  0
  3  5  1  0  0  0  0
  3 23  1  0  0  0  0
  4 24  1  0  0  0  0
  4 25  1  0  0  0  0
  4 26  1  0  0  0  0
  5  6  1  0  0  0  0
  5 27  1  0  0  0  0
  6  7  2  0  0  0  0
  6  8  1  0  0  0  0
  8 19  1  0  0  0  0
  8  9  2  0  0  0  0
  9 10  1  0  0  0  0
  9 28  1  0  0  0  0
 10 11  1  0  0  0  0
 10 17  2  0  0  0  0
 11 16  1  0  0  0  0
 11 12  1  0  0  0  0
 12 13  1  0  0  0  0
 12 29  1  0  0  0  0
 12 30  1  0  0  0  0
 13 14  1  0  0  0  0
 13 31  1  0  0  0  0
 13 32  1  0  0  0  0
 14 15  1  0  0  0  0
 15 16  1  0  0  0  0
 15 33  1  0  0  0  0
 15 34  1  0  0  0  0
 16 35  1  0  0  0  0
 16 36  1  0  0  0  0
 17 18  1  0  0  0  0
 17 37  1  0  0  0  0
 18 19  2  0  0  0  0
 18 38  1  0  0  0  0
 19 39  1  0  0  0  0
M  CHG  1  19   1
M  END
> <s_m_source_file>
AV-unprocessed.smi

> <i_m_source_file_index>
2746

> <i_lp_mmshare_version>
43012

> <i_f3d_flags>
0

> <s_epik_input>
W0NIMl09W0NIXVtDQEhdKFtDSDNdKVtOSF1DKD1PKWMxW2NIXWMoW2NIXVtjSF1uMSlOMltDSDJdW0NIMl1PW0NIMl1bQ0gyXTI=

> <s_epik_cmdline>
J2VwaWtfcHl0aG9uJywgJy1waCcsICc3LjAnLCAnLXRuJywgJzgnLCAnLW1hJywgJzIwMCcsICctbWV0YWxfYmluZGluZycsICctaW1hZScsICc8aW5maWxlLm1hZT4nLCAnLW9tYWUnLCAnPG91dGZpbGUubWFlPic=

> <r_lp_tautomer_probability>
1

> <r_epik_Ionization_Penalty>
0.451073

> <r_epik_Ionization_Penalty_Charging>
0.450607

> <r_epik_Ionization_Penalty_Neutral>
0.000466544

> <r_epik_State_Penalty>
0.453375

> <r_epik_Charging_Adjusted_Penalty>
0.903982

> <i_epik_Tot_Q>
1

> <i_epik_Tot_abs_Q>
1

> <r_epik_Metal_State_Penalty>
1.0249

> <b_epik_Metal_Only>
0

> <s_lp_Force_Field>
OPLS_2005

> <r_lp_Energy>
25.7361

> <b_lp_Chiralities_Consistent>
1

> <s_lp_Variant>
AV-unprocessed.smi:2746-4

> <Gold.Version>
5.8.1

> <Gold.Id.Protein>
6NUR|6NUR_protein|mol2

> <Gold.PLP.Fitness>
44.9486

> <Gold.PLP.PLP>
-35.0276

> <Gold.PLP.part.hbond>
-4.5902

> <Gold.PLP.part.metal>
0.0000

> <Gold.PLP.part.buried>
-4.3289

> <Gold.PLP.part.nonpolar>
-26.5335

> <Gold.PLP.part.repulsive>
0.1824

> <Gold.PLP.ligand.clash>
2.0310

> <Gold.PLP.ligand.torsion>
0.4015

> <Gold.PLP.Chemscore.Hbond>
4.2000

> <Gold.PLP.Chemscore.CHOScore>
0.0000

> <Gold.PLP.Chemscore.Metal>
0.0000

> <Gold.Chemscore.Hbonds>
donor molecule, donor type, donor heavy atom, donor atom, acceptor molecule, acceptor atom, score
      L1  H     5    27       P1 10175  1.00
      L1  H    19    39       P1 10175  2.00
      P1  H  7989  7998       L1    11  0.40
      P1  H  7997  8008       L1    14  0.70

> <Gold.PLP.Chemscore.Internal.Correction>
0.1549

> <Gold.Rescore>
     Score         DG    S(hbond)    S(metal)    S(lipo)     H(rot)  DE(clash)    DE(int)     intcor
     16.47     -18.48       2.04        0.00      81.26       1.30       0.30       1.72       ----

> <Gold.Chemscore.Fitness>
16.4665

> <Gold.Chemscore.DG>
-18.4846

> <Gold.Chemscore.ZeroCoef>
-5.4800

> <Gold.Chemscore.Hbond>
2.0443

> <Gold.Chemscore.Metal>
0.0000

> <Gold.Chemscore.Lipo>
81.2634

> <Gold.Chemscore.Internal_Hbond>
0.0000

> <Gold.Chemscore.DEClash>
0.2954

> <Gold.Chemscore.DEInternal>
1.7227

> <Gold.Chemscore.Rot>
1.3013

> <Gold.Chemscore.Internal.Correction>
   9.000000E+99

> <Gold.Chemscore.Hbonds>
donor molecule, donor type, donor heavy atom, donor atom, acceptor molecule, acceptor atom, score
      L1  H     5    27       P1 10175  0.95
      L1  H    19    39       P1 10175  0.98
      P1  H  7989  7998       L1    11  0.01
      P1  H  7997  8008       L1    14  0.02

> <Gold.Chemscore.Hbond.Weighted>
-6.8280

> <Gold.Chemscore.Metal.Weighted>
-0.0000

> <Gold.Chemscore.Lipo.Weighted>
-9.5078

> <Gold.Chemscore.Internal_Hbond.Weighted>
0.0000

> <Gold.Chemscore.DEClash.Weighted>
0.2954

> <Gold.Chemscore.DEInternal.Weighted>
1.7227

> <Gold.Chemscore.Rot.Weighted>
3.3313

> <Gold.Chemscore.Internal.Correction.Weighted>
   9.000000E+99

> <Gold.Protein.RotatedTorsions>
[ 6907 6896 6895 6894 ] final   92.08 input  -60.11 | X-H torsion
[ 7974 7965 7964 7962 ] final   31.47 input  175.53 | X-H torsion
[ 8008 7997 7996 7995 ] final  -52.55 input   59.86 | X-H torsion
[ 10167 10162 10161 10158 ] final   77.04 input  -65.29 | X-H torsion
[ 10718 10713 10712 10709 ] final   26.24 input   66.30 | X-H torsion
[ 10763 10752 10751 10750 ] final   93.72 input  -60.55 | X-H torsion
[ 11005 11000 10999 10996 ] final   17.42 input  -57.11 | X-H torsion

> <Gold.Protein.ActiveResidues>
 VAL166  LYS551  ARG553  GLY616  TRP617  ASP618  TYR619  PRO620  LYS621  CYS622 
 ASP623  PHE694  ASN695  SER759  ASP760  ASP761  ALA762  ILE779  LEU786  VAL792 
 PHE793  MET794  SER795  GLU796  ALA797  LYS798  CYS799  TRP800  GLU811  SER814 

> <Gold.Protein.RotatedAtoms>
  152.5452  134.1557  159.8536 H   0  0  0  0  0  0  0  0  0  0  0  0  # atno 6907 bound_to 6896
  151.1580  133.4857  159.2602 H   0  0  0  0  0  0  0  0  0  0  0  0  # atno 6908 bound_to 6896
  151.1403  135.0187  159.8677 H   0  0  0  0  0  0  0  0  0  0  0  0  # atno 6909 bound_to 6896
  146.1548  139.6653  142.9074 H   0  0  0  0  0  0  0  0  0  0  0  0  # atno 7974 bound_to 7965
  154.4109  140.1221  156.5009 H   0  0  0  0  0  0  0  0  0  0  0  0  # atno 8008 bound_to 7997
  155.6896  140.3495  155.4868 H   0  0  0  0  0  0  0  0  0  0  0  0  # atno 8009 bound_to 7997
  155.9481  140.1099  157.0990 H   0  0  0  0  0  0  0  0  0  0  0  0  # atno 8010 bound_to 7997
  139.9858  144.5793  150.7861 H   0  0  0  0  0  0  0  0  0  0  0  0  # atno 10167 bound_to 10162
  157.2042  130.6904  149.6201 H   0  0  0  0  0  0  0  0  0  0  0  0  # atno 10718 bound_to 10713
  153.2335  135.4315  155.0621 H   0  0  0  0  0  0  0  0  0  0  0  0  # atno 10763 bound_to 10752
  154.8308  135.3385  154.6753 H   0  0  0  0  0  0  0  0  0  0  0  0  # atno 10764 bound_to 10752
  153.7179  135.7019  153.5076 H   0  0  0  0  0  0  0  0  0  0  0  0  # atno 10765 bound_to 10752
  140.4362  134.1369  155.7685 H   0  0  0  0  0  0  0  0  0  0  0  0  # atno 11005 bound_to 11000
  145.4735  141.0436  143.2685 LP  0  0  0  0  0  0  0  0  0  0  0  0  # atno 17320 bound_to 7965
  144.7949  139.6253  143.7097 LP  0  0  0  0  0  0  0  0  0  0  0  0  # atno 17321 bound_to 7965
  140.7473  143.2903  151.3348 LP  0  0  0  0  0  0  0  0  0  0  0  0  # atno 17342 bound_to 10162
  139.6376  144.0601  152.2528 LP  0  0  0  0  0  0  0  0  0  0  0  0  # atno 17343 bound_to 10162
  155.9697  130.4572  150.5955 LP  0  0  0  0  0  0  0  0  0  0  0  0  # atno 17370 bound_to 10713
  157.3737  131.0769  151.1536 LP  0  0  0  0  0  0  0  0  0  0  0  0  # atno 17371 bound_to 10713
  141.1725  133.8581  157.1526 LP  0  0  0  0  0  0  0  0  0  0  0  0  # atno 17394 bound_to 11000
  140.0101  134.9992  157.0376 LP  0  0  0  0  0  0  0  0  0  0  0  0  # atno 17395 bound_to 11000

$$$$
