AV-unprocessed.smi:2147|AV-procd|sdf|8743|dock3
  -GOLD-   2272011513D 1   1.00000     0.00000
 Structure written by MMmdl.
 41 43  0  0  0  0  0  0  0  0  1 V2000
  142.7693  146.1485  155.4321 C   0  0  0  0  0  0  0  0  0  0  0  0
  143.6936  145.7497  154.2829 C   0  0  0  0  0  0  0  0  0  0  0  0
  143.6680  146.4128  153.2465 O   0  0  0  0  0  0  0  0  0  0  0  0
  144.5810  144.5689  154.4824 C   0  0  0  0  0  0  0  0  0  0  0  0
  145.2982  143.9853  153.4124 C   0  0  0  0  0  0  0  0  0  0  0  0
  146.1254  142.8674  153.6329 C   0  0  0  0  0  0  0  0  0  0  0  0
  146.2572  142.3061  154.9181 C   0  0  0  0  0  0  0  0  0  0  0  0
  147.0850  141.2113  155.0414 O   0  0  0  0  0  0  0  0  0  0  0  0
  148.1400  141.0559  154.1013 C   0  0  0  0  0  0  0  0  0  0  0  0
  149.3947  140.5678  154.8394 C   0  0  1  0  0  0  0  0  0  0  0  0
  150.2632  139.9666  153.8994 O   0  0  0  0  0  0  0  0  0  0  0  0
  150.1278  141.7086  155.5719 C   0  0  0  0  0  0  0  0  0  0  0  0
  151.0959  141.2166  156.5355 N   0  0  0  0  0  0  0  0  0  0  0  0
  151.7385  140.0330  156.5124 C   0  0  0  0  0  0  0  0  0  0  0  0
  152.5881  139.7818  157.5044 N   0  0  0  0  0  0  0  0  0  0  0  0
  152.4893  140.9397  158.2569 C   0  0  0  0  0  0  0  0  0  0  0  0
  153.1407  141.3146  159.4537 C   0  0  0  0  0  0  0  0  0  0  0  0
  152.8777  142.5662  160.0485 C   0  0  0  0  0  0  0  0  0  0  0  0
  151.9612  143.4606  159.4578 C   0  0  0  0  0  0  0  0  0  0  0  0
  151.2996  143.1091  158.2655 C   0  0  0  0  0  0  0  0  0  0  0  0
  151.5645  141.8591  157.6758 C   0  0  0  0  0  0  0  0  0  0  0  0
  145.5414  142.8906  155.9915 C   0  0  0  0  0  0  0  0  0  0  0  0
  144.7130  144.0082  155.7726 C   0  0  0  0  0  0  0  0  0  0  0  0
  143.3502  146.4096  156.3169 H   0  0  0  0  0  0  0  0  0  0  0  0
  142.0960  145.3285  155.6825 H   0  0  0  0  0  0  0  0  0  0  0  0
  142.1650  147.0124  155.1541 H   0  0  0  0  0  0  0  0  0  0  0  0
  145.2285  144.3779  152.4091 H   0  0  0  0  0  0  0  0  0  0  0  0
  146.6648  142.4341  152.8033 H   0  0  0  0  0  0  0  0  0  0  0  0
  147.8471  140.3211  153.3492 H   0  0  0  0  0  0  0  0  0  0  0  0
  148.3486  141.9981  153.5913 H   0  0  0  0  0  0  0  0  0  0  0  0
  149.1060  139.7976  155.5559 H   0  0  0  0  0  0  0  0  0  0  0  0
  149.7856  139.8323  153.0948 H   0  0  0  0  0  0  0  0  0  0  0  0
  150.6416  142.3534  154.8574 H   0  0  0  0  0  0  0  0  0  0  0  0
  149.4134  142.3393  156.1023 H   0  0  0  0  0  0  0  0  0  0  0  0
  151.5691  139.3127  155.7252 H   0  0  0  0  0  0  0  0  0  0  0  0
  153.8440  140.6374  159.9152 H   0  0  0  0  0  0  0  0  0  0  0  0
  153.3822  142.8415  160.9630 H   0  0  0  0  0  0  0  0  0  0  0  0
  151.7665  144.4169  159.9208 H   0  0  0  0  0  0  0  0  0  0  0  0
  150.5968  143.7911  157.8099 H   0  0  0  0  0  0  0  0  0  0  0  0
  145.6095  142.5005  156.9956 H   0  0  0  0  0  0  0  0  0  0  0  0
  144.1791  144.4302  156.6119 H   0  0  0  0  0  0  0  0  0  0  0  0
  1  2  1  0  0  0  0
  1 24  1  0  0  0  0
  1 25  1  0  0  0  0
  1 26  1  0  0  0  0
  2  3  2  0  0  0  0
  2  4  1  0  0  0  0
  4 23  1  0  0  0  0
  4  5  2  0  0  0  0
  5  6  1  0  0  0  0
  5 27  1  0  0  0  0
  6  7  2  0  0  0  0
  6 28  1  0  0  0  0
  7  8  1  0  0  0  0
  7 22  1  0  0  0  0
  8  9  1  0  0  0  0
  9 10  1  0  0  0  0
  9 29  1  0  0  0  0
  9 30  1  0  0  0  0
 10 11  1  0  0  0  0
 10 12  1  0  0  0  0
 10 31  1  0  0  0  0
 11 32  1  0  0  0  0
 12 13  1  0  0  0  0
 12 33  1  0  0  0  0
 12 34  1  0  0  0  0
 13 21  1  0  0  0  0
 13 14  1  0  0  0  0
 14 15  2  0  0  0  0
 14 35  1  0  0  0  0
 15 16  1  0  0  0  0
 16 21  2  0  0  0  0
 16 17  1  0  0  0  0
 17 18  2  0  0  0  0
 17 36  1  0  0  0  0
 18 19  1  0  0  0  0
 18 37  1  0  0  0  0
 19 20  2  0  0  0  0
 19 38  1  0  0  0  0
 20 21  1  0  0  0  0
 20 39  1  0  0  0  0
 22 23  2  0  0  0  0
 22 40  1  0  0  0  0
 23 41  1  0  0  0  0
M  END
> <s_m_source_file>
AV-unprocessed.smi

> <i_m_source_file_index>
2147

> <i_lp_mmshare_version>
43012

> <i_f3d_flags>
0

> <s_epik_input>
W0NIM11DKD1PKWMxW2NIXVtjSF1jKFtjSF1bY0hdMSlPW0NIMl1bQ0BIXShbT0hdKVtDSDJdbihbY0hdbjIpYyhjMjMpW2NIXVtjSF1bY0hdW2NIXTM=

> <s_epik_cmdline>
J2VwaWtfcHl0aG9uJywgJy1waCcsICc3LjAnLCAnLXRuJywgJzgnLCAnLW1hJywgJzIwMCcsICctbWV0YWxfYmluZGluZycsICctaW1hZScsICc8aW5maWxlLm1hZT4nLCAnLW9tYWUnLCAnPG91dGZpbGUubWFlPic=

> <r_lp_tautomer_probability>
0.99995

> <r_epik_Ionization_Penalty>
0.0583018

> <r_epik_Ionization_Penalty_Charging>
0

> <r_epik_Ionization_Penalty_Neutral>
0.0583018

> <r_epik_State_Penalty>
0.0504087

> <r_epik_Charging_Adjusted_Penalty>
0.0504087

> <i_epik_Tot_Q>
0

> <i_epik_Tot_abs_Q>
0

> <r_epik_Metal_State_Penalty>
5.26129e-05

> <b_epik_Metal_Only>
0

> <s_lp_Force_Field>
OPLS_2005

> <r_lp_Energy>
19.4931

> <b_lp_Chiralities_Consistent>
1

> <s_lp_Variant>
AV-unprocessed.smi:2147-2

> <Gold.Version>
5.8.1

> <Gold.Id.Protein>
6NUR|6NUR_protein|mol2

> <Gold.PLP.Fitness>
59.2413

> <Gold.PLP.PLP>
-52.7025

> <Gold.PLP.part.hbond>
-5.0000

> <Gold.PLP.part.metal>
0.0000

> <Gold.PLP.part.buried>
-8.4604

> <Gold.PLP.part.nonpolar>
-40.1425

> <Gold.PLP.part.repulsive>
0.1792

> <Gold.PLP.ligand.clash>
0.0200

> <Gold.PLP.ligand.torsion>
1.3425

> <Gold.PLP.Chemscore.Hbond>
2.9920

> <Gold.PLP.Chemscore.CHOScore>
0.0000

> <Gold.PLP.Chemscore.Metal>
0.0000

> <Gold.Chemscore.Hbonds>
donor molecule, donor type, donor heavy atom, donor atom, acceptor molecule, acceptor atom, score
      L1  H    11    32       P1  7957  1.00
      P1  H  7989  7998       L1    11  0.96
      P1  H  7997  8009       L1    15  1.00

> <Gold.PLP.Chemscore.Internal.Correction>
0.2678

> <Gold.Rescore>
     Score         DG    S(hbond)    S(metal)    S(lipo)     H(rot)  DE(clash)    DE(int)     intcor
     16.50     -19.02       1.84        0.00     115.59       2.40       0.63       1.89       ----

> <Gold.Chemscore.Fitness>
16.4964

> <Gold.Chemscore.DG>
-19.0150

> <Gold.Chemscore.ZeroCoef>
-5.4800

> <Gold.Chemscore.Hbond>
1.8431

> <Gold.Chemscore.Metal>
0.0000

> <Gold.Chemscore.Lipo>
115.5940

> <Gold.Chemscore.Internal_Hbond>
0.0000

> <Gold.Chemscore.DEClash>
0.6322

> <Gold.Chemscore.DEInternal>
1.8865

> <Gold.Chemscore.Rot>
2.4005

> <Gold.Chemscore.Internal.Correction>
   9.000000E+99

> <Gold.Chemscore.Hbonds>
donor molecule, donor type, donor heavy atom, donor atom, acceptor molecule, acceptor atom, score
      L1  H    11    32       P1  7957  0.93
      P1  H  7989  7998       L1    11  0.43
      P1  H  7997  8009       L1    15  0.08

> <Gold.Chemscore.Hbond.Weighted>
-6.1558

> <Gold.Chemscore.Metal.Weighted>
-0.0000

> <Gold.Chemscore.Lipo.Weighted>
-13.5245

> <Gold.Chemscore.Internal_Hbond.Weighted>
0.0000

> <Gold.Chemscore.DEClash.Weighted>
0.6322

> <Gold.Chemscore.DEInternal.Weighted>
1.8865

> <Gold.Chemscore.Rot.Weighted>
6.1453

> <Gold.Chemscore.Internal.Correction.Weighted>
   9.000000E+99

> <Gold.Protein.RotatedTorsions>
[ 6907 6896 6895 6894 ] final   59.58 input  -60.11 | X-H torsion
[ 7974 7965 7964 7962 ] final  145.68 input  175.53 | X-H torsion
[ 8008 7997 7996 7995 ] final -177.67 input   59.86 | X-H torsion
[ 10167 10162 10161 10158 ] final  105.59 input  -65.29 | X-H torsion
[ 10718 10713 10712 10709 ] final  -57.54 input   66.30 | X-H torsion
[ 10763 10752 10751 10750 ] final   -5.22 input  -60.55 | X-H torsion
[ 11005 11000 10999 10996 ] final  137.50 input  -57.11 | X-H torsion

> <Gold.Protein.ActiveResidues>
 VAL166  LYS551  ARG553  GLY616  TRP617  ASP618  TYR619  PRO620  LYS621  CYS622 
 ASP623  PHE694  ASN695  SER759  ASP760  ASP761  ALA762  ILE779  LEU786  VAL792 
 PHE793  MET794  SER795  GLU796  ALA797  LYS798  CYS799  TRP800  GLU811  SER814 

> <Gold.Protein.RotatedAtoms>
  152.3927  134.6415  160.0100 H   0  0  0  0  0  0  0  0  0  0  0  0  # atno 6907 bound_to 6896
  151.6644  133.3310  159.3189 H   0  0  0  0  0  0  0  0  0  0  0  0  # atno 6908 bound_to 6896
  150.7840  134.6853  159.6511 H   0  0  0  0  0  0  0  0  0  0  0  0  # atno 6909 bound_to 6896
  144.8733  139.5812  143.5877 H   0  0  0  0  0  0  0  0  0  0  0  0  # atno 7974 bound_to 7965
  156.0097  140.1238  157.0466 H   0  0  0  0  0  0  0  0  0  0  0  0  # atno 8008 bound_to 7997
  154.4271  140.1090  156.5882 H   0  0  0  0  0  0  0  0  0  0  0  0  # atno 8009 bound_to 7997
  155.6097  140.3471  155.4620 H   0  0  0  0  0  0  0  0  0  0  0  0  # atno 8010 bound_to 7997
  139.7080  144.7083  151.1074 H   0  0  0  0  0  0  0  0  0  0  0  0  # atno 10167 bound_to 10162
  156.1203  130.4167  150.0454 H   0  0  0  0  0  0  0  0  0  0  0  0  # atno 10718 bound_to 10713
  153.3956  135.7003  153.6463 H   0  0  0  0  0  0  0  0  0  0  0  0  # atno 10763 bound_to 10752
  153.5018  135.3650  155.2544 H   0  0  0  0  0  0  0  0  0  0  0  0  # atno 10764 bound_to 10752
  154.8706  135.4113  154.3281 H   0  0  0  0  0  0  0  0  0  0  0  0  # atno 10765 bound_to 10752
  140.0118  134.9435  157.0294 H   0  0  0  0  0  0  0  0  0  0  0  0  # atno 11005 bound_to 11000
  146.2945  139.7237  142.9136 LP  0  0  0  0  0  0  0  0  0  0  0  0  # atno 17320 bound_to 7965
  145.4090  141.0394  143.3028 LP  0  0  0  0  0  0  0  0  0  0  0  0  # atno 17321 bound_to 7965
  140.7726  143.5332  150.9399 LP  0  0  0  0  0  0  0  0  0  0  0  0  # atno 17342 bound_to 10162
  139.9016  143.6829  152.3130 LP  0  0  0  0  0  0  0  0  0  0  0  0  # atno 17343 bound_to 10162
  156.8394  130.9420  151.3633 LP  0  0  0  0  0  0  0  0  0  0  0  0  # atno 17370 bound_to 10713
  157.6386  130.8787  149.9406 LP  0  0  0  0  0  0  0  0  0  0  0  0  # atno 17371 bound_to 10713
  140.4541  134.1552  155.7184 LP  0  0  0  0  0  0  0  0  0  0  0  0  # atno 17394 bound_to 11000
  141.1716  133.8597  157.1552 LP  0  0  0  0  0  0  0  0  0  0  0  0  # atno 17395 bound_to 11000

$$$$
