AV-unprocessed.smi:2078|AV-procd|sdf|8474|dock8
  -GOLD-   2272011173D 1   1.00000     0.00000
 Structure written by MMmdl.
 41 42  0  0  0  0  0  0  0  0  3 V2000
  152.6474  142.7354  159.9404 C   0  0  0  0  0  0  0  0  0  0  0  0
  152.6509  141.4984  159.1095 C   0  0  0  0  0  0  0  0  0  0  0  0
  151.7938  141.0100  158.1641 C   0  0  0  0  0  0  0  0  0  0  0  0
  152.4050  139.7878  157.7769 C   0  0  0  0  0  0  0  0  0  0  0  0
  151.8052  138.9571  156.7940 N   0  0  0  0  0  0  0  0  0  0  0  0
  151.9280  139.0153  155.4557 C   0  0  0  0  0  0  0  0  0  0  0  0
  152.6051  139.9060  154.9280 O   0  0  0  0  0  0  0  0  0  0  0  0
  151.2550  138.0107  154.8284 N   0  5  0  0  0  0  0  0  0  0  0  0
  150.0225  137.3853  155.3190 C   0  0  0  0  0  0  0  0  0  0  0  0
  150.1478  135.8466  155.3034 C   0  0  0  0  0  0  0  0  0  0  0  0
  148.9947  135.2007  154.6204 N   0  3  2  0  0  0  0  0  0  0  0  0
  147.6690  135.6081  155.1561 C   0  0  0  0  0  0  0  0  0  0  0  0
  146.5365  135.0662  154.2703 C   0  0  0  0  0  0  0  0  0  0  0  0
  146.6310  133.5406  154.1322 C   0  0  0  0  0  0  0  0  0  0  0  0
  148.0215  133.1347  153.6127 C   0  0  2  0  0  0  0  0  0  0  0  0
  148.1529  131.6106  153.4877 C   0  0  0  0  0  0  0  0  0  0  0  0
  149.1229  133.7247  154.5160 C   0  0  0  0  0  0  0  0  0  0  0  0
  153.5320  139.5501  158.4318 N   0  0  0  0  0  0  0  0  0  0  0  0
  153.6959  140.6455  159.2877 O   0  0  0  0  0  0  0  0  0  0  0  0
  151.7465  143.3223  159.7615 H   0  0  0  0  0  0  0  0  0  0  0  0
  153.5100  143.3597  159.7068 H   0  0  0  0  0  0  0  0  0  0  0  0
  152.6848  142.4881  161.0014 H   0  0  0  0  0  0  0  0  0  0  0  0
  150.8784  141.4573  157.8067 H   0  0  0  0  0  0  0  0  0  0  0  0
  151.2192  138.2157  157.1488 H   0  0  0  0  0  0  0  0  0  0  0  0
  149.8111  137.7015  156.3402 H   0  0  0  0  0  0  0  0  0  0  0  0
  149.1458  137.6803  154.7409 H   0  0  0  0  0  0  0  0  0  0  0  0
  151.0836  135.5795  154.8098 H   0  0  0  0  0  0  0  0  0  0  0  0
  150.2363  135.4668  156.3223 H   0  0  0  0  0  0  0  0  0  0  0  0
  147.5587  135.2424  156.1781 H   0  0  0  0  0  0  0  0  0  0  0  0
  147.6028  136.6959  155.1986 H   0  0  0  0  0  0  0  0  0  0  0  0
  145.5688  135.3442  154.6886 H   0  0  0  0  0  0  0  0  0  0  0  0
  146.5926  135.5283  153.2834 H   0  0  0  0  0  0  0  0  0  0  0  0
  146.4432  133.0729  155.0999 H   0  0  0  0  0  0  0  0  0  0  0  0
  145.8545  133.1813  153.4561 H   0  0  0  0  0  0  0  0  0  0  0  0
  148.1453  133.5580  152.6141 H   0  0  0  0  0  0  0  0  0  0  0  0
  148.0438  131.1219  154.4564 H   0  0  0  0  0  0  0  0  0  0  0  0
  149.1265  131.3331  153.0822 H   0  0  0  0  0  0  0  0  0  0  0  0
  147.3914  131.2042  152.8214 H   0  0  0  0  0  0  0  0  0  0  0  0
  150.0989  133.4782  154.0954 H   0  0  0  0  0  0  0  0  0  0  0  0
  149.0829  133.2836  155.5132 H   0  0  0  0  0  0  0  0  0  0  0  0
  149.0380  135.5435  153.6698 H   0  0  0  0  0  0  0  0  0  0  0  0
  1  2  1  0  0  0  0
  1 20  1  0  0  0  0
  1 21  1  0  0  0  0
  1 22  1  0  0  0  0
  2 19  1  0  0  0  0
  2  3  2  0  0  0  0
  3  4  1  0  0  0  0
  3 23  1  0  0  0  0
  4  5  1  0  0  0  0
  4 18  2  0  0  0  0
  5  6  1  0  0  0  0
  5 24  1  0  0  0  0
  6  7  2  0  0  0  0
  6  8  1  0  0  0  0
  8  9  1  0  0  0  0
  9 10  1  0  0  0  0
  9 25  1  0  0  0  0
  9 26  1  0  0  0  0
 10 11  1  0  0  0  0
 10 27  1  0  0  0  0
 10 28  1  0  0  0  0
 11 17  1  0  0  0  0
 11 12  1  0  0  0  0
 11 41  1  0  0  0  0
 12 13  1  0  0  0  0
 12 29  1  0  0  0  0
 12 30  1  0  0  0  0
 13 14  1  0  0  0  0
 13 31  1  0  0  0  0
 13 32  1  0  0  0  0
 14 15  1  0  0  0  0
 14 33  1  0  0  0  0
 14 34  1  0  0  0  0
 15 16  1  0  0  0  0
 15 17  1  0  0  0  0
 15 35  1  0  0  0  0
 16 36  1  0  0  0  0
 16 37  1  0  0  0  0
 16 38  1  0  0  0  0
 17 39  1  0  0  0  0
 17 40  1  0  0  0  0
 18 19  1  0  0  0  0
M  CHG  1   8  -1
M  CHG  1  11   1
M  END
> <s_m_source_file>
AV-unprocessed.smi

> <i_m_source_file_index>
2078

> <i_lp_mmshare_version>
43012

> <i_f3d_flags>
0

> <s_epik_input>
W0NIM11jMVtjSF1jKG5vMSlbTkhdQyg9TylbTkhdW0NIMl1bQ0gyXU4yW0NIMl1bQ0gyXVtDSDJdW0NAQEhdKFtDSDNdKVtDSDJdMg==

> <s_epik_cmdline>
J2VwaWtfcHl0aG9uJywgJy1waCcsICc3LjAnLCAnLXRuJywgJzgnLCAnLW1hJywgJzIwMCcsICctbWV0YWxfYmluZGluZycsICctaW1hZScsICc8aW5maWxlLm1hZT4nLCAnLW9tYWUnLCAnPG91dGZpbGUubWFlPic=

> <r_epik_Ionization_Penalty>
6.76934

> <r_epik_Ionization_Penalty_Charging>
6.76934

> <r_epik_Ionization_Penalty_Neutral>
5.77849e-06

> <r_epik_State_Penalty>
6.79457

> <r_epik_Charging_Adjusted_Penalty>
13.5639

> <i_epik_Tot_Q>
0

> <i_epik_Tot_abs_Q>
2

> <r_epik_Metal_State_Penalty>
2.72837

> <b_epik_Metal_Only>
1

> <s_lp_Force_Field>
OPLS_2005

> <r_lp_Energy>
9.58201

> <b_lp_Chiralities_Consistent>
1

> <s_lp_Variant>
AV-unprocessed.smi:2078-12

> <Gold.Version>
5.8.1

> <Gold.Id.Protein>
6NUR|6NUR_protein|mol2

> <Gold.PLP.Fitness>
40.4034

> <Gold.PLP.PLP>
-30.0480

> <Gold.PLP.part.hbond>
-4.1483

> <Gold.PLP.part.metal>
0.0000

> <Gold.PLP.part.buried>
-2.3639

> <Gold.PLP.part.nonpolar>
-23.2235

> <Gold.PLP.part.repulsive>
0.2470

> <Gold.PLP.ligand.clash>
0.0000

> <Gold.PLP.ligand.torsion>
1.3585

> <Gold.PLP.Chemscore.Hbond>
4.3414

> <Gold.PLP.Chemscore.CHOScore>
0.0000

> <Gold.PLP.Chemscore.Metal>
0.0000

> <Gold.Chemscore.Hbonds>
donor molecule, donor type, donor heavy atom, donor atom, acceptor molecule, acceptor atom, score
      L1  H    11    41       P1  7948  2.00
      P1  H  7989  7998       L1     7  0.54
      P1  H  7997  8008       L1     7  0.51
      P1  H  7997  8010       L1    18  0.71

> <Gold.PLP.Chemscore.Internal.Correction>
0.0481

> <Gold.Rescore>
     Score         DG    S(hbond)    S(metal)    S(lipo)     H(rot)  DE(clash)    DE(int)     intcor
     14.55     -15.87       2.20        0.00      59.77       1.54       0.02       1.30       ----

> <Gold.Chemscore.Fitness>
14.5486

> <Gold.Chemscore.DG>
-15.8680

> <Gold.Chemscore.ZeroCoef>
-5.4800

> <Gold.Chemscore.Hbond>
2.1974

> <Gold.Chemscore.Metal>
0.0000

> <Gold.Chemscore.Lipo>
59.7716

> <Gold.Chemscore.Internal_Hbond>
0.0000

> <Gold.Chemscore.DEClash>
0.0155

> <Gold.Chemscore.DEInternal>
1.3039

> <Gold.Chemscore.Rot>
1.5409

> <Gold.Chemscore.Internal.Correction>
   9.000000E+99

> <Gold.Chemscore.Hbonds>
donor molecule, donor type, donor heavy atom, donor atom, acceptor molecule, acceptor atom, score
      L1  H    11    41       P1  7948  0.74
      P1  H  7989  7998       L1     7  0.47
      P1  H  7997  8008       L1     7  0.50
      P1  H  7997  8010       L1    18  0.06

> <Gold.Chemscore.Hbond.Weighted>
-7.3394

> <Gold.Chemscore.Metal.Weighted>
-0.0000

> <Gold.Chemscore.Lipo.Weighted>
-6.9933

> <Gold.Chemscore.Internal_Hbond.Weighted>
0.0000

> <Gold.Chemscore.DEClash.Weighted>
0.0155

> <Gold.Chemscore.DEInternal.Weighted>
1.3039

> <Gold.Chemscore.Rot.Weighted>
3.9446

> <Gold.Chemscore.Internal.Correction.Weighted>
   9.000000E+99

> <Gold.Protein.RotatedTorsions>
[ 6907 6896 6895 6894 ] final  -49.14 input  -60.11 | X-H torsion
[ 7974 7965 7964 7962 ] final  126.26 input  175.53 | X-H torsion
[ 8008 7997 7996 7995 ] final    5.98 input   59.86 | X-H torsion
[ 10167 10162 10161 10158 ] final  157.58 input  -65.29 | X-H torsion
[ 10718 10713 10712 10709 ] final  151.90 input   66.30 | X-H torsion
[ 10763 10752 10751 10750 ] final    7.95 input  -60.55 | X-H torsion
[ 11005 11000 10999 10996 ] final  -99.08 input  -57.11 | X-H torsion

> <Gold.Protein.ActiveResidues>
 VAL166  LYS551  ARG553  GLY616  TRP617  ASP618  TYR619  PRO620  LYS621  CYS622 
 ASP623  PHE694  ASN695  SER759  ASP760  ASP761  ALA762  ILE779  LEU786  VAL792 
 PHE793  MET794  SER795  GLU796  ALA797  LYS798  CYS799  TRP800  GLU811  SER814 

> <Gold.Protein.RotatedAtoms>
  150.8835  134.8229  159.7241 H   0  0  0  0  0  0  0  0  0  0  0  0  # atno 6907 bound_to 6896
  152.4793  134.4759  159.9660 H   0  0  0  0  0  0  0  0  0  0  0  0  # atno 6908 bound_to 6896
  151.4831  133.3503  159.2877 H   0  0  0  0  0  0  0  0  0  0  0  0  # atno 6909 bound_to 6896
  145.0637  139.3785  143.4993 H   0  0  0  0  0  0  0  0  0  0  0  0  # atno 7974 bound_to 7965
  154.7353  140.2738  155.6420 H   0  0  0  0  0  0  0  0  0  0  0  0  # atno 8008 bound_to 7997
  156.2860  140.2708  156.1990 H   0  0  0  0  0  0  0  0  0  0  0  0  # atno 8009 bound_to 7997
  155.0329  140.0371  157.2470 H   0  0  0  0  0  0  0  0  0  0  0  0  # atno 8010 bound_to 7997
  139.4823  144.4904  151.8316 H   0  0  0  0  0  0  0  0  0  0  0  0  # atno 10167 bound_to 10162
  157.2648  131.0805  151.1641 H   0  0  0  0  0  0  0  0  0  0  0  0  # atno 10718 bound_to 10713
  153.2305  135.6892  153.7896 H   0  0  0  0  0  0  0  0  0  0  0  0  # atno 10763 bound_to 10752
  153.7062  135.3289  155.3237 H   0  0  0  0  0  0  0  0  0  0  0  0  # atno 10764 bound_to 10752
  154.8311  135.4579  154.1188 H   0  0  0  0  0  0  0  0  0  0  0  0  # atno 10765 bound_to 10752
  141.1321  133.8294  157.0925 H   0  0  0  0  0  0  0  0  0  0  0  0  # atno 11005 bound_to 11000
  146.3525  140.0348  142.8647 LP  0  0  0  0  0  0  0  0  0  0  0  0  # atno 17320 bound_to 7965
  145.1377  140.9554  143.4507 LP  0  0  0  0  0  0  0  0  0  0  0  0  # atno 17321 bound_to 7965
  140.4388  144.2015  150.5890 LP  0  0  0  0  0  0  0  0  0  0  0  0  # atno 17342 bound_to 10162
  140.4704  143.2415  151.9096 LP  0  0  0  0  0  0  0  0  0  0  0  0  # atno 17343 bound_to 10162
  157.3136  130.6902  149.6229 LP  0  0  0  0  0  0  0  0  0  0  0  0  # atno 17370 bound_to 10713
  155.9663  130.4356  150.5098 LP  0  0  0  0  0  0  0  0  0  0  0  0  # atno 17371 bound_to 10713
  140.0383  134.9867  157.0914 LP  0  0  0  0  0  0  0  0  0  0  0  0  # atno 17394 bound_to 11000
  140.4175  134.1916  155.7164 LP  0  0  0  0  0  0  0  0  0  0  0  0  # atno 17395 bound_to 11000

$$$$
