AV-unprocessed.smi:33|AV-procd|sdf|214|dock6
  -GOLD-   2262015523D 1   1.00000     0.00000
 Structure written by MMmdl.
 67 72  0  0  0  0  0  0  0  0  1 V2000
  151.9958  139.7548  157.8195 O   0  0  0  0  0  0  0  0  0  0  0  0
  151.7792  140.7878  157.1827 C   0  0  0  0  0  0  0  0  0  0  0  0
  151.3831  140.8030  155.8987 O   0  0  0  0  0  0  0  0  0  0  0  0
  151.6495  139.7023  155.0459 C   0  0  0  0  0  0  0  0  0  0  0  0
  150.4846  138.7198  155.1924 C   0  0  1  0  0  0  0  0  0  0  0  0
  150.0856  138.6172  156.5550 O   0  0  0  0  0  0  0  0  0  0  0  0
  148.7801  138.1293  156.6223 C   0  0  2  0  0  0  0  0  0  0  0  0
  148.7854  136.7189  157.1430 N   0  0  0  0  0  0  0  0  0  0  0  0
  149.8970  135.9348  157.3615 C   0  0  0  0  0  0  0  0  0  0  0  0
  149.6614  134.7330  157.8119 N   0  0  0  0  0  0  0  0  0  0  0  0
  148.2783  134.6794  157.9068 C   0  0  0  0  0  0  0  0  0  0  0  0
  147.3603  133.6780  158.3196 C   0  0  0  0  0  0  0  0  0  0  0  0
  147.7555  132.4533  158.7317 N   0  0  0  0  0  0  0  0  0  0  0  0
  147.4491  132.0923  160.1226 C   0  0  0  0  0  0  0  0  0  0  0  0
  147.3412  130.9046  160.4342 O   0  0  0  0  0  0  0  0  0  0  0  0
  147.2281  133.1603  161.1552 C   0  0  0  0  0  0  0  0  0  0  0  0
  146.1003  133.1028  162.0031 C   0  0  0  0  0  0  0  0  0  0  0  0
  145.8986  134.0939  162.9832 C   0  0  0  0  0  0  0  0  0  0  0  0
  146.8329  135.1363  163.1348 C   0  0  0  0  0  0  0  0  0  0  0  0
  147.9740  135.1833  162.3115 C   0  0  0  0  0  0  0  0  0  0  0  0
  148.1754  134.1942  161.3299 C   0  0  0  0  0  0  0  0  0  0  0  0
  148.4398  131.6034  157.7467 C   0  0  0  0  0  0  0  0  0  0  0  0
  149.1749  130.6938  158.1358 O   0  0  0  0  0  0  0  0  0  0  0  0
  148.2924  131.8669  156.2750 C   0  0  0  0  0  0  0  0  0  0  0  0
  149.4148  131.7626  155.4242 C   0  0  0  0  0  0  0  0  0  0  0  0
  149.2826  131.9974  154.0418 C   0  0  0  0  0  0  0  0  0  0  0  0
  148.0242  132.3185  153.4986 C   0  0  0  0  0  0  0  0  0  0  0  0
  146.8955  132.3950  154.3366 C   0  0  0  0  0  0  0  0  0  0  0  0
  147.0268  132.1618  155.7194 C   0  0  0  0  0  0  0  0  0  0  0  0
  146.0353  133.9689  158.2942 N   0  0  0  0  0  0  0  0  0  0  0  0
  145.6341  135.1721  157.8764 C   0  0  0  0  0  0  0  0  0  0  0  0
  146.3764  136.1987  157.4562 N   0  0  0  0  0  0  0  0  0  0  0  0
  147.7119  135.9158  157.4899 C   0  0  0  0  0  0  0  0  0  0  0  0
  148.1672  138.2497  155.2074 C   0  0  2  0  0  0  0  0  0  0  0  0
  148.0000  137.0145  154.5323 O   0  0  0  0  0  0  0  0  0  0  0  0
  149.1903  139.1152  154.4879 C   0  0  1  0  0  0  0  0  0  0  0  0
  148.9157  140.4045  154.6968 F   0  0  0  0  0  0  0  0  0  0  0  0
  151.9274  142.1582  157.7527 C   0  0  0  0  0  0  0  0  0  0  0  0
  152.7265  142.3502  158.9036 C   0  0  0  0  0  0  0  0  0  0  0  0
  152.8845  143.6345  159.4602 C   0  0  0  0  0  0  0  0  0  0  0  0
  152.2468  144.7425  158.8719 C   0  0  0  0  0  0  0  0  0  0  0  0
  151.4510  144.5650  157.7252 C   0  0  0  0  0  0  0  0  0  0  0  0
  151.2916  143.2816  157.1678 C   0  0  0  0  0  0  0  0  0  0  0  0
  151.7541  140.0277  154.0099 H   0  0  0  0  0  0  0  0  0  0  0  0
  152.5852  139.2300  155.3472 H   0  0  0  0  0  0  0  0  0  0  0  0
  150.7873  137.7409  154.8193 H   0  0  0  0  0  0  0  0  0  0  0  0
  148.2273  138.6907  157.3764 H   0  0  0  0  0  0  0  0  0  0  0  0
  150.9007  136.2885  157.1751 H   0  0  0  0  0  0  0  0  0  0  0  0
  145.3772  132.3070  161.8955 H   0  0  0  0  0  0  0  0  0  0  0  0
  145.0272  134.0536  163.6200 H   0  0  0  0  0  0  0  0  0  0  0  0
  146.6779  135.8957  163.8868 H   0  0  0  0  0  0  0  0  0  0  0  0
  148.6961  135.9770  162.4333 H   0  0  0  0  0  0  0  0  0  0  0  0
  149.0574  134.2369  160.7067 H   0  0  0  0  0  0  0  0  0  0  0  0
  150.3856  131.5172  155.8303 H   0  0  0  0  0  0  0  0  0  0  0  0
  150.1474  131.9300  153.3984 H   0  0  0  0  0  0  0  0  0  0  0  0
  147.9237  132.4996  152.4386 H   0  0  0  0  0  0  0  0  0  0  0  0
  145.9283  132.6326  153.9188 H   0  0  0  0  0  0  0  0  0  0  0  0
  146.1530  132.2201  156.3523 H   0  0  0  0  0  0  0  0  0  0  0  0
  144.5666  135.3363  157.8788 H   0  0  0  0  0  0  0  0  0  0  0  0
  147.1947  138.7393  155.2707 H   0  0  0  0  0  0  0  0  0  0  0  0
  148.2006  137.1424  153.6178 H   0  0  0  0  0  0  0  0  0  0  0  0
  149.2190  138.9595  153.4084 H   0  0  0  0  0  0  0  0  0  0  0  0
  153.2262  141.5146  159.3723 H   0  0  0  0  0  0  0  0  0  0  0  0
  153.4964  143.7693  160.3399 H   0  0  0  0  0  0  0  0  0  0  0  0
  152.3694  145.7269  159.2985 H   0  0  0  0  0  0  0  0  0  0  0  0
  150.9627  145.4141  157.2698 H   0  0  0  0  0  0  0  0  0  0  0  0
  150.6778  143.1811  156.2850 H   0  0  0  0  0  0  0  0  0  0  0  0
  1  2  2  0  0  0  0
  2  3  1  0  0  0  0
  2 38  1  0  0  0  0
  3  4  1  0  0  0  0
  4  5  1  0  0  0  0
  4 44  1  0  0  0  0
  4 45  1  0  0  0  0
  5 36  1  0  0  0  0
  5  6  1  0  0  0  0
  5 46  1  0  0  0  0
  6  7  1  0  0  0  0
  7  8  1  0  0  0  0
  7 34  1  0  0  0  0
  7 47  1  0  0  0  0
  8 33  1  0  0  0  0
  8  9  1  0  0  0  0
  9 10  2  0  0  0  0
  9 48  1  0  0  0  0
 10 11  1  0  0  0  0
 11 33  2  0  0  0  0
 11 12  1  0  0  0  0
 12 13  1  0  0  0  0
 12 30  2  0  0  0  0
 13 14  1  0  0  0  0
 13 22  1  0  0  0  0
 14 15  2  0  0  0  0
 14 16  1  0  0  0  0
 16 21  1  0  0  0  0
 16 17  2  0  0  0  0
 17 18  1  0  0  0  0
 17 49  1  0  0  0  0
 18 19  2  0  0  0  0
 18 50  1  0  0  0  0
 19 20  1  0  0  0  0
 19 51  1  0  0  0  0
 20 21  2  0  0  0  0
 20 52  1  0  0  0  0
 21 53  1  0  0  0  0
 22 23  2  0  0  0  0
 22 24  1  0  0  0  0
 24 29  1  0  0  0  0
 24 25  2  0  0  0  0
 25 26  1  0  0  0  0
 25 54  1  0  0  0  0
 26 27  2  0  0  0  0
 26 55  1  0  0  0  0
 27 28  1  0  0  0  0
 27 56  1  0  0  0  0
 28 29  2  0  0  0  0
 28 57  1  0  0  0  0
 29 58  1  0  0  0  0
 30 31  1  0  0  0  0
 31 32  2  0  0  0  0
 31 59  1  0  0  0  0
 32 33  1  0  0  0  0
 34 35  1  0  0  0  0
 34 36  1  0  0  0  0
 34 60  1  0  0  0  0
 35 61  1  0  0  0  0
 36 37  1  0  0  0  0
 36 62  1  0  0  0  0
 38 43  1  0  0  0  0
 38 39  2  0  0  0  0
 39 40  1  0  0  0  0
 39 63  1  0  0  0  0
 40 41  2  0  0  0  0
 40 64  1  0  0  0  0
 41 42  1  0  0  0  0
 41 65  1  0  0  0  0
 42 43  2  0  0  0  0
 42 66  1  0  0  0  0
 43 67  1  0  0  0  0
M  END
> <s_m_source_file>
AV-unprocessed.smi

> <i_m_source_file_index>
33

> <i_lp_mmshare_version>
43012

> <i_f3d_flags>
0

> <s_epik_input>
W2NIXTFbY0hdW2NIXVtjSF1bY0hdYzFDKD1PKU9bQ0gyXVtDQEBIXTJPW0NASF0oW0NAQEhdKFtPSF0pW0NAQEhdMkYpbihbY0hdbjMpYyhjMzQpbltjSF1uYzROKEMoPU8pYzVbY0hdW2NIXVtjSF1bY0hdW2NIXTUpQyg9TyljNltjSF1bY0hdW2NIXVtjSF1bY0hdNg==

> <s_epik_cmdline>
J2VwaWtfcHl0aG9uJywgJy1waCcsICc3LjAnLCAnLXRuJywgJzgnLCAnLW1hJywgJzIwMCcsICctbWV0YWxfYmluZGluZycsICctaW1hZScsICc8aW5maWxlLm1hZT4nLCAnLW9tYWUnLCAnPG91dGZpbGUubWFlPic=

> <r_lp_tautomer_probability>
1

> <r_epik_Ionization_Penalty>
0.00067664

> <r_epik_Ionization_Penalty_Charging>
0

> <r_epik_Ionization_Penalty_Neutral>
0.00067664

> <r_epik_State_Penalty>
0.000428095

> <r_epik_Charging_Adjusted_Penalty>
0.000428095

> <i_epik_Tot_Q>
0

> <i_epik_Tot_abs_Q>
0

> <r_epik_Metal_State_Penalty>
-0

> <b_epik_Metal_Only>
0

> <s_epik_Chemistry_Notes>
This compound has an ester and may undergo hydrolysis at high or low pH. This compound contains an acetal/aminal-like group ( X-CH(R)-Y where X, Y are N, S, or O) that may be acid/base labile, releasing an aldehyde.

> <s_lp_Force_Field>
OPLS_2005

> <r_lp_Energy>
71.2242

> <b_lp_Chiralities_Consistent>
1

> <s_lp_Variant>
AV-unprocessed.smi:33-16

> <Gold.Version>
5.8.1

> <Gold.Id.Protein>
6NUR|6NUR_protein|mol2

> <Gold.PLP.Fitness>
61.5732

> <Gold.PLP.PLP>
-59.8961

> <Gold.PLP.part.hbond>
-2.0000

> <Gold.PLP.part.metal>
0.0000

> <Gold.PLP.part.buried>
-7.0752

> <Gold.PLP.part.nonpolar>
-50.7812

> <Gold.PLP.part.repulsive>
0.0044

> <Gold.PLP.ligand.clash>
0.0000

> <Gold.PLP.ligand.torsion>
4.1150

> <Gold.PLP.Chemscore.Hbond>
1.8880

> <Gold.PLP.Chemscore.CHOScore>
0.0000

> <Gold.PLP.Chemscore.Metal>
0.0000

> <Gold.Chemscore.Hbonds>
donor molecule, donor type, donor heavy atom, donor atom, acceptor molecule, acceptor atom, score
      L1  H    35    61       P1  7948  0.73
      P1  H  6896  6909       L1    10  0.86

> <Gold.PLP.Chemscore.Internal.Correction>
4.2431

> <Gold.Rescore>
     Score         DG    S(hbond)    S(metal)    S(lipo)     H(rot)  DE(clash)    DE(int)     intcor
     15.65     -23.60       1.70        0.00     161.45       2.52       0.23       7.72       ----

> <Gold.Chemscore.Fitness>
15.6490

> <Gold.Chemscore.DG>
-23.5953

> <Gold.Chemscore.ZeroCoef>
-5.4800

> <Gold.Chemscore.Hbond>
1.7032

> <Gold.Chemscore.Metal>
0.0000

> <Gold.Chemscore.Lipo>
161.4531

> <Gold.Chemscore.Internal_Hbond>
0.0000

> <Gold.Chemscore.DEClash>
0.2268

> <Gold.Chemscore.DEInternal>
7.7195

> <Gold.Chemscore.Rot>
2.5247

> <Gold.Chemscore.Internal.Correction>
   9.000000E+99

> <Gold.Chemscore.Hbonds>
donor molecule, donor type, donor heavy atom, donor atom, acceptor molecule, acceptor atom, score
      L1  H    35    61       P1  7948  0.69
      P1  H  6896  6909       L1    10  0.78

> <Gold.Chemscore.Hbond.Weighted>
-5.6885

> <Gold.Chemscore.Metal.Weighted>
-0.0000

> <Gold.Chemscore.Lipo.Weighted>
-18.8900

> <Gold.Chemscore.Internal_Hbond.Weighted>
0.0000

> <Gold.Chemscore.DEClash.Weighted>
0.2268

> <Gold.Chemscore.DEInternal.Weighted>
7.7195

> <Gold.Chemscore.Rot.Weighted>
6.4633

> <Gold.Chemscore.Internal.Correction.Weighted>
   9.000000E+99

> <Gold.Protein.RotatedTorsions>
[ 6907 6896 6895 6894 ] final    7.70 input  -60.11 | X-H torsion
[ 7974 7965 7964 7962 ] final  -41.98 input  175.53 | X-H torsion
[ 8008 7997 7996 7995 ] final   76.38 input   59.86 | X-H torsion
[ 10167 10162 10161 10158 ] final -142.10 input  -65.29 | X-H torsion
[ 10718 10713 10712 10709 ] final   76.36 input   66.30 | X-H torsion
[ 10763 10752 10751 10750 ] final    0.31 input  -60.55 | X-H torsion
[ 11005 11000 10999 10996 ] final  114.69 input  -57.11 | X-H torsion

> <Gold.Protein.ActiveResidues>
 VAL166  LYS551  ARG553  GLY616  TRP617  ASP618  TYR619  PRO620  LYS621  CYS622 
 ASP623  PHE694  ASN695  SER759  ASP760  ASP761  ALA762  ILE779  LEU786  VAL792 
 PHE793  MET794  SER795  GLU796  ALA797  LYS798  CYS799  TRP800  GLU811  SER814 

> <Gold.Protein.RotatedAtoms>
  151.6941  135.0941  160.0238 H   0  0  0  0  0  0  0  0  0  0  0  0  # atno 6907 bound_to 6896
  152.3760  133.6478  159.6132 H   0  0  0  0  0  0  0  0  0  0  0  0  # atno 6908 bound_to 6896
  150.7710  133.9108  159.3410 H   0  0  0  0  0  0  0  0  0  0  0  0  # atno 6909 bound_to 6896
  146.0159  140.6908  142.9201 H   0  0  0  0  0  0  0  0  0  0  0  0  # atno 7974 bound_to 7965
  155.8265  140.3468  155.5546 H   0  0  0  0  0  0  0  0  0  0  0  0  # atno 8008 bound_to 7997
  155.8287  140.0924  157.1825 H   0  0  0  0  0  0  0  0  0  0  0  0  # atno 8009 bound_to 7997
  154.4004  140.1416  156.3575 H   0  0  0  0  0  0  0  0  0  0  0  0  # atno 8010 bound_to 7997
  139.8121  143.7688  152.2664 H   0  0  0  0  0  0  0  0  0  0  0  0  # atno 10167 bound_to 10162
  157.6670  130.9770  150.1486 H   0  0  0  0  0  0  0  0  0  0  0  0  # atno 10718 bound_to 10713
  153.3223  135.6970  153.7020 H   0  0  0  0  0  0  0  0  0  0  0  0  # atno 10763 bound_to 10752
  153.5855  135.3490  155.2892 H   0  0  0  0  0  0  0  0  0  0  0  0  # atno 10764 bound_to 10752
  154.8600  135.4305  154.2390 H   0  0  0  0  0  0  0  0  0  0  0  0  # atno 10765 bound_to 10752
  139.8988  134.9572  156.6931 H   0  0  0  0  0  0  0  0  0  0  0  0  # atno 11005 bound_to 11000
  144.6971  140.3481  143.7187 LP  0  0  0  0  0  0  0  0  0  0  0  0  # atno 17320 bound_to 7965
  145.7269  139.1725  143.2453 LP  0  0  0  0  0  0  0  0  0  0  0  0  # atno 17321 bound_to 7965
  139.7841  144.7434  151.0047 LP  0  0  0  0  0  0  0  0  0  0  0  0  # atno 17342 bound_to 10162
  140.7817  143.4511  151.0411 LP  0  0  0  0  0  0  0  0  0  0  0  0  # atno 17343 bound_to 10162
  156.2291  130.3680  149.8466 LP  0  0  0  0  0  0  0  0  0  0  0  0  # atno 17370 bound_to 10713
  156.6298  130.8661  151.3493 LP  0  0  0  0  0  0  0  0  0  0  0  0  # atno 17371 bound_to 10713
  140.7209  133.9141  155.8146 LP  0  0  0  0  0  0  0  0  0  0  0  0  # atno 17394 bound_to 11000
  141.0228  134.0865  157.4102 LP  0  0  0  0  0  0  0  0  0  0  0  0  # atno 17395 bound_to 11000

$$$$
