AV-unprocessed.smi:2373|AV-procd|sdf|9440|dock8
  -GOLD-   2272013 73D 1   1.00000     0.00000
 Structure written by MMmdl.
 46 47  0  0  0  0  0  0  0  0  1 V2000
  145.7281  132.0463  151.5190 C   0  0  0  0  0  0  0  0  0  0  0  0
  144.5773  132.9370  151.4059 N   0  0  0  0  0  0  0  0  0  0  0  0
  143.3239  132.4381  150.8539 C   0  0  0  0  0  0  0  0  0  0  0  0
  144.6945  134.2908  151.7961 C   0  0  0  0  0  0  0  0  0  0  0  0
  143.5619  135.1384  151.8777 C   0  0  0  0  0  0  0  0  0  0  0  0
  143.7339  136.4800  152.2680 C   0  0  0  0  0  0  0  0  0  0  0  0
  145.0268  136.9542  152.5603 C   0  0  0  0  0  0  0  0  0  0  0  0
  145.1680  138.3082  152.9682 N   0  0  0  0  0  0  0  0  0  0  0  0
  146.2164  138.8945  153.5711 C   0  0  0  0  0  0  0  0  0  0  0  0
  147.2796  138.3379  153.8417 O   0  0  0  0  0  0  0  0  0  0  0  0
  145.9620  140.1896  153.8237 N   0  0  0  0  0  0  0  0  0  0  0  0
  146.8378  141.1826  154.4646 C   0  0  0  0  0  0  0  0  0  0  0  0
  146.3927  142.6331  154.1059 C   0  0  0  0  0  0  0  0  0  0  0  0
  145.0317  143.0806  154.6744 C   0  0  0  0  0  0  0  0  0  0  0  0
  144.4875  144.0932  153.8557 O   0  0  0  0  0  0  0  0  0  0  0  0
  146.7578  140.9129  155.9884 C   0  0  0  0  0  0  0  0  0  0  0  0
  147.8575  141.6331  156.7879 C   0  0  0  0  0  0  0  0  0  0  0  0
  149.1365  141.2632  156.2919 O   0  0  0  0  0  0  0  0  0  0  0  0
  149.3276  141.6472  154.9375 C   0  0  0  0  0  0  0  0  0  0  0  0
  148.3078  140.9320  154.0334 C   0  0  0  0  0  0  0  0  0  0  0  0
  146.0967  136.0337  152.4668 C   0  0  0  0  0  0  0  0  0  0  0  0
  145.9355  134.7467  152.0947 N   0  0  0  0  0  0  0  0  0  0  0  0
  146.0864  132.0114  152.5483 H   0  0  0  0  0  0  0  0  0  0  0  0
  146.5425  132.3900  150.8802 H   0  0  0  0  0  0  0  0  0  0  0  0
  145.4752  131.0285  151.2214 H   0  0  0  0  0  0  0  0  0  0  0  0
  143.0393  133.0097  149.9698 H   0  0  0  0  0  0  0  0  0  0  0  0
  142.5246  132.5124  151.5917 H   0  0  0  0  0  0  0  0  0  0  0  0
  143.4081  131.3922  150.5584 H   0  0  0  0  0  0  0  0  0  0  0  0
  142.5667  134.7873  151.6512 H   0  0  0  0  0  0  0  0  0  0  0  0
  142.8785  137.1365  152.3367 H   0  0  0  0  0  0  0  0  0  0  0  0
  144.3960  138.9137  152.7309 H   0  0  0  0  0  0  0  0  0  0  0  0
  145.0534  140.5318  153.5472 H   0  0  0  0  0  0  0  0  0  0  0  0
  147.1519  143.3441  154.4301 H   0  0  0  0  0  0  0  0  0  0  0  0
  146.3577  142.7386  153.0211 H   0  0  0  0  0  0  0  0  0  0  0  0
  144.3250  142.2519  154.7119 H   0  0  0  0  0  0  0  0  0  0  0  0
  145.1316  143.4740  155.6852 H   0  0  0  0  0  0  0  0  0  0  0  0
  143.8184  143.7110  153.3086 H   0  0  0  0  0  0  0  0  0  0  0  0
  145.7775  141.1726  156.3864 H   0  0  0  0  0  0  0  0  0  0  0  0
  146.8706  139.8426  156.1692 H   0  0  0  0  0  0  0  0  0  0  0  0
  147.7350  142.7160  156.7531 H   0  0  0  0  0  0  0  0  0  0  0  0
  147.7978  141.3470  157.8381 H   0  0  0  0  0  0  0  0  0  0  0  0
  149.2544  142.7308  154.8389 H   0  0  0  0  0  0  0  0  0  0  0  0
  150.3402  141.3757  154.6392 H   0  0  0  0  0  0  0  0  0  0  0  0
  148.5196  139.8621  154.0679 H   0  0  0  0  0  0  0  0  0  0  0  0
  148.4695  141.2377  152.9995 H   0  0  0  0  0  0  0  0  0  0  0  0
  147.1112  136.3066  152.7111 H   0  0  0  0  0  0  0  0  0  0  0  0
  1  2  1  0  0  0  0
  1 23  1  0  0  0  0
  1 24  1  0  0  0  0
  1 25  1  0  0  0  0
  2  3  1  0  0  0  0
  2  4  1  0  0  0  0
  3 26  1  0  0  0  0
  3 27  1  0  0  0  0
  3 28  1  0  0  0  0
  4 22  1  0  0  0  0
  4  5  2  0  0  0  0
  5  6  1  0  0  0  0
  5 29  1  0  0  0  0
  6  7  2  0  0  0  0
  6 30  1  0  0  0  0
  7  8  1  0  0  0  0
  7 21  1  0  0  0  0
  8  9  1  0  0  0  0
  8 31  1  0  0  0  0
  9 10  2  0  0  0  0
  9 11  1  0  0  0  0
 11 12  1  0  0  0  0
 11 32  1  0  0  0  0
 12 20  1  0  0  0  0
 12 13  1  0  0  0  0
 12 16  1  0  0  0  0
 13 14  1  0  0  0  0
 13 33  1  0  0  0  0
 13 34  1  0  0  0  0
 14 15  1  0  0  0  0
 14 35  1  0  0  0  0
 14 36  1  0  0  0  0
 15 37  1  0  0  0  0
 16 17  1  0  0  0  0
 16 38  1  0  0  0  0
 16 39  1  0  0  0  0
 17 18  1  0  0  0  0
 17 40  1  0  0  0  0
 17 41  1  0  0  0  0
 18 19  1  0  0  0  0
 19 20  1  0  0  0  0
 19 42  1  0  0  0  0
 19 43  1  0  0  0  0
 20 44  1  0  0  0  0
 20 45  1  0  0  0  0
 21 22  2  0  0  0  0
 21 46  1  0  0  0  0
M  END
> <s_m_source_file>
AV-unprocessed.smi

> <i_m_source_file_index>
2373

> <i_lp_mmshare_version>
43012

> <i_f3d_flags>
0

> <s_epik_input>
W0NIM11OKFtDSDNdKWMxW2NIXVtjSF1jKFtjSF1uMSlbTkhdQyg9TylbTkhdQzIoW0NIMl1bQ0gyXVtPSF0pW0NIMl1bQ0gyXU9bQ0gyXVtDSDJdMg==

> <s_epik_cmdline>
J2VwaWtfcHl0aG9uJywgJy1waCcsICc3LjAnLCAnLXRuJywgJzgnLCAnLW1hJywgJzIwMCcsICctbWV0YWxfYmluZGluZycsICctaW1hZScsICc8aW5maWxlLm1hZT4nLCAnLW9tYWUnLCAnPG91dGZpbGUubWFlPic=

> <r_lp_tautomer_probability>
1

> <r_epik_Ionization_Penalty>
0.631973

> <r_epik_Ionization_Penalty_Charging>
0

> <r_epik_Ionization_Penalty_Neutral>
0.631973

> <r_epik_State_Penalty>
0.647706

> <r_epik_Charging_Adjusted_Penalty>
0.647706

> <i_epik_Tot_Q>
0

> <i_epik_Tot_abs_Q>
0

> <r_epik_Metal_State_Penalty>
0.309159

> <b_epik_Metal_Only>
0

> <s_lp_Force_Field>
OPLS_2005

> <r_lp_Energy>
18.939

> <b_lp_Chiralities_Consistent>
1

> <s_lp_Variant>
AV-unprocessed.smi:2373-2

> <Gold.Version>
5.8.1

> <Gold.Id.Protein>
6NUR|6NUR_protein|mol2

> <Gold.PLP.Fitness>
44.2239

> <Gold.PLP.PLP>
-33.6626

> <Gold.PLP.part.hbond>
-3.0000

> <Gold.PLP.part.metal>
0.0000

> <Gold.PLP.part.buried>
-3.7577

> <Gold.PLP.part.nonpolar>
-28.7205

> <Gold.PLP.part.repulsive>
0.3648

> <Gold.PLP.ligand.clash>
0.0000

> <Gold.PLP.ligand.torsion>
0.7328

> <Gold.PLP.Chemscore.Hbond>
3.0000

> <Gold.PLP.Chemscore.CHOScore>
1.0000

> <Gold.PLP.Chemscore.Metal>
0.0000

> <Gold.Chemscore.Hbonds>
donor molecule, donor type, donor heavy atom, donor atom, acceptor molecule, acceptor atom, score
      L1  H     8    31       P1 10175  1.00
      L1  H    11    32       P1 10175  1.00
      L1  H    15    37       P1 10174  0.98
      L1  C    21    46       P1  7948  0.98

> <Gold.PLP.Chemscore.Internal.Correction>
0.0269

> <Gold.Rescore>
     Score         DG    S(hbond)    S(metal)    S(lipo)     H(rot)  DE(clash)    DE(int)     intcor
     14.01     -17.43       2.75        0.00      69.38       2.09       0.20       3.22       ----

> <Gold.Chemscore.Fitness>
14.0122

> <Gold.Chemscore.DG>
-17.4289

> <Gold.Chemscore.ZeroCoef>
-5.4800

> <Gold.Chemscore.Hbond>
2.7458

> <Gold.Chemscore.Metal>
0.0000

> <Gold.Chemscore.Lipo>
69.3812

> <Gold.Chemscore.Internal_Hbond>
0.0000

> <Gold.Chemscore.DEClash>
0.1960

> <Gold.Chemscore.DEInternal>
3.2207

> <Gold.Chemscore.Rot>
2.0859

> <Gold.Chemscore.Internal.Correction>
   9.000000E+99

> <Gold.Chemscore.Hbonds>
donor molecule, donor type, donor heavy atom, donor atom, acceptor molecule, acceptor atom, score
      L1  H     8    31       P1 10175  0.98
      L1  H    11    32       P1 10175  0.94
      L1  H    15    37       P1 10174  0.65

> <Gold.Chemscore.Hbond.Weighted>
-9.1711

> <Gold.Chemscore.Metal.Weighted>
-0.0000

> <Gold.Chemscore.Lipo.Weighted>
-8.1176

> <Gold.Chemscore.Internal_Hbond.Weighted>
0.0000

> <Gold.Chemscore.DEClash.Weighted>
0.1960

> <Gold.Chemscore.DEInternal.Weighted>
3.2207

> <Gold.Chemscore.Rot.Weighted>
5.3399

> <Gold.Chemscore.Internal.Correction.Weighted>
   9.000000E+99

> <Gold.Protein.RotatedTorsions>
[ 6907 6896 6895 6894 ] final   48.15 input  -60.11 | X-H torsion
[ 7974 7965 7964 7962 ] final   -7.08 input  175.53 | X-H torsion
[ 8008 7997 7996 7995 ] final  -62.12 input   59.86 | X-H torsion
[ 10167 10162 10161 10158 ] final  -30.59 input  -65.29 | X-H torsion
[ 10718 10713 10712 10709 ] final -105.26 input   66.30 | X-H torsion
[ 10763 10752 10751 10750 ] final   27.55 input  -60.55 | X-H torsion
[ 11005 11000 10999 10996 ] final  108.04 input  -57.11 | X-H torsion

> <Gold.Protein.ActiveResidues>
 VAL166  LYS551  ARG553  GLY616  TRP617  ASP618  TYR619  PRO620  LYS621  CYS622 
 ASP623  PHE694  ASN695  SER759  ASP760  ASP761  ALA762  ILE779  LEU786  VAL792 
 PHE793  MET794  SER795  GLU796  ALA797  LYS798  CYS799  TRP800  GLU811  SER814 

> <Gold.Protein.RotatedAtoms>
  152.2762  134.7879  160.0404 H   0  0  0  0  0  0  0  0  0  0  0  0  # atno 6907 bound_to 6896
  151.8474  133.3429  159.3670 H   0  0  0  0  0  0  0  0  0  0  0  0  # atno 6908 bound_to 6896
  150.7171  134.5260  159.5721 H   0  0  0  0  0  0  0  0  0  0  0  0  # atno 6909 bound_to 6896
  146.2316  140.2266  142.8339 H   0  0  0  0  0  0  0  0  0  0  0  0  # atno 7974 bound_to 7965
  154.4483  140.1003  156.6538 H   0  0  0  0  0  0  0  0  0  0  0  0  # atno 8008 bound_to 7997
  155.5369  140.3482  155.4420 H   0  0  0  0  0  0  0  0  0  0  0  0  # atno 8009 bound_to 7997
  156.0625  140.1330  156.9914 H   0  0  0  0  0  0  0  0  0  0  0  0  # atno 8010 bound_to 7997
  140.7247  143.3837  151.1554 H   0  0  0  0  0  0  0  0  0  0  0  0  # atno 10167 bound_to 10162
  156.0338  130.5555  150.7513 H   0  0  0  0  0  0  0  0  0  0  0  0  # atno 10718 bound_to 10713
  153.0549  135.6534  154.0603 H   0  0  0  0  0  0  0  0  0  0  0  0  # atno 10763 bound_to 10752
  154.0283  135.2914  155.3373 H   0  0  0  0  0  0  0  0  0  0  0  0  # atno 10764 bound_to 10752
  154.6858  135.5302  153.8391 H   0  0  0  0  0  0  0  0  0  0  0  0  # atno 10765 bound_to 10752
  139.8837  134.9419  156.5911 H   0  0  0  0  0  0  0  0  0  0  0  0  # atno 11005 bound_to 11000
  144.9591  140.8256  143.5525 LP  0  0  0  0  0  0  0  0  0  0  0  0  # atno 17320 bound_to 7965
  145.2234  139.2148  143.5081 LP  0  0  0  0  0  0  0  0  0  0  0  0  # atno 17321 bound_to 7965
  139.7430  143.8895  152.3055 LP  0  0  0  0  0  0  0  0  0  0  0  0  # atno 17342 bound_to 10162
  139.8723  144.7062  150.8973 LP  0  0  0  0  0  0  0  0  0  0  0  0  # atno 17343 bound_to 10162
  157.5057  131.0922  151.0260 LP  0  0  0  0  0  0  0  0  0  0  0  0  # atno 17370 bound_to 10713
  157.0629  130.5833  149.5389 LP  0  0  0  0  0  0  0  0  0  0  0  0  # atno 17371 bound_to 10713
  140.7955  133.8548  155.8682 LP  0  0  0  0  0  0  0  0  0  0  0  0  # atno 17394 bound_to 11000
  140.9639  134.1619  157.4631 LP  0  0  0  0  0  0  0  0  0  0  0  0  # atno 17395 bound_to 11000

$$$$
