AV-unprocessed.smi:3202|AV-procd|sdf|12245|dock3
  -GOLD-   2272018 83D 1   1.00000     0.00000
 Structure written by MMmdl.
 43 44  0  0  0  0  0  0  0  0  2 V2000
  147.1844  139.1887  151.9223 C   0  0  0  0  0  0  0  0  0  0  0  0
  148.0550  139.5271  153.0964 C   0  0  0  0  0  0  0  0  0  0  0  0
  148.5145  140.8111  153.5121 C   0  0  0  0  0  0  0  0  0  0  0  0
  149.2666  140.5570  154.6249 C   0  0  0  0  0  0  0  0  0  0  0  0
  150.0260  141.4697  155.5334 C   0  0  0  0  0  0  0  0  0  0  0  0
  149.3972  141.6334  156.9303 C   0  0  2  0  0  0  0  0  0  0  0  0
  147.8697  141.7980  156.8735 C   0  0  0  0  0  0  0  0  0  0  0  0
  149.9972  142.8027  157.6102 N   0  3  0  0  0  0  0  0  0  0  0  0
  151.4290  142.6721  157.9645 C   0  0  2  0  0  0  0  0  0  0  0  0
  151.7065  141.5445  158.9680 C   0  0  0  0  0  0  0  0  0  0  0  0
  153.0035  141.9451  159.6823 C   0  0  0  0  0  0  0  0  0  0  0  0
  153.3087  143.3878  159.2510 C   0  0  0  0  0  0  0  0  0  0  0  0
  152.0187  143.9407  158.6171 C   0  0  0  0  0  0  0  0  0  0  0  0
  152.3327  145.0272  157.5713 C   0  0  0  0  0  0  0  0  0  0  0  0
  151.1053  144.5306  159.7171 C   0  0  0  0  0  0  0  0  0  0  0  0
  149.2196  139.1949  154.8163 N   0  0  0  0  0  0  0  0  0  0  0  0
  148.4858  138.5558  153.8871 N   0  0  0  0  0  0  0  0  0  0  0  0
  149.6776  138.6934  155.5641 H   0  0  0  0  0  0  0  0  0  0  0  0
  146.8392  140.0898  151.4152 H   0  0  0  0  0  0  0  0  0  0  0  0
  146.3036  138.6266  152.2340 H   0  0  0  0  0  0  0  0  0  0  0  0
  147.7257  138.5845  151.1939 H   0  0  0  0  0  0  0  0  0  0  0  0
  148.3205  141.7723  153.0594 H   0  0  0  0  0  0  0  0  0  0  0  0
  150.1265  142.4494  155.0638 H   0  0  0  0  0  0  0  0  0  0  0  0
  151.0414  141.0858  155.6396 H   0  0  0  0  0  0  0  0  0  0  0  0
  149.6136  140.7311  157.5046 H   0  0  0  0  0  0  0  0  0  0  0  0
  147.3892  140.9252  156.4308 H   0  0  0  0  0  0  0  0  0  0  0  0
  147.5857  142.6692  156.2822 H   0  0  0  0  0  0  0  0  0  0  0  0
  147.4513  141.9236  157.8726 H   0  0  0  0  0  0  0  0  0  0  0  0
  149.9041  143.5968  156.9931 H   0  0  0  0  0  0  0  0  0  0  0  0
  151.9910  142.4647  157.0516 H   0  0  0  0  0  0  0  0  0  0  0  0
  150.8982  141.4744  159.6974 H   0  0  0  0  0  0  0  0  0  0  0  0
  151.7899  140.5721  158.4818 H   0  0  0  0  0  0  0  0  0  0  0  0
  152.8727  141.8821  160.7633 H   0  0  0  0  0  0  0  0  0  0  0  0
  153.8270  141.2820  159.4154 H   0  0  0  0  0  0  0  0  0  0  0  0
  153.6684  143.9982  160.0804 H   0  0  0  0  0  0  0  0  0  0  0  0
  154.1085  143.3654  158.5090 H   0  0  0  0  0  0  0  0  0  0  0  0
  152.8222  145.8865  158.0311 H   0  0  0  0  0  0  0  0  0  0  0  0
  151.4236  145.3858  157.0875 H   0  0  0  0  0  0  0  0  0  0  0  0
  152.9944  144.6543  156.7887 H   0  0  0  0  0  0  0  0  0  0  0  0
  151.5953  145.3600  160.2284 H   0  0  0  0  0  0  0  0  0  0  0  0
  150.8463  143.7924  160.4761 H   0  0  0  0  0  0  0  0  0  0  0  0
  150.1741  144.9184  159.3033 H   0  0  0  0  0  0  0  0  0  0  0  0
  149.4748  142.9942  158.4532 H   0  0  0  0  0  0  0  0  0  0  0  0
  1 19  1  0  0  0  0
  1 20  1  0  0  0  0
  1 21  1  0  0  0  0
  1  2  1  0  0  0  0
  2 17  2  0  0  0  0
  2  3  1  0  0  0  0
  3  4  2  0  0  0  0
  3 22  1  0  0  0  0
  4 16  1  0  0  0  0
  4  5  1  0  0  0  0
  5  6  1  0  0  0  0
  5 23  1  0  0  0  0
  5 24  1  0  0  0  0
  6  7  1  0  0  0  0
  6  8  1  0  0  0  0
  6 25  1  0  0  0  0
  7 26  1  0  0  0  0
  7 27  1  0  0  0  0
  7 28  1  0  0  0  0
  8  9  1  0  0  0  0
  8 29  1  0  0  0  0
  8 43  1  0  0  0  0
  9 13  1  0  0  0  0
  9 10  1  0  0  0  0
  9 30  1  0  0  0  0
 10 11  1  0  0  0  0
 10 31  1  0  0  0  0
 10 32  1  0  0  0  0
 11 12  1  0  0  0  0
 11 33  1  0  0  0  0
 11 34  1  0  0  0  0
 12 13  1  0  0  0  0
 12 35  1  0  0  0  0
 12 36  1  0  0  0  0
 13 14  1  0  0  0  0
 13 15  1  0  0  0  0
 14 37  1  0  0  0  0
 14 38  1  0  0  0  0
 14 39  1  0  0  0  0
 15 40  1  0  0  0  0
 15 41  1  0  0  0  0
 15 42  1  0  0  0  0
 16 17  1  0  0  0  0
 16 18  1  0  0  0  0
M  CHG  1   8   1
M  END
> <s_m_source_file>
AV-unprocessed.smi

> <i_m_source_file_index>
3202

> <i_lp_mmshare_version>
43012

> <i_f3d_flags>
0

> <s_epik_input>
W0NIM11jMVtjSF1jKG5bbkhdMSlbQ0gyXVtDQEhdKFtDSDNdKVtOSF1bQ0BASF0oQzIoW0NIM10pW0NIM10pW0NIMl1bQ0gyXVtDSDJdMg==

> <s_epik_cmdline>
J2VwaWtfcHl0aG9uJywgJy1waCcsICc3LjAnLCAnLXRuJywgJzgnLCAnLW1hJywgJzIwMCcsICctbWV0YWxfYmluZGluZycsICctaW1hZScsICc8aW5maWxlLm1hZT4nLCAnLW9tYWUnLCAnPG91dGZpbGUubWFlPic=

> <r_lp_tautomer_probability>
0.5

> <r_epik_Ionization_Penalty>
0.000449684

> <r_epik_Ionization_Penalty_Charging>
0.000404963

> <r_epik_Ionization_Penalty_Neutral>
4.47208e-05

> <r_epik_State_Penalty>
0.41068

> <r_epik_Charging_Adjusted_Penalty>
0.411085

> <i_epik_Tot_Q>
1

> <i_epik_Tot_abs_Q>
1

> <r_epik_Metal_State_Penalty>
0.410687

> <b_epik_Metal_Only>
0

> <s_lp_Force_Field>
OPLS_2005

> <r_lp_Energy>
32.3092

> <b_lp_Chiralities_Consistent>
1

> <s_lp_Variant>
AV-unprocessed.smi:3202-5

> <Gold.Version>
5.8.1

> <Gold.Id.Protein>
6NUR|6NUR_protein|mol2

> <Gold.PLP.Fitness>
42.2842

> <Gold.PLP.PLP>
-36.8319

> <Gold.PLP.part.hbond>
-1.0000

> <Gold.PLP.part.metal>
0.0000

> <Gold.PLP.part.buried>
-2.0357

> <Gold.PLP.part.nonpolar>
-33.7401

> <Gold.PLP.part.repulsive>
0.2062

> <Gold.PLP.ligand.clash>
0.0000

> <Gold.PLP.ligand.torsion>
0.2790

> <Gold.PLP.Chemscore.Hbond>
2.0000

> <Gold.PLP.Chemscore.CHOScore>
0.0000

> <Gold.PLP.Chemscore.Metal>
0.0000

> <Gold.Chemscore.Hbonds>
donor molecule, donor type, donor heavy atom, donor atom, acceptor molecule, acceptor atom, score
      L1  H     8    29       P1  8028  2.00

> <Gold.PLP.Chemscore.Internal.Correction>
0.0102

> <Gold.Rescore>
     Score         DG    S(hbond)    S(metal)    S(lipo)     H(rot)  DE(clash)    DE(int)     intcor
     17.19     -18.90       0.99        0.00     118.41       1.46       1.50       0.20       ----

> <Gold.Chemscore.Fitness>
17.1949

> <Gold.Chemscore.DG>
-18.8997

> <Gold.Chemscore.ZeroCoef>
-5.4800

> <Gold.Chemscore.Hbond>
0.9887

> <Gold.Chemscore.Metal>
0.0000

> <Gold.Chemscore.Lipo>
118.4100

> <Gold.Chemscore.Internal_Hbond>
0.0000

> <Gold.Chemscore.DEClash>
1.5012

> <Gold.Chemscore.DEInternal>
0.2036

> <Gold.Chemscore.Rot>
1.4596

> <Gold.Chemscore.Internal.Correction>
   9.000000E+99

> <Gold.Chemscore.Hbonds>
donor molecule, donor type, donor heavy atom, donor atom, acceptor molecule, acceptor atom, score
      L1  H     8    29       P1  8028  0.91

> <Gold.Chemscore.Hbond.Weighted>
-3.3023

> <Gold.Chemscore.Metal.Weighted>
-0.0000

> <Gold.Chemscore.Lipo.Weighted>
-13.8540

> <Gold.Chemscore.Internal_Hbond.Weighted>
0.0000

> <Gold.Chemscore.DEClash.Weighted>
1.5012

> <Gold.Chemscore.DEInternal.Weighted>
0.2036

> <Gold.Chemscore.Rot.Weighted>
3.7365

> <Gold.Chemscore.Internal.Correction.Weighted>
   9.000000E+99

> <Gold.Protein.RotatedTorsions>
[ 6907 6896 6895 6894 ] final -143.97 input  -60.11 | X-H torsion
[ 7974 7965 7964 7962 ] final  -44.56 input  175.53 | X-H torsion
[ 8008 7997 7996 7995 ] final  100.96 input   59.86 | X-H torsion
[ 10167 10162 10161 10158 ] final  -56.88 input  -65.29 | X-H torsion
[ 10718 10713 10712 10709 ] final  108.22 input   66.30 | X-H torsion
[ 10763 10752 10751 10750 ] final -132.51 input  -60.55 | X-H torsion
[ 11005 11000 10999 10996 ] final -172.79 input  -57.11 | X-H torsion

> <Gold.Protein.ActiveResidues>
 VAL166  LYS551  ARG553  GLY616  TRP617  ASP618  TYR619  PRO620  LYS621  CYS622 
 ASP623  PHE694  ASN695  SER759  ASP760  ASP761  ALA762  ILE779  LEU786  VAL792 
 PHE793  MET794  SER795  GLU796  ALA797  LYS798  CYS799  TRP800  GLU811  SER814 

> <Gold.Protein.RotatedAtoms>
  151.1076  133.5196  159.2606 H   0  0  0  0  0  0  0  0  0  0  0  0  # atno 6907 bound_to 6896
  151.2003  135.0439  159.8879 H   0  0  0  0  0  0  0  0  0  0  0  0  # atno 6908 bound_to 6896
  152.5448  134.0905  159.8328 H   0  0  0  0  0  0  0  0  0  0  0  0  # atno 6909 bound_to 6896
  145.9908  140.7183  142.9318 H   0  0  0  0  0  0  0  0  0  0  0  0  # atno 7974 bound_to 7965
  156.1254  140.3205  155.8269 H   0  0  0  0  0  0  0  0  0  0  0  0  # atno 8008 bound_to 7997
  155.4430  140.0527  157.3026 H   0  0  0  0  0  0  0  0  0  0  0  0  # atno 8009 bound_to 7997
  154.4858  140.2072  155.9672 H   0  0  0  0  0  0  0  0  0  0  0  0  # atno 8010 bound_to 7997
  140.6291  143.2451  151.5287 H   0  0  0  0  0  0  0  0  0  0  0  0  # atno 10167 bound_to 10162
  157.6595  131.0889  150.6273 H   0  0  0  0  0  0  0  0  0  0  0  0  # atno 10718 bound_to 10713
  154.8742  135.3795  154.4421 H   0  0  0  0  0  0  0  0  0  0  0  0  # atno 10763 bound_to 10752
  153.5105  135.7029  153.5788 H   0  0  0  0  0  0  0  0  0  0  0  0  # atno 10764 bound_to 10752
  153.4080  135.3932  155.1997 H   0  0  0  0  0  0  0  0  0  0  0  0  # atno 10765 bound_to 10752
  140.4930  134.5966  157.4961 H   0  0  0  0  0  0  0  0  0  0  0  0  # atno 11005 bound_to 11000
  144.6888  140.3067  143.7255 LP  0  0  0  0  0  0  0  0  0  0  0  0  # atno 17320 bound_to 7965
  145.7633  139.1832  143.2255 LP  0  0  0  0  0  0  0  0  0  0  0  0  # atno 17321 bound_to 7965
  139.5507  144.2402  152.1526 LP  0  0  0  0  0  0  0  0  0  0  0  0  # atno 17342 bound_to 10162
  140.1641  144.4998  150.6616 LP  0  0  0  0  0  0  0  0  0  0  0  0  # atno 17343 bound_to 10162
  156.6577  130.4503  149.5698 LP  0  0  0  0  0  0  0  0  0  0  0  0  # atno 17370 bound_to 10713
  156.2090  130.6667  151.1250 LP  0  0  0  0  0  0  0  0  0  0  0  0  # atno 17371 bound_to 10713
  139.9758  134.7218  155.9953 LP  0  0  0  0  0  0  0  0  0  0  0  0  # atno 17394 bound_to 11000
  141.1474  133.6553  156.3910 LP  0  0  0  0  0  0  0  0  0  0  0  0  # atno 17395 bound_to 11000

$$$$
