AV-unprocessed.smi:2061|AV-procd|sdf|8385|dock8
  -GOLD-   2272011 63D 1   1.00000     0.00000
 Structure written by MMmdl.
 45 46  0  0  0  0  0  0  0  0  3 V2000
  146.5389  136.1503  162.5599 C   0  0  0  0  0  0  0  0  0  0  0  0
  147.2458  135.9265  161.2668 C   0  0  0  0  0  0  0  0  0  0  0  0
  147.7012  134.8004  160.6421 C   0  0  0  0  0  0  0  0  0  0  0  0
  148.2671  135.3026  159.4385 C   0  0  0  0  0  0  0  0  0  0  0  0
  148.8587  134.5727  158.4804 N   0  5  0  0  0  0  0  0  0  0  0  0
  149.2280  135.1513  157.3154 C   0  0  0  0  0  0  0  0  0  0  0  0
  149.2856  136.3614  157.0857 O   0  0  0  0  0  0  0  0  0  0  0  0
  149.5372  134.2700  156.3528 N   0  0  0  0  0  0  0  0  0  0  0  0
  149.9651  134.5873  154.9924 C   0  0  0  0  0  0  0  0  0  0  0  0
  149.5326  133.5174  153.9559 C   0  0  1  0  0  0  0  0  0  0  0  0
  149.5211  132.1047  154.5905 C   0  0  0  0  0  0  0  0  0  0  0  0
  148.2201  133.9076  153.3431 N   0  3  1  0  0  0  0  0  0  0  0  0
  147.7354  132.9129  152.3500 C   0  0  0  0  0  0  0  0  0  0  0  0
  146.4844  133.4289  151.6201 C   0  0  1  0  0  0  0  0  0  0  0  0
  145.9286  132.3969  150.6327 C   0  0  0  0  0  0  0  0  0  0  0  0
  145.4682  133.7102  152.5756 O   0  0  0  0  0  0  0  0  0  0  0  0
  145.8377  134.6661  153.5665 C   0  0  2  0  0  0  0  0  0  0  0  0
  145.9161  136.0940  152.9966 C   0  0  0  0  0  0  0  0  0  0  0  0
  147.1219  134.2238  154.2976 C   0  0  0  0  0  0  0  0  0  0  0  0
  148.1808  136.6191  159.3500 N   0  0  0  0  0  0  0  0  0  0  0  0
  147.5211  137.0266  160.5158 O   0  0  0  0  0  0  0  0  0  0  0  0
  147.1770  135.8753  163.3996 H   0  0  0  0  0  0  0  0  0  0  0  0
  145.6319  135.5479  162.6119 H   0  0  0  0  0  0  0  0  0  0  0  0
  146.2559  137.1965  162.6785 H   0  0  0  0  0  0  0  0  0  0  0  0
  147.6348  133.7794  160.9868 H   0  0  0  0  0  0  0  0  0  0  0  0
  149.4727  133.2913  156.5924 H   0  0  0  0  0  0  0  0  0  0  0  0
  149.6048  135.5707  154.6858 H   0  0  0  0  0  0  0  0  0  0  0  0
  151.0487  134.6739  155.0399 H   0  0  0  0  0  0  0  0  0  0  0  0
  150.2762  133.4904  153.1574 H   0  0  0  0  0  0  0  0  0  0  0  0
  150.4879  131.8471  155.0214 H   0  0  0  0  0  0  0  0  0  0  0  0
  149.3194  131.3248  153.8565 H   0  0  0  0  0  0  0  0  0  0  0  0
  148.7789  132.0308  155.3862 H   0  0  0  0  0  0  0  0  0  0  0  0
  148.5010  132.6922  151.6087 H   0  0  0  0  0  0  0  0  0  0  0  0
  147.5127  131.9731  152.8581 H   0  0  0  0  0  0  0  0  0  0  0  0
  146.7309  134.3312  151.0600 H   0  0  0  0  0  0  0  0  0  0  0  0
  146.6644  132.1499  149.8670 H   0  0  0  0  0  0  0  0  0  0  0  0
  145.0411  132.7795  150.1278 H   0  0  0  0  0  0  0  0  0  0  0  0
  145.6501  131.4730  151.1403 H   0  0  0  0  0  0  0  0  0  0  0  0
  145.0276  134.6670  154.2967 H   0  0  0  0  0  0  0  0  0  0  0  0
  146.0595  136.8213  153.7960 H   0  0  0  0  0  0  0  0  0  0  0  0
  144.9945  136.3561  152.4763 H   0  0  0  0  0  0  0  0  0  0  0  0
  146.7428  136.2170  152.2974 H   0  0  0  0  0  0  0  0  0  0  0  0
  146.9153  133.3412  154.9052 H   0  0  0  0  0  0  0  0  0  0  0  0
  147.4062  135.0253  154.9787 H   0  0  0  0  0  0  0  0  0  0  0  0
  148.3973  134.7648  152.8388 H   0  0  0  0  0  0  0  0  0  0  0  0
  1  2  1  0  0  0  0
  1 22  1  0  0  0  0
  1 23  1  0  0  0  0
  1 24  1  0  0  0  0
  2 21  1  0  0  0  0
  2  3  2  0  0  0  0
  3  4  1  0  0  0  0
  3 25  1  0  0  0  0
  4  5  1  0  0  0  0
  4 20  2  0  0  0  0
  5  6  1  0  0  0  0
  6  7  2  0  0  0  0
  6  8  1  0  0  0  0
  8  9  1  0  0  0  0
  8 26  1  0  0  0  0
  9 10  1  0  0  0  0
  9 27  1  0  0  0  0
  9 28  1  0  0  0  0
 10 11  1  0  0  0  0
 10 12  1  0  0  0  0
 10 29  1  0  0  0  0
 11 30  1  0  0  0  0
 11 31  1  0  0  0  0
 11 32  1  0  0  0  0
 12 19  1  0  0  0  0
 12 13  1  0  0  0  0
 12 45  1  0  0  0  0
 13 14  1  0  0  0  0
 13 33  1  0  0  0  0
 13 34  1  0  0  0  0
 14 15  1  0  0  0  0
 14 16  1  0  0  0  0
 14 35  1  0  0  0  0
 15 36  1  0  0  0  0
 15 37  1  0  0  0  0
 15 38  1  0  0  0  0
 16 17  1  0  0  0  0
 17 18  1  0  0  0  0
 17 19  1  0  0  0  0
 17 39  1  0  0  0  0
 18 40  1  0  0  0  0
 18 41  1  0  0  0  0
 18 42  1  0  0  0  0
 19 43  1  0  0  0  0
 19 44  1  0  0  0  0
 20 21  1  0  0  0  0
M  CHG  1   5  -1
M  CHG  1  12   1
M  END
> <s_m_source_file>
AV-unprocessed.smi

> <i_m_source_file_index>
2061

> <i_lp_mmshare_version>
43012

> <i_f3d_flags>
0

> <s_epik_input>
W0NIM11jMVtjSF1jKG5vMSlbTkhdQyg9TylbTkhdW0NIMl1bQ0BIXShbQ0gzXSlOMltDSDJdW0NAQEhdKFtDSDNdKU9bQ0BASF0oW0NIM10pW0NIMl0y

> <s_epik_cmdline>
J2VwaWtfcHl0aG9uJywgJy1waCcsICc3LjAnLCAnLXRuJywgJzgnLCAnLW1hJywgJzIwMCcsICctbWV0YWxfYmluZGluZycsICctaW1hZScsICc8aW5maWxlLm1hZT4nLCAnLW9tYWUnLCAnPG91dGZpbGUubWFlPic=

> <r_epik_Ionization_Penalty>
6.73511

> <r_epik_Ionization_Penalty_Charging>
6.73502

> <r_epik_Ionization_Penalty_Neutral>
9.50841e-05

> <r_epik_State_Penalty>
6.93549

> <r_epik_Charging_Adjusted_Penalty>
13.6705

> <i_epik_Tot_Q>
0

> <i_epik_Tot_abs_Q>
2

> <r_epik_Metal_State_Penalty>
2.87211

> <b_epik_Metal_Only>
1

> <s_lp_Force_Field>
OPLS_2005

> <r_lp_Energy>
11.2627

> <b_lp_Chiralities_Consistent>
1

> <s_lp_Variant>
AV-unprocessed.smi:2061-26

> <Gold.Version>
5.8.1

> <Gold.Id.Protein>
6NUR|6NUR_protein|mol2

> <Gold.PLP.Fitness>
46.7034

> <Gold.PLP.PLP>
-31.0224

> <Gold.PLP.part.hbond>
-4.0000

> <Gold.PLP.part.metal>
0.0000

> <Gold.PLP.part.buried>
-4.8483

> <Gold.PLP.part.nonpolar>
-23.5781

> <Gold.PLP.part.repulsive>
0.1521

> <Gold.PLP.ligand.clash>
0.0000

> <Gold.PLP.ligand.torsion>
0.6788

> <Gold.PLP.Chemscore.Hbond>
5.6480

> <Gold.PLP.Chemscore.CHOScore>
0.0000

> <Gold.PLP.Chemscore.Metal>
0.0000

> <Gold.Chemscore.Hbonds>
donor molecule, donor type, donor heavy atom, donor atom, acceptor molecule, acceptor atom, score
      L1  H    12    45       P1  7948  2.00
      P1  H  6896  6908       L1     5  1.90
      P1  H  6931  6943       L1    21  0.09
      P1  H  6934  6947       L1    21  0.91

> <Gold.PLP.Chemscore.Internal.Correction>
0.0945

> <Gold.Rescore>
     Score         DG    S(hbond)    S(metal)    S(lipo)     H(rot)  DE(clash)    DE(int)     intcor
     15.45     -17.84       2.57        0.00      66.35       1.56       0.00       2.39       ----

> <Gold.Chemscore.Fitness>
15.4520

> <Gold.Chemscore.DG>
-17.8439

> <Gold.Chemscore.ZeroCoef>
-5.4800

> <Gold.Chemscore.Hbond>
2.5695

> <Gold.Chemscore.Metal>
0.0000

> <Gold.Chemscore.Lipo>
66.3472

> <Gold.Chemscore.Internal_Hbond>
0.0000

> <Gold.Chemscore.DEClash>
0.0033

> <Gold.Chemscore.DEInternal>
2.3886

> <Gold.Chemscore.Rot>
1.5550

> <Gold.Chemscore.Internal.Correction>
   9.000000E+99

> <Gold.Chemscore.Hbonds>
donor molecule, donor type, donor heavy atom, donor atom, acceptor molecule, acceptor atom, score
      L1  H    12    45       P1  7948  0.45
      P1  H  6896  6908       L1     5  0.08
      P1  H  6931  6943       L1    21  0.03
      P1  H  6934  6947       L1    21  0.84

> <Gold.Chemscore.Hbond.Weighted>
-8.5821

> <Gold.Chemscore.Metal.Weighted>
-0.0000

> <Gold.Chemscore.Lipo.Weighted>
-7.7626

> <Gold.Chemscore.Internal_Hbond.Weighted>
0.0000

> <Gold.Chemscore.DEClash.Weighted>
0.0033

> <Gold.Chemscore.DEInternal.Weighted>
2.3886

> <Gold.Chemscore.Rot.Weighted>
3.9809

> <Gold.Chemscore.Internal.Correction.Weighted>
   9.000000E+99

> <Gold.Protein.RotatedTorsions>
[ 6907 6896 6895 6894 ] final  147.31 input  -60.11 | X-H torsion
[ 7974 7965 7964 7962 ] final    8.66 input  175.53 | X-H torsion
[ 8008 7997 7996 7995 ] final  101.48 input   59.86 | X-H torsion
[ 10167 10162 10161 10158 ] final   36.55 input  -65.29 | X-H torsion
[ 10718 10713 10712 10709 ] final  -36.70 input   66.30 | X-H torsion
[ 10763 10752 10751 10750 ] final  -39.52 input  -60.55 | X-H torsion
[ 11005 11000 10999 10996 ] final  114.93 input  -57.11 | X-H torsion

> <Gold.Protein.ActiveResidues>
 VAL166  LYS551  ARG553  GLY616  TRP617  ASP618  TYR619  PRO620  LYS621  CYS622 
 ASP623  PHE694  ASN695  SER759  ASP760  ASP761  ALA762  ILE779  LEU786  VAL792 
 PHE793  MET794  SER795  GLU796  ALA797  LYS798  CYS799  TRP800  GLU811  SER814 

> <Gold.Protein.RotatedAtoms>
  152.1564  133.4554  159.4838 H   0  0  0  0  0  0  0  0  0  0  0  0  # atno 6907 bound_to 6896
  150.6901  134.2125  159.4374 H   0  0  0  0  0  0  0  0  0  0  0  0  # atno 6908 bound_to 6896
  152.0025  134.9920  160.0616 H   0  0  0  0  0  0  0  0  0  0  0  0  # atno 6909 bound_to 6896
  146.2413  139.9900  142.8427 H   0  0  0  0  0  0  0  0  0  0  0  0  # atno 7974 bound_to 7965
  156.1304  140.3196  155.8340 H   0  0  0  0  0  0  0  0  0  0  0  0  # atno 8008 bound_to 7997
  155.4343  140.0521  157.3033 H   0  0  0  0  0  0  0  0  0  0  0  0  # atno 8009 bound_to 7997
  154.4895  140.2086  155.9594 H   0  0  0  0  0  0  0  0  0  0  0  0  # atno 8010 bound_to 7997
  140.4117  144.1583  150.6140 H   0  0  0  0  0  0  0  0  0  0  0  0  # atno 10167 bound_to 10162
  156.3238  130.4269  149.7935 H   0  0  0  0  0  0  0  0  0  0  0  0  # atno 10718 bound_to 10713
  153.9308  135.6772  153.4745 H   0  0  0  0  0  0  0  0  0  0  0  0  # atno 10763 bound_to 10752
  153.0981  135.4841  154.8813 H   0  0  0  0  0  0  0  0  0  0  0  0  # atno 10764 bound_to 10752
  154.7429  135.3165  154.8654 H   0  0  0  0  0  0  0  0  0  0  0  0  # atno 10765 bound_to 10752
  139.8995  134.9576  156.6968 H   0  0  0  0  0  0  0  0  0  0  0  0  # atno 11005 bound_to 11000
  145.1512  140.9624  143.4431 LP  0  0  0  0  0  0  0  0  0  0  0  0  # atno 17320 bound_to 7965
  145.0203  139.3430  143.6075 LP  0  0  0  0  0  0  0  0  0  0  0  0  # atno 17321 bound_to 7965
  140.4630  143.2441  151.9193 LP  0  0  0  0  0  0  0  0  0  0  0  0  # atno 17342 bound_to 10162
  139.4782  144.5447  151.8475 LP  0  0  0  0  0  0  0  0  0  0  0  0  # atno 17343 bound_to 10162
  156.5233  130.8225  151.3211 LP  0  0  0  0  0  0  0  0  0  0  0  0  # atno 17370 bound_to 10713
  157.7417  130.9875  150.2464 LP  0  0  0  0  0  0  0  0  0  0  0  0  # atno 17371 bound_to 10713
  140.7182  133.9164  155.8129 LP  0  0  0  0  0  0  0  0  0  0  0  0  # atno 17394 bound_to 11000
  141.0248  134.0839  157.4081 LP  0  0  0  0  0  0  0  0  0  0  0  0  # atno 17395 bound_to 11000

$$$$
