AV-unprocessed.smi:766|AV-procd|sdf|3655|dock6
  -GOLD-   22720 1 63D 1   1.00000     0.00000
 Structure written by MMmdl.
 46 48  0  0  0  0  0  0  0  0  1 V2000
  152.9681  143.4386  160.4930 C   0  0  0  0  0  0  0  0  0  0  0  0
  152.2104  142.7414  159.3770 C   0  0  0  0  0  0  0  0  0  0  0  0
  152.7221  141.5346  158.8487 C   0  0  0  0  0  0  0  0  0  0  0  0
  152.0477  140.8546  157.8110 C   0  0  0  0  0  0  0  0  0  0  0  0
  152.3632  139.6775  157.1541 N   0  0  0  0  0  0  0  0  0  0  0  0
  151.3524  139.5708  156.2963 C   0  0  0  0  0  0  0  0  0  0  0  0
  150.4175  140.5403  156.3202 N   0  0  0  0  0  0  0  0  0  0  0  0
  149.2361  140.6422  155.4815 C   0  0  0  0  0  0  0  0  0  0  0  0
  149.0780  139.4414  154.5284 C   0  0  2  0  0  0  0  0  0  0  0  0
  150.1112  139.4792  153.5629 O   0  0  0  0  0  0  0  0  0  0  0  0
  147.7249  139.4695  153.7978 C   0  0  0  0  0  0  0  0  0  0  0  0
  147.3216  138.1307  153.3817 N   0  0  0  0  0  0  0  0  0  0  0  0
  146.2292  138.1290  152.4123 C   0  0  0  0  0  0  0  0  0  0  0  0
  144.9071  137.6697  153.0482 C   0  0  0  0  0  0  0  0  0  0  0  0
  144.5270  136.3327  152.6280 N   0  0  0  0  0  0  0  0  0  0  0  0
  144.4554  135.8243  151.3484 C   0  0  0  0  0  0  0  0  0  0  0  0
  144.0549  134.5228  151.4499 C   0  0  0  0  0  0  0  0  0  0  0  0
  143.9019  134.3250  152.8506 C   0  0  0  0  0  0  0  0  0  0  0  0
  144.1821  135.4108  153.5531 N   0  0  0  0  0  0  0  0  0  0  0  0
  150.8382  141.4202  157.3114 C   0  0  0  0  0  0  0  0  0  0  0  0
  150.3199  142.6210  157.8275 C   0  0  0  0  0  0  0  0  0  0  0  0
  151.0047  143.2859  158.8661 C   0  0  0  0  0  0  0  0  0  0  0  0
  150.4334  144.5790  159.4208 C   0  0  0  0  0  0  0  0  0  0  0  0
  153.8937  142.9146  160.7337 H   0  0  0  0  0  0  0  0  0  0  0  0
  152.3614  143.4800  161.3979 H   0  0  0  0  0  0  0  0  0  0  0  0
  153.2275  144.4569  160.2026 H   0  0  0  0  0  0  0  0  0  0  0  0
  153.6396  141.1186  159.2383 H   0  0  0  0  0  0  0  0  0  0  0  0
  151.2874  138.7381  155.6113 H   0  0  0  0  0  0  0  0  0  0  0  0
  148.3663  140.7196  156.1349 H   0  0  0  0  0  0  0  0  0  0  0  0
  149.2858  141.5744  154.9166 H   0  0  0  0  0  0  0  0  0  0  0  0
  149.1706  138.5193  155.1043 H   0  0  0  0  0  0  0  0  0  0  0  0
  149.7190  139.5407  152.7054 H   0  0  0  0  0  0  0  0  0  0  0  0
  146.9631  139.8686  154.4686 H   0  0  0  0  0  0  0  0  0  0  0  0
  147.7663  140.1476  152.9441 H   0  0  0  0  0  0  0  0  0  0  0  0
  148.1225  137.6370  152.9999 H   0  0  0  0  0  0  0  0  0  0  0  0
  146.1064  139.1225  151.9793 H   0  0  0  0  0  0  0  0  0  0  0  0
  146.4755  137.4605  151.5867 H   0  0  0  0  0  0  0  0  0  0  0  0
  144.9986  137.6717  154.1352 H   0  0  0  0  0  0  0  0  0  0  0  0
  144.1005  138.3617  152.8027 H   0  0  0  0  0  0  0  0  0  0  0  0
  144.6953  136.4233  150.4825 H   0  0  0  0  0  0  0  0  0  0  0  0
  143.8958  133.8192  150.6465 H   0  0  0  0  0  0  0  0  0  0  0  0
  143.5972  133.4306  153.3737 H   0  0  0  0  0  0  0  0  0  0  0  0
  149.4008  143.0242  157.4284 H   0  0  0  0  0  0  0  0  0  0  0  0
  149.4890  144.8352  158.9397 H   0  0  0  0  0  0  0  0  0  0  0  0
  151.1275  145.4035  159.2569 H   0  0  0  0  0  0  0  0  0  0  0  0
  150.2490  144.4880  160.4914 H   0  0  0  0  0  0  0  0  0  0  0  0
  1  2  1  0  0  0  0
  1 24  1  0  0  0  0
  1 25  1  0  0  0  0
  1 26  1  0  0  0  0
  2 22  1  0  0  0  0
  2  3  2  0  0  0  0
  3  4  1  0  0  0  0
  3 27  1  0  0  0  0
  4 20  2  0  0  0  0
  4  5  1  0  0  0  0
  5  6  2  0  0  0  0
  6  7  1  0  0  0  0
  6 28  1  0  0  0  0
  7  8  1  0  0  0  0
  7 20  1  0  0  0  0
  8  9  1  0  0  0  0
  8 29  1  0  0  0  0
  8 30  1  0  0  0  0
  9 10  1  0  0  0  0
  9 11  1  0  0  0  0
  9 31  1  0  0  0  0
 10 32  1  0  0  0  0
 11 12  1  0  0  0  0
 11 33  1  0  0  0  0
 11 34  1  0  0  0  0
 12 13  1  0  0  0  0
 12 35  1  0  0  0  0
 13 14  1  0  0  0  0
 13 36  1  0  0  0  0
 13 37  1  0  0  0  0
 14 15  1  0  0  0  0
 14 38  1  0  0  0  0
 14 39  1  0  0  0  0
 15 19  1  0  0  0  0
 15 16  1  0  0  0  0
 16 17  2  0  0  0  0
 16 40  1  0  0  0  0
 17 18  1  0  0  0  0
 17 41  1  0  0  0  0
 18 19  2  0  0  0  0
 18 42  1  0  0  0  0
 20 21  1  0  0  0  0
 21 22  2  0  0  0  0
 21 43  1  0  0  0  0
 22 23  1  0  0  0  0
 23 44  1  0  0  0  0
 23 45  1  0  0  0  0
 23 46  1  0  0  0  0
M  END
> <s_m_source_file>
AV-unprocessed.smi

> <i_m_source_file_index>
766

> <i_lp_mmshare_version>
43012

> <i_f3d_flags>
0

> <s_epik_input>
W0NIM11jKFtjSF0xKWMoW0NIM10pW2NIXWMoYzEyKW4oW2NIXW4yKVtDSDJdW0NASF0oW09IXSlbQ0gyXVtOSF1bQ0gyXVtDSDJdbjNbY0hdW2NIXVtjSF1uMw==

> <s_epik_cmdline>
J2VwaWtfcHl0aG9uJywgJy1waCcsICc3LjAnLCAnLXRuJywgJzgnLCAnLW1hJywgJzIwMCcsICctbWV0YWxfYmluZGluZycsICctaW1hZScsICc8aW5maWxlLm1hZT4nLCAnLW9tYWUnLCAnPG91dGZpbGUubWFlPic=

> <r_lp_tautomer_probability>
1

> <r_epik_Ionization_Penalty>
1.68727

> <r_epik_Ionization_Penalty_Charging>
0

> <r_epik_Ionization_Penalty_Neutral>
1.68727

> <r_epik_State_Penalty>
1.78741

> <r_epik_Charging_Adjusted_Penalty>
1.78741

> <i_epik_Tot_Q>
0

> <i_epik_Tot_abs_Q>
0

> <r_epik_Metal_State_Penalty>
1.73664

> <b_epik_Metal_Only>
0

> <s_lp_Force_Field>
OPLS_2005

> <r_lp_Energy>
17.6974

> <b_lp_Chiralities_Consistent>
1

> <s_lp_Variant>
AV-unprocessed.smi:766-5

> <Gold.Version>
5.8.1

> <Gold.Id.Protein>
6NUR|6NUR_protein|mol2

> <Gold.PLP.Fitness>
55.4359

> <Gold.PLP.PLP>
-40.3514

> <Gold.PLP.part.hbond>
-3.6782

> <Gold.PLP.part.metal>
0.0000

> <Gold.PLP.part.buried>
-4.2549

> <Gold.PLP.part.nonpolar>
-33.1694

> <Gold.PLP.part.repulsive>
0.0507

> <Gold.PLP.ligand.clash>
0.0000

> <Gold.PLP.ligand.torsion>
1.1182

> <Gold.PLP.Chemscore.Hbond>
3.7440

> <Gold.PLP.Chemscore.CHOScore>
1.9848

> <Gold.PLP.Chemscore.Metal>
0.0000

> <Gold.Chemscore.Hbonds>
donor molecule, donor type, donor heavy atom, donor atom, acceptor molecule, acceptor atom, score
      L1  H    10    32       P1  7957  1.00
      L1  H    12    35       P1  7948  1.00
      P1  H  7989  7998       L1    10  0.80
      P1  H  7997  8008       L1     5  0.78
      L1  C    16    40       P1 10171  1.00
      L1  C    18    42       P1 10957  1.00

> <Gold.PLP.Chemscore.Internal.Correction>
0.1346

> <Gold.Rescore>
     Score         DG    S(hbond)    S(metal)    S(lipo)     H(rot)  DE(clash)    DE(int)     intcor
     18.87     -21.08       3.02        0.00     109.04       2.83       0.16       2.05       ----

> <Gold.Chemscore.Fitness>
18.8734

> <Gold.Chemscore.DG>
-21.0772

> <Gold.Chemscore.ZeroCoef>
-5.4800

> <Gold.Chemscore.Hbond>
3.0228

> <Gold.Chemscore.Metal>
0.0000

> <Gold.Chemscore.Lipo>
109.0430

> <Gold.Chemscore.Internal_Hbond>
0.0000

> <Gold.Chemscore.DEClash>
0.1586

> <Gold.Chemscore.DEInternal>
2.0451

> <Gold.Chemscore.Rot>
2.8348

> <Gold.Chemscore.Internal.Correction>
   9.000000E+99

> <Gold.Chemscore.Hbonds>
donor molecule, donor type, donor heavy atom, donor atom, acceptor molecule, acceptor atom, score
      L1  H    10    32       P1  7957  0.97
      L1  H    12    35       P1  7948  0.95
      P1  H  7989  7998       L1    10  0.26
      P1  H  7997  8008       L1     5  0.20

> <Gold.Chemscore.Hbond.Weighted>
-10.0963

> <Gold.Chemscore.Metal.Weighted>
-0.0000

> <Gold.Chemscore.Lipo.Weighted>
-12.7580

> <Gold.Chemscore.Internal_Hbond.Weighted>
0.0000

> <Gold.Chemscore.DEClash.Weighted>
0.1586

> <Gold.Chemscore.DEInternal.Weighted>
2.0451

> <Gold.Chemscore.Rot.Weighted>
7.2572

> <Gold.Chemscore.Internal.Correction.Weighted>
   9.000000E+99

> <Gold.Protein.RotatedTorsions>
[ 6907 6896 6895 6894 ] final  104.42 input  -60.11 | X-H torsion
[ 7974 7965 7964 7962 ] final  116.93 input  175.53 | X-H torsion
[ 8008 7997 7996 7995 ] final  -58.08 input   59.86 | X-H torsion
[ 10167 10162 10161 10158 ] final  103.64 input  -65.29 | X-H torsion
[ 10718 10713 10712 10709 ] final  109.14 input   66.30 | X-H torsion
[ 10763 10752 10751 10750 ] final   51.67 input  -60.55 | X-H torsion
[ 11005 11000 10999 10996 ] final -139.74 input  -57.11 | X-H torsion

> <Gold.Protein.ActiveResidues>
 VAL166  LYS551  ARG553  GLY616  TRP617  ASP618  TYR619  PRO620  LYS621  CYS622 
 ASP623  PHE694  ASN695  SER759  ASP760  ASP761  ALA762  ILE779  LEU786  VAL792 
 PHE793  MET794  SER795  GLU796  ALA797  LYS798  CYS799  TRP800  GLU811  SER814 

> <Gold.Protein.RotatedAtoms>
  152.5264  133.9679  159.7747 H   0  0  0  0  0  0  0  0  0  0  0  0  # atno 6907 bound_to 6896
  150.9956  133.6098  159.2709 H   0  0  0  0  0  0  0  0  0  0  0  0  # atno 6908 bound_to 6896
  151.3225  135.0828  159.9364 H   0  0  0  0  0  0  0  0  0  0  0  0  # atno 6909 bound_to 6896
  145.1736  139.3088  143.4454 H   0  0  0  0  0  0  0  0  0  0  0  0  # atno 7974 bound_to 7965
  154.4294  140.1092  156.5900 H   0  0  0  0  0  0  0  0  0  0  0  0  # atno 8008 bound_to 7997
  155.6022  140.3493  155.4578 H   0  0  0  0  0  0  0  0  0  0  0  0  # atno 8009 bound_to 7997
  156.0165  140.1230  157.0391 H   0  0  0  0  0  0  0  0  0  0  0  0  # atno 8010 bound_to 7997
  139.7245  144.7050  151.0819 H   0  0  0  0  0  0  0  0  0  0  0  0  # atno 10167 bound_to 10162
  157.6555  131.0908  150.6410 H   0  0  0  0  0  0  0  0  0  0  0  0  # atno 10718 bound_to 10713
  152.9786  135.5838  154.4453 H   0  0  0  0  0  0  0  0  0  0  0  0  # atno 10763 bound_to 10752
  154.4049  135.2769  155.2075 H   0  0  0  0  0  0  0  0  0  0  0  0  # atno 10764 bound_to 10752
  154.3890  135.6129  153.5887 H   0  0  0  0  0  0  0  0  0  0  0  0  # atno 10765 bound_to 10752
  140.8490  134.2309  157.4770 H   0  0  0  0  0  0  0  0  0  0  0  0  # atno 11005 bound_to 11000
  146.3464  140.1891  142.8589 LP  0  0  0  0  0  0  0  0  0  0  0  0  # atno 17320 bound_to 7965
  145.0207  140.8791  143.5168 LP  0  0  0  0  0  0  0  0  0  0  0  0  # atno 17321 bound_to 7965
  140.7760  143.5123  150.9638 LP  0  0  0  0  0  0  0  0  0  0  0  0  # atno 17342 bound_to 10162
  139.8810  143.7072  152.3157 LP  0  0  0  0  0  0  0  0  0  0  0  0  # atno 17343 bound_to 10162
  156.6717  130.4541  149.5655 LP  0  0  0  0  0  0  0  0  0  0  0  0  # atno 17370 bound_to 10713
  156.1993  130.6609  151.1149 LP  0  0  0  0  0  0  0  0  0  0  0  0  # atno 17371 bound_to 10713
  139.8704  134.9674  156.4595 LP  0  0  0  0  0  0  0  0  0  0  0  0  # atno 17394 bound_to 11000
  140.8811  133.7917  155.9467 LP  0  0  0  0  0  0  0  0  0  0  0  0  # atno 17395 bound_to 11000

$$$$
