AV-unprocessed.smi:1487|AV-procd|sdf|6016|dock3
  -GOLD-   22720 6123D 1   1.00000     0.00000
 Structure written by MMmdl.
 49 51  0  0  0  0  0  0  0  0  3 V2000
  152.9975  143.7088  160.1554 C   0  0  0  0  0  0  0  0  0  0  0  0
  152.5220  142.7981  159.0362 C   0  0  0  0  0  0  0  0  0  0  0  0
  151.5824  143.3030  158.1094 C   0  0  0  0  0  0  0  0  0  0  0  0
  151.1671  142.4468  157.0966 C   0  0  0  0  0  0  0  0  0  0  0  0
  150.2684  142.6423  156.0460 N   0  3  0  0  0  0  0  0  0  0  0  0
  150.1833  141.5048  155.3023 C   0  0  0  0  0  0  0  0  0  0  0  0
  151.0160  140.5844  155.8618 N   0  0  0  0  0  0  0  0  0  0  0  0
  151.2871  139.1960  155.4586 C   0  0  0  0  0  0  0  0  0  0  0  0
  150.3410  138.6924  154.3505 C   0  0  1  0  0  0  0  0  0  0  0  0
  150.6473  137.3475  154.0376 O   0  0  0  0  0  0  0  0  0  0  0  0
  148.8647  138.7685  154.7885 C   0  0  0  0  0  0  0  0  0  0  0  0
  147.9459  138.1251  153.8141 N   0  3  1  0  0  0  0  0  0  0  0  0
  146.9602  137.2284  154.4729 C   0  0  0  0  0  0  0  0  0  0  0  0
  146.1193  136.4656  153.4347 C   0  0  0  0  0  0  0  0  0  0  0  0
  145.4162  137.4350  152.4759 C   0  0  0  0  0  0  0  0  0  0  0  0
  146.4505  138.3691  151.8311 C   0  0  1  0  0  0  0  0  0  0  0  0
  145.7901  139.3163  151.0189 O   0  0  0  0  0  0  0  0  0  0  0  0
  147.2798  139.0963  152.9051 C   0  0  0  0  0  0  0  0  0  0  0  0
  151.6511  141.1285  156.9855 C   0  0  0  0  0  0  0  0  0  0  0  0
  152.5778  140.6158  157.8908 C   0  0  0  0  0  0  0  0  0  0  0  0
  153.0124  141.4711  158.9286 C   0  0  0  0  0  0  0  0  0  0  0  0
  154.0218  140.9380  159.9311 C   0  0  0  0  0  0  0  0  0  0  0  0
  152.5881  144.7140  160.0531 H   0  0  0  0  0  0  0  0  0  0  0  0
  154.0846  143.7920  160.1492 H   0  0  0  0  0  0  0  0  0  0  0  0
  152.6848  143.3171  161.1236 H   0  0  0  0  0  0  0  0  0  0  0  0
  151.2036  144.3119  158.1859 H   0  0  0  0  0  0  0  0  0  0  0  0
  149.5639  141.3592  154.4288 H   0  0  0  0  0  0  0  0  0  0  0  0
  152.3320  139.1055  155.1606 H   0  0  0  0  0  0  0  0  0  0  0  0
  151.1726  138.5778  156.3499 H   0  0  0  0  0  0  0  0  0  0  0  0
  150.5073  139.2931  153.4567 H   0  0  0  0  0  0  0  0  0  0  0  0
  149.9706  137.0094  153.4704 H   0  0  0  0  0  0  0  0  0  0  0  0
  148.7714  138.2842  155.7620 H   0  0  0  0  0  0  0  0  0  0  0  0
  148.5602  139.8054  154.9379 H   0  0  0  0  0  0  0  0  0  0  0  0
  147.4811  136.5081  155.1050 H   0  0  0  0  0  0  0  0  0  0  0  0
  146.3127  137.8150  155.1266 H   0  0  0  0  0  0  0  0  0  0  0  0
  146.7616  135.7905  152.8674 H   0  0  0  0  0  0  0  0  0  0  0  0
  145.3819  135.8399  153.9387 H   0  0  0  0  0  0  0  0  0  0  0  0
  144.8757  136.8784  151.7093 H   0  0  0  0  0  0  0  0  0  0  0  0
  144.6742  138.0170  153.0245 H   0  0  0  0  0  0  0  0  0  0  0  0
  147.1169  137.7876  151.1923 H   0  0  0  0  0  0  0  0  0  0  0  0
  145.2420  139.8588  151.5655 H   0  0  0  0  0  0  0  0  0  0  0  0
  146.6405  139.7588  153.4914 H   0  0  0  0  0  0  0  0  0  0  0  0
  148.0225  139.7264  152.4164 H   0  0  0  0  0  0  0  0  0  0  0  0
  152.9572  139.6081  157.8092 H   0  0  0  0  0  0  0  0  0  0  0  0
  154.2551  139.8895  159.7435 H   0  0  0  0  0  0  0  0  0  0  0  0
  153.6323  141.0144  160.9463 H   0  0  0  0  0  0  0  0  0  0  0  0
  154.9529  141.5023  159.8732 H   0  0  0  0  0  0  0  0  0  0  0  0
  148.5235  137.5285  153.2384 H   0  0  0  0  0  0  0  0  0  0  0  0
  149.7482  143.4884  155.8505 H   0  0  0  0  0  0  0  0  0  0  0  0
  1  2  1  0  0  0  0
  1 23  1  0  0  0  0
  1 24  1  0  0  0  0
  1 25  1  0  0  0  0
  2 21  1  0  0  0  0
  2  3  2  0  0  0  0
  3  4  1  0  0  0  0
  3 26  1  0  0  0  0
  4 19  2  0  0  0  0
  4  5  1  0  0  0  0
  5  6  2  0  0  0  0
  5 49  1  0  0  0  0
  6  7  1  0  0  0  0
  6 27  1  0  0  0  0
  7  8  1  0  0  0  0
  7 19  1  0  0  0  0
  8  9  1  0  0  0  0
  8 28  1  0  0  0  0
  8 29  1  0  0  0  0
  9 10  1  0  0  0  0
  9 11  1  0  0  0  0
  9 30  1  0  0  0  0
 10 31  1  0  0  0  0
 11 12  1  0  0  0  0
 11 32  1  0  0  0  0
 11 33  1  0  0  0  0
 12 18  1  0  0  0  0
 12 13  1  0  0  0  0
 12 48  1  0  0  0  0
 13 14  1  0  0  0  0
 13 34  1  0  0  0  0
 13 35  1  0  0  0  0
 14 15  1  0  0  0  0
 14 36  1  0  0  0  0
 14 37  1  0  0  0  0
 15 16  1  0  0  0  0
 15 38  1  0  0  0  0
 15 39  1  0  0  0  0
 16 17  1  0  0  0  0
 16 18  1  0  0  0  0
 16 40  1  0  0  0  0
 17 41  1  0  0  0  0
 18 42  1  0  0  0  0
 18 43  1  0  0  0  0
 19 20  1  0  0  0  0
 20 21  2  0  0  0  0
 20 44  1  0  0  0  0
 21 22  1  0  0  0  0
 22 45  1  0  0  0  0
 22 46  1  0  0  0  0
 22 47  1  0  0  0  0
M  CHG  1   5   1
M  CHG  1  12   1
M  END
> <s_m_source_file>
AV-unprocessed.smi

> <i_m_source_file_index>
1487

> <i_lp_mmshare_version>
43012

> <i_f3d_flags>
0

> <s_epik_input>
W0NIM11jKFtjSF0xKWMoW0NIM10pW2NIXWMoYzEyKW4oW2NIXW4yKVtDSDJdW0NASF0oW09IXSlbQ0gyXU4zW0NIMl1bQ0gyXVtDSDJdW0NAQEhdKFtPSF0pW0NIMl0z

> <s_epik_cmdline>
J2VwaWtfcHl0aG9uJywgJy1waCcsICc3LjAnLCAnLXRuJywgJzgnLCAnLW1hJywgJzIwMCcsICctbWV0YWxfYmluZGluZycsICctaW1hZScsICc8aW5maWxlLm1hZT4nLCAnLW9tYWUnLCAnPG91dGZpbGUubWFlPic=

> <r_epik_Ionization_Penalty>
1.1857

> <r_epik_Ionization_Penalty_Charging>
1.1857

> <r_epik_Ionization_Penalty_Neutral>
1.75578e-06

> <r_epik_State_Penalty>
1.26953

> <r_epik_Charging_Adjusted_Penalty>
2.45524

> <i_epik_Tot_Q>
2

> <i_epik_Tot_abs_Q>
2

> <r_epik_Metal_State_Penalty>
5.28243

> <b_epik_Metal_Only>
0

> <s_lp_Force_Field>
OPLS_2005

> <r_lp_Energy>
30.1376

> <b_lp_Chiralities_Consistent>
1

> <s_lp_Variant>
AV-unprocessed.smi:1487-10

> <Gold.Version>
5.8.1

> <Gold.Id.Protein>
6NUR|6NUR_protein|mol2

> <Gold.PLP.Fitness>
60.6514

> <Gold.PLP.PLP>
-44.0452

> <Gold.PLP.part.hbond>
-5.4897

> <Gold.PLP.part.metal>
0.0000

> <Gold.PLP.part.buried>
-0.5164

> <Gold.PLP.part.nonpolar>
-38.6988

> <Gold.PLP.part.repulsive>
0.1246

> <Gold.PLP.ligand.clash>
0.0000

> <Gold.PLP.ligand.torsion>
0.7161

> <Gold.PLP.Chemscore.Hbond>
6.0000

> <Gold.PLP.Chemscore.CHOScore>
0.0000

> <Gold.PLP.Chemscore.Metal>
0.0000

> <Gold.Chemscore.Hbonds>
donor molecule, donor type, donor heavy atom, donor atom, acceptor molecule, acceptor atom, score
      L1  H     5    49       P1  8028  1.92
      L1  H    10    31       P1  7948  1.00
      L1  H    12    48       P1  7948  2.00
      L1  H    17    41       P1 10175  1.00

> <Gold.PLP.Chemscore.Internal.Correction>
0.0384

> <Gold.Rescore>
     Score         DG    S(hbond)    S(metal)    S(lipo)     H(rot)  DE(clash)    DE(int)     intcor
     21.69     -22.61       3.22        0.00     114.46       2.74       0.20       0.72       ----

> <Gold.Chemscore.Fitness>
21.6912

> <Gold.Chemscore.DG>
-22.6084

> <Gold.Chemscore.ZeroCoef>
-5.4800

> <Gold.Chemscore.Hbond>
3.2176

> <Gold.Chemscore.Metal>
0.0000

> <Gold.Chemscore.Lipo>
114.4610

> <Gold.Chemscore.Internal_Hbond>
0.0000

> <Gold.Chemscore.DEClash>
0.1954

> <Gold.Chemscore.DEInternal>
0.7219

> <Gold.Chemscore.Rot>
2.7384

> <Gold.Chemscore.Internal.Correction>
   9.000000E+99

> <Gold.Chemscore.Hbonds>
donor molecule, donor type, donor heavy atom, donor atom, acceptor molecule, acceptor atom, score
      L1  H     5    49       P1  8028  0.91
      L1  H    10    31       P1  7948  0.29
      L1  H    12    48       P1  7948  0.99
      L1  H    17    41       P1 10175  0.30

> <Gold.Chemscore.Hbond.Weighted>
-10.7468

> <Gold.Chemscore.Metal.Weighted>
-0.0000

> <Gold.Chemscore.Lipo.Weighted>
-13.3919

> <Gold.Chemscore.Internal_Hbond.Weighted>
0.0000

> <Gold.Chemscore.DEClash.Weighted>
0.1954

> <Gold.Chemscore.DEInternal.Weighted>
0.7219

> <Gold.Chemscore.Rot.Weighted>
7.0103

> <Gold.Chemscore.Internal.Correction.Weighted>
   9.000000E+99

> <Gold.Protein.RotatedTorsions>
[ 6907 6896 6895 6894 ] final   85.63 input  -60.11 | X-H torsion
[ 7974 7965 7964 7962 ] final  -57.73 input  175.53 | X-H torsion
[ 8008 7997 7996 7995 ] final  147.42 input   59.86 | X-H torsion
[ 10167 10162 10161 10158 ] final  104.00 input  -65.29 | X-H torsion
[ 10718 10713 10712 10709 ] final   11.59 input   66.30 | X-H torsion
[ 10763 10752 10751 10750 ] final  -22.84 input  -60.55 | X-H torsion
[ 11005 11000 10999 10996 ] final   -9.51 input  -57.11 | X-H torsion

> <Gold.Protein.ActiveResidues>
 VAL166  LYS551  ARG553  GLY616  TRP617  ASP618  TYR619  PRO620  LYS621  CYS622 
 ASP623  PHE694  ASN695  SER759  ASP760  ASP761  ALA762  ILE779  LEU786  VAL792 
 PHE793  MET794  SER795  GLU796  ALA797  LYS798  CYS799  TRP800  GLU811  SER814 

> <Gold.Protein.RotatedAtoms>
  152.5378  134.2556  159.8915 H   0  0  0  0  0  0  0  0  0  0  0  0  # atno 6907 bound_to 6896
  151.2518  133.4339  159.2619 H   0  0  0  0  0  0  0  0  0  0  0  0  # atno 6908 bound_to 6896
  151.0532  134.9701  159.8278 H   0  0  0  0  0  0  0  0  0  0  0  0  # atno 6909 bound_to 6896
  145.8476  140.8374  143.0002 H   0  0  0  0  0  0  0  0  0  0  0  0  # atno 7974 bound_to 7965
  156.2825  140.2156  156.5535 H   0  0  0  0  0  0  0  0  0  0  0  0  # atno 8008 bound_to 7997
  154.7272  140.0498  157.0716 H   0  0  0  0  0  0  0  0  0  0  0  0  # atno 8009 bound_to 7997
  155.0401  140.3144  155.4730 H   0  0  0  0  0  0  0  0  0  0  0  0  # atno 8010 bound_to 7997
  139.7215  144.7057  151.0866 H   0  0  0  0  0  0  0  0  0  0  0  0  # atno 10167 bound_to 10162
  156.9978  130.6068  149.5693 H   0  0  0  0  0  0  0  0  0  0  0  0  # atno 10718 bound_to 10713
  153.6583  135.6977  153.5186 H   0  0  0  0  0  0  0  0  0  0  0  0  # atno 10763 bound_to 10752
  153.2651  135.4232  155.0932 H   0  0  0  0  0  0  0  0  0  0  0  0  # atno 10764 bound_to 10752
  154.8458  135.3564  154.6128 H   0  0  0  0  0  0  0  0  0  0  0  0  # atno 10765 bound_to 10752
  140.7349  133.8718  155.8922 H   0  0  0  0  0  0  0  0  0  0  0  0  # atno 11005 bound_to 11000
  144.6730  140.0905  143.7465 LP  0  0  0  0  0  0  0  0  0  0  0  0  # atno 17320 bound_to 7965
  145.9394  139.2659  143.1277 LP  0  0  0  0  0  0  0  0  0  0  0  0  # atno 17321 bound_to 7965
  140.7754  143.5160  150.9594 LP  0  0  0  0  0  0  0  0  0  0  0  0  # atno 17342 bound_to 10162
  139.8847  143.7027  152.3153 LP  0  0  0  0  0  0  0  0  0  0  0  0  # atno 17343 bound_to 10162
  156.0182  130.5277  150.8199 LP  0  0  0  0  0  0  0  0  0  0  0  0  # atno 17370 bound_to 10713
  157.5412  131.0941  150.9825 LP  0  0  0  0  0  0  0  0  0  0  0  0  # atno 17371 bound_to 10713
  140.9888  134.1307  157.4427 LP  0  0  0  0  0  0  0  0  0  0  0  0  # atno 17394 bound_to 11000
  139.8818  135.0034  156.6183 LP  0  0  0  0  0  0  0  0  0  0  0  0  # atno 17395 bound_to 11000

$$$$
