AV-unprocessed.smi:1215|AV-procd|sdf|5097|dock9
  -GOLD-   22720 4153D 1   1.00000     0.00000
 Structure written by MMmdl.
 46 47  0  0  0  0  0  0  0  0  2 V2000
  150.5858  141.9808  156.9228 C   0  0  0  0  0  0  0  0  0  0  0  0
  151.6667  140.9308  157.2059 C   0  0  0  0  0  0  0  0  0  0  0  0
  151.6348  139.8521  156.2378 N   0  0  0  0  0  0  0  0  0  0  0  0
  150.6099  138.9629  155.9826 C   0  0  0  0  0  0  0  0  0  0  0  0
  151.0640  138.1468  154.9906 C   0  0  0  0  0  0  0  0  0  0  0  0
  150.3275  137.0792  154.4184 N   0  0  0  0  0  0  0  0  0  0  0  0
  150.0868  135.8771  154.9656 C   0  0  0  0  0  0  0  0  0  0  0  0
  150.4858  135.5087  156.0702 O   0  0  0  0  0  0  0  0  0  0  0  0
  149.3543  135.1029  154.1516 N   0  0  0  0  0  0  0  0  0  0  0  0
  148.9311  133.7414  154.4615 C   0  0  0  0  0  0  0  0  0  0  0  0
  147.4302  133.5362  154.1668 C   0  0  0  0  0  0  0  0  0  0  0  0
  146.9701  134.2471  152.9387 N   0  3  1  0  0  0  0  0  0  0  0  0
  146.5408  133.2892  151.8780 C   0  0  0  0  0  0  0  0  0  0  0  0
  146.1847  133.9997  150.5650 C   0  0  0  0  0  0  0  0  0  0  0  0
  145.0835  135.0330  150.7981 C   0  0  0  0  0  0  0  0  0  0  0  0
  145.5365  136.0143  151.8808 C   0  0  0  0  0  0  0  0  0  0  0  0
  145.9266  135.2962  153.1925 C   0  0  2  0  0  0  0  0  0  0  0  0
  146.3682  136.3637  154.2164 C   0  0  0  0  0  0  0  0  0  0  0  0
  152.3812  138.5967  154.6904 C   0  0  0  0  0  0  0  0  0  0  0  0
  152.7155  139.6289  155.4498 N   0  0  0  0  0  0  0  0  0  0  0  0
  150.6317  142.7905  157.6509 H   0  0  0  0  0  0  0  0  0  0  0  0
  149.5881  141.5442  156.9741 H   0  0  0  0  0  0  0  0  0  0  0  0
  150.7110  142.4169  155.9315 H   0  0  0  0  0  0  0  0  0  0  0  0
  152.6546  141.3920  157.1817 H   0  0  0  0  0  0  0  0  0  0  0  0
  151.5367  140.5114  158.2047 H   0  0  0  0  0  0  0  0  0  0  0  0
  149.6715  138.9894  156.5169 H   0  0  0  0  0  0  0  0  0  0  0  0
  149.9486  137.2485  153.4981 H   0  0  0  0  0  0  0  0  0  0  0  0
  149.0661  135.4826  153.2614 H   0  0  0  0  0  0  0  0  0  0  0  0
  149.5339  133.0273  153.8974 H   0  0  0  0  0  0  0  0  0  0  0  0
  149.1553  133.5766  155.5142 H   0  0  0  0  0  0  0  0  0  0  0  0
  147.1959  132.4737  154.0858 H   0  0  0  0  0  0  0  0  0  0  0  0
  146.8921  133.8987  155.0382 H   0  0  0  0  0  0  0  0  0  0  0  0
  147.3305  132.5724  151.6612 H   0  0  0  0  0  0  0  0  0  0  0  0
  145.6845  132.7137  152.2335 H   0  0  0  0  0  0  0  0  0  0  0  0
  147.0707  134.4870  150.1555 H   0  0  0  0  0  0  0  0  0  0  0  0
  145.8595  133.2707  149.8221 H   0  0  0  0  0  0  0  0  0  0  0  0
  144.8611  135.5658  149.8730 H   0  0  0  0  0  0  0  0  0  0  0  0
  144.1624  134.5363  151.1060 H   0  0  0  0  0  0  0  0  0  0  0  0
  146.3844  136.5936  151.5115 H   0  0  0  0  0  0  0  0  0  0  0  0
  144.7361  136.7309  152.0697 H   0  0  0  0  0  0  0  0  0  0  0  0
  145.0386  134.7977  153.5848 H   0  0  0  0  0  0  0  0  0  0  0  0
  145.6673  137.1991  154.2338 H   0  0  0  0  0  0  0  0  0  0  0  0
  147.3517  136.7676  153.9734 H   0  0  0  0  0  0  0  0  0  0  0  0
  146.3964  135.9808  155.2357 H   0  0  0  0  0  0  0  0  0  0  0  0
  153.0953  138.2265  153.9701 H   0  0  0  0  0  0  0  0  0  0  0  0
  147.7753  134.7393  152.5786 H   0  0  0  0  0  0  0  0  0  0  0  0
  1  2  1  0  0  0  0
  1 21  1  0  0  0  0
  1 22  1  0  0  0  0
  1 23  1  0  0  0  0
  2  3  1  0  0  0  0
  2 24  1  0  0  0  0
  2 25  1  0  0  0  0
  3 20  1  0  0  0  0
  3  4  1  0  0  0  0
  4  5  2  0  0  0  0
  4 26  1  0  0  0  0
  5  6  1  0  0  0  0
  5 19  1  0  0  0  0
  6  7  1  0  0  0  0
  6 27  1  0  0  0  0
  7  8  2  0  0  0  0
  7  9  1  0  0  0  0
  9 10  1  0  0  0  0
  9 28  1  0  0  0  0
 10 11  1  0  0  0  0
 10 29  1  0  0  0  0
 10 30  1  0  0  0  0
 11 12  1  0  0  0  0
 11 31  1  0  0  0  0
 11 32  1  0  0  0  0
 12 17  1  0  0  0  0
 12 13  1  0  0  0  0
 12 46  1  0  0  0  0
 13 14  1  0  0  0  0
 13 33  1  0  0  0  0
 13 34  1  0  0  0  0
 14 15  1  0  0  0  0
 14 35  1  0  0  0  0
 14 36  1  0  0  0  0
 15 16  1  0  0  0  0
 15 37  1  0  0  0  0
 15 38  1  0  0  0  0
 16 17  1  0  0  0  0
 16 39  1  0  0  0  0
 16 40  1  0  0  0  0
 17 18  1  0  0  0  0
 17 41  1  0  0  0  0
 18 42  1  0  0  0  0
 18 43  1  0  0  0  0
 18 44  1  0  0  0  0
 19 20  2  0  0  0  0
 19 45  1  0  0  0  0
M  CHG  1  12   1
M  END
> <s_m_source_file>
AV-unprocessed.smi

> <i_m_source_file_index>
1215

> <i_lp_mmshare_version>
43012

> <i_f3d_flags>
0

> <s_epik_input>
W0NIM11bQ0gyXW4xW2NIXWMoW2NIXW4xKVtOSF1DKD1PKVtOSF1bQ0gyXVtDSDJdTjJbQ0gyXVtDSDJdW0NIMl1bQ0gyXVtDQEhdMltDSDNd

> <s_epik_cmdline>
J2VwaWtfcHl0aG9uJywgJy1waCcsICc3LjAnLCAnLXRuJywgJzgnLCAnLW1hJywgJzIwMCcsICctbWV0YWxfYmluZGluZycsICctaW1hZScsICc8aW5maWxlLm1hZT4nLCAnLW9tYWUnLCAnPG91dGZpbGUubWFlPic=

> <r_lp_tautomer_probability>
1

> <r_epik_Ionization_Penalty>
0.00247187

> <r_epik_Ionization_Penalty_Charging>
0.00232067

> <r_epik_Ionization_Penalty_Neutral>
0.000151201

> <r_epik_State_Penalty>
0.00160128

> <r_epik_Charging_Adjusted_Penalty>
0.00392194

> <i_epik_Tot_Q>
1

> <i_epik_Tot_abs_Q>
1

> <r_epik_Metal_State_Penalty>
-0

> <b_epik_Metal_Only>
0

> <s_lp_Force_Field>
OPLS_2005

> <r_lp_Energy>
23.8268

> <b_lp_Chiralities_Consistent>
1

> <s_lp_Variant>
AV-unprocessed.smi:1215-4

> <Gold.Version>
5.8.1

> <Gold.Id.Protein>
6NUR|6NUR_protein|mol2

> <Gold.PLP.Fitness>
43.9135

> <Gold.PLP.PLP>
-32.6146

> <Gold.PLP.part.hbond>
-5.0609

> <Gold.PLP.part.metal>
0.0000

> <Gold.PLP.part.buried>
-2.9575

> <Gold.PLP.part.nonpolar>
-25.1132

> <Gold.PLP.part.repulsive>
0.1179

> <Gold.PLP.ligand.clash>
0.0000

> <Gold.PLP.ligand.torsion>
1.6274

> <Gold.PLP.Chemscore.Hbond>
4.8405

> <Gold.PLP.Chemscore.CHOScore>
0.0000

> <Gold.PLP.Chemscore.Metal>
0.0000

> <Gold.Chemscore.Hbonds>
donor molecule, donor type, donor heavy atom, donor atom, acceptor molecule, acceptor atom, score
      L1  H     6    27       P1  7948  0.64
      L1  H     9    28       P1  7948  1.00
      L1  H    12    46       P1  7948  2.00
      P1  H  7997  8009       L1    20  1.00

> <Gold.PLP.Chemscore.Internal.Correction>
0.0323

> <Gold.Rescore>
     Score         DG    S(hbond)    S(metal)    S(lipo)     H(rot)  DE(clash)    DE(int)     intcor
     17.50     -19.57       2.99        0.00      69.78       1.59       0.44       1.63       ----

> <Gold.Chemscore.Fitness>
17.4990

> <Gold.Chemscore.DG>
-19.5687

> <Gold.Chemscore.ZeroCoef>
-5.4800

> <Gold.Chemscore.Hbond>
2.9933

> <Gold.Chemscore.Metal>
0.0000

> <Gold.Chemscore.Lipo>
69.7759

> <Gold.Chemscore.Internal_Hbond>
0.0000

> <Gold.Chemscore.DEClash>
0.4402

> <Gold.Chemscore.DEInternal>
1.6295

> <Gold.Chemscore.Rot>
1.5909

> <Gold.Chemscore.Internal.Correction>
   9.000000E+99

> <Gold.Chemscore.Hbonds>
donor molecule, donor type, donor heavy atom, donor atom, acceptor molecule, acceptor atom, score
      L1  H     6    27       P1  7948  0.28
      L1  H     9    28       P1  7948  0.48
      L1  H    12    46       P1  7948  0.82
      P1  H  7997  8009       L1    20  0.98

> <Gold.Chemscore.Hbond.Weighted>
-9.9977

> <Gold.Chemscore.Metal.Weighted>
-0.0000

> <Gold.Chemscore.Lipo.Weighted>
-8.1638

> <Gold.Chemscore.Internal_Hbond.Weighted>
0.0000

> <Gold.Chemscore.DEClash.Weighted>
0.4402

> <Gold.Chemscore.DEInternal.Weighted>
1.6295

> <Gold.Chemscore.Rot.Weighted>
4.0728

> <Gold.Chemscore.Internal.Correction.Weighted>
   9.000000E+99

> <Gold.Protein.RotatedTorsions>
[ 6907 6896 6895 6894 ] final    6.15 input  -60.11 | X-H torsion
[ 7974 7965 7964 7962 ] final  -36.95 input  175.53 | X-H torsion
[ 8008 7997 7996 7995 ] final -142.85 input   59.86 | X-H torsion
[ 10167 10162 10161 10158 ] final  -63.53 input  -65.29 | X-H torsion
[ 10718 10713 10712 10709 ] final  159.22 input   66.30 | X-H torsion
[ 10763 10752 10751 10750 ] final   -5.61 input  -60.55 | X-H torsion
[ 11005 11000 10999 10996 ] final  158.72 input  -57.11 | X-H torsion

> <Gold.Protein.ActiveResidues>
 VAL166  LYS551  ARG553  GLY616  TRP617  ASP618  TYR619  PRO620  LYS621  CYS622 
 ASP623  PHE694  ASN695  SER759  ASP760  ASP761  ALA762  ILE779  LEU786  VAL792 
 PHE793  MET794  SER795  GLU796  ALA797  LYS798  CYS799  TRP800  GLU811  SER814 

> <Gold.Protein.RotatedAtoms>
  151.6690  135.0979  160.0194 H   0  0  0  0  0  0  0  0  0  0  0  0  # atno 6907 bound_to 6896
  152.3903  133.6664  159.6240 H   0  0  0  0  0  0  0  0  0  0  0  0  # atno 6908 bound_to 6896
  150.7820  133.8883  159.3347 H   0  0  0  0  0  0  0  0  0  0  0  0  # atno 6909 bound_to 6896
  146.0617  140.6339  142.8994 H   0  0  0  0  0  0  0  0  0  0  0  0  # atno 7974 bound_to 7965
  155.5010  140.0575  157.2939 H   0  0  0  0  0  0  0  0  0  0  0  0  # atno 8008 bound_to 7997
  154.4587  140.1986  156.0255 H   0  0  0  0  0  0  0  0  0  0  0  0  # atno 8009 bound_to 7997
  156.0849  140.3242  155.7745 H   0  0  0  0  0  0  0  0  0  0  0  0  # atno 8010 bound_to 7997
  140.5864  143.2334  151.6233 H   0  0  0  0  0  0  0  0  0  0  0  0  # atno 10167 bound_to 10162
  157.1672  131.0601  151.2202 H   0  0  0  0  0  0  0  0  0  0  0  0  # atno 10718 bound_to 10713
  153.4009  135.7005  153.6427 H   0  0  0  0  0  0  0  0  0  0  0  0  # atno 10763 bound_to 10752
  153.4961  135.3662  155.2516 H   0  0  0  0  0  0  0  0  0  0  0  0  # atno 10764 bound_to 10752
  154.8710  135.4100  154.3343 H   0  0  0  0  0  0  0  0  0  0  0  0  # atno 10765 bound_to 10752
  140.1892  134.8419  157.2893 H   0  0  0  0  0  0  0  0  0  0  0  0  # atno 11005 bound_to 11000
  144.7179  140.4272  143.7031 LP  0  0  0  0  0  0  0  0  0  0  0  0  # atno 17320 bound_to 7965
  145.6548  139.1571  143.2841 LP  0  0  0  0  0  0  0  0  0  0  0  0  # atno 17321 bound_to 7965
  139.5200  144.3235  152.0890 LP  0  0  0  0  0  0  0  0  0  0  0  0  # atno 17342 bound_to 10162
  140.2392  144.4287  150.6267 LP  0  0  0  0  0  0  0  0  0  0  0  0  # atno 17343 bound_to 10162
  157.4077  130.7368  149.6815 LP  0  0  0  0  0  0  0  0  0  0  0  0  # atno 17370 bound_to 10713
  155.9744  130.4104  150.3926 LP  0  0  0  0  0  0  0  0  0  0  0  0  # atno 17371 bound_to 10713
  140.2179  134.4059  155.7580 LP  0  0  0  0  0  0  0  0  0  0  0  0  # atno 17394 bound_to 11000
  141.2226  133.7151  156.8443 LP  0  0  0  0  0  0  0  0  0  0  0  0  # atno 17395 bound_to 11000

$$$$
