AV-unprocessed.smi:54|AV-procd|sdf|536|dock4
  -GOLD-   2262016423D 1   1.00000     0.00000
 Structure written by MMmdl.
 44 46  0  0  0  0  0  0  0  0  1 V2000
  152.7827  138.4084  155.0055 C   0  0  0  0  0  0  0  0  0  0  0  0
  151.4447  138.0962  155.6944 C   0  0  0  0  0  0  0  0  0  0  0  0
  151.3930  138.6933  157.1103 C   0  0  0  0  0  0  0  0  0  0  0  0
  151.2010  136.5832  155.7330 C   0  0  0  0  0  0  0  0  0  0  0  0
  151.8972  135.8272  156.4117 O   0  0  0  0  0  0  0  0  0  0  0  0
  150.1018  136.1094  154.9108 N   0  0  0  0  0  0  0  0  0  0  0  0
  149.6796  134.8328  154.7572 C   0  0  0  0  0  0  0  0  0  0  0  0
  148.8310  134.4566  153.8108 N   0  0  0  0  0  0  0  0  0  0  0  0
  148.5280  133.1237  153.8178 C   0  0  0  0  0  0  0  0  0  0  0  0
  149.0139  132.1723  154.6900 C   0  0  0  0  0  0  0  0  0  0  0  0
  148.4751  130.9261  154.3881 N   0  0  0  0  0  0  0  0  0  0  0  0
  147.6970  131.1563  153.3671 C   0  0  0  0  0  0  0  0  0  0  0  0
  147.6752  132.4687  152.9579 N   0  0  0  0  0  0  0  0  0  0  0  0
  146.9094  133.1012  151.8427 C   0  0  1  0  0  0  0  0  0  0  0  0
  146.1420  132.1302  151.2138 O   0  0  0  0  0  0  0  0  0  0  0  0
  145.0518  132.7603  150.5480 C   0  0  1  0  0  0  0  0  0  0  0  0
  143.8216  131.8496  150.6785 C   0  0  0  0  0  0  0  0  0  0  0  0
  142.9851  131.9911  149.5498 O   0  0  0  0  0  0  0  0  0  0  0  0
  144.8820  134.1429  151.2163 C   0  0  2  0  0  0  0  0  0  0  0  0
  145.1723  135.1558  150.2725 O   0  0  0  0  0  0  0  0  0  0  0  0
  145.9214  134.1628  152.3309 C   0  0  1  0  0  0  0  0  0  0  0  0
  145.3339  133.8381  153.5786 O   0  0  0  0  0  0  0  0  0  0  0  0
  149.9391  132.5622  155.7146 C   0  0  0  0  0  0  0  0  0  0  0  0
  150.4725  131.8571  156.5685 O   0  0  0  0  0  0  0  0  0  0  0  0
  150.2233  133.9337  155.6751 N   0  0  0  0  0  0  0  0  0  0  0  0
  147.6587  133.4937  151.1532 H   0  0  0  0  0  0  0  0  0  0  0  0
  145.3248  132.8623  149.4959 H   0  0  0  0  0  0  0  0  0  0  0  0
  143.8724  134.3100  151.5950 H   0  0  0  0  0  0  0  0  0  0  0  0
  146.4283  135.1241  152.4301 H   0  0  0  0  0  0  0  0  0  0  0  0
  152.8184  137.9865  154.0002 H   0  0  0  0  0  0  0  0  0  0  0  0
  153.6271  138.0049  155.5662 H   0  0  0  0  0  0  0  0  0  0  0  0
  152.9313  139.4845  154.9130 H   0  0  0  0  0  0  0  0  0  0  0  0
  150.6470  138.5541  155.1078 H   0  0  0  0  0  0  0  0  0  0  0  0
  150.4462  138.4668  157.6021 H   0  0  0  0  0  0  0  0  0  0  0  0
  151.4933  139.7786  157.0787 H   0  0  0  0  0  0  0  0  0  0  0  0
  152.1960  138.3066  157.7395 H   0  0  0  0  0  0  0  0  0  0  0  0
  149.6154  136.8138  154.3767 H   0  0  0  0  0  0  0  0  0  0  0  0
  147.1194  130.3775  152.8909 H   0  0  0  0  0  0  0  0  0  0  0  0
  144.1315  130.8063  150.7444 H   0  0  0  0  0  0  0  0  0  0  0  0
  143.2611  132.0781  151.5854 H   0  0  0  0  0  0  0  0  0  0  0  0
  142.0854  131.9353  149.8336 H   0  0  0  0  0  0  0  0  0  0  0  0
  145.3715  134.7452  149.4448 H   0  0  0  0  0  0  0  0  0  0  0  0
  144.9032  133.0013  153.4964 H   0  0  0  0  0  0  0  0  0  0  0  0
  150.8674  134.2803  156.3705 H   0  0  0  0  0  0  0  0  0  0  0  0
  1  2  1  0  0  0  0
  1 30  1  0  0  0  0
  1 31  1  0  0  0  0
  1 32  1  0  0  0  0
  2  3  1  0  0  0  0
  2  4  1  0  0  0  0
  2 33  1  0  0  0  0
  3 34  1  0  0  0  0
  3 35  1  0  0  0  0
  3 36  1  0  0  0  0
  4  5  2  0  0  0  0
  4  6  1  0  0  0  0
  6 37  1  0  0  0  0
  6  7  1  0  0  0  0
  7 25  1  0  0  0  0
  7  8  2  0  0  0  0
  8  9  1  0  0  0  0
  9 13  1  0  0  0  0
  9 10  2  0  0  0  0
 10 11  1  0  0  0  0
 10 23  1  0  0  0  0
 11 12  2  0  0  0  0
 12 13  1  0  0  0  0
 12 38  1  0  0  0  0
 13 14  1  0  0  0  0
 14 26  1  0  0  0  0
 14 21  1  0  0  0  0
 14 15  1  0  0  0  0
 15 16  1  0  0  0  0
 16 27  1  0  0  0  0
 16 17  1  0  0  0  0
 16 19  1  0  0  0  0
 17 18  1  0  0  0  0
 17 39  1  0  0  0  0
 17 40  1  0  0  0  0
 18 41  1  0  0  0  0
 19 28  1  0  0  0  0
 19 20  1  0  0  0  0
 19 21  1  0  0  0  0
 20 42  1  0  0  0  0
 21 29  1  0  0  0  0
 21 22  1  0  0  0  0
 22 43  1  0  0  0  0
 23 24  2  0  0  0  0
 23 25  1  0  0  0  0
 25 44  1  0  0  0  0
M  END
> <s_m_source_file>
AV-unprocessed.smi

> <i_m_source_file_index>
54

> <i_lp_mmshare_version>
43012

> <i_f3d_flags>
0

> <s_epik_input>
W0NIM11bQ0hdKFtDSDNdKUMoPU8pW05IXWMobjEpW25IXWMoPU8pYyhjMTIpbltjSF1uMltDQEBIXTNPW0NASF0oW0NIMl1bT0hdKVtDQEBIXShbT0hdKVtDQEhdM1tPSF0=

> <s_epik_cmdline>
J2VwaWtfcHl0aG9uJywgJy1waCcsICc3LjAnLCAnLXRuJywgJzgnLCAnLW1hJywgJzIwMCcsICctbWV0YWxfYmluZGluZycsICctaW1hZScsICc8aW5maWxlLm1hZT4nLCAnLW9tYWUnLCAnPG91dGZpbGUubWFlPic=

> <r_lp_tautomer_probability>
0.85571

> <r_epik_Ionization_Penalty>
0.0316551

> <r_epik_Ionization_Penalty_Charging>
0.0316043

> <r_epik_Ionization_Penalty_Neutral>
5.07097e-05

> <r_epik_State_Penalty>
3.15494e-07

> <r_epik_Charging_Adjusted_Penalty>
0.0316047

> <i_epik_Tot_Q>
0

> <i_epik_Tot_abs_Q>
0

> <r_epik_Metal_State_Penalty>
0.421206

> <b_epik_Metal_Only>
0

> <s_epik_Chemistry_Notes>
This compound contains an acetal/aminal-like group ( X-CH(R)-Y where X, Y are N, S, or O) that may be acid/base labile, releasing an aldehyde.

> <s_lp_Force_Field>
OPLS_2005

> <r_lp_Energy>
42.5501

> <b_lp_Chiralities_Consistent>
1

> <s_lp_Variant>
AV-unprocessed.smi:54-8

> <Gold.Version>
5.8.1

> <Gold.Id.Protein>
6NUR|6NUR_protein|mol2

> <Gold.PLP.Fitness>
45.5613

> <Gold.PLP.PLP>
-35.9042

> <Gold.PLP.part.hbond>
-5.0970

> <Gold.PLP.part.metal>
0.0000

> <Gold.PLP.part.buried>
-6.2437

> <Gold.PLP.part.nonpolar>
-28.8310

> <Gold.PLP.part.repulsive>
3.9459

> <Gold.PLP.ligand.clash>
0.0000

> <Gold.PLP.ligand.torsion>
0.5255

> <Gold.PLP.Chemscore.Hbond>
3.5600

> <Gold.PLP.Chemscore.CHOScore>
0.0000

> <Gold.PLP.Chemscore.Metal>
0.0000

> <Gold.Chemscore.Hbonds>
donor molecule, donor type, donor heavy atom, donor atom, acceptor molecule, acceptor atom, score
      L1  H    18    41       P1 10952  0.53
      L1  H    20    42       P1  7921  1.00
      P1  H 10752 10764       L1     5  1.00
      P1  H 10785 10796       L1    18  0.95

> <Gold.PLP.Chemscore.Internal.Correction>
0.0281

> <Gold.Rescore>
     Score         DG    S(hbond)    S(metal)    S(lipo)     H(rot)  DE(clash)    DE(int)     intcor
      6.17      -8.53       2.19        0.00      52.11       4.05       1.69       0.67       ----

> <Gold.Chemscore.Fitness>
6.1693

> <Gold.Chemscore.DG>
-8.5294

> <Gold.Chemscore.ZeroCoef>
-5.4800

> <Gold.Chemscore.Hbond>
2.1914

> <Gold.Chemscore.Metal>
0.0000

> <Gold.Chemscore.Lipo>
52.1058

> <Gold.Chemscore.Internal_Hbond>
0.0000

> <Gold.Chemscore.DEClash>
1.6920

> <Gold.Chemscore.DEInternal>
0.6681

> <Gold.Chemscore.Rot>
4.0493

> <Gold.Chemscore.Internal.Correction>
   9.000000E+99

> <Gold.Chemscore.Hbonds>
donor molecule, donor type, donor heavy atom, donor atom, acceptor molecule, acceptor atom, score
      L1  H    18    41       P1 10952  0.49
      L1  H    20    42       P1  7921  0.93
      P1  H 10752 10764       L1     5  0.47
      P1  H 10785 10796       L1    18  0.05

> <Gold.Chemscore.Hbond.Weighted>
-7.3192

> <Gold.Chemscore.Metal.Weighted>
-0.0000

> <Gold.Chemscore.Lipo.Weighted>
-6.0964

> <Gold.Chemscore.Internal_Hbond.Weighted>
0.0000

> <Gold.Chemscore.DEClash.Weighted>
1.6920

> <Gold.Chemscore.DEInternal.Weighted>
0.6681

> <Gold.Chemscore.Rot.Weighted>
10.3662

> <Gold.Chemscore.Internal.Correction.Weighted>
   9.000000E+99

> <Gold.Protein.RotatedTorsions>
[ 6907 6896 6895 6894 ] final   76.10 input  -60.11 | X-H torsion
[ 7974 7965 7964 7962 ] final -114.19 input  175.53 | X-H torsion
[ 8008 7997 7996 7995 ] final  -90.46 input   59.86 | X-H torsion
[ 10167 10162 10161 10158 ] final  -82.71 input  -65.29 | X-H torsion
[ 10718 10713 10712 10709 ] final -148.87 input   66.30 | X-H torsion
[ 10763 10752 10751 10750 ] final   -6.23 input  -60.55 | X-H torsion
[ 11005 11000 10999 10996 ] final -106.09 input  -57.11 | X-H torsion

> <Gold.Protein.ActiveResidues>
 VAL166  LYS551  ARG553  GLY616  TRP617  ASP618  TYR619  PRO620  LYS621  CYS622 
 ASP623  PHE694  ASN695  SER759  ASP760  ASP761  ALA762  ILE779  LEU786  VAL792 
 PHE793  MET794  SER795  GLU796  ALA797  LYS798  CYS799  TRP800  GLU811  SER814 

> <Gold.Protein.RotatedAtoms>
  152.5057  134.4019  159.9419 H   0  0  0  0  0  0  0  0  0  0  0  0  # atno 6907 bound_to 6896
  151.3984  133.3759  159.2737 H   0  0  0  0  0  0  0  0  0  0  0  0  # atno 6908 bound_to 6896
  150.9380  134.8812  159.7653 H   0  0  0  0  0  0  0  0  0  0  0  0  # atno 6909 bound_to 6896
  145.1231  140.8681  143.3802 H   0  0  0  0  0  0  0  0  0  0  0  0  # atno 7974 bound_to 7965
  154.6989  140.0530  157.0438 H   0  0  0  0  0  0  0  0  0  0  0  0  # atno 8008 bound_to 7997
  155.0713  140.3200  155.4611 H   0  0  0  0  0  0  0  0  0  0  0  0  # atno 8009 bound_to 7997
  156.2753  140.2081  156.5840 H   0  0  0  0  0  0  0  0  0  0  0  0  # atno 8010 bound_to 7997
  140.4294  143.2554  151.8780 H   0  0  0  0  0  0  0  0  0  0  0  0  # atno 10167 bound_to 10162
  156.4258  130.8051  151.2276 H   0  0  0  0  0  0  0  0  0  0  0  0  # atno 10718 bound_to 10713
  153.4095  135.7007  153.6369 H   0  0  0  0  0  0  0  0  0  0  0  0  # atno 10763 bound_to 10752
  153.4869  135.3681  155.2472 H   0  0  0  0  0  0  0  0  0  0  0  0  # atno 10764 bound_to 10752
  154.8716  135.4079  154.3444 H   0  0  0  0  0  0  0  0  0  0  0  0  # atno 10765 bound_to 10752
  141.1022  133.8863  157.1813 H   0  0  0  0  0  0  0  0  0  0  0  0  # atno 11005 bound_to 11000
  145.0718  139.3025  143.5828 LP  0  0  0  0  0  0  0  0  0  0  0  0  # atno 17320 bound_to 7965
  146.3519  140.0196  142.8660 LP  0  0  0  0  0  0  0  0  0  0  0  0  # atno 17321 bound_to 7965
  139.4784  144.5351  151.8610 LP  0  0  0  0  0  0  0  0  0  0  0  0  # atno 17342 bound_to 10162
  140.4444  144.1942  150.5893 LP  0  0  0  0  0  0  0  0  0  0  0  0  # atno 17343 bound_to 10162
  157.7508  131.0214  150.3747 LP  0  0  0  0  0  0  0  0  0  0  0  0  # atno 17370 bound_to 10713
  156.4074  130.3927  149.6916 LP  0  0  0  0  0  0  0  0  0  0  0  0  # atno 17371 bound_to 10713
  139.9877  135.0076  156.9903 LP  0  0  0  0  0  0  0  0  0  0  0  0  # atno 17394 bound_to 11000
  140.4994  134.1113  155.7247 LP  0  0  0  0  0  0  0  0  0  0  0  0  # atno 17395 bound_to 11000

$$$$
