AV-unprocessed.smi:1672|AV-procd|sdf|6706|dock1
  -GOLD-   22720 7443D 1   1.00000     0.00000
 Structure written by MMmdl.
 49 51  0  0  0  0  0  0  0  0  3 V2000
  147.2231  133.9532  162.3839 C   0  0  0  0  0  0  0  0  0  0  0  0
  147.4016  134.8229  161.1313 C   0  0  2  0  0  0  0  0  0  0  0  0
  148.1889  134.0866  160.0344 C   0  0  0  0  0  0  0  0  0  0  0  0
  148.3929  134.9780  158.7977 C   0  0  0  0  0  0  0  0  0  0  0  0
  149.0739  136.2478  159.1589 N   0  3  1  0  0  0  0  0  0  0  0  0
  149.4180  137.0642  157.9661 C   0  0  0  0  0  0  0  0  0  0  0  0
  150.3053  138.2762  158.3129 C   0  0  1  0  0  0  0  0  0  0  0  0
  151.2899  137.8629  159.2392 O   0  0  0  0  0  0  0  0  0  0  0  0
  150.9958  138.8540  157.0611 C   0  0  0  0  0  0  0  0  0  0  0  0
  150.8990  140.3208  156.9734 N   0  0  0  0  0  0  0  0  0  0  0  0
  150.2437  141.1213  156.0809 C   0  0  0  0  0  0  0  0  0  0  0  0
  149.4267  140.6920  154.9063 C   0  0  0  0  0  0  0  0  0  0  0  0
  150.1650  139.9059  153.9979 O   0  0  0  0  0  0  0  0  0  0  0  0
  150.4790  142.4123  156.4493 N   0  3  0  0  0  0  0  0  0  0  0  0
  151.2816  142.4412  157.5898 C   0  0  0  0  0  0  0  0  0  0  0  0
  151.7778  143.5110  158.3282 C   0  0  0  0  0  0  0  0  0  0  0  0
  152.5707  143.1916  159.4500 C   0  0  0  0  0  0  0  0  0  0  0  0
  152.8433  141.8530  159.7996 C   0  0  0  0  0  0  0  0  0  0  0  0
  152.3354  140.7767  159.0422 C   0  0  0  0  0  0  0  0  0  0  0  0
  151.5526  141.1012  157.9344 C   0  0  0  0  0  0  0  0  0  0  0  0
  148.3099  137.0002  160.1893 C   0  0  0  0  0  0  0  0  0  0  0  0
  148.1058  136.1515  161.4555 C   0  0  0  0  0  0  0  0  0  0  0  0
  148.1846  133.6875  162.8246 H   0  0  0  0  0  0  0  0  0  0  0  0
  146.6992  133.0268  162.1466 H   0  0  0  0  0  0  0  0  0  0  0  0
  146.6415  134.4745  163.1450 H   0  0  0  0  0  0  0  0  0  0  0  0
  146.4082  135.0510  160.7415 H   0  0  0  0  0  0  0  0  0  0  0  0
  149.1601  133.7739  160.4211 H   0  0  0  0  0  0  0  0  0  0  0  0
  147.6641  133.1749  159.7459 H   0  0  0  0  0  0  0  0  0  0  0  0
  148.9893  134.4347  158.0637 H   0  0  0  0  0  0  0  0  0  0  0  0
  147.4332  135.1982  158.3270 H   0  0  0  0  0  0  0  0  0  0  0  0
  149.9492  136.4485  157.2382 H   0  0  0  0  0  0  0  0  0  0  0  0
  148.4993  137.3885  157.4749 H   0  0  0  0  0  0  0  0  0  0  0  0
  149.7118  139.0614  158.7792 H   0  0  0  0  0  0  0  0  0  0  0  0
  150.9328  137.1664  159.7698 H   0  0  0  0  0  0  0  0  0  0  0  0
  152.0520  138.5841  157.0527 H   0  0  0  0  0  0  0  0  0  0  0  0
  150.5681  138.4296  156.1521 H   0  0  0  0  0  0  0  0  0  0  0  0
  148.5555  140.1316  155.2445 H   0  0  0  0  0  0  0  0  0  0  0  0
  149.0532  141.5742  154.3856 H   0  0  0  0  0  0  0  0  0  0  0  0
  149.6548  139.7976  153.2094 H   0  0  0  0  0  0  0  0  0  0  0  0
  151.5695  144.5374  158.0634 H   0  0  0  0  0  0  0  0  0  0  0  0
  152.9766  143.9895  160.0551 H   0  0  0  0  0  0  0  0  0  0  0  0
  153.4543  141.6477  160.6668 H   0  0  0  0  0  0  0  0  0  0  0  0
  152.5496  139.7555  159.3201 H   0  0  0  0  0  0  0  0  0  0  0  0
  148.8342  137.9154  160.4610 H   0  0  0  0  0  0  0  0  0  0  0  0
  147.3440  137.3014  159.7807 H   0  0  0  0  0  0  0  0  0  0  0  0
  147.5220  136.7151  162.1841 H   0  0  0  0  0  0  0  0  0  0  0  0
  149.0731  135.9552  161.9208 H   0  0  0  0  0  0  0  0  0  0  0  0
  149.9544  135.9816  159.5775 H   0  0  0  0  0  0  0  0  0  0  0  0
  150.1138  143.2151  155.9526 H   0  0  0  0  0  0  0  0  0  0  0  0
  1  2  1  0  0  0  0
  1 23  1  0  0  0  0
  1 24  1  0  0  0  0
  1 25  1  0  0  0  0
  2 22  1  0  0  0  0
  2  3  1  0  0  0  0
  2 26  1  0  0  0  0
  3  4  1  0  0  0  0
  3 27  1  0  0  0  0
  3 28  1  0  0  0  0
  4  5  1  0  0  0  0
  4 29  1  0  0  0  0
  4 30  1  0  0  0  0
  5  6  1  0  0  0  0
  5 21  1  0  0  0  0
  5 48  1  0  0  0  0
  6  7  1  0  0  0  0
  6 31  1  0  0  0  0
  6 32  1  0  0  0  0
  7  8  1  0  0  0  0
  7  9  1  0  0  0  0
  7 33  1  0  0  0  0
  8 34  1  0  0  0  0
  9 10  1  0  0  0  0
  9 35  1  0  0  0  0
  9 36  1  0  0  0  0
 10 20  1  0  0  0  0
 10 11  1  0  0  0  0
 11 12  1  0  0  0  0
 11 14  2  0  0  0  0
 12 13  1  0  0  0  0
 12 37  1  0  0  0  0
 12 38  1  0  0  0  0
 13 39  1  0  0  0  0
 14 15  1  0  0  0  0
 14 49  1  0  0  0  0
 15 20  2  0  0  0  0
 15 16  1  0  0  0  0
 16 17  2  0  0  0  0
 16 40  1  0  0  0  0
 17 18  1  0  0  0  0
 17 41  1  0  0  0  0
 18 19  2  0  0  0  0
 18 42  1  0  0  0  0
 19 20  1  0  0  0  0
 19 43  1  0  0  0  0
 21 22  1  0  0  0  0
 21 44  1  0  0  0  0
 21 45  1  0  0  0  0
 22 46  1  0  0  0  0
 22 47  1  0  0  0  0
M  CHG  1   5   1
M  CHG  1  14   1
M  END
> <s_m_source_file>
AV-unprocessed.smi

> <i_m_source_file_index>
1672

> <i_lp_mmshare_version>
43012

> <i_f3d_flags>
0

> <s_epik_input>
W0NIM11bQ0hdMVtDSDJdW0NIMl1OKFtDSDJdW0NIMl0xKVtDSDJdW0NASF0oW09IXSlbQ0gyXW4oYyhuMilbQ0gyXVtPSF0pYyhjMjMpW2NIXVtjSF1bY0hdW2NIXTM=

> <s_epik_cmdline>
J2VwaWtfcHl0aG9uJywgJy1waCcsICc3LjAnLCAnLXRuJywgJzgnLCAnLW1hJywgJzIwMCcsICctbWV0YWxfYmluZGluZycsICctaW1hZScsICc8aW5maWxlLm1hZT4nLCAnLW9tYWUnLCAnPG91dGZpbGUubWFlPic=

> <r_epik_Ionization_Penalty>
1.51642

> <r_epik_Ionization_Penalty_Charging>
1.51557

> <r_epik_Ionization_Penalty_Neutral>
0.000856474

> <r_epik_State_Penalty>
1.6048

> <r_epik_Charging_Adjusted_Penalty>
3.12037

> <i_epik_Tot_Q>
2

> <i_epik_Tot_abs_Q>
2

> <r_epik_Metal_State_Penalty>
5.65673

> <b_epik_Metal_Only>
0

> <s_lp_Force_Field>
OPLS_2005

> <r_lp_Energy>
28.534

> <b_lp_Chiralities_Consistent>
1

> <s_lp_Variant>
AV-unprocessed.smi:1672-6

> <Gold.Version>
5.8.1

> <Gold.Id.Protein>
6NUR|6NUR_protein|mol2

> <Gold.PLP.Fitness>
51.5394

> <Gold.PLP.PLP>
-41.2636

> <Gold.PLP.part.hbond>
-3.0000

> <Gold.PLP.part.metal>
0.0000

> <Gold.PLP.part.buried>
-4.7200

> <Gold.PLP.part.nonpolar>
-34.3689

> <Gold.PLP.part.repulsive>
0.2308

> <Gold.PLP.ligand.clash>
0.0000

> <Gold.PLP.ligand.torsion>
0.8658

> <Gold.PLP.Chemscore.Hbond>
3.9913

> <Gold.PLP.Chemscore.CHOScore>
0.0000

> <Gold.PLP.Chemscore.Metal>
0.0000

> <Gold.Chemscore.Hbonds>
donor molecule, donor type, donor heavy atom, donor atom, acceptor molecule, acceptor atom, score
      L1  H    13    39       P1  7957  0.84
      L1  H    14    49       P1  8028  2.00
      P1  H  7989  7998       L1    13  0.98

> <Gold.PLP.Chemscore.Internal.Correction>
0.0336

> <Gold.Rescore>
     Score         DG    S(hbond)    S(metal)    S(lipo)     H(rot)  DE(clash)    DE(int)     intcor
     17.97     -18.87       2.46        0.00     108.85       2.96       0.01       0.89       ----

> <Gold.Chemscore.Fitness>
17.9719

> <Gold.Chemscore.DG>
-18.8736

> <Gold.Chemscore.ZeroCoef>
-5.4800

> <Gold.Chemscore.Hbond>
2.4625

> <Gold.Chemscore.Metal>
0.0000

> <Gold.Chemscore.Lipo>
108.8466

> <Gold.Chemscore.Internal_Hbond>
0.0000

> <Gold.Chemscore.DEClash>
0.0082

> <Gold.Chemscore.DEInternal>
0.8935

> <Gold.Chemscore.Rot>
2.9555

> <Gold.Chemscore.Internal.Correction>
   9.000000E+99

> <Gold.Chemscore.Hbonds>
donor molecule, donor type, donor heavy atom, donor atom, acceptor molecule, acceptor atom, score
      L1  H    13    39       P1  7957  0.78
      L1  H    14    49       P1  8028  0.97
      P1  H  7989  7998       L1    13  0.27

> <Gold.Chemscore.Hbond.Weighted>
-8.2246

> <Gold.Chemscore.Metal.Weighted>
-0.0000

> <Gold.Chemscore.Lipo.Weighted>
-12.7350

> <Gold.Chemscore.Internal_Hbond.Weighted>
0.0000

> <Gold.Chemscore.DEClash.Weighted>
0.0082

> <Gold.Chemscore.DEInternal.Weighted>
0.8935

> <Gold.Chemscore.Rot.Weighted>
7.5660

> <Gold.Chemscore.Internal.Correction.Weighted>
   9.000000E+99

> <Gold.Protein.RotatedTorsions>
[ 6907 6896 6895 6894 ] final   -5.30 input  -60.11 | X-H torsion
[ 7974 7965 7964 7962 ] final  104.64 input  175.53 | X-H torsion
[ 8008 7997 7996 7995 ] final  153.33 input   59.86 | X-H torsion
[ 10167 10162 10161 10158 ] final    0.71 input  -65.29 | X-H torsion
[ 10718 10713 10712 10709 ] final  108.43 input   66.30 | X-H torsion
[ 10763 10752 10751 10750 ] final  -58.73 input  -60.55 | X-H torsion
[ 11005 11000 10999 10996 ] final  165.45 input  -57.11 | X-H torsion

> <Gold.Protein.ActiveResidues>
 VAL166  LYS551  ARG553  GLY616  TRP617  ASP618  TYR619  PRO620  LYS621  CYS622 
 ASP623  PHE694  ASN695  SER759  ASP760  ASP761  ALA762  ILE779  LEU786  VAL792 
 PHE793  MET794  SER795  GLU796  ALA797  LYS798  CYS799  TRP800  GLU811  SER814 

> <Gold.Protein.RotatedAtoms>
  151.4839  135.1054  159.9784 H   0  0  0  0  0  0  0  0  0  0  0  0  # atno 6907 bound_to 6896
  152.4768  133.8154  159.7036 H   0  0  0  0  0  0  0  0  0  0  0  0  # atno 6908 bound_to 6896
  150.8812  133.7308  159.2958 H   0  0  0  0  0  0  0  0  0  0  0  0  # atno 6909 bound_to 6896
  145.3302  139.2489  143.3665 H   0  0  0  0  0  0  0  0  0  0  0  0  # atno 7974 bound_to 7965
  156.2587  140.1996  156.6473 H   0  0  0  0  0  0  0  0  0  0  0  0  # atno 8008 bound_to 7997
  154.6564  140.0566  157.0038 H   0  0  0  0  0  0  0  0  0  0  0  0  # atno 8009 bound_to 7997
  155.1341  140.3236  155.4470 H   0  0  0  0  0  0  0  0  0  0  0  0  # atno 8010 bound_to 7997
  140.6716  143.7032  150.7935 H   0  0  0  0  0  0  0  0  0  0  0  0  # atno 10167 bound_to 10162
  157.6586  131.0893  150.6304 H   0  0  0  0  0  0  0  0  0  0  0  0  # atno 10718 bound_to 10713
  154.2428  135.6340  153.5213 H   0  0  0  0  0  0  0  0  0  0  0  0  # atno 10763 bound_to 10752
  152.9927  135.5546  154.5892 H   0  0  0  0  0  0  0  0  0  0  0  0  # atno 10764 bound_to 10752
  154.5402  135.2894  155.1077 H   0  0  0  0  0  0  0  0  0  0  0  0  # atno 10765 bound_to 10752
  140.2562  134.7938  157.3548 H   0  0  0  0  0  0  0  0  0  0  0  0  # atno 11005 bound_to 11000
  146.3048  140.3878  142.8691 LP  0  0  0  0  0  0  0  0  0  0  0  0  # atno 17320 bound_to 7965
  144.8870  140.7475  143.5950 LP  0  0  0  0  0  0  0  0  0  0  0  0  # atno 17321 bound_to 7965
  140.0718  143.5053  152.2575 LP  0  0  0  0  0  0  0  0  0  0  0  0  # atno 17342 bound_to 10162
  139.5987  144.7575  151.3223 LP  0  0  0  0  0  0  0  0  0  0  0  0  # atno 17343 bound_to 10162
  156.6608  130.4512  149.5688 LP  0  0  0  0  0  0  0  0  0  0  0  0  # atno 17370 bound_to 10713
  156.2068  130.6654  151.1227 LP  0  0  0  0  0  0  0  0  0  0  0  0  # atno 17371 bound_to 10713
  140.1509  134.4851  155.7962 LP  0  0  0  0  0  0  0  0  0  0  0  0  # atno 17394 bound_to 11000
  141.2196  133.6862  156.7376 LP  0  0  0  0  0  0  0  0  0  0  0  0  # atno 17395 bound_to 11000

$$$$
