AV-unprocessed.smi:2251|AV-procd|sdf|9101|dock7
  -GOLD-   2272012303D 1   1.00000     0.00000
 Structure written by MMmdl.
 44 45  0  0  0  0  0  0  0  0  1 V2000
  145.9404  134.1185  151.2273 C   0  0  0  0  0  0  0  0  0  0  0  0
  145.2762  135.4469  151.5720 C   0  0  0  0  0  0  0  0  0  0  0  0
  144.0543  135.5674  151.4880 O   0  0  0  0  0  0  0  0  0  0  0  0
  146.0945  136.4367  151.9617 N   0  0  0  0  0  0  0  0  0  0  0  0
  145.6663  137.7778  152.3527 C   0  0  0  0  0  0  0  0  0  0  0  0
  146.1392  138.1726  153.7571 C   0  0  0  0  0  0  0  0  0  0  0  0
  146.8258  137.4046  154.4327 O   0  0  0  0  0  0  0  0  0  0  0  0
  145.7782  139.3926  154.1767 N   0  0  0  0  0  0  0  0  0  0  0  0
  146.1304  139.9584  155.4753 C   0  0  0  0  0  0  0  0  0  0  0  0
  147.0889  141.1774  155.3510 C   0  0  0  0  0  0  0  0  0  0  0  0
  148.5104  140.6544  155.0442 C   0  0  0  0  0  0  0  0  0  0  0  0
  149.6244  141.1787  155.7434 C   0  0  0  0  0  0  0  0  0  0  0  0
  150.9127  140.6829  155.4635 C   0  0  0  0  0  0  0  0  0  0  0  0
  151.1538  139.7170  154.5545 N   0  0  0  0  0  0  0  0  0  0  0  0
  150.0971  139.2078  153.8894 C   0  0  0  0  0  0  0  0  0  0  0  0
  148.7698  139.6334  154.0952 C   0  0  0  0  0  0  0  0  0  0  0  0
  146.5811  142.1541  154.2437 C   0  0  0  0  0  0  0  0  0  0  0  0
  145.2580  142.8649  154.5819 C   0  0  0  0  0  0  0  0  0  0  0  0
  145.3596  143.6201  155.9118 C   0  0  0  0  0  0  0  0  0  0  0  0
  145.8052  142.6830  157.0399 C   0  0  0  0  0  0  0  0  0  0  0  0
  147.1236  141.9664  156.6924 C   0  0  0  0  0  0  0  0  0  0  0  0
  146.7266  134.2636  150.4859 H   0  0  0  0  0  0  0  0  0  0  0  0
  145.2133  133.4154  150.8196 H   0  0  0  0  0  0  0  0  0  0  0  0
  146.3828  133.6733  152.1189 H   0  0  0  0  0  0  0  0  0  0  0  0
  147.0845  136.2440  152.0081 H   0  0  0  0  0  0  0  0  0  0  0  0
  146.0766  138.4907  151.6375 H   0  0  0  0  0  0  0  0  0  0  0  0
  144.5797  137.8582  152.2865 H   0  0  0  0  0  0  0  0  0  0  0  0
  145.2215  139.9672  153.5604 H   0  0  0  0  0  0  0  0  0  0  0  0
  145.2121  140.2221  155.9986 H   0  0  0  0  0  0  0  0  0  0  0  0
  146.5979  139.1756  156.0743 H   0  0  0  0  0  0  0  0  0  0  0  0
  149.5054  141.9468  156.4925 H   0  0  0  0  0  0  0  0  0  0  0  0
  151.7728  141.0718  155.9882 H   0  0  0  0  0  0  0  0  0  0  0  0
  150.3144  138.4316  153.1706 H   0  0  0  0  0  0  0  0  0  0  0  0
  147.9871  139.1620  153.5220 H   0  0  0  0  0  0  0  0  0  0  0  0
  147.3268  142.9339  154.0830 H   0  0  0  0  0  0  0  0  0  0  0  0
  146.4694  141.6374  153.2899 H   0  0  0  0  0  0  0  0  0  0  0  0
  145.0062  143.5650  153.7848 H   0  0  0  0  0  0  0  0  0  0  0  0
  144.4376  142.1485  154.6201 H   0  0  0  0  0  0  0  0  0  0  0  0
  146.0739  144.4387  155.8135 H   0  0  0  0  0  0  0  0  0  0  0  0
  144.3996  144.0738  156.1591 H   0  0  0  0  0  0  0  0  0  0  0  0
  145.9313  143.2545  157.9600 H   0  0  0  0  0  0  0  0  0  0  0  0
  145.0222  141.9534  157.2455 H   0  0  0  0  0  0  0  0  0  0  0  0
  147.3871  141.3110  157.5223 H   0  0  0  0  0  0  0  0  0  0  0  0
  147.9148  142.7162  156.6424 H   0  0  0  0  0  0  0  0  0  0  0  0
  1  2  1  0  0  0  0
  1 22  1  0  0  0  0
  1 23  1  0  0  0  0
  1 24  1  0  0  0  0
  2  3  2  0  0  0  0
  2  4  1  0  0  0  0
  4  5  1  0  0  0  0
  4 25  1  0  0  0  0
  5  6  1  0  0  0  0
  5 26  1  0  0  0  0
  5 27  1  0  0  0  0
  6  7  2  0  0  0  0
  6  8  1  0  0  0  0
  8  9  1  0  0  0  0
  8 28  1  0  0  0  0
  9 10  1  0  0  0  0
  9 29  1  0  0  0  0
  9 30  1  0  0  0  0
 10 21  1  0  0  0  0
 10 11  1  0  0  0  0
 10 17  1  0  0  0  0
 11 16  1  0  0  0  0
 11 12  2  0  0  0  0
 12 13  1  0  0  0  0
 12 31  1  0  0  0  0
 13 14  2  0  0  0  0
 13 32  1  0  0  0  0
 14 15  1  0  0  0  0
 15 16  2  0  0  0  0
 15 33  1  0  0  0  0
 16 34  1  0  0  0  0
 17 18  1  0  0  0  0
 17 35  1  0  0  0  0
 17 36  1  0  0  0  0
 18 19  1  0  0  0  0
 18 37  1  0  0  0  0
 18 38  1  0  0  0  0
 19 20  1  0  0  0  0
 19 39  1  0  0  0  0
 19 40  1  0  0  0  0
 20 21  1  0  0  0  0
 20 41  1  0  0  0  0
 20 42  1  0  0  0  0
 21 43  1  0  0  0  0
 21 44  1  0  0  0  0
M  END
> <s_m_source_file>
AV-unprocessed.smi

> <i_m_source_file_index>
2251

> <i_lp_mmshare_version>
43012

> <i_f3d_flags>
0

> <s_epik_input>
W0NIM11DKD1PKVtOSF1bQ0gyXUMoPU8pW05IXVtDSDJdQzEoW0NIMl1bQ0gyXVtDSDJdW0NIMl1bQ0gyXTEpYzJbY0hdW2NIXW5bY0hdW2NIXTI=

> <s_epik_cmdline>
J2VwaWtfcHl0aG9uJywgJy1waCcsICc3LjAnLCAnLXRuJywgJzgnLCAnLW1hJywgJzIwMCcsICctbWV0YWxfYmluZGluZycsICctaW1hZScsICc8aW5maWxlLm1hZT4nLCAnLW9tYWUnLCAnPG91dGZpbGUubWFlPic=

> <r_epik_Ionization_Penalty>
0.0619926

> <r_epik_Ionization_Penalty_Charging>
0

> <r_epik_Ionization_Penalty_Neutral>
0.0619926

> <r_epik_State_Penalty>
0.0538453

> <r_epik_Charging_Adjusted_Penalty>
0.0538453

> <i_epik_Tot_Q>
0

> <i_epik_Tot_abs_Q>
0

> <r_epik_Metal_State_Penalty>
0.048714

> <b_epik_Metal_Only>
0

> <s_lp_Force_Field>
OPLS_2005

> <r_lp_Energy>
14.8117

> <b_lp_Chiralities_Consistent>
1

> <s_lp_Variant>
AV-unprocessed.smi:2251-1

> <Gold.Version>
5.8.1

> <Gold.Id.Protein>
6NUR|6NUR_protein|mol2

> <Gold.PLP.Fitness>
39.1445

> <Gold.PLP.PLP>
-33.1033

> <Gold.PLP.part.hbond>
-3.0000

> <Gold.PLP.part.metal>
0.0000

> <Gold.PLP.part.buried>
-3.4264

> <Gold.PLP.part.nonpolar>
-27.4459

> <Gold.PLP.part.repulsive>
0.4202

> <Gold.PLP.ligand.clash>
0.0000

> <Gold.PLP.ligand.torsion>
0.8131

> <Gold.PLP.Chemscore.Hbond>
2.4670

> <Gold.PLP.Chemscore.CHOScore>
0.0735

> <Gold.PLP.Chemscore.Metal>
0.0000

> <Gold.Chemscore.Hbonds>
donor molecule, donor type, donor heavy atom, donor atom, acceptor molecule, acceptor atom, score
      L1  H     4    25       P1  7948  1.00
      L1  H     8    28       P1 10175  1.00
      P1  H  7989  7998       L1    14  0.50
      L1  C    15    33       P1  7948  0.21
      L1  C    15    33       P1  7957  0.17

> <Gold.PLP.Chemscore.Internal.Correction>
0.0459

> <Gold.Rescore>
     Score         DG    S(hbond)    S(metal)    S(lipo)     H(rot)  DE(clash)    DE(int)     intcor
     14.73     -15.48       1.97        0.00      73.30       2.02       0.21       0.55       ----

> <Gold.Chemscore.Fitness>
14.7260

> <Gold.Chemscore.DG>
-15.4837

> <Gold.Chemscore.ZeroCoef>
-5.4800

> <Gold.Chemscore.Hbond>
1.9725

> <Gold.Chemscore.Metal>
0.0000

> <Gold.Chemscore.Lipo>
73.3034

> <Gold.Chemscore.Internal_Hbond>
0.0000

> <Gold.Chemscore.DEClash>
0.2108

> <Gold.Chemscore.DEInternal>
0.5469

> <Gold.Chemscore.Rot>
2.0160

> <Gold.Chemscore.Internal.Correction>
   9.000000E+99

> <Gold.Chemscore.Hbonds>
donor molecule, donor type, donor heavy atom, donor atom, acceptor molecule, acceptor atom, score
      L1  H     4    25       P1  7948  1.00
      L1  H     8    28       P1 10175  0.98
      P1  H  7989  7998       L1    14  0.01

> <Gold.Chemscore.Hbond.Weighted>
-6.5882

> <Gold.Chemscore.Metal.Weighted>
-0.0000

> <Gold.Chemscore.Lipo.Weighted>
-8.5765

> <Gold.Chemscore.Internal_Hbond.Weighted>
0.0000

> <Gold.Chemscore.DEClash.Weighted>
0.2108

> <Gold.Chemscore.DEInternal.Weighted>
0.5469

> <Gold.Chemscore.Rot.Weighted>
5.1610

> <Gold.Chemscore.Internal.Correction.Weighted>
   9.000000E+99

> <Gold.Protein.RotatedTorsions>
[ 6907 6896 6895 6894 ] final   45.65 input  -60.11 | X-H torsion
[ 7974 7965 7964 7962 ] final   72.56 input  175.53 | X-H torsion
[ 8008 7997 7996 7995 ] final  -89.64 input   59.86 | X-H torsion
[ 10167 10162 10161 10158 ] final  -24.51 input  -65.29 | X-H torsion
[ 10718 10713 10712 10709 ] final  -64.40 input   66.30 | X-H torsion
[ 10763 10752 10751 10750 ] final   53.67 input  -60.55 | X-H torsion
[ 11005 11000 10999 10996 ] final   52.06 input  -57.11 | X-H torsion

> <Gold.Protein.ActiveResidues>
 VAL166  LYS551  ARG553  GLY616  TRP617  ASP618  TYR619  PRO620  LYS621  CYS622 
 ASP623  PHE694  ASN695  SER759  ASP760  ASP761  ALA762  ILE779  LEU786  VAL792 
 PHE793  MET794  SER795  GLU796  ALA797  LYS798  CYS799  TRP800  GLU811  SER814 

> <Gold.Protein.RotatedAtoms>
  152.2471  134.8171  160.0451 H   0  0  0  0  0  0  0  0  0  0  0  0  # atno 6907 bound_to 6896
  151.8864  133.3501  159.3792 H   0  0  0  0  0  0  0  0  0  0  0  0  # atno 6908 bound_to 6896
  150.7072  134.4894  159.5552 H   0  0  0  0  0  0  0  0  0  0  0  0  # atno 6909 bound_to 6896
  145.7518  139.2763  143.1427 H   0  0  0  0  0  0  0  0  0  0  0  0  # atno 7974 bound_to 7965
  154.6890  140.0539  157.0344 H   0  0  0  0  0  0  0  0  0  0  0  0  # atno 8008 bound_to 7997
  155.0844  140.3213  155.4573 H   0  0  0  0  0  0  0  0  0  0  0  0  # atno 8009 bound_to 7997
  156.2721  140.2059  156.5971 H   0  0  0  0  0  0  0  0  0  0  0  0  # atno 8010 bound_to 7997
  140.7288  143.4346  151.0749 H   0  0  0  0  0  0  0  0  0  0  0  0  # atno 10167 bound_to 10162
  156.0731  130.4233  150.1415 H   0  0  0  0  0  0  0  0  0  0  0  0  # atno 10718 bound_to 10713
  152.9797  135.5771  154.4778 H   0  0  0  0  0  0  0  0  0  0  0  0  # atno 10763 bound_to 10752
  154.4332  135.2774  155.1900 H   0  0  0  0  0  0  0  0  0  0  0  0  # atno 10764 bound_to 10752
  154.3600  135.6190  153.5739 H   0  0  0  0  0  0  0  0  0  0  0  0  # atno 10765 bound_to 10752
  140.0881  134.5247  155.8879 H   0  0  0  0  0  0  0  0  0  0  0  0  # atno 11005 bound_to 11000
  146.0349  140.8222  142.9857 LP  0  0  0  0  0  0  0  0  0  0  0  0  # atno 17320 bound_to 7965
  144.6848  140.2824  143.7290 LP  0  0  0  0  0  0  0  0  0  0  0  0  # atno 17321 bound_to 7965
  139.8007  143.8088  152.3162 LP  0  0  0  0  0  0  0  0  0  0  0  0  # atno 17342 bound_to 10162
  139.8103  144.7338  150.9706 LP  0  0  0  0  0  0  0  0  0  0  0  0  # atno 17343 bound_to 10162
  156.9462  130.9760  151.3507 LP  0  0  0  0  0  0  0  0  0  0  0  0  # atno 17370 bound_to 10713
  157.5813  130.8378  149.8526 LP  0  0  0  0  0  0  0  0  0  0  0  0  # atno 17371 bound_to 10713
  141.2069  133.6659  156.6271 LP  0  0  0  0  0  0  0  0  0  0  0  0  # atno 17394 bound_to 11000
  140.3392  134.7864  157.4385 LP  0  0  0  0  0  0  0  0  0  0  0  0  # atno 17395 bound_to 11000

$$$$
