AV-unprocessed.smi:1662|AV-procd|sdf|6663|dock10
  -GOLD-   22720 7373D 1   1.00000     0.00000
 Structure written by MMmdl.
 47 48  0  0  0  0  0  0  0  0  1 V2000
  146.7532  136.2836  155.7664 C   0  0  0  0  0  0  0  0  0  0  0  0
  147.3643  137.6168  155.4285 C   0  0  0  0  0  0  0  0  0  0  0  0
  148.6231  137.6210  155.1354 N   0  0  0  0  0  0  0  0  0  0  0  0
  149.2833  138.7912  154.8141 N   0  0  0  0  0  0  0  0  0  0  0  0
  150.7164  138.6128  154.5373 C   0  0  0  0  0  0  0  0  0  0  0  0
  151.6139  139.6355  155.2501 C   0  0  0  0  0  0  0  0  0  0  0  0
  152.4827  140.2568  154.6357 O   0  0  0  0  0  0  0  0  0  0  0  0
  151.3739  139.8093  156.5587 N   0  0  0  0  0  0  0  0  0  0  0  0
  152.0929  140.7299  157.4371 C   0  0  2  0  0  0  0  0  0  0  0  0
  152.6035  139.9735  158.6790 C   0  0  0  0  0  0  0  0  0  0  0  0
  153.3983  140.9012  159.6103 C   0  0  0  0  0  0  0  0  0  0  0  0
  152.5829  142.1437  160.0015 C   0  0  0  0  0  0  0  0  0  0  0  0
  152.0675  142.8954  158.7576 C   0  0  2  0  0  0  0  0  0  0  0  0
  151.3397  144.1956  159.1375 C   0  0  0  0  0  0  0  0  0  0  0  0
  151.2376  141.9665  157.8312 C   0  0  2  0  0  0  0  0  0  0  0  0
  149.8539  141.5907  158.4110 C   0  0  0  0  0  0  0  0  0  0  0  0
  148.6982  140.0226  154.7576 C   0  0  0  0  0  0  0  0  0  0  0  0
  149.3238  141.0400  154.4555 O   0  0  0  0  0  0  0  0  0  0  0  0
  147.2722  140.0104  155.0917 C   0  0  0  0  0  0  0  0  0  0  0  0
  146.6218  141.2803  155.0514 C   0  0  0  0  0  0  0  0  0  0  0  0
  146.0967  142.3121  155.0396 N   0  0  0  0  0  0  0  0  0  0  0  0
  146.6154  138.8692  155.4190 C   0  0  0  0  0  0  0  0  0  0  0  0
  145.1370  138.8025  155.7763 C   0  0  0  0  0  0  0  0  0  0  0  0
  145.9079  136.0668  155.1132 H   0  0  0  0  0  0  0  0  0  0  0  0
  146.3981  136.2717  156.7970 H   0  0  0  0  0  0  0  0  0  0  0  0
  147.4695  135.4681  155.6557 H   0  0  0  0  0  0  0  0  0  0  0  0
  151.0346  137.6141  154.8426 H   0  0  0  0  0  0  0  0  0  0  0  0
  150.9003  138.6609  153.4622 H   0  0  0  0  0  0  0  0  0  0  0  0
  150.6381  139.2619  156.9811 H   0  0  0  0  0  0  0  0  0  0  0  0
  152.9716  141.0844  156.8942 H   0  0  0  0  0  0  0  0  0  0  0  0
  151.7678  139.5345  159.2249 H   0  0  0  0  0  0  0  0  0  0  0  0
  153.2379  139.1407  158.3727 H   0  0  0  0  0  0  0  0  0  0  0  0
  153.7018  140.3582  160.5058 H   0  0  0  0  0  0  0  0  0  0  0  0
  154.3177  141.2128  159.1131 H   0  0  0  0  0  0  0  0  0  0  0  0
  151.7472  141.8511  160.6378 H   0  0  0  0  0  0  0  0  0  0  0  0
  153.2050  142.8066  160.6042 H   0  0  0  0  0  0  0  0  0  0  0  0
  152.9464  143.2005  158.1870 H   0  0  0  0  0  0  0  0  0  0  0  0
  150.4961  144.0092  159.8020 H   0  0  0  0  0  0  0  0  0  0  0  0
  150.9650  144.7105  158.2525 H   0  0  0  0  0  0  0  0  0  0  0  0
  152.0136  144.8799  159.6539 H   0  0  0  0  0  0  0  0  0  0  0  0
  151.0408  142.5278  156.9166 H   0  0  0  0  0  0  0  0  0  0  0  0
  149.9359  141.0485  159.3523 H   0  0  0  0  0  0  0  0  0  0  0  0
  149.2864  140.9659  157.7215 H   0  0  0  0  0  0  0  0  0  0  0  0
  149.2441  142.4752  158.5920 H   0  0  0  0  0  0  0  0  0  0  0  0
  144.6692  139.7864  155.7850 H   0  0  0  0  0  0  0  0  0  0  0  0
  145.0018  138.3688  156.7677 H   0  0  0  0  0  0  0  0  0  0  0  0
  144.5972  138.1884  155.0549 H   0  0  0  0  0  0  0  0  0  0  0  0
  1  2  1  0  0  0  0
  1 24  1  0  0  0  0
  1 25  1  0  0  0  0
  1 26  1  0  0  0  0
  2 22  1  0  0  0  0
  2  3  2  0  0  0  0
  3  4  1  0  0  0  0
  4  5  1  0  0  0  0
  4 17  1  0  0  0  0
  5  6  1  0  0  0  0
  5 27  1  0  0  0  0
  5 28  1  0  0  0  0
  6  7  2  0  0  0  0
  6  8  1  0  0  0  0
  8  9  1  0  0  0  0
  8 29  1  0  0  0  0
  9 15  1  0  0  0  0
  9 10  1  0  0  0  0
  9 30  1  0  0  0  0
 10 11  1  0  0  0  0
 10 31  1  0  0  0  0
 10 32  1  0  0  0  0
 11 12  1  0  0  0  0
 11 33  1  0  0  0  0
 11 34  1  0  0  0  0
 12 13  1  0  0  0  0
 12 35  1  0  0  0  0
 12 36  1  0  0  0  0
 13 14  1  0  0  0  0
 13 15  1  0  0  0  0
 13 37  1  0  0  0  0
 14 38  1  0  0  0  0
 14 39  1  0  0  0  0
 14 40  1  0  0  0  0
 15 16  1  0  0  0  0
 15 41  1  0  0  0  0
 16 42  1  0  0  0  0
 16 43  1  0  0  0  0
 16 44  1  0  0  0  0
 17 18  2  0  0  0  0
 17 19  1  0  0  0  0
 19 20  1  0  0  0  0
 19 22  2  0  0  0  0
 20 21  3  0  0  0  0
 22 23  1  0  0  0  0
 23 45  1  0  0  0  0
 23 46  1  0  0  0  0
 23 47  1  0  0  0  0
M  END
> <s_m_source_file>
AV-unprocessed.smi

> <i_m_source_file_index>
1662

> <i_lp_mmshare_version>
43012

> <i_f3d_flags>
0

> <s_epik_input>
TiNDYyhjMVtDSDNdKWMoPU8pbihuYzFbQ0gzXSlbQ0gyXUMoPU8pW05IXVtDQEBIXTJbQ0gyXVtDSDJdW0NIMl1bQ0BASF0oW0NIM10pW0NASF0yW0NIM10=

> <s_epik_cmdline>
J2VwaWtfcHl0aG9uJywgJy1waCcsICc3LjAnLCAnLXRuJywgJzgnLCAnLW1hJywgJzIwMCcsICctbWV0YWxfYmluZGluZycsICctaW1hZScsICc8aW5maWxlLm1hZT4nLCAnLW9tYWUnLCAnPG91dGZpbGUubWFlPic=

> <r_lp_tautomer_probability>
1

> <r_epik_Ionization_Penalty>
1.90709e-08

> <r_epik_Ionization_Penalty_Charging>
2.37982e-11

> <r_epik_Ionization_Penalty_Neutral>
1.90471e-08

> <r_epik_State_Penalty>
-0

> <r_epik_Charging_Adjusted_Penalty>
2.37982e-11

> <i_epik_Tot_Q>
0

> <i_epik_Tot_abs_Q>
0

> <r_epik_Metal_State_Penalty>
-0

> <b_epik_Metal_Only>
0

> <s_lp_Force_Field>
OPLS_2005

> <r_lp_Energy>
29.1366

> <b_lp_Chiralities_Consistent>
1

> <s_lp_Variant>
AV-unprocessed.smi:1662-7

> <Gold.Version>
5.8.1

> <Gold.Id.Protein>
6NUR|6NUR_protein|mol2

> <Gold.PLP.Fitness>
43.9450

> <Gold.PLP.PLP>
-39.0698

> <Gold.PLP.part.hbond>
-3.7996

> <Gold.PLP.part.metal>
0.0000

> <Gold.PLP.part.buried>
-3.2990

> <Gold.PLP.part.nonpolar>
-31.7194

> <Gold.PLP.part.repulsive>
0.8214

> <Gold.PLP.ligand.clash>
0.0000

> <Gold.PLP.ligand.torsion>
0.3670

> <Gold.PLP.Chemscore.Hbond>
1.8645

> <Gold.PLP.Chemscore.CHOScore>
0.0000

> <Gold.PLP.Chemscore.Metal>
0.0000

> <Gold.Chemscore.Hbonds>
donor molecule, donor type, donor heavy atom, donor atom, acceptor molecule, acceptor atom, score
      P1  H  7989  7998       L1     7  0.43
      P1  H  7997  8009       L1     7  0.26

> <Gold.PLP.Chemscore.Internal.Correction>
0.0156

> <Gold.Rescore>
     Score         DG    S(hbond)    S(metal)    S(lipo)     H(rot)  DE(clash)    DE(int)     intcor
     15.71     -17.59       1.84        0.00      82.62       1.45       0.15       1.73       ----

> <Gold.Chemscore.Fitness>
15.7057

> <Gold.Chemscore.DG>
-17.5865

> <Gold.Chemscore.ZeroCoef>
-5.4800

> <Gold.Chemscore.Hbond>
1.8421

> <Gold.Chemscore.Metal>
0.0000

> <Gold.Chemscore.Lipo>
82.6222

> <Gold.Chemscore.Internal_Hbond>
0.0000

> <Gold.Chemscore.DEClash>
0.1484

> <Gold.Chemscore.DEInternal>
1.7324

> <Gold.Chemscore.Rot>
1.4504

> <Gold.Chemscore.Internal.Correction>
   9.000000E+99

> <Gold.Chemscore.Hbonds>
donor molecule, donor type, donor heavy atom, donor atom, acceptor molecule, acceptor atom, score
      P1  H  7989  7998       L1     7  0.14
      P1  H  7997  8009       L1     7  0.20

> <Gold.Chemscore.Hbond.Weighted>
-6.1526

> <Gold.Chemscore.Metal.Weighted>
-0.0000

> <Gold.Chemscore.Lipo.Weighted>
-9.6668

> <Gold.Chemscore.Internal_Hbond.Weighted>
0.0000

> <Gold.Chemscore.DEClash.Weighted>
0.1484

> <Gold.Chemscore.DEInternal.Weighted>
1.7324

> <Gold.Chemscore.Rot.Weighted>
3.7129

> <Gold.Chemscore.Internal.Correction.Weighted>
   9.000000E+99

> <Gold.Protein.RotatedTorsions>
[ 6907 6896 6895 6894 ] final  161.13 input  -60.11 | X-H torsion
[ 7974 7965 7964 7962 ] final  -40.04 input  175.53 | X-H torsion
[ 8008 7997 7996 7995 ] final -132.91 input   59.86 | X-H torsion
[ 10167 10162 10161 10158 ] final  -74.08 input  -65.29 | X-H torsion
[ 10718 10713 10712 10709 ] final  104.77 input   66.30 | X-H torsion
[ 10763 10752 10751 10750 ] final  -97.36 input  -60.55 | X-H torsion
[ 11005 11000 10999 10996 ] final  101.28 input  -57.11 | X-H torsion

> <Gold.Protein.ActiveResidues>
 VAL166  LYS551  ARG553  GLY616  TRP617  ASP618  TYR619  PRO620  LYS621  CYS622 
 ASP623  PHE694  ASN695  SER759  ASP760  ASP761  ALA762  ILE779  LEU786  VAL792 
 PHE793  MET794  SER795  GLU796  ALA797  LYS798  CYS799  TRP800  GLU811  SER814 

> <Gold.Protein.RotatedAtoms>
  151.9603  133.3693  159.4032 H   0  0  0  0  0  0  0  0  0  0  0  0  # atno 6907 bound_to 6896
  150.6965  134.4248  159.5230 H   0  0  0  0  0  0  0  0  0  0  0  0  # atno 6908 bound_to 6896
  152.1935  134.8651  160.0566 H   0  0  0  0  0  0  0  0  0  0  0  0  # atno 6909 bound_to 6896
  146.0341  140.6693  142.9118 H   0  0  0  0  0  0  0  0  0  0  0  0  # atno 7974 bound_to 7965
  155.3368  140.0470  157.3044 H   0  0  0  0  0  0  0  0  0  0  0  0  # atno 8008 bound_to 7997
  154.5298  140.2253  155.8789 H   0  0  0  0  0  0  0  0  0  0  0  0  # atno 8009 bound_to 7997
  156.1777  140.3081  155.9096 H   0  0  0  0  0  0  0  0  0  0  0  0  # atno 8010 bound_to 7997
  140.5057  143.2353  151.7678 H   0  0  0  0  0  0  0  0  0  0  0  0  # atno 10167 bound_to 10162
  157.6729  131.0812  150.5756 H   0  0  0  0  0  0  0  0  0  0  0  0  # atno 10718 bound_to 10713
  154.7321  135.5049  153.8981 H   0  0  0  0  0  0  0  0  0  0  0  0  # atno 10763 bound_to 10752
  153.0960  135.6672  153.9771 H   0  0  0  0  0  0  0  0  0  0  0  0  # atno 10764 bound_to 10752
  153.9570  135.3052  155.3415 H   0  0  0  0  0  0  0  0  0  0  0  0  # atno 10765 bound_to 10752
  139.8773  134.9176  156.4882 H   0  0  0  0  0  0  0  0  0  0  0  0  # atno 11005 bound_to 11000
  144.7044  140.3790  143.7130 LP  0  0  0  0  0  0  0  0  0  0  0  0  # atno 17320 bound_to 7965
  145.6992  139.1657  143.2603 LP  0  0  0  0  0  0  0  0  0  0  0  0  # atno 17321 bound_to 7965
  139.4883  144.4460  151.9709 LP  0  0  0  0  0  0  0  0  0  0  0  0  # atno 17342 bound_to 10162
  140.3551  144.3042  150.5942 LP  0  0  0  0  0  0  0  0  0  0  0  0  # atno 17343 bound_to 10162
  156.6057  130.4366  149.5879 LP  0  0  0  0  0  0  0  0  0  0  0  0  # atno 17370 bound_to 10713
  156.2471  130.6885  151.1610 LP  0  0  0  0  0  0  0  0  0  0  0  0  # atno 17371 bound_to 10713
  140.8678  133.8011  155.9332 LP  0  0  0  0  0  0  0  0  0  0  0  0  # atno 17394 bound_to 11000
  140.8984  134.2409  157.5055 LP  0  0  0  0  0  0  0  0  0  0  0  0  # atno 17395 bound_to 11000

$$$$
