AV-unprocessed.smi:278|AV-procd|sdf|2092|dock6
  -GOLD-   2262021373D 1   1.00000     0.00000
 Structure written by MMmdl.
 50 54  0  0  0  0  0  0  0  0  1 V2000
  144.7164  135.4024  150.3423 O   0  0  0  0  0  0  0  0  0  0  0  0
  144.7213  134.3494  151.3688 S   0  0  0  0  0  0  0  0  0  0  0  0
  144.2796  134.6370  152.7424 O   0  0  0  0  0  0  0  0  0  0  0  0
  143.7974  132.8960  150.7354 C   0  0  0  0  0  0  0  0  0  0  0  0
  144.8533  131.8690  150.3049 C   0  0  0  0  0  0  0  0  0  0  0  0
  146.1179  132.0553  151.1628 C   0  0  2  0  0  0  0  0  0  0  0  0
  145.9858  131.5181  152.5918 C   0  0  0  0  0  0  0  0  0  0  0  0
  146.8752  132.3468  153.3935 N   0  0  0  0  0  0  0  0  0  0  0  0
  146.8822  132.2588  154.7494 C   0  0  0  0  0  0  0  0  0  0  0  0
  146.2710  131.1987  155.3429 N   0  0  0  0  0  0  0  0  0  0  0  0
  146.2501  131.0835  156.6736 C   0  0  0  0  0  0  0  0  0  0  0  0
  146.7770  131.8972  157.5895 N   0  0  0  0  0  0  0  0  0  0  0  0
  147.4062  132.9550  157.0038 C   0  0  0  0  0  0  0  0  0  0  0  0
  147.5100  133.2107  155.6061 C   0  0  0  0  0  0  0  0  0  0  0  0
  148.2385  134.3777  155.3985 N   0  0  0  0  0  0  0  0  0  0  0  0
  148.5322  134.7944  156.5995 C   0  0  0  0  0  0  0  0  0  0  0  0
  148.0625  134.0036  157.6224 N   0  0  0  0  0  0  0  0  0  0  0  0
  148.2236  134.2360  159.0458 C   0  0  0  0  0  0  0  0  0  0  0  0
  147.5367  135.5321  159.5271 C   0  0  1  0  0  0  0  0  0  0  0  0
  146.1414  135.3231  159.4428 O   0  0  0  0  0  0  0  0  0  0  0  0
  147.9014  135.9499  160.9698 C   0  0  2  0  0  0  0  0  0  0  0  0
  147.4762  134.9534  162.0492 C   0  0  0  0  0  0  0  0  0  0  0  0
  147.4348  135.8017  163.3087 C   0  0  0  0  0  0  0  0  0  0  0  0
  147.2762  137.2306  162.7826 C   0  0  0  0  0  0  0  0  0  0  0  0
  147.1744  137.1024  161.3712 O   0  0  0  0  0  0  0  0  0  0  0  0
  147.0856  133.6341  152.7431 C   0  0  0  0  0  0  0  0  0  0  0  0
  146.3805  133.5457  151.3820 C   0  0  2  0  0  0  0  0  0  0  0  0
  146.9832  131.5906  150.6882 H   0  0  0  0  0  0  0  0  0  0  0  0
  146.9732  133.9812  150.5770 H   0  0  0  0  0  0  0  0  0  0  0  0
  143.1869  132.5059  151.5498 H   0  0  0  0  0  0  0  0  0  0  0  0
  143.1372  133.1943  149.9209 H   0  0  0  0  0  0  0  0  0  0  0  0
  144.4707  130.8493  150.3577 H   0  0  0  0  0  0  0  0  0  0  0  0
  145.1139  132.0542  149.2621 H   0  0  0  0  0  0  0  0  0  0  0  0
  144.9636  131.6242  152.9579 H   0  0  0  0  0  0  0  0  0  0  0  0
  146.2612  130.4645  152.6495 H   0  0  0  0  0  0  0  0  0  0  0  0
  145.7358  130.2160  157.0600 H   0  0  0  0  0  0  0  0  0  0  0  0
  149.0927  135.7017  156.7725 H   0  0  0  0  0  0  0  0  0  0  0  0
  147.8215  133.3735  159.5790 H   0  0  0  0  0  0  0  0  0  0  0  0
  149.2911  134.2703  159.2686 H   0  0  0  0  0  0  0  0  0  0  0  0
  147.7854  136.3469  158.8461 H   0  0  0  0  0  0  0  0  0  0  0  0
  145.9623  134.8047  158.6733 H   0  0  0  0  0  0  0  0  0  0  0  0
  148.9712  136.1526  161.0516 H   0  0  0  0  0  0  0  0  0  0  0  0
  146.4777  134.5699  161.8332 H   0  0  0  0  0  0  0  0  0  0  0  0
  148.1536  134.1035  162.1352 H   0  0  0  0  0  0  0  0  0  0  0  0
  146.6136  135.5083  163.9635 H   0  0  0  0  0  0  0  0  0  0  0  0
  148.3646  135.7078  163.8709 H   0  0  0  0  0  0  0  0  0  0  0  0
  146.3936  137.7279  163.1849 H   0  0  0  0  0  0  0  0  0  0  0  0
  148.1504  137.8338  163.0307 H   0  0  0  0  0  0  0  0  0  0  0  0
  146.7179  134.4683  153.3413 H   0  0  0  0  0  0  0  0  0  0  0  0
  148.1573  133.7762  152.5999 H   0  0  0  0  0  0  0  0  0  0  0  0
  1  2  2  0  0  0  0
  2 27  1  0  0  0  0
  2  3  2  0  0  0  0
  2  4  1  0  0  0  0
  4  5  1  0  0  0  0
  4 30  1  0  0  0  0
  4 31  1  0  0  0  0
  5  6  1  0  0  0  0
  5 32  1  0  0  0  0
  5 33  1  0  0  0  0
  6 28  1  0  0  0  0
  6 27  1  0  0  0  0
  6  7  1  0  0  0  0
  7  8  1  0  0  0  0
  7 34  1  0  0  0  0
  7 35  1  0  0  0  0
  8  9  1  0  0  0  0
  8 26  1  0  0  0  0
  9 14  1  0  0  0  0
  9 10  2  0  0  0  0
 10 11  1  0  0  0  0
 11 12  2  0  0  0  0
 11 36  1  0  0  0  0
 12 13  1  0  0  0  0
 13 17  1  0  0  0  0
 13 14  2  0  0  0  0
 14 15  1  0  0  0  0
 15 16  2  0  0  0  0
 16 17  1  0  0  0  0
 16 37  1  0  0  0  0
 17 18  1  0  0  0  0
 18 19  1  0  0  0  0
 18 38  1  0  0  0  0
 18 39  1  0  0  0  0
 19 20  1  0  0  0  0
 19 21  1  0  0  0  0
 19 40  1  0  0  0  0
 20 41  1  0  0  0  0
 21 25  1  0  0  0  0
 21 22  1  0  0  0  0
 21 42  1  0  0  0  0
 22 23  1  0  0  0  0
 22 43  1  0  0  0  0
 22 44  1  0  0  0  0
 23 24  1  0  0  0  0
 23 45  1  0  0  0  0
 23 46  1  0  0  0  0
 24 25  1  0  0  0  0
 24 47  1  0  0  0  0
 24 48  1  0  0  0  0
 26 27  1  0  0  0  0
 26 49  1  0  0  0  0
 26 50  1  0  0  0  0
 27 29  1  0  0  0  0
M  END
> <s_m_source_file>
AV-unprocessed.smi

> <i_m_source_file_index>
278

> <i_lp_mmshare_version>
43012

> <i_f3d_flags>
0

> <s_epik_input>
W0NIMl0xW0NIMl1TKD1PKSg9TylbQ0BASF0oW0NAQEhdMTIpW0NIMl1OKFtDSDJdMiljKG5bY0hdbjMpYyhjMzQpbltjSF1uNFtDSDJdW0NASF0oW09IXSlbQ0BASF01W0NIMl1bQ0gyXVtDSDJdTzU=

> <s_epik_cmdline>
J2VwaWtfcHl0aG9uJywgJy1waCcsICc3LjAnLCAnLXRuJywgJzgnLCAnLW1hJywgJzIwMCcsICctbWV0YWxfYmluZGluZycsICctaW1hZScsICc8aW5maWxlLm1hZT4nLCAnLW9tYWUnLCAnPG91dGZpbGUubWFlPic=

> <r_lp_tautomer_probability>
1

> <r_epik_Ionization_Penalty>
0.000636766

> <r_epik_Ionization_Penalty_Charging>
0

> <r_epik_Ionization_Penalty_Neutral>
0.000636766

> <r_epik_State_Penalty>
0.000329976

> <r_epik_Charging_Adjusted_Penalty>
0.000329976

> <i_epik_Tot_Q>
0

> <i_epik_Tot_abs_Q>
0

> <r_epik_Metal_State_Penalty>
-0

> <b_epik_Metal_Only>
0

> <s_lp_Force_Field>
OPLS_2005

> <r_lp_Energy>
49.0353

> <b_lp_Chiralities_Consistent>
1

> <s_lp_Variant>
AV-unprocessed.smi:278-6

> <Gold.Version>
5.8.1

> <Gold.Id.Protein>
6NUR|6NUR_protein|mol2

> <Gold.PLP.Fitness>
38.5840

> <Gold.PLP.PLP>
-36.0142

> <Gold.PLP.part.hbond>
-1.5468

> <Gold.PLP.part.metal>
0.0000

> <Gold.PLP.part.buried>
-4.7356

> <Gold.PLP.part.nonpolar>
-30.7274

> <Gold.PLP.part.repulsive>
0.5993

> <Gold.PLP.ligand.clash>
0.0000

> <Gold.PLP.ligand.torsion>
0.2170

> <Gold.PLP.Chemscore.Hbond>
0.9000

> <Gold.PLP.Chemscore.CHOScore>
0.0000

> <Gold.PLP.Chemscore.Metal>
0.0000

> <Gold.Chemscore.Hbonds>
donor molecule, donor type, donor heavy atom, donor atom, acceptor molecule, acceptor atom, score
      P1  H  6934  6947       L1    25  0.85

> <Gold.PLP.Chemscore.Internal.Correction>
0.3038

> <Gold.Rescore>
     Score         DG    S(hbond)    S(metal)    S(lipo)     H(rot)  DE(clash)    DE(int)     intcor
     10.01     -11.00       0.06        0.00      92.06       2.13       0.00       0.99       ----

> <Gold.Chemscore.Fitness>
10.0085

> <Gold.Chemscore.DG>
-11.0018

> <Gold.Chemscore.ZeroCoef>
-5.4800

> <Gold.Chemscore.Hbond>
0.0645

> <Gold.Chemscore.Metal>
0.0000

> <Gold.Chemscore.Lipo>
92.0605

> <Gold.Chemscore.Internal_Hbond>
0.0000

> <Gold.Chemscore.DEClash>
0.0042

> <Gold.Chemscore.DEInternal>
0.9891

> <Gold.Chemscore.Rot>
2.1346

> <Gold.Chemscore.Internal.Correction>
   9.000000E+99

> <Gold.Chemscore.Hbonds>
donor molecule, donor type, donor heavy atom, donor atom, acceptor molecule, acceptor atom, score
      P1  H  6934  6947       L1    25  0.14

> <Gold.Chemscore.Hbond.Weighted>
-0.2154

> <Gold.Chemscore.Metal.Weighted>
-0.0000

> <Gold.Chemscore.Lipo.Weighted>
-10.7711

> <Gold.Chemscore.Internal_Hbond.Weighted>
0.0000

> <Gold.Chemscore.DEClash.Weighted>
0.0042

> <Gold.Chemscore.DEInternal.Weighted>
0.9891

> <Gold.Chemscore.Rot.Weighted>
5.4646

> <Gold.Chemscore.Internal.Correction.Weighted>
   9.000000E+99

> <Gold.Protein.RotatedTorsions>
[ 6907 6896 6895 6894 ] final  -33.92 input  -60.11 | X-H torsion
[ 7974 7965 7964 7962 ] final  163.55 input  175.53 | X-H torsion
[ 8008 7997 7996 7995 ] final   77.43 input   59.86 | X-H torsion
[ 10167 10162 10161 10158 ] final  -55.22 input  -65.29 | X-H torsion
[ 10718 10713 10712 10709 ] final -177.92 input   66.30 | X-H torsion
[ 10763 10752 10751 10750 ] final   93.77 input  -60.55 | X-H torsion
[ 11005 11000 10999 10996 ] final  -38.50 input  -57.11 | X-H torsion

> <Gold.Protein.ActiveResidues>
 VAL166  LYS551  ARG553  GLY616  TRP617  ASP618  TYR619  PRO620  LYS621  CYS622 
 ASP623  PHE694  ASN695  SER759  ASP760  ASP761  ALA762  ILE779  LEU786  VAL792 
 PHE793  MET794  SER795  GLU796  ALA797  LYS798  CYS799  TRP800  GLU811  SER814 

> <Gold.Protein.RotatedAtoms>
  151.0593  134.9725  159.8251 H   0  0  0  0  0  0  0  0  0  0  0  0  # atno 6907 bound_to 6896
  152.5393  134.2438  159.8882 H   0  0  0  0  0  0  0  0  0  0  0  0  # atno 6908 bound_to 6896
  151.2457  133.4333  159.2643 H   0  0  0  0  0  0  0  0  0  0  0  0  # atno 6909 bound_to 6896
  144.7585  139.8199  143.6341 H   0  0  0  0  0  0  0  0  0  0  0  0  # atno 7974 bound_to 7965
  155.8414  140.3462  155.5634 H   0  0  0  0  0  0  0  0  0  0  0  0  # atno 8008 bound_to 7997
  155.8136  140.0902  157.1909 H   0  0  0  0  0  0  0  0  0  0  0  0  # atno 8009 bound_to 7997
  154.4005  140.1443  156.3404 H   0  0  0  0  0  0  0  0  0  0  0  0  # atno 8010 bound_to 7997
  140.6386  143.2495  151.5049 H   0  0  0  0  0  0  0  0  0  0  0  0  # atno 10167 bound_to 10162
  156.8367  130.9672  151.3103 H   0  0  0  0  0  0  0  0  0  0  0  0  # atno 10718 bound_to 10713
  153.2341  135.4313  155.0627 H   0  0  0  0  0  0  0  0  0  0  0  0  # atno 10763 bound_to 10752
  154.8310  135.3386  154.6744 H   0  0  0  0  0  0  0  0  0  0  0  0  # atno 10764 bound_to 10752
  153.7170  135.7019  153.5079 H   0  0  0  0  0  0  0  0  0  0  0  0  # atno 10765 bound_to 10752
  141.0032  133.6945  156.2062 H   0  0  0  0  0  0  0  0  0  0  0  0  # atno 11005 bound_to 11000
  146.1621  139.4740  142.9981 LP  0  0  0  0  0  0  0  0  0  0  0  0  # atno 17320 bound_to 7965
  145.6699  141.0219  143.1663 LP  0  0  0  0  0  0  0  0  0  0  0  0  # atno 17321 bound_to 7965
  139.5596  144.2189  152.1669 LP  0  0  0  0  0  0  0  0  0  0  0  0  # atno 17342 bound_to 10162
  140.1453  144.5164  150.6719 LP  0  0  0  0  0  0  0  0  0  0  0  0  # atno 17343 bound_to 10162
  157.6378  130.8780  149.9391 LP  0  0  0  0  0  0  0  0  0  0  0  0  # atno 17370 bound_to 10713
  156.0903  130.3664  150.0407 LP  0  0  0  0  0  0  0  0  0  0  0  0  # atno 17371 bound_to 10713
  140.6855  134.4722  157.5589 LP  0  0  0  0  0  0  0  0  0  0  0  0  # atno 17394 bound_to 11000
  139.9050  134.8470  156.1744 LP  0  0  0  0  0  0  0  0  0  0  0  0  # atno 17395 bound_to 11000

$$$$
