AV-unprocessed.smi:86|AV-procd|sdf|812|dock7
  -GOLD-   2262017213D 1   1.00000     0.00000
 Structure written by MMmdl.
 51 55  0  0  0  0  0  0  0  0  1 V2000
  153.2945  131.9661  158.9731 O   0  0  0  0  0  0  0  0  0  0  0  0
  152.3229  130.9782  158.6961 C   0  0  0  0  0  0  0  0  0  0  0  0
  152.6416  130.2281  157.3910 C   0  0  0  0  0  0  0  0  0  0  0  0
  152.7467  131.2170  156.2123 C   0  0  0  0  0  0  0  0  0  0  0  0
  151.4766  131.4811  155.5526 N   0  0  0  0  0  0  0  0  0  0  0  0
  150.7953  132.6763  155.5226 C   0  0  0  0  0  0  0  0  0  0  0  0
  149.6690  132.6572  154.8646 N   0  0  0  0  0  0  0  0  0  0  0  0
  149.5695  131.3552  154.3860 C   0  0  0  0  0  0  0  0  0  0  0  0
  148.6091  130.6471  153.6044 C   0  0  0  0  0  0  0  0  0  0  0  0
  147.4660  131.1945  153.1183 N   0  0  0  0  0  0  0  0  0  0  0  0
  147.3748  132.5986  152.7230 C   0  0  0  0  0  0  0  0  0  0  0  0
  146.3449  132.6007  151.5915 C   0  0  2  0  0  0  0  0  0  0  0  0
  145.5296  133.8729  151.3319 C   0  0  0  0  0  0  0  0  0  0  0  0
  144.5125  133.5961  150.2030 C   0  0  0  0  0  0  0  0  0  0  0  0
  143.6369  132.3507  150.4885 C   0  0  1  0  0  0  0  0  0  0  0  0
  142.8228  132.0799  149.3671 O   0  0  0  0  0  0  0  0  0  0  0  0
  144.4794  131.0996  150.8278 C   0  0  0  0  0  0  0  0  0  0  0  0
  145.4327  131.4445  151.9780 C   0  0  1  0  0  0  0  0  0  0  0  0
  146.4450  130.3989  152.4393 C   0  0  0  0  0  0  0  0  0  0  0  0
  148.8578  129.3347  153.3529 N   0  0  0  0  0  0  0  0  0  0  0  0
  149.9696  128.7542  153.8121 C   0  0  0  0  0  0  0  0  0  0  0  0
  150.9494  129.2903  154.5403 N   0  0  0  0  0  0  0  0  0  0  0  0
  150.7029  130.6036  154.8115 C   0  0  0  0  0  0  0  0  0  0  0  0
  153.7796  129.2041  157.5129 C   0  0  0  0  0  0  0  0  0  0  0  0
  152.8543  128.0996  157.5911 O   0  0  0  0  0  0  0  0  0  0  0  0
  151.7952  128.9718  157.1422 C   0  0  0  0  0  0  0  0  0  0  0  0
  154.1190  131.6873  158.6050 H   0  0  0  0  0  0  0  0  0  0  0  0
  152.2519  130.2990  159.5457 H   0  0  0  0  0  0  0  0  0  0  0  0
  151.3547  131.4752  158.6265 H   0  0  0  0  0  0  0  0  0  0  0  0
  153.1439  132.1738  156.5534 H   0  0  0  0  0  0  0  0  0  0  0  0
  153.4578  130.8582  155.4673 H   0  0  0  0  0  0  0  0  0  0  0  0
  151.1579  133.5697  156.0091 H   0  0  0  0  0  0  0  0  0  0  0  0
  147.0318  133.1888  153.5734 H   0  0  0  0  0  0  0  0  0  0  0  0
  148.3288  133.0000  152.3800 H   0  0  0  0  0  0  0  0  0  0  0  0
  146.8704  132.3369  150.6711 H   0  0  0  0  0  0  0  0  0  0  0  0
  145.0070  134.1772  152.2397 H   0  0  0  0  0  0  0  0  0  0  0  0
  146.1881  134.6963  151.0540 H   0  0  0  0  0  0  0  0  0  0  0  0
  143.8797  134.4719  150.0556 H   0  0  0  0  0  0  0  0  0  0  0  0
  145.0555  133.4505  149.2677 H   0  0  0  0  0  0  0  0  0  0  0  0
  142.9777  132.5705  151.3293 H   0  0  0  0  0  0  0  0  0  0  0  0
  142.1318  132.7237  149.3358 H   0  0  0  0  0  0  0  0  0  0  0  0
  143.8317  130.2687  151.1100 H   0  0  0  0  0  0  0  0  0  0  0  0
  145.0488  130.7764  149.9549 H   0  0  0  0  0  0  0  0  0  0  0  0
  144.8375  131.7373  152.8457 H   0  0  0  0  0  0  0  0  0  0  0  0
  146.8848  129.8765  151.5885 H   0  0  0  0  0  0  0  0  0  0  0  0
  145.9939  129.6642  153.1071 H   0  0  0  0  0  0  0  0  0  0  0  0
  150.0907  127.7110  153.5606 H   0  0  0  0  0  0  0  0  0  0  0  0
  154.4130  129.1308  156.6277 H   0  0  0  0  0  0  0  0  0  0  0  0
  154.3828  129.3134  158.4149 H   0  0  0  0  0  0  0  0  0  0  0  0
  150.9025  128.9036  157.7654 H   0  0  0  0  0  0  0  0  0  0  0  0
  151.5499  128.8027  156.0923 H   0  0  0  0  0  0  0  0  0  0  0  0
  1  2  1  0  0  0  0
  1 27  1  0  0  0  0
  2  3  1  0  0  0  0
  2 28  1  0  0  0  0
  2 29  1  0  0  0  0
  3 26  1  0  0  0  0
  3  4  1  0  0  0  0
  3 24  1  0  0  0  0
  4  5  1  0  0  0  0
  4 30  1  0  0  0  0
  4 31  1  0  0  0  0
  5 23  1  0  0  0  0
  5  6  1  0  0  0  0
  6  7  2  0  0  0  0
  6 32  1  0  0  0  0
  7  8  1  0  0  0  0
  8 23  2  0  0  0  0
  8  9  1  0  0  0  0
  9 10  1  0  0  0  0
  9 20  2  0  0  0  0
 10 19  1  0  0  0  0
 10 11  1  0  0  0  0
 11 12  1  0  0  0  0
 11 33  1  0  0  0  0
 11 34  1  0  0  0  0
 12 18  1  0  0  0  0
 12 13  1  0  0  0  0
 12 35  1  0  0  0  0
 13 14  1  0  0  0  0
 13 36  1  0  0  0  0
 13 37  1  0  0  0  0
 14 15  1  0  0  0  0
 14 38  1  0  0  0  0
 14 39  1  0  0  0  0
 15 16  1  0  0  0  0
 15 17  1  0  0  0  0
 15 40  1  0  0  0  0
 16 41  1  0  0  0  0
 17 18  1  0  0  0  0
 17 42  1  0  0  0  0
 17 43  1  0  0  0  0
 18 19  1  0  0  0  0
 18 44  1  0  0  0  0
 19 45  1  0  0  0  0
 19 46  1  0  0  0  0
 20 21  1  0  0  0  0
 21 22  2  0  0  0  0
 21 47  1  0  0  0  0
 22 23  1  0  0  0  0
 24 25  1  0  0  0  0
 24 48  1  0  0  0  0
 24 49  1  0  0  0  0
 25 26  1  0  0  0  0
 26 50  1  0  0  0  0
 26 51  1  0  0  0  0
M  END
> <s_m_source_file>
AV-unprocessed.smi

> <i_m_source_file_index>
86

> <i_lp_mmshare_version>
43012

> <i_f3d_flags>
0

> <s_epik_input>
W0NIMl0xT1tDSDJdQzEoW0NIMl1bT0hdKVtDSDJdbihbY0hdbjIpYyhjMjMpbltjSF1uYzNOKFtDSDJdNClbQ0gyXVtDQEBIXShbQ0BIXTQ1KVtDSDJdW0NASF0oW09IXSlbQ0gyXVtDSDJdNQ==

> <s_epik_cmdline>
J2VwaWtfcHl0aG9uJywgJy1waCcsICc3LjAnLCAnLXRuJywgJzgnLCAnLW1hJywgJzIwMCcsICctbWV0YWxfYmluZGluZycsICctaW1hZScsICc8aW5maWxlLm1hZT4nLCAnLW9tYWUnLCAnPG91dGZpbGUubWFlPic=

> <r_lp_tautomer_probability>
1

> <r_epik_Ionization_Penalty>
0.00425795

> <r_epik_Ionization_Penalty_Charging>
0

> <r_epik_Ionization_Penalty_Neutral>
0.00425795

> <r_epik_State_Penalty>
0.00299946

> <r_epik_Charging_Adjusted_Penalty>
0.00299946

> <i_epik_Tot_Q>
0

> <i_epik_Tot_abs_Q>
0

> <r_epik_Metal_State_Penalty>
-0

> <b_epik_Metal_Only>
0

> <s_lp_Force_Field>
OPLS_2005

> <r_lp_Energy>
53.7305

> <b_lp_Chiralities_Consistent>
1

> <s_lp_Variant>
AV-unprocessed.smi:86-1

> <Gold.Version>
5.8.1

> <Gold.Id.Protein>
6NUR|6NUR_protein|mol2

> <Gold.PLP.Fitness>
47.8193

> <Gold.PLP.PLP>
-39.4899

> <Gold.PLP.part.hbond>
-3.8334

> <Gold.PLP.part.metal>
0.0000

> <Gold.PLP.part.buried>
-4.7802

> <Gold.PLP.part.nonpolar>
-30.1594

> <Gold.PLP.part.repulsive>
0.2416

> <Gold.PLP.ligand.clash>
0.0000

> <Gold.PLP.ligand.torsion>
0.8578

> <Gold.PLP.Chemscore.Hbond>
2.8450

> <Gold.PLP.Chemscore.CHOScore>
0.3370

> <Gold.PLP.Chemscore.Metal>
0.0000

> <Gold.Chemscore.Hbonds>
donor molecule, donor type, donor heavy atom, donor atom, acceptor molecule, acceptor atom, score
      L1  H    16    41       P1 10186  0.99
      P1  H  6896  6909       L1     1  0.85
      P1  H 10785 10796       L1    16  0.91
      L1  C    21    47       P1 10737  0.29

> <Gold.PLP.Chemscore.Internal.Correction>
0.4990

> <Gold.Rescore>
     Score         DG    S(hbond)    S(metal)    S(lipo)     H(rot)  DE(clash)    DE(int)     intcor
     13.65     -16.12       2.56        0.00      78.38       2.76       0.22       2.25       ----

> <Gold.Chemscore.Fitness>
13.6502

> <Gold.Chemscore.DG>
-16.1208

> <Gold.Chemscore.ZeroCoef>
-5.4800

> <Gold.Chemscore.Hbond>
2.5580

> <Gold.Chemscore.Metal>
0.0000

> <Gold.Chemscore.Lipo>
78.3809

> <Gold.Chemscore.Internal_Hbond>
0.0000

> <Gold.Chemscore.DEClash>
0.2188

> <Gold.Chemscore.DEInternal>
2.2518

> <Gold.Chemscore.Rot>
2.7630

> <Gold.Chemscore.Internal.Correction>
   9.000000E+99

> <Gold.Chemscore.Hbonds>
donor molecule, donor type, donor heavy atom, donor atom, acceptor molecule, acceptor atom, score
      L1  H    16    41       P1 10186  0.92
      P1  H  6896  6909       L1     1  0.15
      P1  H 10785 10796       L1    16  0.61

> <Gold.Chemscore.Hbond.Weighted>
-8.5436

> <Gold.Chemscore.Metal.Weighted>
-0.0000

> <Gold.Chemscore.Lipo.Weighted>
-9.1706

> <Gold.Chemscore.Internal_Hbond.Weighted>
0.0000

> <Gold.Chemscore.DEClash.Weighted>
0.2188

> <Gold.Chemscore.DEInternal.Weighted>
2.2518

> <Gold.Chemscore.Rot.Weighted>
7.0734

> <Gold.Chemscore.Internal.Correction.Weighted>
   9.000000E+99

> <Gold.Protein.RotatedTorsions>
[ 6907 6896 6895 6894 ] final  -84.31 input  -60.11 | X-H torsion
[ 7974 7965 7964 7962 ] final  -69.51 input  175.53 | X-H torsion
[ 8008 7997 7996 7995 ] final  149.63 input   59.86 | X-H torsion
[ 10167 10162 10161 10158 ] final  -18.08 input  -65.29 | X-H torsion
[ 10718 10713 10712 10709 ] final   48.65 input   66.30 | X-H torsion
[ 10763 10752 10751 10750 ] final   46.30 input  -60.55 | X-H torsion
[ 11005 11000 10999 10996 ] final  -52.62 input  -57.11 | X-H torsion

> <Gold.Protein.ActiveResidues>
 VAL166  LYS551  ARG553  GLY616  TRP617  ASP618  TYR619  PRO620  LYS621  CYS622 
 ASP623  PHE694  ASN695  SER759  ASP760  ASP761  ALA762  ILE779  LEU786  VAL792 
 PHE793  MET794  SER795  GLU796  ALA797  LYS798  CYS799  TRP800  GLU811  SER814 

> <Gold.Protein.RotatedAtoms>
  150.6877  134.3378  159.4854 H   0  0  0  0  0  0  0  0  0  0  0  0  # atno 6907 bound_to 6896
  152.1235  134.9185  160.0571 H   0  0  0  0  0  0  0  0  0  0  0  0  # atno 6908 bound_to 6896
  152.0382  133.3931  159.4362 H   0  0  0  0  0  0  0  0  0  0  0  0  # atno 6909 bound_to 6896
  145.7028  140.9110  143.0722 H   0  0  0  0  0  0  0  0  0  0  0  0  # atno 7974 bound_to 7965
  156.2747  140.2096  156.5888 H   0  0  0  0  0  0  0  0  0  0  0  0  # atno 8008 bound_to 7997
  154.6999  140.0522  157.0471 H   0  0  0  0  0  0  0  0  0  0  0  0  # atno 8009 bound_to 7997
  155.0749  140.3180  155.4622 H   0  0  0  0  0  0  0  0  0  0  0  0  # atno 8010 bound_to 7997
  140.7255  143.4951  150.9941 H   0  0  0  0  0  0  0  0  0  0  0  0  # atno 10167 bound_to 10162
  157.4708  130.8254  149.7986 H   0  0  0  0  0  0  0  0  0  0  0  0  # atno 10718 bound_to 10713
  152.9812  135.6012  154.3577 H   0  0  0  0  0  0  0  0  0  0  0  0  # atno 10763 bound_to 10752
  154.3261  135.2769  155.2497 H   0  0  0  0  0  0  0  0  0  0  0  0  # atno 10764 bound_to 10752
  154.4642  135.5958  153.6332 H   0  0  0  0  0  0  0  0  0  0  0  0  # atno 10765 bound_to 10752
  141.0933  133.6629  156.4051 H   0  0  0  0  0  0  0  0  0  0  0  0  # atno 11005 bound_to 11000
  144.6964  139.8970  143.7456 LP  0  0  0  0  0  0  0  0  0  0  0  0  # atno 17320 bound_to 7965
  146.0783  139.3770  143.0480 LP  0  0  0  0  0  0  0  0  0  0  0  0  # atno 17321 bound_to 7965
  139.8658  143.7256  152.3170 LP  0  0  0  0  0  0  0  0  0  0  0  0  # atno 17342 bound_to 10162
  139.7487  144.7540  151.0540 LP  0  0  0  0  0  0  0  0  0  0  0  0  # atno 17343 bound_to 10162
  156.0073  130.3850  150.2388 LP  0  0  0  0  0  0  0  0  0  0  0  0  # atno 17370 bound_to 10713
  157.0570  131.0079  151.3235 LP  0  0  0  0  0  0  0  0  0  0  0  0  # atno 17371 bound_to 10713
  140.5199  134.6314  157.5314 LP  0  0  0  0  0  0  0  0  0  0  0  0  # atno 17394 bound_to 11000
  139.9764  134.7208  155.9941 LP  0  0  0  0  0  0  0  0  0  0  0  0  # atno 17395 bound_to 11000

$$$$
