AV-unprocessed.smi:1533|AV-procd|sdf|6162|dock6
  -GOLD-   22720 6313D 1   1.00000     0.00000
 Structure written by MMmdl.
 37 39  0  0  0  0  0  0  0  0  1 V2000
  146.2945  142.1482  154.0499 C   0  0  0  0  0  0  0  0  0  0  0  0
  147.4014  141.3436  154.6398 C   0  0  0  0  0  0  0  0  0  0  0  0
  147.3077  140.8266  155.8586 N   0  0  0  0  0  0  0  0  0  0  0  0
  148.5455  140.1915  156.0364 O   0  0  0  0  0  0  0  0  0  0  0  0
  149.2330  140.3944  154.8872 C   0  0  0  0  0  0  0  0  0  0  0  0
  150.6482  139.9210  154.7992 C   0  0  0  0  0  0  0  0  0  0  0  0
  151.2011  139.3537  156.1221 C   0  0  0  0  0  0  0  0  0  0  0  0
  151.1502  140.3265  157.2119 N   0  0  0  0  0  0  0  0  0  0  0  0
  152.0975  140.4990  158.1479 C   0  0  0  0  0  0  0  0  0  0  0  0
  153.1606  139.8776  158.1482 O   0  0  0  0  0  0  0  0  0  0  0  0
  151.7731  141.5111  159.2605 C   0  0  2  0  0  0  0  0  0  0  0  0
  151.3255  142.8994  158.7365 C   0  0  0  0  0  0  0  0  0  0  0  0
  152.3331  143.8647  159.3927 C   0  0  1  0  0  0  0  0  0  0  0  0
  152.0602  143.9353  160.9071 C   0  0  0  0  0  0  0  0  0  0  0  0
  152.5553  142.5636  161.4048 C   0  0  0  0  0  0  0  0  0  0  0  0
  153.0190  141.8810  160.1041 C   0  0  2  0  0  0  0  0  0  0  0  0
  153.6259  143.0609  159.3470 C   0  0  0  0  0  0  0  0  0  0  0  0
  148.5688  141.1089  153.9813 N   0  0  0  0  0  0  0  0  0  0  0  0
  145.3682  142.0042  154.6071 H   0  0  0  0  0  0  0  0  0  0  0  0
  146.1224  141.8535  153.0145 H   0  0  0  0  0  0  0  0  0  0  0  0
  146.5501  143.2078  154.0717 H   0  0  0  0  0  0  0  0  0  0  0  0
  150.7125  139.1633  154.0178 H   0  0  0  0  0  0  0  0  0  0  0  0
  151.2691  140.7547  154.4695 H   0  0  0  0  0  0  0  0  0  0  0  0
  150.6582  138.4467  156.3935 H   0  0  0  0  0  0  0  0  0  0  0  0
  152.2397  139.0535  155.9836 H   0  0  0  0  0  0  0  0  0  0  0  0
  150.3089  140.8795  157.2875 H   0  0  0  0  0  0  0  0  0  0  0  0
  150.9978  141.0861  159.9004 H   0  0  0  0  0  0  0  0  0  0  0  0
  151.3809  142.9756  157.6495 H   0  0  0  0  0  0  0  0  0  0  0  0
  150.2985  143.1304  159.0219 H   0  0  0  0  0  0  0  0  0  0  0  0
  152.3800  144.8418  158.9111 H   0  0  0  0  0  0  0  0  0  0  0  0
  152.6338  144.7398  161.3691 H   0  0  0  0  0  0  0  0  0  0  0  0
  151.0061  144.1043  161.1304 H   0  0  0  0  0  0  0  0  0  0  0  0
  153.3900  142.6858  162.0961 H   0  0  0  0  0  0  0  0  0  0  0  0
  151.7769  141.9994  161.9195 H   0  0  0  0  0  0  0  0  0  0  0  0
  153.7052  141.0510  160.2751 H   0  0  0  0  0  0  0  0  0  0  0  0
  153.9544  142.8229  158.3350 H   0  0  0  0  0  0  0  0  0  0  0  0
  154.4505  143.5375  159.8803 H   0  0  0  0  0  0  0  0  0  0  0  0
  1  2  1  0  0  0  0
  1 19  1  0  0  0  0
  1 20  1  0  0  0  0
  1 21  1  0  0  0  0
  2 18  1  0  0  0  0
  2  3  2  0  0  0  0
  3  4  1  0  0  0  0
  4  5  1  0  0  0  0
  5  6  1  0  0  0  0
  5 18  2  0  0  0  0
  6  7  1  0  0  0  0
  6 22  1  0  0  0  0
  6 23  1  0  0  0  0
  7  8  1  0  0  0  0
  7 24  1  0  0  0  0
  7 25  1  0  0  0  0
  8  9  1  0  0  0  0
  8 26  1  0  0  0  0
  9 10  2  0  0  0  0
  9 11  1  0  0  0  0
 11 16  1  0  0  0  0
 11 12  1  0  0  0  0
 11 27  1  0  0  0  0
 12 13  1  0  0  0  0
 12 28  1  0  0  0  0
 12 29  1  0  0  0  0
 13 17  1  0  0  0  0
 13 14  1  0  0  0  0
 13 30  1  0  0  0  0
 14 15  1  0  0  0  0
 14 31  1  0  0  0  0
 14 32  1  0  0  0  0
 15 16  1  0  0  0  0
 15 33  1  0  0  0  0
 15 34  1  0  0  0  0
 16 17  1  0  0  0  0
 16 35  1  0  0  0  0
 17 36  1  0  0  0  0
 17 37  1  0  0  0  0
M  END
> <s_m_source_file>
AV-unprocessed.smi

> <i_m_source_file_index>
1533

> <i_lp_mmshare_version>
43012

> <i_f3d_flags>
0

> <s_epik_input>
W0NIM11jMW5vYyhuMSlbQ0gyXVtDSDJdW05IXUMoPU8pW0NASF0oW0NIMl1bQ0BASF0yMylbQ0BASF0oW0NIMl0zKVtDSDJdW0NIMl0y

> <s_epik_cmdline>
J2VwaWtfcHl0aG9uJywgJy1waCcsICc3LjAnLCAnLXRuJywgJzgnLCAnLW1hJywgJzIwMCcsICctbWV0YWxfYmluZGluZycsICctaW1hZScsICc8aW5maWxlLm1hZT4nLCAnLW9tYWUnLCAnPG91dGZpbGUubWFlPic=

> <r_lp_tautomer_probability>
1

> <r_epik_Ionization_Penalty>
1.90116e-08

> <r_epik_Ionization_Penalty_Charging>
0

> <r_epik_Ionization_Penalty_Neutral>
1.90116e-08

> <r_epik_State_Penalty>
-0

> <r_epik_Charging_Adjusted_Penalty>
0

> <i_epik_Tot_Q>
0

> <i_epik_Tot_abs_Q>
0

> <r_epik_Metal_State_Penalty>
-0

> <b_epik_Metal_Only>
0

> <s_lp_Force_Field>
OPLS_2005

> <r_lp_Energy>
43.4718

> <b_lp_Chiralities_Consistent>
1

> <s_lp_Variant>
AV-unprocessed.smi:1533-1

> <Gold.Version>
5.8.1

> <Gold.Id.Protein>
6NUR|6NUR_protein|mol2

> <Gold.PLP.Fitness>
43.3495

> <Gold.PLP.PLP>
-38.9126

> <Gold.PLP.part.hbond>
-2.0368

> <Gold.PLP.part.metal>
0.0000

> <Gold.PLP.part.buried>
-1.8276

> <Gold.PLP.part.nonpolar>
-34.3263

> <Gold.PLP.part.repulsive>
0.6500

> <Gold.PLP.ligand.clash>
0.0000

> <Gold.PLP.ligand.torsion>
0.4379

> <Gold.PLP.Chemscore.Hbond>
1.7520

> <Gold.PLP.Chemscore.CHOScore>
0.0000

> <Gold.PLP.Chemscore.Metal>
0.0000

> <Gold.Chemscore.Hbonds>
donor molecule, donor type, donor heavy atom, donor atom, acceptor molecule, acceptor atom, score
      P1  H  7997  8008       L1    10  1.00

> <Gold.PLP.Chemscore.Internal.Correction>
0.0567

> <Gold.Rescore>
     Score         DG    S(hbond)    S(metal)    S(lipo)     H(rot)  DE(clash)    DE(int)     intcor
     16.02     -18.08       1.78        0.00      97.36       1.85       1.81       0.26       ----

> <Gold.Chemscore.Fitness>
16.0223

> <Gold.Chemscore.DG>
-18.0842

> <Gold.Chemscore.ZeroCoef>
-5.4800

> <Gold.Chemscore.Hbond>
1.7804

> <Gold.Chemscore.Metal>
0.0000

> <Gold.Chemscore.Lipo>
97.3605

> <Gold.Chemscore.Internal_Hbond>
0.0000

> <Gold.Chemscore.DEClash>
1.8065

> <Gold.Chemscore.DEInternal>
0.2554

> <Gold.Chemscore.Rot>
1.8490

> <Gold.Chemscore.Internal.Correction>
   9.000000E+99

> <Gold.Chemscore.Hbonds>
donor molecule, donor type, donor heavy atom, donor atom, acceptor molecule, acceptor atom, score
      P1  H  7997  8008       L1    10  0.97
      P1  H  8011  8017       L1    18  0.05

> <Gold.Chemscore.Hbond.Weighted>
-5.9464

> <Gold.Chemscore.Metal.Weighted>
-0.0000

> <Gold.Chemscore.Lipo.Weighted>
-11.3912

> <Gold.Chemscore.Internal_Hbond.Weighted>
0.0000

> <Gold.Chemscore.DEClash.Weighted>
1.8065

> <Gold.Chemscore.DEInternal.Weighted>
0.2554

> <Gold.Chemscore.Rot.Weighted>
4.7334

> <Gold.Chemscore.Internal.Correction.Weighted>
   9.000000E+99

> <Gold.Protein.RotatedTorsions>
[ 6907 6896 6895 6894 ] final -107.34 input  -60.11 | X-H torsion
[ 7974 7965 7964 7962 ] final   44.21 input  175.53 | X-H torsion
[ 8008 7997 7996 7995 ] final  -73.91 input   59.86 | X-H torsion
[ 10167 10162 10161 10158 ] final -127.29 input  -65.29 | X-H torsion
[ 10718 10713 10712 10709 ] final   60.84 input   66.30 | X-H torsion
[ 10763 10752 10751 10750 ] final  -75.29 input  -60.55 | X-H torsion
[ 11005 11000 10999 10996 ] final  147.80 input  -57.11 | X-H torsion

> <Gold.Protein.ActiveResidues>
 VAL166  LYS551  ARG553  GLY616  TRP617  ASP618  TYR619  PRO620  LYS621  CYS622 
 ASP623  PHE694  ASN695  SER759  ASP760  ASP761  ALA762  ILE779  LEU786  VAL792 
 PHE793  MET794  SER795  GLU796  ALA797  LYS798  CYS799  TRP800  GLU811  SER814 

> <Gold.Protein.RotatedAtoms>
  150.7439  133.9841  159.3585 H   0  0  0  0  0  0  0  0  0  0  0  0  # atno 6907 bound_to 6896
  151.7784  135.0766  160.0379 H   0  0  0  0  0  0  0  0  0  0  0  0  # atno 6908 bound_to 6896
  152.3291  133.5901  159.5833 H   0  0  0  0  0  0  0  0  0  0  0  0  # atno 6909 bound_to 6896
  146.0588  139.5100  142.9671 H   0  0  0  0  0  0  0  0  0  0  0  0  # atno 7974 bound_to 7965
  154.5286  140.0771  156.8304 H   0  0  0  0  0  0  0  0  0  0  0  0  # atno 8008 bound_to 7997
  155.3422  140.3408  155.4221 H   0  0  0  0  0  0  0  0  0  0  0  0  # atno 8009 bound_to 7997
  156.1758  140.1635  156.8352 H   0  0  0  0  0  0  0  0  0  0  0  0  # atno 8010 bound_to 7997
  139.9625  143.5935  152.2440 H   0  0  0  0  0  0  0  0  0  0  0  0  # atno 10167 bound_to 10162
  157.5783  130.8961  149.9386 H   0  0  0  0  0  0  0  0  0  0  0  0  # atno 10718 bound_to 10713
  154.4845  135.5836  153.6414 H   0  0  0  0  0  0  0  0  0  0  0  0  # atno 10763 bound_to 10752
  152.9852  135.6098  154.3203 H   0  0  0  0  0  0  0  0  0  0  0  0  # atno 10764 bound_to 10752
  154.3097  135.2845  155.2551 H   0  0  0  0  0  0  0  0  0  0  0  0  # atno 10765 bound_to 10752
  140.0906  134.9043  157.1645 H   0  0  0  0  0  0  0  0  0  0  0  0  # atno 11005 bound_to 11000
  145.6596  141.0243  143.1716 LP  0  0  0  0  0  0  0  0  0  0  0  0  # atno 17320 bound_to 7965
  144.7163  139.8185  143.7397 LP  0  0  0  0  0  0  0  0  0  0  0  0  # atno 17321 bound_to 7965
  139.6543  144.7662  151.2086 LP  0  0  0  0  0  0  0  0  0  0  0  0  # atno 17342 bound_to 10162
  140.7548  143.6110  150.8605 LP  0  0  0  0  0  0  0  0  0  0  0  0  # atno 17343 bound_to 10162
  156.0828  130.3671  150.0546 LP  0  0  0  0  0  0  0  0  0  0  0  0  # atno 17370 bound_to 10713
  156.8689  130.9517  151.3611 LP  0  0  0  0  0  0  0  0  0  0  0  0  # atno 17371 bound_to 10713
  140.3357  134.2760  155.7220 LP  0  0  0  0  0  0  0  0  0  0  0  0  # atno 17394 bound_to 11000
  141.2077  133.7799  157.0105 LP  0  0  0  0  0  0  0  0  0  0  0  0  # atno 17395 bound_to 11000

$$$$
