AV-unprocessed.smi:270|AV-procd|sdf|2045|dock6
  -GOLD-   2262021273D 1   1.00000     0.00000
 Structure written by MMmdl.
 54 57  0  0  0  0  0  0  0  0  1 V2000
  147.1857  128.9207  152.4884 C   0  0  0  0  0  0  0  0  0  0  0  0
  146.2507  130.0996  152.8002 C   0  0  2  0  0  0  0  0  0  0  0  0
  145.5227  130.3974  151.6113 O   0  0  0  0  0  0  0  0  0  0  0  0
  145.2344  131.7842  151.5842 C   0  0  0  0  0  0  0  0  0  0  0  0
  146.5218  132.3959  152.1145 C   0  0  0  0  0  0  0  0  0  0  0  0
  146.9246  131.4342  153.2290 C   0  0  1  0  0  0  0  0  0  0  0  0
  146.2946  131.8677  154.4235 O   0  0  0  0  0  0  0  0  0  0  0  0
  148.4540  131.3853  153.4862 C   0  0  0  0  0  0  0  0  0  0  0  0
  148.9556  132.5421  154.2133 N   0  0  0  0  0  0  0  0  0  0  0  0
  148.6679  133.8638  153.9595 C   0  0  0  0  0  0  0  0  0  0  0  0
  149.2438  134.7214  154.7565 N   0  0  0  0  0  0  0  0  0  0  0  0
  149.9847  133.9342  155.6308 C   0  0  0  0  0  0  0  0  0  0  0  0
  150.8405  134.2238  156.7339 C   0  0  0  0  0  0  0  0  0  0  0  0
  151.1200  135.5368  157.2119 N   0  0  0  0  0  0  0  0  0  0  0  0
  149.9858  136.2966  157.7170 C   0  0  0  0  0  0  0  0  0  0  0  0
  150.5696  137.5063  156.9798 C   0  0  0  0  0  0  0  0  0  0  0  0
  151.2994  138.3926  157.8140 O   0  0  0  0  0  0  0  0  0  0  0  0
  151.7170  139.5679  157.1384 C   0  0  0  0  0  0  0  0  0  0  0  0
  152.3922  140.5036  158.1479 C   0  0  0  0  0  0  0  0  0  0  0  0
  153.4168  140.1130  158.7089 O   0  0  0  0  0  0  0  0  0  0  0  0
  151.8514  141.7219  158.3846 N   0  0  0  0  0  0  0  0  0  0  0  0
  152.4494  142.7022  159.2958 C   0  0  0  0  0  0  0  0  0  0  0  0
  150.6231  142.1419  157.7050 C   0  0  0  0  0  0  0  0  0  0  0  0
  151.4889  136.5449  156.2249 C   0  0  0  0  0  0  0  0  0  0  0  0
  151.3710  133.1506  157.3801 N   0  0  0  0  0  0  0  0  0  0  0  0
  151.1180  131.9034  156.9737 C   0  0  0  0  0  0  0  0  0  0  0  0
  150.3587  131.4971  155.9566 N   0  0  0  0  0  0  0  0  0  0  0  0
  149.8032  132.5585  155.3076 C   0  0  0  0  0  0  0  0  0  0  0  0
  147.7702  128.6327  153.3623 H   0  0  0  0  0  0  0  0  0  0  0  0
  147.8753  129.1598  151.6786 H   0  0  0  0  0  0  0  0  0  0  0  0
  146.6112  128.0474  152.1792 H   0  0  0  0  0  0  0  0  0  0  0  0
  145.5316  129.7765  153.5555 H   0  0  0  0  0  0  0  0  0  0  0  0
  144.9865  132.1253  150.5789 H   0  0  0  0  0  0  0  0  0  0  0  0
  144.3925  132.0009  152.2434 H   0  0  0  0  0  0  0  0  0  0  0  0
  147.2671  132.3812  151.3186 H   0  0  0  0  0  0  0  0  0  0  0  0
  146.4052  133.4299  152.4421 H   0  0  0  0  0  0  0  0  0  0  0  0
  145.3634  131.7327  154.3366 H   0  0  0  0  0  0  0  0  0  0  0  0
  148.7184  130.4896  154.0498 H   0  0  0  0  0  0  0  0  0  0  0  0
  148.9985  131.3274  152.5435 H   0  0  0  0  0  0  0  0  0  0  0  0
  148.0159  134.1741  153.1560 H   0  0  0  0  0  0  0  0  0  0  0  0
  149.0280  135.9718  157.3076 H   0  0  0  0  0  0  0  0  0  0  0  0
  149.9713  136.3818  158.8037 H   0  0  0  0  0  0  0  0  0  0  0  0
  149.8589  138.0101  156.3225 H   0  0  0  0  0  0  0  0  0  0  0  0
  152.4281  139.3067  156.3527 H   0  0  0  0  0  0  0  0  0  0  0  0
  150.8803  140.0729  156.6547 H   0  0  0  0  0  0  0  0  0  0  0  0
  152.4131  142.3428  160.3247 H   0  0  0  0  0  0  0  0  0  0  0  0
  151.9345  143.6630  159.2692 H   0  0  0  0  0  0  0  0  0  0  0  0
  153.4899  142.8998  159.0365 H   0  0  0  0  0  0  0  0  0  0  0  0
  150.8456  142.4458  156.6813 H   0  0  0  0  0  0  0  0  0  0  0  0
  150.1382  142.9804  158.2055 H   0  0  0  0  0  0  0  0  0  0  0  0
  149.8898  141.3346  157.6677 H   0  0  0  0  0  0  0  0  0  0  0  0
  152.5451  136.8142  156.2487 H   0  0  0  0  0  0  0  0  0  0  0  0
  151.1324  136.3324  155.2159 H   0  0  0  0  0  0  0  0  0  0  0  0
  151.5905  131.1197  157.5474 H   0  0  0  0  0  0  0  0  0  0  0  0
  1  2  1  0  0  0  0
  1 29  1  0  0  0  0
  1 30  1  0  0  0  0
  1 31  1  0  0  0  0
  2  6  1  0  0  0  0
  2  3  1  0  0  0  0
  2 32  1  0  0  0  0
  3  4  1  0  0  0  0
  4  5  1  0  0  0  0
  4 33  1  0  0  0  0
  4 34  1  0  0  0  0
  5  6  1  0  0  0  0
  5 35  1  0  0  0  0
  5 36  1  0  0  0  0
  6  7  1  0  0  0  0
  6  8  1  0  0  0  0
  7 37  1  0  0  0  0
  8  9  1  0  0  0  0
  8 38  1  0  0  0  0
  8 39  1  0  0  0  0
  9 28  1  0  0  0  0
  9 10  1  0  0  0  0
 10 11  2  0  0  0  0
 10 40  1  0  0  0  0
 11 12  1  0  0  0  0
 12 28  2  0  0  0  0
 12 13  1  0  0  0  0
 13 14  1  0  0  0  0
 13 25  2  0  0  0  0
 14 24  1  0  0  0  0
 14 15  1  0  0  0  0
 15 16  1  0  0  0  0
 15 41  1  0  0  0  0
 15 42  1  0  0  0  0
 16 17  1  0  0  0  0
 16 24  1  0  0  0  0
 16 43  1  0  0  0  0
 17 18  1  0  0  0  0
 18 19  1  0  0  0  0
 18 44  1  0  0  0  0
 18 45  1  0  0  0  0
 19 20  2  0  0  0  0
 19 21  1  0  0  0  0
 21 22  1  0  0  0  0
 21 23  1  0  0  0  0
 22 46  1  0  0  0  0
 22 47  1  0  0  0  0
 22 48  1  0  0  0  0
 23 49  1  0  0  0  0
 23 50  1  0  0  0  0
 23 51  1  0  0  0  0
 24 52  1  0  0  0  0
 24 53  1  0  0  0  0
 25 26  1  0  0  0  0
 26 27  2  0  0  0  0
 26 54  1  0  0  0  0
 27 28  1  0  0  0  0
M  END
> <s_m_source_file>
AV-unprocessed.smi

> <i_m_source_file_index>
270

> <i_lp_mmshare_version>
43012

> <i_f3d_flags>
0

> <s_epik_input>
W0NIMl0xW0NIMl1PW0NAQEhdKFtDSDNdKVtDQEBdMShbT0hdKVtDSDJdbihbY0hdbjIpYyhjMjMpbltjSF1uYzNONFtDSDJdW0NIXShbQ0gyXTQpT1tDSDJdQyg9TylOKFtDSDNdKVtDSDNd

> <s_epik_cmdline>
J2VwaWtfcHl0aG9uJywgJy1waCcsICc3LjAnLCAnLXRuJywgJzgnLCAnLW1hJywgJzIwMCcsICctbWV0YWxfYmluZGluZycsICctaW1hZScsICc8aW5maWxlLm1hZT4nLCAnLW9tYWUnLCAnPG91dGZpbGUubWFlPic=

> <r_lp_tautomer_probability>
1

> <r_epik_Ionization_Penalty>
0.00375854

> <r_epik_Ionization_Penalty_Charging>
0

> <r_epik_Ionization_Penalty_Neutral>
0.00375854

> <r_epik_State_Penalty>
-0

> <r_epik_Charging_Adjusted_Penalty>
0

> <i_epik_Tot_Q>
0

> <i_epik_Tot_abs_Q>
0

> <r_epik_Metal_State_Penalty>
-0

> <b_epik_Metal_Only>
0

> <s_lp_Force_Field>
OPLS_2005

> <r_lp_Energy>
54.2687

> <b_lp_Chiralities_Consistent>
1

> <s_lp_Variant>
AV-unprocessed.smi:270-1

> <Gold.Version>
5.8.1

> <Gold.Id.Protein>
6NUR|6NUR_protein|mol2

> <Gold.PLP.Fitness>
45.4044

> <Gold.PLP.PLP>
-39.2030

> <Gold.PLP.part.hbond>
-2.5743

> <Gold.PLP.part.metal>
0.0000

> <Gold.PLP.part.buried>
-3.1906

> <Gold.PLP.part.nonpolar>
-33.4805

> <Gold.PLP.part.repulsive>
0.2994

> <Gold.PLP.ligand.clash>
0.0000

> <Gold.PLP.ligand.torsion>
0.6851

> <Gold.PLP.Chemscore.Hbond>
1.8000

> <Gold.PLP.Chemscore.CHOScore>
0.5940

> <Gold.PLP.Chemscore.Metal>
0.0000

> <Gold.Chemscore.Hbonds>
donor molecule, donor type, donor heavy atom, donor atom, acceptor molecule, acceptor atom, score
      P1  H  6896  6907       L1    25  0.82
      P1  H  7997  8008       L1    20  0.99
      L1  C    10    40       P1  7948  0.59

> <Gold.PLP.Chemscore.Internal.Correction>
0.3896

> <Gold.Rescore>
     Score         DG    S(hbond)    S(metal)    S(lipo)     H(rot)  DE(clash)    DE(int)     intcor
      9.56     -10.26       1.37        0.00      69.98       3.12       0.07       0.64       ----

> <Gold.Chemscore.Fitness>
9.5556

> <Gold.Chemscore.DG>
-10.2640

> <Gold.Chemscore.ZeroCoef>
-5.4800

> <Gold.Chemscore.Hbond>
1.3749

> <Gold.Chemscore.Metal>
0.0000

> <Gold.Chemscore.Lipo>
69.9812

> <Gold.Chemscore.Internal_Hbond>
0.0000

> <Gold.Chemscore.DEClash>
0.0690

> <Gold.Chemscore.DEInternal>
0.6394

> <Gold.Chemscore.Rot>
3.1234

> <Gold.Chemscore.Internal.Correction>
   9.000000E+99

> <Gold.Chemscore.Hbonds>
donor molecule, donor type, donor heavy atom, donor atom, acceptor molecule, acceptor atom, score
      P1  H  6896  6907       L1    25  0.58
      P1  H  7997  8008       L1    20  0.23

> <Gold.Chemscore.Hbond.Weighted>
-4.5921

> <Gold.Chemscore.Metal.Weighted>
-0.0000

> <Gold.Chemscore.Lipo.Weighted>
-8.1878

> <Gold.Chemscore.Internal_Hbond.Weighted>
0.0000

> <Gold.Chemscore.DEClash.Weighted>
0.0690

> <Gold.Chemscore.DEInternal.Weighted>
0.6394

> <Gold.Chemscore.Rot.Weighted>
7.9959

> <Gold.Chemscore.Internal.Correction.Weighted>
   9.000000E+99

> <Gold.Protein.RotatedTorsions>
[ 6907 6896 6895 6894 ] final -158.97 input  -60.11 | X-H torsion
[ 7974 7965 7964 7962 ] final  129.62 input  175.53 | X-H torsion
[ 8008 7997 7996 7995 ] final  -92.55 input   59.86 | X-H torsion
[ 10167 10162 10161 10158 ] final   79.56 input  -65.29 | X-H torsion
[ 10718 10713 10712 10709 ] final  167.11 input   66.30 | X-H torsion
[ 10763 10752 10751 10750 ] final  -44.00 input  -60.55 | X-H torsion
[ 11005 11000 10999 10996 ] final -117.07 input  -57.11 | X-H torsion

> <Gold.Protein.ActiveResidues>
 VAL166  LYS551  ARG553  GLY616  TRP617  ASP618  TYR619  PRO620  LYS621  CYS622 
 ASP623  PHE694  ASN695  SER759  ASP760  ASP761  ALA762  ILE779  LEU786  VAL792 
 PHE793  MET794  SER795  GLU796  ALA797  LYS798  CYS799  TRP800  GLU811  SER814 

> <Gold.Protein.RotatedAtoms>
  151.3264  133.4018  159.2658 H   0  0  0  0  0  0  0  0  0  0  0  0  # atno 6907 bound_to 6896
  150.9991  134.9308  159.7954 H   0  0  0  0  0  0  0  0  0  0  0  0  # atno 6908 bound_to 6896
  152.5270  134.3229  159.9207 H   0  0  0  0  0  0  0  0  0  0  0  0  # atno 6909 bound_to 6896
  145.0267  139.4083  143.5170 H   0  0  0  0  0  0  0  0  0  0  0  0  # atno 7974 bound_to 7965
  154.7245  140.0508  157.0670 H   0  0  0  0  0  0  0  0  0  0  0  0  # atno 8008 bound_to 7997
  155.0383  140.3166  155.4714 H   0  0  0  0  0  0  0  0  0  0  0  0  # atno 8009 bound_to 7997
  156.2825  140.2137  156.5506 H   0  0  0  0  0  0  0  0  0  0  0  0  # atno 8010 bound_to 7997
  139.9590  144.5974  150.8089 H   0  0  0  0  0  0  0  0  0  0  0  0  # atno 10167 bound_to 10162
  157.0563  131.0327  151.2663 H   0  0  0  0  0  0  0  0  0  0  0  0  # atno 10718 bound_to 10713
  154.0049  135.6689  153.4761 H   0  0  0  0  0  0  0  0  0  0  0  0  # atno 10763 bound_to 10752
  153.0646  135.5008  154.8167 H   0  0  0  0  0  0  0  0  0  0  0  0  # atno 10764 bound_to 10752
  154.7030  135.3082  154.9275 H   0  0  0  0  0  0  0  0  0  0  0  0  # atno 10765 bound_to 10752
  141.0379  133.9881  157.3041 H   0  0  0  0  0  0  0  0  0  0  0  0  # atno 11005 bound_to 11000
  146.3493  139.9794  142.8697 LP  0  0  0  0  0  0  0  0  0  0  0  0  # atno 17320 bound_to 7965
  145.1824  140.9773  143.4258 LP  0  0  0  0  0  0  0  0  0  0  0  0  # atno 17321 bound_to 7965
  140.7559  143.3055  151.2972 LP  0  0  0  0  0  0  0  0  0  0  0  0  # atno 17342 bound_to 10162
  139.6568  144.0261  152.2665 LP  0  0  0  0  0  0  0  0  0  0  0  0  # atno 17343 bound_to 10162
  157.4990  130.7868  149.7585 LP  0  0  0  0  0  0  0  0  0  0  0  0  # atno 17370 bound_to 10713
  155.9992  130.3890  150.2673 LP  0  0  0  0  0  0  0  0  0  0  0  0  # atno 17371 bound_to 10713
  139.9254  135.0201  156.8216 LP  0  0  0  0  0  0  0  0  0  0  0  0  # atno 17394 bound_to 11000
  140.6288  133.9925  155.7652 LP  0  0  0  0  0  0  0  0  0  0  0  0  # atno 17395 bound_to 11000

$$$$
