AV-unprocessed.smi:910|AV-procd|sdf|4119|dock7
  -GOLD-   22720 2 13D 1   1.00000     0.00000
 Structure written by MMmdl.
 46 47  0  0  0  0  0  0  0  0  1 V2000
  144.2169  132.0918  150.0365 C   0  0  0  0  0  0  0  0  0  0  0  0
  145.3212  132.1556  151.0443 C   0  0  0  0  0  0  0  0  0  0  0  0
  145.9882  133.3372  151.3354 N   0  0  0  0  0  0  0  0  0  0  0  0
  146.8841  132.9964  152.2635 C   0  0  0  0  0  0  0  0  0  0  0  0
  147.8202  133.8565  152.8896 N   0  0  0  0  0  0  0  0  0  0  0  0
  148.6464  133.5642  153.9074 C   0  0  0  0  0  0  0  0  0  0  0  0
  148.7423  132.4638  154.4516 O   0  0  0  0  0  0  0  0  0  0  0  0
  149.3602  134.6375  154.2756 N   0  0  0  0  0  0  0  0  0  0  0  0
  150.2861  134.6875  155.4025 C   0  0  0  0  0  0  0  0  0  0  0  0
  150.8159  136.1103  155.6350 C   0  0  0  0  0  0  0  0  0  0  0  0
  151.1515  136.6787  154.3776 O   0  0  0  0  0  0  0  0  0  0  0  0
  150.9190  138.0773  154.2795 C   0  0  1  0  0  0  0  0  0  0  0  0
  149.4620  138.3846  154.6815 C   0  0  0  0  0  0  0  0  0  0  0  0
  149.1992  139.8969  154.7320 C   0  0  0  0  0  0  0  0  0  0  0  0
  150.1892  140.5975  155.6734 C   0  0  0  0  0  0  0  0  0  0  0  0
  151.6411  140.3009  155.2679 C   0  0  0  0  0  0  0  0  0  0  0  0
  151.9223  138.7856  155.2170 C   0  0  2  0  0  0  0  0  0  0  0  0
  153.3775  138.5153  154.7985 C   0  0  0  0  0  0  0  0  0  0  0  0
  146.8527  131.6800  152.6015 O   0  0  0  0  0  0  0  0  0  0  0  0
  145.8556  131.1585  151.8207 C   0  0  0  0  0  0  0  0  0  0  0  0
  145.5598  129.7030  151.9505 C   0  0  0  0  0  0  0  0  0  0  0  0
  144.2600  131.1661  149.4624 H   0  0  0  0  0  0  0  0  0  0  0  0
  144.2732  132.9200  149.3293 H   0  0  0  0  0  0  0  0  0  0  0  0
  143.2417  132.1359  150.5213 H   0  0  0  0  0  0  0  0  0  0  0  0
  147.8477  134.8024  152.5388 H   0  0  0  0  0  0  0  0  0  0  0  0
  149.2181  135.4994  153.7700 H   0  0  0  0  0  0  0  0  0  0  0  0
  149.7991  134.3111  156.3034 H   0  0  0  0  0  0  0  0  0  0  0  0
  151.1168  134.0138  155.1913 H   0  0  0  0  0  0  0  0  0  0  0  0
  150.0577  136.7121  156.1383 H   0  0  0  0  0  0  0  0  0  0  0  0
  151.6909  136.0819  156.2846 H   0  0  0  0  0  0  0  0  0  0  0  0
  151.0998  138.4261  153.2610 H   0  0  0  0  0  0  0  0  0  0  0  0
  148.7679  137.9200  153.9814 H   0  0  0  0  0  0  0  0  0  0  0  0
  149.2527  137.9477  155.6588 H   0  0  0  0  0  0  0  0  0  0  0  0
  149.2866  140.3176  153.7296 H   0  0  0  0  0  0  0  0  0  0  0  0
  148.1767  140.0861  155.0601 H   0  0  0  0  0  0  0  0  0  0  0  0
  150.0128  141.6734  155.6643 H   0  0  0  0  0  0  0  0  0  0  0  0
  150.0202  140.2642  156.6981 H   0  0  0  0  0  0  0  0  0  0  0  0
  151.8421  140.7457  154.2920 H   0  0  0  0  0  0  0  0  0  0  0  0
  152.3206  140.7831  155.9713 H   0  0  0  0  0  0  0  0  0  0  0  0
  151.7869  138.3865  156.2235 H   0  0  0  0  0  0  0  0  0  0  0  0
  153.5740  138.8784  153.7892 H   0  0  0  0  0  0  0  0  0  0  0  0
  153.6059  137.4492  154.8164 H   0  0  0  0  0  0  0  0  0  0  0  0
  154.0777  139.0097  155.4722 H   0  0  0  0  0  0  0  0  0  0  0  0
  144.4847  129.5237  151.9383 H   0  0  0  0  0  0  0  0  0  0  0  0
  145.9571  129.3041  152.8842 H   0  0  0  0  0  0  0  0  0  0  0  0
  146.0052  129.1448  151.1270 H   0  0  0  0  0  0  0  0  0  0  0  0
  1  2  1  0  0  0  0
  1 22  1  0  0  0  0
  1 23  1  0  0  0  0
  1 24  1  0  0  0  0
  2 20  2  0  0  0  0
  2  3  1  0  0  0  0
  3  4  2  0  0  0  0
  4  5  1  0  0  0  0
  4 19  1  0  0  0  0
  5  6  1  0  0  0  0
  5 25  1  0  0  0  0
  6  7  2  0  0  0  0
  6  8  1  0  0  0  0
  8  9  1  0  0  0  0
  8 26  1  0  0  0  0
  9 10  1  0  0  0  0
  9 27  1  0  0  0  0
  9 28  1  0  0  0  0
 10 11  1  0  0  0  0
 10 29  1  0  0  0  0
 10 30  1  0  0  0  0
 11 12  1  0  0  0  0
 12 17  1  0  0  0  0
 12 13  1  0  0  0  0
 12 31  1  0  0  0  0
 13 14  1  0  0  0  0
 13 32  1  0  0  0  0
 13 33  1  0  0  0  0
 14 15  1  0  0  0  0
 14 34  1  0  0  0  0
 14 35  1  0  0  0  0
 15 16  1  0  0  0  0
 15 36  1  0  0  0  0
 15 37  1  0  0  0  0
 16 17  1  0  0  0  0
 16 38  1  0  0  0  0
 16 39  1  0  0  0  0
 17 18  1  0  0  0  0
 17 40  1  0  0  0  0
 18 41  1  0  0  0  0
 18 42  1  0  0  0  0
 18 43  1  0  0  0  0
 19 20  1  0  0  0  0
 20 21  1  0  0  0  0
 21 44  1  0  0  0  0
 21 45  1  0  0  0  0
 21 46  1  0  0  0  0
M  END
> <s_m_source_file>
AV-unprocessed.smi

> <i_m_source_file_index>
910

> <i_lp_mmshare_version>
43012

> <i_f3d_flags>
0

> <s_epik_input>
W0NIM11jMW5jKG9jMVtDSDNdKVtOSF1DKD1PKVtOSF1bQ0gyXVtDSDJdT1tDQEBIXTJbQ0gyXVtDSDJdW0NIMl1bQ0gyXVtDQEhdMltDSDNd

> <s_epik_cmdline>
J2VwaWtfcHl0aG9uJywgJy1waCcsICc3LjAnLCAnLXRuJywgJzgnLCAnLW1hJywgJzIwMCcsICctbWV0YWxfYmluZGluZycsICctaW1hZScsICc8aW5maWxlLm1hZT4nLCAnLW9tYWUnLCAnPG91dGZpbGUubWFlPic=

> <r_lp_tautomer_probability>
0.785861

> <r_epik_Ionization_Penalty>
4.15957e-05

> <r_epik_Ionization_Penalty_Charging>
0

> <r_epik_Ionization_Penalty_Neutral>
4.15957e-05

> <r_epik_State_Penalty>
0.0240523

> <r_epik_Charging_Adjusted_Penalty>
0.0240523

> <i_epik_Tot_Q>
0

> <i_epik_Tot_abs_Q>
0

> <r_epik_Metal_State_Penalty>
0.057053

> <b_epik_Metal_Only>
0

> <s_lp_Force_Field>
OPLS_2005

> <r_lp_Energy>
8.26637

> <b_lp_Chiralities_Consistent>
1

> <s_lp_Variant>
AV-unprocessed.smi:910-4

> <Gold.Version>
5.8.1

> <Gold.Id.Protein>
6NUR|6NUR_protein|mol2

> <Gold.PLP.Fitness>
46.9104

> <Gold.PLP.PLP>
-39.0951

> <Gold.PLP.part.hbond>
-3.0000

> <Gold.PLP.part.metal>
0.0000

> <Gold.PLP.part.buried>
-1.5213

> <Gold.PLP.part.nonpolar>
-36.0726

> <Gold.PLP.part.repulsive>
1.9763

> <Gold.PLP.ligand.clash>
0.0000

> <Gold.PLP.ligand.torsion>
0.3499

> <Gold.PLP.Chemscore.Hbond>
2.8326

> <Gold.PLP.Chemscore.CHOScore>
0.0000

> <Gold.PLP.Chemscore.Metal>
0.0000

> <Gold.Chemscore.Hbonds>
donor molecule, donor type, donor heavy atom, donor atom, acceptor molecule, acceptor atom, score
      L1  H     5    25       P1  7948  0.90
      L1  H     8    26       P1  7948  0.82
      P1  H 10752 10765       L1    11  0.69

> <Gold.PLP.Chemscore.Internal.Correction>
0.0173

> <Gold.Rescore>
     Score         DG    S(hbond)    S(metal)    S(lipo)     H(rot)  DE(clash)    DE(int)     intcor
     14.69     -16.84       1.44        0.00      92.38       1.66       0.22       1.93       ----

> <Gold.Chemscore.Fitness>
14.6942

> <Gold.Chemscore.DG>
-16.8402

> <Gold.Chemscore.ZeroCoef>
-5.4800

> <Gold.Chemscore.Hbond>
1.4357

> <Gold.Chemscore.Metal>
0.0000

> <Gold.Chemscore.Lipo>
92.3821

> <Gold.Chemscore.Internal_Hbond>
0.0000

> <Gold.Chemscore.DEClash>
0.2155

> <Gold.Chemscore.DEInternal>
1.9305

> <Gold.Chemscore.Rot>
1.6576

> <Gold.Chemscore.Internal.Correction>
   9.000000E+99

> <Gold.Chemscore.Hbonds>
donor molecule, donor type, donor heavy atom, donor atom, acceptor molecule, acceptor atom, score
      L1  H     5    25       P1  7948  0.75
      L1  H     8    26       P1  7948  0.42
      P1  H 10752 10765       L1    11  0.17

> <Gold.Chemscore.Hbond.Weighted>
-4.7951

> <Gold.Chemscore.Metal.Weighted>
-0.0000

> <Gold.Chemscore.Lipo.Weighted>
-10.8087

> <Gold.Chemscore.Internal_Hbond.Weighted>
0.0000

> <Gold.Chemscore.DEClash.Weighted>
0.2155

> <Gold.Chemscore.DEInternal.Weighted>
1.9305

> <Gold.Chemscore.Rot.Weighted>
4.2436

> <Gold.Chemscore.Internal.Correction.Weighted>
   9.000000E+99

> <Gold.Protein.RotatedTorsions>
[ 6907 6896 6895 6894 ] final  106.64 input  -60.11 | X-H torsion
[ 7974 7965 7964 7962 ] final   64.48 input  175.53 | X-H torsion
[ 8008 7997 7996 7995 ] final   87.80 input   59.86 | X-H torsion
[ 10167 10162 10161 10158 ] final  -10.89 input  -65.29 | X-H torsion
[ 10718 10713 10712 10709 ] final -123.26 input   66.30 | X-H torsion
[ 10763 10752 10751 10750 ] final  143.38 input  -60.55 | X-H torsion
[ 11005 11000 10999 10996 ] final  -47.85 input  -57.11 | X-H torsion

> <Gold.Protein.ActiveResidues>
 VAL166  LYS551  ARG553  GLY616  TRP617  ASP618  TYR619  PRO620  LYS621  CYS622 
 ASP623  PHE694  ASN695  SER759  ASP760  ASP761  ALA762  ILE779  LEU786  VAL792 
 PHE793  MET794  SER795  GLU796  ALA797  LYS798  CYS799  TRP800  GLU811  SER814 

> <Gold.Protein.RotatedAtoms>
  152.5186  133.9351  159.7599 H   0  0  0  0  0  0  0  0  0  0  0  0  # atno 6907 bound_to 6896
  150.9693  133.6352  159.2747 H   0  0  0  0  0  0  0  0  0  0  0  0  # atno 6908 bound_to 6896
  151.3569  135.0902  159.9474 H   0  0  0  0  0  0  0  0  0  0  0  0  # atno 6909 bound_to 6896
  145.8497  139.3246  143.0882 H   0  0  0  0  0  0  0  0  0  0  0  0  # atno 7974 bound_to 7965
  155.9799  140.3378  155.6653 H   0  0  0  0  0  0  0  0  0  0  0  0  # atno 8008 bound_to 7997
  155.6562  140.0711  157.2588 H   0  0  0  0  0  0  0  0  0  0  0  0  # atno 8009 bound_to 7997
  154.4189  140.1716  156.1715 H   0  0  0  0  0  0  0  0  0  0  0  0  # atno 8010 bound_to 7997
  140.7125  143.5699  150.9104 H   0  0  0  0  0  0  0  0  0  0  0  0  # atno 10167 bound_to 10162
  156.1487  130.6519  150.9881 H   0  0  0  0  0  0  0  0  0  0  0  0  # atno 10718 bound_to 10713
  153.9714  135.2950  155.3427 H   0  0  0  0  0  0  0  0  0  0  0  0  # atno 10763 bound_to 10752
  154.7320  135.5063  153.8982 H   0  0  0  0  0  0  0  0  0  0  0  0  # atno 10764 bound_to 10752
  153.0898  135.6704  153.9989 H   0  0  0  0  0  0  0  0  0  0  0  0  # atno 10765 bound_to 10752
  141.0666  133.6692  156.3357 H   0  0  0  0  0  0  0  0  0  0  0  0  # atno 11005 bound_to 11000
  145.9371  140.9006  143.0326 LP  0  0  0  0  0  0  0  0  0  0  0  0  # atno 17320 bound_to 7965
  144.6729  140.1498  143.7431 LP  0  0  0  0  0  0  0  0  0  0  0  0  # atno 17321 bound_to 7965
  139.9425  143.6366  152.3050 LP  0  0  0  0  0  0  0  0  0  0  0  0  # atno 17342 bound_to 10162
  139.6855  144.7652  151.1531 LP  0  0  0  0  0  0  0  0  0  0  0  0  # atno 17343 bound_to 10162
  157.6639  131.0875  150.7775 LP  0  0  0  0  0  0  0  0  0  0  0  0  # atno 17370 bound_to 10713
  156.7845  130.4870  149.5395 LP  0  0  0  0  0  0  0  0  0  0  0  0  # atno 17371 bound_to 10713
  140.5761  134.5792  157.5469 LP  0  0  0  0  0  0  0  0  0  0  0  0  # atno 17394 bound_to 11000
  139.9482  134.7664  156.0511 LP  0  0  0  0  0  0  0  0  0  0  0  0  # atno 17395 bound_to 11000

$$$$
