AV-unprocessed.smi:2938|AV-procd|sdf|11260|dock2
  -GOLD-   2272016153D 1   1.00000     0.00000
 Structure written by MMmdl.
 26 27  0  0  0  0  0  0  0  0  2 V2000
  151.3778  136.3771  154.2721 N   0  0  0  0  0  0  0  0  0  0  0  0
  151.2449  137.4666  154.6398 C   0  0  0  0  0  0  0  0  0  0  0  0
  151.0780  138.8417  155.1058 C   0  0  0  0  0  0  0  0  0  0  0  0
  152.0912  139.5131  155.8362 C   0  0  0  0  0  0  0  0  0  0  0  0
  153.2881  138.9350  156.1583 O   0  5  0  0  0  0  0  0  0  0  0  0
  151.9391  140.7835  156.2676 N   0  0  0  0  0  0  0  0  0  0  0  0
  150.7869  141.3834  155.9745 C   0  0  0  0  0  0  0  0  0  0  0  0
  150.6404  142.6742  156.4171 N   0  0  0  0  0  0  0  0  0  0  0  0
  149.7629  140.8625  155.2982 N   0  0  0  0  0  0  0  0  0  0  0  0
  149.8949  139.5872  154.8558 C   0  0  0  0  0  0  0  0  0  0  0  0
  148.8165  139.0318  154.1443 N   0  0  0  0  0  0  0  0  0  0  0  0
  148.2107  137.8833  154.8058 C   0  0  0  0  0  0  0  0  0  0  0  0
  147.1396  137.2586  153.8951 C   0  0  0  0  0  0  0  0  0  0  0  0
  146.1797  138.2490  153.5359 O   0  0  0  0  0  0  0  0  0  0  0  0
  146.7710  139.3333  152.8245 C   0  0  0  0  0  0  0  0  0  0  0  0
  147.8314  140.0131  153.7080 C   0  0  0  0  0  0  0  0  0  0  0  0
  151.3799  143.1247  156.9352 H   0  0  0  0  0  0  0  0  0  0  0  0
  149.7895  143.1818  156.2248 H   0  0  0  0  0  0  0  0  0  0  0  0
  148.9787  137.1458  155.0427 H   0  0  0  0  0  0  0  0  0  0  0  0
  147.7594  138.1958  155.7486 H   0  0  0  0  0  0  0  0  0  0  0  0
  147.5920  136.8338  152.9973 H   0  0  0  0  0  0  0  0  0  0  0  0
  146.6335  136.4439  154.4130 H   0  0  0  0  0  0  0  0  0  0  0  0
  147.2127  138.9731  151.8939 H   0  0  0  0  0  0  0  0  0  0  0  0
  145.9932  140.0471  152.5529 H   0  0  0  0  0  0  0  0  0  0  0  0
  147.3532  140.4689  154.5762 H   0  0  0  0  0  0  0  0  0  0  0  0
  148.3262  140.8116  153.1536 H   0  0  0  0  0  0  0  0  0  0  0  0
  1  2  3  0  0  0  0
  2  3  1  0  0  0  0
  3 10  1  0  0  0  0
  3  4  2  0  0  0  0
  4  5  1  0  0  0  0
  4  6  1  0  0  0  0
  6  7  2  0  0  0  0
  7  8  1  0  0  0  0
  7  9  1  0  0  0  0
  8 17  1  0  0  0  0
  8 18  1  0  0  0  0
  9 10  2  0  0  0  0
 10 11  1  0  0  0  0
 11 16  1  0  0  0  0
 11 12  1  0  0  0  0
 12 13  1  0  0  0  0
 12 19  1  0  0  0  0
 12 20  1  0  0  0  0
 13 14  1  0  0  0  0
 13 21  1  0  0  0  0
 13 22  1  0  0  0  0
 14 15  1  0  0  0  0
 15 16  1  0  0  0  0
 15 23  1  0  0  0  0
 15 24  1  0  0  0  0
 16 25  1  0  0  0  0
 16 26  1  0  0  0  0
M  CHG  1   5  -1
M  END
> <s_m_source_file>
AV-unprocessed.smi

> <i_m_source_file_index>
2938

> <i_lp_mmshare_version>
43012

> <i_f3d_flags>
0

> <s_epik_input>
TiNDYzFjKFtPSF0pbmMoW05IMl0pbmMxTjJbQ0gyXVtDSDJdT1tDSDJdW0NIMl0y

> <s_epik_cmdline>
J2VwaWtfcHl0aG9uJywgJy1waCcsICc3LjAnLCAnLXRuJywgJzgnLCAnLW1hJywgJzIwMCcsICctbWV0YWxfYmluZGluZycsICctaW1hZScsICc8aW5maWxlLm1hZT4nLCAnLW9tYWUnLCAnPG91dGZpbGUubWFlPic=

> <r_lp_tautomer_probability>
1

> <r_epik_Ionization_Penalty>
0.00503702

> <r_epik_Ionization_Penalty_Charging>
2.31924e-12

> <r_epik_Ionization_Penalty_Neutral>
0.00503702

> <r_epik_State_Penalty>
-0

> <r_epik_Charging_Adjusted_Penalty>
2.31924e-12

> <i_epik_Tot_Q>
-1

> <i_epik_Tot_abs_Q>
1

> <r_epik_Metal_State_Penalty>
-0

> <b_epik_Metal_Only>
0

> <s_lp_Force_Field>
OPLS_2005

> <r_lp_Energy>
14.7587

> <b_lp_Chiralities_Consistent>
1

> <s_lp_Variant>
AV-unprocessed.smi:2938-1

> <Gold.Version>
5.8.1

> <Gold.Id.Protein>
6NUR|6NUR_protein|mol2

> <Gold.PLP.Fitness>
31.5145

> <Gold.PLP.PLP>
-19.7458

> <Gold.PLP.part.hbond>
-2.9931

> <Gold.PLP.part.metal>
0.0000

> <Gold.PLP.part.buried>
0.1915

> <Gold.PLP.part.nonpolar>
-16.6139

> <Gold.PLP.part.repulsive>
0.8168

> <Gold.PLP.ligand.clash>
0.0000

> <Gold.PLP.ligand.torsion>
0.1739

> <Gold.PLP.Chemscore.Hbond>
4.0000

> <Gold.PLP.Chemscore.CHOScore>
0.0000

> <Gold.PLP.Chemscore.Metal>
0.0000

> <Gold.Chemscore.Hbonds>
donor molecule, donor type, donor heavy atom, donor atom, acceptor molecule, acceptor atom, score
      L1  H     8    18       P1  8028  1.00
      P1  H  7997  8010       L1     5  1.82
      P1  H 10752 10763       L1     1  1.00

> <Gold.PLP.Chemscore.Internal.Correction>
0.1165

> <Gold.Rescore>
     Score         DG    S(hbond)    S(metal)    S(lipo)     H(rot)  DE(clash)    DE(int)     intcor
     14.73     -15.29       2.87        0.00      23.90       1.00       0.30       0.26       ----

> <Gold.Chemscore.Fitness>
14.7319

> <Gold.Chemscore.DG>
-15.2902

> <Gold.Chemscore.ZeroCoef>
-5.4800

> <Gold.Chemscore.Hbond>
2.8664

> <Gold.Chemscore.Metal>
0.0000

> <Gold.Chemscore.Lipo>
23.8997

> <Gold.Chemscore.Internal_Hbond>
0.0000

> <Gold.Chemscore.DEClash>
0.3019

> <Gold.Chemscore.DEInternal>
0.2564

> <Gold.Chemscore.Rot>
1.0000

> <Gold.Chemscore.Internal.Correction>
   9.000000E+99

> <Gold.Chemscore.Hbonds>
donor molecule, donor type, donor heavy atom, donor atom, acceptor molecule, acceptor atom, score
      L1  H     8    18       P1  8028  0.95
      P1  H  7997  8010       L1     5  0.73
      P1  H 10752 10763       L1     1  0.98

> <Gold.Chemscore.Hbond.Weighted>
-9.5739

> <Gold.Chemscore.Metal.Weighted>
-0.0000

> <Gold.Chemscore.Lipo.Weighted>
-2.7963

> <Gold.Chemscore.Internal_Hbond.Weighted>
0.0000

> <Gold.Chemscore.DEClash.Weighted>
0.3019

> <Gold.Chemscore.DEInternal.Weighted>
0.2564

> <Gold.Chemscore.Rot.Weighted>
2.5600

> <Gold.Chemscore.Internal.Correction.Weighted>
   9.000000E+99

> <Gold.Protein.RotatedTorsions>
[ 6907 6896 6895 6894 ] final   80.53 input  -60.11 | X-H torsion
[ 7974 7965 7964 7962 ] final  116.97 input  175.53 | X-H torsion
[ 8008 7997 7996 7995 ] final   59.60 input   59.86 | X-H torsion
[ 10167 10162 10161 10158 ] final   99.23 input  -65.29 | X-H torsion
[ 10718 10713 10712 10709 ] final -152.81 input   66.30 | X-H torsion
[ 10763 10752 10751 10750 ] final   47.88 input  -60.55 | X-H torsion
[ 11005 11000 10999 10996 ] final  -24.44 input  -57.11 | X-H torsion

> <Gold.Protein.ActiveResidues>
 VAL166  LYS551  ARG553  GLY616  TRP617  ASP618  TYR619  PRO620  LYS621  CYS622 
 ASP623  PHE694  ASN695  SER759  ASP760  ASP761  ALA762  ILE779  LEU786  VAL792 
 PHE793  MET794  SER795  GLU796  ALA797  LYS798  CYS799  TRP800  GLU811  SER814 

> <Gold.Protein.RotatedAtoms>
  152.5238  134.3344  159.9194 H   0  0  0  0  0  0  0  0  0  0  0  0  # atno 6907 bound_to 6896
  151.3293  133.4001  159.2669 H   0  0  0  0  0  0  0  0  0  0  0  0  # atno 6908 bound_to 6896
  150.9894  134.9249  159.7948 H   0  0  0  0  0  0  0  0  0  0  0  0  # atno 6909 bound_to 6896
  145.1731  139.3091  143.4457 H   0  0  0  0  0  0  0  0  0  0  0  0  # atno 7974 bound_to 7965
  155.5689  140.3489  155.4510 H   0  0  0  0  0  0  0  0  0  0  0  0  # atno 8008 bound_to 7997
  156.0459  140.1306  157.0130 H   0  0  0  0  0  0  0  0  0  0  0  0  # atno 8009 bound_to 7997
  154.4412  140.1014  156.6290 H   0  0  0  0  0  0  0  0  0  0  0  0  # atno 8010 bound_to 7997
  139.7636  144.6946  151.0256 H   0  0  0  0  0  0  0  0  0  0  0  0  # atno 10167 bound_to 10162
  156.4774  130.8287  151.2515 H   0  0  0  0  0  0  0  0  0  0  0  0  # atno 10718 bound_to 10713
  152.9796  135.5962  154.3835 H   0  0  0  0  0  0  0  0  0  0  0  0  # atno 10763 bound_to 10752
  154.3497  135.2767  155.2380 H   0  0  0  0  0  0  0  0  0  0  0  0  # atno 10764 bound_to 10752
  154.4425  135.6010  153.6193 H   0  0  0  0  0  0  0  0  0  0  0  0  # atno 10765 bound_to 10752
  140.8845  133.7630  156.0344 H   0  0  0  0  0  0  0  0  0  0  0  0  # atno 11005 bound_to 11000
  146.3465  140.1883  142.8589 LP  0  0  0  0  0  0  0  0  0  0  0  0  # atno 17320 bound_to 7965
  145.0213  140.8796  143.5165 LP  0  0  0  0  0  0  0  0  0  0  0  0  # atno 17321 bound_to 7965
  140.7809  143.4668  151.0201 LP  0  0  0  0  0  0  0  0  0  0  0  0  # atno 17342 bound_to 10162
  139.8354  143.7635  152.3180 LP  0  0  0  0  0  0  0  0  0  0  0  0  # atno 17343 bound_to 10162
  157.7486  131.0056  150.3120 LP  0  0  0  0  0  0  0  0  0  0  0  0  # atno 17370 bound_to 10713
  156.3556  130.3838  149.7293 LP  0  0  0  0  0  0  0  0  0  0  0  0  # atno 17371 bound_to 10713
  140.8421  134.3054  157.5309 LP  0  0  0  0  0  0  0  0  0  0  0  0  # atno 17394 bound_to 11000
  139.8723  134.9422  156.3817 LP  0  0  0  0  0  0  0  0  0  0  0  0  # atno 17395 bound_to 11000

$$$$
