AV-unprocessed.smi:766|AV-procd|sdf|3651|dock10
  -GOLD-   22720 1 53D 1   1.00000     0.00000
 Structure written by MMmdl.
 47 49  0  0  0  0  0  0  0  0  2 V2000
  145.9349  129.5089  151.6084 C   0  0  0  0  0  0  0  0  0  0  0  0
  145.9606  131.0268  151.6486 C   0  0  0  0  0  0  0  0  0  0  0  0
  145.1155  131.7519  150.7782 C   0  0  0  0  0  0  0  0  0  0  0  0
  145.1070  133.1639  150.7870 C   0  0  0  0  0  0  0  0  0  0  0  0
  144.3712  134.0639  150.0353 N   0  0  0  0  0  0  0  0  0  0  0  0
  144.8080  135.2279  150.5070 C   0  0  0  0  0  0  0  0  0  0  0  0
  145.7403  135.1885  151.4784 N   0  0  0  0  0  0  0  0  0  0  0  0
  146.3620  136.3169  152.1476 C   0  0  0  0  0  0  0  0  0  0  0  0
  145.9858  137.6628  151.4989 C   0  0  2  0  0  0  0  0  0  0  0  0
  146.4772  137.6984  150.1722 O   0  0  0  0  0  0  0  0  0  0  0  0
  146.5599  138.8589  152.2747 C   0  0  0  0  0  0  0  0  0  0  0  0
  147.9439  138.5922  152.7125 N   0  3  0  0  0  0  0  0  0  0  0  0
  148.1170  138.5265  154.1774 C   0  0  0  0  0  0  0  0  0  0  0  0
  149.6024  138.5333  154.5741 C   0  0  0  0  0  0  0  0  0  0  0  0
  149.9768  139.7349  155.2986 N   0  0  0  0  0  0  0  0  0  0  0  0
  151.1518  139.9984  155.9712 C   0  0  0  0  0  0  0  0  0  0  0  0
  151.0466  141.2548  156.4954 C   0  0  0  0  0  0  0  0  0  0  0  0
  149.7554  141.6869  156.0831 C   0  0  0  0  0  0  0  0  0  0  0  0
  149.1166  140.7743  155.3684 N   0  0  0  0  0  0  0  0  0  0  0  0
  145.9745  133.8356  151.6970 C   0  0  0  0  0  0  0  0  0  0  0  0
  146.8220  133.1260  152.5654 C   0  0  0  0  0  0  0  0  0  0  0  0
  146.8181  131.7157  152.5438 C   0  0  0  0  0  0  0  0  0  0  0  0
  147.7364  130.9585  153.4864 C   0  0  0  0  0  0  0  0  0  0  0  0
  145.1716  129.1418  150.9217 H   0  0  0  0  0  0  0  0  0  0  0  0
  145.7171  129.1020  152.5961 H   0  0  0  0  0  0  0  0  0  0  0  0
  146.8985  129.1206  151.2781 H   0  0  0  0  0  0  0  0  0  0  0  0
  144.4637  131.2278  150.0946 H   0  0  0  0  0  0  0  0  0  0  0  0
  144.4250  136.1639  150.1269 H   0  0  0  0  0  0  0  0  0  0  0  0
  146.0508  136.3019  153.1927 H   0  0  0  0  0  0  0  0  0  0  0  0
  147.4440  136.1763  152.1419 H   0  0  0  0  0  0  0  0  0  0  0  0
  144.8986  137.7478  151.4624 H   0  0  0  0  0  0  0  0  0  0  0  0
  145.7898  138.0063  149.6010 H   0  0  0  0  0  0  0  0  0  0  0  0
  146.5684  139.7420  151.6341 H   0  0  0  0  0  0  0  0  0  0  0  0
  145.9344  139.0950  153.1371 H   0  0  0  0  0  0  0  0  0  0  0  0
  148.2426  137.7144  152.3111 H   0  0  0  0  0  0  0  0  0  0  0  0
  147.5991  139.3634  154.6478 H   0  0  0  0  0  0  0  0  0  0  0  0
  147.6461  137.6134  154.5436 H   0  0  0  0  0  0  0  0  0  0  0  0
  149.8160  137.6740  155.2110 H   0  0  0  0  0  0  0  0  0  0  0  0
  150.2399  138.4335  153.6942 H   0  0  0  0  0  0  0  0  0  0  0  0
  151.9562  139.2793  156.0204 H   0  0  0  0  0  0  0  0  0  0  0  0
  151.7816  141.7858  157.0820 H   0  0  0  0  0  0  0  0  0  0  0  0
  149.2665  142.6294  156.2811 H   0  0  0  0  0  0  0  0  0  0  0  0
  147.4689  133.6629  153.2433 H   0  0  0  0  0  0  0  0  0  0  0  0
  148.3689  131.6389  154.0572 H   0  0  0  0  0  0  0  0  0  0  0  0
  148.3887  130.2860  152.9290 H   0  0  0  0  0  0  0  0  0  0  0  0
  147.1532  130.3695  154.1943 H   0  0  0  0  0  0  0  0  0  0  0  0
  148.5413  139.3243  152.3547 H   0  0  0  0  0  0  0  0  0  0  0  0
  1  2  1  0  0  0  0
  1 24  1  0  0  0  0
  1 25  1  0  0  0  0
  1 26  1  0  0  0  0
  2 22  1  0  0  0  0
  2  3  2  0  0  0  0
  3  4  1  0  0  0  0
  3 27  1  0  0  0  0
  4 20  2  0  0  0  0
  4  5  1  0  0  0  0
  5  6  2  0  0  0  0
  6  7  1  0  0  0  0
  6 28  1  0  0  0  0
  7  8  1  0  0  0  0
  7 20  1  0  0  0  0
  8  9  1  0  0  0  0
  8 29  1  0  0  0  0
  8 30  1  0  0  0  0
  9 10  1  0  0  0  0
  9 11  1  0  0  0  0
  9 31  1  0  0  0  0
 10 32  1  0  0  0  0
 11 12  1  0  0  0  0
 11 33  1  0  0  0  0
 11 34  1  0  0  0  0
 12 13  1  0  0  0  0
 12 35  1  0  0  0  0
 12 47  1  0  0  0  0
 13 14  1  0  0  0  0
 13 36  1  0  0  0  0
 13 37  1  0  0  0  0
 14 15  1  0  0  0  0
 14 38  1  0  0  0  0
 14 39  1  0  0  0  0
 15 19  1  0  0  0  0
 15 16  1  0  0  0  0
 16 17  2  0  0  0  0
 16 40  1  0  0  0  0
 17 18  1  0  0  0  0
 17 41  1  0  0  0  0
 18 19  2  0  0  0  0
 18 42  1  0  0  0  0
 20 21  1  0  0  0  0
 21 22  2  0  0  0  0
 21 43  1  0  0  0  0
 22 23  1  0  0  0  0
 23 44  1  0  0  0  0
 23 45  1  0  0  0  0
 23 46  1  0  0  0  0
M  CHG  1  12   1
M  END
> <s_m_source_file>
AV-unprocessed.smi

> <i_m_source_file_index>
766

> <i_lp_mmshare_version>
43012

> <i_f3d_flags>
0

> <s_epik_input>
W0NIM11jKFtjSF0xKWMoW0NIM10pW2NIXWMoYzEyKW4oW2NIXW4yKVtDSDJdW0NASF0oW09IXSlbQ0gyXVtOSF1bQ0gyXVtDSDJdbjNbY0hdW2NIXVtjSF1uMw==

> <s_epik_cmdline>
J2VwaWtfcHl0aG9uJywgJy1waCcsICc3LjAnLCAnLXRuJywgJzgnLCAnLW1hJywgJzIwMCcsICctbWV0YWxfYmluZGluZycsICctaW1hZScsICc8aW5maWxlLm1hZT4nLCAnLW9tYWUnLCAnPG91dGZpbGUubWFlPic=

> <r_lp_tautomer_probability>
1

> <r_epik_Ionization_Penalty>
0.127222

> <r_epik_Ionization_Penalty_Charging>
0.043815

> <r_epik_Ionization_Penalty_Neutral>
0.0834074

> <r_epik_State_Penalty>
0.115563

> <r_epik_Charging_Adjusted_Penalty>
0.159378

> <i_epik_Tot_Q>
1

> <i_epik_Tot_abs_Q>
1

> <r_epik_Metal_State_Penalty>
0.102594

> <b_epik_Metal_Only>
0

> <s_lp_Force_Field>
OPLS_2005

> <r_lp_Energy>
9.49244

> <b_lp_Chiralities_Consistent>
1

> <s_lp_Variant>
AV-unprocessed.smi:766-1

> <Gold.Version>
5.8.1

> <Gold.Id.Protein>
6NUR|6NUR_protein|mol2

> <Gold.PLP.Fitness>
62.3290

> <Gold.PLP.PLP>
-44.5953

> <Gold.PLP.part.hbond>
-4.0000

> <Gold.PLP.part.metal>
0.0000

> <Gold.PLP.part.buried>
-1.9841

> <Gold.PLP.part.nonpolar>
-40.4387

> <Gold.PLP.part.repulsive>
0.3739

> <Gold.PLP.ligand.clash>
0.0000

> <Gold.PLP.ligand.torsion>
1.1053

> <Gold.PLP.Chemscore.Hbond>
4.6000

> <Gold.PLP.Chemscore.CHOScore>
2.0000

> <Gold.PLP.Chemscore.Metal>
0.0000

> <Gold.Chemscore.Hbonds>
donor molecule, donor type, donor heavy atom, donor atom, acceptor molecule, acceptor atom, score
      L1  H    10    32       P1 10171  0.75
      L1  H    12    35       P1  7948  2.00
      L1  H    12    47       P1  7957  1.00
      P1  H  7954  7966       L1    10  0.75
      L1  C     6    28       P1 10171  1.00
      L1  C    18    42       P1  8028  1.00

> <Gold.PLP.Chemscore.Internal.Correction>
0.1443

> <Gold.Rescore>
     Score         DG    S(hbond)    S(metal)    S(lipo)     H(rot)  DE(clash)    DE(int)     intcor
     18.56     -22.96       3.71        0.00     107.57       2.93       1.90       2.50       ----

> <Gold.Chemscore.Fitness>
18.5623

> <Gold.Chemscore.DG>
-22.9572

> <Gold.Chemscore.ZeroCoef>
-5.4800

> <Gold.Chemscore.Hbond>
3.7129

> <Gold.Chemscore.Metal>
0.0000

> <Gold.Chemscore.Lipo>
107.5702

> <Gold.Chemscore.Internal_Hbond>
0.0000

> <Gold.Chemscore.DEClash>
1.8996

> <Gold.Chemscore.DEInternal>
2.4953

> <Gold.Chemscore.Rot>
2.9335

> <Gold.Chemscore.Internal.Correction>
   9.000000E+99

> <Gold.Chemscore.Hbonds>
donor molecule, donor type, donor heavy atom, donor atom, acceptor molecule, acceptor atom, score
      L1  H    10    32       P1 10171  0.74
      L1  H    12    35       P1  7948  1.00
      L1  H    12    47       P1  7957  0.97
      P1  H  7954  7966       L1    10  0.72

> <Gold.Chemscore.Hbond.Weighted>
-12.4012

> <Gold.Chemscore.Metal.Weighted>
-0.0000

> <Gold.Chemscore.Lipo.Weighted>
-12.5857

> <Gold.Chemscore.Internal_Hbond.Weighted>
0.0000

> <Gold.Chemscore.DEClash.Weighted>
1.8996

> <Gold.Chemscore.DEInternal.Weighted>
2.4953

> <Gold.Chemscore.Rot.Weighted>
7.5097

> <Gold.Chemscore.Internal.Correction.Weighted>
   9.000000E+99

> <Gold.Protein.RotatedTorsions>
[ 6907 6896 6895 6894 ] final -148.04 input  -60.11 | X-H torsion
[ 7974 7965 7964 7962 ] final  -77.66 input  175.53 | X-H torsion
[ 8008 7997 7996 7995 ] final   95.46 input   59.86 | X-H torsion
[ 10167 10162 10161 10158 ] final   78.55 input  -65.29 | X-H torsion
[ 10718 10713 10712 10709 ] final   90.18 input   66.30 | X-H torsion
[ 10763 10752 10751 10750 ] final   90.93 input  -60.55 | X-H torsion
[ 11005 11000 10999 10996 ] final  128.30 input  -57.11 | X-H torsion

> <Gold.Protein.ActiveResidues>
 VAL166  LYS551  ARG553  GLY616  TRP617  ASP618  TYR619  PRO620  LYS621  CYS622 
 ASP623  PHE694  ASN695  SER759  ASP760  ASP761  ALA762  ILE779  LEU786  VAL792 
 PHE793  MET794  SER795  GLU796  ALA797  LYS798  CYS799  TRP800  GLU811  SER814 

> <Gold.Protein.RotatedAtoms>
  151.1642  133.4825  159.2593 H   0  0  0  0  0  0  0  0  0  0  0  0  # atno 6907 bound_to 6896
  151.1423  135.0185  159.8641 H   0  0  0  0  0  0  0  0  0  0  0  0  # atno 6908 bound_to 6896
  152.5462  134.1534  159.8581 H   0  0  0  0  0  0  0  0  0  0  0  0  # atno 6909 bound_to 6896
  145.5968  140.9417  143.1262 H   0  0  0  0  0  0  0  0  0  0  0  0  # atno 7974 bound_to 7965
  156.0691  140.3286  155.7553 H   0  0  0  0  0  0  0  0  0  0  0  0  # atno 8008 bound_to 7997
  155.5334  140.0595  157.2902 H   0  0  0  0  0  0  0  0  0  0  0  0  # atno 8009 bound_to 7997
  154.4520  140.1923  156.0507 H   0  0  0  0  0  0  0  0  0  0  0  0  # atno 8010 bound_to 7997
  139.9697  144.5903  150.7997 H   0  0  0  0  0  0  0  0  0  0  0  0  # atno 10167 bound_to 10162
  157.6958  131.0361  150.3539 H   0  0  0  0  0  0  0  0  0  0  0  0  # atno 10718 bound_to 10713
  153.2028  135.4416  155.0287 H   0  0  0  0  0  0  0  0  0  0  0  0  # atno 10763 bound_to 10752
  154.8157  135.3314  154.7186 H   0  0  0  0  0  0  0  0  0  0  0  0  # atno 10764 bound_to 10752
  153.7630  135.6990  153.4977 H   0  0  0  0  0  0  0  0  0  0  0  0  # atno 10765 bound_to 10752
  139.9553  134.9614  156.8982 H   0  0  0  0  0  0  0  0  0  0  0  0  # atno 11005 bound_to 11000
  144.7327  139.7677  143.7341 LP  0  0  0  0  0  0  0  0  0  0  0  0  # atno 17320 bound_to 7965
  146.1606  139.4719  142.9990 LP  0  0  0  0  0  0  0  0  0  0  0  0  # atno 17321 bound_to 7965
  140.7526  143.2993  151.3122 LP  0  0  0  0  0  0  0  0  0  0  0  0  # atno 17342 bound_to 10162
  139.6491  144.0396  152.2613 LP  0  0  0  0  0  0  0  0  0  0  0  0  # atno 17343 bound_to 10162
  156.3983  130.3911  149.6978 LP  0  0  0  0  0  0  0  0  0  0  0  0  # atno 17370 bound_to 10713
  156.4304  130.7812  151.2832 LP  0  0  0  0  0  0  0  0  0  0  0  0  # atno 17371 bound_to 10713
  140.5623  134.0523  155.7403 LP  0  0  0  0  0  0  0  0  0  0  0  0  # atno 17394 bound_to 11000
  141.1224  133.9439  157.2703 LP  0  0  0  0  0  0  0  0  0  0  0  0  # atno 17395 bound_to 11000

$$$$
