AV-unprocessed.smi:1894|AV-procd|sdf|7679|dock6
  -GOLD-   22720 9423D 1   1.00000     0.00000
 Structure written by MMmdl.
 32 34  0  0  0  0  0  0  0  0  1 V2000
  150.8466  140.0502  158.1641 O   0  0  0  0  0  0  0  0  0  0  0  0
  151.1550  140.9837  157.4241 C   0  0  0  0  0  0  0  0  0  0  0  0
  151.0800  140.8110  155.9072 C   0  0  0  0  0  0  0  0  0  0  0  0
  151.7291  139.5808  155.4941 N   0  0  0  0  0  0  0  0  0  0  0  0
  151.4000  138.3080  155.7215 C   0  0  0  0  0  0  0  0  0  0  0  0
  152.2422  137.4339  155.1879 N   0  0  0  0  0  0  0  0  0  0  0  0
  153.1275  138.2964  154.6054 C   0  0  0  0  0  0  0  0  0  0  0  0
  152.8665  139.5947  154.7591 N   0  0  0  0  0  0  0  0  0  0  0  0
  151.5725  142.1797  157.8675 N   0  0  0  0  0  0  0  0  0  0  0  0
  151.7399  142.5603  159.2659 C   0  0  0  0  0  0  0  0  0  0  0  0
  152.2117  143.9963  159.4293 C   0  0  0  0  0  0  0  0  0  0  0  0
  151.3172  145.1623  159.0782 C   0  0  0  0  0  0  0  0  0  0  0  0
  152.5337  144.8626  158.2337 C   0  0  0  0  0  0  0  0  0  0  0  0
  152.6792  141.6118  159.9886 C   0  0  0  0  0  0  0  0  0  0  0  0
  153.4467  142.0557  161.2107 C   0  0  0  0  0  0  0  0  0  0  0  0
  154.1789  141.7766  159.9175 C   0  0  0  0  0  0  0  0  0  0  0  0
  150.0378  140.7820  155.5870 H   0  0  0  0  0  0  0  0  0  0  0  0
  151.5482  141.6591  155.4046 H   0  0  0  0  0  0  0  0  0  0  0  0
  150.5293  138.0163  156.2904 H   0  0  0  0  0  0  0  0  0  0  0  0
  153.9904  137.9571  154.0513 H   0  0  0  0  0  0  0  0  0  0  0  0
  151.8075  142.8793  157.1782 H   0  0  0  0  0  0  0  0  0  0  0  0
  150.7674  142.4758  159.7560 H   0  0  0  0  0  0  0  0  0  0  0  0
  152.8457  144.1438  160.3018 H   0  0  0  0  0  0  0  0  0  0  0  0
  150.3444  144.9480  158.6408 H   0  0  0  0  0  0  0  0  0  0  0  0
  151.3555  146.0368  159.7244 H   0  0  0  0  0  0  0  0  0  0  0  0
  153.3845  145.5355  158.3170 H   0  0  0  0  0  0  0  0  0  0  0  0
  152.3615  144.4498  157.2420 H   0  0  0  0  0  0  0  0  0  0  0  0
  152.3229  140.5831  160.0068 H   0  0  0  0  0  0  0  0  0  0  0  0
  153.3525  143.0952  161.5192 H   0  0  0  0  0  0  0  0  0  0  0  0
  153.5607  141.3375  162.0201 H   0  0  0  0  0  0  0  0  0  0  0  0
  154.7805  140.8715  159.8639 H   0  0  0  0  0  0  0  0  0  0  0  0
  154.5756  142.6328  159.3759 H   0  0  0  0  0  0  0  0  0  0  0  0
  1  2  2  0  0  0  0
  2  3  1  0  0  0  0
  2  9  1  0  0  0  0
  3  4  1  0  0  0  0
  3 17  1  0  0  0  0
  3 18  1  0  0  0  0
  4  8  1  0  0  0  0
  4  5  1  0  0  0  0
  5  6  2  0  0  0  0
  5 19  1  0  0  0  0
  6  7  1  0  0  0  0
  7  8  2  0  0  0  0
  7 20  1  0  0  0  0
  9 10  1  0  0  0  0
  9 21  1  0  0  0  0
 10 11  1  0  0  0  0
 10 14  1  0  0  0  0
 10 22  1  0  0  0  0
 11 13  1  0  0  0  0
 11 12  1  0  0  0  0
 11 23  1  0  0  0  0
 12 13  1  0  0  0  0
 12 24  1  0  0  0  0
 12 25  1  0  0  0  0
 13 26  1  0  0  0  0
 13 27  1  0  0  0  0
 14 16  1  0  0  0  0
 14 15  1  0  0  0  0
 14 28  1  0  0  0  0
 15 16  1  0  0  0  0
 15 29  1  0  0  0  0
 15 30  1  0  0  0  0
 16 31  1  0  0  0  0
 16 32  1  0  0  0  0
M  END
> <s_m_source_file>
AV-unprocessed.smi

> <i_m_source_file_index>
1894

> <i_lp_mmshare_version>
43012

> <i_f3d_flags>
0

> <s_epik_input>
W0NIMl0xW0NIMl1bQ0hdMVtDSF0oW0NIXTJbQ0gyXVtDSDJdMilbTkhdQyg9TylbQ0gyXW4zW2NIXW5bY0hdbjM=

> <s_epik_cmdline>
J2VwaWtfcHl0aG9uJywgJy1waCcsICc3LjAnLCAnLXRuJywgJzgnLCAnLW1hJywgJzIwMCcsICctbWV0YWxfYmluZGluZycsICctaW1hZScsICc8aW5maWxlLm1hZT4nLCAnLW9tYWUnLCAnPG91dGZpbGUubWFlPic=

> <r_lp_tautomer_probability>
1

> <r_epik_Ionization_Penalty>
9.18136e-06

> <r_epik_Ionization_Penalty_Charging>
0

> <r_epik_Ionization_Penalty_Neutral>
9.18136e-06

> <r_epik_State_Penalty>
-0

> <r_epik_Charging_Adjusted_Penalty>
0

> <i_epik_Tot_Q>
0

> <i_epik_Tot_abs_Q>
0

> <r_epik_Metal_State_Penalty>
-0

> <b_epik_Metal_Only>
0

> <s_lp_Force_Field>
OPLS_2005

> <r_lp_Energy>
25.0863

> <b_lp_Chiralities_Consistent>
1

> <s_lp_Variant>
AV-unprocessed.smi:1894-1

> <Gold.Version>
5.8.1

> <Gold.Id.Protein>
6NUR|6NUR_protein|mol2

> <Gold.PLP.Fitness>
46.4760

> <Gold.PLP.PLP>
-42.1334

> <Gold.PLP.part.hbond>
-3.0000

> <Gold.PLP.part.metal>
0.0000

> <Gold.PLP.part.buried>
-4.6695

> <Gold.PLP.part.nonpolar>
-35.8454

> <Gold.PLP.part.repulsive>
0.1364

> <Gold.PLP.ligand.clash>
0.0000

> <Gold.PLP.ligand.torsion>
1.5109

> <Gold.PLP.Chemscore.Hbond>
1.7450

> <Gold.PLP.Chemscore.CHOScore>
0.0000

> <Gold.PLP.Chemscore.Metal>
0.0000

> <Gold.Chemscore.Hbonds>
donor molecule, donor type, donor heavy atom, donor atom, acceptor molecule, acceptor atom, score
      P1  H  7989  7998       L1     8  0.05
      P1  H  7997  8008       L1     8  0.99
      P1  H 10752 10765       L1     6  0.75

> <Gold.PLP.Chemscore.Internal.Correction>
2.1293

> <Gold.Rescore>
     Score         DG    S(hbond)    S(metal)    S(lipo)     H(rot)  DE(clash)    DE(int)     intcor
     11.47     -13.40       1.27        0.00      86.06       2.50       0.45       1.48       ----

> <Gold.Chemscore.Fitness>
11.4674

> <Gold.Chemscore.DG>
-13.4026

> <Gold.Chemscore.ZeroCoef>
-5.4800

> <Gold.Chemscore.Hbond>
1.2717

> <Gold.Chemscore.Metal>
0.0000

> <Gold.Chemscore.Lipo>
86.0625

> <Gold.Chemscore.Internal_Hbond>
0.0000

> <Gold.Chemscore.DEClash>
0.4539

> <Gold.Chemscore.DEInternal>
1.4813

> <Gold.Chemscore.Rot>
2.4977

> <Gold.Chemscore.Internal.Correction>
   9.000000E+99

> <Gold.Chemscore.Hbonds>
donor molecule, donor type, donor heavy atom, donor atom, acceptor molecule, acceptor atom, score
      P1  H  7997  8008       L1     8  0.24
      P1  H 10752 10765       L1     6  0.27

> <Gold.Chemscore.Hbond.Weighted>
-4.2474

> <Gold.Chemscore.Metal.Weighted>
-0.0000

> <Gold.Chemscore.Lipo.Weighted>
-10.0693

> <Gold.Chemscore.Internal_Hbond.Weighted>
0.0000

> <Gold.Chemscore.DEClash.Weighted>
0.4539

> <Gold.Chemscore.DEInternal.Weighted>
1.4813

> <Gold.Chemscore.Rot.Weighted>
6.3941

> <Gold.Chemscore.Internal.Correction.Weighted>
   9.000000E+99

> <Gold.Protein.RotatedTorsions>
[ 6907 6896 6895 6894 ] final -150.17 input  -60.11 | X-H torsion
[ 7974 7965 7964 7962 ] final   74.65 input  175.53 | X-H torsion
[ 8008 7997 7996 7995 ] final  -10.22 input   59.86 | X-H torsion
[ 10167 10162 10161 10158 ] final  174.03 input  -65.29 | X-H torsion
[ 10718 10713 10712 10709 ] final   89.47 input   66.30 | X-H torsion
[ 10763 10752 10751 10750 ] final -176.73 input  -60.55 | X-H torsion
[ 11005 11000 10999 10996 ] final -138.49 input  -57.11 | X-H torsion

> <Gold.Protein.ActiveResidues>
 VAL166  LYS551  ARG553  GLY616  TRP617  ASP618  TYR619  PRO620  LYS621  CYS622 
 ASP623  PHE694  ASN695  SER759  ASP760  ASP761  ALA762  ILE779  LEU786  VAL792 
 PHE793  MET794  SER795  GLU796  ALA797  LYS798  CYS799  TRP800  GLU811  SER814 

> <Gold.Protein.RotatedAtoms>
  151.1947  133.4646  159.2595 H   0  0  0  0  0  0  0  0  0  0  0  0  # atno 6907 bound_to 6896
  151.1128  135.0036  159.8512 H   0  0  0  0  0  0  0  0  0  0  0  0  # atno 6908 bound_to 6896
  152.5451  134.1865  159.8709 H   0  0  0  0  0  0  0  0  0  0  0  0  # atno 6909 bound_to 6896
  145.7255  139.2664  143.1571 H   0  0  0  0  0  0  0  0  0  0  0  0  # atno 7974 bound_to 7965
  154.5574  140.2334  155.8388 H   0  0  0  0  0  0  0  0  0  0  0  0  # atno 8008 bound_to 7997
  156.2000  140.3055  155.9467 H   0  0  0  0  0  0  0  0  0  0  0  0  # atno 8009 bound_to 7997
  155.2953  140.0428  157.3016 H   0  0  0  0  0  0  0  0  0  0  0  0  # atno 8010 bound_to 7997
  139.5128  144.3193  152.0218 H   0  0  0  0  0  0  0  0  0  0  0  0  # atno 10167 bound_to 10162
  157.6955  131.0334  150.3431 H   0  0  0  0  0  0  0  0  0  0  0  0  # atno 10718 bound_to 10713
  154.5688  135.2826  155.0848 H   0  0  0  0  0  0  0  0  0  0  0  0  # atno 10763 bound_to 10752
  154.2228  135.6388  153.5154 H   0  0  0  0  0  0  0  0  0  0  0  0  # atno 10764 bound_to 10752
  153.0051  135.5518  154.6305 H   0  0  0  0  0  0  0  0  0  0  0  0  # atno 10765 bound_to 10752
  140.8611  134.2168  157.4707 H   0  0  0  0  0  0  0  0  0  0  0  0  # atno 11005 bound_to 11000
  146.0586  140.7995  142.9746 LP  0  0  0  0  0  0  0  0  0  0  0  0  # atno 17320 bound_to 7965
  144.6906  140.3162  143.7240 LP  0  0  0  0  0  0  0  0  0  0  0  0  # atno 17321 bound_to 7965
  140.2635  144.4041  150.6177 LP  0  0  0  0  0  0  0  0  0  0  0  0  # atno 17342 bound_to 10162
  140.6140  143.2171  151.6829 LP  0  0  0  0  0  0  0  0  0  0  0  0  # atno 17343 bound_to 10162
  156.3889  130.3894  149.7044 LP  0  0  0  0  0  0  0  0  0  0  0  0  # atno 17370 bound_to 10713
  156.4401  130.7857  151.2878 LP  0  0  0  0  0  0  0  0  0  0  0  0  # atno 17371 bound_to 10713
  139.8707  134.9730  156.4792 LP  0  0  0  0  0  0  0  0  0  0  0  0  # atno 17394 bound_to 11000
  140.8682  133.8008  155.9336 LP  0  0  0  0  0  0  0  0  0  0  0  0  # atno 17395 bound_to 11000

$$$$
