AV-unprocessed.smi:2664|AV-procd|sdf|10326|dock2
  -GOLD-   2272014343D 1   1.00000     0.00000
 Structure written by MMmdl.
 43 44  0  0  0  0  0  0  0  0  1 V2000
  149.3846  140.7760  157.2546 O   0  0  0  0  0  0  0  0  0  0  0  0
  149.4478  141.8272  156.6177 C   0  0  0  0  0  0  0  0  0  0  0  0
  150.2862  142.8452  156.8781 N   0  0  0  0  0  0  0  0  0  0  0  0
  151.3041  142.9308  157.8667 C   0  0  0  0  0  0  0  0  0  0  0  0
  151.7835  141.7252  158.4196 C   0  0  0  0  0  0  0  0  0  0  0  0
  152.7792  141.7821  159.4152 C   0  0  0  0  0  0  0  0  0  0  0  0
  153.2982  142.9381  159.8795 N   0  0  0  0  0  0  0  0  0  0  0  0
  152.8290  144.0919  159.3589 C   0  0  0  0  0  0  0  0  0  0  0  0
  151.8360  144.1466  158.3605 C   0  0  0  0  0  0  0  0  0  0  0  0
  148.6585  142.1110  155.5702 N   0  0  0  0  0  0  0  0  0  0  0  0
  147.6293  141.2351  155.0029 C   0  0  2  0  0  0  0  0  0  0  0  0
  148.1884  140.5713  153.7184 C   0  0  0  0  0  0  0  0  0  0  0  0
  147.2177  139.6156  152.9989 C   0  0  0  0  0  0  0  0  0  0  0  0
  147.3529  138.3019  153.4981 O   0  0  0  0  0  0  0  0  0  0  0  0
  146.3167  142.0386  154.7687 C   0  0  0  0  0  0  0  0  0  0  0  0
  146.5502  143.3050  153.9044 C   0  0  0  0  0  0  0  0  0  0  0  0
  145.2590  144.1062  153.6747 C   0  0  0  0  0  0  0  0  0  0  0  0
  144.6032  144.4968  155.0045 C   0  0  0  0  0  0  0  0  0  0  0  0
  144.3396  143.2539  155.8629 C   0  0  0  0  0  0  0  0  0  0  0  0
  145.6280  142.4477  156.0942 C   0  0  0  0  0  0  0  0  0  0  0  0
  150.1567  143.6768  156.3209 H   0  0  0  0  0  0  0  0  0  0  0  0
  151.4017  140.7711  158.0868 H   0  0  0  0  0  0  0  0  0  0  0  0
  153.1671  140.8738  159.8522 H   0  0  0  0  0  0  0  0  0  0  0  0
  153.2534  145.0023  159.7559 H   0  0  0  0  0  0  0  0  0  0  0  0
  151.4997  145.1099  158.0095 H   0  0  0  0  0  0  0  0  0  0  0  0
  148.7804  143.0060  155.1196 H   0  0  0  0  0  0  0  0  0  0  0  0
  147.3965  140.4368  155.7097 H   0  0  0  0  0  0  0  0  0  0  0  0
  148.4883  141.3310  152.9983 H   0  0  0  0  0  0  0  0  0  0  0  0
  149.0960  140.0213  153.9697 H   0  0  0  0  0  0  0  0  0  0  0  0
  146.1901  139.9396  153.1648 H   0  0  0  0  0  0  0  0  0  0  0  0
  147.3752  139.6149  151.9204 H   0  0  0  0  0  0  0  0  0  0  0  0
  147.8089  137.7802  152.8551 H   0  0  0  0  0  0  0  0  0  0  0  0
  145.6259  141.3936  154.2230 H   0  0  0  0  0  0  0  0  0  0  0  0
  147.2931  143.9433  154.3852 H   0  0  0  0  0  0  0  0  0  0  0  0
  146.9597  143.0407  152.9298 H   0  0  0  0  0  0  0  0  0  0  0  0
  145.4770  145.0019  153.0924 H   0  0  0  0  0  0  0  0  0  0  0  0
  144.5617  143.5140  153.0809 H   0  0  0  0  0  0  0  0  0  0  0  0
  145.2516  145.1868  155.5458 H   0  0  0  0  0  0  0  0  0  0  0  0
  143.6691  145.0279  154.8190 H   0  0  0  0  0  0  0  0  0  0  0  0
  143.9114  143.5502  156.8208 H   0  0  0  0  0  0  0  0  0  0  0  0
  143.5963  142.6223  155.3747 H   0  0  0  0  0  0  0  0  0  0  0  0
  145.3676  141.5701  156.6834 H   0  0  0  0  0  0  0  0  0  0  0  0
  146.3190  143.0345  156.7009 H   0  0  0  0  0  0  0  0  0  0  0  0
  1  2  2  0  0  0  0
  2  3  1  0  0  0  0
  2 10  1  0  0  0  0
  3  4  1  0  0  0  0
  3 21  1  0  0  0  0
  4  9  1  0  0  0  0
  4  5  2  0  0  0  0
  5  6  1  0  0  0  0
  5 22  1  0  0  0  0
  6  7  2  0  0  0  0
  6 23  1  0  0  0  0
  7  8  1  0  0  0  0
  8  9  2  0  0  0  0
  8 24  1  0  0  0  0
  9 25  1  0  0  0  0
 10 11  1  0  0  0  0
 10 26  1  0  0  0  0
 11 12  1  0  0  0  0
 11 15  1  0  0  0  0
 11 27  1  0  0  0  0
 12 13  1  0  0  0  0
 12 28  1  0  0  0  0
 12 29  1  0  0  0  0
 13 14  1  0  0  0  0
 13 30  1  0  0  0  0
 13 31  1  0  0  0  0
 14 32  1  0  0  0  0
 15 20  1  0  0  0  0
 15 16  1  0  0  0  0
 15 33  1  0  0  0  0
 16 17  1  0  0  0  0
 16 34  1  0  0  0  0
 16 35  1  0  0  0  0
 17 18  1  0  0  0  0
 17 36  1  0  0  0  0
 17 37  1  0  0  0  0
 18 19  1  0  0  0  0
 18 38  1  0  0  0  0
 18 39  1  0  0  0  0
 19 20  1  0  0  0  0
 19 40  1  0  0  0  0
 19 41  1  0  0  0  0
 20 42  1  0  0  0  0
 20 43  1  0  0  0  0
M  END
> <s_m_source_file>
AV-unprocessed.smi

> <i_m_source_file_index>
2664

> <i_lp_mmshare_version>
43012

> <i_f3d_flags>
0

> <s_epik_input>
W2NIXTFbY0hdbltjSF1bY0hdYzFbTkhdQyg9TylbTkhdW0NASF0oW0NIMl1bQ0gyXVtPSF0pW0NIXTJbQ0gyXVtDSDJdW0NIMl1bQ0gyXVtDSDJdMg==

> <s_epik_cmdline>
J2VwaWtfcHl0aG9uJywgJy1waCcsICc3LjAnLCAnLXRuJywgJzgnLCAnLW1hJywgJzIwMCcsICctbWV0YWxfYmluZGluZycsICctaW1hZScsICc8aW5maWxlLm1hZT4nLCAnLW9tYWUnLCAnPG91dGZpbGUubWFlPic=

> <r_epik_Ionization_Penalty>
0.119281

> <r_epik_Ionization_Penalty_Charging>
0

> <r_epik_Ionization_Penalty_Neutral>
0.119281

> <r_epik_State_Penalty>
0.108806

> <r_epik_Charging_Adjusted_Penalty>
0.108806

> <i_epik_Tot_Q>
0

> <i_epik_Tot_abs_Q>
0

> <r_epik_Metal_State_Penalty>
0.0904205

> <b_epik_Metal_Only>
0

> <s_lp_Force_Field>
OPLS_2005

> <r_lp_Energy>
21.6864

> <b_lp_Chiralities_Consistent>
1

> <s_lp_Variant>
AV-unprocessed.smi:2664-1

> <Gold.Version>
5.8.1

> <Gold.Id.Protein>
6NUR|6NUR_protein|mol2

> <Gold.PLP.Fitness>
46.0331

> <Gold.PLP.PLP>
-38.6523

> <Gold.PLP.part.hbond>
-3.0000

> <Gold.PLP.part.metal>
0.0000

> <Gold.PLP.part.buried>
-3.8266

> <Gold.PLP.part.nonpolar>
-32.8389

> <Gold.PLP.part.repulsive>
0.1525

> <Gold.PLP.ligand.clash>
0.0000

> <Gold.PLP.ligand.torsion>
0.5596

> <Gold.PLP.Chemscore.Hbond>
2.7920

> <Gold.PLP.Chemscore.CHOScore>
0.0000

> <Gold.PLP.Chemscore.Metal>
0.0000

> <Gold.Chemscore.Hbonds>
donor molecule, donor type, donor heavy atom, donor atom, acceptor molecule, acceptor atom, score
      L1  H     3    21       P1  8028  0.85
      L1  H    10    26       P1  8028  0.74
      L1  H    14    32       P1  7948  0.68

> <Gold.PLP.Chemscore.Internal.Correction>
0.1241

> <Gold.Rescore>
     Score         DG    S(hbond)    S(metal)    S(lipo)     H(rot)  DE(clash)    DE(int)     intcor
     18.65     -21.07       2.83        0.00     101.25       2.23       0.47       1.94       ----

> <Gold.Chemscore.Fitness>
18.6534

> <Gold.Chemscore.DG>
-21.0692

> <Gold.Chemscore.ZeroCoef>
-5.4800

> <Gold.Chemscore.Hbond>
2.8260

> <Gold.Chemscore.Metal>
0.0000

> <Gold.Chemscore.Lipo>
101.2508

> <Gold.Chemscore.Internal_Hbond>
0.0000

> <Gold.Chemscore.DEClash>
0.4726

> <Gold.Chemscore.DEInternal>
1.9432

> <Gold.Chemscore.Rot>
2.2251

> <Gold.Chemscore.Internal.Correction>
   9.000000E+99

> <Gold.Chemscore.Hbonds>
donor molecule, donor type, donor heavy atom, donor atom, acceptor molecule, acceptor atom, score
      L1  H     3    21       P1  8028  0.83
      L1  H    10    26       P1  8028  0.74
      L1  H    14    32       P1  7948  0.69

> <Gold.Chemscore.Hbond.Weighted>
-9.4390

> <Gold.Chemscore.Metal.Weighted>
-0.0000

> <Gold.Chemscore.Lipo.Weighted>
-11.8463

> <Gold.Chemscore.Internal_Hbond.Weighted>
0.0000

> <Gold.Chemscore.DEClash.Weighted>
0.4726

> <Gold.Chemscore.DEInternal.Weighted>
1.9432

> <Gold.Chemscore.Rot.Weighted>
5.6962

> <Gold.Chemscore.Internal.Correction.Weighted>
   9.000000E+99

> <Gold.Protein.RotatedTorsions>
[ 6907 6896 6895 6894 ] final   -7.41 input  -60.11 | X-H torsion
[ 7974 7965 7964 7962 ] final   73.06 input  175.53 | X-H torsion
[ 8008 7997 7996 7995 ] final  116.43 input   59.86 | X-H torsion
[ 10167 10162 10161 10158 ] final  -13.10 input  -65.29 | X-H torsion
[ 10718 10713 10712 10709 ] final -174.94 input   66.30 | X-H torsion
[ 10763 10752 10751 10750 ] final   68.58 input  -60.55 | X-H torsion
[ 11005 11000 10999 10996 ] final    8.96 input  -57.11 | X-H torsion

> <Gold.Protein.ActiveResidues>
 VAL166  LYS551  ARG553  GLY616  TRP617  ASP618  TYR619  PRO620  LYS621  CYS622 
 ASP623  PHE694  ASN695  SER759  ASP760  ASP761  ALA762  ILE779  LEU786  VAL792 
 PHE793  MET794  SER795  GLU796  ALA797  LYS798  CYS799  TRP800  GLU811  SER814 

> <Gold.Protein.RotatedAtoms>
  151.4500  135.1029  159.9694 H   0  0  0  0  0  0  0  0  0  0  0  0  # atno 6907 bound_to 6896
  152.4892  133.8449  159.7182 H   0  0  0  0  0  0  0  0  0  0  0  0  # atno 6908 bound_to 6896
  150.9029  133.7036  159.2901 H   0  0  0  0  0  0  0  0  0  0  0  0  # atno 6909 bound_to 6896
  145.7456  139.2738  143.1461 H   0  0  0  0  0  0  0  0  0  0  0  0  # atno 7974 bound_to 7965
  156.2439  140.2917  156.0522 H   0  0  0  0  0  0  0  0  0  0  0  0  # atno 8008 bound_to 7997
  155.1869  140.0406  157.2910 H   0  0  0  0  0  0  0  0  0  0  0  0  # atno 8009 bound_to 7997
  154.6221  140.2478  155.7543 H   0  0  0  0  0  0  0  0  0  0  0  0  # atno 8010 bound_to 7997
  140.7175  143.5462  150.9353 H   0  0  0  0  0  0  0  0  0  0  0  0  # atno 10167 bound_to 10162
  156.7926  130.9523  151.3120 H   0  0  0  0  0  0  0  0  0  0  0  0  # atno 10718 bound_to 10713
  153.0242  135.5242  154.7156 H   0  0  0  0  0  0  0  0  0  0  0  0  # atno 10763 bound_to 10752
  154.6226  135.2890  155.0311 H   0  0  0  0  0  0  0  0  0  0  0  0  # atno 10764 bound_to 10752
  154.1292  135.6595  153.4971 H   0  0  0  0  0  0  0  0  0  0  0  0  # atno 10765 bound_to 10752
  140.5311  134.0466  155.7873 H   0  0  0  0  0  0  0  0  0  0  0  0  # atno 11005 bound_to 11000
  146.0406  140.8169  142.9830 LP  0  0  0  0  0  0  0  0  0  0  0  0  # atno 17320 bound_to 7965
  144.6861  140.2904  143.7279 LP  0  0  0  0  0  0  0  0  0  0  0  0  # atno 17321 bound_to 7965
  139.9185  143.6634  152.3101 LP  0  0  0  0  0  0  0  0  0  0  0  0  # atno 17342 bound_to 10162
  139.7043  144.7630  151.1220 LP  0  0  0  0  0  0  0  0  0  0  0  0  # atno 17343 bound_to 10162
  157.6593  130.8952  149.9796 LP  0  0  0  0  0  0  0  0  0  0  0  0  # atno 17370 bound_to 10713
  156.1150  130.3648  149.9984 LP  0  0  0  0  0  0  0  0  0  0  0  0  # atno 17371 bound_to 10713
  141.1281  133.9349  157.2593 LP  0  0  0  0  0  0  0  0  0  0  0  0  # atno 17394 bound_to 11000
  139.9554  135.0166  156.9112 LP  0  0  0  0  0  0  0  0  0  0  0  0  # atno 17395 bound_to 11000

$$$$
