AV-unprocessed.smi:2545|AV-procd|sdf|9996|dock4
  -GOLD-   2272014 43D 1   1.00000     0.00000
 Structure written by MMmdl.
 26 27  0  0  0  0  0  0  0  0  1 V2000
  149.5611  142.3091  155.0670 N   0  0  0  0  0  0  0  0  0  0  0  0
  148.9040  141.2200  154.4912 C   0  0  0  0  0  0  0  0  0  0  0  0
  147.5924  141.3773  154.0016 C   0  0  0  0  0  0  0  0  0  0  0  0
  146.9503  140.2640  153.4251 C   0  0  0  0  0  0  0  0  0  0  0  0
  147.5278  139.0494  153.3167 N   0  0  0  0  0  0  0  0  0  0  0  0
  148.7845  138.9043  153.7874 C   0  0  0  0  0  0  0  0  0  0  0  0
  149.5252  139.9521  154.3853 C   0  0  0  0  0  0  0  0  0  0  0  0
  150.8311  139.7482  154.8613 N   0  0  0  0  0  0  0  0  0  0  0  0
  150.9599  139.9303  156.3014 C   0  0  0  0  0  0  0  0  0  0  0  0
  152.4382  139.8197  156.7142 C   0  0  0  0  0  0  0  0  0  0  0  0
  152.9653  138.5712  156.2735 O   0  0  0  0  0  0  0  0  0  0  0  0
  152.9033  138.4343  154.8563 C   0  0  0  0  0  0  0  0  0  0  0  0
  151.4372  138.5076  154.3948 C   0  0  0  0  0  0  0  0  0  0  0  0
  150.5009  142.2334  155.4284 H   0  0  0  0  0  0  0  0  0  0  0  0
  149.1135  143.2123  155.1314 H   0  0  0  0  0  0  0  0  0  0  0  0
  147.0844  142.3287  154.0641 H   0  0  0  0  0  0  0  0  0  0  0  0
  145.9448  140.3520  153.0409 H   0  0  0  0  0  0  0  0  0  0  0  0
  149.2110  137.9173  153.6831 H   0  0  0  0  0  0  0  0  0  0  0  0
  150.5627  140.9049  156.5882 H   0  0  0  0  0  0  0  0  0  0  0  0
  150.3738  139.1742  156.8256 H   0  0  0  0  0  0  0  0  0  0  0  0
  153.0214  140.6412  156.2946 H   0  0  0  0  0  0  0  0  0  0  0  0
  152.5321  139.8837  157.7982 H   0  0  0  0  0  0  0  0  0  0  0  0
  153.5005  139.2128  154.3786 H   0  0  0  0  0  0  0  0  0  0  0  0
  153.3405  137.4775  154.5710 H   0  0  0  0  0  0  0  0  0  0  0  0
  150.8851  137.6526  154.7874 H   0  0  0  0  0  0  0  0  0  0  0  0
  151.3838  138.4560  153.3066 H   0  0  0  0  0  0  0  0  0  0  0  0
  1  2  1  0  0  0  0
  1 14  1  0  0  0  0
  1 15  1  0  0  0  0
  2  7  1  0  0  0  0
  2  3  2  0  0  0  0
  3  4  1  0  0  0  0
  3 16  1  0  0  0  0
  4  5  2  0  0  0  0
  4 17  1  0  0  0  0
  5  6  1  0  0  0  0
  6  7  2  0  0  0  0
  6 18  1  0  0  0  0
  7  8  1  0  0  0  0
  8 13  1  0  0  0  0
  8  9  1  0  0  0  0
  9 10  1  0  0  0  0
  9 19  1  0  0  0  0
  9 20  1  0  0  0  0
 10 11  1  0  0  0  0
 10 21  1  0  0  0  0
 10 22  1  0  0  0  0
 11 12  1  0  0  0  0
 12 13  1  0  0  0  0
 12 23  1  0  0  0  0
 12 24  1  0  0  0  0
 13 25  1  0  0  0  0
 13 26  1  0  0  0  0
M  END
> <s_m_source_file>
AV-unprocessed.smi

> <i_m_source_file_index>
2545

> <i_lp_mmshare_version>
43012

> <i_f3d_flags>
0

> <s_epik_input>
W05IMl1jMVtjSF1bY0hdbltjSF1jMU4yW0NIMl1bQ0gyXU9bQ0gyXVtDSDJdMg==

> <s_epik_cmdline>
J2VwaWtfcHl0aG9uJywgJy1waCcsICc3LjAnLCAnLXRuJywgJzgnLCAnLW1hJywgJzIwMCcsICctbWV0YWxfYmluZGluZycsICctaW1hZScsICc8aW5maWxlLm1hZT4nLCAnLW9tYWUnLCAnPG91dGZpbGUubWFlPic=

> <r_lp_tautomer_probability>
0.999999

> <r_epik_Ionization_Penalty>
2.28846

> <r_epik_Ionization_Penalty_Charging>
0

> <r_epik_Ionization_Penalty_Neutral>
2.28846

> <r_epik_State_Penalty>
2.43827

> <r_epik_Charging_Adjusted_Penalty>
2.43827

> <i_epik_Tot_Q>
0

> <i_epik_Tot_abs_Q>
0

> <r_epik_Metal_State_Penalty>
0.0346758

> <b_epik_Metal_Only>
0

> <s_lp_Force_Field>
OPLS_2005

> <r_lp_Energy>
24.1362

> <b_lp_Chiralities_Consistent>
1

> <s_lp_Variant>
AV-unprocessed.smi:2545-2

> <Gold.Version>
5.8.1

> <Gold.Id.Protein>
6NUR|6NUR_protein|mol2

> <Gold.PLP.Fitness>
33.6204

> <Gold.PLP.PLP>
-23.1942

> <Gold.PLP.part.hbond>
-3.0000

> <Gold.PLP.part.metal>
0.0000

> <Gold.PLP.part.buried>
0.6441

> <Gold.PLP.part.nonpolar>
-21.7403

> <Gold.PLP.part.repulsive>
0.5144

> <Gold.PLP.ligand.clash>
0.0000

> <Gold.PLP.ligand.torsion>
0.1828

> <Gold.PLP.Chemscore.Hbond>
1.5600

> <Gold.PLP.Chemscore.CHOScore>
2.0000

> <Gold.PLP.Chemscore.Metal>
0.0000

> <Gold.Chemscore.Hbonds>
donor molecule, donor type, donor heavy atom, donor atom, acceptor molecule, acceptor atom, score
      L1  H     1    15       P1  8028  1.00
      P1  H  7989  7998       L1     8  0.53
      L1  C     4    17       P1 10175  1.00
      L1  C     6    18       P1  7948  1.00

> <Gold.PLP.Chemscore.Internal.Correction>
0.1119

> <Gold.Rescore>
     Score         DG    S(hbond)    S(metal)    S(lipo)     H(rot)  DE(clash)    DE(int)     intcor
     13.03     -13.55       1.00        0.00      62.15       1.00       0.19       0.33       ----

> <Gold.Chemscore.Fitness>
13.0264

> <Gold.Chemscore.DG>
-13.5473

> <Gold.Chemscore.ZeroCoef>
-5.4800

> <Gold.Chemscore.Hbond>
1.0049

> <Gold.Chemscore.Metal>
0.0000

> <Gold.Chemscore.Lipo>
62.1451

> <Gold.Chemscore.Internal_Hbond>
0.0000

> <Gold.Chemscore.DEClash>
0.1916

> <Gold.Chemscore.DEInternal>
0.3293

> <Gold.Chemscore.Rot>
1.0000

> <Gold.Chemscore.Internal.Correction>
   9.000000E+99

> <Gold.Chemscore.Hbonds>
donor molecule, donor type, donor heavy atom, donor atom, acceptor molecule, acceptor atom, score
      L1  H     1    15       P1  8028  0.98
      P1  H  7989  7998       L1     8  0.01

> <Gold.Chemscore.Hbond.Weighted>
-3.3563

> <Gold.Chemscore.Metal.Weighted>
-0.0000

> <Gold.Chemscore.Lipo.Weighted>
-7.2710

> <Gold.Chemscore.Internal_Hbond.Weighted>
0.0000

> <Gold.Chemscore.DEClash.Weighted>
0.1916

> <Gold.Chemscore.DEInternal.Weighted>
0.3293

> <Gold.Chemscore.Rot.Weighted>
2.5600

> <Gold.Chemscore.Internal.Correction.Weighted>
   9.000000E+99

> <Gold.Protein.RotatedTorsions>
[ 6907 6896 6895 6894 ] final  176.08 input  -60.11 | X-H torsion
[ 7974 7965 7964 7962 ] final  -12.57 input  175.53 | X-H torsion
[ 8008 7997 7996 7995 ] final -164.89 input   59.86 | X-H torsion
[ 10167 10162 10161 10158 ] final   -5.83 input  -65.29 | X-H torsion
[ 10718 10713 10712 10709 ] final    0.21 input   66.30 | X-H torsion
[ 10763 10752 10751 10750 ] final  -56.21 input  -60.55 | X-H torsion
[ 11005 11000 10999 10996 ] final  114.04 input  -57.11 | X-H torsion

> <Gold.Protein.ActiveResidues>
 VAL166  LYS551  ARG553  GLY616  TRP617  ASP618  TYR619  PRO620  LYS621  CYS622 
 ASP623  PHE694  ASN695  SER759  ASP760  ASP761  ALA762  ILE779  LEU786  VAL792 
 PHE793  MET794  SER795  GLU796  ALA797  LYS798  CYS799  TRP800  GLU811  SER814 

> <Gold.Protein.RotatedAtoms>
  151.7260  133.3316  159.3327 H   0  0  0  0  0  0  0  0  0  0  0  0  # atno 6907 bound_to 6896
  150.7633  134.6406  159.6244 H   0  0  0  0  0  0  0  0  0  0  0  0  # atno 6908 bound_to 6896
  152.3622  134.6858  160.0255 H   0  0  0  0  0  0  0  0  0  0  0  0  # atno 6909 bound_to 6896
  146.2147  140.3076  142.8380 H   0  0  0  0  0  0  0  0  0  0  0  0  # atno 7974 bound_to 7965
  155.8420  140.0950  157.1728 H   0  0  0  0  0  0  0  0  0  0  0  0  # atno 8008 bound_to 7997
  154.3982  140.1399  156.3801 H   0  0  0  0  0  0  0  0  0  0  0  0  # atno 8009 bound_to 7997
  155.8054  140.3451  155.5429 H   0  0  0  0  0  0  0  0  0  0  0  0  # atno 8010 bound_to 7997
  140.6976  143.6264  150.8564 H   0  0  0  0  0  0  0  0  0  0  0  0  # atno 10167 bound_to 10162
  156.8300  130.5485  149.5688 H   0  0  0  0  0  0  0  0  0  0  0  0  # atno 10718 bound_to 10713
  154.2030  135.6407  153.5092 H   0  0  0  0  0  0  0  0  0  0  0  0  # atno 10763 bound_to 10752
  153.0007  135.5456  154.6295 H   0  0  0  0  0  0  0  0  0  0  0  0  # atno 10764 bound_to 10752
  154.5713  135.2917  155.0798 H   0  0  0  0  0  0  0  0  0  0  0  0  # atno 10765 bound_to 10752
  139.8969  134.9561  156.6832 H   0  0  0  0  0  0  0  0  0  0  0  0  # atno 11005 bound_to 11000
  144.9011  140.7644  143.5866 LP  0  0  0  0  0  0  0  0  0  0  0  0  # atno 17320 bound_to 7965
  145.3002  139.1853  143.4693 LP  0  0  0  0  0  0  0  0  0  0  0  0  # atno 17321 bound_to 7965
  139.9983  143.5771  152.2885 LP  0  0  0  0  0  0  0  0  0  0  0  0  # atno 17342 bound_to 10162
  139.6452  144.7657  151.2259 LP  0  0  0  0  0  0  0  0  0  0  0  0  # atno 17343 bound_to 10162
  156.0940  130.5917  150.9781 LP  0  0  0  0  0  0  0  0  0  0  0  0  # atno 17370 bound_to 10713
  157.6412  131.0910  150.8248 LP  0  0  0  0  0  0  0  0  0  0  0  0  # atno 17371 bound_to 10713
  140.7283  133.9081  155.8194 LP  0  0  0  0  0  0  0  0  0  0  0  0  # atno 17394 bound_to 11000
  141.0173  134.0937  157.4158 LP  0  0  0  0  0  0  0  0  0  0  0  0  # atno 17395 bound_to 11000

$$$$
