AV-unprocessed.smi:492|AV-procd|sdf|2711|dock2
  -GOLD-   2262023153D 1   1.00000     0.00000
 Structure written by MMmdl.
 47 49  0  0  0  0  0  0  0  0  2 V2000
  154.4635  132.7116  164.3974 C   0  0  0  0  0  0  0  0  0  0  0  0
  154.2280  134.0930  164.6271 O   0  0  0  0  0  0  0  0  0  0  0  0
  154.1698  134.9314  163.5345 C   0  0  0  0  0  0  0  0  0  0  0  0
  153.7758  136.2647  163.7696 C   0  0  0  0  0  0  0  0  0  0  0  0
  153.6889  137.1895  162.7112 C   0  0  0  0  0  0  0  0  0  0  0  0
  153.9908  136.7886  161.3944 C   0  0  0  0  0  0  0  0  0  0  0  0
  153.9132  137.7857  160.2545 C   0  0  0  0  0  0  0  0  0  0  0  0
  152.7805  137.5577  159.4325 O   0  0  0  0  0  0  0  0  0  0  0  0
  153.0579  137.7176  158.0504 C   0  0  0  0  0  0  0  0  0  0  0  0
  152.7826  139.1674  157.6194 C   0  0  1  0  0  0  0  0  0  0  0  0
  153.0858  139.3135  156.2467 O   0  0  0  0  0  0  0  0  0  0  0  0
  151.3501  139.6470  157.9339 C   0  0  0  0  0  0  0  0  0  0  0  0
  151.1467  141.0713  157.6300 N   0  0  0  0  0  0  0  0  0  0  0  0
  150.4628  141.6680  156.6121 C   0  0  0  0  0  0  0  0  0  0  0  0
  149.7195  140.9829  155.5147 C   0  0  0  0  0  0  0  0  0  0  0  0
  150.5827  143.0153  156.7809 N   0  3  0  0  0  0  0  0  0  0  0  0
  151.3456  143.2827  157.9190 C   0  0  0  0  0  0  0  0  0  0  0  0
  151.7365  144.4886  158.4933 C   0  0  0  0  0  0  0  0  0  0  0  0
  152.5174  144.4074  159.6650 C   0  0  0  0  0  0  0  0  0  0  0  0
  152.8799  143.1635  160.2220 C   0  0  0  0  0  0  0  0  0  0  0  0
  152.4784  141.9475  159.6305 C   0  0  0  0  0  0  0  0  0  0  0  0
  151.7081  142.0371  158.4716 C   0  0  0  0  0  0  0  0  0  0  0  0
  154.3947  135.4603  161.1498 C   0  0  0  0  0  0  0  0  0  0  0  0
  154.4814  134.5361  162.2091 C   0  0  0  0  0  0  0  0  0  0  0  0
  154.4812  132.1863  165.3520 H   0  0  0  0  0  0  0  0  0  0  0  0
  155.4269  132.5467  163.9129 H   0  0  0  0  0  0  0  0  0  0  0  0
  153.6729  132.2671  163.7912 H   0  0  0  0  0  0  0  0  0  0  0  0
  153.5389  136.5834  164.7740 H   0  0  0  0  0  0  0  0  0  0  0  0
  153.3883  138.2064  162.9158 H   0  0  0  0  0  0  0  0  0  0  0  0
  153.8761  138.7994  160.6569 H   0  0  0  0  0  0  0  0  0  0  0  0
  154.8260  137.7027  159.6627 H   0  0  0  0  0  0  0  0  0  0  0  0
  154.1096  137.4864  157.8741 H   0  0  0  0  0  0  0  0  0  0  0  0
  152.4707  137.0191  157.4516 H   0  0  0  0  0  0  0  0  0  0  0  0
  153.4904  139.8057  158.1487 H   0  0  0  0  0  0  0  0  0  0  0  0
  153.1116  138.4549  155.8531 H   0  0  0  0  0  0  0  0  0  0  0  0
  150.6201  139.0822  157.3531 H   0  0  0  0  0  0  0  0  0  0  0  0
  151.1033  139.4774  158.9828 H   0  0  0  0  0  0  0  0  0  0  0  0
  149.3893  141.7038  154.7665 H   0  0  0  0  0  0  0  0  0  0  0  0
  148.8440  140.4729  155.9166 H   0  0  0  0  0  0  0  0  0  0  0  0
  150.3581  140.2458  155.0271 H   0  0  0  0  0  0  0  0  0  0  0  0
  151.4598  145.4428  158.0694 H   0  0  0  0  0  0  0  0  0  0  0  0
  152.8448  145.3176  160.1465 H   0  0  0  0  0  0  0  0  0  0  0  0
  153.4785  143.1413  161.1211 H   0  0  0  0  0  0  0  0  0  0  0  0
  152.7610  140.9995  160.0642 H   0  0  0  0  0  0  0  0  0  0  0  0
  154.6407  135.1446  160.1464 H   0  0  0  0  0  0  0  0  0  0  0  0
  154.7916  133.5283  161.9782 H   0  0  0  0  0  0  0  0  0  0  0  0
  150.1697  143.7006  156.1614 H   0  0  0  0  0  0  0  0  0  0  0  0
  1  2  1  0  0  0  0
  1 25  1  0  0  0  0
  1 26  1  0  0  0  0
  1 27  1  0  0  0  0
  2  3  1  0  0  0  0
  3 24  1  0  0  0  0
  3  4  2  0  0  0  0
  4  5  1  0  0  0  0
  4 28  1  0  0  0  0
  5  6  2  0  0  0  0
  5 29  1  0  0  0  0
  6  7  1  0  0  0  0
  6 23  1  0  0  0  0
  7  8  1  0  0  0  0
  7 30  1  0  0  0  0
  7 31  1  0  0  0  0
  8  9  1  0  0  0  0
  9 10  1  0  0  0  0
  9 32  1  0  0  0  0
  9 33  1  0  0  0  0
 10 11  1  0  0  0  0
 10 12  1  0  0  0  0
 10 34  1  0  0  0  0
 11 35  1  0  0  0  0
 12 13  1  0  0  0  0
 12 36  1  0  0  0  0
 12 37  1  0  0  0  0
 13 22  1  0  0  0  0
 13 14  1  0  0  0  0
 14 15  1  0  0  0  0
 14 16  2  0  0  0  0
 15 38  1  0  0  0  0
 15 39  1  0  0  0  0
 15 40  1  0  0  0  0
 16 17  1  0  0  0  0
 16 47  1  0  0  0  0
 17 22  2  0  0  0  0
 17 18  1  0  0  0  0
 18 19  2  0  0  0  0
 18 41  1  0  0  0  0
 19 20  1  0  0  0  0
 19 42  1  0  0  0  0
 20 21  2  0  0  0  0
 20 43  1  0  0  0  0
 21 22  1  0  0  0  0
 21 44  1  0  0  0  0
 23 24  2  0  0  0  0
 23 45  1  0  0  0  0
 24 46  1  0  0  0  0
M  CHG  1  16   1
M  END
> <s_m_source_file>
AV-unprocessed.smi

> <i_m_source_file_index>
492

> <i_lp_mmshare_version>
43012

> <i_f3d_flags>
0

> <s_epik_input>
W0NIM11PYzFbY0hdW2NIXWMoW2NIXVtjSF0xKVtDSDJdT1tDSDJdW0NASF0oW09IXSlbQ0gyXW4oYyhuMilbQ0gzXSljKGMyMylbY0hdW2NIXVtjSF1bY0hdMw==

> <s_epik_cmdline>
J2VwaWtfcHl0aG9uJywgJy1waCcsICc3LjAnLCAnLXRuJywgJzgnLCAnLW1hJywgJzIwMCcsICctbWV0YWxfYmluZGluZycsICctaW1hZScsICc8aW5maWxlLm1hZT4nLCAnLW9tYWUnLCAnPG91dGZpbGUubWFlPic=

> <r_lp_tautomer_probability>
1

> <r_epik_Ionization_Penalty>
0.952

> <r_epik_Ionization_Penalty_Charging>
0.951999

> <r_epik_Ionization_Penalty_Neutral>
9.7482e-07

> <r_epik_State_Penalty>
0.996343

> <r_epik_Charging_Adjusted_Penalty>
1.94834

> <i_epik_Tot_Q>
1

> <i_epik_Tot_abs_Q>
1

> <r_epik_Metal_State_Penalty>
4.96724

> <b_epik_Metal_Only>
0

> <s_lp_Force_Field>
OPLS_2005

> <r_lp_Energy>
22.9053

> <b_lp_Chiralities_Consistent>
1

> <s_lp_Variant>
AV-unprocessed.smi:492-4

> <Gold.Version>
5.8.1

> <Gold.Id.Protein>
6NUR|6NUR_protein|mol2

> <Gold.PLP.Fitness>
58.3652

> <Gold.PLP.PLP>
-50.8644

> <Gold.PLP.part.hbond>
-2.0000

> <Gold.PLP.part.metal>
0.0000

> <Gold.PLP.part.buried>
-6.0102

> <Gold.PLP.part.nonpolar>
-43.5850

> <Gold.PLP.part.repulsive>
0.3418

> <Gold.PLP.ligand.clash>
0.0000

> <Gold.PLP.ligand.torsion>
0.8862

> <Gold.PLP.Chemscore.Hbond>
3.0000

> <Gold.PLP.Chemscore.CHOScore>
0.0000

> <Gold.PLP.Chemscore.Metal>
0.0000

> <Gold.Chemscore.Hbonds>
donor molecule, donor type, donor heavy atom, donor atom, acceptor molecule, acceptor atom, score
      L1  H    16    47       P1  8028  2.00
      P1  H  7997  8008       L1    11  1.00

> <Gold.PLP.Chemscore.Internal.Correction>
0.2733

> <Gold.Rescore>
     Score         DG    S(hbond)    S(metal)    S(lipo)     H(rot)  DE(clash)    DE(int)     intcor
     20.43     -21.00       1.70        0.00     138.85       2.50       0.04       0.53       ----

> <Gold.Chemscore.Fitness>
20.4344

> <Gold.Chemscore.DG>
-20.9976

> <Gold.Chemscore.ZeroCoef>
-5.4800

> <Gold.Chemscore.Hbond>
1.7012

> <Gold.Chemscore.Metal>
0.0000

> <Gold.Chemscore.Lipo>
138.8489

> <Gold.Chemscore.Internal_Hbond>
0.0000

> <Gold.Chemscore.DEClash>
0.0353

> <Gold.Chemscore.DEInternal>
0.5279

> <Gold.Chemscore.Rot>
2.5038

> <Gold.Chemscore.Internal.Correction>
   9.000000E+99

> <Gold.Chemscore.Hbonds>
donor molecule, donor type, donor heavy atom, donor atom, acceptor molecule, acceptor atom, score
      L1  H    16    47       P1  8028  0.97
      P1  H  7997  8008       L1    11  0.62

> <Gold.Chemscore.Hbond.Weighted>
-5.6820

> <Gold.Chemscore.Metal.Weighted>
-0.0000

> <Gold.Chemscore.Lipo.Weighted>
-16.2453

> <Gold.Chemscore.Internal_Hbond.Weighted>
0.0000

> <Gold.Chemscore.DEClash.Weighted>
0.0353

> <Gold.Chemscore.DEInternal.Weighted>
0.5279

> <Gold.Chemscore.Rot.Weighted>
6.4098

> <Gold.Chemscore.Internal.Correction.Weighted>
   9.000000E+99

> <Gold.Protein.RotatedTorsions>
[ 6907 6896 6895 6894 ] final  -56.54 input  -60.11 | X-H torsion
[ 7974 7965 7964 7962 ] final   -8.29 input  175.53 | X-H torsion
[ 8008 7997 7996 7995 ] final  -26.22 input   59.86 | X-H torsion
[ 10167 10162 10161 10158 ] final  140.69 input  -65.29 | X-H torsion
[ 10718 10713 10712 10709 ] final   61.46 input   66.30 | X-H torsion
[ 10763 10752 10751 10750 ] final   -8.55 input  -60.55 | X-H torsion
[ 11005 11000 10999 10996 ] final  155.22 input  -57.11 | X-H torsion

> <Gold.Protein.ActiveResidues>
 VAL166  LYS551  ARG553  GLY616  TRP617  ASP618  TYR619  PRO620  LYS621  CYS622 
 ASP623  PHE694  ASN695  SER759  ASP760  ASP761  ALA762  ILE779  LEU786  VAL792 
 PHE793  MET794  SER795  GLU796  ALA797  LYS798  CYS799  TRP800  GLU811  SER814 

> <Gold.Protein.RotatedAtoms>
  150.8159  134.7341  159.6729 H   0  0  0  0  0  0  0  0  0  0  0  0  # atno 6907 bound_to 6896
  152.4278  134.5832  159.9963 H   0  0  0  0  0  0  0  0  0  0  0  0  # atno 6908 bound_to 6896
  151.6029  133.3317  159.3087 H   0  0  0  0  0  0  0  0  0  0  0  0  # atno 6909 bound_to 6896
  146.2284  140.2446  142.8345 H   0  0  0  0  0  0  0  0  0  0  0  0  # atno 7974 bound_to 7965
  154.4436  140.1905  156.0741 H   0  0  0  0  0  0  0  0  0  0  0  0  # atno 8008 bound_to 7997
  156.0488  140.3311  155.7301 H   0  0  0  0  0  0  0  0  0  0  0  0  # atno 8009 bound_to 7997
  155.5588  140.0602  157.2824 H   0  0  0  0  0  0  0  0  0  0  0  0  # atno 8010 bound_to 7997
  139.5041  144.6218  151.6033 H   0  0  0  0  0  0  0  0  0  0  0  0  # atno 10167 bound_to 10162
  157.5829  130.8996  149.9463 H   0  0  0  0  0  0  0  0  0  0  0  0  # atno 10718 bound_to 10713
  153.4421  135.7014  153.6162 H   0  0  0  0  0  0  0  0  0  0  0  0  # atno 10763 bound_to 10752
  153.4533  135.3753  155.2296 H   0  0  0  0  0  0  0  0  0  0  0  0  # atno 10764 bound_to 10752
  154.8727  135.4002  154.3821 H   0  0  0  0  0  0  0  0  0  0  0  0  # atno 10765 bound_to 10752
  140.1561  134.8641  157.2516 H   0  0  0  0  0  0  0  0  0  0  0  0  # atno 11005 bound_to 11000
  144.9458  140.8127  143.5602 LP  0  0  0  0  0  0  0  0  0  0  0  0  # atno 17320 bound_to 7965
  145.2402  139.2076  143.4997 LP  0  0  0  0  0  0  0  0  0  0  0  0  # atno 17321 bound_to 7965
  140.5923  143.9758  150.6332 LP  0  0  0  0  0  0  0  0  0  0  0  0  # atno 17342 bound_to 10162
  140.2943  143.3303  152.1033 LP  0  0  0  0  0  0  0  0  0  0  0  0  # atno 17343 bound_to 10162
  156.0876  130.3666  150.0457 LP  0  0  0  0  0  0  0  0  0  0  0  0  # atno 17370 bound_to 10713
  156.8593  130.9486  151.3619 LP  0  0  0  0  0  0  0  0  0  0  0  0  # atno 17371 bound_to 10713
  140.2546  134.3643  155.7429 LP  0  0  0  0  0  0  0  0  0  0  0  0  # atno 17394 bound_to 11000
  141.2204  133.7335  156.8987 LP  0  0  0  0  0  0  0  0  0  0  0  0  # atno 17395 bound_to 11000

$$$$
