AV-unprocessed.smi:1671|AV-procd|sdf|6697|dock3
  -GOLD-   22720 7433D 1   1.00000     0.00000
 Structure written by MMmdl.
 44 45  0  0  0  0  0  0  0  0  1 V2000
  149.8176  132.1284  154.4822 C   0  0  0  0  0  0  0  0  0  0  0  0
  148.8690  133.6516  154.2166 S   0  0  0  0  0  0  0  0  0  0  0  0
  150.0565  134.9082  154.7797 C   0  0  2  0  0  0  0  0  0  0  0  0
  150.8131  134.4071  156.0204 C   0  0  0  0  0  0  0  0  0  0  0  0
  149.3743  136.2556  155.0471 C   0  0  0  0  0  0  0  0  0  0  0  0
  148.4926  136.3491  155.9018 O   0  0  0  0  0  0  0  0  0  0  0  0
  149.7796  137.2883  154.2908 N   0  0  0  0  0  0  0  0  0  0  0  0
  149.2310  138.6403  154.3294 C   0  0  0  0  0  0  0  0  0  0  0  0
  149.8460  139.5088  155.4160 C   0  0  0  0  0  0  0  0  0  0  0  0
  150.1343  140.8656  155.1697 C   0  0  0  0  0  0  0  0  0  0  0  0
  150.7020  141.6428  156.1971 C   0  0  0  0  0  0  0  0  0  0  0  0
  150.9755  141.0408  157.4486 C   0  0  0  0  0  0  0  0  0  0  0  0
  151.5411  141.8013  158.4955 N   0  0  0  0  0  0  0  0  0  0  0  0
  152.7926  141.3311  159.0863 C   0  0  0  0  0  0  0  0  0  0  0  0
  153.0957  142.1018  160.3816 C   0  0  0  0  0  0  0  0  0  0  0  0
  153.0998  143.5004  160.1168 O   0  0  0  0  0  0  0  0  0  0  0  0
  151.8351  143.9617  159.6495 C   0  0  1  0  0  0  0  0  0  0  0  0
  151.9095  145.4831  159.4837 C   0  0  0  0  0  0  0  0  0  0  0  0
  151.4919  143.2513  158.3255 C   0  0  0  0  0  0  0  0  0  0  0  0
  150.6989  139.7337  157.6808 N   0  0  0  0  0  0  0  0  0  0  0  0
  150.1569  138.9927  156.6918 C   0  0  0  0  0  0  0  0  0  0  0  0
  149.2079  131.2605  154.2311 H   0  0  0  0  0  0  0  0  0  0  0  0
  150.1223  132.0455  155.5253 H   0  0  0  0  0  0  0  0  0  0  0  0
  150.7082  132.1109  153.8552 H   0  0  0  0  0  0  0  0  0  0  0  0
  150.7896  135.0409  153.9826 H   0  0  0  0  0  0  0  0  0  0  0  0
  151.5219  135.1530  156.3826 H   0  0  0  0  0  0  0  0  0  0  0  0
  151.3792  133.5042  155.7900 H   0  0  0  0  0  0  0  0  0  0  0  0
  150.1322  134.1681  156.8384 H   0  0  0  0  0  0  0  0  0  0  0  0
  150.5101  137.1167  153.6154 H   0  0  0  0  0  0  0  0  0  0  0  0
  149.3488  139.1429  153.3681 H   0  0  0  0  0  0  0  0  0  0  0  0
  148.1570  138.5554  154.4973 H   0  0  0  0  0  0  0  0  0  0  0  0
  149.9169  141.3120  154.2103 H   0  0  0  0  0  0  0  0  0  0  0  0
  150.9035  142.6884  156.0190 H   0  0  0  0  0  0  0  0  0  0  0  0
  152.7305  140.2648  159.3071 H   0  0  0  0  0  0  0  0  0  0  0  0
  153.6042  141.4705  158.3709 H   0  0  0  0  0  0  0  0  0  0  0  0
  152.3620  141.8683  161.1549 H   0  0  0  0  0  0  0  0  0  0  0  0
  154.0713  141.8112  160.7713 H   0  0  0  0  0  0  0  0  0  0  0  0
  151.0730  143.7319  160.3965 H   0  0  0  0  0  0  0  0  0  0  0  0
  150.9570  145.8869  159.1400 H   0  0  0  0  0  0  0  0  0  0  0  0
  152.6741  145.7641  158.7590 H   0  0  0  0  0  0  0  0  0  0  0  0
  152.1533  145.9668  160.4298 H   0  0  0  0  0  0  0  0  0  0  0  0
  152.2047  143.5358  157.5502 H   0  0  0  0  0  0  0  0  0  0  0  0
  150.5109  143.5839  157.9894 H   0  0  0  0  0  0  0  0  0  0  0  0
  149.9660  137.9580  156.9339 H   0  0  0  0  0  0  0  0  0  0  0  0
  1  2  1  0  0  0  0
  1 22  1  0  0  0  0
  1 23  1  0  0  0  0
  1 24  1  0  0  0  0
  2  3  1  0  0  0  0
  3  4  1  0  0  0  0
  3  5  1  0  0  0  0
  3 25  1  0  0  0  0
  4 26  1  0  0  0  0
  4 27  1  0  0  0  0
  4 28  1  0  0  0  0
  5  6  2  0  0  0  0
  5  7  1  0  0  0  0
  7  8  1  0  0  0  0
  7 29  1  0  0  0  0
  8  9  1  0  0  0  0
  8 30  1  0  0  0  0
  8 31  1  0  0  0  0
  9 21  1  0  0  0  0
  9 10  2  0  0  0  0
 10 11  1  0  0  0  0
 10 32  1  0  0  0  0
 11 12  2  0  0  0  0
 11 33  1  0  0  0  0
 12 13  1  0  0  0  0
 12 20  1  0  0  0  0
 13 19  1  0  0  0  0
 13 14  1  0  0  0  0
 14 15  1  0  0  0  0
 14 34  1  0  0  0  0
 14 35  1  0  0  0  0
 15 16  1  0  0  0  0
 15 36  1  0  0  0  0
 15 37  1  0  0  0  0
 16 17  1  0  0  0  0
 17 18  1  0  0  0  0
 17 19  1  0  0  0  0
 17 38  1  0  0  0  0
 18 39  1  0  0  0  0
 18 40  1  0  0  0  0
 18 41  1  0  0  0  0
 19 42  1  0  0  0  0
 19 43  1  0  0  0  0
 20 21  2  0  0  0  0
 21 44  1  0  0  0  0
M  END
> <s_m_source_file>
AV-unprocessed.smi

> <i_m_source_file_index>
1671

> <i_lp_mmshare_version>
43012

> <i_f3d_flags>
0

> <s_epik_input>
W0NIM11TW0NASF0oW0NIM10pQyg9TylbTkhdW0NIMl1jMVtjSF1bY0hdYyhuW2NIXTEpTjJbQ0gyXVtDSDJdT1tDQEBIXShbQ0gzXSlbQ0gyXTI=

> <s_epik_cmdline>
J2VwaWtfcHl0aG9uJywgJy1waCcsICc3LjAnLCAnLXRuJywgJzgnLCAnLW1hJywgJzIwMCcsICctbWV0YWxfYmluZGluZycsICctaW1hZScsICc8aW5maWxlLm1hZT4nLCAnLW9tYWUnLCAnPG91dGZpbGUubWFlPic=

> <r_lp_tautomer_probability>
1

> <r_epik_Ionization_Penalty>
0.00480033

> <r_epik_Ionization_Penalty_Charging>
0

> <r_epik_Ionization_Penalty_Neutral>
0.00480033

> <r_epik_State_Penalty>
0.00347981

> <r_epik_Charging_Adjusted_Penalty>
0.00347981

> <i_epik_Tot_Q>
0

> <i_epik_Tot_abs_Q>
0

> <r_epik_Metal_State_Penalty>
-0

> <b_epik_Metal_Only>
0

> <s_lp_Force_Field>
OPLS_2005

> <r_lp_Energy>
16.3373

> <b_lp_Chiralities_Consistent>
1

> <s_lp_Variant>
AV-unprocessed.smi:1671-1

> <Gold.Version>
5.8.1

> <Gold.Id.Protein>
6NUR|6NUR_protein|mol2

> <Gold.PLP.Fitness>
38.0053

> <Gold.PLP.PLP>
-39.2975

> <Gold.PLP.part.hbond>
-1.0000

> <Gold.PLP.part.metal>
0.0000

> <Gold.PLP.part.buried>
-3.7198

> <Gold.PLP.part.nonpolar>
-34.7662

> <Gold.PLP.part.repulsive>
0.0735

> <Gold.PLP.ligand.clash>
0.0000

> <Gold.PLP.ligand.torsion>
0.8513

> <Gold.PLP.Chemscore.Hbond>
0.0000

> <Gold.PLP.Chemscore.CHOScore>
0.0000

> <Gold.PLP.Chemscore.Metal>
0.0000

> <Gold.PLP.Chemscore.Internal.Correction>
0.4104

> <Gold.Rescore>
     Score         DG    S(hbond)    S(metal)    S(lipo)     H(rot)  DE(clash)    DE(int)     intcor
     12.90     -13.80       0.00        0.00     106.66       1.63       0.12       0.78       ----

> <Gold.Chemscore.Fitness>
12.8956

> <Gold.Chemscore.DG>
-13.7975

> <Gold.Chemscore.ZeroCoef>
-5.4800

> <Gold.Chemscore.Hbond>
0.0012

> <Gold.Chemscore.Metal>
0.0000

> <Gold.Chemscore.Lipo>
106.6594

> <Gold.Chemscore.Internal_Hbond>
0.0000

> <Gold.Chemscore.DEClash>
0.1195

> <Gold.Chemscore.DEInternal>
0.7823

> <Gold.Chemscore.Rot>
1.6272

> <Gold.Chemscore.Internal.Correction>
   9.000000E+99

> <Gold.Chemscore.Hbond.Weighted>
-0.0040

> <Gold.Chemscore.Metal.Weighted>
-0.0000

> <Gold.Chemscore.Lipo.Weighted>
-12.4792

> <Gold.Chemscore.Internal_Hbond.Weighted>
0.0000

> <Gold.Chemscore.DEClash.Weighted>
0.1195

> <Gold.Chemscore.DEInternal.Weighted>
0.7823

> <Gold.Chemscore.Rot.Weighted>
4.1657

> <Gold.Chemscore.Internal.Correction.Weighted>
   9.000000E+99

> <Gold.Protein.RotatedTorsions>
[ 6907 6896 6895 6894 ] final -122.68 input  -60.11 | X-H torsion
[ 7974 7965 7964 7962 ] final -163.36 input  175.53 | X-H torsion
[ 8008 7997 7996 7995 ] final  152.81 input   59.86 | X-H torsion
[ 10167 10162 10161 10158 ] final  126.03 input  -65.29 | X-H torsion
[ 10718 10713 10712 10709 ] final   98.63 input   66.30 | X-H torsion
[ 10763 10752 10751 10750 ] final   58.88 input  -60.55 | X-H torsion
[ 11005 11000 10999 10996 ] final  -35.42 input  -57.11 | X-H torsion

> <Gold.Protein.ActiveResidues>
 VAL166  LYS551  ARG553  GLY616  TRP617  ASP618  TYR619  PRO620  LYS621  CYS622 
 ASP623  PHE694  ASN695  SER759  ASP760  ASP761  ALA762  ILE779  LEU786  VAL792 
 PHE793  MET794  SER795  GLU796  ALA797  LYS798  CYS799  TRP800  GLU811  SER814 

> <Gold.Protein.RotatedAtoms>
  150.8599  133.7659  159.2995 H   0  0  0  0  0  0  0  0  0  0  0  0  # atno 6907 bound_to 6896
  151.5305  135.1066  159.9911 H   0  0  0  0  0  0  0  0  0  0  0  0  # atno 6908 bound_to 6896
  152.4618  133.7795  159.6898 H   0  0  0  0  0  0  0  0  0  0  0  0  # atno 6909 bound_to 6896
  144.7328  140.3119  143.6186 H   0  0  0  0  0  0  0  0  0  0  0  0  # atno 7974 bound_to 7965
  156.2611  140.2010  156.6392 H   0  0  0  0  0  0  0  0  0  0  0  0  # atno 8008 bound_to 7997
  154.6623  140.0559  157.0100 H   0  0  0  0  0  0  0  0  0  0  0  0  # atno 8009 bound_to 7997
  155.1258  140.3229  155.4489 H   0  0  0  0  0  0  0  0  0  0  0  0  # atno 8010 bound_to 7997
  139.5653  144.6907  151.3927 H   0  0  0  0  0  0  0  0  0  0  0  0  # atno 10167 bound_to 10162
  157.6892  131.0646  150.4826 H   0  0  0  0  0  0  0  0  0  0  0  0  # atno 10718 bound_to 10713
  152.9881  135.5591  154.5624 H   0  0  0  0  0  0  0  0  0  0  0  0  # atno 10763 bound_to 10752
  154.5040  135.2799  155.1399 H   0  0  0  0  0  0  0  0  0  0  0  0  # atno 10764 bound_to 10752
  154.2818  135.6343  153.5403 H   0  0  0  0  0  0  0  0  0  0  0  0  # atno 10765 bound_to 10752
  140.9794  133.7064  156.1658 H   0  0  0  0  0  0  0  0  0  0  0  0  # atno 11005 bound_to 11000
  145.7656  139.1839  143.2241 LP  0  0  0  0  0  0  0  0  0  0  0  0  # atno 17320 bound_to 7965
  146.0951  140.7610  142.9576 LP  0  0  0  0  0  0  0  0  0  0  0  0  # atno 17321 bound_to 7965
  140.6936  143.7802  150.7292 LP  0  0  0  0  0  0  0  0  0  0  0  0  # atno 17342 bound_to 10162
  140.1292  143.4541  152.2265 LP  0  0  0  0  0  0  0  0  0  0  0  0  # atno 17343 bound_to 10162
  156.5157  130.4150  149.6277 LP  0  0  0  0  0  0  0  0  0  0  0  0  # atno 17370 bound_to 10713
  156.3200  130.7275  151.2185 LP  0  0  0  0  0  0  0  0  0  0  0  0  # atno 17371 bound_to 10713
  140.7209  134.4359  157.5575 LP  0  0  0  0  0  0  0  0  0  0  0  0  # atno 17394 bound_to 11000
  139.8944  134.8707  156.2179 LP  0  0  0  0  0  0  0  0  0  0  0  0  # atno 17395 bound_to 11000

$$$$
