AV-unprocessed.smi:21|AV-procd|sdf|158|dock6
  -GOLD-   2262015393D 1   1.00000     0.00000
 Structure written by MMmdl.
 61 64  0  0  0  0  0  0  0  0  1 V2000
  154.9220  139.6883  161.5341 C   0  0  0  0  0  0  0  0  0  0  0  0
  154.7338  140.9315  160.8773 O   0  0  0  0  0  0  0  0  0  0  0  0
  153.3816  141.3668  160.8699 C   0  0  2  0  0  0  0  0  0  0  0  0
  152.4833  140.5254  159.9442 C   0  0  0  0  0  0  0  0  0  0  0  0
  151.9539  141.5240  158.9023 C   0  0  1  0  0  0  0  0  0  0  0  0
  150.5529  141.1632  158.3590 C   0  0  0  0  0  0  0  0  0  0  0  0
  150.5829  140.6429  156.9920 N   0  0  0  0  0  0  0  0  0  0  0  0
  151.8568  140.1385  156.4810 C   0  0  0  0  0  0  0  0  0  0  0  0
  149.6033  140.9805  156.1015 C   0  0  0  0  0  0  0  0  0  0  0  0
  149.8518  140.8110  154.7739 N   0  0  0  0  0  0  0  0  0  0  0  0
  148.9401  141.1362  153.8549 C   0  0  0  0  0  0  0  0  0  0  0  0
  147.7196  141.6384  154.0353 N   0  0  0  0  0  0  0  0  0  0  0  0
  147.4470  141.8046  155.3599 C   0  0  0  0  0  0  0  0  0  0  0  0
  148.3186  141.5058  156.4493 C   0  0  0  0  0  0  0  0  0  0  0  0
  147.6726  141.8068  157.6449 N   0  0  0  0  0  0  0  0  0  0  0  0
  146.5035  142.2586  157.2864 C   0  0  0  0  0  0  0  0  0  0  0  0
  146.2801  142.2823  155.9307 N   0  0  0  0  0  0  0  0  0  0  0  0
  145.0679  142.7267  155.2638 C   0  0  0  0  0  0  0  0  0  0  0  0
  144.6457  144.1612  155.6649 C   0  0  1  0  0  0  0  0  0  0  0  0
  143.6378  144.7404  154.6445 C   0  0  0  0  0  0  0  0  0  0  0  0
  142.5077  143.9005  154.5331 O   0  0  0  0  0  0  0  0  0  0  0  0
  144.1579  144.2502  157.1386 C   0  0  2  0  0  0  0  0  0  0  0  0
  143.0113  143.3156  157.5169 C   0  0  0  0  0  0  0  0  0  0  0  0
  142.2648  144.1134  158.5769 C   0  0  0  0  0  0  0  0  0  0  0  0
  142.3394  145.4360  158.0741 O   0  0  0  0  0  0  0  0  0  0  0  0
  143.6577  145.6378  157.5805 C   0  0  0  0  0  0  0  0  0  0  0  0
  152.0345  142.8213  159.5532 N   0  0  0  0  0  0  0  0  0  0  0  0
  151.9724  143.9457  158.6287 C   0  0  0  0  0  0  0  0  0  0  0  0
  153.2951  142.7711  160.2671 C   0  0  0  0  0  0  0  0  0  0  0  0
  152.9713  141.3851  161.8813 H   0  0  0  0  0  0  0  0  0  0  0  0
  152.6622  141.5246  158.0721 H   0  0  0  0  0  0  0  0  0  0  0  0
  155.9767  139.4154  161.5022 H   0  0  0  0  0  0  0  0  0  0  0  0
  154.3560  138.8887  161.0558 H   0  0  0  0  0  0  0  0  0  0  0  0
  154.6234  139.7479  162.5814 H   0  0  0  0  0  0  0  0  0  0  0  0
  153.0179  139.7070  159.4609 H   0  0  0  0  0  0  0  0  0  0  0  0
  151.6676  140.0918  160.5242 H   0  0  0  0  0  0  0  0  0  0  0  0
  150.1022  140.4168  159.0139 H   0  0  0  0  0  0  0  0  0  0  0  0
  149.8734  142.0110  158.4085 H   0  0  0  0  0  0  0  0  0  0  0  0
  151.6997  139.2705  155.8397 H   0  0  0  0  0  0  0  0  0  0  0  0
  152.5138  139.8291  157.2938 H   0  0  0  0  0  0  0  0  0  0  0  0
  152.3751  140.9067  155.9060 H   0  0  0  0  0  0  0  0  0  0  0  0
  149.2311  140.9707  152.8280 H   0  0  0  0  0  0  0  0  0  0  0  0
  145.7642  142.5811  158.0052 H   0  0  0  0  0  0  0  0  0  0  0  0
  145.2448  142.6672  154.1894 H   0  0  0  0  0  0  0  0  0  0  0  0
  144.2659  142.0204  155.4806 H   0  0  0  0  0  0  0  0  0  0  0  0
  145.5403  144.7839  155.6115 H   0  0  0  0  0  0  0  0  0  0  0  0
  143.3048  145.7361  154.9374 H   0  0  0  0  0  0  0  0  0  0  0  0
  144.0791  144.8325  153.6527 H   0  0  0  0  0  0  0  0  0  0  0  0
  142.6497  143.2983  153.8185 H   0  0  0  0  0  0  0  0  0  0  0  0
  144.9958  144.0184  157.7970 H   0  0  0  0  0  0  0  0  0  0  0  0
  142.3440  143.1338  156.6757 H   0  0  0  0  0  0  0  0  0  0  0  0
  143.3543  142.3488  157.8846 H   0  0  0  0  0  0  0  0  0  0  0  0
  141.2326  143.7868  158.7038 H   0  0  0  0  0  0  0  0  0  0  0  0
  142.7705  144.0554  159.5423 H   0  0  0  0  0  0  0  0  0  0  0  0
  144.2831  146.0267  158.3854 H   0  0  0  0  0  0  0  0  0  0  0  0
  143.6583  146.3802  156.7829 H   0  0  0  0  0  0  0  0  0  0  0  0
  152.0916  144.8881  159.1641 H   0  0  0  0  0  0  0  0  0  0  0  0
  151.0114  143.9789  158.1159 H   0  0  0  0  0  0  0  0  0  0  0  0
  152.7577  143.8829  157.8742 H   0  0  0  0  0  0  0  0  0  0  0  0
  153.3621  143.5529  161.0244 H   0  0  0  0  0  0  0  0  0  0  0  0
  154.1210  142.9162  159.5680 H   0  0  0  0  0  0  0  0  0  0  0  0
  1  2  1  0  0  0  0
  1 32  1  0  0  0  0
  1 33  1  0  0  0  0
  1 34  1  0  0  0  0
  2  3  1  0  0  0  0
  3 30  1  0  0  0  0
  3 29  1  0  0  0  0
  3  4  1  0  0  0  0
  4  5  1  0  0  0  0
  4 35  1  0  0  0  0
  4 36  1  0  0  0  0
  5 31  1  0  0  0  0
  5  6  1  0  0  0  0
  5 27  1  0  0  0  0
  6  7  1  0  0  0  0
  6 37  1  0  0  0  0
  6 38  1  0  0  0  0
  7  8  1  0  0  0  0
  7  9  1  0  0  0  0
  8 39  1  0  0  0  0
  8 40  1  0  0  0  0
  8 41  1  0  0  0  0
  9 14  1  0  0  0  0
  9 10  2  0  0  0  0
 10 11  1  0  0  0  0
 11 12  2  0  0  0  0
 11 42  1  0  0  0  0
 12 13  1  0  0  0  0
 13 17  1  0  0  0  0
 13 14  2  0  0  0  0
 14 15  1  0  0  0  0
 15 16  2  0  0  0  0
 16 17  1  0  0  0  0
 16 43  1  0  0  0  0
 17 18  1  0  0  0  0
 18 19  1  0  0  0  0
 18 44  1  0  0  0  0
 18 45  1  0  0  0  0
 19 20  1  0  0  0  0
 19 22  1  0  0  0  0
 19 46  1  0  0  0  0
 20 21  1  0  0  0  0
 20 47  1  0  0  0  0
 20 48  1  0  0  0  0
 21 49  1  0  0  0  0
 22 26  1  0  0  0  0
 22 23  1  0  0  0  0
 22 50  1  0  0  0  0
 23 24  1  0  0  0  0
 23 51  1  0  0  0  0
 23 52  1  0  0  0  0
 24 25  1  0  0  0  0
 24 53  1  0  0  0  0
 24 54  1  0  0  0  0
 25 26  1  0  0  0  0
 26 55  1  0  0  0  0
 26 56  1  0  0  0  0
 27 28  1  0  0  0  0
 27 29  1  0  0  0  0
 28 57  1  0  0  0  0
 28 58  1  0  0  0  0
 28 59  1  0  0  0  0
 29 60  1  0  0  0  0
 29 61  1  0  0  0  0
M  END
> <s_m_source_file>
AV-unprocessed.smi

> <i_m_source_file_index>
21

> <i_lp_mmshare_version>
43012

> <i_f3d_flags>
0

> <s_epik_input>
W0NIM11PW0NASF0xW0NIMl1bQ0BIXShOKFtDSDNdKVtDSDJdMSlbQ0gyXU4oW0NIM10pYyhuW2NIXW4yKWMoYzIzKW5bY0hdbjNbQ0gyXVtDQEhdKFtDSDJdW09IXSlbQ0BASF00W0NIMl1bQ0gyXU9bQ0gyXTQ=

> <s_epik_cmdline>
J2VwaWtfcHl0aG9uJywgJy1waCcsICc3LjAnLCAnLXRuJywgJzgnLCAnLW1hJywgJzIwMCcsICctbWV0YWxfYmluZGluZycsICctaW1hZScsICc8aW5maWxlLm1hZT4nLCAnLW9tYWUnLCAnPG91dGZpbGUubWFlPic=

> <r_lp_tautomer_probability>
1

> <r_epik_Ionization_Penalty>
2.17574

> <r_epik_Ionization_Penalty_Charging>
0

> <r_epik_Ionization_Penalty_Neutral>
2.17574

> <r_epik_State_Penalty>
2.31336

> <r_epik_Charging_Adjusted_Penalty>
2.31336

> <i_epik_Tot_Q>
0

> <i_epik_Tot_abs_Q>
0

> <r_epik_Metal_State_Penalty>
2.31025

> <b_epik_Metal_Only>
0

> <s_lp_Force_Field>
OPLS_2005

> <r_lp_Energy>
69.5253

> <b_lp_Chiralities_Consistent>
1

> <s_lp_Variant>
AV-unprocessed.smi:21-38

> <Gold.Version>
5.8.1

> <Gold.Id.Protein>
6NUR|6NUR_protein|mol2

> <Gold.PLP.Fitness>
47.7100

> <Gold.PLP.PLP>
-43.2128

> <Gold.PLP.part.hbond>
-3.0000

> <Gold.PLP.part.metal>
0.0000

> <Gold.PLP.part.buried>
-4.2850

> <Gold.PLP.part.nonpolar>
-36.8845

> <Gold.PLP.part.repulsive>
0.4038

> <Gold.PLP.ligand.clash>
0.0000

> <Gold.PLP.ligand.torsion>
1.2671

> <Gold.PLP.Chemscore.Hbond>
1.5143

> <Gold.PLP.Chemscore.CHOScore>
0.6402

> <Gold.PLP.Chemscore.Metal>
0.0000

> <Gold.Chemscore.Hbonds>
donor molecule, donor type, donor heavy atom, donor atom, acceptor molecule, acceptor atom, score
      L1  H    21    49       P1 10174  1.00
      P1  H  7989  7998       L1    10  0.42
      L1  C    11    42       P1  7957  0.77

> <Gold.PLP.Chemscore.Internal.Correction>
0.5680

> <Gold.Rescore>
     Score         DG    S(hbond)    S(metal)    S(lipo)     H(rot)  DE(clash)    DE(int)     intcor
     10.33     -13.54       1.32        0.00      96.99       3.00       0.84       2.38       ----

> <Gold.Chemscore.Fitness>
10.3257

> <Gold.Chemscore.DG>
-13.5384

> <Gold.Chemscore.ZeroCoef>
-5.4800

> <Gold.Chemscore.Hbond>
1.3169

> <Gold.Chemscore.Metal>
0.0000

> <Gold.Chemscore.Lipo>
96.9922

> <Gold.Chemscore.Internal_Hbond>
0.0000

> <Gold.Chemscore.DEClash>
0.8363

> <Gold.Chemscore.DEInternal>
2.3764

> <Gold.Chemscore.Rot>
3.0031

> <Gold.Chemscore.Internal.Correction>
   9.000000E+99

> <Gold.Chemscore.Hbonds>
donor molecule, donor type, donor heavy atom, donor atom, acceptor molecule, acceptor atom, score
      L1  H    21    49       P1 10174  1.00
      P1  H  7989  7998       L1    10  0.08

> <Gold.Chemscore.Hbond.Weighted>
-4.3983

> <Gold.Chemscore.Metal.Weighted>
-0.0000

> <Gold.Chemscore.Lipo.Weighted>
-11.3481

> <Gold.Chemscore.Internal_Hbond.Weighted>
0.0000

> <Gold.Chemscore.DEClash.Weighted>
0.8363

> <Gold.Chemscore.DEInternal.Weighted>
2.3764

> <Gold.Chemscore.Rot.Weighted>
7.6880

> <Gold.Chemscore.Internal.Correction.Weighted>
   9.000000E+99

> <Gold.Protein.RotatedTorsions>
[ 6907 6896 6895 6894 ] final   40.18 input  -60.11 | X-H torsion
[ 7974 7965 7964 7962 ] final  100.76 input  175.53 | X-H torsion
[ 8008 7997 7996 7995 ] final  -99.78 input   59.86 | X-H torsion
[ 10167 10162 10161 10158 ] final   92.13 input  -65.29 | X-H torsion
[ 10718 10713 10712 10709 ] final  142.13 input   66.30 | X-H torsion
[ 10763 10752 10751 10750 ] final -120.98 input  -60.55 | X-H torsion
[ 11005 11000 10999 10996 ] final   32.14 input  -57.11 | X-H torsion

> <Gold.Protein.ActiveResidues>
 VAL166  LYS551  ARG553  GLY616  TRP617  ASP618  TYR619  PRO620  LYS621  CYS622 
 ASP623  PHE694  ASN695  SER759  ASP760  ASP761  ALA762  ILE779  LEU786  VAL792 
 PHE793  MET794  SER795  GLU796  ALA797  LYS798  CYS799  TRP800  GLU811  SER814 

> <Gold.Protein.RotatedAtoms>
  152.1791  134.8769  160.0527 H   0  0  0  0  0  0  0  0  0  0  0  0  # atno 6907 bound_to 6896
  151.9700  133.3718  159.4075 H   0  0  0  0  0  0  0  0  0  0  0  0  # atno 6908 bound_to 6896
  150.6914  134.4073  159.5190 H   0  0  0  0  0  0  0  0  0  0  0  0  # atno 6909 bound_to 6896
  145.3813  139.2379  143.3402 H   0  0  0  0  0  0  0  0  0  0  0  0  # atno 7974 bound_to 7965
  154.8195  140.0445  157.1400 H   0  0  0  0  0  0  0  0  0  0  0  0  # atno 8008 bound_to 7997
  154.9276  140.3035  155.5164 H   0  0  0  0  0  0  0  0  0  0  0  0  # atno 8009 bound_to 7997
  156.2979  140.2329  156.4332 H   0  0  0  0  0  0  0  0  0  0  0  0  # atno 8010 bound_to 7997
  139.8307  144.6688  150.9403 H   0  0  0  0  0  0  0  0  0  0  0  0  # atno 10167 bound_to 10162
  157.3841  131.0996  151.0711 H   0  0  0  0  0  0  0  0  0  0  0  0  # atno 10718 bound_to 10713
  154.8657  135.4184  154.2546 H   0  0  0  0  0  0  0  0  0  0  0  0  # atno 10763 bound_to 10752
  153.3486  135.6997  153.6813 H   0  0  0  0  0  0  0  0  0  0  0  0  # atno 10764 bound_to 10752
  153.5762  135.3582  155.2830 H   0  0  0  0  0  0  0  0  0  0  0  0  # atno 10765 bound_to 10752
  140.2766  134.3021  155.7812 H   0  0  0  0  0  0  0  0  0  0  0  0  # atno 11005 bound_to 11000
  146.2841  140.4481  142.8765 LP  0  0  0  0  0  0  0  0  0  0  0  0  # atno 17320 bound_to 7965
  144.8505  140.6994  143.6171 LP  0  0  0  0  0  0  0  0  0  0  0  0  # atno 17321 bound_to 7965
  140.7807  143.4003  151.1159 LP  0  0  0  0  0  0  0  0  0  0  0  0  # atno 17342 bound_to 10162
  139.7657  143.8568  152.3110 LP  0  0  0  0  0  0  0  0  0  0  0  0  # atno 17343 bound_to 10162
  157.1769  130.6292  149.5659 LP  0  0  0  0  0  0  0  0  0  0  0  0  # atno 17370 bound_to 10713
  155.9782  130.4766  150.6643 LP  0  0  0  0  0  0  0  0  0  0  0  0  # atno 17371 bound_to 10713
  141.2169  133.7499  156.9416 LP  0  0  0  0  0  0  0  0  0  0  0  0  # atno 17394 bound_to 11000
  140.1323  134.9348  157.2354 LP  0  0  0  0  0  0  0  0  0  0  0  0  # atno 17395 bound_to 11000

$$$$
