AV-unprocessed.smi:1|AV-procd|sdf|18|dock2
  -GOLD-   2262015113D 1   1.00000     0.00000
 Structure written by MMmdl.
 56 61  0  0  0  0  0  0  0  0  2 V2000
  153.4418  138.9441  159.7903 O   0  0  0  0  0  0  0  0  0  0  0  0
  153.1537  140.0089  159.2402 C   0  0  0  0  0  0  0  0  0  0  0  0
  152.9986  140.2461  157.9130 N   0  5  0  0  0  0  0  0  0  0  0  0
  152.1768  139.4737  157.1856 C   0  0  0  0  0  0  0  0  0  0  0  0
  152.1488  139.5851  155.8333 N   0  0  0  0  0  0  0  0  0  0  0  0
  151.3358  138.8093  155.1072 C   0  0  0  0  0  0  0  0  0  0  0  0
  150.4853  137.8633  155.5187 N   0  0  0  0  0  0  0  0  0  0  0  0
  150.5114  137.7358  156.8774 C   0  0  0  0  0  0  0  0  0  0  0  0
  151.3241  138.4963  157.7681 C   0  0  0  0  0  0  0  0  0  0  0  0
  151.1059  138.1120  159.0830 N   0  0  0  0  0  0  0  0  0  0  0  0
  150.1884  137.1588  158.9357 C   0  0  0  0  0  0  0  0  0  0  0  0
  149.7900  136.8689  157.6811 N   0  0  0  0  0  0  0  0  0  0  0  0
  148.7781  135.8587  157.2580 C   0  0  1  0  0  0  0  0  0  0  0  0
  149.0205  135.5318  155.9264 O   0  0  0  0  0  0  0  0  0  0  0  0
  148.6895  134.1659  155.7380 C   0  0  1  0  0  0  0  0  0  0  0  0
  149.2796  133.6189  154.4306 C   0  0  0  0  0  0  0  0  0  0  0  0
  148.3522  133.7351  153.3626 O   0  0  0  0  0  0  0  0  0  0  0  0
  147.8195  132.6284  152.8083 C   0  0  0  0  0  0  0  0  0  0  0  0
  148.2617  131.4923  152.9913 O   0  0  0  0  0  0  0  0  0  0  0  0
  146.6380  132.9206  151.9474 C   0  0  0  0  0  0  0  0  0  0  0  0
  145.9721  131.8548  151.2982 C   0  0  0  0  0  0  0  0  0  0  0  0
  144.8551  132.1014  150.4765 C   0  0  0  0  0  0  0  0  0  0  0  0
  144.3921  133.4173  150.2919 C   0  0  0  0  0  0  0  0  0  0  0  0
  145.0493  134.4865  150.9282 C   0  0  0  0  0  0  0  0  0  0  0  0
  146.1662  134.2414  151.7506 C   0  0  0  0  0  0  0  0  0  0  0  0
  149.1567  133.4876  157.0289 C   0  0  2  0  0  0  0  0  0  0  0  0
  148.3944  132.3319  157.3284 O   0  0  0  0  0  0  0  0  0  0  0  0
  147.1820  132.7414  158.4014 S   0  0  0  0  0  0  0  0  0  0  0  0
  145.9095  132.7812  157.6650 O   0  0  0  0  0  0  0  0  0  0  0  0
  147.3641  131.9473  159.6258 O   0  0  0  0  0  0  0  0  0  0  0  0
  147.6454  134.3133  158.7223 O   0  0  0  0  0  0  0  0  0  0  0  0
  148.8866  134.5692  158.0889 C   0  0  2  0  0  0  0  0  0  0  0  0
  152.8655  141.2128  160.0970 C   0  0  0  0  0  0  0  0  0  0  0  0
  153.3167  141.2437  161.4364 C   0  0  0  0  0  0  0  0  0  0  0  0
  153.0800  142.3714  162.2464 C   0  0  0  0  0  0  0  0  0  0  0  0
  152.3974  143.4852  161.7225 C   0  0  0  0  0  0  0  0  0  0  0  0
  151.9552  143.4717  160.3864 C   0  0  0  0  0  0  0  0  0  0  0  0
  152.1914  142.3443  159.5758 C   0  0  0  0  0  0  0  0  0  0  0  0
  151.3790  138.9674  154.0405 H   0  0  0  0  0  0  0  0  0  0  0  0
  149.7844  136.6382  159.7915 H   0  0  0  0  0  0  0  0  0  0  0  0
  147.8134  136.3579  157.3610 H   0  0  0  0  0  0  0  0  0  0  0  0
  147.6011  134.1147  155.6759 H   0  0  0  0  0  0  0  0  0  0  0  0
  150.1800  134.1774  154.1722 H   0  0  0  0  0  0  0  0  0  0  0  0
  149.5731  132.5775  154.5707 H   0  0  0  0  0  0  0  0  0  0  0  0
  146.3091  130.8360  151.4259 H   0  0  0  0  0  0  0  0  0  0  0  0
  144.3533  131.2794  149.9876 H   0  0  0  0  0  0  0  0  0  0  0  0
  143.5351  133.6066  149.6625 H   0  0  0  0  0  0  0  0  0  0  0  0
  144.6962  135.4972  150.7864 H   0  0  0  0  0  0  0  0  0  0  0  0
  146.6504  135.0845  152.2212 H   0  0  0  0  0  0  0  0  0  0  0  0
  150.2210  133.2533  157.0027 H   0  0  0  0  0  0  0  0  0  0  0  0
  149.6812  134.6245  158.8341 H   0  0  0  0  0  0  0  0  0  0  0  0
  153.8440  140.3977  161.8529 H   0  0  0  0  0  0  0  0  0  0  0  0
  153.4241  142.3815  163.2699 H   0  0  0  0  0  0  0  0  0  0  0  0
  152.2165  144.3500  162.3434 H   0  0  0  0  0  0  0  0  0  0  0  0
  151.4363  144.3274  159.9807 H   0  0  0  0  0  0  0  0  0  0  0  0
  151.8535  142.3589  158.5495 H   0  0  0  0  0  0  0  0  0  0  0  0
  1  2  2  0  0  0  0
  2  3  1  0  0  0  0
  2 33  1  0  0  0  0
  3  4  1  0  0  0  0
  4  9  1  0  0  0  0
  4  5  2  0  0  0  0
  5  6  1  0  0  0  0
  6  7  2  0  0  0  0
  6 39  1  0  0  0  0
  7  8  1  0  0  0  0
  8 12  1  0  0  0  0
  8  9  2  0  0  0  0
  9 10  1  0  0  0  0
 10 11  2  0  0  0  0
 11 12  1  0  0  0  0
 11 40  1  0  0  0  0
 12 13  1  0  0  0  0
 13 32  1  0  0  0  0
 13 14  1  0  0  0  0
 13 41  1  0  0  0  0
 14 15  1  0  0  0  0
 15 16  1  0  0  0  0
 15 26  1  0  0  0  0
 15 42  1  0  0  0  0
 16 17  1  0  0  0  0
 16 43  1  0  0  0  0
 16 44  1  0  0  0  0
 17 18  1  0  0  0  0
 18 19  2  0  0  0  0
 18 20  1  0  0  0  0
 20 25  1  0  0  0  0
 20 21  2  0  0  0  0
 21 22  1  0  0  0  0
 21 45  1  0  0  0  0
 22 23  2  0  0  0  0
 22 46  1  0  0  0  0
 23 24  1  0  0  0  0
 23 47  1  0  0  0  0
 24 25  2  0  0  0  0
 24 48  1  0  0  0  0
 25 49  1  0  0  0  0
 26 32  1  0  0  0  0
 26 27  1  0  0  0  0
 26 50  1  0  0  0  0
 27 28  1  0  0  0  0
 28 29  2  0  0  0  0
 28 30  2  0  0  0  0
 28 31  1  0  0  0  0
 31 32  1  0  0  0  0
 32 51  1  0  0  0  0
 33 38  1  0  0  0  0
 33 34  2  0  0  0  0
 34 35  1  0  0  0  0
 34 52  1  0  0  0  0
 35 36  2  0  0  0  0
 35 53  1  0  0  0  0
 36 37  1  0  0  0  0
 36 54  1  0  0  0  0
 37 38  2  0  0  0  0
 37 55  1  0  0  0  0
 38 56  1  0  0  0  0
M  CHG  1   3  -1
M  END
> <s_m_source_file>
AV-unprocessed.smi

> <i_m_source_file_index>
1

> <i_lp_mmshare_version>
43012

> <i_f3d_flags>
0

> <s_epik_input>
W2NIXTFbY0hdW2NIXVtjSF1bY0hdYzFDKD1PKVtOSF1jKG5bY0hdbjIpYyhjMjMpbltjSF1uM1tDQEBIXShbQ0BIXShbQ0BIXTQ1KU9TKE81KSg9Tyk9TylPW0NASF00W0NIMl1PQyg9TyljNltjSF1bY0hdW2NIXVtjSF1bY0hdNg==

> <s_epik_cmdline>
J2VwaWtfcHl0aG9uJywgJy1waCcsICc3LjAnLCAnLXRuJywgJzgnLCAnLW1hJywgJzIwMCcsICctbWV0YWxfYmluZGluZycsICctaW1hZScsICc8aW5maWxlLm1hZT4nLCAnLW9tYWUnLCAnPG91dGZpbGUubWFlPic=

> <r_lp_tautomer_probability>
1

> <r_epik_Ionization_Penalty>
4.39121

> <r_epik_Ionization_Penalty_Charging>
3.39398

> <r_epik_Ionization_Penalty_Neutral>
0.997232

> <r_epik_State_Penalty>
3.39839

> <r_epik_Charging_Adjusted_Penalty>
6.79237

> <i_epik_Tot_Q>
-1

> <i_epik_Tot_abs_Q>
1

> <r_epik_Metal_State_Penalty>
0.497663

> <b_epik_Metal_Only>
1

> <s_epik_Chemistry_Notes>
This compound has an ester and may undergo hydrolysis at high or low pH. This compound contains an acetal/aminal-like group ( X-CH(R)-Y where X, Y are N, S, or O) that may be acid/base labile, releasing an aldehyde.

> <s_lp_Force_Field>
OPLS_2005

> <r_lp_Energy>
46.6749

> <b_lp_Chiralities_Consistent>
1

> <s_lp_Variant>
AV-unprocessed.smi:1-18

> <Gold.Version>
5.8.1

> <Gold.Id.Protein>
6NUR|6NUR_protein|mol2

> <Gold.PLP.Fitness>
56.4604

> <Gold.PLP.PLP>
-54.0259

> <Gold.PLP.part.hbond>
-1.4763

> <Gold.PLP.part.metal>
0.0000

> <Gold.PLP.part.buried>
-8.5363

> <Gold.PLP.part.nonpolar>
-44.7114

> <Gold.PLP.part.repulsive>
0.9708

> <Gold.PLP.ligand.clash>
0.0000

> <Gold.PLP.ligand.torsion>
2.2025

> <Gold.PLP.Chemscore.Hbond>
1.9840

> <Gold.PLP.Chemscore.CHOScore>
0.0000

> <Gold.PLP.Chemscore.Metal>
0.0000

> <Gold.Chemscore.Hbonds>
donor molecule, donor type, donor heavy atom, donor atom, acceptor molecule, acceptor atom, score
      P1  H  7997  8008       L1     3  1.82

> <Gold.PLP.Chemscore.Internal.Correction>
0.8876

> <Gold.Rescore>
     Score         DG    S(hbond)    S(metal)    S(lipo)     H(rot)  DE(clash)    DE(int)     intcor
      9.12     -17.14       0.70        0.00     126.01       2.11       0.19       7.83       ----

> <Gold.Chemscore.Fitness>
9.1219

> <Gold.Chemscore.DG>
-17.1406

> <Gold.Chemscore.ZeroCoef>
-5.4800

> <Gold.Chemscore.Hbond>
0.6970

> <Gold.Chemscore.Metal>
0.0000

> <Gold.Chemscore.Lipo>
126.0104

> <Gold.Chemscore.Internal_Hbond>
0.0000

> <Gold.Chemscore.DEClash>
0.1912

> <Gold.Chemscore.DEInternal>
7.8274

> <Gold.Chemscore.Rot>
2.1136

> <Gold.Chemscore.Internal.Correction>
   9.000000E+99

> <Gold.Chemscore.Hbonds>
donor molecule, donor type, donor heavy atom, donor atom, acceptor molecule, acceptor atom, score
      P1  H  7997  8008       L1     3  0.18

> <Gold.Chemscore.Hbond.Weighted>
-2.3281

> <Gold.Chemscore.Metal.Weighted>
-0.0000

> <Gold.Chemscore.Lipo.Weighted>
-14.7432

> <Gold.Chemscore.Internal_Hbond.Weighted>
0.0000

> <Gold.Chemscore.DEClash.Weighted>
0.1912

> <Gold.Chemscore.DEInternal.Weighted>
7.8274

> <Gold.Chemscore.Rot.Weighted>
5.4107

> <Gold.Chemscore.Internal.Correction.Weighted>
   9.000000E+99

> <Gold.Protein.RotatedTorsions>
[ 6907 6896 6895 6894 ] final  -51.81 input  -60.11 | X-H torsion
[ 7974 7965 7964 7962 ] final  167.51 input  175.53 | X-H torsion
[ 8008 7997 7996 7995 ] final  -77.82 input   59.86 | X-H torsion
[ 10167 10162 10161 10158 ] final  -25.74 input  -65.29 | X-H torsion
[ 10718 10713 10712 10709 ] final   31.75 input   66.30 | X-H torsion
[ 10763 10752 10751 10750 ] final  143.51 input  -60.55 | X-H torsion
[ 11005 11000 10999 10996 ] final   22.63 input  -57.11 | X-H torsion

> <Gold.Protein.ActiveResidues>
 VAL166  LYS551  ARG553  GLY616  TRP617  ASP618  TYR619  PRO620  LYS621  CYS622 
 ASP623  PHE694  ASN695  SER759  ASP760  ASP761  ALA762  ILE779  LEU786  VAL792 
 PHE793  MET794  SER795  GLU796  ALA797  LYS798  CYS799  TRP800  GLU811  SER814 

> <Gold.Protein.RotatedAtoms>
  150.8576  134.7920  159.7057 H   0  0  0  0  0  0  0  0  0  0  0  0  # atno 6907 bound_to 6896
  152.4623  134.5152  159.9776 H   0  0  0  0  0  0  0  0  0  0  0  0  # atno 6908 bound_to 6896
  151.5262  133.3419  159.2945 H   0  0  0  0  0  0  0  0  0  0  0  0  # atno 6909 bound_to 6896
  144.7422  139.8771  143.6393 H   0  0  0  0  0  0  0  0  0  0  0  0  # atno 7974 bound_to 7965
  154.5632  140.0704  156.8851 H   0  0  0  0  0  0  0  0  0  0  0  0  # atno 8008 bound_to 7997
  155.2772  140.3369  155.4242 H   0  0  0  0  0  0  0  0  0  0  0  0  # atno 8009 bound_to 7997
  156.2059  140.1740  156.7786 H   0  0  0  0  0  0  0  0  0  0  0  0  # atno 8010 bound_to 7997
  140.7285  143.4239  151.0908 H   0  0  0  0  0  0  0  0  0  0  0  0  # atno 10167 bound_to 10162
  157.2765  130.7233  149.6532 H   0  0  0  0  0  0  0  0  0  0  0  0  # atno 10718 bound_to 10713
  153.9735  135.2948  155.3425 H   0  0  0  0  0  0  0  0  0  0  0  0  # atno 10763 bound_to 10752
  154.7309  135.5068  153.8965 H   0  0  0  0  0  0  0  0  0  0  0  0  # atno 10764 bound_to 10752
  153.0888  135.6701  154.0007 H   0  0  0  0  0  0  0  0  0  0  0  0  # atno 10765 bound_to 10752
  140.3785  134.1946  155.7664 H   0  0  0  0  0  0  0  0  0  0  0  0  # atno 11005 bound_to 11000
  146.1238  139.4260  143.0212 LP  0  0  0  0  0  0  0  0  0  0  0  0  # atno 17320 bound_to 7965
  145.7265  141.0057  143.1374 LP  0  0  0  0  0  0  0  0  0  0  0  0  # atno 17321 bound_to 7965
  139.7888  143.8249  152.3149 LP  0  0  0  0  0  0  0  0  0  0  0  0  # atno 17342 bound_to 10162
  139.8225  144.7289  150.9554 LP  0  0  0  0  0  0  0  0  0  0  0  0  # atno 17343 bound_to 10162
  155.9664  130.4351  150.5079 LP  0  0  0  0  0  0  0  0  0  0  0  0  # atno 17370 bound_to 10713
  157.3014  131.0646  151.2066 LP  0  0  0  0  0  0  0  0  0  0  0  0  # atno 17371 bound_to 10713
  141.1931  133.8157  157.0811 LP  0  0  0  0  0  0  0  0  0  0  0  0  # atno 17394 bound_to 11000
  140.0497  134.9812  157.1114 LP  0  0  0  0  0  0  0  0  0  0  0  0  # atno 17395 bound_to 11000

$$$$
