AV-unprocessed.smi:1421|AV-procd|sdf|5791|dock5
  -GOLD-   22720 5443D 1   1.00000     0.00000
 Structure written by MMmdl.
 44 45  0  0  0  0  0  0  0  0  2 V2000
  150.5926  135.6967  155.8184 C   0  0  0  0  0  0  0  0  0  0  0  0
  149.9040  134.6032  157.1338 S   0  0  0  0  0  0  0  0  0  0  0  0
  148.6990  134.0074  156.5377 O   0  0  0  0  0  0  0  0  0  0  0  0
  150.9860  133.6766  157.5069 O   0  0  0  0  0  0  0  0  0  0  0  0
  149.5113  135.6645  158.3024 N   0  5  0  0  0  0  0  0  0  0  0  0
  148.9045  136.9491  157.9845 C   0  0  0  0  0  0  0  0  0  0  0  0
  149.2760  137.9824  159.0703 C   0  0  0  0  0  0  0  0  0  0  0  0
  150.5827  138.7370  158.7821 C   0  0  0  0  0  0  0  0  0  0  0  0
  151.6419  138.1273  158.6174 O   0  0  0  0  0  0  0  0  0  0  0  0
  150.5033  140.0765  158.7601 N   0  0  0  0  0  0  0  0  0  0  0  0
  151.6235  140.9691  158.4946 C   0  0  0  0  0  0  0  0  0  0  0  0
  152.6233  141.0191  159.6476 C   0  0  0  0  0  0  0  0  0  0  0  0
  153.3033  139.8403  160.0293 C   0  0  0  0  0  0  0  0  0  0  0  0
  154.2003  139.8783  161.1114 C   0  0  0  0  0  0  0  0  0  0  0  0
  154.3802  141.0998  161.7831 C   0  0  0  0  0  0  0  0  0  0  0  0
  153.7357  142.2330  161.4378 N   0  0  0  0  0  0  0  0  0  0  0  0
  152.8712  142.2038  160.3939 C   0  0  0  0  0  0  0  0  0  0  0  0
  152.2417  143.4135  160.0502 N   0  0  0  0  0  0  0  0  0  0  0  0
  152.1568  144.4332  161.0903 C   0  0  0  0  0  0  0  0  0  0  0  0
  151.2672  145.5922  160.6089 C   0  0  0  0  0  0  0  0  0  0  0  0
  151.7809  146.1105  159.3848 O   0  0  0  0  0  0  0  0  0  0  0  0
  151.8021  145.1283  158.3520 C   0  0  0  0  0  0  0  0  0  0  0  0
  152.6976  143.9508  158.7744 C   0  0  0  0  0  0  0  0  0  0  0  0
  150.8023  135.0988  154.9323 H   0  0  0  0  0  0  0  0  0  0  0  0
  151.5169  136.1595  156.1617 H   0  0  0  0  0  0  0  0  0  0  0  0
  149.8653  136.4686  155.5690 H   0  0  0  0  0  0  0  0  0  0  0  0
  149.2328  137.3207  157.0131 H   0  0  0  0  0  0  0  0  0  0  0  0
  147.8182  136.8701  157.9222 H   0  0  0  0  0  0  0  0  0  0  0  0
  148.4656  138.7042  159.1871 H   0  0  0  0  0  0  0  0  0  0  0  0
  149.3790  137.4833  160.0349 H   0  0  0  0  0  0  0  0  0  0  0  0
  149.6033  140.5037  158.9237 H   0  0  0  0  0  0  0  0  0  0  0  0
  152.0868  140.6606  157.5583 H   0  0  0  0  0  0  0  0  0  0  0  0
  151.2503  141.9820  158.3367 H   0  0  0  0  0  0  0  0  0  0  0  0
  153.1376  138.9106  159.5045 H   0  0  0  0  0  0  0  0  0  0  0  0
  154.7331  138.9919  161.4223 H   0  0  0  0  0  0  0  0  0  0  0  0
  155.0586  141.1701  162.6203 H   0  0  0  0  0  0  0  0  0  0  0  0
  151.7486  143.9989  162.0037 H   0  0  0  0  0  0  0  0  0  0  0  0
  153.1538  144.8094  161.3243 H   0  0  0  0  0  0  0  0  0  0  0  0
  150.2365  145.2606  160.4719 H   0  0  0  0  0  0  0  0  0  0  0  0
  151.2504  146.3882  161.3534 H   0  0  0  0  0  0  0  0  0  0  0  0
  150.7876  144.7875  158.1391 H   0  0  0  0  0  0  0  0  0  0  0  0
  152.1844  145.5818  157.4375 H   0  0  0  0  0  0  0  0  0  0  0  0
  153.7311  144.2853  158.8754 H   0  0  0  0  0  0  0  0  0  0  0  0
  152.6858  143.1769  158.0060 H   0  0  0  0  0  0  0  0  0  0  0  0
  1  2  1  0  0  0  0
  1 24  1  0  0  0  0
  1 25  1  0  0  0  0
  1 26  1  0  0  0  0
  2  3  2  0  0  0  0
  2  4  2  0  0  0  0
  2  5  1  0  0  0  0
  5  6  1  0  0  0  0
  6  7  1  0  0  0  0
  6 27  1  0  0  0  0
  6 28  1  0  0  0  0
  7  8  1  0  0  0  0
  7 29  1  0  0  0  0
  7 30  1  0  0  0  0
  8  9  2  0  0  0  0
  8 10  1  0  0  0  0
 10 11  1  0  0  0  0
 10 31  1  0  0  0  0
 11 12  1  0  0  0  0
 11 32  1  0  0  0  0
 11 33  1  0  0  0  0
 12 17  1  0  0  0  0
 12 13  2  0  0  0  0
 13 14  1  0  0  0  0
 13 34  1  0  0  0  0
 14 15  2  0  0  0  0
 14 35  1  0  0  0  0
 15 16  1  0  0  0  0
 15 36  1  0  0  0  0
 16 17  2  0  0  0  0
 17 18  1  0  0  0  0
 18 23  1  0  0  0  0
 18 19  1  0  0  0  0
 19 20  1  0  0  0  0
 19 37  1  0  0  0  0
 19 38  1  0  0  0  0
 20 21  1  0  0  0  0
 20 39  1  0  0  0  0
 20 40  1  0  0  0  0
 21 22  1  0  0  0  0
 22 23  1  0  0  0  0
 22 41  1  0  0  0  0
 22 42  1  0  0  0  0
 23 43  1  0  0  0  0
 23 44  1  0  0  0  0
M  CHG  1   5  -1
M  END
> <s_m_source_file>
AV-unprocessed.smi

> <i_m_source_file_index>
1421

> <i_lp_mmshare_version>
43012

> <i_f3d_flags>
0

> <s_epik_input>
W0NIM11TKD1PKSg9TylbTkhdW0NIMl1bQ0gyXUMoPU8pW05IXVtDSDJdYzFbY0hdW2NIXVtjSF1uYzFOMltDSDJdW0NIMl1PW0NIMl1bQ0gyXTI=

> <s_epik_cmdline>
J2VwaWtfcHl0aG9uJywgJy1waCcsICc3LjAnLCAnLXRuJywgJzgnLCAnLW1hJywgJzIwMCcsICctbWV0YWxfYmluZGluZycsICctaW1hZScsICc8aW5maWxlLm1hZT4nLCAnLW9tYWUnLCAnPG91dGZpbGUubWFlPic=

> <r_lp_tautomer_probability>
1

> <r_epik_Ionization_Penalty>
6.31253

> <r_epik_Ionization_Penalty_Charging>
6.30704

> <r_epik_Ionization_Penalty_Neutral>
0.00548981

> <r_epik_State_Penalty>
6.31049

> <r_epik_Charging_Adjusted_Penalty>
12.6175

> <i_epik_Tot_Q>
-1

> <i_epik_Tot_abs_Q>
1

> <r_epik_Metal_State_Penalty>
2.24651

> <b_epik_Metal_Only>
1

> <s_lp_Force_Field>
OPLS_2005

> <r_lp_Energy>
12.571

> <b_lp_Chiralities_Consistent>
1

> <s_lp_Variant>
AV-unprocessed.smi:1421-2

> <Gold.Version>
5.8.1

> <Gold.Id.Protein>
6NUR|6NUR_protein|mol2

> <Gold.PLP.Fitness>
47.0510

> <Gold.PLP.PLP>
-41.1608

> <Gold.PLP.part.hbond>
-3.0000

> <Gold.PLP.part.metal>
0.0000

> <Gold.PLP.part.buried>
-8.0400

> <Gold.PLP.part.nonpolar>
-31.3593

> <Gold.PLP.part.repulsive>
0.2978

> <Gold.PLP.ligand.clash>
0.0000

> <Gold.PLP.ligand.torsion>
1.3963

> <Gold.PLP.Chemscore.Hbond>
2.4755

> <Gold.PLP.Chemscore.CHOScore>
0.0000

> <Gold.PLP.Chemscore.Metal>
0.0000

> <Gold.Chemscore.Hbonds>
donor molecule, donor type, donor heavy atom, donor atom, acceptor molecule, acceptor atom, score
      P1  H  6896  6908       L1     4  0.24
      P1  H  6896  6909       L1     5  0.90

> <Gold.PLP.Chemscore.Internal.Correction>
1.2561

> <Gold.Rescore>
     Score         DG    S(hbond)    S(metal)    S(lipo)     H(rot)  DE(clash)    DE(int)     intcor
     10.41     -13.43       0.91        0.00      95.96       2.46       0.04       2.98       ----

> <Gold.Chemscore.Fitness>
10.4107

> <Gold.Chemscore.DG>
-13.4285

> <Gold.Chemscore.ZeroCoef>
-5.4800

> <Gold.Chemscore.Hbond>
0.9056

> <Gold.Chemscore.Metal>
0.0000

> <Gold.Chemscore.Lipo>
95.9641

> <Gold.Chemscore.Internal_Hbond>
0.0000

> <Gold.Chemscore.DEClash>
0.0374

> <Gold.Chemscore.DEInternal>
2.9803

> <Gold.Chemscore.Rot>
2.4625

> <Gold.Chemscore.Internal.Correction>
   9.000000E+99

> <Gold.Chemscore.Hbonds>
donor molecule, donor type, donor heavy atom, donor atom, acceptor molecule, acceptor atom, score
      P1  H  6896  6908       L1     4  0.24
      P1  H  6896  6909       L1     5  0.01

> <Gold.Chemscore.Hbond.Weighted>
-3.0247

> <Gold.Chemscore.Metal.Weighted>
-0.0000

> <Gold.Chemscore.Lipo.Weighted>
-11.2278

> <Gold.Chemscore.Internal_Hbond.Weighted>
0.0000

> <Gold.Chemscore.DEClash.Weighted>
0.0374

> <Gold.Chemscore.DEInternal.Weighted>
2.9803

> <Gold.Chemscore.Rot.Weighted>
6.3040

> <Gold.Chemscore.Internal.Correction.Weighted>
   9.000000E+99

> <Gold.Protein.RotatedTorsions>
[ 6907 6896 6895 6894 ] final   55.72 input  -60.11 | X-H torsion
[ 7974 7965 7964 7962 ] final  151.49 input  175.53 | X-H torsion
[ 8008 7997 7996 7995 ] final  -64.37 input   59.86 | X-H torsion
[ 10167 10162 10161 10158 ] final  178.06 input  -65.29 | X-H torsion
[ 10718 10713 10712 10709 ] final -115.77 input   66.30 | X-H torsion
[ 10763 10752 10751 10750 ] final -118.09 input  -60.55 | X-H torsion
[ 11005 11000 10999 10996 ] final   62.11 input  -57.11 | X-H torsion

> <Gold.Protein.ActiveResidues>
 VAL166  LYS551  ARG553  GLY616  TRP617  ASP618  TYR619  PRO620  LYS621  CYS622 
 ASP623  PHE694  ASN695  SER759  ASP760  ASP761  ALA762  ILE779  LEU786  VAL792 
 PHE793  MET794  SER795  GLU796  ALA797  LYS798  CYS799  TRP800  GLU811  SER814 

> <Gold.Protein.RotatedAtoms>
  152.3567  134.6930  160.0219 H   0  0  0  0  0  0  0  0  0  0  0  0  # atno 6907 bound_to 6896
  151.7267  133.3311  159.3337 H   0  0  0  0  0  0  0  0  0  0  0  0  # atno 6908 bound_to 6896
  150.7576  134.6334  159.6243 H   0  0  0  0  0  0  0  0  0  0  0  0  # atno 6909 bound_to 6896
  144.8289  139.6545  143.6068 H   0  0  0  0  0  0  0  0  0  0  0  0  # atno 7974 bound_to 7965
  154.4607  140.0955  156.6886 H   0  0  0  0  0  0  0  0  0  0  0  0  # atno 8008 bound_to 7997
  155.5002  140.3473  155.4351 H   0  0  0  0  0  0  0  0  0  0  0  0  # atno 8009 bound_to 7997
  156.0865  140.1386  156.9635 H   0  0  0  0  0  0  0  0  0  0  0  0  # atno 8010 bound_to 7997
  139.5278  144.2725  152.0616 H   0  0  0  0  0  0  0  0  0  0  0  0  # atno 10167 bound_to 10162
  156.0918  130.6099  150.8949 H   0  0  0  0  0  0  0  0  0  0  0  0  # atno 10718 bound_to 10713
  154.8576  135.4286  154.2084 H   0  0  0  0  0  0  0  0  0  0  0  0  # atno 10763 bound_to 10752
  153.3115  135.6976  153.7117 H   0  0  0  0  0  0  0  0  0  0  0  0  # atno 10764 bound_to 10752
  153.6208  135.3502  155.2984 H   0  0  0  0  0  0  0  0  0  0  0  0  # atno 10765 bound_to 10752
  140.0114  134.6290  155.9774 H   0  0  0  0  0  0  0  0  0  0  0  0  # atno 11005 bound_to 11000
  146.2593  139.6373  142.9373 LP  0  0  0  0  0  0  0  0  0  0  0  0  # atno 17320 bound_to 7965
  145.4940  141.0438  143.2577 LP  0  0  0  0  0  0  0  0  0  0  0  0  # atno 17321 bound_to 7965
  140.2184  144.4492  150.6353 LP  0  0  0  0  0  0  0  0  0  0  0  0  # atno 17342 bound_to 10162
  140.6435  143.2208  151.6238 LP  0  0  0  0  0  0  0  0  0  0  0  0  # atno 17343 bound_to 10162
  157.6069  131.0938  150.8864 LP  0  0  0  0  0  0  0  0  0  0  0  0  # atno 17370 bound_to 10713
  156.9011  130.5247  149.5283 LP  0  0  0  0  0  0  0  0  0  0  0  0  # atno 17371 bound_to 10713
  141.1713  133.6537  156.4664 LP  0  0  0  0  0  0  0  0  0  0  0  0  # atno 17394 bound_to 11000
  140.4547  134.6896  157.5057 LP  0  0  0  0  0  0  0  0  0  0  0  0  # atno 17395 bound_to 11000

$$$$
