AV-unprocessed.smi:1382|AV-procd|sdf|5620|dock3
  -GOLD-   22720 5233D 1   1.00000     0.00000
 Structure written by MMmdl.
 44 45  0  0  0  0  0  0  0  0  1 V2000
  151.9072  144.6942  159.7127 C   0  0  0  0  0  0  0  0  0  0  0  0
  152.9836  143.7646  159.1368 C   0  0  0  0  0  0  0  0  0  0  0  0
  153.1035  142.4247  159.8792 C   0  0  0  0  0  0  0  0  0  0  0  0
  151.8306  141.5614  159.8006 C   0  0  0  0  0  0  0  0  0  0  0  0
  151.5391  141.1287  158.4482 N   0  0  0  0  0  0  0  0  0  0  0  0
  150.3797  141.4884  157.7544 C   0  0  0  0  0  0  0  0  0  0  0  0
  149.4683  142.3161  158.3941 N   0  0  0  0  0  0  0  0  0  0  0  0
  150.1395  141.0514  156.4820 C   0  0  0  0  0  0  0  0  0  0  0  0
  148.9515  141.3790  155.8033 N   0  0  0  0  0  0  0  0  0  0  0  0
  149.0879  142.0203  154.4924 C   0  0  0  0  0  0  0  0  0  0  0  0
  147.7163  141.0923  156.2893 C   0  0  0  0  0  0  0  0  0  0  0  0
  147.5652  140.4571  157.3347 O   0  0  0  0  0  0  0  0  0  0  0  0
  146.4587  141.5850  155.5398 C   0  0  2  0  0  0  0  0  0  0  0  0
  146.4157  143.1090  155.3137 C   0  0  0  0  0  0  0  0  0  0  0  0
  145.3778  143.5889  156.3069 C   0  0  0  0  0  0  0  0  0  0  0  0
  144.4373  142.3946  156.3627 C   0  0  0  0  0  0  0  0  0  0  0  0
  145.3196  141.2833  156.3450 O   0  0  0  0  0  0  0  0  0  0  0  0
  151.0808  140.1414  155.8146 C   0  0  0  0  0  0  0  0  0  0  0  0
  150.9436  139.6631  154.6895 O   0  0  0  0  0  0  0  0  0  0  0  0
  152.2039  139.8062  156.5664 N   0  0  0  0  0  0  0  0  0  0  0  0
  152.4778  140.2502  157.8551 C   0  0  0  0  0  0  0  0  0  0  0  0
  153.5000  139.8625  158.4219 O   0  0  0  0  0  0  0  0  0  0  0  0
  152.8712  139.1776  156.1432 H   0  0  0  0  0  0  0  0  0  0  0  0
  151.9059  145.6516  159.1910 H   0  0  0  0  0  0  0  0  0  0  0  0
  152.0837  144.8938  160.7700 H   0  0  0  0  0  0  0  0  0  0  0  0
  150.9102  144.2656  159.6123 H   0  0  0  0  0  0  0  0  0  0  0  0
  152.7900  143.5858  158.0787 H   0  0  0  0  0  0  0  0  0  0  0  0
  153.9445  144.2780  159.1855 H   0  0  0  0  0  0  0  0  0  0  0  0
  153.9376  141.8671  159.4517 H   0  0  0  0  0  0  0  0  0  0  0  0
  153.3665  142.6069  160.9219 H   0  0  0  0  0  0  0  0  0  0  0  0
  151.9103  140.6606  160.4073 H   0  0  0  0  0  0  0  0  0  0  0  0
  150.9550  142.0843  160.1892 H   0  0  0  0  0  0  0  0  0  0  0  0
  149.6254  142.6557  159.3324 H   0  0  0  0  0  0  0  0  0  0  0  0
  148.6233  142.6313  157.9394 H   0  0  0  0  0  0  0  0  0  0  0  0
  148.6555  141.3963  153.7092 H   0  0  0  0  0  0  0  0  0  0  0  0
  150.1332  142.1975  154.2357 H   0  0  0  0  0  0  0  0  0  0  0  0
  148.5826  142.9869  154.4810 H   0  0  0  0  0  0  0  0  0  0  0  0
  146.3538  141.0994  154.5695 H   0  0  0  0  0  0  0  0  0  0  0  0
  147.3747  143.6132  155.4407 H   0  0  0  0  0  0  0  0  0  0  0  0
  146.0770  143.3171  154.2979 H   0  0  0  0  0  0  0  0  0  0  0  0
  145.8367  143.7515  157.2830 H   0  0  0  0  0  0  0  0  0  0  0  0
  144.8834  144.5106  156.0001 H   0  0  0  0  0  0  0  0  0  0  0  0
  143.8068  142.3932  157.2519 H   0  0  0  0  0  0  0  0  0  0  0  0
  143.7945  142.3634  155.4816 H   0  0  0  0  0  0  0  0  0  0  0  0
  1  2  1  0  0  0  0
  1 24  1  0  0  0  0
  1 25  1  0  0  0  0
  1 26  1  0  0  0  0
  2  3  1  0  0  0  0
  2 27  1  0  0  0  0
  2 28  1  0  0  0  0
  3  4  1  0  0  0  0
  3 29  1  0  0  0  0
  3 30  1  0  0  0  0
  4  5  1  0  0  0  0
  4 31  1  0  0  0  0
  4 32  1  0  0  0  0
  5 21  1  0  0  0  0
  5  6  1  0  0  0  0
  6  7  1  0  0  0  0
  6  8  2  0  0  0  0
  7 33  1  0  0  0  0
  7 34  1  0  0  0  0
  8  9  1  0  0  0  0
  8 18  1  0  0  0  0
  9 10  1  0  0  0  0
  9 11  1  0  0  0  0
 10 35  1  0  0  0  0
 10 36  1  0  0  0  0
 10 37  1  0  0  0  0
 11 12  2  0  0  0  0
 11 13  1  0  0  0  0
 13 17  1  0  0  0  0
 13 14  1  0  0  0  0
 13 38  1  0  0  0  0
 14 15  1  0  0  0  0
 14 39  1  0  0  0  0
 14 40  1  0  0  0  0
 15 16  1  0  0  0  0
 15 41  1  0  0  0  0
 15 42  1  0  0  0  0
 16 17  1  0  0  0  0
 16 43  1  0  0  0  0
 16 44  1  0  0  0  0
 18 19  2  0  0  0  0
 18 20  1  0  0  0  0
 20 23  1  0  0  0  0
 20 21  1  0  0  0  0
 21 22  2  0  0  0  0
M  END
> <s_m_source_file>
AV-unprocessed.smi

> <i_m_source_file_index>
1382

> <i_lp_mmshare_version>
43012

> <i_f3d_flags>
0

> <s_epik_input>
W0NIM11bQ0gyXVtDSDJdW0NIMl1uMWMoW05IMl0pYyhjKD1PKVtuSF1jMT1PKU4oW0NIM10pQyg9TylbQ0BASF0yW0NIMl1bQ0gyXVtDSDJdTzI=

> <s_epik_cmdline>
J2VwaWtfcHl0aG9uJywgJy1waCcsICc3LjAnLCAnLXRuJywgJzgnLCAnLW1hJywgJzIwMCcsICctbWV0YWxfYmluZGluZycsICctaW1hZScsICc8aW5maWxlLm1hZT4nLCAnLW9tYWUnLCAnPG91dGZpbGUubWFlPic=

> <r_lp_tautomer_probability>
1

> <r_epik_Ionization_Penalty>
1.19634e-05

> <r_epik_Ionization_Penalty_Charging>
6.01811e-06

> <r_epik_Ionization_Penalty_Neutral>
5.94533e-06

> <r_epik_State_Penalty>
-0

> <r_epik_Charging_Adjusted_Penalty>
6.01811e-06

> <i_epik_Tot_Q>
0

> <i_epik_Tot_abs_Q>
0

> <r_epik_Metal_State_Penalty>
-0

> <b_epik_Metal_Only>
0

> <s_epik_Chemistry_Notes>
This compound has an imine and may undergo hydrolysis.

> <s_lp_Force_Field>
OPLS_2005

> <r_lp_Energy>
42.2822

> <b_lp_Chiralities_Consistent>
1

> <s_lp_Variant>
AV-unprocessed.smi:1382-1

> <Gold.Version>
5.8.1

> <Gold.Id.Protein>
6NUR|6NUR_protein|mol2

> <Gold.PLP.Fitness>
40.7601

> <Gold.PLP.PLP>
-35.2534

> <Gold.PLP.part.hbond>
-2.0000

> <Gold.PLP.part.metal>
0.0000

> <Gold.PLP.part.buried>
-0.6664

> <Gold.PLP.part.nonpolar>
-33.1954

> <Gold.PLP.part.repulsive>
0.4464

> <Gold.PLP.ligand.clash>
0.0158

> <Gold.PLP.ligand.torsion>
1.1635

> <Gold.PLP.Chemscore.Hbond>
1.8500

> <Gold.PLP.Chemscore.CHOScore>
0.0000

> <Gold.PLP.Chemscore.Metal>
0.0000

> <Gold.Chemscore.Hbonds>
donor molecule, donor type, donor heavy atom, donor atom, acceptor molecule, acceptor atom, score
      P1  H  7989  7998       L1    19  1.00
      P1  H  7997  8008       L1    22  1.00

> <Gold.PLP.Chemscore.Internal.Correction>
2.2995

> <Gold.Rescore>
     Score         DG    S(hbond)    S(metal)    S(lipo)     H(rot)  DE(clash)    DE(int)     intcor
      9.32     -12.06       0.83        0.00      69.71       1.69       0.11       2.63       ----

> <Gold.Chemscore.Fitness>
9.3167

> <Gold.Chemscore.DG>
-12.0601

> <Gold.Chemscore.ZeroCoef>
-5.4800

> <Gold.Chemscore.Hbond>
0.8268

> <Gold.Chemscore.Metal>
0.0000

> <Gold.Chemscore.Lipo>
69.7069

> <Gold.Chemscore.Internal_Hbond>
0.0000

> <Gold.Chemscore.DEClash>
0.1121

> <Gold.Chemscore.DEInternal>
2.6312

> <Gold.Chemscore.Rot>
1.6942

> <Gold.Chemscore.Internal.Correction>
   9.000000E+99

> <Gold.Chemscore.Hbonds>
donor molecule, donor type, donor heavy atom, donor atom, acceptor molecule, acceptor atom, score
      P1  H  7989  7998       L1    19  0.65
      P1  H  7997  8008       L1    22  0.49

> <Gold.Chemscore.Hbond.Weighted>
-2.7616

> <Gold.Chemscore.Metal.Weighted>
-0.0000

> <Gold.Chemscore.Lipo.Weighted>
-8.1557

> <Gold.Chemscore.Internal_Hbond.Weighted>
0.0000

> <Gold.Chemscore.DEClash.Weighted>
0.1121

> <Gold.Chemscore.DEInternal.Weighted>
2.6312

> <Gold.Chemscore.Rot.Weighted>
4.3372

> <Gold.Chemscore.Internal.Correction.Weighted>
   9.000000E+99

> <Gold.Protein.RotatedTorsions>
[ 6907 6896 6895 6894 ] final    1.86 input  -60.11 | X-H torsion
[ 7974 7965 7964 7962 ] final   83.38 input  175.53 | X-H torsion
[ 8008 7997 7996 7995 ] final -101.87 input   59.86 | X-H torsion
[ 10167 10162 10161 10158 ] final   21.86 input  -65.29 | X-H torsion
[ 10718 10713 10712 10709 ] final -113.71 input   66.30 | X-H torsion
[ 10763 10752 10751 10750 ] final  -76.09 input  -60.55 | X-H torsion
[ 11005 11000 10999 10996 ] final  101.99 input  -57.11 | X-H torsion

> <Gold.Protein.ActiveResidues>
 VAL166  LYS551  ARG553  GLY616  TRP617  ASP618  TYR619  PRO620  LYS621  CYS622 
 ASP623  PHE694  ASN695  SER759  ASP760  ASP761  ALA762  ILE779  LEU786  VAL792 
 PHE793  MET794  SER795  GLU796  ALA797  LYS798  CYS799  TRP800  GLU811  SER814 

> <Gold.Protein.RotatedAtoms>
  151.5995  135.1048  160.0056 H   0  0  0  0  0  0  0  0  0  0  0  0  # atno 6907 bound_to 6896
  152.4265  133.7200  159.6538 H   0  0  0  0  0  0  0  0  0  0  0  0  # atno 6908 bound_to 6896
  150.8155  133.8274  159.3185 H   0  0  0  0  0  0  0  0  0  0  0  0  # atno 6909 bound_to 6896
  145.6127  139.2371  143.2183 H   0  0  0  0  0  0  0  0  0  0  0  0  # atno 7974 bound_to 7965
  154.8487  140.0432  157.1589 H   0  0  0  0  0  0  0  0  0  0  0  0  # atno 8008 bound_to 7997
  154.8967  140.2994  155.5320 H   0  0  0  0  0  0  0  0  0  0  0  0  # atno 8009 bound_to 7997
  156.2995  140.2383  156.3989 H   0  0  0  0  0  0  0  0  0  0  0  0  # atno 8010 bound_to 7997
  140.5393  143.9705  150.6510 H   0  0  0  0  0  0  0  0  0  0  0  0  # atno 10167 bound_to 10162
  156.0784  130.5988  150.8678 H   0  0  0  0  0  0  0  0  0  0  0  0  # atno 10718 bound_to 10713
  154.4953  135.5809  153.6490 H   0  0  0  0  0  0  0  0  0  0  0  0  # atno 10763 bound_to 10752
  152.9869  135.6122  154.3073 H   0  0  0  0  0  0  0  0  0  0  0  0  # atno 10764 bound_to 10752
  154.2976  135.2847  155.2605 H   0  0  0  0  0  0  0  0  0  0  0  0  # atno 10765 bound_to 10752
  139.8775  134.9206  156.4991 H   0  0  0  0  0  0  0  0  0  0  0  0  # atno 11005 bound_to 11000
  146.1492  140.6949  142.9330 LP  0  0  0  0  0  0  0  0  0  0  0  0  # atno 17320 bound_to 7965
  144.7263  140.4535  143.6970 LP  0  0  0  0  0  0  0  0  0  0  0  0  # atno 17321 bound_to 7965
  140.3101  143.3204  152.0887 LP  0  0  0  0  0  0  0  0  0  0  0  0  # atno 17342 bound_to 10162
  139.4983  144.6642  151.6396 LP  0  0  0  0  0  0  0  0  0  0  0  0  # atno 17343 bound_to 10162
  157.5889  131.0945  150.9150 LP  0  0  0  0  0  0  0  0  0  0  0  0  # atno 17370 bound_to 10713
  156.9330  130.5357  149.5279 LP  0  0  0  0  0  0  0  0  0  0  0  0  # atno 17371 bound_to 10713
  140.8603  133.8065  155.9258 LP  0  0  0  0  0  0  0  0  0  0  0  0  # atno 17394 bound_to 11000
  140.9056  134.2324  157.5016 LP  0  0  0  0  0  0  0  0  0  0  0  0  # atno 17395 bound_to 11000

$$$$
