AV-unprocessed.smi:955|AV-procd|sdf|4259|dock6
  -GOLD-   22720 2163D 1   1.00000     0.00000
 Structure written by MMmdl.
 29 29  0  0  0  0  0  0  0  0  1 V2000
  148.3499  141.2937  156.3575 C   0  0  0  0  0  0  0  0  0  0  0  0
  149.3739  140.1494  156.4350 C   0  0  2  0  0  0  0  0  0  0  0  0
  150.4004  140.5322  157.4018 N   0  0  0  0  0  0  0  0  0  0  0  0
  151.1040  141.6767  157.3821 C   0  0  0  0  0  0  0  0  0  0  0  0
  150.9511  142.5398  156.5166 O   0  0  0  0  0  0  0  0  0  0  0  0
  152.1183  141.8730  158.5238 C   0  0  2  0  0  0  0  0  0  0  0  0
  152.0726  140.7459  159.5760 C   0  0  0  0  0  0  0  0  0  0  0  0
  151.9685  143.1901  159.1350 N   0  0  0  0  0  0  0  0  0  0  0  0
  152.0033  144.4225  158.5142 C   0  0  0  0  0  0  0  0  0  0  0  0
  151.7825  145.3711  159.4710 C   0  0  0  0  0  0  0  0  0  0  0  0
  151.6130  144.6145  160.6635 C   0  0  0  0  0  0  0  0  0  0  0  0
  151.7180  143.3117  160.4597 N   0  0  0  0  0  0  0  0  0  0  0  0
  149.9908  139.9704  155.0383 C   0  0  0  0  0  0  0  0  0  0  0  0
  149.1477  139.7036  154.0383 N   0  0  0  0  0  0  0  0  0  0  0  0
  151.2025  140.0865  154.8578 O   0  0  0  0  0  0  0  0  0  0  0  0
  147.5521  141.0656  155.6495 H   0  0  0  0  0  0  0  0  0  0  0  0
  148.8108  142.2335  156.0493 H   0  0  0  0  0  0  0  0  0  0  0  0
  147.8819  141.4604  157.3283 H   0  0  0  0  0  0  0  0  0  0  0  0
  148.8763  139.2308  156.7527 H   0  0  0  0  0  0  0  0  0  0  0  0
  150.5804  139.8810  158.1518 H   0  0  0  0  0  0  0  0  0  0  0  0
  153.1079  141.8442  158.0651 H   0  0  0  0  0  0  0  0  0  0  0  0
  152.2712  139.7745  159.1224 H   0  0  0  0  0  0  0  0  0  0  0  0
  151.1021  140.6882  160.0703 H   0  0  0  0  0  0  0  0  0  0  0  0
  152.8270  140.9042  160.3471 H   0  0  0  0  0  0  0  0  0  0  0  0
  152.1792  144.5213  157.4530 H   0  0  0  0  0  0  0  0  0  0  0  0
  151.7443  146.4420  159.3385 H   0  0  0  0  0  0  0  0  0  0  0  0
  151.4145  144.9705  161.6636 H   0  0  0  0  0  0  0  0  0  0  0  0
  149.5010  139.5812  153.1005 H   0  0  0  0  0  0  0  0  0  0  0  0
  148.1581  139.6295  154.2239 H   0  0  0  0  0  0  0  0  0  0  0  0
  1  2  1  0  0  0  0
  1 16  1  0  0  0  0
  1 17  1  0  0  0  0
  1 18  1  0  0  0  0
  2  3  1  0  0  0  0
  2 13  1  0  0  0  0
  2 19  1  0  0  0  0
  3  4  1  0  0  0  0
  3 20  1  0  0  0  0
  4  5  2  0  0  0  0
  4  6  1  0  0  0  0
  6  7  1  0  0  0  0
  6  8  1  0  0  0  0
  6 21  1  0  0  0  0
  7 22  1  0  0  0  0
  7 23  1  0  0  0  0
  7 24  1  0  0  0  0
  8 12  1  0  0  0  0
  8  9  1  0  0  0  0
  9 10  2  0  0  0  0
  9 25  1  0  0  0  0
 10 11  1  0  0  0  0
 10 26  1  0  0  0  0
 11 12  2  0  0  0  0
 11 27  1  0  0  0  0
 13 14  1  0  0  0  0
 13 15  2  0  0  0  0
 14 28  1  0  0  0  0
 14 29  1  0  0  0  0
M  END
> <s_m_source_file>
AV-unprocessed.smi

> <i_m_source_file_index>
955

> <i_lp_mmshare_version>
43012

> <i_f3d_flags>
0

> <s_epik_input>
W05IMl1DKD1PKVtDQEhdKFtDSDNdKVtOSF1DKD1PKVtDQEhdKFtDSDNdKW4xW2NIXVtjSF1bY0hdbjE=

> <s_epik_cmdline>
J2VwaWtfcHl0aG9uJywgJy1waCcsICc3LjAnLCAnLXRuJywgJzgnLCAnLW1hJywgJzIwMCcsICctbWV0YWxfYmluZGluZycsICctaW1hZScsICc8aW5maWxlLm1hZT4nLCAnLW9tYWUnLCAnPG91dGZpbGUubWFlPic=

> <r_lp_tautomer_probability>
1

> <r_epik_Ionization_Penalty>
2.8146e-05

> <r_epik_Ionization_Penalty_Charging>
0

> <r_epik_Ionization_Penalty_Neutral>
2.8146e-05

> <r_epik_State_Penalty>
-0

> <r_epik_Charging_Adjusted_Penalty>
0

> <i_epik_Tot_Q>
0

> <i_epik_Tot_abs_Q>
0

> <r_epik_Metal_State_Penalty>
-0

> <b_epik_Metal_Only>
0

> <s_lp_Force_Field>
OPLS_2005

> <r_lp_Energy>
4.37159

> <b_lp_Chiralities_Consistent>
1

> <s_lp_Variant>
AV-unprocessed.smi:955-1

> <Gold.Version>
5.8.1

> <Gold.Id.Protein>
6NUR|6NUR_protein|mol2

> <Gold.PLP.Fitness>
36.4535

> <Gold.PLP.PLP>
-30.7866

> <Gold.PLP.part.hbond>
-2.0000

> <Gold.PLP.part.metal>
0.0000

> <Gold.PLP.part.buried>
-5.6369

> <Gold.PLP.part.nonpolar>
-24.6302

> <Gold.PLP.part.repulsive>
0.5761

> <Gold.PLP.ligand.clash>
0.0000

> <Gold.PLP.ligand.torsion>
0.2256

> <Gold.PLP.Chemscore.Hbond>
2.0000

> <Gold.PLP.Chemscore.CHOScore>
0.0000

> <Gold.PLP.Chemscore.Metal>
0.0000

> <Gold.Chemscore.Hbonds>
donor molecule, donor type, donor heavy atom, donor atom, acceptor molecule, acceptor atom, score
      L1  H    14    28       P1  7957  1.00
      P1  H  7989  7998       L1    15  1.00

> <Gold.PLP.Chemscore.Internal.Correction>
0.1182

> <Gold.Rescore>
     Score         DG    S(hbond)    S(metal)    S(lipo)     H(rot)  DE(clash)    DE(int)     intcor
     10.15     -12.85       1.90        0.00      58.96       2.30       0.01       2.70       ----

> <Gold.Chemscore.Fitness>
10.1455

> <Gold.Chemscore.DG>
-12.8534

> <Gold.Chemscore.ZeroCoef>
-5.4800

> <Gold.Chemscore.Hbond>
1.9030

> <Gold.Chemscore.Metal>
0.0000

> <Gold.Chemscore.Lipo>
58.9596

> <Gold.Chemscore.Internal_Hbond>
0.0000

> <Gold.Chemscore.DEClash>
0.0123

> <Gold.Chemscore.DEInternal>
2.6956

> <Gold.Chemscore.Rot>
2.2972

> <Gold.Chemscore.Internal.Correction>
   9.000000E+99

> <Gold.Chemscore.Hbonds>
donor molecule, donor type, donor heavy atom, donor atom, acceptor molecule, acceptor atom, score
      L1  H    14    28       P1  7957  0.94
      P1  H  7989  7998       L1    15  0.92

> <Gold.Chemscore.Hbond.Weighted>
-6.3560

> <Gold.Chemscore.Metal.Weighted>
-0.0000

> <Gold.Chemscore.Lipo.Weighted>
-6.8983

> <Gold.Chemscore.Internal_Hbond.Weighted>
0.0000

> <Gold.Chemscore.DEClash.Weighted>
0.0123

> <Gold.Chemscore.DEInternal.Weighted>
2.6956

> <Gold.Chemscore.Rot.Weighted>
5.8809

> <Gold.Chemscore.Internal.Correction.Weighted>
   9.000000E+99

> <Gold.Protein.RotatedTorsions>
[ 6907 6896 6895 6894 ] final -172.87 input  -60.11 | X-H torsion
[ 7974 7965 7964 7962 ] final  145.64 input  175.53 | X-H torsion
[ 8008 7997 7996 7995 ] final -102.37 input   59.86 | X-H torsion
[ 10167 10162 10161 10158 ] final  -83.39 input  -65.29 | X-H torsion
[ 10718 10713 10712 10709 ] final   88.62 input   66.30 | X-H torsion
[ 10763 10752 10751 10750 ] final -174.42 input  -60.55 | X-H torsion
[ 11005 11000 10999 10996 ] final -131.80 input  -57.11 | X-H torsion

> <Gold.Protein.ActiveResidues>
 VAL166  LYS551  ARG553  GLY616  TRP617  ASP618  TYR619  PRO620  LYS621  CYS622 
 ASP623  PHE694  ASN695  SER759  ASP760  ASP761  ALA762  ILE779  LEU786  VAL792 
 PHE793  MET794  SER795  GLU796  ALA797  LYS798  CYS799  TRP800  GLU811  SER814 

> <Gold.Protein.RotatedAtoms>
  151.5470  133.3423  159.2945 H   0  0  0  0  0  0  0  0  0  0  0  0  # atno 6907 bound_to 6896
  150.8501  134.7826  159.7013 H   0  0  0  0  0  0  0  0  0  0  0  0  # atno 6908 bound_to 6896
  152.4549  134.5320  159.9865 H   0  0  0  0  0  0  0  0  0  0  0  0  # atno 6909 bound_to 6896
  144.8736  139.5808  143.5875 H   0  0  0  0  0  0  0  0  0  0  0  0  # atno 7974 bound_to 7965
  154.8557  140.0429  157.1633 H   0  0  0  0  0  0  0  0  0  0  0  0  # atno 8008 bound_to 7997
  154.8894  140.2984  155.5358 H   0  0  0  0  0  0  0  0  0  0  0  0  # atno 8009 bound_to 7997
  156.2997  140.2396  156.3908 H   0  0  0  0  0  0  0  0  0  0  0  0  # atno 8010 bound_to 7997
  140.4231  143.2577  151.8863 H   0  0  0  0  0  0  0  0  0  0  0  0  # atno 10167 bound_to 10162
  157.6950  131.0302  150.3302 H   0  0  0  0  0  0  0  0  0  0  0  0  # atno 10718 bound_to 10713
  154.5964  135.2850  155.0581 H   0  0  0  0  0  0  0  0  0  0  0  0  # atno 10763 bound_to 10752
  154.1862  135.6448  153.5051 H   0  0  0  0  0  0  0  0  0  0  0  0  # atno 10764 bound_to 10752
  153.0140  135.5435  154.6668 H   0  0  0  0  0  0  0  0  0  0  0  0  # atno 10765 bound_to 10752
  140.9227  134.1424  157.4301 H   0  0  0  0  0  0  0  0  0  0  0  0  # atno 11005 bound_to 11000
  146.2947  139.7242  142.9135 LP  0  0  0  0  0  0  0  0  0  0  0  0  # atno 17320 bound_to 7965
  145.4085  141.0394  143.3030 LP  0  0  0  0  0  0  0  0  0  0  0  0  # atno 17321 bound_to 7965
  139.4783  144.5416  151.8520 LP  0  0  0  0  0  0  0  0  0  0  0  0  # atno 17342 bound_to 10162
  140.4511  144.1853  150.5897 LP  0  0  0  0  0  0  0  0  0  0  0  0  # atno 17343 bound_to 10162
  156.3777  130.3875  149.7126 LP  0  0  0  0  0  0  0  0  0  0  0  0  # atno 17370 bound_to 10713
  156.4518  130.7910  151.2931 LP  0  0  0  0  0  0  0  0  0  0  0  0  # atno 17371 bound_to 10713
  139.8779  134.9977  156.5860 LP  0  0  0  0  0  0  0  0  0  0  0  0  # atno 17394 bound_to 11000
  140.7967  133.8538  155.8692 LP  0  0  0  0  0  0  0  0  0  0  0  0  # atno 17395 bound_to 11000

$$$$
