AV-unprocessed.smi:2457|AV-procd|sdf|9705|dock5
  -GOLD-   2272013343D 1   1.00000     0.00000
 Structure written by MMmdl.
 40 41  0  0  0  0  0  0  0  0  1 V2000
  145.8959  129.4745  152.2875 C   0  0  0  0  0  0  0  0  0  0  0  0
  146.2409  130.9299  152.2558 C   0  0  0  0  0  0  0  0  0  0  0  0
  147.2432  131.5568  152.9530 C   0  0  0  0  0  0  0  0  0  0  0  0
  147.2980  133.2651  152.6165 S   0  0  0  0  0  0  0  0  0  0  0  0
  145.9352  133.0621  151.5201 C   0  0  0  0  0  0  0  0  0  0  0  0
  145.3116  134.2001  150.7702 C   0  0  1  0  0  0  0  0  0  0  0  0
  144.1300  133.7444  149.9022 C   0  0  0  0  0  0  0  0  0  0  0  0
  144.9675  135.4071  151.6716 C   0  0  0  0  0  0  0  0  0  0  0  0
  146.1517  136.1104  152.1580 N   0  0  0  0  0  0  0  0  0  0  0  0
  146.1309  137.1967  152.9418 C   0  0  0  0  0  0  0  0  0  0  0  0
  145.1019  137.7094  153.3824 O   0  0  0  0  0  0  0  0  0  0  0  0
  147.3638  137.6711  153.1664 N   0  0  0  0  0  0  0  0  0  0  0  0
  147.6743  138.8756  153.9305 C   0  0  2  0  0  0  0  0  0  0  0  0
  147.1251  140.1193  153.2007 C   0  0  0  0  0  0  0  0  0  0  0  0
  147.3699  141.4196  153.9825 C   0  0  0  0  0  0  0  0  0  0  0  0
  148.8637  141.6960  154.2042 C   0  0  0  0  0  0  0  0  0  0  0  0
  149.6368  140.3828  155.1874 S   0  0  0  0  0  0  0  0  0  0  0  0
  149.1951  138.9651  154.1451 C   0  0  0  0  0  0  0  0  0  0  0  0
  145.5013  131.7999  151.4500 N   0  0  0  0  0  0  0  0  0  0  0  0
  146.5838  128.9151  152.9220 H   0  0  0  0  0  0  0  0  0  0  0  0
  145.9409  129.0383  151.2893 H   0  0  0  0  0  0  0  0  0  0  0  0
  144.8886  129.3167  152.6732 H   0  0  0  0  0  0  0  0  0  0  0  0
  147.9515  131.1192  153.6407 H   0  0  0  0  0  0  0  0  0  0  0  0
  146.0725  134.5451  150.0691 H   0  0  0  0  0  0  0  0  0  0  0  0
  144.4329  132.9604  149.2075 H   0  0  0  0  0  0  0  0  0  0  0  0
  143.7336  134.5722  149.3137 H   0  0  0  0  0  0  0  0  0  0  0  0
  143.3169  133.3522  150.5137 H   0  0  0  0  0  0  0  0  0  0  0  0
  144.3092  136.1021  151.1482 H   0  0  0  0  0  0  0  0  0  0  0  0
  144.4167  135.0625  152.5471 H   0  0  0  0  0  0  0  0  0  0  0  0
  147.0467  135.7654  151.8435 H   0  0  0  0  0  0  0  0  0  0  0  0
  148.1441  137.1807  152.7546 H   0  0  0  0  0  0  0  0  0  0  0  0
  147.1994  138.8012  154.9110 H   0  0  0  0  0  0  0  0  0  0  0  0
  147.5757  140.1977  152.2104 H   0  0  0  0  0  0  0  0  0  0  0  0
  146.0524  140.0067  153.0379 H   0  0  0  0  0  0  0  0  0  0  0  0
  146.9276  142.2538  153.4371 H   0  0  0  0  0  0  0  0  0  0  0  0
  146.8555  141.3752  154.9434 H   0  0  0  0  0  0  0  0  0  0  0  0
  149.3817  141.7768  153.2481 H   0  0  0  0  0  0  0  0  0  0  0  0
  148.9986  142.6454  154.7229 H   0  0  0  0  0  0  0  0  0  0  0  0
  149.5660  138.0597  154.6268 H   0  0  0  0  0  0  0  0  0  0  0  0
  149.7134  139.0542  153.1897 H   0  0  0  0  0  0  0  0  0  0  0  0
  1  2  1  0  0  0  0
  1 20  1  0  0  0  0
  1 21  1  0  0  0  0
  1 22  1  0  0  0  0
  2 19  1  0  0  0  0
  2  3  2  0  0  0  0
  3  4  1  0  0  0  0
  3 23  1  0  0  0  0
  4  5  1  0  0  0  0
  5  6  1  0  0  0  0
  5 19  2  0  0  0  0
  6  7  1  0  0  0  0
  6  8  1  0  0  0  0
  6 24  1  0  0  0  0
  7 25  1  0  0  0  0
  7 26  1  0  0  0  0
  7 27  1  0  0  0  0
  8  9  1  0  0  0  0
  8 28  1  0  0  0  0
  8 29  1  0  0  0  0
  9 10  1  0  0  0  0
  9 30  1  0  0  0  0
 10 11  2  0  0  0  0
 10 12  1  0  0  0  0
 12 13  1  0  0  0  0
 12 31  1  0  0  0  0
 13 18  1  0  0  0  0
 13 14  1  0  0  0  0
 13 32  1  0  0  0  0
 14 15  1  0  0  0  0
 14 33  1  0  0  0  0
 14 34  1  0  0  0  0
 15 16  1  0  0  0  0
 15 35  1  0  0  0  0
 15 36  1  0  0  0  0
 16 17  1  0  0  0  0
 16 37  1  0  0  0  0
 16 38  1  0  0  0  0
 17 18  1  0  0  0  0
 18 39  1  0  0  0  0
 18 40  1  0  0  0  0
M  END
> <s_m_source_file>
AV-unprocessed.smi

> <i_m_source_file_index>
2457

> <i_lp_mmshare_version>
43012

> <i_f3d_flags>
0

> <s_epik_input>
W0NIM11jMVtjSF1zYyhuMSlbQ0BIXShbQ0gzXSlbQ0gyXVtOSF1DKD1PKVtOSF1bQ0BASF0yW0NIMl1bQ0gyXVtDSDJdU1tDSDJdMg==

> <s_epik_cmdline>
J2VwaWtfcHl0aG9uJywgJy1waCcsICc3LjAnLCAnLXRuJywgJzgnLCAnLW1hJywgJzIwMCcsICctbWV0YWxfYmluZGluZycsICctaW1hZScsICc8aW5maWxlLm1hZT4nLCAnLW9tYWUnLCAnPG91dGZpbGUubWFlPic=

> <r_epik_Ionization_Penalty>
0.00154805

> <r_epik_Ionization_Penalty_Charging>
0

> <r_epik_Ionization_Penalty_Neutral>
0.00154805

> <r_epik_State_Penalty>
0.00100357

> <r_epik_Charging_Adjusted_Penalty>
0.00100357

> <i_epik_Tot_Q>
0

> <i_epik_Tot_abs_Q>
0

> <r_epik_Metal_State_Penalty>
-0

> <b_epik_Metal_Only>
0

> <s_lp_Force_Field>
OPLS_2005

> <r_lp_Energy>
-7.39523

> <b_lp_Chiralities_Consistent>
1

> <s_lp_Variant>
AV-unprocessed.smi:2457-2

> <Gold.Version>
5.8.1

> <Gold.Id.Protein>
6NUR|6NUR_protein|mol2

> <Gold.PLP.Fitness>
38.2443

> <Gold.PLP.PLP>
-33.0214

> <Gold.PLP.part.hbond>
-1.9727

> <Gold.PLP.part.metal>
0.0000

> <Gold.PLP.part.buried>
-0.9739

> <Gold.PLP.part.nonpolar>
-30.5596

> <Gold.PLP.part.repulsive>
0.3627

> <Gold.PLP.ligand.clash>
0.0000

> <Gold.PLP.ligand.torsion>
0.2450

> <Gold.PLP.Chemscore.Hbond>
1.8640

> <Gold.PLP.Chemscore.CHOScore>
0.0000

> <Gold.PLP.Chemscore.Metal>
0.0000

> <Gold.Chemscore.Hbonds>
donor molecule, donor type, donor heavy atom, donor atom, acceptor molecule, acceptor atom, score
      L1  H     9    30       P1  7948  0.85
      L1  H    12    31       P1  7948  0.99

> <Gold.PLP.Chemscore.Internal.Correction>
0.1209

> <Gold.Rescore>
     Score         DG    S(hbond)    S(metal)    S(lipo)     H(rot)  DE(clash)    DE(int)     intcor
     18.30     -18.62       1.86        0.00      91.18       1.46       0.05       0.26       ----

> <Gold.Chemscore.Fitness>
18.3047

> <Gold.Chemscore.DG>
-18.6231

> <Gold.Chemscore.ZeroCoef>
-5.4800

> <Gold.Chemscore.Hbond>
1.8614

> <Gold.Chemscore.Metal>
0.0000

> <Gold.Chemscore.Lipo>
91.1753

> <Gold.Chemscore.Internal_Hbond>
0.0000

> <Gold.Chemscore.DEClash>
0.0548

> <Gold.Chemscore.DEInternal>
0.2635

> <Gold.Chemscore.Rot>
1.4616

> <Gold.Chemscore.Internal.Correction>
   9.000000E+99

> <Gold.Chemscore.Hbonds>
donor molecule, donor type, donor heavy atom, donor atom, acceptor molecule, acceptor atom, score
      L1  H     9    30       P1  7948  0.83
      L1  H    12    31       P1  7948  0.92

> <Gold.Chemscore.Hbond.Weighted>
-6.2172

> <Gold.Chemscore.Metal.Weighted>
-0.0000

> <Gold.Chemscore.Lipo.Weighted>
-10.6675

> <Gold.Chemscore.Internal_Hbond.Weighted>
0.0000

> <Gold.Chemscore.DEClash.Weighted>
0.0548

> <Gold.Chemscore.DEInternal.Weighted>
0.2635

> <Gold.Chemscore.Rot.Weighted>
3.7416

> <Gold.Chemscore.Internal.Correction.Weighted>
   9.000000E+99

> <Gold.Protein.RotatedTorsions>
[ 6907 6896 6895 6894 ] final -158.94 input  -60.11 | X-H torsion
[ 7974 7965 7964 7962 ] final  166.61 input  175.53 | X-H torsion
[ 8008 7997 7996 7995 ] final -145.61 input   59.86 | X-H torsion
[ 10167 10162 10161 10158 ] final   58.18 input  -65.29 | X-H torsion
[ 10718 10713 10712 10709 ] final -133.19 input   66.30 | X-H torsion
[ 10763 10752 10751 10750 ] final   38.12 input  -60.55 | X-H torsion
[ 11005 11000 10999 10996 ] final    4.63 input  -57.11 | X-H torsion

> <Gold.Protein.ActiveResidues>
 VAL166  LYS551  ARG553  GLY616  TRP617  ASP618  TYR619  PRO620  LYS621  CYS622 
 ASP623  PHE694  ASN695  SER759  ASP760  ASP761  ALA762  ILE779  LEU786  VAL792 
 PHE793  MET794  SER795  GLU796  ALA797  LYS798  CYS799  TRP800  GLU811  SER814 

> <Gold.Protein.RotatedAtoms>
  151.3259  133.4020  159.2658 H   0  0  0  0  0  0  0  0  0  0  0  0  # atno 6907 bound_to 6896
  150.9996  134.9312  159.7956 H   0  0  0  0  0  0  0  0  0  0  0  0  # atno 6908 bound_to 6896
  152.5271  134.3224  159.9205 H   0  0  0  0  0  0  0  0  0  0  0  0  # atno 6909 bound_to 6896
  144.7455  139.8641  143.6383 H   0  0  0  0  0  0  0  0  0  0  0  0  # atno 7974 bound_to 7965
  155.5459  140.0612  157.2860 H   0  0  0  0  0  0  0  0  0  0  0  0  # atno 8008 bound_to 7997
  154.4436  140.1911  156.0682 H   0  0  0  0  0  0  0  0  0  0  0  0  # atno 8009 bound_to 7997
  156.0551  140.3279  155.7400 H   0  0  0  0  0  0  0  0  0  0  0  0  # atno 8010 bound_to 7997
  140.1899  144.4096  150.6576 H   0  0  0  0  0  0  0  0  0  0  0  0  # atno 10167 bound_to 10162
  156.2424  130.7103  151.0970 H   0  0  0  0  0  0  0  0  0  0  0  0  # atno 10718 bound_to 10713
  153.0012  135.6258  154.2254 H   0  0  0  0  0  0  0  0  0  0  0  0  # atno 10763 bound_to 10752
  154.1997  135.2804  155.2996 H   0  0  0  0  0  0  0  0  0  0  0  0  # atno 10764 bound_to 10752
  154.5693  135.5681  153.7139 H   0  0  0  0  0  0  0  0  0  0  0  0  # atno 10765 bound_to 10752
  140.5797  134.0024  155.8042 H   0  0  0  0  0  0  0  0  0  0  0  0  # atno 11005 bound_to 11000
  146.1327  139.4366  143.0158 LP  0  0  0  0  0  0  0  0  0  0  0  0  # atno 17320 bound_to 7965
  145.7138  141.0097  143.1439 LP  0  0  0  0  0  0  0  0  0  0  0  0  # atno 17321 bound_to 7965
  140.6462  143.2214  151.6179 LP  0  0  0  0  0  0  0  0  0  0  0  0  # atno 17342 bound_to 10162
  139.5260  144.3058  152.1035 LP  0  0  0  0  0  0  0  0  0  0  0  0  # atno 17343 bound_to 10162
  157.7181  131.0698  150.6248 LP  0  0  0  0  0  0  0  0  0  0  0  0  # atno 17370 bound_to 10713
  156.6322  130.4435  149.5782 LP  0  0  0  0  0  0  0  0  0  0  0  0  # atno 17371 bound_to 10713
  141.1004  133.9777  157.3089 LP  0  0  0  0  0  0  0  0  0  0  0  0  # atno 17394 bound_to 11000
  139.9323  135.0199  156.8441 LP  0  0  0  0  0  0  0  0  0  0  0  0  # atno 17395 bound_to 11000

$$$$
