AV-unprocessed.smi:507|AV-procd|sdf|2754|dock3
  -GOLD-   2262023223D 1   1.00000     0.00000
 Structure written by MMmdl.
 35 36  0  0  0  0  0  0  0  0  3 V2000
  152.2644  143.9122  160.8637 C   0  0  0  0  0  0  0  0  0  0  0  0
  152.0827  142.9194  159.7282 C   0  0  0  0  0  0  0  0  0  0  0  0
  151.2208  143.2641  158.6624 C   0  0  0  0  0  0  0  0  0  0  0  0
  151.0778  142.3366  157.6372 C   0  0  0  0  0  0  0  0  0  0  0  0
  150.3164  142.3752  156.4671 N   0  3  0  0  0  0  0  0  0  0  0  0
  150.5033  141.2234  155.7646 C   0  0  0  0  0  0  0  0  0  0  0  0
  151.3750  140.4504  156.4687 N   0  0  0  0  0  0  0  0  0  0  0  0
  151.9208  139.1208  156.1639 C   0  0  0  0  0  0  0  0  0  0  0  0
  150.8237  138.0811  155.8582 C   0  0  2  0  0  0  0  0  0  0  0  0
  151.4101  136.7953  155.7864 O   0  0  0  0  0  0  0  0  0  0  0  0
  150.0989  138.3746  154.5336 C   0  0  0  0  0  0  0  0  0  0  0  0
  148.9107  137.5193  154.3654 N   0  3  0  0  0  0  0  0  0  0  0  0
  151.7567  141.1030  157.6461 C   0  0  0  0  0  0  0  0  0  0  0  0
  152.6078  140.7463  158.6892 C   0  0  0  0  0  0  0  0  0  0  0  0
  152.7661  141.6758  159.7421 C   0  0  0  0  0  0  0  0  0  0  0  0
  153.6868  141.3144  160.8954 C   0  0  0  0  0  0  0  0  0  0  0  0
  151.6678  144.8113  160.7066 H   0  0  0  0  0  0  0  0  0  0  0  0
  153.3085  144.2155  160.9432 H   0  0  0  0  0  0  0  0  0  0  0  0
  151.9579  143.4708  161.8122 H   0  0  0  0  0  0  0  0  0  0  0  0
  150.6969  144.2088  158.6461 H   0  0  0  0  0  0  0  0  0  0  0  0
  150.0459  140.9716  154.8184 H   0  0  0  0  0  0  0  0  0  0  0  0
  152.6143  139.2176  155.3276 H   0  0  0  0  0  0  0  0  0  0  0  0
  152.5160  138.8060  157.0225 H   0  0  0  0  0  0  0  0  0  0  0  0
  150.0973  138.0786  156.6721 H   0  0  0  0  0  0  0  0  0  0  0  0
  151.2481  136.3415  156.5999 H   0  0  0  0  0  0  0  0  0  0  0  0
  149.7654  139.4127  154.5130 H   0  0  0  0  0  0  0  0  0  0  0  0
  150.7683  138.2387  153.6831 H   0  0  0  0  0  0  0  0  0  0  0  0
  148.9376  137.0739  153.4594 H   0  0  0  0  0  0  0  0  0  0  0  0
  148.0757  138.0827  154.4391 H   0  0  0  0  0  0  0  0  0  0  0  0
  153.1282  139.8002  158.6999 H   0  0  0  0  0  0  0  0  0  0  0  0
  154.1381  140.3318  160.7538 H   0  0  0  0  0  0  0  0  0  0  0  0
  153.1338  141.2938  161.8349 H   0  0  0  0  0  0  0  0  0  0  0  0
  154.4943  142.0414  160.9842 H   0  0  0  0  0  0  0  0  0  0  0  0
  148.9019  136.8133  155.0880 H   0  0  0  0  0  0  0  0  0  0  0  0
  149.7132  143.1308  156.1676 H   0  0  0  0  0  0  0  0  0  0  0  0
  1  2  1  0  0  0  0
  1 17  1  0  0  0  0
  1 18  1  0  0  0  0
  1 19  1  0  0  0  0
  2 15  1  0  0  0  0
  2  3  2  0  0  0  0
  3  4  1  0  0  0  0
  3 20  1  0  0  0  0
  4 13  2  0  0  0  0
  4  5  1  0  0  0  0
  5  6  2  0  0  0  0
  5 35  1  0  0  0  0
  6  7  1  0  0  0  0
  6 21  1  0  0  0  0
  7  8  1  0  0  0  0
  7 13  1  0  0  0  0
  8  9  1  0  0  0  0
  8 22  1  0  0  0  0
  8 23  1  0  0  0  0
  9 10  1  0  0  0  0
  9 11  1  0  0  0  0
  9 24  1  0  0  0  0
 10 25  1  0  0  0  0
 11 12  1  0  0  0  0
 11 26  1  0  0  0  0
 11 27  1  0  0  0  0
 12 28  1  0  0  0  0
 12 29  1  0  0  0  0
 12 34  1  0  0  0  0
 13 14  1  0  0  0  0
 14 15  2  0  0  0  0
 14 30  1  0  0  0  0
 15 16  1  0  0  0  0
 16 31  1  0  0  0  0
 16 32  1  0  0  0  0
 16 33  1  0  0  0  0
M  CHG  1   5   1
M  CHG  1  12   1
M  END
> <s_m_source_file>
AV-unprocessed.smi

> <i_m_source_file_index>
507

> <i_lp_mmshare_version>
43012

> <i_f3d_flags>
0

> <s_epik_input>
W0NIM11jKFtjSF0xKWMoW0NIM10pW2NIXWMoYzEyKW4oW2NIXW4yKVtDSDJdW0NASF0oW09IXSlbQ0gyXVtOSDJd

> <s_epik_cmdline>
J2VwaWtfcHl0aG9uJywgJy1waCcsICc3LjAnLCAnLXRuJywgJzgnLCAnLW1hJywgJzIwMCcsICctbWV0YWxfYmluZGluZycsICctaW1hZScsICc8aW5maWxlLm1hZT4nLCAnLW9tYWUnLCAnPG91dGZpbGUubWFlPic=

> <r_epik_Ionization_Penalty>
1.17892

> <r_epik_Ionization_Penalty_Charging>
1.17892

> <r_epik_Ionization_Penalty_Neutral>
1.79057e-06

> <r_epik_State_Penalty>
1.21155

> <r_epik_Charging_Adjusted_Penalty>
2.39047

> <i_epik_Tot_Q>
2

> <i_epik_Tot_abs_Q>
2

> <r_epik_Metal_State_Penalty>
5.22091

> <b_epik_Metal_Only>
0

> <s_lp_Force_Field>
OPLS_2005

> <r_lp_Energy>
17.3712

> <b_lp_Chiralities_Consistent>
1

> <s_lp_Variant>
AV-unprocessed.smi:507-3

> <Gold.Version>
5.8.1

> <Gold.Id.Protein>
6NUR|6NUR_protein|mol2

> <Gold.PLP.Fitness>
51.2808

> <Gold.PLP.PLP>
-36.5616

> <Gold.PLP.part.hbond>
-3.0000

> <Gold.PLP.part.metal>
0.0000

> <Gold.PLP.part.buried>
-4.3161

> <Gold.PLP.part.nonpolar>
-28.8709

> <Gold.PLP.part.repulsive>
0.0810

> <Gold.PLP.ligand.clash>
0.0000

> <Gold.PLP.ligand.torsion>
0.1297

> <Gold.PLP.Chemscore.Hbond>
4.9920

> <Gold.PLP.Chemscore.CHOScore>
0.0000

> <Gold.PLP.Chemscore.Metal>
0.0000

> <Gold.Chemscore.Hbonds>
donor molecule, donor type, donor heavy atom, donor atom, acceptor molecule, acceptor atom, score
      L1  H     5    35       P1  8028  2.00
      L1  H    12    28       P1  7948  2.00
      P1  H 10752 10765       L1    10  0.34

> <Gold.PLP.Chemscore.Internal.Correction>
0.0025

> <Gold.Rescore>
     Score         DG    S(hbond)    S(metal)    S(lipo)     H(rot)  DE(clash)    DE(int)     intcor
     19.22     -19.63       2.67        0.00      95.44       2.32       0.17       0.23       ----

> <Gold.Chemscore.Fitness>
19.2233

> <Gold.Chemscore.DG>
-19.6273

> <Gold.Chemscore.ZeroCoef>
-5.4800

> <Gold.Chemscore.Hbond>
2.6692

> <Gold.Chemscore.Metal>
0.0000

> <Gold.Chemscore.Lipo>
95.4377

> <Gold.Chemscore.Internal_Hbond>
0.0000

> <Gold.Chemscore.DEClash>
0.1734

> <Gold.Chemscore.DEInternal>
0.2307

> <Gold.Chemscore.Rot>
2.3180

> <Gold.Chemscore.Internal.Correction>
   9.000000E+99

> <Gold.Chemscore.Hbonds>
donor molecule, donor type, donor heavy atom, donor atom, acceptor molecule, acceptor atom, score
      L1  H     5    35       P1  8028  1.00
      L1  H    12    28       P1  7948  1.00
      P1  H 10752 10765       L1    10  0.24

> <Gold.Chemscore.Hbond.Weighted>
-8.9152

> <Gold.Chemscore.Metal.Weighted>
-0.0000

> <Gold.Chemscore.Lipo.Weighted>
-11.1662

> <Gold.Chemscore.Internal_Hbond.Weighted>
0.0000

> <Gold.Chemscore.DEClash.Weighted>
0.1734

> <Gold.Chemscore.DEInternal.Weighted>
0.2307

> <Gold.Chemscore.Rot.Weighted>
5.9340

> <Gold.Chemscore.Internal.Correction.Weighted>
   9.000000E+99

> <Gold.Protein.RotatedTorsions>
[ 6907 6896 6895 6894 ] final   84.27 input  -60.11 | X-H torsion
[ 7974 7965 7964 7962 ] final  -89.11 input  175.53 | X-H torsion
[ 8008 7997 7996 7995 ] final  -54.04 input   59.86 | X-H torsion
[ 10167 10162 10161 10158 ] final   38.26 input  -65.29 | X-H torsion
[ 10718 10713 10712 10709 ] final   47.29 input   66.30 | X-H torsion
[ 10763 10752 10751 10750 ] final  176.15 input  -60.55 | X-H torsion
[ 11005 11000 10999 10996 ] final  119.83 input  -57.11 | X-H torsion

> <Gold.Protein.ActiveResidues>
 VAL166  LYS551  ARG553  GLY616  TRP617  ASP618  TYR619  PRO620  LYS621  CYS622 
 ASP623  PHE694  ASN695  SER759  ASP760  ASP761  ALA762  ILE779  LEU786  VAL792 
 PHE793  MET794  SER795  GLU796  ALA797  LYS798  CYS799  TRP800  GLU811  SER814 

> <Gold.Protein.RotatedAtoms>
  152.5348  134.2767  159.8991 H   0  0  0  0  0  0  0  0  0  0  0  0  # atno 6907 bound_to 6896
  151.2722  133.4243  159.2629 H   0  0  0  0  0  0  0  0  0  0  0  0  # atno 6908 bound_to 6896
  151.0358  134.9587  159.8192 H   0  0  0  0  0  0  0  0  0  0  0  0  # atno 6909 bound_to 6896
  145.4442  140.9559  143.2058 H   0  0  0  0  0  0  0  0  0  0  0  0  # atno 7974 bound_to 7965
  154.4151  140.1185  156.5251 H   0  0  0  0  0  0  0  0  0  0  0  0  # atno 8008 bound_to 7997
  155.6663  140.3496  155.4782 H   0  0  0  0  0  0  0  0  0  0  0  0  # atno 8009 bound_to 7997
  155.9671  140.1134  157.0835 H   0  0  0  0  0  0  0  0  0  0  0  0  # atno 8010 bound_to 7997
  140.3954  144.1796  150.6132 H   0  0  0  0  0  0  0  0  0  0  0  0  # atno 10167 bound_to 10162
  157.4570  130.8173  149.7846 H   0  0  0  0  0  0  0  0  0  0  0  0  # atno 10718 bound_to 10713
  154.4772  135.2773  155.1598 H   0  0  0  0  0  0  0  0  0  0  0  0  # atno 10763 bound_to 10752
  154.3323  135.6187  153.5560 H   0  0  0  0  0  0  0  0  0  0  0  0  # atno 10764 bound_to 10752
  152.9871  135.5768  154.5166 H   0  0  0  0  0  0  0  0  0  0  0  0  # atno 10765 bound_to 10752
  139.9162  134.9631  156.7715 H   0  0  0  0  0  0  0  0  0  0  0  0  # atno 11005 bound_to 11000
  144.8102  139.5976  143.7033 LP  0  0  0  0  0  0  0  0  0  0  0  0  # atno 17320 bound_to 7965
  146.2540  139.6261  142.9408 LP  0  0  0  0  0  0  0  0  0  0  0  0  # atno 17321 bound_to 7965
  140.4796  143.2384  151.8974 LP  0  0  0  0  0  0  0  0  0  0  0  0  # atno 17342 bound_to 10162
  139.4787  144.5283  151.8703 LP  0  0  0  0  0  0  0  0  0  0  0  0  # atno 17343 bound_to 10162
  156.0011  130.3879  150.2601 LP  0  0  0  0  0  0  0  0  0  0  0  0  # atno 17370 bound_to 10713
  157.0776  131.0134  151.3168 LP  0  0  0  0  0  0  0  0  0  0  0  0  # atno 17371 bound_to 10713
  140.6617  133.9639  155.7808 LP  0  0  0  0  0  0  0  0  0  0  0  0  # atno 17394 bound_to 11000
  141.0639  134.0306  157.3621 LP  0  0  0  0  0  0  0  0  0  0  0  0  # atno 17395 bound_to 11000

$$$$
