AV-unprocessed.smi:109|AV-procd|sdf|1050|dock10
  -GOLD-   2262018103D 1   1.00000     0.00000
 Structure written by MMmdl.
 58 61  0  0  0  0  0  0  0  0  1 V2000
  154.7127  139.9140  162.9795 O   0  0  0  0  0  0  0  0  0  0  0  0
  154.5920  139.0229  161.8919 C   0  0  0  0  0  0  0  0  0  0  0  0
  153.1244  138.9477  161.4365 C   0  0  0  0  0  0  0  0  0  0  0  0
  152.8388  139.6623  160.0922 C   0  0  1  0  0  0  0  0  0  0  0  0
  151.7592  138.9662  159.3876 N   0  0  0  0  0  0  0  0  0  0  0  0
  151.5746  139.0828  158.0531 C   0  0  0  0  0  0  0  0  0  0  0  0
  152.3813  138.4448  157.1674 N   0  0  0  0  0  0  0  0  0  0  0  0
  152.1681  138.5746  155.8564 C   0  0  0  0  0  0  0  0  0  0  0  0
  151.2224  139.2790  155.2336 N   0  0  0  0  0  0  0  0  0  0  0  0
  150.4042  139.9285  156.1128 C   0  0  0  0  0  0  0  0  0  0  0  0
  150.5213  139.8780  157.5316 C   0  0  0  0  0  0  0  0  0  0  0  0
  149.5335  140.6566  158.1152 N   0  0  0  0  0  0  0  0  0  0  0  0
  148.8761  141.1422  157.0983 C   0  0  0  0  0  0  0  0  0  0  0  0
  149.3156  140.7471  155.8531 N   0  0  0  0  0  0  0  0  0  0  0  0
  148.7339  141.1906  154.5364 C   0  0  1  0  0  0  0  0  0  0  0  0
  148.2175  140.0762  153.8829 O   0  0  0  0  0  0  0  0  0  0  0  0
  146.8324  139.9489  154.1690 C   0  0  2  0  0  0  0  0  0  0  0  0
  146.1440  139.1432  153.0567 C   0  0  0  0  0  0  0  0  0  0  0  0
  146.4245  139.7140  151.7963 O   0  0  0  0  0  0  0  0  0  0  0  0
  146.3537  141.4083  154.2463 C   0  0  1  0  0  0  0  0  0  0  0  0
  145.3211  141.5297  155.2037 O   0  0  0  0  0  0  0  0  0  0  0  0
  147.5894  142.2084  154.6741 C   0  0  2  0  0  0  0  0  0  0  0  0
  147.7822  143.3091  153.8084 O   0  0  0  0  0  0  0  0  0  0  0  0
  152.4677  141.1650  160.2522 C   0  0  0  0  0  0  0  0  0  0  0  0
  152.3868  141.8709  158.8734 C   0  0  0  0  0  0  0  0  0  0  0  0
  152.0297  143.3606  158.9926 C   0  0  0  0  0  0  0  0  0  0  0  0
  153.0308  144.0988  159.8886 C   0  0  0  0  0  0  0  0  0  0  0  0
  153.1079  143.4353  161.2687 C   0  0  0  0  0  0  0  0  0  0  0  0
  153.4562  141.9416  161.1586 C   0  0  0  0  0  0  0  0  0  0  0  0
  149.5952  141.5815  153.9926 H   0  0  0  0  0  0  0  0  0  0  0  0
  146.7086  139.4505  155.1307 H   0  0  0  0  0  0  0  0  0  0  0  0
  145.9926  141.7406  153.2714 H   0  0  0  0  0  0  0  0  0  0  0  0
  147.5322  142.5907  155.6929 H   0  0  0  0  0  0  0  0  0  0  0  0
  155.6196  139.9463  163.2429 H   0  0  0  0  0  0  0  0  0  0  0  0
  155.2296  139.3704  161.0785 H   0  0  0  0  0  0  0  0  0  0  0  0
  154.9608  138.0457  162.2038 H   0  0  0  0  0  0  0  0  0  0  0  0
  152.8115  137.9046  161.3721 H   0  0  0  0  0  0  0  0  0  0  0  0
  152.5292  139.3981  162.2289 H   0  0  0  0  0  0  0  0  0  0  0  0
  153.7567  139.6364  159.5052 H   0  0  0  0  0  0  0  0  0  0  0  0
  151.1351  138.4315  159.9744 H   0  0  0  0  0  0  0  0  0  0  0  0
  152.8507  138.0364  155.2157 H   0  0  0  0  0  0  0  0  0  0  0  0
  148.0380  141.8109  157.2313 H   0  0  0  0  0  0  0  0  0  0  0  0
  146.5270  138.1221  153.0442 H   0  0  0  0  0  0  0  0  0  0  0  0
  145.0671  139.0834  153.2164 H   0  0  0  0  0  0  0  0  0  0  0  0
  147.3597  139.8262  151.7184 H   0  0  0  0  0  0  0  0  0  0  0  0
  144.5739  141.0363  154.8991 H   0  0  0  0  0  0  0  0  0  0  0  0
  148.3697  143.9199  154.2262 H   0  0  0  0  0  0  0  0  0  0  0  0
  151.4810  141.2212  160.7151 H   0  0  0  0  0  0  0  0  0  0  0  0
  153.3407  141.7683  158.3542 H   0  0  0  0  0  0  0  0  0  0  0  0
  151.6420  141.3933  158.2366 H   0  0  0  0  0  0  0  0  0  0  0  0
  152.0103  143.8180  158.0030 H   0  0  0  0  0  0  0  0  0  0  0  0
  151.0240  143.4649  159.4016 H   0  0  0  0  0  0  0  0  0  0  0  0
  154.0164  144.0947  159.4214 H   0  0  0  0  0  0  0  0  0  0  0  0
  152.7394  145.1443  159.9923 H   0  0  0  0  0  0  0  0  0  0  0  0
  153.8504  143.9445  161.8837 H   0  0  0  0  0  0  0  0  0  0  0  0
  152.1524  143.5491  161.7821 H   0  0  0  0  0  0  0  0  0  0  0  0
  153.4594  141.5344  162.1683 H   0  0  0  0  0  0  0  0  0  0  0  0
  154.4714  141.8308  160.7752 H   0  0  0  0  0  0  0  0  0  0  0  0
  1  2  1  0  0  0  0
  1 34  1  0  0  0  0
  2  3  1  0  0  0  0
  2 35  1  0  0  0  0
  2 36  1  0  0  0  0
  3  4  1  0  0  0  0
  3 37  1  0  0  0  0
  3 38  1  0  0  0  0
  4  5  1  0  0  0  0
  4 24  1  0  0  0  0
  4 39  1  0  0  0  0
  5  6  1  0  0  0  0
  5 40  1  0  0  0  0
  6 11  1  0  0  0  0
  6  7  2  0  0  0  0
  7  8  1  0  0  0  0
  8  9  2  0  0  0  0
  8 41  1  0  0  0  0
  9 10  1  0  0  0  0
 10 14  1  0  0  0  0
 10 11  2  0  0  0  0
 11 12  1  0  0  0  0
 12 13  2  0  0  0  0
 13 14  1  0  0  0  0
 13 42  1  0  0  0  0
 14 15  1  0  0  0  0
 15 30  1  0  0  0  0
 15 22  1  0  0  0  0
 15 16  1  0  0  0  0
 16 17  1  0  0  0  0
 17 31  1  0  0  0  0
 17 18  1  0  0  0  0
 17 20  1  0  0  0  0
 18 19  1  0  0  0  0
 18 43  1  0  0  0  0
 18 44  1  0  0  0  0
 19 45  1  0  0  0  0
 20 32  1  0  0  0  0
 20 21  1  0  0  0  0
 20 22  1  0  0  0  0
 21 46  1  0  0  0  0
 22 33  1  0  0  0  0
 22 23  1  0  0  0  0
 23 47  1  0  0  0  0
 24 29  1  0  0  0  0
 24 25  1  0  0  0  0
 24 48  1  0  0  0  0
 25 26  1  0  0  0  0
 25 49  1  0  0  0  0
 25 50  1  0  0  0  0
 26 27  1  0  0  0  0
 26 51  1  0  0  0  0
 26 52  1  0  0  0  0
 27 28  1  0  0  0  0
 27 53  1  0  0  0  0
 27 54  1  0  0  0  0
 28 29  1  0  0  0  0
 28 55  1  0  0  0  0
 28 56  1  0  0  0  0
 29 57  1  0  0  0  0
 29 58  1  0  0  0  0
M  END
> <s_m_source_file>
AV-unprocessed.smi

> <i_m_source_file_index>
109

> <i_lp_mmshare_version>
43012

> <i_f3d_flags>
0

> <s_epik_input>
W0NIMl0xW0NIMl1bQ0gyXVtDSDJdW0NIMl1bQ0hdMVtDQEhdKFtDSDJdW0NIMl1bT0hdKVtOSF1jKG5bY0hdbjIpYyhjMjMpbltjSF1uM1tDQEBIXTRPW0NASF0oW0NIMl1bT0hdKVtDQEBIXShbT0hdKVtDQEhdNFtPSF0=

> <s_epik_cmdline>
J2VwaWtfcHl0aG9uJywgJy1waCcsICc3LjAnLCAnLXRuJywgJzgnLCAnLW1hJywgJzIwMCcsICctbWV0YWxfYmluZGluZycsICctaW1hZScsICc8aW5maWxlLm1hZT4nLCAnLW9tYWUnLCAnPG91dGZpbGUubWFlPic=

> <r_lp_tautomer_probability>
1

> <r_epik_Ionization_Penalty>
0.000793976

> <r_epik_Ionization_Penalty_Charging>
0

> <r_epik_Ionization_Penalty_Neutral>
0.000793976

> <r_epik_State_Penalty>
-0

> <r_epik_Charging_Adjusted_Penalty>
0

> <i_epik_Tot_Q>
0

> <i_epik_Tot_abs_Q>
0

> <r_epik_Metal_State_Penalty>
-0

> <b_epik_Metal_Only>
0

> <s_epik_Chemistry_Notes>
This compound contains an acetal/aminal-like group ( X-CH(R)-Y where X, Y are N, S, or O) that may be acid/base labile, releasing an aldehyde.

> <s_lp_Force_Field>
OPLS_2005

> <r_lp_Energy>
47.2869

> <b_lp_Chiralities_Consistent>
1

> <s_lp_Variant>
AV-unprocessed.smi:109-20

> <Gold.Version>
5.8.1

> <Gold.Id.Protein>
6NUR|6NUR_protein|mol2

> <Gold.PLP.Fitness>
57.3477

> <Gold.PLP.PLP>
-48.7218

> <Gold.PLP.part.hbond>
-5.6084

> <Gold.PLP.part.metal>
0.0000

> <Gold.PLP.part.buried>
-4.5831

> <Gold.PLP.part.nonpolar>
-41.1594

> <Gold.PLP.part.repulsive>
3.5603

> <Gold.PLP.ligand.clash>
0.0000

> <Gold.PLP.ligand.torsion>
1.7915

> <Gold.PLP.Chemscore.Hbond>
4.0000

> <Gold.PLP.Chemscore.CHOScore>
0.0000

> <Gold.PLP.Chemscore.Metal>
0.0000

> <Gold.Chemscore.Hbonds>
donor molecule, donor type, donor heavy atom, donor atom, acceptor molecule, acceptor atom, score
      L1  H    19    45       P1  7957  0.36
      L1  H    23    47       P1  8028  0.99
      P1  H  7989  7998       L1     9  0.11

> <Gold.PLP.Chemscore.Internal.Correction>
0.2088

> <Gold.Rescore>
     Score         DG    S(hbond)    S(metal)    S(lipo)     H(rot)  DE(clash)    DE(int)     intcor
      8.22     -14.65       2.92        0.00     114.76       5.47       3.87       2.56       ----

> <Gold.Chemscore.Fitness>
8.2162

> <Gold.Chemscore.DG>
-14.6529

> <Gold.Chemscore.ZeroCoef>
-5.4800

> <Gold.Chemscore.Hbond>
2.9161

> <Gold.Chemscore.Metal>
0.0000

> <Gold.Chemscore.Lipo>
114.7571

> <Gold.Chemscore.Internal_Hbond>
0.0000

> <Gold.Chemscore.DEClash>
3.8723

> <Gold.Chemscore.DEInternal>
2.5644

> <Gold.Chemscore.Rot>
5.4662

> <Gold.Chemscore.Internal.Correction>
   9.000000E+99

> <Gold.Chemscore.Hbonds>
donor molecule, donor type, donor heavy atom, donor atom, acceptor molecule, acceptor atom, score
      L1  H    19    45       P1  7957  0.35
      L1  H    23    47       P1  8028  0.84
      P1  H  7989  7998       L1     9  0.07

> <Gold.Chemscore.Hbond.Weighted>
-9.7398

> <Gold.Chemscore.Metal.Weighted>
-0.0000

> <Gold.Chemscore.Lipo.Weighted>
-13.4266

> <Gold.Chemscore.Internal_Hbond.Weighted>
0.0000

> <Gold.Chemscore.DEClash.Weighted>
3.8723

> <Gold.Chemscore.DEInternal.Weighted>
2.5644

> <Gold.Chemscore.Rot.Weighted>
13.9935

> <Gold.Chemscore.Internal.Correction.Weighted>
   9.000000E+99

> <Gold.Protein.RotatedTorsions>
[ 6907 6896 6895 6894 ] final   13.31 input  -60.11 | X-H torsion
[ 7974 7965 7964 7962 ] final -127.68 input  175.53 | X-H torsion
[ 8008 7997 7996 7995 ] final   54.59 input   59.86 | X-H torsion
[ 10167 10162 10161 10158 ] final -163.93 input  -65.29 | X-H torsion
[ 10718 10713 10712 10709 ] final   78.03 input   66.30 | X-H torsion
[ 10763 10752 10751 10750 ] final  128.10 input  -60.55 | X-H torsion
[ 11005 11000 10999 10996 ] final   52.99 input  -57.11 | X-H torsion

> <Gold.Protein.ActiveResidues>
 VAL166  LYS551  ARG553  GLY616  TRP617  ASP618  TYR619  PRO620  LYS621  CYS622 
 ASP623  PHE694  ASN695  SER759  ASP760  ASP761  ALA762  ILE779  LEU786  VAL792 
 PHE793  MET794  SER795  GLU796  ALA797  LYS798  CYS799  TRP800  GLU811  SER814 

> <Gold.Protein.RotatedAtoms>
  151.7843  135.0753  160.0378 H   0  0  0  0  0  0  0  0  0  0  0  0  # atno 6907 bound_to 6896
  152.3201  133.5840  159.5747 H   0  0  0  0  0  0  0  0  0  0  0  0  # atno 6908 bound_to 6896
  150.7365  133.9940  159.3658 H   0  0  0  0  0  0  0  0  0  0  0  0  # atno 6909 bound_to 6896
  144.9746  140.7580  143.4649 H   0  0  0  0  0  0  0  0  0  0  0  0  # atno 7974 bound_to 7965
  155.4873  140.3470  155.4349 H   0  0  0  0  0  0  0  0  0  0  0  0  # atno 8008 bound_to 7997
  156.1000  140.1433  156.9508 H   0  0  0  0  0  0  0  0  0  0  0  0  # atno 8009 bound_to 7997
  154.4688  140.0908  156.7067 H   0  0  0  0  0  0  0  0  0  0  0  0  # atno 8010 bound_to 7997
  139.6286  144.0483  152.1996 H   0  0  0  0  0  0  0  0  0  0  0  0  # atno 10167 bound_to 10162
  157.6731  130.9849  150.1728 H   0  0  0  0  0  0  0  0  0  0  0  0  # atno 10718 bound_to 10713
  153.7201  135.3254  155.3265 H   0  0  0  0  0  0  0  0  0  0  0  0  # atno 10763 bound_to 10752
  154.8358  135.4497  154.1226 H   0  0  0  0  0  0  0  0  0  0  0  0  # atno 10764 bound_to 10752
  153.2344  135.6963  153.7933 H   0  0  0  0  0  0  0  0  0  0  0  0  # atno 10765 bound_to 10752
  140.0804  134.5346  155.8952 H   0  0  0  0  0  0  0  0  0  0  0  0  # atno 11005 bound_to 11000
  145.2509  139.2032  143.4943 LP  0  0  0  0  0  0  0  0  0  0  0  0  # atno 17320 bound_to 7965
  146.3392  140.2421  142.8596 LP  0  0  0  0  0  0  0  0  0  0  0  0  # atno 17321 bound_to 7965
  140.0143  144.6200  150.7620 LP  0  0  0  0  0  0  0  0  0  0  0  0  # atno 17342 bound_to 10162
  140.7426  143.2834  151.3533 LP  0  0  0  0  0  0  0  0  0  0  0  0  # atno 17343 bound_to 10162
  156.2478  130.3697  149.8265 LP  0  0  0  0  0  0  0  0  0  0  0  0  # atno 17370 bound_to 10713
  156.6047  130.8561  151.3440 LP  0  0  0  0  0  0  0  0  0  0  0  0  # atno 17371 bound_to 10713
  141.2044  133.6639  156.6122 LP  0  0  0  0  0  0  0  0  0  0  0  0  # atno 17394 bound_to 11000
  140.3496  134.7780  157.4457 LP  0  0  0  0  0  0  0  0  0  0  0  0  # atno 17395 bound_to 11000

$$$$
