AV-unprocessed.smi:663|AV-procd|sdf|3247|dock5
  -GOLD-   22720 0193D 1   1.00000     0.00000
 Structure written by MMmdl.
 30 31  0  0  0  0  0  0  0  0  1 V2000
  148.8650  138.4790  152.9725 N   0  0  0  0  0  0  0  0  0  0  0  0
  148.5384  138.4976  154.2672 C   0  0  0  0  0  0  0  0  0  0  0  0
  147.7378  137.6983  154.7488 O   0  0  0  0  0  0  0  0  0  0  0  0
  149.1891  139.5835  155.1357 C   0  0  0  0  0  0  0  0  0  0  0  0
  149.2043  140.9894  154.4904 C   0  0  2  0  0  0  0  0  0  0  0  0
  149.4774  142.0123  155.4993 N   0  0  0  0  0  0  0  0  0  0  0  0
  150.3386  141.8910  156.5196 C   0  0  0  0  0  0  0  0  0  0  0  0
  151.0246  140.8880  156.7154 O   0  0  0  0  0  0  0  0  0  0  0  0
  150.3424  142.9957  157.2827 N   0  0  0  0  0  0  0  0  0  0  0  0
  151.1201  143.2536  158.4390 C   0  0  0  0  0  0  0  0  0  0  0  0
  151.0985  142.3496  159.4255 N   0  0  0  0  0  0  0  0  0  0  0  0
  151.9009  142.7270  160.4953 N   0  0  0  0  0  0  0  0  0  0  0  0
  152.4956  143.9031  160.2738 C   0  0  0  0  0  0  0  0  0  0  0  0
  152.1356  144.6675  158.7362 S   0  0  0  0  0  0  0  0  0  0  0  0
  147.9089  141.2410  153.7359 C   0  0  0  0  0  0  0  0  0  0  0  0
  147.0158  142.4060  154.0922 C   0  0  0  0  0  0  0  0  0  0  0  0
  146.5627  140.9921  154.3745 C   0  0  0  0  0  0  0  0  0  0  0  0
  148.4612  137.7808  152.3647 H   0  0  0  0  0  0  0  0  0  0  0  0
  149.5137  139.1596  152.6044 H   0  0  0  0  0  0  0  0  0  0  0  0
  148.6631  139.6290  156.0906 H   0  0  0  0  0  0  0  0  0  0  0  0
  150.2075  139.2712  155.3708 H   0  0  0  0  0  0  0  0  0  0  0  0
  150.0165  141.0014  153.7601 H   0  0  0  0  0  0  0  0  0  0  0  0
  148.9536  142.8721  155.4228 H   0  0  0  0  0  0  0  0  0  0  0  0
  149.7173  143.7384  157.0059 H   0  0  0  0  0  0  0  0  0  0  0  0
  153.1513  144.3232  161.0217 H   0  0  0  0  0  0  0  0  0  0  0  0
  147.9769  141.0156  152.6731 H   0  0  0  0  0  0  0  0  0  0  0  0
  147.2987  143.0206  154.9446 H   0  0  0  0  0  0  0  0  0  0  0  0
  146.5318  142.9363  153.2747 H   0  0  0  0  0  0  0  0  0  0  0  0
  145.7786  140.5778  153.7443 H   0  0  0  0  0  0  0  0  0  0  0  0
  146.5421  140.6725  155.4144 H   0  0  0  0  0  0  0  0  0  0  0  0
  1  2  1  0  0  0  0
  1 18  1  0  0  0  0
  1 19  1  0  0  0  0
  2  3  2  0  0  0  0
  2  4  1  0  0  0  0
  4  5  1  0  0  0  0
  4 20  1  0  0  0  0
  4 21  1  0  0  0  0
  5  6  1  0  0  0  0
  5 15  1  0  0  0  0
  5 22  1  0  0  0  0
  6  7  1  0  0  0  0
  6 23  1  0  0  0  0
  7  8  2  0  0  0  0
  7  9  1  0  0  0  0
  9 10  1  0  0  0  0
  9 24  1  0  0  0  0
 10 14  1  0  0  0  0
 10 11  2  0  0  0  0
 11 12  1  0  0  0  0
 12 13  2  0  0  0  0
 13 14  1  0  0  0  0
 13 25  1  0  0  0  0
 15 17  1  0  0  0  0
 15 16  1  0  0  0  0
 15 26  1  0  0  0  0
 16 17  1  0  0  0  0
 16 27  1  0  0  0  0
 16 28  1  0  0  0  0
 17 29  1  0  0  0  0
 17 30  1  0  0  0  0
M  END
> <s_m_source_file>
AV-unprocessed.smi

> <i_m_source_file_index>
663

> <i_lp_mmshare_version>
43012

> <i_f3d_flags>
0

> <s_epik_input>
W05IMl1DKD1PKVtDSDJdW0NAQEhdKFtDSF0xW0NIMl1bQ0gyXTEpW05IXUMoPU8pW05IXWMybm5bY0hdczI=

> <s_epik_cmdline>
J2VwaWtfcHl0aG9uJywgJy1waCcsICc3LjAnLCAnLXRuJywgJzgnLCAnLW1hJywgJzIwMCcsICctbWV0YWxfYmluZGluZycsICctaW1hZScsICc8aW5maWxlLm1hZT4nLCAnLW9tYWUnLCAnPG91dGZpbGUubWFlPic=

> <r_lp_tautomer_probability>
1

> <r_epik_Ionization_Penalty>
0.000388224

> <r_epik_Ionization_Penalty_Charging>
0

> <r_epik_Ionization_Penalty_Neutral>
0.000388224

> <r_epik_State_Penalty>
-0

> <r_epik_Charging_Adjusted_Penalty>
0

> <i_epik_Tot_Q>
0

> <i_epik_Tot_abs_Q>
0

> <r_epik_Metal_State_Penalty>
0.191941

> <b_epik_Metal_Only>
0

> <s_lp_Force_Field>
OPLS_2005

> <r_lp_Energy>
6.58878

> <b_lp_Chiralities_Consistent>
1

> <s_lp_Variant>
AV-unprocessed.smi:663-1

> <Gold.Version>
5.8.1

> <Gold.Id.Protein>
6NUR|6NUR_protein|mol2

> <Gold.PLP.Fitness>
41.3198

> <Gold.PLP.PLP>
-34.0050

> <Gold.PLP.part.hbond>
-4.7107

> <Gold.PLP.part.metal>
0.0000

> <Gold.PLP.part.buried>
-7.0131

> <Gold.PLP.part.nonpolar>
-24.4946

> <Gold.PLP.part.repulsive>
0.3989

> <Gold.PLP.ligand.clash>
0.0000

> <Gold.PLP.ligand.torsion>
1.9233

> <Gold.PLP.Chemscore.Hbond>
3.3520

> <Gold.PLP.Chemscore.CHOScore>
0.0000

> <Gold.PLP.Chemscore.Metal>
0.0000

> <Gold.Chemscore.Hbonds>
donor molecule, donor type, donor heavy atom, donor atom, acceptor molecule, acceptor atom, score
      L1  H     1    18       P1  7948  0.67
      L1  H     1    19       P1  7957  0.67
      L1  H     6    23       P1  8028  0.99
      L1  H     9    24       P1  8028  1.00

> <Gold.PLP.Chemscore.Internal.Correction>
1.1054

> <Gold.Rescore>
     Score         DG    S(hbond)    S(metal)    S(lipo)     H(rot)  DE(clash)    DE(int)     intcor
     14.02     -17.23       3.38        0.00      59.18       2.52       0.01       3.20       ----

> <Gold.Chemscore.Fitness>
14.0243

> <Gold.Chemscore.DG>
-17.2324

> <Gold.Chemscore.ZeroCoef>
-5.4800

> <Gold.Chemscore.Hbond>
3.3786

> <Gold.Chemscore.Metal>
0.0000

> <Gold.Chemscore.Lipo>
59.1760

> <Gold.Chemscore.Internal_Hbond>
0.0000

> <Gold.Chemscore.DEClash>
0.0073

> <Gold.Chemscore.DEInternal>
3.2008

> <Gold.Chemscore.Rot>
2.5218

> <Gold.Chemscore.Internal.Correction>
   9.000000E+99

> <Gold.Chemscore.Hbonds>
donor molecule, donor type, donor heavy atom, donor atom, acceptor molecule, acceptor atom, score
      L1  H     1    18       P1  7948  0.68
      L1  H     1    19       P1  7957  0.66
      L1  H     6    23       P1  8028  0.93
      L1  H     9    24       P1  8028  0.90

> <Gold.Chemscore.Hbond.Weighted>
-11.2847

> <Gold.Chemscore.Metal.Weighted>
-0.0000

> <Gold.Chemscore.Lipo.Weighted>
-6.9236

> <Gold.Chemscore.Internal_Hbond.Weighted>
0.0000

> <Gold.Chemscore.DEClash.Weighted>
0.0073

> <Gold.Chemscore.DEInternal.Weighted>
3.2008

> <Gold.Chemscore.Rot.Weighted>
6.4559

> <Gold.Chemscore.Internal.Correction.Weighted>
   9.000000E+99

> <Gold.Protein.RotatedTorsions>
[ 6907 6896 6895 6894 ] final   46.58 input  -60.11 | X-H torsion
[ 7974 7965 7964 7962 ] final   13.38 input  175.53 | X-H torsion
[ 8008 7997 7996 7995 ] final  -20.23 input   59.86 | X-H torsion
[ 10167 10162 10161 10158 ] final  148.94 input  -65.29 | X-H torsion
[ 10718 10713 10712 10709 ] final  -48.80 input   66.30 | X-H torsion
[ 10763 10752 10751 10750 ] final  143.19 input  -60.55 | X-H torsion
[ 11005 11000 10999 10996 ] final  161.07 input  -57.11 | X-H torsion

> <Gold.Protein.ActiveResidues>
 VAL166  LYS551  ARG553  GLY616  TRP617  ASP618  TYR619  PRO620  LYS621  CYS622 
 ASP623  PHE694  ASN695  SER759  ASP760  ASP761  ALA762  ILE779  LEU786  VAL792 
 PHE793  MET794  SER795  GLU796  ALA797  LYS798  CYS799  TRP800  GLU811  SER814 

> <Gold.Protein.RotatedAtoms>
  152.2581  134.8063  160.0434 H   0  0  0  0  0  0  0  0  0  0  0  0  # atno 6907 bound_to 6896
  151.8719  133.3472  159.3746 H   0  0  0  0  0  0  0  0  0  0  0  0  # atno 6908 bound_to 6896
  150.7107  134.5031  159.5615 H   0  0  0  0  0  0  0  0  0  0  0  0  # atno 6909 bound_to 6896
  146.2330  139.9197  142.8512 H   0  0  0  0  0  0  0  0  0  0  0  0  # atno 7974 bound_to 7965
  154.4784  140.2067  155.9823 H   0  0  0  0  0  0  0  0  0  0  0  0  # atno 8008 bound_to 7997
  156.1125  140.3226  155.8063 H   0  0  0  0  0  0  0  0  0  0  0  0  # atno 8009 bound_to 7997
  155.4609  140.0524  157.2981 H   0  0  0  0  0  0  0  0  0  0  0  0  # atno 8010 bound_to 7997
  139.4868  144.5640  151.7178 H   0  0  0  0  0  0  0  0  0  0  0  0  # atno 10167 bound_to 10162
  156.1953  130.4154  149.9315 H   0  0  0  0  0  0  0  0  0  0  0  0  # atno 10718 bound_to 10713
  153.9682  135.2953  155.3429 H   0  0  0  0  0  0  0  0  0  0  0  0  # atno 10763 bound_to 10752
  154.7337  135.5056  153.9009 H   0  0  0  0  0  0  0  0  0  0  0  0  # atno 10764 bound_to 10752
  153.0913  135.6708  153.9960 H   0  0  0  0  0  0  0  0  0  0  0  0  # atno 10765 bound_to 10752
  140.2122  134.8259  157.3132 H   0  0  0  0  0  0  0  0  0  0  0  0  # atno 11005 bound_to 11000
  145.2149  140.9911  143.4079 LP  0  0  0  0  0  0  0  0  0  0  0  0  # atno 17320 bound_to 7965
  144.9660  139.3930  143.6332 LP  0  0  0  0  0  0  0  0  0  0  0  0  # atno 17321 bound_to 7965
  140.5215  144.0871  150.6024 LP  0  0  0  0  0  0  0  0  0  0  0  0  # atno 17342 bound_to 10162
  140.3830  143.2792  152.0148 LP  0  0  0  0  0  0  0  0  0  0  0  0  # atno 17343 bound_to 10162
  156.7042  130.8945  151.3602 LP  0  0  0  0  0  0  0  0  0  0  0  0  # atno 17370 bound_to 10713
  157.6954  130.9276  150.0629 LP  0  0  0  0  0  0  0  0  0  0  0  0  # atno 17371 bound_to 10713
  140.1939  134.4338  155.7700 LP  0  0  0  0  0  0  0  0  0  0  0  0  # atno 17394 bound_to 11000
  141.2226  133.7040  156.8072 LP  0  0  0  0  0  0  0  0  0  0  0  0  # atno 17395 bound_to 11000

$$$$
