AV-unprocessed.smi:2807|AV-procd|sdf|10823|dock10
  -GOLD-   2272015263D 1   1.00000     0.00000
 Structure written by MMmdl.
 31 32  0  0  0  0  0  0  0  0  2 V2000
  151.8528  137.5648  157.6611 O   0  0  0  0  0  0  0  0  0  0  0  0
  151.9818  138.5572  156.9344 C   0  0  0  0  0  0  0  0  0  0  0  0
  152.4659  139.7977  157.2295 N   0  5  0  0  0  0  0  0  0  0  0  0
  152.2626  140.4724  158.5101 C   0  0  1  0  0  0  0  0  0  0  0  0
  153.5674  140.5720  159.3115 C   0  0  0  0  0  0  0  0  0  0  0  0
  153.3901  141.7855  160.2375 C   0  0  0  0  0  0  0  0  0  0  0  0
  152.2286  142.6102  159.6578 C   0  0  0  0  0  0  0  0  0  0  0  0
  151.8697  141.9431  158.3221 C   0  0  2  0  0  0  0  0  0  0  0  0
  150.4982  142.0934  158.0169 O   0  0  0  0  0  0  0  0  0  0  0  0
  151.5784  138.4393  155.4493 C   0  0  0  0  0  0  0  0  0  0  0  0
  152.6371  138.7275  154.6880 F   0  0  0  0  0  0  0  0  0  0  0  0
  151.2230  137.1782  155.1814 F   0  0  0  0  0  0  0  0  0  0  0  0
  150.4556  139.4203  155.1123 C   0  0  0  0  0  0  0  0  0  0  0  0
  149.2351  138.9551  154.5713 C   0  0  0  0  0  0  0  0  0  0  0  0
  148.2358  139.8933  154.2507 C   0  0  0  0  0  0  0  0  0  0  0  0
  148.4872  141.2585  154.4837 C   0  0  0  0  0  0  0  0  0  0  0  0
  149.7327  141.6250  155.0307 C   0  0  0  0  0  0  0  0  0  0  0  0
  150.6969  140.7336  155.3422 N   0  0  0  0  0  0  0  0  0  0  0  0
  151.5080  139.9835  159.1302 H   0  0  0  0  0  0  0  0  0  0  0  0
  153.7850  139.6570  159.8633 H   0  0  0  0  0  0  0  0  0  0  0  0
  154.4095  140.7568  158.6416 H   0  0  0  0  0  0  0  0  0  0  0  0
  153.1554  141.4687  161.2550 H   0  0  0  0  0  0  0  0  0  0  0  0
  154.3095  142.3704  160.2871 H   0  0  0  0  0  0  0  0  0  0  0  0
  151.3843  142.5837  160.3504 H   0  0  0  0  0  0  0  0  0  0  0  0
  152.4973  143.6587  159.5225 H   0  0  0  0  0  0  0  0  0  0  0  0
  152.4655  142.3960  157.5273 H   0  0  0  0  0  0  0  0  0  0  0  0
  150.3060  143.0177  157.9826 H   0  0  0  0  0  0  0  0  0  0  0  0
  149.0757  137.9015  154.3947 H   0  0  0  0  0  0  0  0  0  0  0  0
  147.2947  139.5713  153.8304 H   0  0  0  0  0  0  0  0  0  0  0  0
  147.7453  142.0067  154.2477 H   0  0  0  0  0  0  0  0  0  0  0  0
  149.9605  142.6628  155.2235 H   0  0  0  0  0  0  0  0  0  0  0  0
  1  2  2  0  0  0  0
  2  3  1  0  0  0  0
  2 10  1  0  0  0  0
  3  4  1  0  0  0  0
  4  8  1  0  0  0  0
  4  5  1  0  0  0  0
  4 19  1  0  0  0  0
  5  6  1  0  0  0  0
  5 20  1  0  0  0  0
  5 21  1  0  0  0  0
  6  7  1  0  0  0  0
  6 22  1  0  0  0  0
  6 23  1  0  0  0  0
  7  8  1  0  0  0  0
  7 24  1  0  0  0  0
  7 25  1  0  0  0  0
  8  9  1  0  0  0  0
  8 26  1  0  0  0  0
  9 27  1  0  0  0  0
 10 11  1  0  0  0  0
 10 12  1  0  0  0  0
 10 13  1  0  0  0  0
 13 18  1  0  0  0  0
 13 14  2  0  0  0  0
 14 15  1  0  0  0  0
 14 28  1  0  0  0  0
 15 16  2  0  0  0  0
 15 29  1  0  0  0  0
 16 17  1  0  0  0  0
 16 30  1  0  0  0  0
 17 18  2  0  0  0  0
 17 31  1  0  0  0  0
M  CHG  1   3  -1
M  END
> <s_m_source_file>
AV-unprocessed.smi

> <i_m_source_file_index>
2807

> <i_lp_mmshare_version>
43012

> <i_f3d_flags>
0

> <s_epik_input>
bjFbY0hdW2NIXVtjSF1bY0hdYzFDKEYpKEYpQyg9TylbTkhdW0NAQEhdMltDSDJdW0NIMl1bQ0gyXVtDQEhdMltPSF0=

> <s_epik_cmdline>
J2VwaWtfcHl0aG9uJywgJy1waCcsICc3LjAnLCAnLXRuJywgJzgnLCAnLW1hJywgJzIwMCcsICctbWV0YWxfYmluZGluZycsICctaW1hZScsICc8aW5maWxlLm1hZT4nLCAnLW9tYWUnLCAnPG91dGZpbGUubWFlPic=

> <r_lp_tautomer_probability>
1

> <r_epik_Ionization_Penalty>
5.72231

> <r_epik_Ionization_Penalty_Charging>
5.72231

> <r_epik_Ionization_Penalty_Neutral>
5.49816e-06

> <r_epik_State_Penalty>
5.72227

> <r_epik_Charging_Adjusted_Penalty>
11.4446

> <i_epik_Tot_Q>
-1

> <i_epik_Tot_abs_Q>
1

> <r_epik_Metal_State_Penalty>
1.70075

> <b_epik_Metal_Only>
1

> <s_lp_Force_Field>
OPLS_2005

> <r_lp_Energy>
34.2298

> <b_lp_Chiralities_Consistent>
1

> <s_lp_Variant>
AV-unprocessed.smi:2807-8

> <Gold.Version>
5.8.1

> <Gold.Id.Protein>
6NUR|6NUR_protein|mol2

> <Gold.PLP.Fitness>
44.0785

> <Gold.PLP.PLP>
-35.7489

> <Gold.PLP.part.hbond>
-2.0000

> <Gold.PLP.part.metal>
0.0000

> <Gold.PLP.part.buried>
-2.8437

> <Gold.PLP.part.nonpolar>
-30.3522

> <Gold.PLP.part.repulsive>
0.0631

> <Gold.PLP.ligand.clash>
0.5386

> <Gold.PLP.ligand.torsion>
0.4352

> <Gold.PLP.Chemscore.Hbond>
2.2330

> <Gold.PLP.Chemscore.CHOScore>
1.0000

> <Gold.PLP.Chemscore.Metal>
0.0000

> <Gold.Chemscore.Hbonds>
donor molecule, donor type, donor heavy atom, donor atom, acceptor molecule, acceptor atom, score
      P1  H  7989  7998       L1    18  0.28
      P1  H  7997  8009       L1     3  2.00
      L1  C    17    31       P1  8028  1.00

> <Gold.PLP.Chemscore.Internal.Correction>
0.0396

> <Gold.Rescore>
     Score         DG    S(hbond)    S(metal)    S(lipo)     H(rot)  DE(clash)    DE(int)     intcor
     10.41     -12.45       0.70        0.00      83.21       2.00       0.18       1.87       ----

> <Gold.Chemscore.Fitness>
10.4086

> <Gold.Chemscore.DG>
-12.4509

> <Gold.Chemscore.ZeroCoef>
-5.4800

> <Gold.Chemscore.Hbond>
0.7024

> <Gold.Chemscore.Metal>
0.0000

> <Gold.Chemscore.Lipo>
83.2117

> <Gold.Chemscore.Internal_Hbond>
0.0000

> <Gold.Chemscore.DEClash>
0.1763

> <Gold.Chemscore.DEInternal>
1.8660

> <Gold.Chemscore.Rot>
1.9964

> <Gold.Chemscore.Internal.Correction>
   9.000000E+99

> <Gold.Chemscore.Hbonds>
donor molecule, donor type, donor heavy atom, donor atom, acceptor molecule, acceptor atom, score
      P1  H  7997  8009       L1     3  0.58

> <Gold.Chemscore.Hbond.Weighted>
-2.3460

> <Gold.Chemscore.Metal.Weighted>
-0.0000

> <Gold.Chemscore.Lipo.Weighted>
-9.7358

> <Gold.Chemscore.Internal_Hbond.Weighted>
0.0000

> <Gold.Chemscore.DEClash.Weighted>
0.1763

> <Gold.Chemscore.DEInternal.Weighted>
1.8660

> <Gold.Chemscore.Rot.Weighted>
5.1108

> <Gold.Chemscore.Internal.Correction.Weighted>
   9.000000E+99

> <Gold.Protein.RotatedTorsions>
[ 6907 6896 6895 6894 ] final  148.72 input  -60.11 | X-H torsion
[ 7974 7965 7964 7962 ] final   21.77 input  175.53 | X-H torsion
[ 8008 7997 7996 7995 ] final -177.52 input   59.86 | X-H torsion
[ 10167 10162 10161 10158 ] final -141.46 input  -65.29 | X-H torsion
[ 10718 10713 10712 10709 ] final   21.41 input   66.30 | X-H torsion
[ 10763 10752 10751 10750 ] final   82.36 input  -60.55 | X-H torsion
[ 11005 11000 10999 10996 ] final  -92.52 input  -57.11 | X-H torsion

> <Gold.Protein.ActiveResidues>
 VAL166  LYS551  ARG553  GLY616  TRP617  ASP618  TYR619  PRO620  LYS621  CYS622 
 ASP623  PHE694  ASN695  SER759  ASP760  ASP761  ALA762  ILE779  LEU786  VAL792 
 PHE793  MET794  SER795  GLU796  ALA797  LYS798  CYS799  TRP800  GLU811  SER814 

> <Gold.Protein.RotatedAtoms>
  152.1377  133.4445  159.4751 H   0  0  0  0  0  0  0  0  0  0  0  0  # atno 6907 bound_to 6896
  150.6883  134.2344  159.4456 H   0  0  0  0  0  0  0  0  0  0  0  0  # atno 6908 bound_to 6896
  152.0232  134.9810  160.0621 H   0  0  0  0  0  0  0  0  0  0  0  0  # atno 6909 bound_to 6896
  146.2057  139.7980  142.8727 H   0  0  0  0  0  0  0  0  0  0  0  0  # atno 7974 bound_to 7965
  156.0079  140.1234  157.0483 H   0  0  0  0  0  0  0  0  0  0  0  0  # atno 8008 bound_to 7997
  154.4265  140.1093  156.5858 H   0  0  0  0  0  0  0  0  0  0  0  0  # atno 8009 bound_to 7997
  155.6120  140.3471  155.4627 H   0  0  0  0  0  0  0  0  0  0  0  0  # atno 8010 bound_to 7997
  139.8183  143.7609  152.2665 H   0  0  0  0  0  0  0  0  0  0  0  0  # atno 10167 bound_to 10162
  157.1381  130.6620  149.5972 H   0  0  0  0  0  0  0  0  0  0  0  0  # atno 10718 bound_to 10713
  153.1196  135.4731  154.9174 H   0  0  0  0  0  0  0  0  0  0  0  0  # atno 10763 bound_to 10752
  154.7563  135.3119  154.8467 H   0  0  0  0  0  0  0  0  0  0  0  0  # atno 10764 bound_to 10752
  153.9034  135.6872  153.4808 H   0  0  0  0  0  0  0  0  0  0  0  0  # atno 10765 bound_to 10752
  141.1520  133.7826  157.0031 H   0  0  0  0  0  0  0  0  0  0  0  0  # atno 11005 bound_to 11000
  145.3327  141.0270  143.3437 LP  0  0  0  0  0  0  0  0  0  0  0  0  # atno 17320 bound_to 7965
  144.8787  139.4934  143.6733 LP  0  0  0  0  0  0  0  0  0  0  0  0  # atno 17321 bound_to 7965
  139.7779  144.7454  151.0130 LP  0  0  0  0  0  0  0  0  0  0  0  0  # atno 17342 bound_to 10162
  140.7814  143.4574  151.0327 LP  0  0  0  0  0  0  0  0  0  0  0  0  # atno 17343 bound_to 10162
  155.9794  130.4787  150.6713 LP  0  0  0  0  0  0  0  0  0  0  0  0  # atno 17370 bound_to 10713
  157.4332  131.0852  151.1018 LP  0  0  0  0  0  0  0  0  0  0  0  0  # atno 17371 bound_to 10713
  140.0927  134.9583  157.1801 LP  0  0  0  0  0  0  0  0  0  0  0  0  # atno 17394 bound_to 11000
  140.3424  134.2689  155.7210 LP  0  0  0  0  0  0  0  0  0  0  0  0  # atno 17395 bound_to 11000

$$$$
