AV-unprocessed.smi:283|AV-procd|sdf|2155|dock7
  -GOLD-   2262021503D 1   1.00000     0.00000
 Structure written by MMmdl.
 48 51  0  0  0  0  0  0  0  0  1 V2000
  150.2497  141.1464  158.1318 C   0  0  0  0  0  0  0  0  0  0  0  0
  151.6376  141.0251  157.4890 C   0  0  2  0  0  0  0  0  0  0  0  0
  151.8913  139.6327  157.1221 N   0  0  0  0  0  0  0  0  0  0  0  0
  151.9311  139.2517  155.8260 C   0  0  0  0  0  0  0  0  0  0  0  0
  151.6753  140.2249  154.9197 N   0  0  0  0  0  0  0  0  0  0  0  0
  151.6576  139.9382  153.6152 C   0  0  0  0  0  0  0  0  0  0  0  0
  151.8590  138.7629  153.0172 N   0  0  0  0  0  0  0  0  0  0  0  0
  152.1271  137.7780  153.9226 C   0  0  0  0  0  0  0  0  0  0  0  0
  152.2023  137.9407  155.3350 C   0  0  0  0  0  0  0  0  0  0  0  0
  152.5441  136.7265  155.9171 N   0  0  0  0  0  0  0  0  0  0  0  0
  152.6392  135.8998  154.9131 C   0  0  0  0  0  0  0  0  0  0  0  0
  152.3571  136.4396  153.6766 N   0  0  0  0  0  0  0  0  0  0  0  0
  152.3740  135.7704  152.3339 C   0  0  1  0  0  0  0  0  0  0  0  0
  153.7088  135.5281  151.9921 O   0  0  0  0  0  0  0  0  0  0  0  0
  154.0510  134.1579  152.1924 C   0  0  1  0  0  0  0  0  0  0  0  0
  154.5780  133.9325  153.6242 C   0  0  0  0  0  0  0  0  0  0  0  0
  155.8821  134.4562  153.7556 O   0  0  0  0  0  0  0  0  0  0  0  0
  152.7396  133.4276  151.8933 C   0  0  2  0  0  0  0  0  0  0  0  0
  152.6690  133.1772  150.4999 O   0  0  0  0  0  0  0  0  0  0  0  0
  151.6678  134.3992  152.3862 C   0  0  2  0  0  0  0  0  0  0  0  0
  150.4941  134.3449  151.5971 O   0  0  0  0  0  0  0  0  0  0  0  0
  152.7003  141.6571  158.3942 C   0  0  0  0  0  0  0  0  0  0  0  0
  152.3138  142.2994  159.5939 C   0  0  0  0  0  0  0  0  0  0  0  0
  153.2768  142.8719  160.4455 C   0  0  0  0  0  0  0  0  0  0  0  0
  154.6395  142.8173  160.1024 C   0  0  0  0  0  0  0  0  0  0  0  0
  155.0350  142.1968  158.9032 C   0  0  0  0  0  0  0  0  0  0  0  0
  154.0747  141.6227  158.0463 C   0  0  0  0  0  0  0  0  0  0  0  0
  154.6195  140.8873  156.5791 Cl  0  0  0  0  0  0  0  0  0  0  0  0
  151.9172  136.4960  151.6598 H   0  0  0  0  0  0  0  0  0  0  0  0
  154.8367  133.8858  151.4854 H   0  0  0  0  0  0  0  0  0  0  0  0
  152.6757  132.4660  152.4042 H   0  0  0  0  0  0  0  0  0  0  0  0
  151.4172  134.1523  153.4187 H   0  0  0  0  0  0  0  0  0  0  0  0
  150.0001  142.1889  158.3314 H   0  0  0  0  0  0  0  0  0  0  0  0
  150.2013  140.6062  159.0777 H   0  0  0  0  0  0  0  0  0  0  0  0
  149.4758  140.7439  157.4775 H   0  0  0  0  0  0  0  0  0  0  0  0
  151.5980  141.5755  156.5508 H   0  0  0  0  0  0  0  0  0  0  0  0
  152.3128  139.0766  157.8517 H   0  0  0  0  0  0  0  0  0  0  0  0
  151.4422  140.7668  152.9571 H   0  0  0  0  0  0  0  0  0  0  0  0
  152.9074  134.8636  155.0577 H   0  0  0  0  0  0  0  0  0  0  0  0
  153.9371  134.4422  154.3438 H   0  0  0  0  0  0  0  0  0  0  0  0
  154.5882  132.8756  153.8908 H   0  0  0  0  0  0  0  0  0  0  0  0
  156.1492  134.8106  152.9210 H   0  0  0  0  0  0  0  0  0  0  0  0
  152.1859  132.3760  150.3664 H   0  0  0  0  0  0  0  0  0  0  0  0
  150.0088  135.1446  151.7328 H   0  0  0  0  0  0  0  0  0  0  0  0
  151.2716  142.3510  159.8729 H   0  0  0  0  0  0  0  0  0  0  0  0
  152.9693  143.3526  161.3624 H   0  0  0  0  0  0  0  0  0  0  0  0
  155.3801  143.2552  160.7552 H   0  0  0  0  0  0  0  0  0  0  0  0
  156.0818  142.1631  158.6391 H   0  0  0  0  0  0  0  0  0  0  0  0
  1  2  1  0  0  0  0
  1 33  1  0  0  0  0
  1 34  1  0  0  0  0
  1 35  1  0  0  0  0
  2  3  1  0  0  0  0
  2 22  1  0  0  0  0
  2 36  1  0  0  0  0
  3  4  1  0  0  0  0
  3 37  1  0  0  0  0
  4  9  1  0  0  0  0
  4  5  2  0  0  0  0
  5  6  1  0  0  0  0
  6  7  2  0  0  0  0
  6 38  1  0  0  0  0
  7  8  1  0  0  0  0
  8 12  1  0  0  0  0
  8  9  2  0  0  0  0
  9 10  1  0  0  0  0
 10 11  2  0  0  0  0
 11 12  1  0  0  0  0
 11 39  1  0  0  0  0
 12 13  1  0  0  0  0
 13 29  1  0  0  0  0
 13 20  1  0  0  0  0
 13 14  1  0  0  0  0
 14 15  1  0  0  0  0
 15 30  1  0  0  0  0
 15 16  1  0  0  0  0
 15 18  1  0  0  0  0
 16 17  1  0  0  0  0
 16 40  1  0  0  0  0
 16 41  1  0  0  0  0
 17 42  1  0  0  0  0
 18 31  1  0  0  0  0
 18 19  1  0  0  0  0
 18 20  1  0  0  0  0
 19 43  1  0  0  0  0
 20 32  1  0  0  0  0
 20 21  1  0  0  0  0
 21 44  1  0  0  0  0
 22 27  1  0  0  0  0
 22 23  2  0  0  0  0
 23 24  1  0  0  0  0
 23 45  1  0  0  0  0
 24 25  2  0  0  0  0
 24 46  1  0  0  0  0
 25 26  1  0  0  0  0
 25 47  1  0  0  0  0
 26 27  2  0  0  0  0
 26 48  1  0  0  0  0
 27 28  1  0  0  0  0
M  END
> <s_m_source_file>
AV-unprocessed.smi

> <i_m_source_file_index>
283

> <i_lp_mmshare_version>
43012

> <i_f3d_flags>
0

> <s_epik_input>
Q2xjMVtjSF1bY0hdW2NIXVtjSF1jMVtDQEhdKFtDSDNdKVtOSF1jKG5bY0hdbjIpYyhjMjMpbltjSF1uM1tDQEBIXTRPW0NASF0oW0NIMl1bT0hdKVtDQEBIXShbT0hdKVtDQEhdNFtPSF0=

> <s_epik_cmdline>
J2VwaWtfcHl0aG9uJywgJy1waCcsICc3LjAnLCAnLXRuJywgJzgnLCAnLW1hJywgJzIwMCcsICctbWV0YWxfYmluZGluZycsICctaW1hZScsICc8aW5maWxlLm1hZT4nLCAnLW9tYWUnLCAnPG91dGZpbGUubWFlPic=

> <r_lp_tautomer_probability>
1

> <r_epik_Ionization_Penalty>
0.000266407

> <r_epik_Ionization_Penalty_Charging>
0

> <r_epik_Ionization_Penalty_Neutral>
0.000266407

> <r_epik_State_Penalty>
-0

> <r_epik_Charging_Adjusted_Penalty>
0

> <i_epik_Tot_Q>
0

> <i_epik_Tot_abs_Q>
0

> <r_epik_Metal_State_Penalty>
-0

> <b_epik_Metal_Only>
0

> <s_epik_Chemistry_Notes>
This compound contains an acetal/aminal-like group ( X-CH(R)-Y where X, Y are N, S, or O) that may be acid/base labile, releasing an aldehyde.

> <s_lp_Force_Field>
OPLS_2005

> <r_lp_Energy>
45.281

> <b_lp_Chiralities_Consistent>
1

> <s_lp_Variant>
AV-unprocessed.smi:283-31

> <Gold.Version>
5.8.1

> <Gold.Id.Protein>
6NUR|6NUR_protein|mol2

> <Gold.PLP.Fitness>
49.8722

> <Gold.PLP.PLP>
-41.9215

> <Gold.PLP.part.hbond>
-3.0000

> <Gold.PLP.part.metal>
0.0000

> <Gold.PLP.part.buried>
-5.8300

> <Gold.PLP.part.nonpolar>
-33.9021

> <Gold.PLP.part.repulsive>
0.2265

> <Gold.PLP.ligand.clash>
0.0000

> <Gold.PLP.ligand.torsion>
0.5776

> <Gold.PLP.Chemscore.Hbond>
3.0000

> <Gold.PLP.Chemscore.CHOScore>
0.0000

> <Gold.PLP.Chemscore.Metal>
0.0000

> <Gold.Chemscore.Hbonds>
donor molecule, donor type, donor heavy atom, donor atom, acceptor molecule, acceptor atom, score
      P1  H 10752 10764       L1    14  0.02
      L1  C     6    38       P1  7957  0.45

> <Gold.PLP.Chemscore.Internal.Correction>
0.1060

> <Gold.Rescore>
     Score         DG    S(hbond)    S(metal)    S(lipo)     H(rot)  DE(clash)    DE(int)     intcor
     13.45     -14.38       2.53        0.00      93.38       4.10       0.11       0.82       ----

> <Gold.Chemscore.Fitness>
13.4499

> <Gold.Chemscore.DG>
-14.3808

> <Gold.Chemscore.ZeroCoef>
-5.4800

> <Gold.Chemscore.Hbond>
2.5339

> <Gold.Chemscore.Metal>
0.0000

> <Gold.Chemscore.Lipo>
93.3817

> <Gold.Chemscore.Internal_Hbond>
0.0000

> <Gold.Chemscore.DEClash>
0.1103

> <Gold.Chemscore.DEInternal>
0.8207

> <Gold.Chemscore.Rot>
4.0968

> <Gold.Chemscore.Internal.Correction>
   9.000000E+99

> <Gold.Chemscore.Hbond.Weighted>
-8.4631

> <Gold.Chemscore.Metal.Weighted>
-0.0000

> <Gold.Chemscore.Lipo.Weighted>
-10.9257

> <Gold.Chemscore.Internal_Hbond.Weighted>
0.0000

> <Gold.Chemscore.DEClash.Weighted>
0.1103

> <Gold.Chemscore.DEInternal.Weighted>
0.8207

> <Gold.Chemscore.Rot.Weighted>
10.4879

> <Gold.Chemscore.Internal.Correction.Weighted>
   9.000000E+99

> <Gold.Protein.RotatedTorsions>
[ 6907 6896 6895 6894 ] final -142.43 input  -60.11 | X-H torsion
[ 7974 7965 7964 7962 ] final   12.96 input  175.53 | X-H torsion
[ 8008 7997 7996 7995 ] final   40.53 input   59.86 | X-H torsion
[ 10167 10162 10161 10158 ] final  127.00 input  -65.29 | X-H torsion
[ 10718 10713 10712 10709 ] final   89.66 input   66.30 | X-H torsion
[ 10763 10752 10751 10750 ] final  177.64 input  -60.55 | X-H torsion
[ 11005 11000 10999 10996 ] final  -90.11 input  -57.11 | X-H torsion

> <Gold.Protein.ActiveResidues>
 VAL166  LYS551  ARG553  GLY616  TRP617  ASP618  TYR619  PRO620  LYS621  CYS622 
 ASP623  PHE694  ASN695  SER759  ASP760  ASP761  ALA762  ILE779  LEU786  VAL792 
 PHE793  MET794  SER795  GLU796  ALA797  LYS798  CYS799  TRP800  GLU811  SER814 

> <Gold.Protein.RotatedAtoms>
  151.0869  133.5346  159.2616 H   0  0  0  0  0  0  0  0  0  0  0  0  # atno 6907 bound_to 6896
  151.2228  135.0524  159.8966 H   0  0  0  0  0  0  0  0  0  0  0  0  # atno 6908 bound_to 6896
  152.5430  134.0669  159.8230 H   0  0  0  0  0  0  0  0  0  0  0  0  # atno 6909 bound_to 6896
  146.2340  139.9259  142.8503 H   0  0  0  0  0  0  0  0  0  0  0  0  # atno 7974 bound_to 7965
  155.2547  140.3355  155.4279 H   0  0  0  0  0  0  0  0  0  0  0  0  # atno 8008 bound_to 7997
  156.2200  140.1805  156.7542 H   0  0  0  0  0  0  0  0  0  0  0  0  # atno 8009 bound_to 7997
  154.5811  140.0653  156.9090 H   0  0  0  0  0  0  0  0  0  0  0  0  # atno 8010 bound_to 7997
  139.5601  144.6876  151.4067 H   0  0  0  0  0  0  0  0  0  0  0  0  # atno 10167 bound_to 10162
  157.6956  131.0341  150.3460 H   0  0  0  0  0  0  0  0  0  0  0  0  # atno 10718 bound_to 10713
  154.4971  135.2782  155.1450 H   0  0  0  0  0  0  0  0  0  0  0  0  # atno 10763 bound_to 10752
  154.3099  135.6231  153.5464 H   0  0  0  0  0  0  0  0  0  0  0  0  # atno 10764 bound_to 10752
  152.9896  135.5717  154.5405 H   0  0  0  0  0  0  0  0  0  0  0  0  # atno 10765 bound_to 10752
  141.1572  133.7671  156.9690 H   0  0  0  0  0  0  0  0  0  0  0  0  # atno 11005 bound_to 11000
  145.2092  140.9888  143.4111 LP  0  0  0  0  0  0  0  0  0  0  0  0  # atno 17320 bound_to 7965
  144.9706  139.3884  143.6311 LP  0  0  0  0  0  0  0  0  0  0  0  0  # atno 17321 bound_to 7965
  140.6880  143.7929  150.7213 LP  0  0  0  0  0  0  0  0  0  0  0  0  # atno 17342 bound_to 10162
  140.1402  143.4447  152.2198 LP  0  0  0  0  0  0  0  0  0  0  0  0  # atno 17343 bound_to 10162
  156.3915  130.3899  149.7026 LP  0  0  0  0  0  0  0  0  0  0  0  0  # atno 17370 bound_to 10713
  156.4375  130.7845  151.2866 LP  0  0  0  0  0  0  0  0  0  0  0  0  # atno 17371 bound_to 10713
  140.1142  134.9458  157.2109 LP  0  0  0  0  0  0  0  0  0  0  0  0  # atno 17394 bound_to 11000
  140.3155  134.2975  155.7257 LP  0  0  0  0  0  0  0  0  0  0  0  0  # atno 17395 bound_to 11000

$$$$
