AV-unprocessed.smi:1827|AV-procd|sdf|7422|dock4
  -GOLD-   22720 9103D 1   1.00000     0.00000
 Structure written by MMmdl.
 43 44  0  0  0  0  0  0  0  0  3 V2000
  150.6808  139.3216  154.6978 C   0  0  0  0  0  0  0  0  0  0  0  0
  149.5727  140.3379  154.7022 C   0  0  0  0  0  0  0  0  0  0  0  0
  149.7091  141.4268  155.4481 N   0  0  0  0  0  0  0  0  0  0  0  0
  148.6037  142.1587  155.1922 N   0  0  0  0  0  0  0  0  0  0  0  0
  147.7481  141.5654  154.2915 C   0  0  0  0  0  0  0  0  0  0  0  0
  146.4739  142.2069  153.8531 C   0  0  0  0  0  0  0  0  0  0  0  0
  148.3376  140.3740  153.9825 C   0  0  0  0  0  0  0  0  0  0  0  0
  147.8124  139.4364  153.0583 N   0  0  0  0  0  0  0  0  0  0  0  0
  146.7488  138.6389  153.2393 C   0  0  0  0  0  0  0  0  0  0  0  0
  146.0432  138.6234  154.2474 O   0  0  0  0  0  0  0  0  0  0  0  0
  146.5285  137.8645  152.1672 N   0  0  0  0  0  0  0  0  0  0  0  0
  145.4421  136.8976  152.0397 C   0  0  2  0  0  0  0  0  0  0  0  0
  145.5278  135.8242  153.1408 C   0  0  0  0  0  0  0  0  0  0  0  0
  144.4472  134.7475  152.9509 C   0  0  0  0  0  0  0  0  0  0  0  0
  144.5430  134.1241  151.6039 N   0  3  1  0  0  0  0  0  0  0  0  0
  143.6124  132.9815  151.4170 C   0  0  0  0  0  0  0  0  0  0  0  0
  143.9868  132.1700  150.1719 C   0  0  0  0  0  0  0  0  0  0  0  0
  142.9747  132.0942  149.2841 N   0  5  0  0  0  0  0  0  0  0  0  0
  145.1100  131.6800  150.0804 O   0  0  0  0  0  0  0  0  0  0  0  0
  144.4252  135.1345  150.5225 C   0  0  0  0  0  0  0  0  0  0  0  0
  145.5031  136.2232  150.6599 C   0  0  0  0  0  0  0  0  0  0  0  0
  148.4530  143.0564  155.6300 H   0  0  0  0  0  0  0  0  0  0  0  0
  150.7763  138.8458  153.7218 H   0  0  0  0  0  0  0  0  0  0  0  0
  150.4995  138.5419  155.4373 H   0  0  0  0  0  0  0  0  0  0  0  0
  151.6429  139.7795  154.9303 H   0  0  0  0  0  0  0  0  0  0  0  0
  146.0752  141.7213  152.9623 H   0  0  0  0  0  0  0  0  0  0  0  0
  146.6293  143.2603  153.6192 H   0  0  0  0  0  0  0  0  0  0  0  0
  145.7203  142.1420  154.6379 H   0  0  0  0  0  0  0  0  0  0  0  0
  148.2280  139.4411  152.1385 H   0  0  0  0  0  0  0  0  0  0  0  0
  147.1580  137.9494  151.3823 H   0  0  0  0  0  0  0  0  0  0  0  0
  144.4874  137.4209  152.1241 H   0  0  0  0  0  0  0  0  0  0  0  0
  146.5125  135.3546  153.1266 H   0  0  0  0  0  0  0  0  0  0  0  0
  145.4180  136.2809  154.1251 H   0  0  0  0  0  0  0  0  0  0  0  0
  144.5606  133.9897  153.7267 H   0  0  0  0  0  0  0  0  0  0  0  0
  143.4560  135.1849  153.0807 H   0  0  0  0  0  0  0  0  0  0  0  0
  143.6064  132.3463  152.3043 H   0  0  0  0  0  0  0  0  0  0  0  0
  142.5902  133.3408  151.2848 H   0  0  0  0  0  0  0  0  0  0  0  0
  142.2132  132.7808  149.3469 H   0  0  0  0  0  0  0  0  0  0  0  0
  144.5315  134.6484  149.5519 H   0  0  0  0  0  0  0  0  0  0  0  0
  143.4301  135.5816  150.5473 H   0  0  0  0  0  0  0  0  0  0  0  0
  145.3762  136.9678  149.8731 H   0  0  0  0  0  0  0  0  0  0  0  0
  146.4870  135.7765  150.5078 H   0  0  0  0  0  0  0  0  0  0  0  0
  145.4691  133.7266  151.5260 H   0  0  0  0  0  0  0  0  0  0  0  0
  1  2  1  0  0  0  0
  1 23  1  0  0  0  0
  1 24  1  0  0  0  0
  1 25  1  0  0  0  0
  2  7  1  0  0  0  0
  2  3  2  0  0  0  0
  3  4  1  0  0  0  0
  4 22  1  0  0  0  0
  4  5  1  0  0  0  0
  5  6  1  0  0  0  0
  5  7  2  0  0  0  0
  6 26  1  0  0  0  0
  6 27  1  0  0  0  0
  6 28  1  0  0  0  0
  7  8  1  0  0  0  0
  8  9  1  0  0  0  0
  8 29  1  0  0  0  0
  9 10  2  0  0  0  0
  9 11  1  0  0  0  0
 11 12  1  0  0  0  0
 11 30  1  0  0  0  0
 12 21  1  0  0  0  0
 12 13  1  0  0  0  0
 12 31  1  0  0  0  0
 13 14  1  0  0  0  0
 13 32  1  0  0  0  0
 13 33  1  0  0  0  0
 14 15  1  0  0  0  0
 14 34  1  0  0  0  0
 14 35  1  0  0  0  0
 15 16  1  0  0  0  0
 15 20  1  0  0  0  0
 15 43  1  0  0  0  0
 16 17  1  0  0  0  0
 16 36  1  0  0  0  0
 16 37  1  0  0  0  0
 17 18  1  0  0  0  0
 17 19  2  0  0  0  0
 18 38  1  0  0  0  0
 20 21  1  0  0  0  0
 20 39  1  0  0  0  0
 20 40  1  0  0  0  0
 21 41  1  0  0  0  0
 21 42  1  0  0  0  0
M  CHG  1  15   1
M  CHG  1  18  -1
M  END
> <s_m_source_file>
AV-unprocessed.smi

> <i_m_source_file_index>
1827

> <i_lp_mmshare_version>
43012

> <i_f3d_flags>
0

> <s_epik_input>
W0NIM11jMW5bbkhdYyhbQ0gzXSljMVtOSF1DKD1PKVtOSF1bQ0hdMltDSDJdW0NIMl1OKFtDSDJdW0NIMl0yKVtDSDJdQyg9TylbTkgyXQ==

> <s_epik_cmdline>
J2VwaWtfcHl0aG9uJywgJy1waCcsICc3LjAnLCAnLXRuJywgJzgnLCAnLW1hJywgJzIwMCcsICctbWV0YWxfYmluZGluZycsICctaW1hZScsICc8aW5maWxlLm1hZT4nLCAnLW9tYWUnLCAnPG91dGZpbGUubWFlPic=

> <r_lp_tautomer_probability>
0.5

> <r_epik_Ionization_Penalty>
5.72915

> <r_epik_Ionization_Penalty_Charging>
5.7288

> <r_epik_Ionization_Penalty_Neutral>
0.000348152

> <r_epik_State_Penalty>
6.54882

> <r_epik_Charging_Adjusted_Penalty>
12.2776

> <i_epik_Tot_Q>
0

> <i_epik_Tot_abs_Q>
2

> <r_epik_Metal_State_Penalty>
2.51333

> <b_epik_Metal_Only>
1

> <s_lp_Force_Field>
OPLS_2005

> <r_lp_Energy>
10.1727

> <b_lp_Chiralities_Consistent>
1

> <s_lp_Variant>
AV-unprocessed.smi:1827-4

> <Gold.Version>
5.8.1

> <Gold.Id.Protein>
6NUR|6NUR_protein|mol2

> <Gold.PLP.Fitness>
51.3099

> <Gold.PLP.PLP>
-40.7782

> <Gold.PLP.part.hbond>
-5.9581

> <Gold.PLP.part.metal>
0.0000

> <Gold.PLP.part.buried>
-6.4471

> <Gold.PLP.part.nonpolar>
-29.8570

> <Gold.PLP.part.repulsive>
0.6366

> <Gold.PLP.ligand.clash>
0.0000

> <Gold.PLP.ligand.torsion>
0.7330

> <Gold.PLP.Chemscore.Hbond>
3.8617

> <Gold.PLP.Chemscore.CHOScore>
0.0000

> <Gold.PLP.Chemscore.Metal>
0.0000

> <Gold.Chemscore.Hbonds>
donor molecule, donor type, donor heavy atom, donor atom, acceptor molecule, acceptor atom, score
      L1  H     4    22       P1  8028  0.93
      L1  H     8    29       P1  7957  0.93
      L1  H    18    38       P1 10186  0.99
      P1  H 10785 10796       L1    18  0.93

> <Gold.PLP.Chemscore.Internal.Correction>
0.4126

> <Gold.Rescore>
     Score         DG    S(hbond)    S(metal)    S(lipo)     H(rot)  DE(clash)    DE(int)     intcor
     17.89     -19.44       3.47        0.00      63.20       1.96       0.04       1.52       ----

> <Gold.Chemscore.Fitness>
17.8866

> <Gold.Chemscore.DG>
-19.4443

> <Gold.Chemscore.ZeroCoef>
-5.4800

> <Gold.Chemscore.Hbond>
3.4667

> <Gold.Chemscore.Metal>
0.0000

> <Gold.Chemscore.Lipo>
63.1996

> <Gold.Chemscore.Internal_Hbond>
0.0000

> <Gold.Chemscore.DEClash>
0.0392

> <Gold.Chemscore.DEInternal>
1.5185

> <Gold.Chemscore.Rot>
1.9566

> <Gold.Chemscore.Internal.Correction>
   9.000000E+99

> <Gold.Chemscore.Hbonds>
donor molecule, donor type, donor heavy atom, donor atom, acceptor molecule, acceptor atom, score
      L1  H     4    22       P1  8028  0.89
      L1  H     8    29       P1  7957  0.90
      L1  H    18    38       P1 10186  0.92
      P1  H 10785 10796       L1    18  0.20

> <Gold.Chemscore.Hbond.Weighted>
-11.5789

> <Gold.Chemscore.Metal.Weighted>
-0.0000

> <Gold.Chemscore.Lipo.Weighted>
-7.3944

> <Gold.Chemscore.Internal_Hbond.Weighted>
0.0000

> <Gold.Chemscore.DEClash.Weighted>
0.0392

> <Gold.Chemscore.DEInternal.Weighted>
1.5185

> <Gold.Chemscore.Rot.Weighted>
5.0090

> <Gold.Chemscore.Internal.Correction.Weighted>
   9.000000E+99

> <Gold.Protein.RotatedTorsions>
[ 6907 6896 6895 6894 ] final    3.17 input  -60.11 | X-H torsion
[ 7974 7965 7964 7962 ] final  153.81 input  175.53 | X-H torsion
[ 8008 7997 7996 7995 ] final  -38.52 input   59.86 | X-H torsion
[ 10167 10162 10161 10158 ] final  -59.88 input  -65.29 | X-H torsion
[ 10718 10713 10712 10709 ] final  103.74 input   66.30 | X-H torsion
[ 10763 10752 10751 10750 ] final   96.77 input  -60.55 | X-H torsion
[ 11005 11000 10999 10996 ] final   30.76 input  -57.11 | X-H torsion

> <Gold.Protein.ActiveResidues>
 VAL166  LYS551  ARG553  GLY616  TRP617  ASP618  TYR619  PRO620  LYS621  CYS622 
 ASP623  PHE694  ASN695  SER759  ASP760  ASP761  ALA762  ILE779  LEU786  VAL792 
 PHE793  MET794  SER795  GLU796  ALA797  LYS798  CYS799  TRP800  GLU811  SER814 

> <Gold.Protein.RotatedAtoms>
  151.6207  135.1032  160.0100 H   0  0  0  0  0  0  0  0  0  0  0  0  # atno 6907 bound_to 6896
  152.4159  133.7034  159.6447 H   0  0  0  0  0  0  0  0  0  0  0  0  # atno 6908 bound_to 6896
  150.8048  133.8457  159.3232 H   0  0  0  0  0  0  0  0  0  0  0  0  # atno 6909 bound_to 6896
  144.8130  139.6850  143.6133 H   0  0  0  0  0  0  0  0  0  0  0  0  # atno 7974 bound_to 7965
  154.4036  140.1575  156.2713 H   0  0  0  0  0  0  0  0  0  0  0  0  # atno 8008 bound_to 7997
  155.8951  140.3436  155.5962 H   0  0  0  0  0  0  0  0  0  0  0  0  # atno 8009 bound_to 7997
  155.7514  140.0805  157.2190 H   0  0  0  0  0  0  0  0  0  0  0  0  # atno 8010 bound_to 7997
  140.6107  143.2386  151.5716 H   0  0  0  0  0  0  0  0  0  0  0  0  # atno 10167 bound_to 10162
  157.6763  131.0786  150.5601 H   0  0  0  0  0  0  0  0  0  0  0  0  # atno 10718 bound_to 10713
  153.2688  135.4207  155.0967 H   0  0  0  0  0  0  0  0  0  0  0  0  # atno 10763 bound_to 10752
  154.8448  135.3467  154.6273 H   0  0  0  0  0  0  0  0  0  0  0  0  # atno 10764 bound_to 10752
  153.6693  135.7044  153.5209 H   0  0  0  0  0  0  0  0  0  0  0  0  # atno 10765 bound_to 10752
  140.2910  134.2864  155.7776 H   0  0  0  0  0  0  0  0  0  0  0  0  # atno 11005 bound_to 11000
  146.2430  139.6040  142.9478 LP  0  0  0  0  0  0  0  0  0  0  0  0  # atno 17320 bound_to 7965
  145.5280  141.0428  143.2398 LP  0  0  0  0  0  0  0  0  0  0  0  0  # atno 17321 bound_to 7965
  139.5359  144.2783  152.1250 LP  0  0  0  0  0  0  0  0  0  0  0  0  # atno 17342 bound_to 10162
  140.1982  144.4685  150.6445 LP  0  0  0  0  0  0  0  0  0  0  0  0  # atno 17343 bound_to 10162
  156.5903  130.4327  149.5939 LP  0  0  0  0  0  0  0  0  0  0  0  0  # atno 17370 bound_to 10713
  156.2588  130.6950  151.1712 LP  0  0  0  0  0  0  0  0  0  0  0  0  # atno 17371 bound_to 10713
  141.2146  133.7585  156.9625 LP  0  0  0  0  0  0  0  0  0  0  0  0  # atno 17394 bound_to 11000
  140.1195  134.9426  157.2183 LP  0  0  0  0  0  0  0  0  0  0  0  0  # atno 17395 bound_to 11000

$$$$
