AV-unprocessed.smi:703|AV-procd|sdf|3427|dock1
  -GOLD-   22720 0413D 1   1.00000     0.00000
 Structure written by MMmdl.
 38 39  0  0  0  0  0  0  0  0  2 V2000
  146.1730  132.3926  152.2687 C   0  0  0  0  0  0  0  0  0  0  0  0
  147.0190  133.6432  151.9946 C   0  0  0  0  0  0  0  0  0  0  0  0
  147.8154  134.0506  153.1757 N   0  3  2  0  0  0  0  0  0  0  0  0
  148.7066  133.0098  153.7250 C   0  0  0  0  0  0  0  0  0  0  0  0
  149.0570  133.4905  155.1351 C   0  0  1  0  0  0  0  0  0  0  0  0
  150.2818  134.4287  155.1006 C   0  0  0  0  0  0  0  0  0  0  0  0
  147.7381  134.1454  155.5973 C   0  0  1  0  0  0  0  0  0  0  0  0
  147.9575  135.2763  156.5075 N   0  0  0  0  0  0  0  0  0  0  0  0
  148.2551  134.9531  158.1768 S   0  0  0  0  0  0  0  0  0  0  0  0
  148.1420  133.4997  158.3720 O   0  0  0  0  0  0  0  0  0  0  0  0
  149.4938  135.6506  158.5547 O   0  0  0  0  0  0  0  0  0  0  0  0
  146.8356  135.7860  159.0048 C   0  0  0  0  0  0  0  0  0  0  0  0
  147.1708  136.0359  160.4474 C   0  0  0  0  0  0  0  0  0  0  0  0
  147.3491  135.0856  161.4906 C   0  0  0  0  0  0  0  0  0  0  0  0
  147.6333  135.8577  162.5799 C   0  0  0  0  0  0  0  0  0  0  0  0
  147.6285  137.1724  162.2442 O   0  0  0  0  0  0  0  0  0  0  0  0
  147.3307  137.2764  160.8807 N   0  0  0  0  0  0  0  0  0  0  0  0
  147.0095  134.5622  154.3050 C   0  0  0  0  0  0  0  0  0  0  0  0
  145.6476  132.0782  151.3668 H   0  0  0  0  0  0  0  0  0  0  0  0
  145.4213  132.5746  153.0369 H   0  0  0  0  0  0  0  0  0  0  0  0
  146.7950  131.5591  152.5962 H   0  0  0  0  0  0  0  0  0  0  0  0
  147.7029  133.4275  151.1725 H   0  0  0  0  0  0  0  0  0  0  0  0
  146.3847  134.4682  151.6674 H   0  0  0  0  0  0  0  0  0  0  0  0
  148.1659  132.0636  153.7855 H   0  0  0  0  0  0  0  0  0  0  0  0
  149.5858  132.8513  153.0996 H   0  0  0  0  0  0  0  0  0  0  0  0
  149.3008  132.6392  155.7725 H   0  0  0  0  0  0  0  0  0  0  0  0
  150.0900  135.3215  154.5042 H   0  0  0  0  0  0  0  0  0  0  0  0
  151.1468  133.9235  154.6704 H   0  0  0  0  0  0  0  0  0  0  0  0
  150.5671  134.7493  156.1029 H   0  0  0  0  0  0  0  0  0  0  0  0
  147.1410  133.3895  156.1096 H   0  0  0  0  0  0  0  0  0  0  0  0
  147.2333  135.9857  156.3967 H   0  0  0  0  0  0  0  0  0  0  0  0
  146.6246  136.7157  158.4750 H   0  0  0  0  0  0  0  0  0  0  0  0
  145.9589  135.1450  158.9154 H   0  0  0  0  0  0  0  0  0  0  0  0
  147.2828  134.0085  161.4460 H   0  0  0  0  0  0  0  0  0  0  0  0
  147.8512  135.6318  163.6134 H   0  0  0  0  0  0  0  0  0  0  0  0
  146.9099  135.6433  154.2026 H   0  0  0  0  0  0  0  0  0  0  0  0
  146.0044  134.1374  154.2959 H   0  0  0  0  0  0  0  0  0  0  0  0
  148.4112  134.8149  152.8913 H   0  0  0  0  0  0  0  0  0  0  0  0
  1  2  1  0  0  0  0
  1 19  1  0  0  0  0
  1 20  1  0  0  0  0
  1 21  1  0  0  0  0
  2  3  1  0  0  0  0
  2 22  1  0  0  0  0
  2 23  1  0  0  0  0
  3 18  1  0  0  0  0
  3  4  1  0  0  0  0
  3 38  1  0  0  0  0
  4  5  1  0  0  0  0
  4 24  1  0  0  0  0
  4 25  1  0  0  0  0
  5  6  1  0  0  0  0
  5  7  1  0  0  0  0
  5 26  1  0  0  0  0
  6 27  1  0  0  0  0
  6 28  1  0  0  0  0
  6 29  1  0  0  0  0
  7  8  1  0  0  0  0
  7 18  1  0  0  0  0
  7 30  1  0  0  0  0
  8  9  1  0  0  0  0
  8 31  1  0  0  0  0
  9 10  2  0  0  0  0
  9 11  2  0  0  0  0
  9 12  1  0  0  0  0
 12 13  1  0  0  0  0
 12 32  1  0  0  0  0
 12 33  1  0  0  0  0
 13 17  2  0  0  0  0
 13 14  1  0  0  0  0
 14 15  2  0  0  0  0
 14 34  1  0  0  0  0
 15 16  1  0  0  0  0
 15 35  1  0  0  0  0
 16 17  1  0  0  0  0
 18 36  1  0  0  0  0
 18 37  1  0  0  0  0
M  CHG  1   3   1
M  END
> <s_m_source_file>
AV-unprocessed.smi

> <i_m_source_file_index>
703

> <i_lp_mmshare_version>
43012

> <i_f3d_flags>
0

> <s_epik_input>
W0NIM11bQ0gyXU4xW0NIMl1bQ0BASF0oW0NIM10pW0NASF0oW0NIMl0xKVtOSF1TKD1PKSg9TylbQ0gyXWMyW2NIXVtjSF1vbjI=

> <s_epik_cmdline>
J2VwaWtfcHl0aG9uJywgJy1waCcsICc3LjAnLCAnLXRuJywgJzgnLCAnLW1hJywgJzIwMCcsICctbWV0YWxfYmluZGluZycsICctaW1hZScsICc8aW5maWxlLm1hZT4nLCAnLW9tYWUnLCAnPG91dGZpbGUubWFlPic=

> <r_epik_Ionization_Penalty>
0.00324529

> <r_epik_Ionization_Penalty_Charging>
0.0019384

> <r_epik_Ionization_Penalty_Neutral>
0.00130689

> <r_epik_State_Penalty>
0.00218682

> <r_epik_Charging_Adjusted_Penalty>
0.00412522

> <i_epik_Tot_Q>
1

> <i_epik_Tot_abs_Q>
1

> <r_epik_Metal_State_Penalty>
0.310831

> <b_epik_Metal_Only>
0

> <s_lp_Force_Field>
OPLS_2005

> <r_lp_Energy>
22.9594

> <b_lp_Chiralities_Consistent>
1

> <s_lp_Variant>
AV-unprocessed.smi:703-2

> <Gold.Version>
5.8.1

> <Gold.Id.Protein>
6NUR|6NUR_protein|mol2

> <Gold.PLP.Fitness>
39.0869

> <Gold.PLP.PLP>
-28.1472

> <Gold.PLP.part.hbond>
-5.8685

> <Gold.PLP.part.metal>
0.0000

> <Gold.PLP.part.buried>
-3.5023

> <Gold.PLP.part.nonpolar>
-18.6519

> <Gold.PLP.part.repulsive>
0.0000

> <Gold.PLP.ligand.clash>
0.0000

> <Gold.PLP.ligand.torsion>
0.7210

> <Gold.PLP.Chemscore.Hbond>
4.0748

> <Gold.PLP.Chemscore.CHOScore>
0.0000

> <Gold.PLP.Chemscore.Metal>
0.0000

> <Gold.Chemscore.Hbonds>
donor molecule, donor type, donor heavy atom, donor atom, acceptor molecule, acceptor atom, score
      L1  H     3    38       P1  7948  2.00
      P1  H  6896  6907       L1    11  1.00
      P1  H  6931  6943       L1    16  0.32
      P1  H  6934  6947       L1    17  0.70

> <Gold.PLP.Chemscore.Internal.Correction>
0.1574

> <Gold.Rescore>
     Score         DG    S(hbond)    S(metal)    S(lipo)     H(rot)  DE(clash)    DE(int)     intcor
     15.16     -15.84       2.72        0.00      53.39       1.94       0.01       0.67       ----

> <Gold.Chemscore.Fitness>
15.1552

> <Gold.Chemscore.DG>
-15.8386

> <Gold.Chemscore.ZeroCoef>
-5.4800

> <Gold.Chemscore.Hbond>
2.7182

> <Gold.Chemscore.Metal>
0.0000

> <Gold.Chemscore.Lipo>
53.3876

> <Gold.Chemscore.Internal_Hbond>
0.0000

> <Gold.Chemscore.DEClash>
0.0149

> <Gold.Chemscore.DEInternal>
0.6686

> <Gold.Chemscore.Rot>
1.9400

> <Gold.Chemscore.Internal.Correction>
   9.000000E+99

> <Gold.Chemscore.Hbonds>
donor molecule, donor type, donor heavy atom, donor atom, acceptor molecule, acceptor atom, score
      L1  H     3    38       P1  7948  0.55
      P1  H  6896  6907       L1    11  0.97
      P1  H  6931  6943       L1    16  0.01
      P1  H  6934  6947       L1    17  0.07

> <Gold.Chemscore.Hbond.Weighted>
-9.0788

> <Gold.Chemscore.Metal.Weighted>
-0.0000

> <Gold.Chemscore.Lipo.Weighted>
-6.2463

> <Gold.Chemscore.Internal_Hbond.Weighted>
0.0000

> <Gold.Chemscore.DEClash.Weighted>
0.0149

> <Gold.Chemscore.DEInternal.Weighted>
0.6686

> <Gold.Chemscore.Rot.Weighted>
4.9665

> <Gold.Chemscore.Internal.Correction.Weighted>
   9.000000E+99

> <Gold.Protein.RotatedTorsions>
[ 6907 6896 6895 6894 ] final  -52.89 input  -60.11 | X-H torsion
[ 7974 7965 7964 7962 ] final   95.81 input  175.53 | X-H torsion
[ 8008 7997 7996 7995 ] final -170.60 input   59.86 | X-H torsion
[ 10167 10162 10161 10158 ] final -162.55 input  -65.29 | X-H torsion
[ 10718 10713 10712 10709 ] final  -21.63 input   66.30 | X-H torsion
[ 10763 10752 10751 10750 ] final   71.14 input  -60.55 | X-H torsion
[ 11005 11000 10999 10996 ] final  -41.30 input  -57.11 | X-H torsion

> <Gold.Protein.ActiveResidues>
 VAL166  LYS551  ARG553  GLY616  TRP617  ASP618  TYR619  PRO620  LYS621  CYS622 
 ASP623  PHE694  ASN695  SER759  ASP760  ASP761  ALA762  ILE779  LEU786  VAL792 
 PHE793  MET794  SER795  GLU796  ALA797  LYS798  CYS799  TRP800  GLU811  SER814 

> <Gold.Protein.RotatedAtoms>
  150.8476  134.7791  159.6982 H   0  0  0  0  0  0  0  0  0  0  0  0  # atno 6907 bound_to 6896
  152.4549  134.5309  159.9820 H   0  0  0  0  0  0  0  0  0  0  0  0  # atno 6908 bound_to 6896
  151.5437  133.3390  159.2976 H   0  0  0  0  0  0  0  0  0  0  0  0  # atno 6909 bound_to 6896
  145.4472  139.2296  143.3059 H   0  0  0  0  0  0  0  0  0  0  0  0  # atno 7974 bound_to 7965
  155.9205  140.1073  157.1211 H   0  0  0  0  0  0  0  0  0  0  0  0  # atno 8008 bound_to 7997
  154.4053  140.1257  156.4738 H   0  0  0  0  0  0  0  0  0  0  0  0  # atno 8009 bound_to 7997
  155.7202  140.3470  155.5015 H   0  0  0  0  0  0  0  0  0  0  0  0  # atno 8010 bound_to 7997
  139.6384  144.0306  152.2072 H   0  0  0  0  0  0  0  0  0  0  0  0  # atno 10167 bound_to 10162
  156.5155  130.4620  149.6625 H   0  0  0  0  0  0  0  0  0  0  0  0  # atno 10718 bound_to 10713
  153.0382  135.5148  154.7549 H   0  0  0  0  0  0  0  0  0  0  0  0  # atno 10763 bound_to 10752
  154.6508  135.2925  154.9992 H   0  0  0  0  0  0  0  0  0  0  0  0  # atno 10764 bound_to 10752
  154.0877  135.6655  153.4900 H   0  0  0  0  0  0  0  0  0  0  0  0  # atno 10765 bound_to 10752
  141.0236  133.6851  156.2438 H   0  0  0  0  0  0  0  0  0  0  0  0  # atno 11005 bound_to 11000
  146.2524  140.5227  142.8888 LP  0  0  0  0  0  0  0  0  0  0  0  0  # atno 17320 bound_to 7965
  144.8084  140.6341  143.6431 LP  0  0  0  0  0  0  0  0  0  0  0  0  # atno 17321 bound_to 7965
  139.9990  144.6307  150.7747 LP  0  0  0  0  0  0  0  0  0  0  0  0  # atno 17342 bound_to 10162
  140.7477  143.2911  151.3328 LP  0  0  0  0  0  0  0  0  0  0  0  0  # atno 17343 bound_to 10162
  156.3199  130.7275  151.2185 LP  0  0  0  0  0  0  0  0  0  0  0  0  # atno 17370 bound_to 10713
  157.7444  131.0458  150.4863 LP  0  0  0  0  0  0  0  0  0  0  0  0  # atno 17371 bound_to 10713
  140.6530  134.5047  157.5579 LP  0  0  0  0  0  0  0  0  0  0  0  0  # atno 17394 bound_to 11000
  139.9161  134.8243  156.1361 LP  0  0  0  0  0  0  0  0  0  0  0  0  # atno 17395 bound_to 11000

$$$$
