AV-unprocessed.smi:2518|AV-procd|sdf|9901|dock1
  -GOLD-   2272013533D 1   1.00000     0.00000
 Structure written by MMmdl.
 41 43  0  0  0  0  0  0  0  0  1 V2000
  151.2294  145.7471  160.4065 C   0  0  0  0  0  0  0  0  0  0  0  0
  151.8032  144.3568  160.2276 C   0  0  0  0  0  0  0  0  0  0  0  0
  152.4196  143.6926  161.3065 C   0  0  0  0  0  0  0  0  0  0  0  0
  152.9510  142.4008  161.1291 C   0  0  0  0  0  0  0  0  0  0  0  0
  152.8776  141.7539  159.8784 C   0  0  0  0  0  0  0  0  0  0  0  0
  153.4262  140.4923  159.7942 O   0  0  0  0  0  0  0  0  0  0  0  0
  152.9288  139.6058  158.8000 C   0  0  0  0  0  0  0  0  0  0  0  0
  153.9488  138.4761  158.5903 C   0  0  2  0  0  0  0  0  0  0  0  0
  155.1050  139.0274  157.9896 O   0  0  0  0  0  0  0  0  0  0  0  0
  153.3897  137.3578  157.6882 C   0  0  0  0  0  0  0  0  0  0  0  0
  152.6349  137.8769  156.5573 N   0  0  0  0  0  0  0  0  0  0  0  0
  153.2585  138.6692  155.6473 N   0  0  0  0  0  0  0  0  0  0  0  0
  152.3284  138.9941  154.7519 C   0  0  0  0  0  0  0  0  0  0  0  0
  151.0662  138.4177  155.0619 C   0  0  0  0  0  0  0  0  0  0  0  0
  149.7412  138.4431  154.4525 C   0  0  0  0  0  0  0  0  0  0  0  0
  148.7870  137.7851  155.0322 N   0  0  0  0  0  0  0  0  0  0  0  0
  149.0078  137.0649  156.2115 N   0  0  0  0  0  0  0  0  0  0  0  0
  147.8118  136.3913  156.7160 C   0  0  0  0  0  0  0  0  0  0  0  0
  150.2122  136.9690  156.8557 C   0  0  0  0  0  0  0  0  0  0  0  0
  150.3989  136.3213  157.8857 O   0  0  0  0  0  0  0  0  0  0  0  0
  151.3088  137.7240  156.2013 C   0  0  0  0  0  0  0  0  0  0  0  0
  152.2538  142.4271  158.7977 C   0  0  0  0  0  0  0  0  0  0  0  0
  151.7224  143.7196  158.9739 C   0  0  0  0  0  0  0  0  0  0  0  0
  151.3442  146.0965  161.4332 H   0  0  0  0  0  0  0  0  0  0  0  0
  150.1669  145.7517  160.1624 H   0  0  0  0  0  0  0  0  0  0  0  0
  151.7365  146.4523  159.7476 H   0  0  0  0  0  0  0  0  0  0  0  0
  152.4887  144.1697  162.2731 H   0  0  0  0  0  0  0  0  0  0  0  0
  153.4227  141.9011  161.9625 H   0  0  0  0  0  0  0  0  0  0  0  0
  151.9884  139.1823  159.1568 H   0  0  0  0  0  0  0  0  0  0  0  0
  152.7276  140.1235  157.8600 H   0  0  0  0  0  0  0  0  0  0  0  0
  154.2230  138.0471  159.5550 H   0  0  0  0  0  0  0  0  0  0  0  0
  155.8616  138.5723  158.3269 H   0  0  0  0  0  0  0  0  0  0  0  0
  154.2098  136.7533  157.2980 H   0  0  0  0  0  0  0  0  0  0  0  0
  152.7618  136.6754  158.2600 H   0  0  0  0  0  0  0  0  0  0  0  0
  152.5976  139.6297  153.9213 H   0  0  0  0  0  0  0  0  0  0  0  0
  149.5646  139.0029  153.5341 H   0  0  0  0  0  0  0  0  0  0  0  0
  147.9553  135.9012  157.6797 H   0  0  0  0  0  0  0  0  0  0  0  0
  147.4836  135.6314  156.0059 H   0  0  0  0  0  0  0  0  0  0  0  0
  146.9996  137.1093  156.8371 H   0  0  0  0  0  0  0  0  0  0  0  0
  152.1691  141.9734  157.8222 H   0  0  0  0  0  0  0  0  0  0  0  0
  151.2513  144.2218  158.1415 H   0  0  0  0  0  0  0  0  0  0  0  0
  1  2  1  0  0  0  0
  1 24  1  0  0  0  0
  1 25  1  0  0  0  0
  1 26  1  0  0  0  0
  2 23  1  0  0  0  0
  2  3  2  0  0  0  0
  3  4  1  0  0  0  0
  3 27  1  0  0  0  0
  4  5  2  0  0  0  0
  4 28  1  0  0  0  0
  5  6  1  0  0  0  0
  5 22  1  0  0  0  0
  6  7  1  0  0  0  0
  7  8  1  0  0  0  0
  7 29  1  0  0  0  0
  7 30  1  0  0  0  0
  8  9  1  0  0  0  0
  8 10  1  0  0  0  0
  8 31  1  0  0  0  0
  9 32  1  0  0  0  0
 10 11  1  0  0  0  0
 10 33  1  0  0  0  0
 10 34  1  0  0  0  0
 11 21  1  0  0  0  0
 11 12  1  0  0  0  0
 12 13  2  0  0  0  0
 13 14  1  0  0  0  0
 13 35  1  0  0  0  0
 14 21  2  0  0  0  0
 14 15  1  0  0  0  0
 15 16  2  0  0  0  0
 15 36  1  0  0  0  0
 16 17  1  0  0  0  0
 17 18  1  0  0  0  0
 17 19  1  0  0  0  0
 18 37  1  0  0  0  0
 18 38  1  0  0  0  0
 18 39  1  0  0  0  0
 19 20  2  0  0  0  0
 19 21  1  0  0  0  0
 22 23  2  0  0  0  0
 22 40  1  0  0  0  0
 23 41  1  0  0  0  0
M  END
> <s_m_source_file>
AV-unprocessed.smi

> <i_m_source_file_index>
2518

> <i_lp_mmshare_version>
43012

> <i_f3d_flags>
0

> <s_epik_input>
W0NIM11jMVtjSF1bY0hdYyhbY0hdW2NIXTEpT1tDSDJdW0NASF0oW09IXSlbQ0gyXW4obltjSF0yKWMoYzIzKWMoPU8pbihbQ0gzXSluW2NIXTM=

> <s_epik_cmdline>
J2VwaWtfcHl0aG9uJywgJy1waCcsICc3LjAnLCAnLXRuJywgJzgnLCAnLW1hJywgJzIwMCcsICctbWV0YWxfYmluZGluZycsICctaW1hZScsICc8aW5maWxlLm1hZT4nLCAnLW9tYWUnLCAnPG91dGZpbGUubWFlPic=

> <r_lp_tautomer_probability>
1

> <r_epik_Ionization_Penalty>
2.246e-06

> <r_epik_Ionization_Penalty_Charging>
1.41975e-10

> <r_epik_Ionization_Penalty_Neutral>
2.24586e-06

> <r_epik_State_Penalty>
-0

> <r_epik_Charging_Adjusted_Penalty>
1.41975e-10

> <i_epik_Tot_Q>
0

> <i_epik_Tot_abs_Q>
0

> <r_epik_Metal_State_Penalty>
-0

> <b_epik_Metal_Only>
0

> <s_lp_Force_Field>
OPLS_2005

> <r_lp_Energy>
32.1328

> <b_lp_Chiralities_Consistent>
1

> <s_lp_Variant>
AV-unprocessed.smi:2518-1

> <Gold.Version>
5.8.1

> <Gold.Id.Protein>
6NUR|6NUR_protein|mol2

> <Gold.PLP.Fitness>
50.2065

> <Gold.PLP.PLP>
-43.2726

> <Gold.PLP.part.hbond>
-1.7225

> <Gold.PLP.part.metal>
0.0000

> <Gold.PLP.part.buried>
-4.7486

> <Gold.PLP.part.nonpolar>
-35.7372

> <Gold.PLP.part.repulsive>
0.1894

> <Gold.PLP.ligand.clash>
0.0000

> <Gold.PLP.ligand.torsion>
0.6331

> <Gold.PLP.Chemscore.Hbond>
1.7048

> <Gold.PLP.Chemscore.CHOScore>
1.0000

> <Gold.PLP.Chemscore.Metal>
0.0000

> <Gold.Chemscore.Hbonds>
donor molecule, donor type, donor heavy atom, donor atom, acceptor molecule, acceptor atom, score
      P1  H  7997  8008       L1    12  0.96
      P1  H  7997  8010       L1     9  0.22
      L1  C    15    36       P1  7957  0.86

> <Gold.PLP.Chemscore.Internal.Correction>
0.0858

> <Gold.Rescore>
     Score         DG    S(hbond)    S(metal)    S(lipo)     H(rot)  DE(clash)    DE(int)     intcor
     15.89     -17.55       1.09        0.00     123.55       2.35       0.03       1.62       ----

> <Gold.Chemscore.Fitness>
15.8905

> <Gold.Chemscore.DG>
-17.5460

> <Gold.Chemscore.ZeroCoef>
-5.4800

> <Gold.Chemscore.Hbond>
1.0851

> <Gold.Chemscore.Metal>
0.0000

> <Gold.Chemscore.Lipo>
123.5487

> <Gold.Chemscore.Internal_Hbond>
0.0000

> <Gold.Chemscore.DEClash>
0.0319

> <Gold.Chemscore.DEInternal>
1.6236

> <Gold.Chemscore.Rot>
2.3490

> <Gold.Chemscore.Internal.Correction>
   9.000000E+99

> <Gold.Chemscore.Hbonds>
donor molecule, donor type, donor heavy atom, donor atom, acceptor molecule, acceptor atom, score
      P1  H  7997  8008       L1    12  0.72
      P1  H  7997  8010       L1     9  0.15

> <Gold.Chemscore.Hbond.Weighted>
-3.6244

> <Gold.Chemscore.Metal.Weighted>
-0.0000

> <Gold.Chemscore.Lipo.Weighted>
-14.4552

> <Gold.Chemscore.Internal_Hbond.Weighted>
0.0000

> <Gold.Chemscore.DEClash.Weighted>
0.0319

> <Gold.Chemscore.DEInternal.Weighted>
1.6236

> <Gold.Chemscore.Rot.Weighted>
6.0136

> <Gold.Chemscore.Internal.Correction.Weighted>
   9.000000E+99

> <Gold.Protein.RotatedTorsions>
[ 6907 6896 6895 6894 ] final   28.58 input  -60.11 | X-H torsion
[ 7974 7965 7964 7962 ] final  -10.14 input  175.53 | X-H torsion
[ 8008 7997 7996 7995 ] final  -22.76 input   59.86 | X-H torsion
[ 10167 10162 10161 10158 ] final -133.40 input  -65.29 | X-H torsion
[ 10718 10713 10712 10709 ] final    0.64 input   66.30 | X-H torsion
[ 10763 10752 10751 10750 ] final  167.72 input  -60.55 | X-H torsion
[ 11005 11000 10999 10996 ] final  -76.72 input  -57.11 | X-H torsion

> <Gold.Protein.ActiveResidues>
 VAL166  LYS551  ARG553  GLY616  TRP617  ASP618  TYR619  PRO620  LYS621  CYS622 
 ASP623  PHE694  ASN695  SER759  ASP760  ASP761  ALA762  ILE779  LEU786  VAL792 
 PHE793  MET794  SER795  GLU796  ALA797  LYS798  CYS799  TRP800  GLU811  SER814 

> <Gold.Protein.RotatedAtoms>
  152.0190  134.9833  160.0569 H   0  0  0  0  0  0  0  0  0  0  0  0  # atno 6907 bound_to 6896
  152.1355  133.4428  159.4750 H   0  0  0  0  0  0  0  0  0  0  0  0  # atno 6908 bound_to 6896
  150.6860  134.2287  159.4469 H   0  0  0  0  0  0  0  0  0  0  0  0  # atno 6909 bound_to 6896
  146.2230  140.2720  142.8357 H   0  0  0  0  0  0  0  0  0  0  0  0  # atno 7974 bound_to 7965
  154.4625  140.1999  156.0207 H   0  0  0  0  0  0  0  0  0  0  0  0  # atno 8008 bound_to 7997
  156.0866  140.3264  155.7733 H   0  0  0  0  0  0  0  0  0  0  0  0  # atno 8009 bound_to 7997
  155.5025  140.0555  157.2927 H   0  0  0  0  0  0  0  0  0  0  0  0  # atno 8010 bound_to 7997
  139.8986  143.6635  152.2599 H   0  0  0  0  0  0  0  0  0  0  0  0  # atno 10167 bound_to 10162
  156.8364  130.5506  149.5682 H   0  0  0  0  0  0  0  0  0  0  0  0  # atno 10718 bound_to 10713
  154.3580  135.2753  155.2335 H   0  0  0  0  0  0  0  0  0  0  0  0  # atno 10763 bound_to 10752
  154.4536  135.5925  153.6211 H   0  0  0  0  0  0  0  0  0  0  0  0  # atno 10764 bound_to 10752
  152.9845  135.6048  154.3798 H   0  0  0  0  0  0  0  0  0  0  0  0  # atno 10765 bound_to 10752
  141.1656  133.6994  156.7712 H   0  0  0  0  0  0  0  0  0  0  0  0  # atno 11005 bound_to 11000
  144.9261  140.7923  143.5718 LP  0  0  0  0  0  0  0  0  0  0  0  0  # atno 17320 bound_to 7965
  145.2660  139.1973  143.4867 LP  0  0  0  0  0  0  0  0  0  0  0  0  # atno 17321 bound_to 7965
  139.7045  144.7630  151.1216 LP  0  0  0  0  0  0  0  0  0  0  0  0  # atno 17342 bound_to 10162
  140.7711  143.5413  150.9310 LP  0  0  0  0  0  0  0  0  0  0  0  0  # atno 17343 bound_to 10162
  156.0905  130.5892  150.9724 LP  0  0  0  0  0  0  0  0  0  0  0  0  # atno 17370 bound_to 10713
  157.6379  131.0914  150.8311 LP  0  0  0  0  0  0  0  0  0  0  0  0  # atno 17371 bound_to 10713
  140.2463  134.8575  157.3623 LP  0  0  0  0  0  0  0  0  0  0  0  0  # atno 17394 bound_to 11000
  140.1747  134.4565  155.7809 LP  0  0  0  0  0  0  0  0  0  0  0  0  # atno 17395 bound_to 11000

$$$$
