AV-unprocessed.smi:1428|AV-procd|sdf|5814|dock1
  -GOLD-   22720 5463D 1   1.00000     0.00000
 Structure written by MMmdl.
 44 45  0  0  0  0  0  0  0  0  2 V2000
  148.5280  145.3083  160.6439 C   0  0  0  0  0  0  0  0  0  0  0  0
  149.1563  144.5989  159.5816 O   0  0  0  0  0  0  0  0  0  0  0  0
  150.3540  143.9571  159.8336 C   0  0  0  0  0  0  0  0  0  0  0  0
  150.9511  144.1582  161.0353 N   0  0  0  0  0  0  0  0  0  0  0  0
  152.1176  143.5304  161.2865 C   0  0  0  0  0  0  0  0  0  0  0  0
  152.7440  142.6735  160.3640 C   0  0  0  0  0  0  0  0  0  0  0  0
  152.1269  142.4628  159.1170 C   0  0  0  0  0  0  0  0  0  0  0  0
  150.9041  143.1208  158.8332 C   0  0  0  0  0  0  0  0  0  0  0  0
  150.1788  142.9850  157.6145 N   0  0  0  0  0  0  0  0  0  0  0  0
  150.0884  141.9352  156.7797 C   0  0  0  0  0  0  0  0  0  0  0  0
  150.6496  140.8501  156.9242 O   0  0  0  0  0  0  0  0  0  0  0  0
  149.2948  142.2182  155.7366 N   0  0  0  0  0  0  0  0  0  0  0  0
  148.9798  141.2992  154.6468 C   0  0  2  0  0  0  0  0  0  0  0  0
  147.9082  141.9166  153.7340 C   0  0  0  0  0  0  0  0  0  0  0  0
  147.4896  140.9361  152.6255 C   0  0  0  0  0  0  0  0  0  0  0  0
  147.0087  139.6530  153.1987 N   0  3  1  0  0  0  0  0  0  0  0  0
  146.4639  138.7380  152.1626 C   0  0  0  0  0  0  0  0  0  0  0  0
  145.5010  137.6913  152.7330 C   0  0  0  0  0  0  0  0  0  0  0  0
  144.5426  137.2476  151.9168 N   0  0  0  0  0  0  0  0  0  0  0  0
  145.6072  137.2986  153.8937 O   0  0  0  0  0  0  0  0  0  0  0  0
  148.0449  139.0151  154.0548 C   0  0  0  0  0  0  0  0  0  0  0  0
  148.4755  139.9519  155.1954 C   0  0  0  0  0  0  0  0  0  0  0  0
  147.5996  145.7504  160.2827 H   0  0  0  0  0  0  0  0  0  0  0  0
  149.1587  146.1189  161.0116 H   0  0  0  0  0  0  0  0  0  0  0  0
  148.2769  144.6447  161.4726 H   0  0  0  0  0  0  0  0  0  0  0  0
  152.5629  143.7136  162.2531 H   0  0  0  0  0  0  0  0  0  0  0  0
  153.6763  142.1861  160.6080 H   0  0  0  0  0  0  0  0  0  0  0  0
  152.6063  141.7966  158.4185 H   0  0  0  0  0  0  0  0  0  0  0  0
  149.6780  143.8140  157.3299 H   0  0  0  0  0  0  0  0  0  0  0  0
  148.8769  143.1366  155.6953 H   0  0  0  0  0  0  0  0  0  0  0  0
  149.8784  141.1280  154.0504 H   0  0  0  0  0  0  0  0  0  0  0  0
  147.0312  142.1921  154.3221 H   0  0  0  0  0  0  0  0  0  0  0  0
  148.2831  142.8382  153.2870 H   0  0  0  0  0  0  0  0  0  0  0  0
  146.7002  141.3921  152.0269 H   0  0  0  0  0  0  0  0  0  0  0  0
  148.3278  140.7448  151.9533 H   0  0  0  0  0  0  0  0  0  0  0  0
  145.8988  139.3118  151.4270 H   0  0  0  0  0  0  0  0  0  0  0  0
  147.2801  138.2544  151.6231 H   0  0  0  0  0  0  0  0  0  0  0  0
  143.8817  136.5542  152.2367 H   0  0  0  0  0  0  0  0  0  0  0  0
  144.4835  137.6059  150.9741 H   0  0  0  0  0  0  0  0  0  0  0  0
  147.6624  138.0872  154.4809 H   0  0  0  0  0  0  0  0  0  0  0  0
  148.9095  138.7480  153.4451 H   0  0  0  0  0  0  0  0  0  0  0  0
  149.2540  139.4707  155.7886 H   0  0  0  0  0  0  0  0  0  0  0  0
  147.6318  140.1159  155.8677 H   0  0  0  0  0  0  0  0  0  0  0  0
  146.2309  139.8845  153.8006 H   0  0  0  0  0  0  0  0  0  0  0  0
  1  2  1  0  0  0  0
  1 23  1  0  0  0  0
  1 24  1  0  0  0  0
  1 25  1  0  0  0  0
  2  3  1  0  0  0  0
  3  8  1  0  0  0  0
  3  4  2  0  0  0  0
  4  5  1  0  0  0  0
  5  6  2  0  0  0  0
  5 26  1  0  0  0  0
  6  7  1  0  0  0  0
  6 27  1  0  0  0  0
  7  8  2  0  0  0  0
  7 28  1  0  0  0  0
  8  9  1  0  0  0  0
  9 10  1  0  0  0  0
  9 29  1  0  0  0  0
 10 11  2  0  0  0  0
 10 12  1  0  0  0  0
 12 13  1  0  0  0  0
 12 30  1  0  0  0  0
 13 22  1  0  0  0  0
 13 14  1  0  0  0  0
 13 31  1  0  0  0  0
 14 15  1  0  0  0  0
 14 32  1  0  0  0  0
 14 33  1  0  0  0  0
 15 16  1  0  0  0  0
 15 34  1  0  0  0  0
 15 35  1  0  0  0  0
 16 17  1  0  0  0  0
 16 21  1  0  0  0  0
 16 44  1  0  0  0  0
 17 18  1  0  0  0  0
 17 36  1  0  0  0  0
 17 37  1  0  0  0  0
 18 19  1  0  0  0  0
 18 20  2  0  0  0  0
 19 38  1  0  0  0  0
 19 39  1  0  0  0  0
 21 22  1  0  0  0  0
 21 40  1  0  0  0  0
 21 41  1  0  0  0  0
 22 42  1  0  0  0  0
 22 43  1  0  0  0  0
M  CHG  1  16   1
M  END
> <s_m_source_file>
AV-unprocessed.smi

> <i_m_source_file_index>
1428

> <i_lp_mmshare_version>
43012

> <i_f3d_flags>
0

> <s_epik_input>
W0NIM11PYzFuW2NIXVtjSF1bY0hdYzFbTkhdQyg9TylbTkhdW0NIXTJbQ0gyXVtDSDJdTihbQ0gyXVtDSDJdMilbQ0gyXUMoPU8pW05IMl0=

> <s_epik_cmdline>
J2VwaWtfcHl0aG9uJywgJy1waCcsICc3LjAnLCAnLXRuJywgJzgnLCAnLW1hJywgJzIwMCcsICctbWV0YWxfYmluZGluZycsICctaW1hZScsICc8aW5maWxlLm1hZT4nLCAnLW9tYWUnLCAnPG91dGZpbGUubWFlPic=

> <r_lp_tautomer_probability>
1

> <r_epik_Ionization_Penalty>
0.838963

> <r_epik_Ionization_Penalty_Charging>
0.838844

> <r_epik_Ionization_Penalty_Neutral>
0.000119189

> <r_epik_State_Penalty>
0.8734

> <r_epik_Charging_Adjusted_Penalty>
1.71224

> <i_epik_Tot_Q>
1

> <i_epik_Tot_abs_Q>
1

> <r_epik_Metal_State_Penalty>
0.890706

> <b_epik_Metal_Only>
0

> <s_lp_Force_Field>
OPLS_2005

> <r_lp_Energy>
15.1646

> <b_lp_Chiralities_Consistent>
1

> <s_lp_Variant>
AV-unprocessed.smi:1428-2

> <Gold.Version>
5.8.1

> <Gold.Id.Protein>
6NUR|6NUR_protein|mol2

> <Gold.PLP.Fitness>
43.3287

> <Gold.PLP.PLP>
-36.8837

> <Gold.PLP.part.hbond>
-3.0409

> <Gold.PLP.part.metal>
0.0000

> <Gold.PLP.part.buried>
-5.0797

> <Gold.PLP.part.nonpolar>
-29.4239

> <Gold.PLP.part.repulsive>
0.8468

> <Gold.PLP.ligand.clash>
0.0000

> <Gold.PLP.ligand.torsion>
0.8520

> <Gold.PLP.Chemscore.Hbond>
2.7053

> <Gold.PLP.Chemscore.CHOScore>
0.0000

> <Gold.PLP.Chemscore.Metal>
0.0000

> <Gold.Chemscore.Hbonds>
donor molecule, donor type, donor heavy atom, donor atom, acceptor molecule, acceptor atom, score
      L1  H     9    29       P1  8028  0.83
      L1  H    12    30       P1  8028  1.00
      L1  H    19    39       P1 10171  1.00

> <Gold.PLP.Chemscore.Internal.Correction>
0.0333

> <Gold.Rescore>
     Score         DG    S(hbond)    S(metal)    S(lipo)     H(rot)  DE(clash)    DE(int)     intcor
     15.70     -19.18       2.72        0.00      90.32       2.33       1.17       2.32       ----

> <Gold.Chemscore.Fitness>
15.6977

> <Gold.Chemscore.DG>
-19.1820

> <Gold.Chemscore.ZeroCoef>
-5.4800

> <Gold.Chemscore.Hbond>
2.7222

> <Gold.Chemscore.Metal>
0.0000

> <Gold.Chemscore.Lipo>
90.3180

> <Gold.Chemscore.Internal_Hbond>
0.0000

> <Gold.Chemscore.DEClash>
1.1668

> <Gold.Chemscore.DEInternal>
2.3175

> <Gold.Chemscore.Rot>
2.3271

> <Gold.Chemscore.Internal.Correction>
   9.000000E+99

> <Gold.Chemscore.Hbonds>
donor molecule, donor type, donor heavy atom, donor atom, acceptor molecule, acceptor atom, score
      L1  H     9    29       P1  8028  0.54
      L1  H    12    30       P1  8028  0.96
      L1  H    19    39       P1 10171  0.97

> <Gold.Chemscore.Hbond.Weighted>
-9.0921

> <Gold.Chemscore.Metal.Weighted>
-0.0000

> <Gold.Chemscore.Lipo.Weighted>
-10.5672

> <Gold.Chemscore.Internal_Hbond.Weighted>
0.0000

> <Gold.Chemscore.DEClash.Weighted>
1.1668

> <Gold.Chemscore.DEInternal.Weighted>
2.3175

> <Gold.Chemscore.Rot.Weighted>
5.9573

> <Gold.Chemscore.Internal.Correction.Weighted>
   9.000000E+99

> <Gold.Protein.RotatedTorsions>
[ 6907 6896 6895 6894 ] final -136.12 input  -60.11 | X-H torsion
[ 7974 7965 7964 7962 ] final  117.98 input  175.53 | X-H torsion
[ 8008 7997 7996 7995 ] final   85.86 input   59.86 | X-H torsion
[ 10167 10162 10161 10158 ] final  107.42 input  -65.29 | X-H torsion
[ 10718 10713 10712 10709 ] final  -99.30 input   66.30 | X-H torsion
[ 10763 10752 10751 10750 ] final  133.83 input  -60.55 | X-H torsion
[ 11005 11000 10999 10996 ] final  -33.34 input  -57.11 | X-H torsion

> <Gold.Protein.ActiveResidues>
 VAL166  LYS551  ARG553  GLY616  TRP617  ASP618  TYR619  PRO620  LYS621  CYS622 
 ASP623  PHE694  ASN695  SER759  ASP760  ASP761  ALA762  ILE779  LEU786  VAL792 
 PHE793  MET794  SER795  GLU796  ALA797  LYS798  CYS799  TRP800  GLU811  SER814 

> <Gold.Protein.RotatedAtoms>
  151.0062  133.6008  159.2688 H   0  0  0  0  0  0  0  0  0  0  0  0  # atno 6907 bound_to 6896
  151.3177  135.0809  159.9304 H   0  0  0  0  0  0  0  0  0  0  0  0  # atno 6908 bound_to 6896
  152.5287  133.9715  159.7818 H   0  0  0  0  0  0  0  0  0  0  0  0  # atno 6909 bound_to 6896
  145.1608  139.3156  143.4518 H   0  0  0  0  0  0  0  0  0  0  0  0  # atno 7974 bound_to 7965
  155.9554  140.3397  155.6444 H   0  0  0  0  0  0  0  0  0  0  0  0  # atno 8008 bound_to 7997
  155.6866  140.0744  157.2482 H   0  0  0  0  0  0  0  0  0  0  0  0  # atno 8009 bound_to 7997
  154.4131  140.1664  156.2028 H   0  0  0  0  0  0  0  0  0  0  0  0  # atno 8010 bound_to 7997
  139.6929  144.7105  151.1318 H   0  0  0  0  0  0  0  0  0  0  0  0  # atno 10167 bound_to 10162
  156.0130  130.5276  150.6651 H   0  0  0  0  0  0  0  0  0  0  0  0  # atno 10718 bound_to 10713
  153.8136  135.3125  155.3403 H   0  0  0  0  0  0  0  0  0  0  0  0  # atno 10763 bound_to 10752
  154.8041  135.4708  154.0352 H   0  0  0  0  0  0  0  0  0  0  0  0  # atno 10764 bound_to 10752
  153.1738  135.6882  153.8660 H   0  0  0  0  0  0  0  0  0  0  0  0  # atno 10765 bound_to 10752
  140.9627  133.7155  156.1395 H   0  0  0  0  0  0  0  0  0  0  0  0  # atno 11005 bound_to 11000
  146.3482  140.1717  142.8589 LP  0  0  0  0  0  0  0  0  0  0  0  0  # atno 17320 bound_to 7965
  145.0333  140.8888  143.5096 LP  0  0  0  0  0  0  0  0  0  0  0  0  # atno 17321 bound_to 7965
  140.7688  143.5534  150.9179 LP  0  0  0  0  0  0  0  0  0  0  0  0  # atno 17342 bound_to 10162
  139.9212  143.6604  152.3096 LP  0  0  0  0  0  0  0  0  0  0  0  0  # atno 17343 bound_to 10162
  157.4385  131.0858  151.0968 LP  0  0  0  0  0  0  0  0  0  0  0  0  # atno 17370 bound_to 10713
  157.1519  130.6188  149.5585 LP  0  0  0  0  0  0  0  0  0  0  0  0  # atno 17371 bound_to 10713
  140.7444  134.4114  157.5550 LP  0  0  0  0  0  0  0  0  0  0  0  0  # atno 17394 bound_to 11000
  139.8883  134.8858  156.2478 LP  0  0  0  0  0  0  0  0  0  0  0  0  # atno 17395 bound_to 11000

$$$$
