AV-unprocessed.smi:1216|AV-procd|sdf|5101|dock10
  -GOLD-   22720 4153D 1   1.00000     0.00000
 Structure written by MMmdl.
 42 43  0  0  0  0  0  0  0  0  1 V2000
  145.9729  131.5635  153.8764 C   0  0  0  0  0  0  0  0  0  0  0  0
  147.0886  131.9152  152.8832 C   0  0  1  0  0  0  0  0  0  0  0  0
  146.6475  133.0343  151.9160 C   0  0  0  0  0  0  0  0  0  0  0  0
  145.6267  132.5984  150.9807 N   0  0  0  0  0  0  0  0  0  0  0  0
  144.2903  132.9762  150.9617 C   0  0  0  0  0  0  0  0  0  0  0  0
  143.7112  132.3185  149.9004 C   0  0  0  0  0  0  0  0  0  0  0  0
  144.6644  131.5301  149.2604 N   0  0  0  0  0  0  0  0  0  0  0  0
  145.7727  131.7455  149.9573 C   0  0  0  0  0  0  0  0  0  0  0  0
  148.2814  132.3130  153.6302 N   0  0  0  0  0  0  0  0  0  0  0  0
  148.8255  131.6388  154.6556 C   0  0  0  0  0  0  0  0  0  0  0  0
  148.3665  130.5810  155.0891 O   0  0  0  0  0  0  0  0  0  0  0  0
  150.0971  132.2520  155.2574 C   0  0  0  0  0  0  0  0  0  0  0  0
  150.7672  131.3681  156.2232 N   0  0  0  0  0  0  0  0  0  0  0  0
  150.9533  129.9664  155.8151 C   0  0  0  0  0  0  0  0  0  0  0  0
  152.4285  129.5805  155.5601 C   0  0  0  0  0  0  0  0  0  0  0  0
  153.4831  130.3369  156.3917 C   0  0  0  0  0  0  0  0  0  0  0  0
  153.2386  130.3335  157.9151 C   0  0  0  0  0  0  0  0  0  0  0  0
  151.8544  130.8325  158.3943 C   0  0  0  0  0  0  0  0  0  0  0  0
  151.1657  131.8208  157.4386 C   0  0  0  0  0  0  0  0  0  0  0  0
  150.9984  132.9830  157.8096 O   0  0  0  0  0  0  0  0  0  0  0  0
  145.0809  131.2139  153.3559 H   0  0  0  0  0  0  0  0  0  0  0  0
  145.6894  132.4267  154.4795 H   0  0  0  0  0  0  0  0  0  0  0  0
  146.2877  130.7706  154.5557 H   0  0  0  0  0  0  0  0  0  0  0  0
  147.2968  131.0133  152.3045 H   0  0  0  0  0  0  0  0  0  0  0  0
  146.2455  133.8785  152.4777 H   0  0  0  0  0  0  0  0  0  0  0  0
  147.5014  133.4135  151.3528 H   0  0  0  0  0  0  0  0  0  0  0  0
  143.8753  133.6663  151.6811 H   0  0  0  0  0  0  0  0  0  0  0  0
  142.6895  132.3503  149.5517 H   0  0  0  0  0  0  0  0  0  0  0  0
  146.7149  131.2763  149.7142 H   0  0  0  0  0  0  0  0  0  0  0  0
  148.7314  133.1692  153.3407 H   0  0  0  0  0  0  0  0  0  0  0  0
  150.7794  132.4972  154.4425 H   0  0  0  0  0  0  0  0  0  0  0  0
  149.8511  133.2080  155.7235 H   0  0  0  0  0  0  0  0  0  0  0  0
  150.5252  129.3119  156.5746 H   0  0  0  0  0  0  0  0  0  0  0  0
  150.3681  129.7467  154.9211 H   0  0  0  0  0  0  0  0  0  0  0  0
  152.5426  128.5070  155.7136 H   0  0  0  0  0  0  0  0  0  0  0  0
  152.6536  129.7515  154.5070 H   0  0  0  0  0  0  0  0  0  0  0  0
  154.4639  129.9041  156.1920 H   0  0  0  0  0  0  0  0  0  0  0  0
  153.5527  131.3661  156.0369 H   0  0  0  0  0  0  0  0  0  0  0  0
  153.3926  129.3230  158.2953 H   0  0  0  0  0  0  0  0  0  0  0  0
  154.0118  130.9424  158.3852 H   0  0  0  0  0  0  0  0  0  0  0  0
  151.1895  129.9861  158.5653 H   0  0  0  0  0  0  0  0  0  0  0  0
  151.9638  131.3006  159.3734 H   0  0  0  0  0  0  0  0  0  0  0  0
  1  2  1  0  0  0  0
  1 21  1  0  0  0  0
  1 22  1  0  0  0  0
  1 23  1  0  0  0  0
  2  3  1  0  0  0  0
  2  9  1  0  0  0  0
  2 24  1  0  0  0  0
  3  4  1  0  0  0  0
  3 25  1  0  0  0  0
  3 26  1  0  0  0  0
  4  8  1  0  0  0  0
  4  5  1  0  0  0  0
  5  6  2  0  0  0  0
  5 27  1  0  0  0  0
  6  7  1  0  0  0  0
  6 28  1  0  0  0  0
  7  8  2  0  0  0  0
  8 29  1  0  0  0  0
  9 10  1  0  0  0  0
  9 30  1  0  0  0  0
 10 11  2  0  0  0  0
 10 12  1  0  0  0  0
 12 13  1  0  0  0  0
 12 31  1  0  0  0  0
 12 32  1  0  0  0  0
 13 19  1  0  0  0  0
 13 14  1  0  0  0  0
 14 15  1  0  0  0  0
 14 33  1  0  0  0  0
 14 34  1  0  0  0  0
 15 16  1  0  0  0  0
 15 35  1  0  0  0  0
 15 36  1  0  0  0  0
 16 17  1  0  0  0  0
 16 37  1  0  0  0  0
 16 38  1  0  0  0  0
 17 18  1  0  0  0  0
 17 39  1  0  0  0  0
 17 40  1  0  0  0  0
 18 19  1  0  0  0  0
 18 41  1  0  0  0  0
 18 42  1  0  0  0  0
 19 20  2  0  0  0  0
M  END
> <s_m_source_file>
AV-unprocessed.smi

> <i_m_source_file_index>
1216

> <i_lp_mmshare_version>
43012

> <i_f3d_flags>
0

> <s_epik_input>
W2NIXTFuW2NIXVtjSF1uMVtDSDJdW0NAQEhdKFtDSDNdKVtOSF1DKD1PKVtDSDJdTjJbQ0gyXVtDSDJdW0NIMl1bQ0gyXVtDSDJdQzI9Tw==

> <s_epik_cmdline>
J2VwaWtfcHl0aG9uJywgJy1waCcsICc3LjAnLCAnLXRuJywgJzgnLCAnLW1hJywgJzIwMCcsICctbWV0YWxfYmluZGluZycsICctaW1hZScsICc8aW5maWxlLm1hZT4nLCAnLW9tYWUnLCAnPG91dGZpbGUubWFlPic=

> <r_lp_tautomer_probability>
1

> <r_epik_Ionization_Penalty>
0.623868

> <r_epik_Ionization_Penalty_Charging>
0.623868

> <r_epik_Ionization_Penalty_Neutral>
4.50838e-08

> <r_epik_State_Penalty>
0.640129

> <r_epik_Charging_Adjusted_Penalty>
1.264

> <i_epik_Tot_Q>
0

> <i_epik_Tot_abs_Q>
0

> <r_epik_Metal_State_Penalty>
0.307431

> <b_epik_Metal_Only>
0

> <s_lp_Force_Field>
OPLS_2005

> <r_lp_Energy>
20.3142

> <b_lp_Chiralities_Consistent>
1

> <s_lp_Variant>
AV-unprocessed.smi:1216-4

> <Gold.Version>
5.8.1

> <Gold.Id.Protein>
6NUR|6NUR_protein|mol2

> <Gold.PLP.Fitness>
44.5061

> <Gold.PLP.PLP>
-33.5260

> <Gold.PLP.part.hbond>
-2.0000

> <Gold.PLP.part.metal>
0.0000

> <Gold.PLP.part.buried>
-4.5804

> <Gold.PLP.part.nonpolar>
-27.6661

> <Gold.PLP.part.repulsive>
0.1849

> <Gold.PLP.ligand.clash>
0.0000

> <Gold.PLP.ligand.torsion>
0.4472

> <Gold.PLP.Chemscore.Hbond>
1.4353

> <Gold.PLP.Chemscore.CHOScore>
2.5187

> <Gold.PLP.Chemscore.Metal>
0.0000

> <Gold.Chemscore.Hbonds>
donor molecule, donor type, donor heavy atom, donor atom, acceptor molecule, acceptor atom, score
      P1  H  6896  6909       L1    20  0.77
      P1  H 10785 10796       L1     7  0.17
      L1  C     6    28       P1 10186  0.66
      L1  C     6    28       P1 10952  0.49
      L1  C     8    29       P1 10747  1.00

> <Gold.PLP.Chemscore.Internal.Correction>
0.0125

> <Gold.Rescore>
     Score         DG    S(hbond)    S(metal)    S(lipo)     H(rot)  DE(clash)    DE(int)     intcor
     10.12     -12.44       1.62        0.00      59.89       2.13       0.11       2.20       ----

> <Gold.Chemscore.Fitness>
10.1249

> <Gold.Chemscore.DG>
-12.4351

> <Gold.Chemscore.ZeroCoef>
-5.4800

> <Gold.Chemscore.Hbond>
1.6201

> <Gold.Chemscore.Metal>
0.0000

> <Gold.Chemscore.Lipo>
59.8852

> <Gold.Chemscore.Internal_Hbond>
0.0000

> <Gold.Chemscore.DEClash>
0.1147

> <Gold.Chemscore.DEInternal>
2.1955

> <Gold.Chemscore.Rot>
2.1338

> <Gold.Chemscore.Internal.Correction>
   9.000000E+99

> <Gold.Chemscore.Hbonds>
donor molecule, donor type, donor heavy atom, donor atom, acceptor molecule, acceptor atom, score
      P1  H  6896  6909       L1    20  0.67
      P1  H 10785 10796       L1     7  0.01

> <Gold.Chemscore.Hbond.Weighted>
-5.4110

> <Gold.Chemscore.Metal.Weighted>
-0.0000

> <Gold.Chemscore.Lipo.Weighted>
-7.0066

> <Gold.Chemscore.Internal_Hbond.Weighted>
0.0000

> <Gold.Chemscore.DEClash.Weighted>
0.1147

> <Gold.Chemscore.DEInternal.Weighted>
2.1955

> <Gold.Chemscore.Rot.Weighted>
5.4625

> <Gold.Chemscore.Internal.Correction.Weighted>
   9.000000E+99

> <Gold.Protein.RotatedTorsions>
[ 6907 6896 6895 6894 ] final  -55.13 input  -60.11 | X-H torsion
[ 7974 7965 7964 7962 ] final   83.00 input  175.53 | X-H torsion
[ 8008 7997 7996 7995 ] final -143.26 input   59.86 | X-H torsion
[ 10167 10162 10161 10158 ] final -132.96 input  -65.29 | X-H torsion
[ 10718 10713 10712 10709 ] final  -67.24 input   66.30 | X-H torsion
[ 10763 10752 10751 10750 ] final  -39.59 input  -60.55 | X-H torsion
[ 11005 11000 10999 10996 ] final   41.69 input  -57.11 | X-H torsion

> <Gold.Protein.ActiveResidues>
 VAL166  LYS551  ARG553  GLY616  TRP617  ASP618  TYR619  PRO620  LYS621  CYS622 
 ASP623  PHE694  ASN695  SER759  ASP760  ASP761  ALA762  ILE779  LEU786  VAL792 
 PHE793  MET794  SER795  GLU796  ALA797  LYS798  CYS799  TRP800  GLU811  SER814 

> <Gold.Protein.RotatedAtoms>
  150.8278  134.7517  159.6827 H   0  0  0  0  0  0  0  0  0  0  0  0  # atno 6907 bound_to 6896
  152.4387  134.5632  159.9910 H   0  0  0  0  0  0  0  0  0  0  0  0  # atno 6908 bound_to 6896
  151.5800  133.3341  159.3042 H   0  0  0  0  0  0  0  0  0  0  0  0  # atno 6909 bound_to 6896
  145.6177  139.2380  143.2156 H   0  0  0  0  0  0  0  0  0  0  0  0  # atno 7974 bound_to 7965
  155.5076  140.0581  157.2929 H   0  0  0  0  0  0  0  0  0  0  0  0  # atno 8008 bound_to 7997
  154.4563  140.1974  156.0318 H   0  0  0  0  0  0  0  0  0  0  0  0  # atno 8009 bound_to 7997
  156.0806  140.3247  155.7693 H   0  0  0  0  0  0  0  0  0  0  0  0  # atno 8010 bound_to 7997
  139.9032  143.6582  152.2591 H   0  0  0  0  0  0  0  0  0  0  0  0  # atno 10167 bound_to 10162
  156.0568  130.4275  150.1825 H   0  0  0  0  0  0  0  0  0  0  0  0  # atno 10718 bound_to 10713
  153.9320  135.6771  153.4745 H   0  0  0  0  0  0  0  0  0  0  0  0  # atno 10763 bound_to 10752
  153.0975  135.4844  154.8802 H   0  0  0  0  0  0  0  0  0  0  0  0  # atno 10764 bound_to 10752
  154.7423  135.3164  154.8664 H   0  0  0  0  0  0  0  0  0  0  0  0  # atno 10765 bound_to 10752
  140.1810  134.4104  155.8200 H   0  0  0  0  0  0  0  0  0  0  0  0  # atno 11005 bound_to 11000
  146.1455  140.6998  142.9347 LP  0  0  0  0  0  0  0  0  0  0  0  0  # atno 17320 bound_to 7965
  144.7244  140.4476  143.6984 LP  0  0  0  0  0  0  0  0  0  0  0  0  # atno 17321 bound_to 7965
  139.7007  144.7635  151.1278 LP  0  0  0  0  0  0  0  0  0  0  0  0  # atno 17342 bound_to 10162
  140.7702  143.5462  150.9256 LP  0  0  0  0  0  0  0  0  0  0  0  0  # atno 17343 bound_to 10162
  156.9900  130.9890  151.3417 LP  0  0  0  0  0  0  0  0  0  0  0  0  # atno 17370 bound_to 10713
  157.5545  130.8204  149.8187 LP  0  0  0  0  0  0  0  0  0  0  0  0  # atno 17371 bound_to 10713
  141.2223  133.7000  156.7930 LP  0  0  0  0  0  0  0  0  0  0  0  0  # atno 17394 bound_to 11000
  140.2267  134.8716  157.3434 LP  0  0  0  0  0  0  0  0  0  0  0  0  # atno 17395 bound_to 11000

$$$$
