AV-unprocessed.smi:1824|AV-procd|sdf|7399|dock9
  -GOLD-   22720 9 73D 1   1.00000     0.00000
 Structure written by MMmdl.
 45 47  0  0  0  0  0  0  0  0  2 V2000
  145.8034  136.3121  153.3726 C   0  0  0  0  0  0  0  0  0  0  0  0
  145.4521  137.7377  153.8125 C   0  0  2  0  0  0  0  0  0  0  0  0
  146.5351  138.7517  153.4027 C   0  0  0  0  0  0  0  0  0  0  0  0
  146.2038  140.0994  153.9198 N   0  3  2  0  0  0  0  0  0  0  0  0
  147.1569  141.1397  153.4557 C   0  0  0  0  0  0  0  0  0  0  0  0
  148.2321  141.4689  154.5100 C   0  0  2  0  0  0  0  0  0  0  0  0
  148.7100  142.7810  154.2790 O   0  0  0  0  0  0  0  0  0  0  0  0
  149.4085  140.4753  154.4531 C   0  0  0  0  0  0  0  0  0  0  0  0
  149.9584  140.1847  155.7656 N   0  0  0  0  0  0  0  0  0  0  0  0
  149.9819  138.9900  156.3874 C   0  0  0  0  0  0  0  0  0  0  0  0
  150.5369  138.9421  157.5950 N   0  0  0  0  0  0  0  0  0  0  0  0
  150.9209  140.2593  157.7792 C   0  0  0  0  0  0  0  0  0  0  0  0
  151.5728  140.8813  158.8681 C   0  0  0  0  0  0  0  0  0  0  0  0
  151.8678  142.2603  158.8322 C   0  0  0  0  0  0  0  0  0  0  0  0
  152.4940  142.8401  159.8835 F   0  0  0  0  0  0  0  0  0  0  0  0
  151.5148  143.0371  157.7085 C   0  0  0  0  0  0  0  0  0  0  0  0
  151.8015  144.3602  157.6814 F   0  0  0  0  0  0  0  0  0  0  0  0
  150.8639  142.4396  156.6121 C   0  0  0  0  0  0  0  0  0  0  0  0
  150.5731  141.0633  156.6518 C   0  0  0  0  0  0  0  0  0  0  0  0
  146.0385  140.0582  155.3937 C   0  0  0  0  0  0  0  0  0  0  0  0
  144.9911  139.0048  155.8043 C   0  0  1  0  0  0  0  0  0  0  0  0
  143.5426  139.4295  155.5040 C   0  0  0  0  0  0  0  0  0  0  0  0
  145.3150  137.7379  155.2313 O   0  0  0  0  0  0  0  0  0  0  0  0
  145.9099  136.2491  152.2893 H   0  0  0  0  0  0  0  0  0  0  0  0
  145.0244  135.6098  153.6705 H   0  0  0  0  0  0  0  0  0  0  0  0
  146.7400  135.9789  153.8211 H   0  0  0  0  0  0  0  0  0  0  0  0
  144.5026  138.0086  153.3502 H   0  0  0  0  0  0  0  0  0  0  0  0
  147.5103  138.4443  153.7842 H   0  0  0  0  0  0  0  0  0  0  0  0
  146.6114  138.7823  152.3149 H   0  0  0  0  0  0  0  0  0  0  0  0
  147.6202  140.8114  152.5240 H   0  0  0  0  0  0  0  0  0  0  0  0
  146.6147  142.0561  153.2172 H   0  0  0  0  0  0  0  0  0  0  0  0
  147.8034  141.4374  155.5113 H   0  0  0  0  0  0  0  0  0  0  0  0
  148.5247  143.3106  155.0399 H   0  0  0  0  0  0  0  0  0  0  0  0
  149.0843  139.5351  154.0051 H   0  0  0  0  0  0  0  0  0  0  0  0
  150.2065  140.8618  153.8176 H   0  0  0  0  0  0  0  0  0  0  0  0
  149.5667  138.1048  155.9277 H   0  0  0  0  0  0  0  0  0  0  0  0
  151.8474  140.2971  159.7338 H   0  0  0  0  0  0  0  0  0  0  0  0
  150.5927  143.0337  155.7526 H   0  0  0  0  0  0  0  0  0  0  0  0
  146.9983  139.8144  155.8520 H   0  0  0  0  0  0  0  0  0  0  0  0
  145.7464  141.0336  155.7815 H   0  0  0  0  0  0  0  0  0  0  0  0
  145.0612  138.8726  156.8846 H   0  0  0  0  0  0  0  0  0  0  0  0
  143.2820  140.3316  156.0584 H   0  0  0  0  0  0  0  0  0  0  0  0
  142.8403  138.6492  155.7986 H   0  0  0  0  0  0  0  0  0  0  0  0
  143.3823  139.6429  154.4476 H   0  0  0  0  0  0  0  0  0  0  0  0
  145.3055  140.3414  153.5256 H   0  0  0  0  0  0  0  0  0  0  0  0
  1  2  1  0  0  0  0
  1 24  1  0  0  0  0
  1 25  1  0  0  0  0
  1 26  1  0  0  0  0
  2 23  1  0  0  0  0
  2  3  1  0  0  0  0
  2 27  1  0  0  0  0
  3  4  1  0  0  0  0
  3 28  1  0  0  0  0
  3 29  1  0  0  0  0
  4  5  1  0  0  0  0
  4 20  1  0  0  0  0
  4 45  1  0  0  0  0
  5  6  1  0  0  0  0
  5 30  1  0  0  0  0
  5 31  1  0  0  0  0
  6  7  1  0  0  0  0
  6  8  1  0  0  0  0
  6 32  1  0  0  0  0
  7 33  1  0  0  0  0
  8  9  1  0  0  0  0
  8 34  1  0  0  0  0
  8 35  1  0  0  0  0
  9 19  1  0  0  0  0
  9 10  1  0  0  0  0
 10 11  2  0  0  0  0
 10 36  1  0  0  0  0
 11 12  1  0  0  0  0
 12 19  2  0  0  0  0
 12 13  1  0  0  0  0
 13 14  2  0  0  0  0
 13 37  1  0  0  0  0
 14 15  1  0  0  0  0
 14 16  1  0  0  0  0
 16 17  1  0  0  0  0
 16 18  2  0  0  0  0
 18 19  1  0  0  0  0
 18 38  1  0  0  0  0
 20 21  1  0  0  0  0
 20 39  1  0  0  0  0
 20 40  1  0  0  0  0
 21 22  1  0  0  0  0
 21 23  1  0  0  0  0
 21 41  1  0  0  0  0
 22 42  1  0  0  0  0
 22 43  1  0  0  0  0
 22 44  1  0  0  0  0
M  CHG  1   4   1
M  END
> <s_m_source_file>
AV-unprocessed.smi

> <i_m_source_file_index>
1824

> <i_lp_mmshare_version>
43012

> <i_f3d_flags>
0

> <s_epik_input>
W0NIM11bQ0BASF0xW0NIMl1OKFtDSDJdW0NASF0oTzEpW0NIM10pW0NIMl1bQ0BIXShbT0hdKVtDSDJdbihbY0hdbjIpYyhjMjMpW2NIXWMoRiljKEYpW2NIXTM=

> <s_epik_cmdline>
J2VwaWtfcHl0aG9uJywgJy1waCcsICc3LjAnLCAnLXRuJywgJzgnLCAnLW1hJywgJzIwMCcsICctbWV0YWxfYmluZGluZycsICctaW1hZScsICc8aW5maWxlLm1hZT4nLCAnLW9tYWUnLCAnPG91dGZpbGUubWFlPic=

> <r_epik_Ionization_Penalty>
0.61967

> <r_epik_Ionization_Penalty_Charging>
0.608065

> <r_epik_Ionization_Penalty_Neutral>
0.0116057

> <r_epik_State_Penalty>
0.664205

> <r_epik_Charging_Adjusted_Penalty>
1.27227

> <i_epik_Tot_Q>
1

> <i_epik_Tot_abs_Q>
1

> <r_epik_Metal_State_Penalty>
0.654947

> <b_epik_Metal_Only>
0

> <s_lp_Force_Field>
OPLS_2005

> <r_lp_Energy>
23.0723

> <b_lp_Chiralities_Consistent>
1

> <s_lp_Variant>
AV-unprocessed.smi:1824-7

> <Gold.Version>
5.8.1

> <Gold.Id.Protein>
6NUR|6NUR_protein|mol2

> <Gold.PLP.Fitness>
43.8324

> <Gold.PLP.PLP>
-37.7106

> <Gold.PLP.part.hbond>
-3.3418

> <Gold.PLP.part.metal>
0.0000

> <Gold.PLP.part.buried>
-3.9130

> <Gold.PLP.part.nonpolar>
-30.2080

> <Gold.PLP.part.repulsive>
0.0381

> <Gold.PLP.ligand.clash>
0.0000

> <Gold.PLP.ligand.torsion>
1.2308

> <Gold.PLP.Chemscore.Hbond>
2.8480

> <Gold.PLP.Chemscore.CHOScore>
0.0000

> <Gold.PLP.Chemscore.Metal>
0.0000

> <Gold.Chemscore.Hbonds>
donor molecule, donor type, donor heavy atom, donor atom, acceptor molecule, acceptor atom, score
      L1  H     4    45       P1 10175  2.00
      L1  H     7    33       P1  8028  0.80

> <Gold.PLP.Chemscore.Internal.Correction>
0.0394

> <Gold.Rescore>
     Score         DG    S(hbond)    S(metal)    S(lipo)     H(rot)  DE(clash)    DE(int)     intcor
     14.48     -15.66       2.01        0.00      80.53       2.33       0.06       1.12       ----

> <Gold.Chemscore.Fitness>
14.4769

> <Gold.Chemscore.DG>
-15.6583

> <Gold.Chemscore.ZeroCoef>
-5.4800

> <Gold.Chemscore.Hbond>
2.0086

> <Gold.Chemscore.Metal>
0.0000

> <Gold.Chemscore.Lipo>
80.5282

> <Gold.Chemscore.Internal_Hbond>
0.0000

> <Gold.Chemscore.DEClash>
0.0619

> <Gold.Chemscore.DEInternal>
1.1194

> <Gold.Chemscore.Rot>
2.3251

> <Gold.Chemscore.Internal.Correction>
   9.000000E+99

> <Gold.Chemscore.Hbonds>
donor molecule, donor type, donor heavy atom, donor atom, acceptor molecule, acceptor atom, score
      L1  H     4    45       P1 10175  0.99
      L1  H     7    33       P1  8028  0.76
      P1  H  8011  8017       L1     7  0.01

> <Gold.Chemscore.Hbond.Weighted>
-6.7088

> <Gold.Chemscore.Metal.Weighted>
-0.0000

> <Gold.Chemscore.Lipo.Weighted>
-9.4218

> <Gold.Chemscore.Internal_Hbond.Weighted>
0.0000

> <Gold.Chemscore.DEClash.Weighted>
0.0619

> <Gold.Chemscore.DEInternal.Weighted>
1.1194

> <Gold.Chemscore.Rot.Weighted>
5.9523

> <Gold.Chemscore.Internal.Correction.Weighted>
   9.000000E+99

> <Gold.Protein.RotatedTorsions>
[ 6907 6896 6895 6894 ] final  -75.75 input  -60.11 | X-H torsion
[ 7974 7965 7964 7962 ] final   22.45 input  175.53 | X-H torsion
[ 8008 7997 7996 7995 ] final   18.44 input   59.86 | X-H torsion
[ 10167 10162 10161 10158 ] final   17.83 input  -65.29 | X-H torsion
[ 10718 10713 10712 10709 ] final  -45.43 input   66.30 | X-H torsion
[ 10763 10752 10751 10750 ] final  -96.66 input  -60.55 | X-H torsion
[ 11005 11000 10999 10996 ] final -171.99 input  -57.11 | X-H torsion

> <Gold.Protein.ActiveResidues>
 VAL166  LYS551  ARG553  GLY616  TRP617  ASP618  TYR619  PRO620  LYS621  CYS622 
 ASP623  PHE694  ASN695  SER759  ASP760  ASP761  ALA762  ILE779  LEU786  VAL792 
 PHE793  MET794  SER795  GLU796  ALA797  LYS798  CYS799  TRP800  GLU811  SER814 

> <Gold.Protein.RotatedAtoms>
  150.7049  134.4674  159.5409 H   0  0  0  0  0  0  0  0  0  0  0  0  # atno 6907 bound_to 6896
  152.2337  134.8294  160.0479 H   0  0  0  0  0  0  0  0  0  0  0  0  # atno 6908 bound_to 6896
  151.9100  133.3524  159.3897 H   0  0  0  0  0  0  0  0  0  0  0  0  # atno 6909 bound_to 6896
  146.2028  139.7884  142.8748 H   0  0  0  0  0  0  0  0  0  0  0  0  # atno 7974 bound_to 7965
  154.9060  140.3007  155.5292 H   0  0  0  0  0  0  0  0  0  0  0  0  # atno 8008 bound_to 7997
  156.3017  140.2398  156.4029 H   0  0  0  0  0  0  0  0  0  0  0  0  # atno 8009 bound_to 7997
  154.8473  140.0411  157.1570 H   0  0  0  0  0  0  0  0  0  0  0  0  # atno 8010 bound_to 7997
  140.5697  143.9184  150.6703 H   0  0  0  0  0  0  0  0  0  0  0  0  # atno 10167 bound_to 10162
  156.2285  130.4171  149.8904 H   0  0  0  0  0  0  0  0  0  0  0  0  # atno 10718 bound_to 10713
  154.7259  135.5075  153.8885 H   0  0  0  0  0  0  0  0  0  0  0  0  # atno 10763 bound_to 10752
  153.0904  135.6657  153.9873 H   0  0  0  0  0  0  0  0  0  0  0  0  # atno 10764 bound_to 10752
  153.9686  135.3040  155.3408 H   0  0  0  0  0  0  0  0  0  0  0  0  # atno 10765 bound_to 10752
  140.5020  134.5884  157.4991 H   0  0  0  0  0  0  0  0  0  0  0  0  # atno 11005 bound_to 11000
  145.3424  141.0290  143.3385 LP  0  0  0  0  0  0  0  0  0  0  0  0  # atno 17320 bound_to 7965
  144.8723  139.5021  143.6762 LP  0  0  0  0  0  0  0  0  0  0  0  0  # atno 17321 bound_to 7965
  140.2656  143.3492  152.1284 LP  0  0  0  0  0  0  0  0  0  0  0  0  # atno 17342 bound_to 10162
  139.5111  144.6895  151.5797 LP  0  0  0  0  0  0  0  0  0  0  0  0  # atno 17343 bound_to 10162
  156.6527  130.8750  151.3534 LP  0  0  0  0  0  0  0  0  0  0  0  0  # atno 17370 bound_to 10713
  157.7122  130.9453  150.1127 LP  0  0  0  0  0  0  0  0  0  0  0  0  # atno 17371 bound_to 10713
  139.9708  134.7297  156.0046 LP  0  0  0  0  0  0  0  0  0  0  0  0  # atno 17394 bound_to 11000
  141.1430  133.6561  156.3786 LP  0  0  0  0  0  0  0  0  0  0  0  0  # atno 17395 bound_to 11000

$$$$
