AV-unprocessed.smi:45|AV-procd|sdf|416|dock5
  -GOLD-   2262016293D 1   1.00000     0.00000
 Structure written by MMmdl.
 60 63  0  0  0  0  0  0  0  0  3 V2000
  151.9480  126.2857  155.0127 C   0  0  0  0  0  0  0  0  0  0  0  0
  150.7714  126.9235  154.5378 O   0  0  0  0  0  0  0  0  0  0  0  0
  150.6681  128.2919  154.6786 C   0  0  0  0  0  0  0  0  0  0  0  0
  151.6566  129.0978  155.2990 C   0  0  0  0  0  0  0  0  0  0  0  0
  151.4811  130.4908  155.4055 C   0  0  0  0  0  0  0  0  0  0  0  0
  150.3185  131.1021  154.8962 C   0  0  0  0  0  0  0  0  0  0  0  0
  150.1316  132.6019  155.0106 C   0  0  0  0  0  0  0  0  0  0  0  0
  148.9005  132.9735  155.6924 N   0  0  0  0  0  0  0  0  0  0  0  0
  148.1471  134.0923  155.2967 C   0  0  0  0  0  0  0  0  0  0  0  0
  147.4747  134.0192  154.1250 N   0  0  0  0  0  0  0  0  0  0  0  0
  146.7301  135.0500  153.7028 C   0  0  0  0  0  0  0  0  0  0  0  0
  146.0496  134.9275  152.4925 N   0  0  0  0  0  0  0  0  0  0  0  0
  145.8979  133.6377  151.8272 C   0  0  0  0  0  0  0  0  0  0  0  0
  144.5479  133.6876  151.1100 C   0  0  0  0  0  0  0  0  0  0  0  0
  144.3801  135.1683  150.7909 C   0  0  0  0  0  0  0  0  0  0  0  0
  145.0319  135.8564  151.9997 C   0  0  2  0  0  0  0  0  0  0  0  0
  145.5540  137.2840  151.7180 C   0  0  0  0  0  0  0  0  0  0  0  0
  146.8179  137.2643  151.0864 O   0  0  0  0  0  0  0  0  0  0  0  0
  146.6131  136.1801  154.4166 N   0  3  0  0  0  0  0  0  0  0  0  0
  147.2652  136.3051  155.5973 C   0  0  0  0  0  0  0  0  0  0  0  0
  148.0678  135.2572  156.0995 C   0  0  0  0  0  0  0  0  0  0  0  0
  148.8133  135.4168  157.4007 C   0  0  0  0  0  0  0  0  0  0  0  0
  149.8367  134.7474  157.5815 O   0  0  0  0  0  0  0  0  0  0  0  0
  148.1955  136.3039  158.2275 N   0  5  0  0  0  0  0  0  0  0  0  0
  148.7901  136.8210  159.4591 C   0  0  0  0  0  0  0  0  0  0  0  0
  148.0848  136.2763  160.6932 C   0  0  0  0  0  0  0  0  0  0  0  0
  147.9096  134.9502  160.7541 N   0  0  0  0  0  0  0  0  0  0  0  0
  147.3042  134.4619  161.8584 C   0  0  0  0  0  0  0  0  0  0  0  0
  146.8731  135.3046  162.9025 C   0  0  0  0  0  0  0  0  0  0  0  0
  147.1088  136.6829  162.7282 C   0  0  0  0  0  0  0  0  0  0  0  0
  147.7146  137.1665  161.6221 N   0  0  0  0  0  0  0  0  0  0  0  0
  149.3323  130.3089  154.2783 C   0  0  0  0  0  0  0  0  0  0  0  0
  149.5056  128.9149  154.1712 C   0  0  0  0  0  0  0  0  0  0  0  0
  148.2758  127.9710  153.4089 Cl  0  0  0  0  0  0  0  0  0  0  0  0
  144.2782  135.9236  152.7854 H   0  0  0  0  0  0  0  0  0  0  0  0
  151.8779  125.2147  154.8234 H   0  0  0  0  0  0  0  0  0  0  0  0
  152.0697  126.4227  156.0880 H   0  0  0  0  0  0  0  0  0  0  0  0
  152.8364  126.6536  154.4980 H   0  0  0  0  0  0  0  0  0  0  0  0
  152.5616  128.6706  155.7032 H   0  0  0  0  0  0  0  0  0  0  0  0
  152.2436  131.0902  155.8812 H   0  0  0  0  0  0  0  0  0  0  0  0
  150.9831  133.0139  155.5535 H   0  0  0  0  0  0  0  0  0  0  0  0
  150.1385  133.0482  154.0152 H   0  0  0  0  0  0  0  0  0  0  0  0
  148.5785  132.4068  156.4646 H   0  0  0  0  0  0  0  0  0  0  0  0
  146.7109  133.5180  151.1104 H   0  0  0  0  0  0  0  0  0  0  0  0
  145.9370  132.8013  152.5262 H   0  0  0  0  0  0  0  0  0  0  0  0
  144.5127  133.0511  150.2253 H   0  0  0  0  0  0  0  0  0  0  0  0
  143.7564  133.3667  151.7887 H   0  0  0  0  0  0  0  0  0  0  0  0
  144.9152  135.3953  149.8681 H   0  0  0  0  0  0  0  0  0  0  0  0
  143.3383  135.4580  150.6518 H   0  0  0  0  0  0  0  0  0  0  0  0
  144.8568  137.8023  151.0593 H   0  0  0  0  0  0  0  0  0  0  0  0
  145.6217  137.8826  152.6250 H   0  0  0  0  0  0  0  0  0  0  0  0
  147.4058  136.7366  151.6057 H   0  0  0  0  0  0  0  0  0  0  0  0
  147.1248  137.2493  156.1038 H   0  0  0  0  0  0  0  0  0  0  0  0
  149.8505  136.5725  159.5299 H   0  0  0  0  0  0  0  0  0  0  0  0
  148.7497  137.9109  159.4954 H   0  0  0  0  0  0  0  0  0  0  0  0
  147.1631  133.3926  161.9092 H   0  0  0  0  0  0  0  0  0  0  0  0
  146.3891  134.9160  163.7860 H   0  0  0  0  0  0  0  0  0  0  0  0
  146.8103  137.3999  163.4784 H   0  0  0  0  0  0  0  0  0  0  0  0
  148.4365  130.7674  153.8855 H   0  0  0  0  0  0  0  0  0  0  0  0
  146.0377  136.9523  154.0814 H   0  0  0  0  0  0  0  0  0  0  0  0
  1  2  1  0  0  0  0
  1 36  1  0  0  0  0
  1 37  1  0  0  0  0
  1 38  1  0  0  0  0
  2  3  1  0  0  0  0
  3 33  1  0  0  0  0
  3  4  2  0  0  0  0
  4  5  1  0  0  0  0
  4 39  1  0  0  0  0
  5  6  2  0  0  0  0
  5 40  1  0  0  0  0
  6  7  1  0  0  0  0
  6 32  1  0  0  0  0
  7  8  1  0  0  0  0
  7 41  1  0  0  0  0
  7 42  1  0  0  0  0
  8  9  1  0  0  0  0
  8 43  1  0  0  0  0
  9 21  1  0  0  0  0
  9 10  2  0  0  0  0
 10 11  1  0  0  0  0
 11 12  1  0  0  0  0
 11 19  2  0  0  0  0
 12 16  1  0  0  0  0
 12 13  1  0  0  0  0
 13 14  1  0  0  0  0
 13 44  1  0  0  0  0
 13 45  1  0  0  0  0
 14 15  1  0  0  0  0
 14 46  1  0  0  0  0
 14 47  1  0  0  0  0
 15 16  1  0  0  0  0
 15 48  1  0  0  0  0
 15 49  1  0  0  0  0
 16 35  1  0  0  0  0
 16 17  1  0  0  0  0
 17 18  1  0  0  0  0
 17 50  1  0  0  0  0
 17 51  1  0  0  0  0
 18 52  1  0  0  0  0
 19 20  1  0  0  0  0
 19 60  1  0  0  0  0
 20 21  2  0  0  0  0
 20 53  1  0  0  0  0
 21 22  1  0  0  0  0
 22 23  2  0  0  0  0
 22 24  1  0  0  0  0
 24 25  1  0  0  0  0
 25 26  1  0  0  0  0
 25 54  1  0  0  0  0
 25 55  1  0  0  0  0
 26 31  1  0  0  0  0
 26 27  2  0  0  0  0
 27 28  1  0  0  0  0
 28 29  2  0  0  0  0
 28 56  1  0  0  0  0
 29 30  1  0  0  0  0
 29 57  1  0  0  0  0
 30 31  2  0  0  0  0
 30 58  1  0  0  0  0
 32 33  2  0  0  0  0
 32 59  1  0  0  0  0
 33 34  1  0  0  0  0
M  CHG  1  19   1
M  CHG  1  24  -1
M  END
> <s_m_source_file>
AV-unprocessed.smi

> <i_m_source_file_index>
45

> <i_lp_mmshare_version>
43012

> <i_f3d_flags>
0

> <s_epik_input>
W0NIM11PYzFbY0hdW2NIXWMoW2NIXWMxQ2wpW0NIMl1bTkhdYzJuYyhOM1tDSDJdW0NIMl1bQ0gyXVtDQEhdM1tDSDJdW09IXSluW2NIXWMyQyg9TylbTkhdW0NIMl1jNG5bY0hdW2NIXVtjSF1uNA==

> <s_epik_cmdline>
J2VwaWtfcHl0aG9uJywgJy1waCcsICc3LjAnLCAnLXRuJywgJzgnLCAnLW1hJywgJzIwMCcsICctbWV0YWxfYmluZGluZycsICctaW1hZScsICc8aW5maWxlLm1hZT4nLCAnLW9tYWUnLCAnPG91dGZpbGUubWFlPic=

> <r_lp_tautomer_probability>
0.575011

> <r_epik_Ionization_Penalty>
6.73124

> <r_epik_Ionization_Penalty_Charging>
6.73106

> <r_epik_Ionization_Penalty_Neutral>
0.000179426

> <r_epik_State_Penalty>
8.26145

> <r_epik_Charging_Adjusted_Penalty>
14.9925

> <i_epik_Tot_Q>
0

> <i_epik_Tot_abs_Q>
2

> <r_epik_Metal_State_Penalty>
4.22532

> <b_epik_Metal_Only>
1

> <s_epik_Chemistry_Notes>
This compound contains an electron-poor aromatic ring that is susceptible to covalent hydrolysis at low pH, typically resulting in measured values for nitrogen ring protonation that are around two units higher than predicted values.

> <s_lp_Force_Field>
OPLS_2005

> <r_lp_Energy>
47.4245

> <b_lp_Chiralities_Consistent>
1

> <s_lp_Variant>
AV-unprocessed.smi:45-10

> <Gold.Version>
5.8.1

> <Gold.Id.Protein>
6NUR|6NUR_protein|mol2

> <Gold.PLP.Fitness>
59.8050

> <Gold.PLP.PLP>
-49.0115

> <Gold.PLP.part.hbond>
-4.7841

> <Gold.PLP.part.metal>
0.0000

> <Gold.PLP.part.buried>
-2.5143

> <Gold.PLP.part.nonpolar>
-41.4862

> <Gold.PLP.part.repulsive>
0.2908

> <Gold.PLP.ligand.clash>
0.0000

> <Gold.PLP.ligand.torsion>
1.5453

> <Gold.PLP.Chemscore.Hbond>
4.2362

> <Gold.PLP.Chemscore.CHOScore>
0.0000

> <Gold.PLP.Chemscore.Metal>
0.0000

> <Gold.Chemscore.Hbonds>
donor molecule, donor type, donor heavy atom, donor atom, acceptor molecule, acceptor atom, score
      L1  H    18    52       P1  7948  0.91
      P1  H  6896  6908       L1    23  0.90
      P1  H  6931  6943       L1    31  1.00
      P1  H  6934  6947       L1    31  0.72
      P1  H  7954  7966       L1    18  0.70

> <Gold.PLP.Chemscore.Internal.Correction>
1.1757

> <Gold.Rescore>
     Score         DG    S(hbond)    S(metal)    S(lipo)     H(rot)  DE(clash)    DE(int)     intcor
     17.19     -20.52       3.23        0.00      99.82       2.90       0.32       3.01       ----

> <Gold.Chemscore.Fitness>
17.1894

> <Gold.Chemscore.DG>
-20.5204

> <Gold.Chemscore.ZeroCoef>
-5.4800

> <Gold.Chemscore.Hbond>
3.2281

> <Gold.Chemscore.Metal>
0.0000

> <Gold.Chemscore.Lipo>
99.8232

> <Gold.Chemscore.Internal_Hbond>
0.0000

> <Gold.Chemscore.DEClash>
0.3248

> <Gold.Chemscore.DEInternal>
3.0062

> <Gold.Chemscore.Rot>
2.8988

> <Gold.Chemscore.Internal.Correction>
   9.000000E+99

> <Gold.Chemscore.Hbonds>
donor molecule, donor type, donor heavy atom, donor atom, acceptor molecule, acceptor atom, score
      L1  H    18    52       P1  7948  0.89
      P1  H  6896  6908       L1    23  0.82
      P1  H  6931  6943       L1    31  0.61
      P1  H  6934  6947       L1    31  0.62
      P1  H  7954  7966       L1    18  0.07

> <Gold.Chemscore.Hbond.Weighted>
-10.7820

> <Gold.Chemscore.Metal.Weighted>
-0.0000

> <Gold.Chemscore.Lipo.Weighted>
-11.6793

> <Gold.Chemscore.Internal_Hbond.Weighted>
0.0000

> <Gold.Chemscore.DEClash.Weighted>
0.3248

> <Gold.Chemscore.DEInternal.Weighted>
3.0062

> <Gold.Chemscore.Rot.Weighted>
7.4209

> <Gold.Chemscore.Internal.Correction.Weighted>
   9.000000E+99

> <Gold.Protein.RotatedTorsions>
[ 6907 6896 6895 6894 ] final  145.69 input  -60.11 | X-H torsion
[ 7974 7965 7964 7962 ] final  -40.70 input  175.53 | X-H torsion
[ 8008 7997 7996 7995 ] final    0.76 input   59.86 | X-H torsion
[ 10167 10162 10161 10158 ] final  151.29 input  -65.29 | X-H torsion
[ 10718 10713 10712 10709 ] final   74.68 input   66.30 | X-H torsion
[ 10763 10752 10751 10750 ] final  127.65 input  -60.55 | X-H torsion
[ 11005 11000 10999 10996 ] final  -79.65 input  -57.11 | X-H torsion

> <Gold.Protein.ActiveResidues>
 VAL166  LYS551  ARG553  GLY616  TRP617  ASP618  TYR619  PRO620  LYS621  CYS622 
 ASP623  PHE694  ASN695  SER759  ASP760  ASP761  ALA762  ILE779  LEU786  VAL792 
 PHE793  MET794  SER795  GLU796  ALA797  LYS798  CYS799  TRP800  GLU811  SER814 

> <Gold.Protein.RotatedAtoms>
  152.1776  133.4685  159.4940 H   0  0  0  0  0  0  0  0  0  0  0  0  # atno 6907 bound_to 6896
  150.6929  134.1875  159.4281 H   0  0  0  0  0  0  0  0  0  0  0  0  # atno 6908 bound_to 6896
  151.9784  135.0040  160.0607 H   0  0  0  0  0  0  0  0  0  0  0  0  # atno 6909 bound_to 6896
  146.0280  140.6767  142.9146 H   0  0  0  0  0  0  0  0  0  0  0  0  # atno 7974 bound_to 7965
  154.6719  140.2613  155.6999 H   0  0  0  0  0  0  0  0  0  0  0  0  # atno 8008 bound_to 7997
  156.2662  140.2828  156.1153 H   0  0  0  0  0  0  0  0  0  0  0  0  # atno 8009 bound_to 7997
  155.1157  140.0376  157.2726 H   0  0  0  0  0  0  0  0  0  0  0  0  # atno 8010 bound_to 7997
  139.4842  144.5453  151.7495 H   0  0  0  0  0  0  0  0  0  0  0  0  # atno 10167 bound_to 10162
  157.6602  130.9690  150.1246 H   0  0  0  0  0  0  0  0  0  0  0  0  # atno 10718 bound_to 10713
  153.7128  135.3265  155.3250 H   0  0  0  0  0  0  0  0  0  0  0  0  # atno 10763 bound_to 10752
  154.8379  135.4481  154.1296 H   0  0  0  0  0  0  0  0  0  0  0  0  # atno 10764 bound_to 10752
  153.2395  135.6969  153.7879 H   0  0  0  0  0  0  0  0  0  0  0  0  # atno 10765 bound_to 10752
  141.1667  133.7115  156.8154 H   0  0  0  0  0  0  0  0  0  0  0  0  # atno 11005 bound_to 11000
  144.7018  140.3684  143.7150 LP  0  0  0  0  0  0  0  0  0  0  0  0  # atno 17320 bound_to 7965
  145.7087  139.1679  143.2551 LP  0  0  0  0  0  0  0  0  0  0  0  0  # atno 17321 bound_to 7965
  140.4998  144.1185  150.5968 LP  0  0  0  0  0  0  0  0  0  0  0  0  # atno 17342 bound_to 10162
  140.4075  143.2673  151.9873 LP  0  0  0  0  0  0  0  0  0  0  0  0  # atno 17343 bound_to 10162
  156.2108  130.3666  149.8672 LP  0  0  0  0  0  0  0  0  0  0  0  0  # atno 17370 bound_to 10713
  156.6551  130.8759  151.3538 LP  0  0  0  0  0  0  0  0  0  0  0  0  # atno 17371 bound_to 10713
  140.2157  134.8794  157.3323 LP  0  0  0  0  0  0  0  0  0  0  0  0  # atno 17394 bound_to 11000
  140.2040  134.4220  155.7647 LP  0  0  0  0  0  0  0  0  0  0  0  0  # atno 17395 bound_to 11000

$$$$
