AV-unprocessed.smi:212|AV-procd|sdf|1619|dock2
  -GOLD-   2262019553D 1   1.00000     0.00000
 Structure written by MMmdl.
 65 68  0  0  0  0  0  0  0  0  2 V2000
  146.7666  142.6137  156.8194 C   0  0  0  0  0  0  0  0  0  0  0  0
  147.4694  141.2464  156.8648 C   0  0  2  0  0  0  0  0  0  0  0  0
  148.9205  141.3542  157.3803 C   0  0  0  0  0  0  0  0  0  0  0  0
  149.8169  141.9883  156.3751 N   0  3  1  0  0  0  0  0  0  0  0  0
  151.2084  142.2071  156.8571 C   0  0  0  0  0  0  0  0  0  0  0  0
  151.4249  143.5467  157.6091 C   0  0  0  0  0  0  0  0  0  0  0  0
  150.2785  143.7736  158.6101 C   0  0  0  0  0  0  0  0  0  0  0  0
  152.7823  143.6148  158.3344 C   0  0  0  0  0  0  0  0  0  0  0  0
  151.3512  144.6229  156.6965 O   0  0  0  0  0  0  0  0  0  0  0  0
  149.7791  141.2688  155.0751 C   0  0  0  0  0  0  0  0  0  0  0  0
  148.3392  141.1375  154.5459 C   0  0  0  0  0  0  0  0  0  0  0  0
  147.4441  140.5819  155.5605 N   0  0  0  0  0  0  0  0  0  0  0  0
  147.2439  139.2393  155.5913 C   0  0  0  0  0  0  0  0  0  0  0  0
  147.5094  138.5361  156.7239 N   0  0  0  0  0  0  0  0  0  0  0  0
  147.2963  137.2177  156.7630 C   0  0  0  0  0  0  0  0  0  0  0  0
  146.8313  136.4195  155.8004 N   0  0  0  0  0  0  0  0  0  0  0  0
  146.5671  137.1167  154.6591 C   0  0  0  0  0  0  0  0  0  0  0  0
  146.7487  138.5157  154.4708 C   0  0  0  0  0  0  0  0  0  0  0  0
  146.3963  138.8696  153.1748 N   0  0  0  0  0  0  0  0  0  0  0  0
  146.0261  137.7441  152.6286 C   0  0  0  0  0  0  0  0  0  0  0  0
  146.0756  136.6419  153.4539 N   0  0  0  0  0  0  0  0  0  0  0  0
  145.7143  135.2739  153.1036 C   0  0  0  0  0  0  0  0  0  0  0  0
  144.6789  135.1616  151.9528 C   0  0  2  0  0  0  0  0  0  0  0  0
  143.2510  134.9745  152.5204 C   0  0  0  0  0  0  0  0  0  0  0  0
  143.2492  134.2110  153.7084 O   0  0  0  0  0  0  0  0  0  0  0  0
  145.0697  134.0607  150.9276 C   0  0  2  0  0  0  0  0  0  0  0  0
  144.0227  133.8018  149.8558 C   0  0  0  0  0  0  0  0  0  0  0  0
  144.4462  132.4464  149.2987 C   0  0  0  0  0  0  0  0  0  0  0  0
  145.0888  131.7686  150.3728 O   0  0  0  0  0  0  0  0  0  0  0  0
  145.2107  132.6426  151.4892 C   0  0  0  0  0  0  0  0  0  0  0  0
  146.7429  143.0714  157.8087 H   0  0  0  0  0  0  0  0  0  0  0  0
  145.7347  142.5083  156.4830 H   0  0  0  0  0  0  0  0  0  0  0  0
  147.2667  143.3115  156.1478 H   0  0  0  0  0  0  0  0  0  0  0  0
  146.9226  140.6442  157.5910 H   0  0  0  0  0  0  0  0  0  0  0  0
  148.9202  141.9125  158.3141 H   0  0  0  0  0  0  0  0  0  0  0  0
  149.3016  140.3588  157.6144 H   0  0  0  0  0  0  0  0  0  0  0  0
  151.5392  141.3569  157.4562 H   0  0  0  0  0  0  0  0  0  0  0  0
  151.8653  142.2228  155.9859 H   0  0  0  0  0  0  0  0  0  0  0  0
  150.2635  142.9973  159.3761 H   0  0  0  0  0  0  0  0  0  0  0  0
  149.3074  143.7627  158.1136 H   0  0  0  0  0  0  0  0  0  0  0  0
  150.3759  144.7327  159.1206 H   0  0  0  0  0  0  0  0  0  0  0  0
  152.8952  142.7885  159.0370 H   0  0  0  0  0  0  0  0  0  0  0  0
  152.8830  144.5420  158.8999 H   0  0  0  0  0  0  0  0  0  0  0  0
  153.6190  143.5738  157.6361 H   0  0  0  0  0  0  0  0  0  0  0  0
  150.4575  144.7072  156.4001 H   0  0  0  0  0  0  0  0  0  0  0  0
  150.3801  141.8003  154.3365 H   0  0  0  0  0  0  0  0  0  0  0  0
  150.2303  140.2832  155.1986 H   0  0  0  0  0  0  0  0  0  0  0  0
  147.9631  142.1192  154.2572 H   0  0  0  0  0  0  0  0  0  0  0  0
  148.3192  140.5347  153.6368 H   0  0  0  0  0  0  0  0  0  0  0  0
  147.5291  136.7333  157.6998 H   0  0  0  0  0  0  0  0  0  0  0  0
  145.6993  137.6903  151.6003 H   0  0  0  0  0  0  0  0  0  0  0  0
  146.6289  134.7489  152.8259 H   0  0  0  0  0  0  0  0  0  0  0  0
  145.3501  134.7698  153.9989 H   0  0  0  0  0  0  0  0  0  0  0  0
  144.6964  136.1222  151.4352 H   0  0  0  0  0  0  0  0  0  0  0  0
  142.7713  135.9363  152.7043 H   0  0  0  0  0  0  0  0  0  0  0  0
  142.6276  134.4364  151.8059 H   0  0  0  0  0  0  0  0  0  0  0  0
  142.9956  133.3252  153.4972 H   0  0  0  0  0  0  0  0  0  0  0  0
  146.0121  134.3242  150.4454 H   0  0  0  0  0  0  0  0  0  0  0  0
  143.0321  133.7230  150.3056 H   0  0  0  0  0  0  0  0  0  0  0  0
  143.9783  134.5690  149.0848 H   0  0  0  0  0  0  0  0  0  0  0  0
  143.6015  131.8741  148.9147 H   0  0  0  0  0  0  0  0  0  0  0  0
  145.1662  132.5734  148.4892 H   0  0  0  0  0  0  0  0  0  0  0  0
  146.1591  132.4859  152.0036 H   0  0  0  0  0  0  0  0  0  0  0  0
  144.4022  132.4201  152.1870 H   0  0  0  0  0  0  0  0  0  0  0  0
  149.4371  142.9058  156.1913 H   0  0  0  0  0  0  0  0  0  0  0  0
  1  2  1  0  0  0  0
  1 31  1  0  0  0  0
  1 32  1  0  0  0  0
  1 33  1  0  0  0  0
  2 12  1  0  0  0  0
  2  3  1  0  0  0  0
  2 34  1  0  0  0  0
  3  4  1  0  0  0  0
  3 35  1  0  0  0  0
  3 36  1  0  0  0  0
  4  5  1  0  0  0  0
  4 10  1  0  0  0  0
  4 65  1  0  0  0  0
  5  6  1  0  0  0  0
  5 37  1  0  0  0  0
  5 38  1  0  0  0  0
  6  7  1  0  0  0  0
  6  8  1  0  0  0  0
  6  9  1  0  0  0  0
  7 39  1  0  0  0  0
  7 40  1  0  0  0  0
  7 41  1  0  0  0  0
  8 42  1  0  0  0  0
  8 43  1  0  0  0  0
  8 44  1  0  0  0  0
  9 45  1  0  0  0  0
 10 11  1  0  0  0  0
 10 46  1  0  0  0  0
 10 47  1  0  0  0  0
 11 12  1  0  0  0  0
 11 48  1  0  0  0  0
 11 49  1  0  0  0  0
 12 13  1  0  0  0  0
 13 18  1  0  0  0  0
 13 14  2  0  0  0  0
 14 15  1  0  0  0  0
 15 16  2  0  0  0  0
 15 50  1  0  0  0  0
 16 17  1  0  0  0  0
 17 21  1  0  0  0  0
 17 18  2  0  0  0  0
 18 19  1  0  0  0  0
 19 20  2  0  0  0  0
 20 21  1  0  0  0  0
 20 51  1  0  0  0  0
 21 22  1  0  0  0  0
 22 23  1  0  0  0  0
 22 52  1  0  0  0  0
 22 53  1  0  0  0  0
 23 24  1  0  0  0  0
 23 26  1  0  0  0  0
 23 54  1  0  0  0  0
 24 25  1  0  0  0  0
 24 55  1  0  0  0  0
 24 56  1  0  0  0  0
 25 57  1  0  0  0  0
 26 30  1  0  0  0  0
 26 27  1  0  0  0  0
 26 58  1  0  0  0  0
 27 28  1  0  0  0  0
 27 59  1  0  0  0  0
 27 60  1  0  0  0  0
 28 29  1  0  0  0  0
 28 61  1  0  0  0  0
 28 62  1  0  0  0  0
 29 30  1  0  0  0  0
 30 63  1  0  0  0  0
 30 64  1  0  0  0  0
M  CHG  1   4   1
M  END
> <s_m_source_file>
AV-unprocessed.smi

> <i_m_source_file_index>
212

> <i_lp_mmshare_version>
43012

> <i_f3d_flags>
0

> <s_epik_input>
W0NIM11bQ0BASF0xW0NIMl1OKFtDSDJdQyhbQ0gzXSkoW0NIM10pW09IXSlbQ0gyXVtDSDJdTjFjKG5bY0hdbjIpYyhjMjMpbltjSF1uM1tDSDJdW0NASF0oW0NIMl1bT0hdKVtDQEBIXTRbQ0gyXVtDSDJdT1tDSDJdNA==

> <s_epik_cmdline>
J2VwaWtfcHl0aG9uJywgJy1waCcsICc3LjAnLCAnLXRuJywgJzgnLCAnLW1hJywgJzIwMCcsICctbWV0YWxfYmluZGluZycsICctaW1hZScsICc8aW5maWxlLm1hZT4nLCAnLW9tYWUnLCAnPG91dGZpbGUubWFlPic=

> <r_lp_tautomer_probability>
1

> <r_epik_Ionization_Penalty>
0.00182193

> <r_epik_Ionization_Penalty_Charging>
0.00173996

> <r_epik_Ionization_Penalty_Neutral>
8.19718e-05

> <r_epik_State_Penalty>
-0

> <r_epik_Charging_Adjusted_Penalty>
0.00173996

> <i_epik_Tot_Q>
1

> <i_epik_Tot_abs_Q>
1

> <r_epik_Metal_State_Penalty>
-0

> <b_epik_Metal_Only>
0

> <s_lp_Force_Field>
OPLS_2005

> <r_lp_Energy>
58.2747

> <b_lp_Chiralities_Consistent>
1

> <s_lp_Variant>
AV-unprocessed.smi:212-3

> <Gold.Version>
5.8.1

> <Gold.Id.Protein>
6NUR|6NUR_protein|mol2

> <Gold.PLP.Fitness>
46.0028

> <Gold.PLP.PLP>
-38.8455

> <Gold.PLP.part.hbond>
-3.0000

> <Gold.PLP.part.metal>
0.0000

> <Gold.PLP.part.buried>
-5.1557

> <Gold.PLP.part.nonpolar>
-32.0627

> <Gold.PLP.part.repulsive>
0.4259

> <Gold.PLP.ligand.clash>
0.0000

> <Gold.PLP.ligand.torsion>
2.4695

> <Gold.PLP.Chemscore.Hbond>
3.3913

> <Gold.PLP.Chemscore.CHOScore>
0.4108

> <Gold.PLP.Chemscore.Metal>
0.0000

> <Gold.Chemscore.Hbonds>
donor molecule, donor type, donor heavy atom, donor atom, acceptor molecule, acceptor atom, score
      L1  H     4    65       P1  8028  2.00
      L1  H     9    45       P1  8028  1.00
      L1  H    25    57       P1 10957  0.56
      L1  C    20    51       P1 10171  0.55

> <Gold.PLP.Chemscore.Internal.Correction>
0.6898

> <Gold.Rescore>
     Score         DG    S(hbond)    S(metal)    S(lipo)     H(rot)  DE(clash)    DE(int)     intcor
     14.80     -18.76       2.91        0.00     104.92       3.40       1.32       2.64       ----

> <Gold.Chemscore.Fitness>
14.8020

> <Gold.Chemscore.DG>
-18.7596

> <Gold.Chemscore.ZeroCoef>
-5.4800

> <Gold.Chemscore.Hbond>
2.9054

> <Gold.Chemscore.Metal>
0.0000

> <Gold.Chemscore.Lipo>
104.9231

> <Gold.Chemscore.Internal_Hbond>
0.0000

> <Gold.Chemscore.DEClash>
1.3209

> <Gold.Chemscore.DEInternal>
2.6367

> <Gold.Chemscore.Rot>
3.3986

> <Gold.Chemscore.Internal.Correction>
   9.000000E+99

> <Gold.Chemscore.Hbonds>
donor molecule, donor type, donor heavy atom, donor atom, acceptor molecule, acceptor atom, score
      L1  H     4    65       P1  8028  0.98
      L1  H     9    45       P1  8028  0.97
      L1  H    25    57       P1 10957  0.52

> <Gold.Chemscore.Hbond.Weighted>
-9.7041

> <Gold.Chemscore.Metal.Weighted>
-0.0000

> <Gold.Chemscore.Lipo.Weighted>
-12.2760

> <Gold.Chemscore.Internal_Hbond.Weighted>
0.0000

> <Gold.Chemscore.DEClash.Weighted>
1.3209

> <Gold.Chemscore.DEInternal.Weighted>
2.6367

> <Gold.Chemscore.Rot.Weighted>
8.7005

> <Gold.Chemscore.Internal.Correction.Weighted>
   9.000000E+99

> <Gold.Protein.RotatedTorsions>
[ 6907 6896 6895 6894 ] final    4.92 input  -60.11 | X-H torsion
[ 7974 7965 7964 7962 ] final -156.44 input  175.53 | X-H torsion
[ 8008 7997 7996 7995 ] final  104.84 input   59.86 | X-H torsion
[ 10167 10162 10161 10158 ] final -120.93 input  -65.29 | X-H torsion
[ 10718 10713 10712 10709 ] final -103.24 input   66.30 | X-H torsion
[ 10763 10752 10751 10750 ] final -135.80 input  -60.55 | X-H torsion
[ 11005 11000 10999 10996 ] final -106.49 input  -57.11 | X-H torsion

> <Gold.Protein.ActiveResidues>
 VAL166  LYS551  ARG553  GLY616  TRP617  ASP618  TYR619  PRO620  LYS621  CYS622 
 ASP623  PHE694  ASN695  SER759  ASP760  ASP761  ALA762  ILE779  LEU786  VAL792 
 PHE793  MET794  SER795  GLU796  ALA797  LYS798  CYS799  TRP800  GLU811  SER814 

> <Gold.Protein.RotatedAtoms>
  151.6491  135.1004  160.0156 H   0  0  0  0  0  0  0  0  0  0  0  0  # atno 6907 bound_to 6896
  152.4011  133.6815  159.6325 H   0  0  0  0  0  0  0  0  0  0  0  0  # atno 6908 bound_to 6896
  150.7911  133.8706  159.3299 H   0  0  0  0  0  0  0  0  0  0  0  0  # atno 6909 bound_to 6896
  144.7593  140.4109  143.5988 H   0  0  0  0  0  0  0  0  0  0  0  0  # atno 7974 bound_to 7965
  156.1608  140.3141  155.8803 H   0  0  0  0  0  0  0  0  0  0  0  0  # atno 8008 bound_to 7997
  155.3786  140.0486  157.3061 H   0  0  0  0  0  0  0  0  0  0  0  0  # atno 8009 bound_to 7997
  154.5144  140.2176  155.9104 H   0  0  0  0  0  0  0  0  0  0  0  0  # atno 8010 bound_to 7997
  140.0305  143.5253  152.2178 H   0  0  0  0  0  0  0  0  0  0  0  0  # atno 10167 bound_to 10162
  156.0258  130.5458  150.7224 H   0  0  0  0  0  0  0  0  0  0  0  0  # atno 10718 bound_to 10713
  154.8696  135.3692  154.4958 H   0  0  0  0  0  0  0  0  0  0  0  0  # atno 10763 bound_to 10752
  153.5602  135.7023  153.5556 H   0  0  0  0  0  0  0  0  0  0  0  0  # atno 10764 bound_to 10752
  153.3635  135.4040  155.1699 H   0  0  0  0  0  0  0  0  0  0  0  0  # atno 10765 bound_to 10752
  141.1002  133.8898  157.1862 H   0  0  0  0  0  0  0  0  0  0  0  0  # atno 11005 bound_to 11000
  145.6673  139.1592  143.2774 LP  0  0  0  0  0  0  0  0  0  0  0  0  # atno 17320 bound_to 7965
  146.1639  140.6748  142.9265 LP  0  0  0  0  0  0  0  0  0  0  0  0  # atno 17321 bound_to 7965
  139.6079  144.7601  151.3019 LP  0  0  0  0  0  0  0  0  0  0  0  0  # atno 17342 bound_to 10162
  140.7304  143.6881  150.7945 LP  0  0  0  0  0  0  0  0  0  0  0  0  # atno 17343 bound_to 10162
  157.4837  131.0904  151.0507 LP  0  0  0  0  0  0  0  0  0  0  0  0  # atno 17370 bound_to 10713
  157.0933  130.5951  149.5444 LP  0  0  0  0  0  0  0  0  0  0  0  0  # atno 17371 bound_to 10713
  139.9851  135.0085  156.9842 LP  0  0  0  0  0  0  0  0  0  0  0  0  # atno 17394 bound_to 11000
  140.5041  134.1067  155.7256 LP  0  0  0  0  0  0  0  0  0  0  0  0  # atno 17395 bound_to 11000

$$$$
