AV-unprocessed.smi:866|AV-procd|sdf|3992|dock5
  -GOLD-   22720 1473D 1   1.00000     0.00000
 Structure written by MMmdl.
 34 34  0  0  0  0  0  0  0  0  2 V2000
  153.4685  141.9648  161.4512 C   0  0  0  0  0  0  0  0  0  0  0  0
  152.7937  142.6483  160.2970 C   0  0  0  0  0  0  0  0  0  0  0  0
  152.2623  143.9685  160.2511 C   0  0  0  0  0  0  0  0  0  0  0  0
  151.7293  144.2675  159.0776 N   0  0  0  0  0  0  0  0  0  0  0  0
  151.8987  143.1527  158.3364 N   0  0  0  0  0  0  0  0  0  0  0  0
  151.4240  143.1220  156.9666 C   0  0  0  0  0  0  0  0  0  0  0  0
  150.4058  141.9949  156.7431 C   0  0  0  0  0  0  0  0  0  0  0  0
  149.6187  142.2315  155.5157 N   0  3  0  0  0  0  0  0  0  0  0  0
  148.4076  141.3888  155.3666 C   0  0  2  0  0  0  0  0  0  0  0  0
  147.3275  141.7931  156.3846 C   0  0  0  0  0  0  0  0  0  0  0  0
  148.7617  139.8905  155.5166 C   0  0  0  0  0  0  0  0  0  0  0  0
  149.6087  139.3088  154.3755 C   0  0  0  0  0  0  0  0  0  0  0  0
  148.9972  138.4514  153.5553 N   0  0  0  0  0  0  0  0  0  0  0  0
  150.7895  139.6206  154.2303 O   0  0  0  0  0  0  0  0  0  0  0  0
  152.5419  142.1608  159.0458 C   0  0  0  0  0  0  0  0  0  0  0  0
  153.5660  142.6250  162.3132 H   0  0  0  0  0  0  0  0  0  0  0  0
  154.4721  141.6294  161.1892 H   0  0  0  0  0  0  0  0  0  0  0  0
  152.9109  141.0878  161.7805 H   0  0  0  0  0  0  0  0  0  0  0  0
  152.2478  144.7141  161.0325 H   0  0  0  0  0  0  0  0  0  0  0  0
  150.9813  144.0913  156.7320 H   0  0  0  0  0  0  0  0  0  0  0  0
  152.2820  142.9962  156.3051 H   0  0  0  0  0  0  0  0  0  0  0  0
  150.9261  141.0396  156.6727 H   0  0  0  0  0  0  0  0  0  0  0  0
  149.7271  141.9321  157.5949 H   0  0  0  0  0  0  0  0  0  0  0  0
  149.3117  143.1937  155.5444 H   0  0  0  0  0  0  0  0  0  0  0  0
  148.0032  141.5422  154.3645 H   0  0  0  0  0  0  0  0  0  0  0  0
  146.4439  141.1615  156.2866 H   0  0  0  0  0  0  0  0  0  0  0  0
  146.9992  142.8225  156.2419 H   0  0  0  0  0  0  0  0  0  0  0  0
  147.6902  141.6966  157.4086 H   0  0  0  0  0  0  0  0  0  0  0  0
  149.2856  139.7281  156.4598 H   0  0  0  0  0  0  0  0  0  0  0  0
  147.8430  139.3045  155.5714 H   0  0  0  0  0  0  0  0  0  0  0  0
  149.5054  138.0290  152.7915 H   0  0  0  0  0  0  0  0  0  0  0  0
  148.0258  138.2195  153.7068 H   0  0  0  0  0  0  0  0  0  0  0  0
  152.7638  141.1988  158.6079 H   0  0  0  0  0  0  0  0  0  0  0  0
  150.2103  142.1076  154.7068 H   0  0  0  0  0  0  0  0  0  0  0  0
  1  2  1  0  0  0  0
  1 16  1  0  0  0  0
  1 17  1  0  0  0  0
  1 18  1  0  0  0  0
  2 15  2  0  0  0  0
  2  3  1  0  0  0  0
  3  4  2  0  0  0  0
  3 19  1  0  0  0  0
  4  5  1  0  0  0  0
  5  6  1  0  0  0  0
  5 15  1  0  0  0  0
  6  7  1  0  0  0  0
  6 20  1  0  0  0  0
  6 21  1  0  0  0  0
  7  8  1  0  0  0  0
  7 22  1  0  0  0  0
  7 23  1  0  0  0  0
  8  9  1  0  0  0  0
  8 24  1  0  0  0  0
  8 34  1  0  0  0  0
  9 10  1  0  0  0  0
  9 11  1  0  0  0  0
  9 25  1  0  0  0  0
 10 26  1  0  0  0  0
 10 27  1  0  0  0  0
 10 28  1  0  0  0  0
 11 12  1  0  0  0  0
 11 29  1  0  0  0  0
 11 30  1  0  0  0  0
 12 13  1  0  0  0  0
 12 14  2  0  0  0  0
 13 31  1  0  0  0  0
 13 32  1  0  0  0  0
 15 33  1  0  0  0  0
M  CHG  1   8   1
M  END
> <s_m_source_file>
AV-unprocessed.smi

> <i_m_source_file_index>
866

> <i_lp_mmshare_version>
43012

> <i_f3d_flags>
0

> <s_epik_input>
W0NIM11jMVtjSF1ubihbY0hdMSlbQ0gyXVtDSDJdW05IXVtDQEhdKFtDSDNdKVtDSDJdQyg9TylbTkgyXQ==

> <s_epik_cmdline>
J2VwaWtfcHl0aG9uJywgJy1waCcsICc3LjAnLCAnLXRuJywgJzgnLCAnLW1hJywgJzIwMCcsICctbWV0YWxfYmluZGluZycsICctaW1hZScsICc8aW5maWxlLm1hZT4nLCAnLW9tYWUnLCAnPG91dGZpbGUubWFlPic=

> <r_lp_tautomer_probability>
1

> <r_epik_Ionization_Penalty>
0.0061413

> <r_epik_Ionization_Penalty_Charging>
0.00613574

> <r_epik_Ionization_Penalty_Neutral>
5.56035e-06

> <r_epik_State_Penalty>
0.00452343

> <r_epik_Charging_Adjusted_Penalty>
0.0106592

> <i_epik_Tot_Q>
1

> <i_epik_Tot_abs_Q>
1

> <r_epik_Metal_State_Penalty>
-0

> <b_epik_Metal_Only>
0

> <s_lp_Force_Field>
OPLS_2005

> <r_lp_Energy>
1.4749

> <b_lp_Chiralities_Consistent>
1

> <s_lp_Variant>
AV-unprocessed.smi:866-1

> <Gold.Version>
5.8.1

> <Gold.Id.Protein>
6NUR|6NUR_protein|mol2

> <Gold.PLP.Fitness>
42.2589

> <Gold.PLP.PLP>
-32.2520

> <Gold.PLP.part.hbond>
-4.0000

> <Gold.PLP.part.metal>
0.0000

> <Gold.PLP.part.buried>
-5.2219

> <Gold.PLP.part.nonpolar>
-24.4456

> <Gold.PLP.part.repulsive>
0.4325

> <Gold.PLP.ligand.clash>
0.0000

> <Gold.PLP.ligand.torsion>
0.3239

> <Gold.PLP.Chemscore.Hbond>
3.5216

> <Gold.PLP.Chemscore.CHOScore>
0.0000

> <Gold.PLP.Chemscore.Metal>
0.0000

> <Gold.Chemscore.Hbonds>
donor molecule, donor type, donor heavy atom, donor atom, acceptor molecule, acceptor atom, score
      L1  H     8    24       P1  8028  2.00
      L1  H    13    31       P1  7948  0.48
      P1  H  7989  7998       L1    14  1.00

> <Gold.PLP.Chemscore.Internal.Correction>
0.0899

> <Gold.Rescore>
     Score         DG    S(hbond)    S(metal)    S(lipo)     H(rot)  DE(clash)    DE(int)     intcor
     16.08     -16.43       2.89        0.00      71.80       2.77       0.03       0.32       ----

> <Gold.Chemscore.Fitness>
16.0847

> <Gold.Chemscore.DG>
-16.4337

> <Gold.Chemscore.ZeroCoef>
-5.4800

> <Gold.Chemscore.Hbond>
2.8904

> <Gold.Chemscore.Metal>
0.0000

> <Gold.Chemscore.Lipo>
71.8049

> <Gold.Chemscore.Internal_Hbond>
0.0000

> <Gold.Chemscore.DEClash>
0.0336

> <Gold.Chemscore.DEInternal>
0.3154

> <Gold.Chemscore.Rot>
2.7740

> <Gold.Chemscore.Internal.Correction>
   9.000000E+99

> <Gold.Chemscore.Hbonds>
donor molecule, donor type, donor heavy atom, donor atom, acceptor molecule, acceptor atom, score
      L1  H     8    24       P1  8028  0.98
      L1  H    13    31       P1  7948  0.37
      P1  H  7989  7998       L1    14  1.00

> <Gold.Chemscore.Hbond.Weighted>
-9.6540

> <Gold.Chemscore.Metal.Weighted>
-0.0000

> <Gold.Chemscore.Lipo.Weighted>
-8.4012

> <Gold.Chemscore.Internal_Hbond.Weighted>
0.0000

> <Gold.Chemscore.DEClash.Weighted>
0.0336

> <Gold.Chemscore.DEInternal.Weighted>
0.3154

> <Gold.Chemscore.Rot.Weighted>
7.1014

> <Gold.Chemscore.Internal.Correction.Weighted>
   9.000000E+99

> <Gold.Protein.RotatedTorsions>
[ 6907 6896 6895 6894 ] final   22.53 input  -60.11 | X-H torsion
[ 7974 7965 7964 7962 ] final   40.13 input  175.53 | X-H torsion
[ 8008 7997 7996 7995 ] final  115.64 input   59.86 | X-H torsion
[ 10167 10162 10161 10158 ] final  115.10 input  -65.29 | X-H torsion
[ 10718 10713 10712 10709 ] final   13.02 input   66.30 | X-H torsion
[ 10763 10752 10751 10750 ] final  -65.90 input  -60.55 | X-H torsion
[ 11005 11000 10999 10996 ] final -179.91 input  -57.11 | X-H torsion

> <Gold.Protein.ActiveResidues>
 VAL166  LYS551  ARG553  GLY616  TRP617  ASP618  TYR619  PRO620  LYS621  CYS622 
 ASP623  PHE694  ASN695  SER759  ASP760  ASP761  ALA762  ILE779  LEU786  VAL792 
 PHE793  MET794  SER795  GLU796  ALA797  LYS798  CYS799  TRP800  GLU811  SER814 

> <Gold.Protein.RotatedAtoms>
  151.9285  135.0267  160.0527 H   0  0  0  0  0  0  0  0  0  0  0  0  # atno 6907 bound_to 6896
  152.2138  133.4927  159.5133 H   0  0  0  0  0  0  0  0  0  0  0  0  # atno 6908 bound_to 6896
  150.6983  134.1349  159.4126 H   0  0  0  0  0  0  0  0  0  0  0  0  # atno 6909 bound_to 6896
  146.0930  139.5570  142.9464 H   0  0  0  0  0  0  0  0  0  0  0  0  # atno 7974 bound_to 7965
  156.2393  140.2934  156.0400 H   0  0  0  0  0  0  0  0  0  0  0  0  # atno 8008 bound_to 7997
  155.1998  140.0409  157.2932 H   0  0  0  0  0  0  0  0  0  0  0  0  # atno 8009 bound_to 7997
  154.6138  140.2458  155.7642 H   0  0  0  0  0  0  0  0  0  0  0  0  # atno 8010 bound_to 7997
  139.6341  144.7118  151.2371 H   0  0  0  0  0  0  0  0  0  0  0  0  # atno 10167 bound_to 10162
  157.0186  130.6146  149.5718 H   0  0  0  0  0  0  0  0  0  0  0  0  # atno 10718 bound_to 10713
  154.3518  135.6135  153.5646 H   0  0  0  0  0  0  0  0  0  0  0  0  # atno 10763 bound_to 10752
  152.9798  135.5794  154.4734 H   0  0  0  0  0  0  0  0  0  0  0  0  # atno 10764 bound_to 10752
  154.4457  135.2851  155.1794 H   0  0  0  0  0  0  0  0  0  0  0  0  # atno 10765 bound_to 10752
  140.4134  134.6671  157.4626 H   0  0  0  0  0  0  0  0  0  0  0  0  # atno 11005 bound_to 11000
  145.6003  141.0356  143.2022 LP  0  0  0  0  0  0  0  0  0  0  0  0  # atno 17320 bound_to 7965
  144.7374  139.7547  143.7324 LP  0  0  0  0  0  0  0  0  0  0  0  0  # atno 17321 bound_to 7965
  140.7455  143.6427  150.8320 LP  0  0  0  0  0  0  0  0  0  0  0  0  # atno 17342 bound_to 10162
  140.0056  143.5697  152.2859 LP  0  0  0  0  0  0  0  0  0  0  0  0  # atno 17343 bound_to 10162
  156.0110  130.5201  150.7988 LP  0  0  0  0  0  0  0  0  0  0  0  0  # atno 17370 bound_to 10713
  157.5266  131.0934  151.0009 LP  0  0  0  0  0  0  0  0  0  0  0  0  # atno 17371 bound_to 10713
  140.0251  134.6489  155.9184 LP  0  0  0  0  0  0  0  0  0  0  0  0  # atno 17394 bound_to 11000
  141.1812  133.6547  156.5028 LP  0  0  0  0  0  0  0  0  0  0  0  0  # atno 17395 bound_to 11000

$$$$
