AV-unprocessed.smi:548|AV-procd|sdf|2891|dock10
  -GOLD-   2262023383D 1   1.00000     0.00000
 Structure written by MMmdl.
 24 24  0  0  0  0  0  0  0  0  2 V2000
  150.8589  137.6902  158.5991 C   0  0  0  0  0  0  0  0  0  0  0  0
  152.1848  138.4252  158.2825 C   0  0  0  0  0  0  0  0  0  0  0  0
  153.1989  138.1348  159.4162 C   0  0  0  0  0  0  0  0  0  0  0  0
  152.7558  137.8741  156.9453 C   0  0  0  0  0  0  0  0  0  0  0  0
  152.9907  138.6912  156.0265 O   0  0  0  0  0  0  0  0  0  0  0  0
  152.9184  136.6371  156.8421 O   0  5  0  0  0  0  0  0  0  0  0  0
  151.9311  139.9476  158.1822 C   0  0  0  0  0  0  0  0  0  0  0  0
  152.5314  140.9191  159.0270 C   0  0  0  0  0  0  0  0  0  0  0  0
  152.2268  142.2819  158.8448 C   0  0  0  0  0  0  0  0  0  0  0  0
  151.3288  142.6396  157.8222 C   0  0  0  0  0  0  0  0  0  0  0  0
  151.0036  143.9773  157.6120 N   0  0  0  0  0  0  0  0  0  0  0  0
  150.7462  141.7377  157.0086 N   0  0  0  0  0  0  0  0  0  0  0  0
  151.0446  140.4337  157.1912 C   0  0  0  0  0  0  0  0  0  0  0  0
  150.0808  137.9275  157.8722 H   0  0  0  0  0  0  0  0  0  0  0  0
  150.4708  137.9608  159.5811 H   0  0  0  0  0  0  0  0  0  0  0  0
  150.9928  136.6074  158.5994 H   0  0  0  0  0  0  0  0  0  0  0  0
  154.1258  138.6948  159.2834 H   0  0  0  0  0  0  0  0  0  0  0  0
  153.4553  137.0752  159.4609 H   0  0  0  0  0  0  0  0  0  0  0  0
  152.8005  138.4051  160.3940 H   0  0  0  0  0  0  0  0  0  0  0  0
  153.2214  140.6587  159.8149 H   0  0  0  0  0  0  0  0  0  0  0  0
  152.6760  143.0314  159.4796 H   0  0  0  0  0  0  0  0  0  0  0  0
  151.3987  144.7122  158.1803 H   0  0  0  0  0  0  0  0  0  0  0  0
  150.3628  144.2522  156.8817 H   0  0  0  0  0  0  0  0  0  0  0  0
  150.5505  139.7544  156.5130 H   0  0  0  0  0  0  0  0  0  0  0  0
  1  2  1  0  0  0  0
  1 14  1  0  0  0  0
  1 15  1  0  0  0  0
  1 16  1  0  0  0  0
  2  3  1  0  0  0  0
  2  4  1  0  0  0  0
  2  7  1  0  0  0  0
  3 17  1  0  0  0  0
  3 18  1  0  0  0  0
  3 19  1  0  0  0  0
  4  5  2  0  0  0  0
  4  6  1  0  0  0  0
  7 13  1  0  0  0  0
  7  8  2  0  0  0  0
  8  9  1  0  0  0  0
  8 20  1  0  0  0  0
  9 10  2  0  0  0  0
  9 21  1  0  0  0  0
 10 11  1  0  0  0  0
 10 12  1  0  0  0  0
 11 22  1  0  0  0  0
 11 23  1  0  0  0  0
 12 13  2  0  0  0  0
 13 24  1  0  0  0  0
M  CHG  1   6  -1
M  END
> <s_m_source_file>
AV-unprocessed.smi

> <i_m_source_file_index>
548

> <i_lp_mmshare_version>
43012

> <i_f3d_flags>
0

> <s_epik_input>
Tz1DKFtPSF0pQyhbQ0gzXSkoW0NIM10pYzFbY0hdW2NIXWMoW05IMl0pbltjSF0x

> <s_epik_cmdline>
J2VwaWtfcHl0aG9uJywgJy1waCcsICc3LjAnLCAnLXRuJywgJzgnLCAnLW1hJywgJzIwMCcsICctbWV0YWxfYmluZGluZycsICctaW1hZScsICc8aW5maWxlLm1hZT4nLCAnLW9tYWUnLCAnPG91dGZpbGUubWFlPic=

> <r_lp_tautomer_probability>
1

> <r_epik_Ionization_Penalty>
1.52711

> <r_epik_Ionization_Penalty_Charging>
0.000624596

> <r_epik_Ionization_Penalty_Neutral>
1.52649

> <r_epik_State_Penalty>
1.61852

> <r_epik_Charging_Adjusted_Penalty>
1.61914

> <i_epik_Tot_Q>
-1

> <i_epik_Tot_abs_Q>
1

> <r_epik_Metal_State_Penalty>
0.00844734

> <b_epik_Metal_Only>
0

> <s_lp_Force_Field>
OPLS_2005

> <r_lp_Energy>
9.30736

> <b_lp_Chiralities_Consistent>
1

> <s_lp_Variant>
AV-unprocessed.smi:548-2

> <Gold.Version>
5.8.1

> <Gold.Id.Protein>
6NUR|6NUR_protein|mol2

> <Gold.PLP.Fitness>
33.9679

> <Gold.PLP.PLP>
-19.0819

> <Gold.PLP.part.hbond>
-3.0000

> <Gold.PLP.part.metal>
0.0000

> <Gold.PLP.part.buried>
-4.5208

> <Gold.PLP.part.nonpolar>
-12.2009

> <Gold.PLP.part.repulsive>
0.0757

> <Gold.PLP.ligand.clash>
0.0000

> <Gold.PLP.ligand.torsion>
0.0613

> <Gold.PLP.Chemscore.Hbond>
5.0000

> <Gold.PLP.Chemscore.CHOScore>
0.0000

> <Gold.PLP.Chemscore.Metal>
0.0000

> <Gold.Chemscore.Hbonds>
donor molecule, donor type, donor heavy atom, donor atom, acceptor molecule, acceptor atom, score
      L1  H    11    23       P1  8028  1.00
      P1  H  7997  8009       L1     5  2.00
      P1  H 10752 10763       L1     6  1.82

> <Gold.PLP.Chemscore.Internal.Correction>
0.0087

> <Gold.Rescore>
     Score         DG    S(hbond)    S(metal)    S(lipo)     H(rot)  DE(clash)    DE(int)     intcor
     14.53     -15.92       2.86        0.00      39.92       1.48       0.00       1.39       ----

> <Gold.Chemscore.Fitness>
14.5344

> <Gold.Chemscore.DG>
-15.9220

> <Gold.Chemscore.ZeroCoef>
-5.4800

> <Gold.Chemscore.Hbond>
2.8592

> <Gold.Chemscore.Metal>
0.0000

> <Gold.Chemscore.Lipo>
39.9248

> <Gold.Chemscore.Internal_Hbond>
0.0000

> <Gold.Chemscore.DEClash>
0.0000

> <Gold.Chemscore.DEInternal>
1.3876

> <Gold.Chemscore.Rot>
1.4762

> <Gold.Chemscore.Internal.Correction>
   9.000000E+99

> <Gold.Chemscore.Hbonds>
donor molecule, donor type, donor heavy atom, donor atom, acceptor molecule, acceptor atom, score
      L1  H    11    23       P1  8028  0.95
      P1  H  7997  8009       L1     5  0.94
      P1  H 10752 10763       L1     6  0.83

> <Gold.Chemscore.Hbond.Weighted>
-9.5499

> <Gold.Chemscore.Metal.Weighted>
-0.0000

> <Gold.Chemscore.Lipo.Weighted>
-4.6712

> <Gold.Chemscore.Internal_Hbond.Weighted>
0.0000

> <Gold.Chemscore.DEClash.Weighted>
0.0000

> <Gold.Chemscore.DEInternal.Weighted>
1.3876

> <Gold.Chemscore.Rot.Weighted>
3.7790

> <Gold.Chemscore.Internal.Correction.Weighted>
   9.000000E+99

> <Gold.Protein.RotatedTorsions>
[ 6907 6896 6895 6894 ] final  166.34 input  -60.11 | X-H torsion
[ 7974 7965 7964 7962 ] final  172.17 input  175.53 | X-H torsion
[ 8008 7997 7996 7995 ] final -153.84 input   59.86 | X-H torsion
[ 10167 10162 10161 10158 ] final   15.62 input  -65.29 | X-H torsion
[ 10718 10713 10712 10709 ] final -108.18 input   66.30 | X-H torsion
[ 10763 10752 10751 10750 ] final  123.23 input  -60.55 | X-H torsion
[ 11005 11000 10999 10996 ] final   19.25 input  -57.11 | X-H torsion

> <Gold.Protein.ActiveResidues>
 VAL166  LYS551  ARG553  GLY616  TRP617  ASP618  TYR619  PRO620  LYS621  CYS622 
 ASP623  PHE694  ASN695  SER759  ASP760  ASP761  ALA762  ILE779  LEU786  VAL792 
 PHE793  MET794  SER795  GLU796  ALA797  LYS798  CYS799  TRP800  GLU811  SER814 

> <Gold.Protein.RotatedAtoms>
  151.8804  133.3494  159.3764 H   0  0  0  0  0  0  0  0  0  0  0  0  # atno 6907 bound_to 6896
  150.7129  134.5024  159.5577 H   0  0  0  0  0  0  0  0  0  0  0  0  # atno 6908 bound_to 6896
  152.2575  134.8069  160.0487 H   0  0  0  0  0  0  0  0  0  0  0  0  # atno 6909 bound_to 6896
  144.7275  139.9459  143.6430 H   0  0  0  0  0  0  0  0  0  0  0  0  # atno 7974 bound_to 7965
  155.6771  140.0740  157.2499 H   0  0  0  0  0  0  0  0  0  0  0  0  # atno 8008 bound_to 7997
  154.4112  140.1688  156.1993 H   0  0  0  0  0  0  0  0  0  0  0  0  # atno 8009 bound_to 7997
  155.9567  140.3373  155.6458 H   0  0  0  0  0  0  0  0  0  0  0  0  # atno 8010 bound_to 7997
  140.5855  143.8899  150.6826 H   0  0  0  0  0  0  0  0  0  0  0  0  # atno 10167 bound_to 10162
  156.0473  130.5700  150.7925 H   0  0  0  0  0  0  0  0  0  0  0  0  # atno 10718 bound_to 10713
  153.6423  135.3377  155.3075 H   0  0  0  0  0  0  0  0  0  0  0  0  # atno 10763 bound_to 10752
  154.8556  135.4321  154.1991 H   0  0  0  0  0  0  0  0  0  0  0  0  # atno 10764 bound_to 10752
  153.2913  135.7017  153.7364 H   0  0  0  0  0  0  0  0  0  0  0  0  # atno 10765 bound_to 10752
  140.4158  134.1571  155.7670 H   0  0  0  0  0  0  0  0  0  0  0  0  # atno 11005 bound_to 11000
  146.0748  139.3737  143.0500 LP  0  0  0  0  0  0  0  0  0  0  0  0  # atno 17320 bound_to 7965
  145.7919  140.9810  143.1044 LP  0  0  0  0  0  0  0  0  0  0  0  0  # atno 17321 bound_to 7965
  140.2408  143.3665  152.1488 LP  0  0  0  0  0  0  0  0  0  0  0  0  # atno 17342 bound_to 10162
  139.5195  144.7020  151.5466 LP  0  0  0  0  0  0  0  0  0  0  0  0  # atno 17343 bound_to 10162
  157.5362  131.0939  150.9890 LP  0  0  0  0  0  0  0  0  0  0  0  0  # atno 17370 bound_to 10713
  157.0184  130.5664  149.5328 LP  0  0  0  0  0  0  0  0  0  0  0  0  # atno 17371 bound_to 10713
  141.1803  133.8427  157.1279 LP  0  0  0  0  0  0  0  0  0  0  0  0  # atno 17394 bound_to 11000
  140.0235  134.9935  157.0639 LP  0  0  0  0  0  0  0  0  0  0  0  0  # atno 17395 bound_to 11000

$$$$
