AV-unprocessed.smi:1964|AV-procd|sdf|7930|dock6
  -GOLD-   2272010103D 1   1.00000     0.00000
 Structure written by MMmdl.
 46 48  0  0  0  0  0  0  0  0  1 V2000
  151.1634  140.2548  158.1270 C   0  0  0  0  0  0  0  0  0  0  0  0
  151.7197  139.3072  157.0498 C   0  0  2  0  0  0  0  0  0  0  0  0
  151.1690  139.6568  155.6517 C   0  0  0  0  0  0  0  0  0  0  0  0
  151.7727  138.7541  154.5639 C   0  0  0  0  0  0  0  0  0  0  0  0
  151.5467  137.2686  154.8814 C   0  0  0  0  0  0  0  0  0  0  0  0
  152.0897  136.9070  156.2749 C   0  0  0  0  0  0  0  0  0  0  0  0
  151.5056  137.8073  157.3823 C   0  0  2  0  0  0  0  0  0  0  0  0
  150.0902  137.4912  157.5833 N   0  0  0  0  0  0  0  0  0  0  0  0
  149.5350  137.0233  158.7117 C   0  0  0  0  0  0  0  0  0  0  0  0
  150.1785  136.7725  159.7317 O   0  0  0  0  0  0  0  0  0  0  0  0
  148.0149  136.8097  158.6687 C   0  0  0  0  0  0  0  0  0  0  0  0
  147.4985  136.0821  159.8483 N   0  0  0  0  0  0  0  0  0  0  0  0
  147.8661  134.7221  160.0139 C   0  0  0  0  0  0  0  0  0  0  0  0
  148.6190  134.1663  159.2118 O   0  0  0  0  0  0  0  0  0  0  0  0
  147.2822  134.0490  161.1714 C   0  0  0  0  0  0  0  0  0  0  0  0
  147.6007  132.6715  161.3523 C   0  0  0  0  0  0  0  0  0  0  0  0
  147.8771  131.5592  161.5144 N   0  0  0  0  0  0  0  0  0  0  0  0
  146.4714  134.7096  162.0233 C   0  0  0  0  0  0  0  0  0  0  0  0
  146.1590  136.0423  161.8666 N   0  0  0  0  0  0  0  0  0  0  0  0
  145.1750  136.6823  162.6933 C   0  0  0  0  0  0  0  0  0  0  0  0
  143.8044  136.0595  162.8747 C   0  0  0  0  0  0  0  0  0  0  0  0
  143.9617  137.3064  162.0392 C   0  0  0  0  0  0  0  0  0  0  0  0
  146.6245  136.7525  160.7381 C   0  0  0  0  0  0  0  0  0  0  0  0
  146.2731  137.9158  160.5270 O   0  0  0  0  0  0  0  0  0  0  0  0
  150.0751  140.2124  158.1817 H   0  0  0  0  0  0  0  0  0  0  0  0
  151.4397  141.2882  157.9175 H   0  0  0  0  0  0  0  0  0  0  0  0
  151.5568  140.0030  159.1122 H   0  0  0  0  0  0  0  0  0  0  0  0
  152.7977  139.4729  157.0197 H   0  0  0  0  0  0  0  0  0  0  0  0
  150.0824  139.5616  155.6442 H   0  0  0  0  0  0  0  0  0  0  0  0
  151.3856  140.6995  155.4172 H   0  0  0  0  0  0  0  0  0  0  0  0
  151.3364  138.9978  153.5947 H   0  0  0  0  0  0  0  0  0  0  0  0
  152.8423  138.9503  154.4789 H   0  0  0  0  0  0  0  0  0  0  0  0
  150.4814  137.0408  154.8283 H   0  0  0  0  0  0  0  0  0  0  0  0
  152.0298  136.6507  154.1240 H   0  0  0  0  0  0  0  0  0  0  0  0
  151.8858  135.8582  156.4944 H   0  0  0  0  0  0  0  0  0  0  0  0
  153.1758  137.0079  156.2694 H   0  0  0  0  0  0  0  0  0  0  0  0
  152.0548  137.5828  158.2984 H   0  0  0  0  0  0  0  0  0  0  0  0
  149.4784  137.6627  156.7984 H   0  0  0  0  0  0  0  0  0  0  0  0
  147.5181  137.7773  158.5758 H   0  0  0  0  0  0  0  0  0  0  0  0
  147.7701  136.2964  157.7379 H   0  0  0  0  0  0  0  0  0  0  0  0
  146.0532  134.1767  162.8654 H   0  0  0  0  0  0  0  0  0  0  0  0
  145.5712  137.2122  163.5580 H   0  0  0  0  0  0  0  0  0  0  0  0
  143.5842  135.1335  162.3467 H   0  0  0  0  0  0  0  0  0  0  0  0
  143.3335  136.1620  163.8501 H   0  0  0  0  0  0  0  0  0  0  0  0
  143.5938  138.2417  162.4560 H   0  0  0  0  0  0  0  0  0  0  0  0
  143.8475  137.2005  160.9620 H   0  0  0  0  0  0  0  0  0  0  0  0
  1  2  1  0  0  0  0
  1 25  1  0  0  0  0
  1 26  1  0  0  0  0
  1 27  1  0  0  0  0
  2  7  1  0  0  0  0
  2  3  1  0  0  0  0
  2 28  1  0  0  0  0
  3  4  1  0  0  0  0
  3 29  1  0  0  0  0
  3 30  1  0  0  0  0
  4  5  1  0  0  0  0
  4 31  1  0  0  0  0
  4 32  1  0  0  0  0
  5  6  1  0  0  0  0
  5 33  1  0  0  0  0
  5 34  1  0  0  0  0
  6  7  1  0  0  0  0
  6 35  1  0  0  0  0
  6 36  1  0  0  0  0
  7  8  1  0  0  0  0
  7 37  1  0  0  0  0
  8  9  1  0  0  0  0
  8 38  1  0  0  0  0
  9 10  2  0  0  0  0
  9 11  1  0  0  0  0
 11 12  1  0  0  0  0
 11 39  1  0  0  0  0
 11 40  1  0  0  0  0
 12 23  1  0  0  0  0
 12 13  1  0  0  0  0
 13 14  2  0  0  0  0
 13 15  1  0  0  0  0
 15 16  1  0  0  0  0
 15 18  2  0  0  0  0
 16 17  3  0  0  0  0
 18 19  1  0  0  0  0
 18 41  1  0  0  0  0
 19 20  1  0  0  0  0
 19 23  1  0  0  0  0
 20 22  1  0  0  0  0
 20 21  1  0  0  0  0
 20 42  1  0  0  0  0
 21 22  1  0  0  0  0
 21 43  1  0  0  0  0
 21 44  1  0  0  0  0
 22 45  1  0  0  0  0
 22 46  1  0  0  0  0
 23 24  2  0  0  0  0
M  END
> <s_m_source_file>
AV-unprocessed.smi

> <i_m_source_file_index>
1964

> <i_lp_mmshare_version>
43012

> <i_f3d_flags>
0

> <s_epik_input>
W0NIM11bQ0BASF0xW0NIMl1bQ0gyXVtDSDJdW0NIMl1bQ0BIXTFbTkhdQyg9TylbQ0gyXW4yYyg9TyljKEMjTilbY0hdbihjMj1PKVtDSF0zW0NIMl1bQ0gyXTM=

> <s_epik_cmdline>
J2VwaWtfcHl0aG9uJywgJy1waCcsICc3LjAnLCAnLXRuJywgJzgnLCAnLW1hJywgJzIwMCcsICctbWV0YWxfYmluZGluZycsICctaW1hZScsICc8aW5maWxlLm1hZT4nLCAnLW9tYWUnLCAnPG91dGZpbGUubWFlPic=

> <r_lp_tautomer_probability>
1

> <r_epik_Ionization_Penalty>
1.91372e-08

> <r_epik_Ionization_Penalty_Charging>
9.0283e-11

> <r_epik_Ionization_Penalty_Neutral>
1.90469e-08

> <r_epik_State_Penalty>
-0

> <r_epik_Charging_Adjusted_Penalty>
9.0283e-11

> <i_epik_Tot_Q>
0

> <i_epik_Tot_abs_Q>
0

> <r_epik_Metal_State_Penalty>
-0

> <b_epik_Metal_Only>
0

> <s_lp_Force_Field>
OPLS_2005

> <r_lp_Energy>
35.1398

> <b_lp_Chiralities_Consistent>
1

> <s_lp_Variant>
AV-unprocessed.smi:1964-3

> <Gold.Version>
5.8.1

> <Gold.Id.Protein>
6NUR|6NUR_protein|mol2

> <Gold.PLP.Fitness>
42.1820

> <Gold.PLP.PLP>
-36.4575

> <Gold.PLP.part.hbond>
-3.1783

> <Gold.PLP.part.metal>
0.0000

> <Gold.PLP.part.buried>
-5.2691

> <Gold.PLP.part.nonpolar>
-28.3699

> <Gold.PLP.part.repulsive>
0.0549

> <Gold.PLP.ligand.clash>
0.0000

> <Gold.PLP.ligand.torsion>
0.2367

> <Gold.PLP.Chemscore.Hbond>
1.9920

> <Gold.PLP.Chemscore.CHOScore>
0.0000

> <Gold.PLP.Chemscore.Metal>
0.0000

> <Gold.Chemscore.Hbonds>
donor molecule, donor type, donor heavy atom, donor atom, acceptor molecule, acceptor atom, score
      P1  H  6896  6907       L1    10  0.02
      P1  H  6896  6909       L1    14  1.00
      P1  H  6934  6947       L1    24  0.84

> <Gold.PLP.Chemscore.Internal.Correction>
0.2219

> <Gold.Rescore>
     Score         DG    S(hbond)    S(metal)    S(lipo)     H(rot)  DE(clash)    DE(int)     intcor
     16.63     -18.48       2.62        0.00      73.61       1.70       0.13       1.71       ----

> <Gold.Chemscore.Fitness>
16.6341

> <Gold.Chemscore.DG>
-18.4752

> <Gold.Chemscore.ZeroCoef>
-5.4800

> <Gold.Chemscore.Hbond>
2.6181

> <Gold.Chemscore.Metal>
0.0000

> <Gold.Chemscore.Lipo>
73.6120

> <Gold.Chemscore.Internal_Hbond>
0.0000

> <Gold.Chemscore.DEClash>
0.1267

> <Gold.Chemscore.DEInternal>
1.7144

> <Gold.Chemscore.Rot>
1.7038

> <Gold.Chemscore.Internal.Correction>
   9.000000E+99

> <Gold.Chemscore.Hbonds>
donor molecule, donor type, donor heavy atom, donor atom, acceptor molecule, acceptor atom, score
      P1  H  6896  6907       L1    10  0.03
      P1  H  6896  6909       L1    14  0.89
      P1  H  6934  6947       L1    24  0.80

> <Gold.Chemscore.Hbond.Weighted>
-8.7444

> <Gold.Chemscore.Metal.Weighted>
-0.0000

> <Gold.Chemscore.Lipo.Weighted>
-8.6126

> <Gold.Chemscore.Internal_Hbond.Weighted>
0.0000

> <Gold.Chemscore.DEClash.Weighted>
0.1267

> <Gold.Chemscore.DEInternal.Weighted>
1.7144

> <Gold.Chemscore.Rot.Weighted>
4.3618

> <Gold.Chemscore.Internal.Correction.Weighted>
   9.000000E+99

> <Gold.Protein.RotatedTorsions>
[ 6907 6896 6895 6894 ] final   20.77 input  -60.11 | X-H torsion
[ 7974 7965 7964 7962 ] final   31.08 input  175.53 | X-H torsion
[ 8008 7997 7996 7995 ] final  -56.75 input   59.86 | X-H torsion
[ 10167 10162 10161 10158 ] final  -71.66 input  -65.29 | X-H torsion
[ 10718 10713 10712 10709 ] final  125.17 input   66.30 | X-H torsion
[ 10763 10752 10751 10750 ] final   -7.84 input  -60.55 | X-H torsion
[ 11005 11000 10999 10996 ] final   41.29 input  -57.11 | X-H torsion

> <Gold.Protein.ActiveResidues>
 VAL166  LYS551  ARG553  GLY616  TRP617  ASP618  TYR619  PRO620  LYS621  CYS622 
 ASP623  PHE694  ASN695  SER759  ASP760  ASP761  ALA762  ILE779  LEU786  VAL792 
 PHE793  MET794  SER795  GLU796  ALA797  LYS798  CYS799  TRP800  GLU811  SER814 

> <Gold.Protein.RotatedAtoms>
  151.9015  135.0376  160.0506 H   0  0  0  0  0  0  0  0  0  0  0  0  # atno 6907 bound_to 6896
  152.2354  133.5087  159.5248 H   0  0  0  0  0  0  0  0  0  0  0  0  # atno 6908 bound_to 6896
  150.7037  134.1077  159.4031 H   0  0  0  0  0  0  0  0  0  0  0  0  # atno 6909 bound_to 6896
  146.1572  139.6704  142.9058 H   0  0  0  0  0  0  0  0  0  0  0  0  # atno 7974 bound_to 7965
  154.4242  140.1122  156.5688 H   0  0  0  0  0  0  0  0  0  0  0  0  # atno 8008 bound_to 7997
  155.6234  140.3495  155.4640 H   0  0  0  0  0  0  0  0  0  0  0  0  # atno 8009 bound_to 7997
  156.0006  140.1198  157.0541 H   0  0  0  0  0  0  0  0  0  0  0  0  # atno 8010 bound_to 7997
  140.5255  143.2327  151.7355 H   0  0  0  0  0  0  0  0  0  0  0  0  # atno 10167 bound_to 10162
  157.5525  131.1093  150.8678 H   0  0  0  0  0  0  0  0  0  0  0  0  # atno 10718 bound_to 10713
  153.4321  135.7012  153.6224 H   0  0  0  0  0  0  0  0  0  0  0  0  # atno 10763 bound_to 10752
  153.4635  135.3731  155.2351 H   0  0  0  0  0  0  0  0  0  0  0  0  # atno 10764 bound_to 10752
  154.8726  135.4025  154.3706 H   0  0  0  0  0  0  0  0  0  0  0  0  # atno 10765 bound_to 10752
  140.1848  134.4059  155.8179 H   0  0  0  0  0  0  0  0  0  0  0  0  # atno 11005 bound_to 11000
  145.4678  141.0435  143.2715 LP  0  0  0  0  0  0  0  0  0  0  0  0  # atno 17320 bound_to 7965
  144.7979  139.6198  143.7084 LP  0  0  0  0  0  0  0  0  0  0  0  0  # atno 17321 bound_to 7965
  139.4937  144.4192  151.9997 LP  0  0  0  0  0  0  0  0  0  0  0  0  # atno 17342 bound_to 10162
  140.3291  144.3338  150.5991 LP  0  0  0  0  0  0  0  0  0  0  0  0  # atno 17343 bound_to 10162
  156.9199  130.5311  149.5279 LP  0  0  0  0  0  0  0  0  0  0  0  0  # atno 17370 bound_to 10713
  156.0589  130.5645  150.9151 LP  0  0  0  0  0  0  0  0  0  0  0  0  # atno 17371 bound_to 10713
  141.2224  133.7018  156.7994 LP  0  0  0  0  0  0  0  0  0  0  0  0  # atno 17394 bound_to 11000
  140.2226  134.8746  157.3393 LP  0  0  0  0  0  0  0  0  0  0  0  0  # atno 17395 bound_to 11000

$$$$
