AV-unprocessed.smi:3050|AV-procd|sdf|11631|dock1
  -GOLD-   2272017 23D 1   1.00000     0.00000
 Structure written by MMmdl.
 45 46  0  0  0  0  0  0  0  0  1 V2000
  151.7098  137.8436  153.9261 C   0  0  0  0  0  0  0  0  0  0  0  0
  150.4538  137.8929  154.8053 C   0  0  0  0  0  0  0  0  0  0  0  0
  150.3569  139.1866  155.6358 C   0  0  2  0  0  0  0  0  0  0  0  0
  150.1946  140.2762  154.7282 O   0  0  0  0  0  0  0  0  0  0  0  0
  149.4244  141.3809  155.1932 C   0  0  0  0  0  0  0  0  0  0  0  0
  148.2241  140.8848  155.9968 C   0  0  0  0  0  0  0  0  0  0  0  0
  147.2269  142.0461  155.9544 C   0  0  0  0  0  0  0  0  0  0  0  0
  147.5327  142.8209  154.6627 C   0  0  0  0  0  0  0  0  0  0  0  0
  148.7737  142.1619  154.0482 C   0  0  0  0  0  0  0  0  0  0  0  0
  151.6094  139.3886  156.5046 C   0  0  0  0  0  0  0  0  0  0  0  0
  152.7090  139.5644  155.9794 O   0  0  0  0  0  0  0  0  0  0  0  0
  151.4218  139.3758  157.8334 N   0  0  0  0  0  0  0  0  0  0  0  0
  152.4684  139.5555  158.8322 C   0  0  0  0  0  0  0  0  0  0  0  0
  153.0330  140.9850  158.8145 C   0  0  0  0  0  0  0  0  0  0  0  0
  153.8373  141.2741  160.0504 C   0  0  0  0  0  0  0  0  0  0  0  0
  154.9769  140.5704  160.5345 C   0  0  0  0  0  0  0  0  0  0  0  0
  155.4559  141.0783  161.6584 N   0  0  0  0  0  0  0  0  0  0  0  0
  154.6427  142.1196  161.9298 N   0  0  0  0  0  0  0  0  0  0  0  0
  154.8791  142.9197  163.1123 C   0  0  0  0  0  0  0  0  0  0  0  0
  153.6576  142.2625  160.9765 C   0  0  0  0  0  0  0  0  0  0  0  0
  151.7400  136.9222  153.3444 H   0  0  0  0  0  0  0  0  0  0  0  0
  152.6169  137.8843  154.5297 H   0  0  0  0  0  0  0  0  0  0  0  0
  151.7342  138.6797  153.2269 H   0  0  0  0  0  0  0  0  0  0  0  0
  149.5767  137.8011  154.1630 H   0  0  0  0  0  0  0  0  0  0  0  0
  150.4434  137.0237  155.4647 H   0  0  0  0  0  0  0  0  0  0  0  0
  149.4770  139.1186  156.2790 H   0  0  0  0  0  0  0  0  0  0  0  0
  150.0090  142.0536  155.8239 H   0  0  0  0  0  0  0  0  0  0  0  0
  147.7870  140.0135  155.5065 H   0  0  0  0  0  0  0  0  0  0  0  0
  148.4905  140.5939  157.0134 H   0  0  0  0  0  0  0  0  0  0  0  0
  146.1956  141.6939  155.9897 H   0  0  0  0  0  0  0  0  0  0  0  0
  147.3798  142.6970  156.8161 H   0  0  0  0  0  0  0  0  0  0  0  0
  146.6928  142.7944  153.9676 H   0  0  0  0  0  0  0  0  0  0  0  0
  147.7306  143.8684  154.8944 H   0  0  0  0  0  0  0  0  0  0  0  0
  149.4470  142.8880  153.5946 H   0  0  0  0  0  0  0  0  0  0  0  0
  148.4638  141.4688  153.2649 H   0  0  0  0  0  0  0  0  0  0  0  0
  150.4836  139.2299  158.1769 H   0  0  0  0  0  0  0  0  0  0  0  0
  152.0372  139.3395  159.8101 H   0  0  0  0  0  0  0  0  0  0  0  0
  153.2652  138.8261  158.6757 H   0  0  0  0  0  0  0  0  0  0  0  0
  153.6498  141.1220  157.9257 H   0  0  0  0  0  0  0  0  0  0  0  0
  152.2121  141.6966  158.7180 H   0  0  0  0  0  0  0  0  0  0  0  0
  155.4661  139.7090  160.1041 H   0  0  0  0  0  0  0  0  0  0  0  0
  154.0834  143.6555  163.2313 H   0  0  0  0  0  0  0  0  0  0  0  0
  155.8330  143.4398  163.0203 H   0  0  0  0  0  0  0  0  0  0  0  0
  154.9030  142.2790  163.9943 H   0  0  0  0  0  0  0  0  0  0  0  0
  152.9169  143.0464  161.0353 H   0  0  0  0  0  0  0  0  0  0  0  0
  1  2  1  0  0  0  0
  1 21  1  0  0  0  0
  1 22  1  0  0  0  0
  1 23  1  0  0  0  0
  2  3  1  0  0  0  0
  2 24  1  0  0  0  0
  2 25  1  0  0  0  0
  3  4  1  0  0  0  0
  3 10  1  0  0  0  0
  3 26  1  0  0  0  0
  4  5  1  0  0  0  0
  5  9  1  0  0  0  0
  5  6  1  0  0  0  0
  5 27  1  0  0  0  0
  6  7  1  0  0  0  0
  6 28  1  0  0  0  0
  6 29  1  0  0  0  0
  7  8  1  0  0  0  0
  7 30  1  0  0  0  0
  7 31  1  0  0  0  0
  8  9  1  0  0  0  0
  8 32  1  0  0  0  0
  8 33  1  0  0  0  0
  9 34  1  0  0  0  0
  9 35  1  0  0  0  0
 10 11  2  0  0  0  0
 10 12  1  0  0  0  0
 12 13  1  0  0  0  0
 12 36  1  0  0  0  0
 13 14  1  0  0  0  0
 13 37  1  0  0  0  0
 13 38  1  0  0  0  0
 14 15  1  0  0  0  0
 14 39  1  0  0  0  0
 14 40  1  0  0  0  0
 15 20  2  0  0  0  0
 15 16  1  0  0  0  0
 16 17  2  0  0  0  0
 16 41  1  0  0  0  0
 17 18  1  0  0  0  0
 18 19  1  0  0  0  0
 18 20  1  0  0  0  0
 19 42  1  0  0  0  0
 19 43  1  0  0  0  0
 19 44  1  0  0  0  0
 20 45  1  0  0  0  0
M  END
> <s_m_source_file>
AV-unprocessed.smi

> <i_m_source_file_index>
3050

> <i_lp_mmshare_version>
43012

> <i_f3d_flags>
0

> <s_epik_input>
W0NIMl0xW0NIMl1bQ0gyXVtDSDJdW0NIXTFPW0NAQEhdKFtDSDJdW0NIM10pQyg9TylbTkhdW0NIMl1bQ0gyXWMyW2NIXW5uKFtDSDNdKVtjSF0y

> <s_epik_cmdline>
J2VwaWtfcHl0aG9uJywgJy1waCcsICc3LjAnLCAnLXRuJywgJzgnLCAnLW1hJywgJzIwMCcsICctbWV0YWxfYmluZGluZycsICctaW1hZScsICc8aW5maWxlLm1hZT4nLCAnLW9tYWUnLCAnPG91dGZpbGUubWFlPic=

> <r_lp_tautomer_probability>
1

> <r_epik_Ionization_Penalty>
0.000440265

> <r_epik_Ionization_Penalty_Charging>
0

> <r_epik_Ionization_Penalty_Neutral>
0.000440265

> <r_epik_State_Penalty>
-0

> <r_epik_Charging_Adjusted_Penalty>
0

> <i_epik_Tot_Q>
0

> <i_epik_Tot_abs_Q>
0

> <r_epik_Metal_State_Penalty>
-0

> <b_epik_Metal_Only>
0

> <s_lp_Force_Field>
OPLS_2005

> <r_lp_Energy>
20.5357

> <b_lp_Chiralities_Consistent>
1

> <s_lp_Variant>
AV-unprocessed.smi:3050-1

> <Gold.Version>
5.8.1

> <Gold.Id.Protein>
6NUR|6NUR_protein|mol2

> <Gold.PLP.Fitness>
46.8112

> <Gold.PLP.PLP>
-42.1516

> <Gold.PLP.part.hbond>
-3.0000

> <Gold.PLP.part.metal>
0.0000

> <Gold.PLP.part.buried>
-2.3346

> <Gold.PLP.part.nonpolar>
-35.1864

> <Gold.PLP.part.repulsive>
0.1540

> <Gold.PLP.ligand.clash>
0.0000

> <Gold.PLP.ligand.torsion>
0.7676

> <Gold.PLP.Chemscore.Hbond>
2.0000

> <Gold.PLP.Chemscore.CHOScore>
0.0000

> <Gold.PLP.Chemscore.Metal>
0.0000

> <Gold.Chemscore.Hbonds>
donor molecule, donor type, donor heavy atom, donor atom, acceptor molecule, acceptor atom, score
      P1  H  7989  7998       L1     4  1.00
      P1  H  7997  8008       L1    11  1.00

> <Gold.PLP.Chemscore.Internal.Correction>
0.1948

> <Gold.Rescore>
     Score         DG    S(hbond)    S(metal)    S(lipo)     H(rot)  DE(clash)    DE(int)     intcor
     14.54     -18.07       1.61        0.00     101.79       1.83       0.42       3.12       ----

> <Gold.Chemscore.Fitness>
14.5360

> <Gold.Chemscore.DG>
-18.0733

> <Gold.Chemscore.ZeroCoef>
-5.4800

> <Gold.Chemscore.Hbond>
1.6064

> <Gold.Chemscore.Metal>
0.0000

> <Gold.Chemscore.Lipo>
101.7867

> <Gold.Chemscore.Internal_Hbond>
0.0000

> <Gold.Chemscore.DEClash>
0.4182

> <Gold.Chemscore.DEInternal>
3.1192

> <Gold.Chemscore.Rot>
1.8286

> <Gold.Chemscore.Internal.Correction>
   9.000000E+99

> <Gold.Chemscore.Hbonds>
donor molecule, donor type, donor heavy atom, donor atom, acceptor molecule, acceptor atom, score
      P1  H  7989  7998       L1     4  0.74
      P1  H  7997  8008       L1    11  0.96

> <Gold.Chemscore.Hbond.Weighted>
-5.3654

> <Gold.Chemscore.Metal.Weighted>
-0.0000

> <Gold.Chemscore.Lipo.Weighted>
-11.9090

> <Gold.Chemscore.Internal_Hbond.Weighted>
0.0000

> <Gold.Chemscore.DEClash.Weighted>
0.4182

> <Gold.Chemscore.DEInternal.Weighted>
3.1192

> <Gold.Chemscore.Rot.Weighted>
4.6811

> <Gold.Chemscore.Internal.Correction.Weighted>
   9.000000E+99

> <Gold.Protein.RotatedTorsions>
[ 6907 6896 6895 6894 ] final  -20.44 input  -60.11 | X-H torsion
[ 7974 7965 7964 7962 ] final   91.28 input  175.53 | X-H torsion
[ 8008 7997 7996 7995 ] final  -57.20 input   59.86 | X-H torsion
[ 10167 10162 10161 10158 ] final  107.35 input  -65.29 | X-H torsion
[ 10718 10713 10712 10709 ] final   78.53 input   66.30 | X-H torsion
[ 10763 10752 10751 10750 ] final -125.01 input  -60.55 | X-H torsion
[ 11005 11000 10999 10996 ] final  -69.60 input  -57.11 | X-H torsion

> <Gold.Protein.ActiveResidues>
 VAL166  LYS551  ARG553  GLY616  TRP617  ASP618  TYR619  PRO620  LYS621  CYS622 
 ASP623  PHE694  ASN695  SER759  ASP760  ASP761  ALA762  ILE779  LEU786  VAL792 
 PHE793  MET794  SER795  GLU796  ALA797  LYS798  CYS799  TRP800  GLU811  SER814 

> <Gold.Protein.RotatedAtoms>
  151.2482  135.0613  159.9051 H   0  0  0  0  0  0  0  0  0  0  0  0  # atno 6907 bound_to 6896
  152.5384  134.0361  159.8057 H   0  0  0  0  0  0  0  0  0  0  0  0  # atno 6908 bound_to 6896
  151.0565  133.5531  159.2669 H   0  0  0  0  0  0  0  0  0  0  0  0  # atno 6909 bound_to 6896
  145.5077  139.2276  143.2742 H   0  0  0  0  0  0  0  0  0  0  0  0  # atno 7974 bound_to 7965
  154.4259  140.1112  156.5759 H   0  0  0  0  0  0  0  0  0  0  0  0  # atno 8008 bound_to 7997
  155.6163  140.3494  155.4619 H   0  0  0  0  0  0  0  0  0  0  0  0  # atno 8009 bound_to 7997
  156.0059  140.1209  157.0491 H   0  0  0  0  0  0  0  0  0  0  0  0  # atno 8010 bound_to 7997
  139.6934  144.7105  151.1309 H   0  0  0  0  0  0  0  0  0  0  0  0  # atno 10167 bound_to 10162
  157.6748  130.9872  150.1800 H   0  0  0  0  0  0  0  0  0  0  0  0  # atno 10718 bound_to 10713
  154.8730  135.4044  154.3198 H   0  0  0  0  0  0  0  0  0  0  0  0  # atno 10763 bound_to 10752
  153.4028  135.7018  153.6419 H   0  0  0  0  0  0  0  0  0  0  0  0  # atno 10764 bound_to 10752
  153.5155  135.3698  155.2578 H   0  0  0  0  0  0  0  0  0  0  0  0  # atno 10765 bound_to 10752
  141.1557  133.6768  156.6625 H   0  0  0  0  0  0  0  0  0  0  0  0  # atno 11005 bound_to 11000
  146.2186  140.5882  142.9027 LP  0  0  0  0  0  0  0  0  0  0  0  0  # atno 17320 bound_to 7965
  144.7744  140.5708  143.6648 LP  0  0  0  0  0  0  0  0  0  0  0  0  # atno 17321 bound_to 7965
  140.7689  143.5527  150.9187 LP  0  0  0  0  0  0  0  0  0  0  0  0  # atno 17342 bound_to 10162
  139.9205  143.6611  152.3097 LP  0  0  0  0  0  0  0  0  0  0  0  0  # atno 17343 bound_to 10162
  156.2535  130.3703  149.8207 LP  0  0  0  0  0  0  0  0  0  0  0  0  # atno 17370 bound_to 10713
  156.5973  130.8531  151.3423 LP  0  0  0  0  0  0  0  0  0  0  0  0  # atno 17371 bound_to 10713
  140.3236  134.7987  157.4272 LP  0  0  0  0  0  0  0  0  0  0  0  0  # atno 17394 bound_to 11000
  140.1075  134.5389  155.8296 LP  0  0  0  0  0  0  0  0  0  0  0  0  # atno 17395 bound_to 11000

$$$$
