AV-unprocessed.smi:1209|AV-procd|sdf|5073|dock2
  -GOLD-   22720 4123D 1   1.00000     0.00000
 Structure written by MMmdl.
 49 51  0  0  0  0  0  0  0  0  2 V2000
  149.4800  131.6183  153.7563 C   0  0  0  0  0  0  0  0  0  0  0  0
  149.9178  132.8874  154.4037 C   0  0  0  0  0  0  0  0  0  0  0  0
  149.6303  134.2015  154.1668 C   0  0  0  0  0  0  0  0  0  0  0  0
  150.3869  134.8937  155.1520 C   0  0  0  0  0  0  0  0  0  0  0  0
  150.4770  136.3778  155.3825 C   0  0  0  0  0  0  0  0  0  0  0  0
  149.5822  137.1372  154.4711 N   0  3  1  0  0  0  0  0  0  0  0  0
  148.1686  137.1347  154.9253 C   0  0  0  0  0  0  0  0  0  0  0  0
  150.0922  138.5056  154.1895 C   0  0  0  0  0  0  0  0  0  0  0  0
  149.1812  139.6069  154.7682 C   0  0  2  0  0  0  0  0  0  0  0  0
  148.1867  139.9220  153.8116 O   0  0  0  0  0  0  0  0  0  0  0  0
  149.9748  140.8797  155.1236 C   0  0  0  0  0  0  0  0  0  0  0  0
  150.8898  140.6724  156.2322 N   0  0  0  0  0  0  0  0  0  0  0  0
  151.7945  139.6827  156.3597 C   0  0  0  0  0  0  0  0  0  0  0  0
  152.5334  139.6716  157.4650 N   0  0  0  0  0  0  0  0  0  0  0  0
  152.0536  140.7853  158.1327 C   0  0  0  0  0  0  0  0  0  0  0  0
  152.4194  141.3331  159.3817 C   0  0  0  0  0  0  0  0  0  0  0  0
  151.7849  142.4941  159.8777 C   0  0  0  0  0  0  0  0  0  0  0  0
  152.2070  143.0459  161.2281 C   0  0  0  0  0  0  0  0  0  0  0  0
  150.7685  143.1277  159.1184 C   0  0  0  0  0  0  0  0  0  0  0  0
  150.0743  144.3770  159.6311 C   0  0  0  0  0  0  0  0  0  0  0  0
  150.3906  142.5936  157.8687 C   0  0  0  0  0  0  0  0  0  0  0  0
  151.0273  141.4358  157.3870 C   0  0  0  0  0  0  0  0  0  0  0  0
  151.0764  134.0617  155.9155 N   0  0  0  0  0  0  0  0  0  0  0  0
  150.7791  132.7770  155.4478 O   0  0  0  0  0  0  0  0  0  0  0  0
  148.9568  131.8185  152.8210 H   0  0  0  0  0  0  0  0  0  0  0  0
  148.8057  131.0640  154.4094 H   0  0  0  0  0  0  0  0  0  0  0  0
  150.3362  130.9814  153.5336 H   0  0  0  0  0  0  0  0  0  0  0  0
  148.9804  134.6043  153.4039 H   0  0  0  0  0  0  0  0  0  0  0  0
  150.2462  136.6315  156.4188 H   0  0  0  0  0  0  0  0  0  0  0  0
  151.5112  136.6830  155.2183 H   0  0  0  0  0  0  0  0  0  0  0  0
  148.0739  137.6023  155.9062 H   0  0  0  0  0  0  0  0  0  0  0  0
  147.7774  136.1199  154.9951 H   0  0  0  0  0  0  0  0  0  0  0  0
  147.5214  137.6718  154.2334 H   0  0  0  0  0  0  0  0  0  0  0  0
  151.1054  138.5983  154.5837 H   0  0  0  0  0  0  0  0  0  0  0  0
  150.1727  138.6657  153.1132 H   0  0  0  0  0  0  0  0  0  0  0  0
  148.6812  139.2512  155.6686 H   0  0  0  0  0  0  0  0  0  0  0  0
  148.5930  140.3729  153.0869 H   0  0  0  0  0  0  0  0  0  0  0  0
  150.5558  141.2125  154.2624 H   0  0  0  0  0  0  0  0  0  0  0  0
  149.2992  141.6980  155.3761 H   0  0  0  0  0  0  0  0  0  0  0  0
  151.9156  138.9255  155.5988 H   0  0  0  0  0  0  0  0  0  0  0  0
  153.1942  140.8506  159.9591 H   0  0  0  0  0  0  0  0  0  0  0  0
  152.6190  144.0492  161.1188 H   0  0  0  0  0  0  0  0  0  0  0  0
  152.9686  142.4200  161.6934 H   0  0  0  0  0  0  0  0  0  0  0  0
  151.3546  143.0930  161.9059 H   0  0  0  0  0  0  0  0  0  0  0  0
  149.3533  144.7575  158.9071 H   0  0  0  0  0  0  0  0  0  0  0  0
  150.8009  145.1666  159.8245 H   0  0  0  0  0  0  0  0  0  0  0  0
  149.5394  144.1633  160.5566 H   0  0  0  0  0  0  0  0  0  0  0  0
  149.6162  143.0659  157.2829 H   0  0  0  0  0  0  0  0  0  0  0  0
  149.6093  136.6473  153.5876 H   0  0  0  0  0  0  0  0  0  0  0  0
  1  2  1  0  0  0  0
  1 25  1  0  0  0  0
  1 26  1  0  0  0  0
  1 27  1  0  0  0  0
  2 24  1  0  0  0  0
  2  3  2  0  0  0  0
  3  4  1  0  0  0  0
  3 28  1  0  0  0  0
  4  5  1  0  0  0  0
  4 23  2  0  0  0  0
  5  6  1  0  0  0  0
  5 29  1  0  0  0  0
  5 30  1  0  0  0  0
  6  7  1  0  0  0  0
  6  8  1  0  0  0  0
  6 49  1  0  0  0  0
  7 31  1  0  0  0  0
  7 32  1  0  0  0  0
  7 33  1  0  0  0  0
  8  9  1  0  0  0  0
  8 34  1  0  0  0  0
  8 35  1  0  0  0  0
  9 10  1  0  0  0  0
  9 11  1  0  0  0  0
  9 36  1  0  0  0  0
 10 37  1  0  0  0  0
 11 12  1  0  0  0  0
 11 38  1  0  0  0  0
 11 39  1  0  0  0  0
 12 22  1  0  0  0  0
 12 13  1  0  0  0  0
 13 14  2  0  0  0  0
 13 40  1  0  0  0  0
 14 15  1  0  0  0  0
 15 22  2  0  0  0  0
 15 16  1  0  0  0  0
 16 17  2  0  0  0  0
 16 41  1  0  0  0  0
 17 18  1  0  0  0  0
 17 19  1  0  0  0  0
 18 42  1  0  0  0  0
 18 43  1  0  0  0  0
 18 44  1  0  0  0  0
 19 20  1  0  0  0  0
 19 21  2  0  0  0  0
 20 45  1  0  0  0  0
 20 46  1  0  0  0  0
 20 47  1  0  0  0  0
 21 22  1  0  0  0  0
 21 48  1  0  0  0  0
 23 24  1  0  0  0  0
M  CHG  1   6   1
M  END
> <s_m_source_file>
AV-unprocessed.smi

> <i_m_source_file_index>
1209

> <i_lp_mmshare_version>
43012

> <i_f3d_flags>
0

> <s_epik_input>
W0NIM11jMVtjSF1jKG5vMSlbQ0gyXU4oW0NIM10pW0NIMl1bQ0BIXShbT0hdKVtDSDJdbihbY0hdbjIpYyhjMjMpW2NIXWMoW0NIM10pYyhbY0hdMylbQ0gzXQ==

> <s_epik_cmdline>
J2VwaWtfcHl0aG9uJywgJy1waCcsICc3LjAnLCAnLXRuJywgJzgnLCAnLW1hJywgJzIwMCcsICctbWV0YWxfYmluZGluZycsICctaW1hZScsICc8aW5maWxlLm1hZT4nLCAnLW9tYWUnLCAnPG91dGZpbGUubWFlPic=

> <r_epik_Ionization_Penalty>
2.05249

> <r_epik_Ionization_Penalty_Charging>
1.96618

> <r_epik_Ionization_Penalty_Neutral>
0.0863156

> <r_epik_State_Penalty>
2.19215

> <r_epik_Charging_Adjusted_Penalty>
4.15833

> <i_epik_Tot_Q>
1

> <i_epik_Tot_abs_Q>
1

> <r_epik_Metal_State_Penalty>
2.17654

> <b_epik_Metal_Only>
0

> <s_lp_Force_Field>
OPLS_2005

> <r_lp_Energy>
10.2768

> <b_lp_Chiralities_Consistent>
1

> <s_lp_Variant>
AV-unprocessed.smi:1209-5

> <Gold.Version>
5.8.1

> <Gold.Id.Protein>
6NUR|6NUR_protein|mol2

> <Gold.PLP.Fitness>
53.0864

> <Gold.PLP.PLP>
-46.3395

> <Gold.PLP.part.hbond>
-3.0000

> <Gold.PLP.part.metal>
0.0000

> <Gold.PLP.part.buried>
-4.3944

> <Gold.PLP.part.nonpolar>
-39.8061

> <Gold.PLP.part.repulsive>
0.0173

> <Gold.PLP.ligand.clash>
2.6879

> <Gold.PLP.ligand.torsion>
1.4125

> <Gold.PLP.Chemscore.Hbond>
4.0000

> <Gold.PLP.Chemscore.CHOScore>
0.0000

> <Gold.PLP.Chemscore.Metal>
0.0000

> <Gold.Chemscore.Hbonds>
donor molecule, donor type, donor heavy atom, donor atom, acceptor molecule, acceptor atom, score
      L1  H     6    49       P1  7948  2.00
      L1  H    10    37       P1  7957  0.49
      P1  H  7997  8009       L1    14  0.62

> <Gold.PLP.Chemscore.Internal.Correction>
0.2597

> <Gold.Rescore>
     Score         DG    S(hbond)    S(metal)    S(lipo)     H(rot)  DE(clash)    DE(int)     intcor
     17.39     -20.13       2.05        0.00     122.18       2.53       1.29       1.45       ----

> <Gold.Chemscore.Fitness>
17.3889

> <Gold.Chemscore.DG>
-20.1285

> <Gold.Chemscore.ZeroCoef>
-5.4800

> <Gold.Chemscore.Hbond>
2.0475

> <Gold.Chemscore.Metal>
0.0000

> <Gold.Chemscore.Lipo>
122.1790

> <Gold.Chemscore.Internal_Hbond>
0.0000

> <Gold.Chemscore.DEClash>
1.2937

> <Gold.Chemscore.DEInternal>
1.4458

> <Gold.Chemscore.Rot>
2.5332

> <Gold.Chemscore.Internal.Correction>
   9.000000E+99

> <Gold.Chemscore.Hbonds>
donor molecule, donor type, donor heavy atom, donor atom, acceptor molecule, acceptor atom, score
      L1  H     6    49       P1  7948  0.64
      L1  H    10    37       P1  7957  0.50
      P1  H  7997  8009       L1    14  0.06

> <Gold.Chemscore.Hbond.Weighted>
-6.8386

> <Gold.Chemscore.Metal.Weighted>
-0.0000

> <Gold.Chemscore.Lipo.Weighted>
-14.2949

> <Gold.Chemscore.Internal_Hbond.Weighted>
0.0000

> <Gold.Chemscore.DEClash.Weighted>
1.2937

> <Gold.Chemscore.DEInternal.Weighted>
1.4458

> <Gold.Chemscore.Rot.Weighted>
6.4851

> <Gold.Chemscore.Internal.Correction.Weighted>
   9.000000E+99

> <Gold.Protein.RotatedTorsions>
[ 6907 6896 6895 6894 ] final    7.81 input  -60.11 | X-H torsion
[ 7974 7965 7964 7962 ] final -103.73 input  175.53 | X-H torsion
[ 8008 7997 7996 7995 ] final -169.90 input   59.86 | X-H torsion
[ 10167 10162 10161 10158 ] final  130.47 input  -65.29 | X-H torsion
[ 10718 10713 10712 10709 ] final   94.78 input   66.30 | X-H torsion
[ 10763 10752 10751 10750 ] final   31.35 input  -60.55 | X-H torsion
[ 11005 11000 10999 10996 ] final -116.82 input  -57.11 | X-H torsion

> <Gold.Protein.ActiveResidues>
 VAL166  LYS551  ARG553  GLY616  TRP617  ASP618  TYR619  PRO620  LYS621  CYS622 
 ASP623  PHE694  ASN695  SER759  ASP760  ASP761  ALA762  ILE779  LEU786  VAL792 
 PHE793  MET794  SER795  GLU796  ALA797  LYS798  CYS799  TRP800  GLU811  SER814 

> <Gold.Protein.RotatedAtoms>
  151.6959  135.0938  160.0241 H   0  0  0  0  0  0  0  0  0  0  0  0  # atno 6907 bound_to 6896
  152.3750  133.6465  159.6125 H   0  0  0  0  0  0  0  0  0  0  0  0  # atno 6908 bound_to 6896
  150.7702  133.9124  159.3415 H   0  0  0  0  0  0  0  0  0  0  0  0  # atno 6909 bound_to 6896
  145.2522  140.9242  143.3089 H   0  0  0  0  0  0  0  0  0  0  0  0  # atno 7974 bound_to 7965
  155.9111  140.1057  157.1278 H   0  0  0  0  0  0  0  0  0  0  0  0  # atno 8008 bound_to 7997
  154.4039  140.1274  156.4623 H   0  0  0  0  0  0  0  0  0  0  0  0  # atno 8009 bound_to 7997
  155.7309  140.3468  155.5061 H   0  0  0  0  0  0  0  0  0  0  0  0  # atno 8010 bound_to 7997
  139.5429  144.6747  151.4567 H   0  0  0  0  0  0  0  0  0  0  0  0  # atno 10167 bound_to 10162
  157.6945  131.0524  150.4238 H   0  0  0  0  0  0  0  0  0  0  0  0  # atno 10718 bound_to 10713
  153.0320  135.6441  154.1186 H   0  0  0  0  0  0  0  0  0  0  0  0  # atno 10763 bound_to 10752
  154.0907  135.2866  155.3273 H   0  0  0  0  0  0  0  0  0  0  0  0  # atno 10764 bound_to 10752
  154.6467  135.5440  153.7916 H   0  0  0  0  0  0  0  0  0  0  0  0  # atno 10765 bound_to 10752
  141.0396  133.9856  157.3015 H   0  0  0  0  0  0  0  0  0  0  0  0  # atno 11005 bound_to 11000
  144.9493  139.4101  143.6410 LP  0  0  0  0  0  0  0  0  0  0  0  0  # atno 17320 bound_to 7965
  146.3299  139.8492  142.8876 LP  0  0  0  0  0  0  0  0  0  0  0  0  # atno 17321 bound_to 7965
  140.6666  143.8385  150.6949 LP  0  0  0  0  0  0  0  0  0  0  0  0  # atno 17342 bound_to 10162
  140.1796  143.4125  152.1942 LP  0  0  0  0  0  0  0  0  0  0  0  0  # atno 17343 bound_to 10162
  156.4611  130.4032  149.6576 LP  0  0  0  0  0  0  0  0  0  0  0  0  # atno 17370 bound_to 10713
  156.3691  130.7521  151.2502 LP  0  0  0  0  0  0  0  0  0  0  0  0  # atno 17371 bound_to 10713
  139.9266  135.0201  156.8255 LP  0  0  0  0  0  0  0  0  0  0  0  0  # atno 17394 bound_to 11000
  140.6258  133.9951  155.7639 LP  0  0  0  0  0  0  0  0  0  0  0  0  # atno 17395 bound_to 11000

$$$$
